
     RDKit          2D

 38 43  0  0  0  0  0  0  0  0999 V2000
    0.4542   -2.0625    0.0000 N   0  0  0  0  0  0  0  0  0  0  0  0
   -1.0958   -1.6542    0.0000 C   0  0  0  0  0  0  0  0  0  0  0  0
   -0.7458   -1.0417    0.0000 C   0  0  0  0  0  0  0  0  0  0  0  0
   -0.8000   -2.3125    0.0000 C   0  0  0  0  0  0  0  0  0  0  0  0
   -1.2583   -0.5292    0.0000 N   0  0  0  0  0  0  0  0  0  0  0  0
    1.0667   -2.4167    0.0000 C   0  0  0  0  0  0  0  0  0  0  0  0
   -0.1208   -2.4917    0.0000 C   0  0  0  0  0  0  0  0  0  0  0  0
   -1.7833   -1.5417    0.0000 N   0  0  0  0  0  0  0  0  0  0  0  0
    4.0917   -1.2500    0.0000 C   0  0  0  0  0  0  0  0  0  0  0  0
   -1.8958   -0.8500    0.0000 C   0  0  0  0  0  0  0  0  0  0  0  0
    4.7042   -0.8917    0.0000 C   0  0  0  0  0  0  0  0  0  0  0  0
    0.4792   -1.3625    0.0000 C   0  0  0  0  0  0  0  0  0  0  0  0
    5.3167   -1.2500    0.0000 C   0  0  0  0  0  0  0  0  0  0  0  0
    3.4792   -0.8917    0.0000 N   0  0  0  0  0  0  0  0  0  0  0  0
   -0.0583   -0.9042    0.0000 C   0  0  0  0  0  0  0  0  0  0  0  0
    1.6875   -2.0167    0.0000 C   0  0  0  0  0  0  0  0  0  0  0  0
    1.1042   -3.1125    0.0000 O   0  0  0  0  0  0  0  0  0  0  0  0
    4.0917   -1.9542    0.0000 O   0  0  0  0  0  0  0  0  0  0  0  0
    5.3167   -1.9542    0.0000 C   0  0  0  0  0  0  0  0  0  0  0  0
    2.3000   -2.3667    0.0000 C   0  0  0  0  0  0  0  0  0  0  0  0
    1.6542   -1.3167    0.0000 C   0  0  0  0  0  0  0  0  0  0  0  0
    2.8667   -1.2792    0.0000 C   0  0  0  0  0  0  0  0  0  0  0  0
   -1.3083   -2.8125    0.0000 C   0  0  0  0  0  0  0  0  0  0  0  0
    2.2542   -0.9292    0.0000 C   0  0  0  0  0  0  0  0  0  0  0  0
    2.9042   -1.9792    0.0000 C   0  0  0  0  0  0  0  0  0  0  0  0
    0.0667   -3.1792    0.0000 C   0  0  0  0  0  0  0  0  0  0  0  0
   -2.5083   -0.4917    0.0000 C   0  0  0  0  0  0  0  0  0  0  0  0
    4.7042   -0.1875    0.0000 C   0  0  0  0  0  0  0  0  0  0  0  0
    5.9292   -0.8917    0.0000 C   0  0  0  0  0  0  0  0  0  0  0  0
    5.9292   -2.3125    0.0000 C   0  0  0  0  0  0  0  0  0  0  0  0
    4.7042   -2.3042    0.0000 C   0  0  0  0  0  0  0  0  0  0  0  0
   -1.1208   -3.5000    0.0000 C   0  0  0  0  0  0  0  0  0  0  0  0
   -0.4333   -3.6792    0.0000 C   0  0  0  0  0  0  0  0  0  0  0  0
    5.3167    0.1708    0.0000 C   0  0  0  0  0  0  0  0  0  0  0  0
    5.9292   -0.1875    0.0000 C   0  0  0  0  0  0  0  0  0  0  0  0
    4.7042   -3.0167    0.0000 C   0  0  0  0  0  0  0  0  0  0  0  0
    5.9292   -3.0167    0.0000 C   0  0  0  0  0  0  0  0  0  0  0  0
    5.3167   -3.3750    0.0000 C   0  0  0  0  0  0  0  0  0  0  0  0
  2  4  1  0
  3 15  1  0
  4  7  1  0
  5  3  1  0
  6  1  1  0
  7  1  1  0
  8  2  1  0
  9 14  1  0
 10  5  2  0
 11  9  1  0
 12  1  1  0
 13 11  1  0
 14 22  1  0
 15 12  1  0
 16  6  1  0
 17  6  2  0
 18  9  2  0
 19 13  1  0
 20 16  1  0
 21 16  2  0
 22 24  2  0
 23  4  2  0
 24 21  1  0
 25 20  2  0
 26  7  2  0
 27 10  1  0
 28 11  2  0
 29 13  2  0
 30 19  1  0
 31 19  2  0
 32 33  2  0
 33 26  1  0
 34 28  1  0
 35 34  2  0
 36 31  1  0
 37 30  2  0
 38 36  2  0
  2  3  2  0
 23 32  1  0
 25 22  1  0
 10  8  1  0
 29 35  1  0
 38 37  1  0
M  END
> <chembl_id>
CHEMBL1755

> <chembl_pref_name>
CONIVAPTAN
