
     RDKit          2D

 23 26  0  0  0  0  0  0  0  0999 V2000
   -0.1549  -16.0303    0.0000 C   0  0  0  0  0  0  0  0  0  0  0  0
   -0.9029  -16.3782    0.0000 C   0  0  0  0  0  0  0  0  0  0  0  0
   -1.6429  -16.0086    0.0000 C   0  0  0  0  0  0  0  0  0  0  0  0
    0.0383  -15.2261    0.0000 C   0  0  0  0  0  0  0  0  0  0  0  0
   -1.8202  -15.2044    0.0000 O   0  0  0  0  0  0  0  0  0  0  0  0
   -0.4695  -14.5715    0.0000 C   0  0  0  0  0  0  0  0  0  0  0  0
   -1.2977  -14.5650    0.0000 C   0  0  0  0  0  0  0  0  0  0  0  0
    0.5575  -16.4461    0.0000 C   0  0  0  0  0  0  0  0  0  0  0  0
    0.5575  -17.2732    0.0000 C   0  0  0  0  0  0  0  0  0  0  0  0
   -0.1549  -17.6845    0.0000 C   0  0  0  0  0  0  0  0  0  0  0  0
   -0.8683  -17.2732    0.0000 C   0  0  0  0  0  0  0  0  0  0  0  0
   -1.5788  -17.6875    0.0000 C   0  0  0  0  0  0  0  0  0  0  0  0
   -2.2974  -17.2793    0.0000 C   0  0  0  0  0  0  0  0  0  0  0  0
   -2.3010  -16.4522    0.0000 O   0  0  0  0  0  0  0  0  0  0  0  0
    1.2709  -16.0366    0.0000 C   0  0  0  0  0  0  0  0  0  0  0  0
    0.5621  -15.6191    0.0000 H   0  0  0  0  0  0  0  0  0  0  0  0
   -0.8637  -18.0912    0.0000 H   0  0  0  0  0  0  0  0  0  0  0  0
   -1.5742  -18.5100    0.0000 C   0  0  0  0  0  0  0  0  0  0  0  0
   -3.0074  -17.6946    0.0000 O   0  0  0  0  0  0  0  0  0  0  0  0
   -1.6360  -16.8299    0.0000 H   0  0  0  0  0  0  0  0  0  0  0  0
   -1.6473  -13.8205    0.0000 C   0  0  0  0  0  0  0  0  0  0  0  0
   -0.5804  -14.9701    0.0000 O   0  0  0  0  0  0  0  0  0  0  0  0
   -1.1607  -15.5505    0.0000 O   0  0  0  0  0  0  0  0  0  0  0  0
  2  3  1  0
  4  6  1  0
  1  2  1  0
  5  7  1  0
 11 12  1  0
 12 13  1  0
 13 14  1  0
 14  3  1  0
  6  7  1  0
  8 15  1  6
  8  9  1  0
  1 16  1  6
  1  4  1  0
 11 17  1  6
 12 18  1  1
  3  5  1  0
 13 19  1  1
  8  1  1  0
  3 20  1  1
  9 10  1  0
  7 21  1  1
 10 11  1  0
  7 22  1  0
  2 11  1  0
 22 23  1  0
  2 23  1  6
M  END
> <chembl_id>
CHEMBL252518

> <chembl_pref_name>
ARTENIMOL
