
     RDKit          2D

 25 27  0  0  0  0  0  0  0  0999 V2000
    5.1292   -0.4167    0.0000 N   0  0  0  0  0  0  0  0  0  0  0  0
    5.3417    0.2833    0.0000 C   0  0  0  0  0  0  0  0  0  0  0  0
    4.4167   -0.4167    0.0000 C   0  0  0  0  0  0  0  0  0  0  0  0
    4.7542    0.6583    0.0000 S   0  0  0  0  0  0  0  0  0  0  0  0
    4.1792    0.2833    0.0000 C   0  0  0  0  0  0  0  0  0  0  0  0
   -1.3708   -0.7917    0.0000 N   0  0  0  0  0  0  0  0  0  0  0  0
    5.9917    0.5333    0.0000 O   0  0  0  0  0  0  0  0  0  0  0  0
    4.0167   -1.0042    0.0000 O   0  0  0  0  0  0  0  0  0  0  0  0
    3.5667    0.6333    0.0000 C   0  0  0  0  0  0  0  0  0  0  0  0
   -0.7458   -0.4292    0.0000 C   0  0  0  0  0  0  0  0  0  0  0  0
   -1.9833   -0.4292    0.0000 C   0  0  0  0  0  0  0  0  0  0  0  0
    2.9542    0.2833    0.0000 C   0  0  0  0  0  0  0  0  0  0  0  0
    1.7167   -0.4292    0.0000 C   0  0  0  0  0  0  0  0  0  0  0  0
   -0.1333   -0.7917    0.0000 C   0  0  0  0  0  0  0  0  0  0  0  0
   -1.9833    0.2833    0.0000 C   0  0  0  0  0  0  0  0  0  0  0  0
   -0.7458    0.2833    0.0000 C   0  0  0  0  0  0  0  0  0  0  0  0
    2.3292    0.6333    0.0000 C   0  0  0  0  0  0  0  0  0  0  0  0
    2.9542   -0.4292    0.0000 C   0  0  0  0  0  0  0  0  0  0  0  0
    0.4917   -0.4292    0.0000 C   0  0  0  0  0  0  0  0  0  0  0  0
    1.7167    0.2833    0.0000 C   0  0  0  0  0  0  0  0  0  0  0  0
    2.3292   -0.7917    0.0000 C   0  0  0  0  0  0  0  0  0  0  0  0
   -1.3708    0.6333    0.0000 C   0  0  0  0  0  0  0  0  0  0  0  0
    1.1042   -0.7917    0.0000 O   0  0  0  0  0  0  0  0  0  0  0  0
   -2.5958    0.6333    0.0000 C   0  0  0  0  0  0  0  0  0  0  0  0
   -3.2208    0.2833    0.0000 C   0  0  0  0  0  0  0  0  0  0  0  0
  2  1  1  0
  3  1  1  0
  4  2  1  0
  5  3  1  0
  6 10  1  0
  7  2  2  0
  8  3  2  0
  9  5  1  0
 10 14  1  0
 11  6  2  0
 12  9  1  0
 13 20  2  0
 14 19  1  0
 15 22  2  0
 16 10  2  0
 17 12  2  0
 18 12  1  0
 19 23  1  0
 20 17  1  0
 21 18  2  0
 22 16  1  0
 23 13  1  0
 24 15  1  0
 25 24  1  0
  4  5  1  0
 13 21  1  0
 15 11  1  0
M  END
> <chembl_id>
CHEMBL595

> <chembl_pref_name>
PIOGLITAZONE
