
     RDKit          2D

 22 24  0  0  0  0  0  0  0  0999 V2000
   -1.0208   -0.9417    0.0000 C   0  0  0  0  0  0  0  0  0  0  0  0
   -0.3458   -1.9292    0.0000 C   0  0  0  0  0  0  0  0  0  0  0  0
   -0.6083    0.2458    0.0000 C   0  0  0  0  0  0  0  0  0  0  0  0
   -1.0208   -2.9417    0.0000 O   0  0  0  0  0  0  0  0  0  0  0  0
    0.5750    0.4833    0.0000 C   0  0  0  0  0  0  0  0  0  0  0  0
   -2.2083   -1.3167    0.0000 C   0  0  0  0  0  0  0  0  0  0  0  0
    2.9792    0.9583    0.0000 C   0  0  0  0  0  0  0  0  0  0  0  0
   -2.2083   -2.5750    0.0000 C   0  0  0  0  0  0  0  0  0  0  0  0
    2.6125   -0.1542    0.0000 C   0  0  0  0  0  0  0  0  0  0  0  0
    2.1667    1.8708    0.0000 C   0  0  0  0  0  0  0  0  0  0  0  0
    1.4167   -0.4292    0.0000 C   0  0  0  0  0  0  0  0  0  0  0  0
    0.9792    1.6333    0.0000 C   0  0  0  0  0  0  0  0  0  0  0  0
   -1.4250    1.1583    0.0000 O   0  0  0  0  0  0  0  0  0  0  0  0
    2.5792    3.0625    0.0000 I   0  0  0  0  0  0  0  0  0  0  0  0
    3.4542   -1.0792    0.0000 I   0  0  0  0  0  0  0  0  0  0  0  0
    4.2042    1.1958    0.0000 O   0  0  0  0  0  0  0  0  0  0  0  0
    0.9625   -1.9125    0.0000 C   0  0  0  0  0  0  0  0  0  0  0  0
   -3.2583   -0.7042    0.0000 C   0  0  0  0  0  0  0  0  0  0  0  0
   -3.2583   -3.1792    0.0000 C   0  0  0  0  0  0  0  0  0  0  0  0
    1.5250   -3.0500    0.0000 C   0  0  0  0  0  0  0  0  0  0  0  0
   -4.3458   -1.3167    0.0000 C   0  0  0  0  0  0  0  0  0  0  0  0
   -4.3458   -2.5375    0.0000 C   0  0  0  0  0  0  0  0  0  0  0  0
  2  1  2  0
  3  1  1  0
  4  2  1  0
  5  3  1  0
  6  1  1  0
  7 10  1  0
  8  6  2  0
  9 11  1  0
 10 12  2  0
 11  5  2  0
 12  5  1  0
 13  3  2  0
 14 10  1  0
 15  9  1  0
 16  7  1  0
 17  2  1  0
 18  6  1  0
 19  8  1  0
 20 17  1  0
 21 18  2  0
 22 21  1  0
  8  4  1  0
 19 22  2  0
  9  7  2  0
M  END
> <chembl_id>
CHEMBL232201

> <chembl_pref_name>
BENZIODARONE
