
     RDKit          2D

 17 17  0  0  0  0  0  0  0  0999 V2000
    3.1667    0.7375    0.0000 C   0  0  0  0  0  0  0  0  0  0  0  0
    2.1625    0.5083    0.0000 N   0  0  0  0  0  0  0  0  0  0  0  0
    1.1250    1.2375    0.0000 C   0  0  0  0  0  0  0  0  0  0  0  0
    3.4000    1.6125    0.0000 O   0  0  0  0  0  0  0  0  0  0  0  0
    0.5417    0.2833    0.0000 C   0  0  0  0  0  0  0  0  0  0  0  0
    3.8417   -0.0792    0.0000 O   0  0  0  0  0  0  0  0  0  0  0  0
   -0.6333    0.2833    0.0000 C   0  0  0  0  0  0  0  0  0  0  0  0
   -2.9583    0.3125    0.0000 C   0  0  0  0  0  0  0  0  0  0  0  0
   -4.1333    0.3208    0.0000 Cl  0  0  0  0  0  0  0  0  0  0  0  0
   -2.3958   -0.7042    0.0000 C   0  0  0  0  0  0  0  0  0  0  0  0
   -2.3833    1.3083    0.0000 C   0  0  0  0  0  0  0  0  0  0  0  0
   -1.2000    1.3083    0.0000 C   0  0  0  0  0  0  0  0  0  0  0  0
   -1.2208   -0.7042    0.0000 C   0  0  0  0  0  0  0  0  0  0  0  0
    0.2167    1.8500    0.0000 C   0  0  0  0  0  0  0  0  0  0  0  0
    1.7042    2.0625    0.0000 C   0  0  0  0  0  0  0  0  0  0  0  0
    3.5500   -1.2042    0.0000 C   0  0  0  0  0  0  0  0  0  0  0  0
    4.3417   -2.0542    0.0000 C   0  0  0  0  0  0  0  0  0  0  0  0
  2  1  1  0
  3  2  1  0
  4  1  2  0
  5  3  1  0
  6  1  1  0
  7  5  1  0
  8 10  1  0
  9  8  1  0
 10 13  2  0
 11 12  1  0
 12  7  2  0
 13  7  1  0
 14  3  1  0
 15  3  1  0
 16  6  1  0
 17 16  1  0
 11  8  2  0
M  END
> <chembl_id>
CHEMBL1697686

> <chembl_pref_name>
CLOFOREX
