
     RDKit          2D

 11 11  0  0  1  0  0  0  0  0999 V2000
    6.3042   -4.4792    0.0000 C   0  0  0  0  0  0  0  0  0  0  0  0
    5.6792   -4.8292    0.0000 C   0  0  0  0  0  0  0  0  0  0  0  0
    6.3167   -3.7750    0.0000 O   0  0  0  0  0  0  0  0  0  0  0  0
    5.0625   -4.4917    0.0000 C   0  0  0  0  0  0  0  0  0  0  0  0
    5.6917   -5.5417    0.0000 C   0  0  0  0  0  0  0  0  0  0  0  0
    6.9167   -4.8250    0.0000 O   0  0  0  0  0  0  0  0  0  0  0  0
    4.4542   -4.8500    0.0000 C   0  0  0  0  0  0  0  0  0  0  0  0
    5.0875   -5.9042    0.0000 C   0  0  0  0  0  0  0  0  0  0  0  0
    3.2292   -5.5750    0.0000 N   0  0  0  0  0  0  0  0  0  0  0  0
    4.4625   -5.5542    0.0000 C   0  0  0  0  0  0  0  0  0  0  0  0
    3.8500   -5.9167    0.0000 C   0  0  0  0  0  0  0  0  0  0  0  0
  2  1  1  6
  3  1  2  0
  4  2  1  0
  5  2  1  0
  6  1  1  0
  7  4  1  0
  8  5  1  0
  9 11  1  0
 10  8  1  0
 10 11  1  1
  7 10  1  0
M  END
> <chembl_id>
CHEMBL877

> <chembl_pref_name>
TRANEXAMIC ACID
