
     RDKit          2D

132103  0  0  0  0  0  0  0  0999 V2000
  -16.9420    0.6777    0.0000 O   0  0  0  0  0  0  0  0  0  0  0  0
    0.5009    6.8062    0.0000 Al  0  0  0  0  0  3  0  0  0  0  0  0
    0.5009    5.9812    0.0000 O   0  0  0  0  0  0  0  0  0  0  0  0
    1.2154    7.2187    0.0000 O   0  0  0  0  0  0  0  0  0  0  0  0
   -0.2136    7.2187    0.0000 O   0  0  0  0  0  0  0  0  0  0  0  0
    0.5893    4.2134    0.0000 Al  0  0  0  0  0  3  0  0  0  0  0  0
    0.5893    3.3884    0.0000 O   0  0  0  0  0  0  0  0  0  0  0  0
    1.3038    4.6259    0.0000 O   0  0  0  0  0  0  0  0  0  0  0  0
   -0.1252    4.6259    0.0000 O   0  0  0  0  0  0  0  0  0  0  0  0
    0.7366    2.0036    0.0000 Al  0  0  0  0  0  3  0  0  0  0  0  0
    0.9501    1.2067    0.0000 O   0  0  0  0  0  0  0  0  0  0  0  0
    1.3200    2.5869    0.0000 O   0  0  0  0  0  0  0  0  0  0  0  0
   -0.0603    2.2171    0.0000 O   0  0  0  0  0  0  0  0  0  0  0  0
    0.7661   -0.2946    0.0000 Al  0  0  0  0  0  3  0  0  0  0  0  0
    0.7661   -1.1196    0.0000 O   0  0  0  0  0  0  0  0  0  0  0  0
    1.4805    0.1179    0.0000 O   0  0  0  0  0  0  0  0  0  0  0  0
    0.0516    0.1179    0.0000 O   0  0  0  0  0  0  0  0  0  0  0  0
    3.7420   -0.3536    0.0000 Al  0  0  0  0  0  3  0  0  0  0  0  0
    3.7420   -1.1786    0.0000 O   0  0  0  0  0  0  0  0  0  0  0  0
    4.4564    0.0589    0.0000 O   0  0  0  0  0  0  0  0  0  0  0  0
    3.0275    0.0589    0.0000 O   0  0  0  0  0  0  0  0  0  0  0  0
    3.6536    2.4161    0.0000 Al  0  0  0  0  0  3  0  0  0  0  0  0
    3.6536    1.5911    0.0000 O   0  0  0  0  0  0  0  0  0  0  0  0
    4.3680    2.8286    0.0000 O   0  0  0  0  0  0  0  0  0  0  0  0
    2.9391    2.8286    0.0000 O   0  0  0  0  0  0  0  0  0  0  0  0
    3.6536    4.3902    0.0000 Al  0  0  0  0  0  3  0  0  0  0  0  0
    3.6536    3.5652    0.0000 O   0  0  0  0  0  0  0  0  0  0  0  0
    4.3680    4.8027    0.0000 O   0  0  0  0  0  0  0  0  0  0  0  0
    2.9391    4.8027    0.0000 O   0  0  0  0  0  0  0  0  0  0  0  0
    3.4473    7.0420    0.0000 Al  0  0  0  0  0  3  0  0  0  0  0  0
    3.4473    6.2170    0.0000 O   0  0  0  0  0  0  0  0  0  0  0  0
    4.1618    7.4545    0.0000 O   0  0  0  0  0  0  0  0  0  0  0  0
    2.7329    7.4545    0.0000 O   0  0  0  0  0  0  0  0  0  0  0  0
   -7.1525    4.8616    0.0000 C   0  0  0  0  0  0  0  0  0  0  0  0
   -7.8670    5.2741    0.0000 C   0  0  0  0  0  0  0  0  0  0  0  0
   -8.5814    4.8616    0.0000 C   0  0  0  0  0  0  0  0  0  0  0  0
   -8.5815    4.0366    0.0000 C   0  0  0  0  0  0  0  0  0  0  0  0
   -7.8670    3.6241    0.0000 O   0  0  0  0  0  0  0  0  0  0  0  0
   -7.1525    4.0366    0.0000 C   0  0  0  0  0  0  0  0  0  0  0  0
   -9.2959    5.2741    0.0000 O   0  0  0  0  0  0  0  0  0  0  0  0
   -7.8670    6.0991    0.0000 O   0  0  0  0  0  0  0  0  0  0  0  0
   -6.4380    5.2741    0.0000 O   0  0  0  0  0  0  0  0  0  0  0  0
   -6.4380    3.6241    0.0000 O   0  0  0  0  0  0  0  0  0  0  0  0
   -9.2959    3.6241    0.0000 C   0  0  0  0  0  0  0  0  0  0  0  0
   -6.4380    2.7991    0.0000 C   0  0  0  0  0  0  0  0  0  0  0  0
   -7.2585    2.7129    0.0000 O   0  0  0  0  0  0  0  0  0  0  0  0
   -7.4300    1.9059    0.0000 C   0  0  0  0  0  0  0  0  0  0  0  0
   -6.7155    1.4934    0.0000 C   0  0  0  0  0  0  0  0  0  0  0  0
   -6.1025    2.0454    0.0000 C   0  0  0  0  0  0  0  0  0  0  0  0
   -5.6411    3.0126    0.0000 C   0  0  0  0  0  0  0  0  0  0  0  0
   -5.2955    1.8739    0.0000 O   0  0  0  0  0  0  0  0  0  0  0  0
   -6.6293    0.6729    0.0000 O   0  0  0  0  0  0  0  0  0  0  0  0
   -8.1837    1.5704    0.0000 O   0  0  0  0  0  0  0  0  0  0  0  0
  -10.0104    4.0366    0.0000 O   0  0  0  0  0  0  0  0  0  0  0  0
  -10.7249    3.6241    0.0000 S   0  0  0  0  0  0  0  0  0  0  0  0
  -11.1374    4.3386    0.0000 O   0  0  0  0  0  0  0  0  0  0  0  0
  -11.4393    3.2116    0.0000 O   0  0  0  0  0  0  0  0  0  0  0  0
  -10.3124    2.9096    0.0000 O   0  0  0  0  0  0  0  0  0  0  0  0
  -12.1538    2.7991    0.0000 Al  0  0  0  0  0  3  0  0  0  0  0  0
  -12.8683    3.2116    0.0000 O   0  0  0  0  0  0  0  0  0  0  0  0
  -12.1538    1.9741    0.0000 O   0  0  0  0  0  0  0  0  0  0  0  0
   -5.2286    3.7271    0.0000 O   0  0  0  0  0  0  0  0  0  0  0  0
   -4.4036    3.7271    0.0000 S   0  0  0  0  0  0  0  0  0  0  0  0
   -3.5786    3.7271    0.0000 O   0  0  0  0  0  0  0  0  0  0  0  0
   -4.4036    4.5521    0.0000 O   0  0  0  0  0  0  0  0  0  0  0  0
   -4.4036    2.9021    0.0000 O   0  0  0  0  0  0  0  0  0  0  0  0
   -2.9953    3.1437    0.0000 Al  0  0  0  0  0  3  0  0  0  0  0  0
   -2.1703    3.1437    0.0000 O   0  0  0  0  0  0  0  0  0  0  0  0
   -3.2088    2.3469    0.0000 O   0  0  0  0  0  0  0  0  0  0  0  0
   -4.8830    1.1594    0.0000 S   0  0  0  0  0  0  0  0  0  0  0  0
   -5.5975    0.7469    0.0000 O   0  0  0  0  0  0  0  0  0  0  0  0
   -4.2996    1.7428    0.0000 O   0  0  0  0  0  0  0  0  0  0  0  0
   -4.4705    0.4450    0.0000 O   0  0  0  0  0  0  0  0  0  0  0  0
   -3.6455    0.4450    0.0000 Al  0  0  0  0  0  3  0  0  0  0  0  0
   -3.0621    1.0283    0.0000 O   0  0  0  0  0  0  0  0  0  0  0  0
   -3.6455   -0.3800    0.0000 O   0  0  0  0  0  0  0  0  0  0  0  0
   -7.2127    0.0896    0.0000 S   0  0  0  0  0  0  0  0  0  0  0  0
   -7.7960   -0.4938    0.0000 O   0  0  0  0  0  0  0  0  0  0  0  0
   -7.7960    0.6729    0.0000 O   0  0  0  0  0  0  0  0  0  0  0  0
   -6.8002   -0.6249    0.0000 O   0  0  0  0  0  0  0  0  0  0  0  0
   -6.8002   -1.4499    0.0000 Al  0  0  0  0  0  3  0  0  0  0  0  0
   -6.2168   -2.0333    0.0000 O   0  0  0  0  0  0  0  0  0  0  0  0
   -7.5146   -1.8624    0.0000 O   0  0  0  0  0  0  0  0  0  0  0  0
   -8.7671    2.1537    0.0000 S   0  0  0  0  0  0  0  0  0  0  0  0
   -8.9806    2.9506    0.0000 O   0  0  0  0  0  0  0  0  0  0  0  0
   -8.0526    2.5662    0.0000 O   0  0  0  0  0  0  0  0  0  0  0  0
   -9.4815    1.7412    0.0000 O   0  0  0  0  0  0  0  0  0  0  0  0
   -9.6951    0.9443    0.0000 Al  0  0  0  0  0  3  0  0  0  0  0  0
  -10.5201    0.9443    0.0000 O   0  0  0  0  0  0  0  0  0  0  0  0
   -9.4815    0.1475    0.0000 O   0  0  0  0  0  0  0  0  0  0  0  0
   -9.7084    5.9886    0.0000 S   0  0  0  0  0  0  0  0  0  0  0  0
   -8.9939    6.4011    0.0000 O   0  0  0  0  0  0  0  0  0  0  0  0
  -10.4229    5.5761    0.0000 O   0  0  0  0  0  0  0  0  0  0  0  0
   -9.9219    6.7855    0.0000 O   0  0  0  0  0  0  0  0  0  0  0  0
  -10.7188    6.9990    0.0000 Al  0  0  0  0  0  3  0  0  0  0  0  0
  -11.3022    6.4156    0.0000 O   0  0  0  0  0  0  0  0  0  0  0  0
  -10.7188    7.8240    0.0000 O   0  0  0  0  0  0  0  0  0  0  0  0
   -7.8670    6.9241    0.0000 S   0  0  0  0  0  0  0  0  0  0  0  0
   -8.6920    6.9241    0.0000 O   0  0  0  0  0  0  0  0  0  0  0  0
   -7.0420    6.9241    0.0000 O   0  0  0  0  0  0  0  0  0  0  0  0
   -7.8670    7.7491    0.0000 O   0  0  0  0  0  0  0  0  0  0  0  0
   -7.2836    8.3325    0.0000 Al  0  0  0  0  0  3  0  0  0  0  0  0
   -6.4586    8.3325    0.0000 O   0  0  0  0  0  0  0  0  0  0  0  0
   -7.4971    9.1294    0.0000 O   0  0  0  0  0  0  0  0  0  0  0  0
   -6.0255    5.9886    0.0000 S   0  0  0  0  0  0  0  0  0  0  0  0
   -6.7400    6.4011    0.0000 O   0  0  0  0  0  0  0  0  0  0  0  0
   -5.2286    5.7751    0.0000 O   0  0  0  0  0  0  0  0  0  0  0  0
   -5.8120    6.7855    0.0000 O   0  0  0  0  0  0  0  0  0  0  0  0
   -5.0151    6.9990    0.0000 Al  0  0  0  0  0  3  0  0  0  0  0  0
   -4.4317    6.4156    0.0000 O   0  0  0  0  0  0  0  0  0  0  0  0
   -4.8016    7.7959    0.0000 O   0  0  0  0  0  0  0  0  0  0  0  0
  -14.7321    8.2500    0.0000 O   0  0  0  0  0  0  0  0  0  0  0  0
  -15.8518    8.3089    0.0000 O   0  0  0  0  0  0  0  0  0  0  0  0
  -16.9420    8.0143    0.0000 O   0  0  0  0  0  0  0  0  0  0  0  0
  -17.5018    6.5116    0.0000 O   0  0  0  0  0  0  0  0  0  0  0  0
  -16.5295    6.9536    0.0000 O   0  0  0  0  0  0  0  0  0  0  0  0
  -15.5571    7.1304    0.0000 O   0  0  0  0  0  0  0  0  0  0  0  0
  -14.5848    5.7161    0.0000 O   0  0  0  0  0  0  0  0  0  0  0  0
  -15.8518    6.0696    0.0000 O   0  0  0  0  0  0  0  0  0  0  0  0
  -17.0598    5.3330    0.0000 O   0  0  0  0  0  0  0  0  0  0  0  0
  -18.0911    4.3313    0.0000 O   0  0  0  0  0  0  0  0  0  0  0  0
  -17.0304    4.2134    0.0000 O   0  0  0  0  0  0  0  0  0  0  0  0
  -16.0580    4.8321    0.0000 O   0  0  0  0  0  0  0  0  0  0  0  0
  -15.0562    4.5964    0.0000 O   0  0  0  0  0  0  0  0  0  0  0  0
  -15.4688    3.0938    0.0000 O   0  0  0  0  0  0  0  0  0  0  0  0
  -16.5884    3.5063    0.0000 O   0  0  0  0  0  0  0  0  0  0  0  0
  -18.0911    3.1527    0.0000 O   0  0  0  0  0  0  0  0  0  0  0  0
  -18.2679    2.0330    0.0000 O   0  0  0  0  0  0  0  0  0  0  0  0
  -17.1777    2.3571    0.0000 O   0  0  0  0  0  0  0  0  0  0  0  0
  -15.2625    1.6500    0.0000 O   0  0  0  0  0  0  0  0  0  0  0  0
  -16.5295    1.7973    0.0000 O   0  0  0  0  0  0  0  0  0  0  0  0
  -18.2089    0.7955    0.0000 O   0  0  0  0  0  0  0  0  0  0  0  0
  2  3  1  0
  2  4  1  0
  2  5  1  0
  6  7  1  0
  6  8  1  0
  6  9  1  0
 10 11  1  0
 10 12  1  0
 10 13  1  0
 14 15  1  0
 14 16  1  0
 14 17  1  0
 18 19  1  0
 18 20  1  0
 18 21  1  0
 22 23  1  0
 22 24  1  0
 22 25  1  0
 26 27  1  0
 26 28  1  0
 26 29  1  0
 30 31  1  0
 30 32  1  0
 30 33  1  0
 34 35  1  0
 39 34  1  0
 35 36  1  0
 36 37  1  0
 37 38  1  0
 38 39  1  0
 36 40  1  1
 35 41  1  6
 34 42  1  1
 39 43  1  6
 37 44  1  6
 45 43  1  1
 45 46  1  0
 45 49  1  0
 46 47  1  0
 47 48  1  0
 48 49  1  0
 45 50  1  6
 49 51  1  1
 48 52  1  6
 47 53  1  1
 44 54  1  0
 54 55  1  0
 55 56  2  0
 55 57  1  0
 55 58  2  0
 57 59  1  0
 59 60  1  0
 59 61  1  0
 50 62  1  0
 62 63  1  0
 63 64  1  0
 63 65  2  0
 63 66  2  0
 64 67  1  0
 67 68  1  0
 67 69  1  0
 51 70  1  0
 70 71  2  0
 70 72  2  0
 70 73  1  0
 73 74  1  0
 74 75  1  0
 74 76  1  0
 52 77  1  0
 77 78  2  0
 77 79  2  0
 77 80  1  0
 80 81  1  0
 81 82  1  0
 81 83  1  0
 53 84  1  0
 84 85  2  0
 84 86  2  0
 84 87  1  0
 87 88  1  0
 88 89  1  0
 88 90  1  0
 40 91  1  0
 91 92  2  0
 91 93  2  0
 91 94  1  0
 94 95  1  0
 95 96  1  0
 95 97  1  0
 41 98  1  0
 98 99  2  0
 98100  2  0
 98101  1  0
101102  1  0
102103  1  0
102104  1  0
 42105  1  0
105106  2  0
105107  2  0
105108  1  0
108109  1  0
109110  1  0
109111  1  0
M  END
> <chembl_id>
CHEMBL3989780

> <chembl_pref_name>
SUCRALFATE
