
     RDKit          2D

 12 10  0  0  0  0  0  0  0  0999 V2000
   -0.2500   -2.9917    0.0000 Cl  0  0  0  0  0  0  0  0  0  0  0  0
   -0.1125   -3.8375    0.0000 N   0  0  0  0  0  0  0  0  0  0  0  0
    2.3417   -3.8375    0.0000 C   0  0  0  0  0  0  0  0  0  0  0  0
    1.7250   -3.4792    0.0000 O   0  0  0  0  0  0  0  0  0  0  0  0
    2.3417   -4.5417    0.0000 O   0  0  0  0  0  0  0  0  0  0  0  0
    0.5000   -3.4792    0.0000 C   0  0  0  0  0  0  0  0  0  0  0  0
    1.1125   -3.8375    0.0000 C   0  0  0  0  0  0  0  0  0  0  0  0
   -0.7292   -3.4792    0.0000 C   0  0  0  0  0  0  0  0  0  0  0  0
    0.2375   -4.4458    0.0000 C   0  0  0  0  0  0  0  0  0  0  0  0
   -0.4708   -4.4458    0.0000 C   0  0  0  0  0  0  0  0  0  0  0  0
    2.9542   -3.4792    0.0000 C   0  0  0  0  0  0  0  0  0  0  0  0
    1.1125   -4.5417    0.0000 C   0  0  0  0  0  0  0  0  0  0  0  0
  3  4  1  0
  4  7  1  0
  5  3  2  0
  6  2  1  0
  7  6  1  0
  8  2  1  0
  9  2  1  0
 10  2  1  0
 11  3  1  0
 12  7  1  0
M  CHG  2   1  -1   2   1
M  END
> <chembl_id>
CHEMBL1200764

> <chembl_pref_name>
METHACHOLINE CHLORIDE
