
     RDKit          2D

 30 33  0  0  1  0  0  0  0  0999 V2000
   -0.3830    1.1491    0.0000 C   0  0  0  0  0  0  0  0  0  0  0  0
   -1.0975    0.7366    0.0000 C   0  0  0  0  0  0  0  0  0  0  0  0
   -1.0975   -0.0884    0.0000 C   0  0  0  0  0  0  0  0  0  0  0  0
   -0.3830   -0.5009    0.0000 C   0  0  0  0  0  0  0  0  0  0  0  0
    0.3315   -0.0884    0.0000 C   0  0  0  0  0  0  0  0  0  0  0  0
    0.3315    0.7366    0.0000 C   0  0  0  0  0  0  0  0  0  0  0  0
    1.0459   -0.5009    0.0000 C   0  0  0  0  0  0  0  0  0  0  0  0
    1.7604   -0.0884    0.0000 C   0  0  0  0  0  0  0  0  0  0  0  0
    1.0459   -1.3259    0.0000 C   0  0  0  0  0  0  0  0  0  0  0  0
    1.7604   -1.7384    0.0000 O   0  0  0  0  0  0  0  0  0  0  0  0
    2.4749   -0.5009    0.0000 O   0  0  0  0  0  0  0  0  0  0  0  0
    1.7604    0.7366    0.0000 O   0  0  0  0  0  0  0  0  0  0  0  0
    3.1893   -0.0884    0.0000 C   0  0  0  0  0  0  0  0  0  0  0  0
    4.8394   -0.0884    0.0000 N   0  0  0  0  0  0  0  0  0  0  0  0
    4.4269    0.6261    0.0000 C   0  0  0  0  0  0  0  0  0  0  0  0
    3.6019    0.6261    0.0000 C   0  0  0  0  0  0  0  0  0  0  0  0
    3.6019   -0.8029    0.0000 C   0  0  0  0  0  0  0  0  0  0  0  0
    4.4269   -0.8029    0.0000 C   0  0  0  0  0  0  0  0  0  0  0  0
    7.2188    0.5598    0.0000 C   0  0  0  0  0  0  0  0  0  0  0  0
    7.2188   -0.8545    0.0000 C   0  0  0  0  0  0  0  0  0  0  0  0
    5.5539    0.3241    0.0000 C   0  0  0  0  0  0  0  0  0  0  0  0
    5.6363   -0.3019    0.0000 C   0  0  0  0  0  0  0  0  0  0  0  0
    5.6363   -1.1269    0.0000 C   0  0  0  0  0  0  0  0  0  0  0  0
    6.3507   -1.5394    0.0000 C   0  0  0  0  0  0  0  0  0  0  0  0
    6.3507   -2.3644    0.0000 C   0  0  0  0  0  0  0  0  0  0  0  0
    4.2133    1.4230    0.0000 H   0  0  0  0  0  0  0  0  0  0  0  0
    4.2133   -1.5998    0.0000 H   0  0  0  0  0  0  0  0  0  0  0  0
    8.3384   -0.1473    0.0000 O   0  0  0  0  0  0  0  0  0  0  0  0
    7.4574    1.3495    0.0000 H   0  0  0  0  0  0  0  0  0  0  0  0
    7.4407   -1.6490    0.0000 H   0  0  0  0  0  0  0  0  0  0  0  0
  1  2  1  0
  1  6  2  0
  2  3  2  0
  3  4  1  0
  4  5  2  0
  5  6  1  0
  5  7  1  0
  7  8  1  0
  7  9  1  6
  9 10  1  0
  8 11  1  0
  8 12  2  0
 13 11  1  6
 16 13  1  0
 13 17  1  0
 14 15  1  0
 15 16  1  0
 17 18  1  0
 18 14  1  0
 19 20  1  0
 20 18  1  0
 15 19  1  0
 14 21  1  0
 14 22  1  0
 22 23  1  0
 23 24  1  0
 24 25  1  0
 15 26  1  1
 18 27  1  1
 19 28  1  0
 20 28  1  0
 19 29  1  6
 20 30  1  6
M  CHG  1  14   1
M  END
> <chembl_id>
CHEMBL1618102

> <chembl_pref_name>
BUTYLSCOPOLAMINE
