
     RDKit          2D

 25 27  0  0  0  0  0  0  0  0999 V2000
   -0.1833   -0.2667    0.0000 N   0  0  0  0  0  0  0  0  0  0  0  0
   -0.8625   -0.4750    0.0000 C   0  0  0  0  0  0  0  0  0  0  0  0
   -0.1833    0.4250    0.0000 C   0  0  0  0  0  0  0  0  0  0  0  0
   -1.2583    0.0875    0.0000 C   0  0  0  0  0  0  0  0  0  0  0  0
   -0.8500    0.6500    0.0000 N   0  0  0  0  0  0  0  0  0  0  0  0
    1.8292   -0.6542    0.0000 P   0  0  0  0  0  0  0  0  0  0  0  0
    0.4792   -0.6542    0.0000 C   0  0  0  0  0  0  0  0  0  0  0  0
    1.1500   -0.2667    0.0000 O   0  0  0  0  0  0  0  0  0  0  0  0
   -1.0000   -1.1167    0.0000 O   0  0  0  0  0  0  0  0  0  0  0  0
    0.4167    0.7833    0.0000 O   0  0  0  0  0  0  0  0  0  0  0  0
    2.4917   -0.2417    0.0000 O   0  0  0  0  0  0  0  0  0  0  0  0
    2.2167   -1.3292    0.0000 O   0  0  0  0  0  0  0  0  0  0  0  0
   -1.7583    0.6833    0.0000 C   0  0  0  0  0  0  0  0  0  0  0  0
   -1.7958   -0.3292    0.0000 C   0  0  0  0  0  0  0  0  0  0  0  0
    1.4375   -1.3250    0.0000 O   0  0  0  0  0  0  0  0  0  0  0  0
   -1.7958   -1.0167    0.0000 C   0  0  0  0  0  0  0  0  0  0  0  0
   -2.3833    0.0375    0.0000 C   0  0  0  0  0  0  0  0  0  0  0  0
   -2.4625    0.6708    0.0000 C   0  0  0  0  0  0  0  0  0  0  0  0
   -1.4208    1.2625    0.0000 C   0  0  0  0  0  0  0  0  0  0  0  0
   -3.0000   -0.3250    0.0000 C   0  0  0  0  0  0  0  0  0  0  0  0
   -2.8000    1.2833    0.0000 C   0  0  0  0  0  0  0  0  0  0  0  0
   -1.7500    1.8833    0.0000 C   0  0  0  0  0  0  0  0  0  0  0  0
   -2.3958   -1.3667    0.0000 C   0  0  0  0  0  0  0  0  0  0  0  0
   -3.0000   -1.0042    0.0000 C   0  0  0  0  0  0  0  0  0  0  0  0
   -2.4583    1.8750    0.0000 C   0  0  0  0  0  0  0  0  0  0  0  0
  2  1  1  0
  3  1  1  0
  4  2  1  0
  5  3  1  0
  6  8  1  0
  7  1  1  0
  8  7  1  0
  9  2  2  0
 10  3  2  0
 11  6  1  0
 12  6  1  0
 13  4  1  0
 14  4  1  0
 15  6  2  0
 16 14  1  0
 17 14  2  0
 18 13  2  0
 19 13  1  0
 20 17  1  0
 21 18  1  0
 22 19  2  0
 23 16  2  0
 24 20  2  0
 25 22  1  0
  4  5  1  0
 21 25  2  0
 23 24  1  0
M  END
> <chembl_id>
CHEMBL1201336

> <chembl_pref_name>
FOSPHENYTOIN
