
     RDKit          2D

 20 19  0  0  0  0  0  0  0  0999 V2000
    4.9292    0.0292    0.0000 Na  0  0  0  0  0 15  0  0  0  0  0  0
    0.2875    0.0833    0.0000 C   0  0  0  0  0  0  0  0  0  0  0  0
    1.5208    0.0833    0.0000 C   0  0  0  0  0  0  0  0  0  0  0  0
    0.8833   -0.2583    0.0000 C   0  0  0  0  0  0  0  0  0  0  0  0
   -0.3500   -0.2583    0.0000 N   0  0  0  0  0  0  0  0  0  0  0  0
    0.2875    0.7875    0.0000 C   0  0  0  0  0  0  0  0  0  0  0  0
    1.5208    0.7875    0.0000 C   0  0  0  0  0  0  0  0  0  0  0  0
    0.8958    1.1250    0.0000 C   0  0  0  0  0  0  0  0  0  0  0  0
   -0.9792    0.0833    0.0000 C   0  0  0  0  0  0  0  0  0  0  0  0
    2.1375   -0.2625    0.0000 C   0  0  0  0  0  0  0  0  0  0  0  0
    3.3625   -0.2583    0.0000 C   0  0  0  0  0  0  0  0  0  0  0  0
    3.9667    0.1125    0.0000 O   0  0  0  0  0  0  0  0  0  0  0  0
    3.3833   -0.9542    0.0000 O   0  0  0  0  0  0  0  0  0  0  0  0
   -1.6042   -0.2583    0.0000 N   0  0  0  0  0  0  0  0  0  0  0  0
    0.8833   -0.9625    0.0000 I   0  0  0  0  0  0  0  0  0  0  0  0
    2.7500    0.0833    0.0000 C   0  0  0  0  0  0  0  0  0  0  0  0
    2.1375    1.1500    0.0000 I   0  0  0  0  0  0  0  0  0  0  0  0
   -0.3500    1.1500    0.0000 I   0  0  0  0  0  0  0  0  0  0  0  0
   -1.6042   -0.9625    0.0000 C   0  0  0  0  0  0  0  0  0  0  0  0
   -2.2250    0.0833    0.0000 C   0  0  0  0  0  0  0  0  0  0  0  0
  3  4  2  0
  4  2  1  0
  5  2  1  0
  6  2  2  0
  7  8  2  0
  8  6  1  0
  9  5  2  0
 10  3  1  0
 11 16  1  0
 12 11  1  0
 13 11  2  0
 14  9  1  0
 15  4  1  0
 16 10  1  0
 17  7  1  0
 18  6  1  0
 19 14  1  0
 20 14  1  0
  7  3  1  0
M  CHG  2   1   1  12  -1
M  END
> <chembl_id>
CHEMBL1201033

> <chembl_pref_name>
IPODATE SODIUM
