
     RDKit          2D

 31 33  0  0  0  0  0  0  0  0999 V2000
   17.4292  -15.5167    0.0000 Br  0  0  0  0  0  0  0  0  0  0  0  0
   19.1448  -18.1554    0.0000 C   0  0  0  0  0  0  0  0  0  0  0  0
   19.9589  -18.5103    0.0000 C   0  0  0  0  0  0  0  0  0  0  0  0
   20.1715  -19.3618    0.0000 C   0  0  0  0  0  0  0  0  0  0  0  0
   18.7967  -18.9847    0.0000 C   0  0  0  0  0  0  0  0  0  0  0  0
   19.5906  -18.9448    0.0000 C   0  0  0  0  0  0  0  0  0  0  0  0
   18.3917  -17.4250    0.0000 N   0  0  0  0  0  0  0  0  0  0  0  0
   18.2243  -19.3928    0.0000 C   0  0  0  0  0  0  0  0  0  0  0  0
   18.3940  -18.5582    0.0000 C   0  0  0  0  0  0  0  0  0  0  0  0
   17.5864  -18.8285    0.0000 O   0  0  0  0  0  0  0  0  0  0  0  0
   19.5500  -17.4375    0.0000 H   0  0  0  0  0  0  0  0  0  0  0  0
   19.0083  -19.7792    0.0000 H   0  0  0  0  0  0  0  0  0  0  0  0
   17.5634  -17.3954    0.0000 C   0  0  0  0  0  0  0  0  0  0  0  0
   17.1766  -16.6667    0.0000 C   0  0  0  0  0  0  0  0  0  0  0  0
   16.3522  -16.6372    0.0000 C   0  0  0  0  0  0  0  0  0  0  0  0
   15.9654  -15.9085    0.0000 C   0  0  0  0  0  0  0  0  0  0  0  0
   18.8000  -16.7083    0.0000 C   0  0  0  0  0  0  0  0  0  0  0  0
   20.1667  -20.1833    0.0000 O   0  0  0  0  0  0  0  0  0  0  0  0
   20.8787  -20.6000    0.0000 C   0  0  0  0  0  0  0  0  0  0  0  0
   20.8738  -21.4250    0.0000 O   0  0  0  0  0  0  0  0  0  0  0  0
   21.5956  -20.1917    0.0000 C   0  0  0  0  0  0  0  0  0  0  0  0
   22.3076  -20.6084    0.0000 C   0  0  0  0  0  0  0  0  0  0  0  0
   21.6004  -19.3668    0.0000 C   0  0  0  0  0  0  0  0  0  0  0  0
   22.3173  -18.9585    0.0000 O   0  0  0  0  0  0  0  0  0  0  0  0
   22.3007  -21.4344    0.0000 C   0  0  0  0  0  0  0  0  0  0  0  0
   23.0119  -21.8510    0.0000 C   0  0  0  0  0  0  0  0  0  0  0  0
   23.7298  -21.4427    0.0000 C   0  0  0  0  0  0  0  0  0  0  0  0
   23.7320  -20.6134    0.0000 C   0  0  0  0  0  0  0  0  0  0  0  0
   23.0202  -20.2005    0.0000 C   0  0  0  0  0  0  0  0  0  0  0  0
   17.5042  -19.8000    0.0000 H   0  0  0  0  0  0  0  0  0  0  0  0
   17.6750  -18.1417    0.0000 H   0  0  0  0  0  0  0  0  0  0  0  0
 14 15  1  0
  5  7  1  0
 15 16  1  0
  2  7  1  0
  7 17  1  0
  9  8  1  0
  4 18  1  6
 10  9  1  0
 18 19  1  0
  8 10  1  0
 19 20  2  0
 19 21  1  0
  2  3  1  0
 21 22  1  0
  2  9  1  0
 21 23  1  6
  3  4  1  0
 23 24  1  0
  2 11  1  6
 22 25  2  0
  4  6  1  0
 25 26  1  0
  5 12  1  1
 26 27  2  0
  8  5  1  0
 27 28  1  0
  7 13  1  0
 28 29  2  0
 29 22  1  0
  5  6  1  0
  8 30  1  6
 13 14  1  0
  9 31  1  6
M  CHG  2   1  -1   7   1
M  END
> <chembl_id>
CHEMBL1256901

> <chembl_pref_name>
BUTYLSCOPOLAMINE BROMIDE
