
     RDKit          2D

 31 33  0  0  0  0  0  0  0  0999 V2000
    2.8417   -3.5542    0.0000 S   0  0  0  0  0  0  0  0  0  0  0  0
    2.1667   -3.7792    0.0000 C   0  0  0  0  0  0  0  0  0  0  0  0
    2.8458   -4.7042    0.0000 C   0  0  0  0  0  0  0  0  0  0  0  0
    4.6750   -5.7833    0.0000 C   0  0  0  0  0  0  0  0  0  0  0  0
    2.1708   -4.4875    0.0000 C   0  0  0  0  0  0  0  0  0  0  0  0
    3.2625   -4.1250    0.0000 C   0  0  0  0  0  0  0  0  0  0  0  0
    4.6667   -6.4917    0.0000 C   0  0  0  0  0  0  0  0  0  0  0  0
    4.6917   -4.3667    0.0000 N   0  0  0  0  0  0  0  0  0  0  0  0
    5.8375   -4.3667    0.0000 N   0  0  0  0  0  0  0  0  0  0  0  0
    4.0667   -5.4250    0.0000 C   0  0  0  0  0  0  0  0  0  0  0  0
    5.2625   -4.7875    0.0000 C   0  0  0  0  0  0  0  0  0  0  0  0
    5.2750   -6.8500    0.0000 C   0  0  0  0  0  0  0  0  0  0  0  0
    5.2917   -5.4333    0.0000 C   0  0  0  0  0  0  0  0  0  0  0  0
    4.0750   -4.7167    0.0000 C   0  0  0  0  0  0  0  0  0  0  0  0
    3.4500   -5.7708    0.0000 O   0  0  0  0  0  0  0  0  0  0  0  0
    2.8417   -5.4125    0.0000 C   0  0  0  0  0  0  0  0  0  0  0  0
    5.6167   -3.6958    0.0000 C   0  0  0  0  0  0  0  0  0  0  0  0
    1.5542   -3.4250    0.0000 C   0  0  0  0  0  0  0  0  0  0  0  0
    4.9083   -3.6958    0.0000 C   0  0  0  0  0  0  0  0  0  0  0  0
    5.8958   -6.5042    0.0000 C   0  0  0  0  0  0  0  0  0  0  0  0
    4.0500   -6.8375    0.0000 Cl  0  0  0  0  0  0  0  0  0  0  0  0
    5.9000   -5.7917    0.0000 C   0  0  0  0  0  0  0  0  0  0  0  0
    1.5542   -2.7167    0.0000 Cl  0  0  0  0  0  0  0  0  0  0  0  0
    6.5042   -6.8625    0.0000 Cl  0  0  0  0  0  0  0  0  0  0  0  0
    1.5542   -4.8458    0.0000 C   0  0  0  0  0  0  0  0  0  0  0  0
    0.9417   -4.4917    0.0000 C   0  0  0  0  0  0  0  0  0  0  0  0
    0.9417   -3.7792    0.0000 C   0  0  0  0  0  0  0  0  0  0  0  0
    8.5625   -5.4667    0.0000 N   0  0  0  0  0  0  0  0  0  0  0  0
    8.5625   -4.7542    0.0000 O   0  0  0  0  0  0  0  0  0  0  0  0
    9.1792   -5.8208    0.0000 O   0  0  0  0  0  0  0  0  0  0  0  0
    7.9458   -5.8208    0.0000 O   0  0  0  0  0  0  0  0  0  0  0  0
  2  1  1  0
  3  6  2  0
  4 10  1  0
  5  2  1  0
  6  1  1  0
  7  4  2  0
  8 14  1  0
  9 11  2  0
 10 15  1  0
 11  8  1  0
 12  7  1  0
 13  4  1  0
 14 10  1  0
 15 16  1  0
 16  3  1  0
 17 19  2  0
 18  2  2  0
 19  8  1  0
 20 22  1  0
 21  7  1  0
 22 13  2  0
 23 18  1  0
 24 20  1  0
 25  5  2  0
 26 25  1  0
 27 18  1  0
  3  5  1  0
 26 27  2  0
  9 17  1  0
 20 12  2  0
 29 28  1  0
 30 28  2  0
 31 28  1  0
M  CHG  2  28   1  29  -1
M  END
> <chembl_id>
CHEMBL1200725

> <chembl_pref_name>
SERTACONAZOLE NITRATE
