
     RDKit          2D

 13 14  0  0  0  0  0  0  0  0999 V2000
    4.7667   -5.7417    0.0000 C   0  0  0  0  0  0  0  0  0  0  0  0
    4.1750   -4.6792    0.0000 N   0  0  0  0  0  0  0  0  0  0  0  0
    4.1417   -6.0917    0.0000 O   0  0  0  0  0  0  0  0  0  0  0  0
    4.7792   -5.0375    0.0000 C   0  0  0  0  0  0  0  0  0  0  0  0
    5.3750   -6.1000    0.0000 C   0  0  0  0  0  0  0  0  0  0  0  0
    3.5417   -5.0292    0.0000 C   0  0  0  0  0  0  0  0  0  0  0  0
    3.5375   -5.7292    0.0000 C   0  0  0  0  0  0  0  0  0  0  0  0
    5.3625   -6.8042    0.0000 C   0  0  0  0  0  0  0  0  0  0  0  0
    6.0000   -5.7500    0.0000 C   0  0  0  0  0  0  0  0  0  0  0  0
    5.4042   -4.6917    0.0000 C   0  0  0  0  0  0  0  0  0  0  0  0
    6.6042   -6.1042    0.0000 C   0  0  0  0  0  0  0  0  0  0  0  0
    5.9667   -7.1625    0.0000 C   0  0  0  0  0  0  0  0  0  0  0  0
    6.5917   -6.8125    0.0000 C   0  0  0  0  0  0  0  0  0  0  0  0
  2  4  1  0
  3  1  1  0
  4  1  1  0
  5  1  1  0
  6  2  1  0
  7  3  1  0
  8  5  1  0
  9  5  2  0
 10  4  1  0
 11  9  1  0
 12  8  2  0
 13 12  1  0
  6  7  1  0
 13 11  2  0
M  END
> <chembl_id>
CHEMBL1201208

> <chembl_pref_name>
PHENMETRAZINE
