
     RDKit          2D

 55 61  0  0  0  0  0  0  0  0999 V2000
   -0.3701    0.0068    0.0000 C   0  0  0  0  0  0  0  0  0  0  0  0
   -1.0846   -0.4057    0.0000 C   0  0  0  0  0  0  0  0  0  0  0  0
   -1.0846   -1.2307    0.0000 C   0  0  0  0  0  0  0  0  0  0  0  0
   -0.3701   -1.6432    0.0000 C   0  0  0  0  0  0  0  0  0  0  0  0
    0.3443   -1.2307    0.0000 C   0  0  0  0  0  0  0  0  0  0  0  0
    0.3443   -0.4057    0.0000 C   0  0  0  0  0  0  0  0  0  0  0  0
    1.0588    0.0068    0.0000 C   0  0  0  0  0  0  0  0  0  0  0  0
    1.0588   -1.6432    0.0000 C   0  0  0  0  0  0  0  0  0  0  0  0
    1.7733   -1.2307    0.0000 C   0  0  0  0  0  0  0  0  0  0  0  0
    1.7733   -0.4057    0.0000 C   0  0  0  0  0  0  0  0  0  0  0  0
    1.7733    1.2443    0.0000 C   0  0  0  0  0  0  0  0  0  0  0  0
    1.0588    0.8318    0.0000 C   0  0  0  0  0  0  0  0  0  0  0  0
    2.4877    0.0068    0.0000 C   0  0  0  0  0  0  0  0  0  0  0  0
    2.4877    0.8318    0.0000 C   0  0  0  0  0  0  0  0  0  0  0  0
    3.2022    1.2443    0.0000 C   0  0  0  0  0  0  0  0  0  0  0  0
    3.2022   -0.4057    0.0000 C   0  0  0  0  0  0  0  0  0  0  0  0
    3.9167    0.0068    0.0000 C   0  0  0  0  0  0  0  0  0  0  0  0
    3.9167    0.8318    0.0000 C   0  0  0  0  0  0  0  0  0  0  0  0
    4.7412    0.8606    0.0000 C   0  0  0  0  0  0  0  0  0  0  0  0
    6.0029    0.1898    0.0000 C   0  0  0  0  0  0  0  0  0  0  0  0
    5.1784    0.1610    0.0000 C   0  0  0  0  0  0  0  0  0  0  0  0
    4.7911   -0.5675    0.0000 C   0  0  0  0  0  0  0  0  0  0  0  0
    2.4877    2.4818    0.0000 O   0  0  0  0  0  0  0  0  0  0  0  0
    3.2022    2.0693    0.0000 C   0  0  0  0  0  0  0  0  0  0  0  0
    5.1285    1.5890    0.0000 C   0  0  0  0  0  0  0  0  0  0  0  0
    3.9167    2.4818    0.0000 O   0  0  0  0  0  0  0  0  0  0  0  0
    4.3539    1.5314    0.0000 C   0  0  0  0  0  0  0  0  0  0  0  0
    2.4877   -0.8182    0.0000 C   0  0  0  0  0  0  0  0  0  0  0  0
    2.4877    1.6568    0.0000 C   0  0  0  0  0  0  0  0  0  0  0  0
    1.7582    0.4770    0.0000 H   0  0  0  0  0  0  0  0  0  0  0  0
    0.3012   -2.0546    0.0000 H   0  0  0  0  0  0  0  0  0  0  0  0
   -0.1885   -0.3862    0.0000 C   0  0  0  0  0  0  0  0  0  0  0  0
   -0.6018   -1.1900    0.0000 C   0  0  0  0  0  0  0  0  0  0  0  0
   -0.6325   -0.7458    0.0000 O   0  0  0  0  0  0  0  0  0  0  0  0
   -1.7991    0.0068    0.0000 N   0  0  0  0  0  0  0  0  0  0  0  0
   -1.7991   -1.6432    0.0000 O   0  0  0  0  0  0  0  0  0  0  0  0
   -2.5135   -1.2307    0.0000 C   0  0  0  0  0  0  0  0  0  0  0  0
   -3.2280   -1.6432    0.0000 C   0  0  0  0  0  0  0  0  0  0  0  0
   -2.8418   -2.2729    0.0000 N   0  0  0  0  0  0  0  0  0  0  0  0
   -3.4973   -2.2992    0.0000 C   0  0  0  0  0  0  0  0  0  0  0  0
   -3.9199   -1.1938    0.0000 C   0  0  0  0  0  0  0  0  0  0  0  0
   -4.6118   -0.7445    0.0000 C   0  0  0  0  0  0  0  0  0  0  0  0
   -3.9771   -0.4240    0.0000 C   0  0  0  0  0  0  0  0  0  0  0  0
   -4.5640   -1.4377    0.0000 C   0  0  0  0  0  0  0  0  0  0  0  0
   -2.6923    0.9988    0.0000 N   0  0  0  0  0  0  0  0  0  0  0  0
   -3.1048    0.2844    0.0000 C   0  0  0  0  0  0  0  0  0  0  0  0
   -2.5527   -0.3287    0.0000 N   0  0  0  0  0  0  0  0  0  0  0  0
   -1.8853    0.8273    0.0000 C   0  0  0  0  0  0  0  0  0  0  0  0
   -1.2722    1.3793    0.0000 C   0  0  0  0  0  0  0  0  0  0  0  0
   -0.0460    2.4834    0.0000 N   0  0  0  0  0  0  0  0  0  0  0  0
   -0.8307    2.7383    0.0000 C   0  0  0  0  0  0  0  0  0  0  0  0
   -1.4438    2.1863    0.0000 C   0  0  0  0  0  0  0  0  0  0  0  0
   -0.4876    1.1244    0.0000 C   0  0  0  0  0  0  0  0  0  0  0  0
    0.1255    1.6764    0.0000 C   0  0  0  0  0  0  0  0  0  0  0  0
   -0.4133   -2.4671    0.0000 C   0  0  0  0  0  0  0  0  0  0  0  0
  1  2  1  0
  2  3  1  0
  3  4  1  0
  4  5  1  0
  5  6  1  0
  6  1  1  6
  8  9  1  0
  9 10  1  0
  7 10  1  0
  5  8  1  0
  7  6  1  0
 11 12  1  0
 13 14  1  0
 11 14  1  0
 12  7  2  0
 10 13  1  0
 16 17  1  0
 17 18  1  0
 15 18  1  0
 13 16  1  0
 15 14  1  0
 20 21  1  0
 19 21  1  0
 18 19  1  1
 22 21  1  0
 23 24  1  0
 15 24  1  6
 19 25  1  6
 26 24  2  0
 18 27  1  6
 13 28  1  1
 14 29  1  6
 10 30  1  6
  5 31  1  6
  6 32  1  0
  4 33  1  0
 33 34  1  0
 34 32  1  0
  2 35  1  6
  3 36  1  1
 36 37  1  0
 37 38  1  0
 38 39  1  6
 38 40  1  0
 38 41  1  0
 41 42  1  0
 41 43  1  0
 41 44  1  0
 45 46  1  0
 46 47  2  0
 45 48  2  0
 47 35  1  0
 35 48  1  0
 48 49  1  0
 50 51  1  0
 51 52  2  0
 53 54  1  0
 50 54  2  0
 52 49  1  0
 49 53  2  0
  4 55  1  1
M  END
> <chembl_id>
CHEMBL4297513

> <chembl_pref_name>
IBREXAFUNGERP
