
     RDKit          2D

 34 37  0  0  0  0  0  0  0  0999 V2000
   -0.9935    1.8770    0.0000 C   0  0  0  0  0  0  0  0  0  0  0  0
   -1.7080    1.4645    0.0000 C   0  0  0  0  0  0  0  0  0  0  0  0
   -1.7080    0.6394    0.0000 C   0  0  0  0  0  0  0  0  0  0  0  0
   -0.9935    0.2269    0.0000 C   0  0  0  0  0  0  0  0  0  0  0  0
   -0.2790    0.6394    0.0000 C   0  0  0  0  0  0  0  0  0  0  0  0
   -0.2790    1.4645    0.0000 C   0  0  0  0  0  0  0  0  0  0  0  0
   -2.4224    1.8770    0.0000 C   0  0  0  0  0  0  0  0  0  0  0  0
   -3.1369    1.4645    0.0000 C   0  0  0  0  0  0  0  0  0  0  0  0
   -3.1369    0.6394    0.0000 C   0  0  0  0  0  0  0  0  0  0  0  0
   -2.4224    0.2269    0.0000 C   0  0  0  0  0  0  0  0  0  0  0  0
   -3.8514    0.2269    0.0000 C   0  0  0  0  0  0  0  0  0  0  0  0
   -3.8514   -0.5981    0.0000 C   0  0  0  0  0  0  0  0  0  0  0  0
   -3.1369   -1.0106    0.0000 N   0  0  0  0  0  0  0  0  0  0  0  0
   -2.4224   -0.5981    0.0000 C   0  0  0  0  0  0  0  0  0  0  0  0
   -4.5658    0.6394    0.0000 C   0  0  0  0  0  0  0  0  0  0  0  0
   -5.2803    0.2269    0.0000 C   0  0  0  0  0  0  0  0  0  0  0  0
   -5.2803   -0.5981    0.0000 C   0  0  0  0  0  0  0  0  0  0  0  0
   -4.5658   -1.0106    0.0000 C   0  0  0  0  0  0  0  0  0  0  0  0
   -1.7080   -1.0106    0.0000 C   0  0  0  0  0  0  0  0  0  0  0  0
   -0.9935   -0.5981    0.0000 C   0  0  0  0  0  0  0  0  0  0  0  0
   -3.1369   -1.8356    0.0000 C   0  0  0  0  0  0  0  0  0  0  0  0
   -2.4224   -2.2481    0.0000 C   0  0  0  0  0  0  0  0  0  0  0  0
   -1.7080   -1.8356    0.0000 C   0  0  0  0  0  0  0  0  0  0  0  0
   -0.9935   -2.2481    0.0000 C   0  0  0  0  0  0  0  0  0  0  0  0
   -0.2790   -1.8356    0.0000 C   0  0  0  0  0  0  0  0  0  0  0  0
   -0.2790   -1.0106    0.0000 C   0  0  0  0  0  0  0  0  0  0  0  0
    0.4354   -2.2481    0.0000 C   0  0  0  0  0  0  0  0  0  0  0  0
    1.1499   -1.8356    0.0000 C   0  0  0  0  0  0  0  0  0  0  0  0
    1.8644   -2.2481    0.0000 N   0  0  0  0  0  0  0  0  0  0  0  0
    2.5788   -1.8356    0.0000 C   0  0  0  0  0  0  0  0  0  0  0  0
    3.2933   -2.2481    0.0000 C   0  0  0  0  0  0  0  0  0  0  0  0
    0.3884    1.9299    0.0000 O   0  0  0  0  0  0  0  0  0  0  0  0
   -6.0154   -0.9726    0.0000 O   0  0  0  0  0  0  0  0  0  0  0  0
   -6.0001   -1.7965    0.0000 C   0  0  0  0  0  0  0  0  0  0  0  0
  1  2  1  0
  2  3  2  0
  3  4  1  0
  4  5  2  0
  5  6  1  0
  1  6  2  0
  7  8  1  0
  8  9  1  0
  9 10  1  0
  7  2  1  0
 10  3  1  0
 11 12  2  0
 12 13  1  0
 13 14  1  0
  9 11  1  6
 15 16  2  0
 16 17  1  0
 17 18  2  0
 15 11  1  0
 18 12  1  0
 19 20  2  0
 14 19  1  0
 21 22  1  0
 13 21  1  0
 23 19  1  0
 24 25  1  0
 25 26  2  0
 20 26  1  0
 23 24  2  0
 27 28  1  0
 25 27  1  0
 29 30  1  0
 28 29  1  0
 30 31  1  0
  6 32  1  0
 17 33  1  0
 33 34  1  0
M  END
> <chembl_id>
CHEMBL4297509

> <chembl_pref_name>
ELACESTRANT
