
     RDKit          2D

 20 22  0  0  0  0  0  0  0  0999 V2000
   -0.6208    0.5250    0.0000 N   0  0  0  0  0  0  0  0  0  0  0  0
    0.6000   -1.6000    0.0000 C   0  0  0  0  0  0  0  0  0  0  0  0
    3.0917    2.6583    0.0000 N   0  0  0  0  0  0  0  0  0  0  0  0
    0.7417   -3.0167    0.0000 S   0  0  0  0  0  0  0  0  0  0  0  0
    0.6125    1.2458    0.0000 C   0  0  0  0  0  0  0  0  0  0  0  0
   -0.6208   -0.9000    0.0000 C   0  0  0  0  0  0  0  0  0  0  0  0
    1.8417    0.5250    0.0000 C   0  0  0  0  0  0  0  0  0  0  0  0
    0.6125    2.6583    0.0000 C   0  0  0  0  0  0  0  0  0  0  0  0
    2.1292   -3.3000    0.0000 C   0  0  0  0  0  0  0  0  0  0  0  0
   -1.8625    1.2458    0.0000 C   0  0  0  0  0  0  0  0  0  0  0  0
    1.8792   -1.0125    0.0000 C   0  0  0  0  0  0  0  0  0  0  0  0
    2.8417   -2.0500    0.0000 C   0  0  0  0  0  0  0  0  0  0  0  0
    3.0917    1.2458    0.0000 C   0  0  0  0  0  0  0  0  0  0  0  0
    1.8417    3.3708    0.0000 C   0  0  0  0  0  0  0  0  0  0  0  0
    4.3417    3.3583    0.0000 C   0  0  0  0  0  0  0  0  0  0  0  0
   -3.1000    0.5250    0.0000 C   0  0  0  0  0  0  0  0  0  0  0  0
   -1.8625    2.6583    0.0000 C   0  0  0  0  0  0  0  0  0  0  0  0
   -3.1000    3.3708    0.0000 C   0  0  0  0  0  0  0  0  0  0  0  0
   -4.3458    1.2458    0.0000 C   0  0  0  0  0  0  0  0  0  0  0  0
   -4.3458    2.6583    0.0000 C   0  0  0  0  0  0  0  0  0  0  0  0
  2  6  1  0
  3 14  1  0
  4  2  1  0
  5  1  1  0
  6  1  1  0
  7  5  1  0
  8  5  1  0
  9  4  1  0
 10  1  1  0
 11  2  2  0
 12 11  1  0
 13  7  1  0
 14  8  1  0
 15  3  1  0
 16 10  1  0
 17 10  2  0
 18 17  1  0
 19 16  2  0
 20 18  2  0
 13  3  1  0
 19 20  1  0
 12  9  2  0
M  END
> <chembl_id>
CHEMBL2105458

> <chembl_pref_name>
THENALIDINE
