
     RDKit          2D

 30 33  0  0  0  0  0  0  0  0999 V2000
    3.2375   -6.2042    0.0000 N   0  0  0  0  0  0  0  0  0  0  0  0
    3.8500   -6.5667    0.0000 C   0  0  0  0  0  0  0  0  0  0  0  0
    3.2375   -7.6500    0.0000 S   0  0  0  0  0  0  0  0  0  0  0  0
    2.6292   -6.5667    0.0000 C   0  0  0  0  0  0  0  0  0  0  0  0
    3.8500   -7.2917    0.0000 C   0  0  0  0  0  0  0  0  0  0  0  0
    2.6292   -7.2917    0.0000 C   0  0  0  0  0  0  0  0  0  0  0  0
    4.4750   -6.2042    0.0000 C   0  0  0  0  0  0  0  0  0  0  0  0
    5.0625   -5.1292    0.0000 N   0  0  0  0  0  0  0  0  0  0  0  0
    6.2917   -4.4042    0.0000 N   0  0  0  0  0  0  0  0  0  0  0  0
    8.1292   -3.3292    0.0000 C   0  0  0  0  0  0  0  0  0  0  0  0
    4.4750   -7.6500    0.0000 C   0  0  0  0  0  0  0  0  0  0  0  0
    7.5417   -2.8875    0.0000 O   0  0  0  0  0  0  0  0  0  0  0  0
    3.2375   -5.5000    0.0000 C   0  0  0  0  0  0  0  0  0  0  0  0
    5.0667   -6.5667    0.0000 C   0  0  0  0  0  0  0  0  0  0  0  0
    5.6625   -4.0542    0.0000 C   0  0  0  0  0  0  0  0  0  0  0  0
    5.6667   -5.4792    0.0000 C   0  0  0  0  0  0  0  0  0  0  0  0
    5.0542   -4.4125    0.0000 C   0  0  0  0  0  0  0  0  0  0  0  0
    6.2917   -5.1167    0.0000 C   0  0  0  0  0  0  0  0  0  0  0  0
    3.8417   -5.1500    0.0000 C   0  0  0  0  0  0  0  0  0  0  0  0
    8.1375   -4.0375    0.0000 O   0  0  0  0  0  0  0  0  0  0  0  0
    5.0667   -7.2917    0.0000 C   0  0  0  0  0  0  0  0  0  0  0  0
    5.6625   -6.1917    0.0000 Cl  0  0  0  0  0  0  0  0  0  0  0  0
    4.4667   -5.4917    0.0000 C   0  0  0  0  0  0  0  0  0  0  0  0
    6.9042   -4.0542    0.0000 C   0  0  0  0  0  0  0  0  0  0  0  0
    2.0292   -6.2042    0.0000 C   0  0  0  0  0  0  0  0  0  0  0  0
    7.5292   -4.4042    0.0000 C   0  0  0  0  0  0  0  0  0  0  0  0
    2.0292   -7.6500    0.0000 C   0  0  0  0  0  0  0  0  0  0  0  0
    8.7125   -3.0042    0.0000 C   0  0  0  0  0  0  0  0  0  0  0  0
    1.4375   -6.5417    0.0000 C   0  0  0  0  0  0  0  0  0  0  0  0
    1.4375   -7.3167    0.0000 C   0  0  0  0  0  0  0  0  0  0  0  0
  2  1  1  0
  3  6  1  0
  4  1  1  0
  5  2  2  0
  6  4  2  0
  7  2  1  0
  8 23  1  0
  9 15  1  0
 10 20  1  0
 11  5  1  0
 12 10  2  0
 13  1  1  0
 14  7  2  0
 15 17  1  0
 16  8  1  0
 17  8  1  0
 18 16  1  0
 19 13  1  0
 20 26  1  0
 21 14  1  0
 22 14  1  0
 23 19  1  0
 24  9  1  0
 25  4  1  0
 26 24  1  0
 27  6  1  0
 28 10  1  0
 29 25  2  0
 30 29  1  0
  5  3  1  0
 27 30  2  0
 11 21  2  0
 18  9  1  0
M  END
> <chembl_id>
CHEMBL1697851

> <chembl_pref_name>
THIOPROPAZATE
