
     RDKit          2D

 39 41  0  0  0  0  0  0  0  0999 V2000
    5.3207   -2.2667    0.0000 C   0  0  0  0  0  0  0  0  0  0  0  0
    4.5856   -1.9253    0.0000 C   0  0  0  0  0  0  0  0  0  0  0  0
    5.1716   -1.5164    0.0000 C   0  0  0  0  0  0  0  0  0  0  0  0
    3.7608   -2.2793    0.0000 C   0  0  0  0  0  0  0  0  0  0  0  0
    4.7212   -0.9027    0.0000 C   0  0  0  0  0  0  0  0  0  0  0  0
    4.4468   -1.1901    0.0000 N   0  0  0  0  0  0  0  0  0  0  0  0
    3.6541   -1.5369    0.0000 C   0  0  0  0  0  0  0  0  0  0  0  0
    4.4812   -0.3064    0.0000 C   0  0  0  0  0  0  0  0  0  0  0  0
    6.0370   -1.8432    0.0000 H   0  0  0  0  0  0  0  0  0  0  0  0
    5.3158   -3.0906    0.0000 C   0  0  0  0  0  0  0  0  0  0  0  0
    6.0307   -3.5091    0.0000 C   0  0  0  0  0  0  0  0  0  0  0  0
    2.9281   -1.1221    0.0000 H   0  0  0  0  0  0  0  0  0  0  0  0
    2.9281   -1.9455    0.0000 C   0  0  0  0  0  0  0  0  0  0  0  0
    2.2153   -1.5235    0.0000 C   0  0  0  0  0  0  0  0  0  0  0  0
    2.9191   -2.7738    0.0000 O   0  0  0  0  0  0  0  0  0  0  0  0
    2.2259   -0.6958    0.0000 C   0  0  0  0  0  0  0  0  0  0  0  0
    1.5140   -0.2738    0.0000 C   0  0  0  0  0  0  0  0  0  0  0  0
    0.7911   -0.6802    0.0000 N   0  0  0  0  0  0  0  0  0  0  0  0
    1.4972   -1.9310    0.0000 C   0  0  0  0  0  0  0  0  0  0  0  0
    0.7885   -1.5116    0.0000 C   0  0  0  0  0  0  0  0  0  0  0  0
    0.0731   -1.9156    0.0000 C   0  0  0  0  0  0  0  0  0  0  0  0
    0.0650   -2.7389    0.0000 C   0  0  0  0  0  0  0  0  0  0  0  0
    0.7785   -3.1565    0.0000 C   0  0  0  0  0  0  0  0  0  0  0  0
    1.4912   -2.7501    0.0000 C   0  0  0  0  0  0  0  0  0  0  0  0
    0.7738   -3.9848    0.0000 O   0  0  0  0  0  0  0  0  0  0  0  0
    0.0541   -4.3949    0.0000 C   0  0  0  0  0  0  0  0  0  0  0  0
   10.9293   -2.4767    0.0000 C   0  0  0  0  0  0  0  0  0  0  0  0
   10.2130   -2.0820    0.0000 C   0  0  0  0  0  0  0  0  0  0  0  0
    9.5113   -2.4767    0.0000 C   0  0  0  0  0  0  0  0  0  0  0  0
   11.6602   -2.0673    0.0000 C   0  0  0  0  0  0  0  0  0  0  0  0
    8.7804   -2.0966    0.0000 C   0  0  0  0  0  0  0  0  0  0  0  0
   11.6602   -1.2292    0.0000 O   0  0  0  0  0  0  0  0  0  0  0  0
   10.9439   -3.3196    0.0000 O   0  0  0  0  0  0  0  0  0  0  0  0
   10.2080   -1.2487    0.0000 O   0  0  0  0  0  0  0  0  0  0  0  0
    9.5113   -3.3245    0.0000 O   0  0  0  0  0  0  0  0  0  0  0  0
   12.3765   -2.4620    0.0000 O   0  0  0  0  0  0  0  0  0  0  0  0
    8.7804   -1.2633    0.0000 O   0  0  0  0  0  0  0  0  0  0  0  0
    7.3331   -2.1209    0.0000 O   0  0  0  0  0  0  0  0  0  0  0  0
    8.0641   -2.5059    0.0000 C   0  0  0  0  0  0  0  0  0  0  0  0
  4  7  1  0
  5  8  1  0
  6  7  1  0
  6  8  1  0
  1  9  1  1
  1 10  1  0
 10 11  2  0
  7 12  1  1
  7 13  1  0
 13 14  1  0
 13 15  1  1
 14 16  2  0
 16 17  1  0
 17 18  2  0
 18 20  1  0
 19 14  1  0
 19 20  1  0
 20 21  2  0
  2  1  1  0
 21 22  1  0
  1  3  1  0
 22 23  2  0
  2  4  1  0
 23 24  1  0
 24 19  2  0
 23 25  1  0
  3  6  1  0
 25 26  1  0
  2  5  1  6
 28 34  1  6
 29 35  1  6
 36 30  1  0
 31 37  1  1
 38 39  1  0
 39 31  1  0
 28 27  1  0
 29 28  1  0
 30 27  1  0
 31 29  1  0
 32 30  2  0
 27 33  1  6
M  END
> <chembl_id>
CHEMBL1200437

> <chembl_pref_name>
QUINIDINE GLUCONATE
