
     RDKit          2D

 20 21  0  0  0  0  0  0  0  0999 V2000
   -0.9958   -0.5500    0.0000 C   0  0  0  0  0  0  0  0  0  0  0  0
   -2.0583   -1.1250    0.0000 C   0  0  0  0  0  0  0  0  0  0  0  0
    0.0000   -1.1250    0.0000 C   0  0  0  0  0  0  0  0  0  0  0  0
    1.0542   -0.5167    0.0000 C   0  0  0  0  0  0  0  0  0  0  0  0
   -3.0583   -0.5167    0.0000 C   0  0  0  0  0  0  0  0  0  0  0  0
    3.0792    0.6125    0.0000 C   0  0  0  0  0  0  0  0  0  0  0  0
    3.0917   -0.5500    0.0000 C   0  0  0  0  0  0  0  0  0  0  0  0
    2.0542    1.2625    0.0000 C   0  0  0  0  0  0  0  0  0  0  0  0
    1.0542    0.6583    0.0000 C   0  0  0  0  0  0  0  0  0  0  0  0
    2.0542   -1.1250    0.0000 C   0  0  0  0  0  0  0  0  0  0  0  0
   -1.0125    0.6125    0.0000 C   0  0  0  0  0  0  0  0  0  0  0  0
   -3.0583    0.6583    0.0000 C   0  0  0  0  0  0  0  0  0  0  0  0
    0.0000   -2.3375    0.0000 O   0  0  0  0  0  0  0  0  0  0  0  0
   -1.9958    1.2333    0.0000 C   0  0  0  0  0  0  0  0  0  0  0  0
   -2.0583   -2.2792    0.0000 O   0  0  0  0  0  0  0  0  0  0  0  0
   -4.0833   -1.1250    0.0000 O   0  0  0  0  0  0  0  0  0  0  0  0
    4.2125    1.1750    0.0000 O   0  0  0  0  0  0  0  0  0  0  0  0
    2.0542    2.4458    0.0000 O   0  0  0  0  0  0  0  0  0  0  0  0
    4.1542   -1.1542    0.0000 O   0  0  0  0  0  0  0  0  0  0  0  0
   -4.1208    1.2625    0.0000 O   0  0  0  0  0  0  0  0  0  0  0  0
  2  1  1  0
  3  1  1  0
  4  3  1  0
  5  2  2  0
  6  7  2  0
  7 10  1  0
  8  9  2  0
  9  4  1  0
 10  4  2  0
 11  1  2  0
 12 14  2  0
 13  3  2  0
 14 11  1  0
 15  2  1  0
 16  5  1  0
 17  6  1  0
 18  8  1  0
 19  7  1  0
 20 12  1  0
  5 12  1  0
  8  6  1  0
M  END
> <chembl_id>
CHEMBL329522

> <chembl_pref_name>
EXIFONE
