
     RDKit          2D

 34 34  0  0  0  0  0  0  0  0999 V2000
   20.4827    1.2009    0.0000 C   0  0  0  0  0  0  0  0  0  0  0  0
   20.4827    0.3712    0.0000 C   0  0  0  0  0  0  0  0  0  0  0  0
   21.1973   -0.0412    0.0000 C   0  0  0  0  0  0  0  0  0  0  0  0
   21.9162    0.3712    0.0000 C   0  0  0  0  0  0  0  0  0  0  0  0
   21.9162    1.2009    0.0000 C   0  0  0  0  0  0  0  0  0  0  0  0
   21.1973    1.6179    0.0000 O   0  0  0  0  0  0  0  0  0  0  0  0
   22.6316    1.6143    0.0000 C   0  0  0  0  0  0  0  0  0  0  0  0
   23.3457    1.2011    0.0000 O   0  0  0  0  0  0  0  0  0  0  0  0
   22.6325    2.4393    0.0000 O   0  0  0  0  0  0  0  0  0  0  0  0
   21.1961   -0.8662    0.0000 N   0  0  0  0  0  0  0  0  0  0  0  0
   21.9099   -1.2797    0.0000 C   0  0  0  0  0  0  0  0  0  0  0  0
   21.9088   -2.1047    0.0000 N   0  0  0  0  0  0  0  0  0  0  0  0
   22.6250   -0.8682    0.0000 N   0  0  0  0  0  0  0  0  0  0  0  0
   19.7683   -0.0412    0.0000 N   0  0  0  0  0  0  0  0  0  0  0  0
   19.7683   -0.8662    0.0000 C   0  0  0  0  0  0  0  0  0  0  0  0
   19.0538   -1.2787    0.0000 C   0  0  0  0  0  0  0  0  0  0  0  0
   20.4827   -1.2787    0.0000 O   0  0  0  0  0  0  0  0  0  0  0  0
   19.7673    1.6116    0.0000 C   0  0  0  0  0  0  0  0  0  0  0  0
   19.7653    2.4366    0.0000 O   0  0  0  0  0  0  0  0  0  0  0  0
   19.0538    1.1974    0.0000 C   0  0  0  0  0  0  0  0  0  0  0  0
   18.3384    1.6082    0.0000 C   0  0  0  0  0  0  0  0  0  0  0  0
   17.6249    1.1939    0.0000 O   0  0  0  0  0  0  0  0  0  0  0  0
   19.0558    0.3725    0.0000 O   0  0  0  0  0  0  0  0  0  0  0  0
   20.4782    2.0259    0.0000 H   0  0  0  0  0  0  0  0  0  0  0  0
   20.4787    2.8508    0.0000 C   0  0  0  0  0  0  0  0  0  0  0  0
   16.9094    1.6048    0.0000 C   0  0  0  0  0  0  0  0  0  0  0  0
   16.1959    1.1905    0.0000 C   0  0  0  0  0  0  0  0  0  0  0  0
   16.9074    2.4298    0.0000 O   0  0  0  0  0  0  0  0  0  0  0  0
   15.4805    1.6014    0.0000 C   0  0  0  0  0  0  0  0  0  0  0  0
   14.7670    1.1871    0.0000 C   0  0  0  0  0  0  0  0  0  0  0  0
   14.0516    1.5978    0.0000 C   0  0  0  0  0  0  0  0  0  0  0  0
   13.3382    1.1837    0.0000 C   0  0  0  0  0  0  0  0  0  0  0  0
   12.6226    1.5944    0.0000 C   0  0  0  0  0  0  0  0  0  0  0  0
   11.9092    1.1803    0.0000 C   0  0  0  0  0  0  0  0  0  0  0  0
 15 17  2  0
  7  9  2  0
  1 18  1  0
  5  7  1  0
 18 19  1  1
  2  3  1  0
 18 20  1  0
  3 10  1  6
 20 21  1  0
  3  4  1  0
 21 22  1  0
 10 11  1  0
 20 23  1  6
  4  5  2  0
  1 24  1  1
 11 12  1  0
 19 25  1  0
  5  6  1  0
 22 26  1  0
 11 13  2  0
 26 27  1  0
 26 28  2  0
  2 14  1  1
 27 29  1  0
  1  2  1  0
 29 30  1  0
 14 15  1  0
 30 31  1  0
  1  6  1  0
 31 32  1  0
 15 16  1  0
 32 33  1  0
  7  8  1  0
 33 34  1  0
M  END
> <chembl_id>
CHEMBL467058

> <chembl_pref_name>
LANINAMIVIR OCTANOATE
