
     RDKit          2D

 28 29  0  0  1  0  0  0  0  0999 V2000
   -0.7083   -4.9583    0.0000 S   0  0  0  0  0  0  0  0  0  0  0  0
   -0.0958   -5.3125    0.0000 C   0  0  0  0  0  0  0  0  0  0  0  0
   -0.3583   -4.3417    0.0000 O   0  0  0  0  0  0  0  0  0  0  0  0
   -1.0708   -4.3417    0.0000 O   0  0  0  0  0  0  0  0  0  0  0  0
   -0.0958   -6.0250    0.0000 C   0  0  0  0  0  0  0  0  0  0  0  0
    0.5167   -4.9583    0.0000 C   0  0  0  0  0  0  0  0  0  0  0  0
   -1.3208   -5.3125    0.0000 N   0  0  0  0  0  0  0  0  0  0  0  0
    1.1292   -5.3125    0.0000 C   0  0  0  0  0  0  0  0  0  0  0  0
    5.4208   -4.9417    0.0000 C   0  0  0  0  0  0  0  0  0  0  0  0
    6.0333   -5.2958    0.0000 C   0  0  0  0  0  0  0  0  0  0  0  0
    0.5167   -6.3792    0.0000 C   0  0  0  0  0  0  0  0  0  0  0  0
    1.7417   -4.9542    0.0000 C   0  0  0  0  0  0  0  0  0  0  0  0
    1.1292   -6.0250    0.0000 C   0  0  0  0  0  0  0  0  0  0  0  0
    2.9667   -4.9500    0.0000 N   0  0  0  0  0  0  0  0  0  0  0  0
   -0.7083   -6.3792    0.0000 O   0  0  0  0  0  0  0  0  0  0  0  0
    6.0333   -6.0042    0.0000 O   0  0  0  0  0  0  0  0  0  0  0  0
    4.8083   -5.3000    0.0000 O   0  0  0  0  0  0  0  0  0  0  0  0
    2.3542   -5.3083    0.0000 C   0  0  0  0  0  0  0  0  0  0  0  0
    5.4125   -4.2375    0.0000 C   0  0  0  0  0  0  0  0  0  0  0  0
    6.6417   -4.9417    0.0000 C   0  0  0  0  0  0  0  0  0  0  0  0
    3.5833   -5.3042    0.0000 C   0  0  0  0  0  0  0  0  0  0  0  0
    4.1958   -4.9458    0.0000 C   0  0  0  0  0  0  0  0  0  0  0  0
    5.4167   -6.3583    0.0000 C   0  0  0  0  0  0  0  0  0  0  0  0
   -1.3250   -6.0250    0.0000 C   0  0  0  0  0  0  0  0  0  0  0  0
    2.3583   -6.0167    0.0000 C   0  0  0  0  0  0  0  0  0  0  0  0
    4.8042   -6.0042    0.0000 C   0  0  0  0  0  0  0  0  0  0  0  0
    6.6417   -4.2333    0.0000 C   0  0  0  0  0  0  0  0  0  0  0  0
    6.0208   -3.8792    0.0000 C   0  0  0  0  0  0  0  0  0  0  0  0
  2  1  1  0
  3  1  2  0
  4  1  2  0
  5  2  2  0
  6  2  1  0
  7  1  1  0
  8  6  2  0
  9 17  1  0
 10  9  2  0
 11  5  1  0
 12  8  1  0
 13 11  2  0
 14 18  1  0
 15  5  1  0
 16 10  1  0
 17 22  1  0
 18 12  1  0
 19  9  1  0
 20 10  1  0
 21 14  1  0
 22 21  1  0
 23 16  1  0
 24 15  1  0
 18 25  1  6
 26 23  1  0
 27 28  1  0
 28 19  2  0
  8 13  1  0
 27 20  2  0
M  END
> <chembl_id>
CHEMBL836

> <chembl_pref_name>
TAMSULOSIN
