
     RDKit          2D

 35 37  0  0  0  0  0  0  0  0999 V2000
   26.5656   -7.5226    0.0000 Cl  0  0  0  0  0  0  0  0  0  0  0  0
   22.2037   -6.8090    0.0000 C   0  0  0  0  0  0  0  0  0  0  0  0
   22.1991   -5.9349    0.0000 C   0  0  0  0  0  0  0  0  0  0  0  0
   22.9179   -7.2154    0.0000 C   0  0  0  0  0  0  0  0  0  0  0  0
   21.5215   -7.2154    0.0000 C   0  0  0  0  0  0  0  0  0  0  0  0
   21.5181   -5.5493    0.0000 C   0  0  0  0  0  0  0  0  0  0  0  0
   22.9225   -5.5230    0.0000 C   0  0  0  0  0  0  0  0  0  0  0  0
   22.1991   -5.1039    0.0000 O   0  0  0  0  0  0  0  0  0  0  0  0
   23.6160   -6.8367    0.0000 C   0  0  0  0  0  0  0  0  0  0  0  0
   22.9179   -8.0464    0.0000 N   0  0  0  0  0  0  0  0  0  0  0  0
   20.7916   -6.8090    0.0000 C   0  0  0  0  0  0  0  0  0  0  0  0
   21.5215   -8.0463    0.0000 O   0  0  0  0  0  0  0  0  0  0  0  0
   20.7946   -5.9599    0.0000 C   0  0  0  0  0  0  0  0  0  0  0  0
   21.5181   -4.7183    0.0000 O   0  0  0  0  0  0  0  0  0  0  0  0
   23.6168   -5.9380    0.0000 C   0  0  0  0  0  0  0  0  0  0  0  0
   22.9225   -4.6920    0.0000 O   0  0  0  0  0  0  0  0  0  0  0  0
   24.3340   -7.2522    0.0000 O   0  0  0  0  0  0  0  0  0  0  0  0
   22.1922   -8.4639    0.0000 C   0  0  0  0  0  0  0  0  0  0  0  0
   23.6324   -8.4600    0.0000 C   0  0  0  0  0  0  0  0  0  0  0  0
   20.1022   -7.1878    0.0000 C   0  0  0  0  0  0  0  0  0  0  0  0
   20.1081   -5.5493    0.0000 C   0  0  0  0  0  0  0  0  0  0  0  0
   24.3390   -5.5225    0.0000 C   0  0  0  0  0  0  0  0  0  0  0  0
   19.4091   -6.7771    0.0000 C   0  0  0  0  0  0  0  0  0  0  0  0
   20.1022   -8.0186    0.0000 C   0  0  0  0  0  0  0  0  0  0  0  0
   19.4091   -5.9599    0.0000 C   0  0  0  0  0  0  0  0  0  0  0  0
   20.1081   -4.7183    0.0000 O   0  0  0  0  0  0  0  0  0  0  0  0
   25.0596   -5.9395    0.0000 N   0  0  0  0  0  0  0  0  0  0  0  0
   24.3390   -4.6946    0.0000 O   0  0  0  0  0  0  0  0  0  0  0  0
   18.6971   -7.1878    0.0000 C   0  0  0  0  0  0  0  0  0  0  0  0
   18.6936   -5.5493    0.0000 C   0  0  0  0  0  0  0  0  0  0  0  0
   17.9961   -6.8090    0.0000 C   0  0  0  0  0  0  0  0  0  0  0  0
   17.9961   -5.9599    0.0000 C   0  0  0  0  0  0  0  0  0  0  0  0
   18.6936   -4.7183    0.0000 O   0  0  0  0  0  0  0  0  0  0  0  0
   22.2037   -7.6398    0.0000 H   0  0  0  0  0  0  0  0  0  0  0  0
   20.7916   -7.6399    0.0000 H   0  0  0  0  0  0  0  0  0  0  0  0
  2  3  1  0
  2  4  1  0
  2  5  1  0
  3  6  1  0
  3  7  1  0
  3  8  1  1
  4  9  1  0
  4 10  1  1
  5 11  1  0
  5 12  1  1
  6 13  2  0
  6 14  1  0
  7 15  1  0
  7 16  2  0
  9 17  1  0
 10 18  1  0
 10 19  1  0
 11 20  1  0
 13 21  1  0
 15 22  1  0
 20 23  1  0
 20 24  2  0
 21 25  1  0
 21 26  2  0
 22 27  1  0
 22 28  2  0
 23 29  1  0
 25 30  1  0
 29 31  2  0
 30 32  2  0
 30 33  1  0
  9 15  2  0
 11 13  1  0
 23 25  2  0
 31 32  1  0
  2 34  1  1
 11 35  1  1
M  END
> <chembl_id>
CHEMBL2146123

> <chembl_pref_name>
METHACYCLINE HYDROCHLORIDE
