
     RDKit          2D

 18 19  0  0  0  0  0  0  0  0999 V2000
   -3.2208    0.7958    0.0000 S   0  0  0  0  0  0  0  0  0  0  0  0
    2.9500    0.0375    0.0000 S   0  0  0  0  0  0  0  0  0  0  0  0
   -2.0833    0.0583    0.0000 N   0  0  0  0  0  0  0  0  0  0  0  0
    1.6542    0.0375    0.0000 C   0  0  0  0  0  0  0  0  0  0  0  0
   -2.2958    1.5750    0.0000 O   0  0  0  0  0  0  0  0  0  0  0  0
   -4.0833    1.5750    0.0000 O   0  0  0  0  0  0  0  0  0  0  0  0
   -0.8458    0.0375    0.0000 C   0  0  0  0  0  0  0  0  0  0  0  0
    2.9500   -1.2542    0.0000 O   0  0  0  0  0  0  0  0  0  0  0  0
    2.9500    1.2875    0.0000 O   0  0  0  0  0  0  0  0  0  0  0  0
    4.2042    0.0375    0.0000 N   0  0  0  0  0  0  0  0  0  0  0  0
   -4.3458    0.0208    0.0000 C   0  0  0  0  0  0  0  0  0  0  0  0
    1.0875    1.1000    0.0000 C   0  0  0  0  0  0  0  0  0  0  0  0
    1.0500   -1.0625    0.0000 C   0  0  0  0  0  0  0  0  0  0  0  0
   -0.2000   -1.0625    0.0000 C   0  0  0  0  0  0  0  0  0  0  0  0
   -0.2208    1.1000    0.0000 C   0  0  0  0  0  0  0  0  0  0  0  0
   -2.0833   -1.1167    0.0000 C   0  0  0  0  0  0  0  0  0  0  0  0
   -4.3458   -1.1542    0.0000 C   0  0  0  0  0  0  0  0  0  0  0  0
   -3.2208   -1.7667    0.0000 C   0  0  0  0  0  0  0  0  0  0  0  0
  2  4  1  0
  3  1  1  0
  4 12  1  0
  5  1  2  0
  6  1  2  0
  7  3  1  0
  8  2  2  0
  9  2  2  0
 10  2  1  0
 11  1  1  0
 12 15  2  0
 13 14  1  0
 14  7  2  0
 15  7  1  0
 16  3  1  0
 17 11  1  0
 18 17  1  0
 16 18  1  0
 13  4  2  0
M  END
> <chembl_id>
CHEMBL328560

> <chembl_pref_name>
SULTHIAME
