
     RDKit          2D

 23 24  0  0  0  0  0  0  0  0999 V2000
    0.7375    1.0208    0.0000 N   0  0  0  0  0  0  0  0  0  0  0  0
    0.7375   -0.2167    0.0000 N   0  0  0  0  0  0  0  0  0  0  0  0
    1.1792    0.4000    0.0000 C   0  0  0  0  0  0  0  0  0  0  0  0
    0.0167    0.7833    0.0000 C   0  0  0  0  0  0  0  0  0  0  0  0
    0.0167    0.0000    0.0000 C   0  0  0  0  0  0  0  0  0  0  0  0
   -0.6583    1.1625    0.0000 C   0  0  0  0  0  0  0  0  0  0  0  0
   -1.3250    0.7833    0.0000 C   0  0  0  0  0  0  0  0  0  0  0  0
   -0.6583   -0.3750    0.0000 C   0  0  0  0  0  0  0  0  0  0  0  0
    3.4792   -0.9167    0.0000 C   0  0  0  0  0  0  0  0  0  0  0  0
   -2.2458    1.2208    0.0000 N   0  0  0  0  0  0  0  0  0  0  0  0
   -1.3250    0.0208    0.0000 C   0  0  0  0  0  0  0  0  0  0  0  0
    4.2542   -0.9167    0.0000 O   0  0  0  0  0  0  0  0  0  0  0  0
    1.9542    0.4250    0.0000 C   0  0  0  0  0  0  0  0  0  0  0  0
    1.0042   -0.9417    0.0000 C   0  0  0  0  0  0  0  0  0  0  0  0
    3.1000   -1.5750    0.0000 O   0  0  0  0  0  0  0  0  0  0  0  0
   -4.1958    1.6458    0.0000 Cl  0  0  0  0  0  0  0  0  0  0  0  0
   -1.6333   -0.7000    0.0000 Cl  0  0  0  0  0  0  0  0  0  0  0  0
    2.3375   -0.2417    0.0000 C   0  0  0  0  0  0  0  0  0  0  0  0
    3.1000   -0.2417    0.0000 C   0  0  0  0  0  0  0  0  0  0  0  0
   -2.8833    1.6250    0.0000 C   0  0  0  0  0  0  0  0  0  0  0  0
   -2.2708    0.4375    0.0000 C   0  0  0  0  0  0  0  0  0  0  0  0
   -1.6000    0.0708    0.0000 C   0  0  0  0  0  0  0  0  0  0  0  0
   -3.5458    1.2375    0.0000 C   0  0  0  0  0  0  0  0  0  0  0  0
  2  3  1  0
  3  1  2  0
  4  1  1  0
  5  4  2  0
  6  4  1  0
  7  6  2  0
  8  5  1  0
  9 19  1  0
 10  7  1  0
 11  7  1  0
 12  9  2  0
 13  3  1  0
 14  2  1  0
 15  9  1  0
 16 23  1  0
 17 22  1  0
 18 13  1  0
 19 18  1  0
 20 10  1  0
 21 10  1  0
 22 21  1  0
 23 20  1  0
  5  2  1  0
  8 11  2  0
M  END
> <chembl_id>
CHEMBL487253

> <chembl_pref_name>
BENDAMUSTINE
