
     RDKit          2D

 91 95  0  0  0  0  0  0  0  0999 V2000
    3.0792   -4.4792    0.0000 C   0  0  0  0  0  0  0  0  0  0  0  0
    3.0792   -3.7750    0.0000 O   0  0  0  0  0  0  0  0  0  0  0  0
    3.6917   -4.8375    0.0000 O   0  0  0  0  0  0  0  0  0  0  0  0
    2.4667   -4.8375    0.0000 C   0  0  0  0  0  0  0  0  0  0  0  0
   11.0542   -0.8625    0.0000 N   0  0  0  0  0  0  0  0  0  0  0  0
   10.4375   -0.5042    0.0000 C   0  0  0  0  0  0  0  0  0  0  0  0
    1.2167    0.4708    0.0000 C   0  0  0  0  0  0  0  0  0  0  0  0
    3.0792   -0.5625    0.0000 C   0  0  0  0  0  0  0  0  0  0  0  0
    1.2250   -0.9250    0.0000 C   0  0  0  0  0  0  0  0  0  0  0  0
   -0.6125   -0.6000    0.0000 C   0  0  0  0  0  0  0  0  0  0  0  0
    8.6000   -0.8625    0.0000 C   0  0  0  0  0  0  0  0  0  0  0  0
    4.9167   -0.8917    0.0000 C   0  0  0  0  0  0  0  0  0  0  0  0
    6.7417   -0.5250    0.0000 C   0  0  0  0  0  0  0  0  0  0  0  0
   -2.4625   -0.9500    0.0000 C   0  0  0  0  0  0  0  0  0  0  0  0
   -3.6375   -0.9500    0.0000 N   0  0  0  0  0  0  0  0  0  0  0  0
    1.8375   -0.5792    0.0000 N   0  0  0  0  0  0  0  0  0  0  0  0
   11.7250   -0.4667    0.0000 C   0  0  0  0  0  0  0  0  0  0  0  0
    2.4542   -0.9125    0.0000 C   0  0  0  0  0  0  0  0  0  0  0  0
    2.3667    0.5000    0.0000 N   0  0  0  0  0  0  0  0  0  0  0  0
    3.6875   -0.9000    0.0000 N   0  0  0  0  0  0  0  0  0  0  0  0
    0.0000   -0.9375    0.0000 N   0  0  0  0  0  0  0  0  0  0  0  0
   -1.8458   -0.6000    0.0000 N   0  0  0  0  0  0  0  0  0  0  0  0
    5.5167   -0.5417    0.0000 N   0  0  0  0  0  0  0  0  0  0  0  0
    7.3792   -0.8750    0.0000 N   0  0  0  0  0  0  0  0  0  0  0  0
    9.2042   -0.5167    0.0000 N   0  0  0  0  0  0  0  0  0  0  0  0
    1.7917    0.0750    0.0000 C   0  0  0  0  0  0  0  0  0  0  0  0
   -1.2333   -0.9375    0.0000 C   0  0  0  0  0  0  0  0  0  0  0  0
    0.6042   -0.6000    0.0000 C   0  0  0  0  0  0  0  0  0  0  0  0
   -0.5208   -2.7000    0.0000 N   0  0  0  0  0  0  0  0  0  0  0  0
    4.3000   -0.5500    0.0000 C   0  0  0  0  0  0  0  0  0  0  0  0
    7.9917   -0.5167    0.0000 C   0  0  0  0  0  0  0  0  0  0  0  0
    6.1292   -0.8750    0.0000 C   0  0  0  0  0  0  0  0  0  0  0  0
   12.4000   -0.8500    0.0000 C   0  0  0  0  0  0  0  0  0  0  0  0
    9.8250   -0.8500    0.0000 C   0  0  0  0  0  0  0  0  0  0  0  0
   -3.0625   -0.6125    0.0000 C   0  0  0  0  0  0  0  0  0  0  0  0
   11.0792   -3.6667    0.0000 C   0  0  0  0  0  0  0  0  0  0  0  0
   -3.6375   -1.6542    0.0000 C   0  0  0  0  0  0  0  0  0  0  0  0
    1.4000    1.1458    0.0000 C   0  0  0  0  0  0  0  0  0  0  0  0
    0.6042    0.1208    0.0000 C   0  0  0  0  0  0  0  0  0  0  0  0
   -0.5958   -2.0042    0.0000 C   0  0  0  0  0  0  0  0  0  0  0  0
   -1.2333   -1.6542    0.0000 C   0  0  0  0  0  0  0  0  0  0  0  0
    0.5167   -2.2542    0.0000 N   0  0  0  0  0  0  0  0  0  0  0  0
    0.1750   -2.8625    0.0000 C   0  0  0  0  0  0  0  0  0  0  0  0
    2.1417    1.1583    0.0000 C   0  0  0  0  0  0  0  0  0  0  0  0
   11.7042   -4.0167    0.0000 N   0  0  0  0  0  0  0  0  0  0  0  0
   10.4375    0.2083    0.0000 O   0  0  0  0  0  0  0  0  0  0  0  0
    0.0500   -1.7167    0.0000 C   0  0  0  0  0  0  0  0  0  0  0  0
    3.0667    0.1375    0.0000 O   0  0  0  0  0  0  0  0  0  0  0  0
    8.6125   -1.5667    0.0000 O   0  0  0  0  0  0  0  0  0  0  0  0
    6.7417    0.1750    0.0000 O   0  0  0  0  0  0  0  0  0  0  0  0
    1.2292   -1.6292    0.0000 O   0  0  0  0  0  0  0  0  0  0  0  0
   -0.6125    0.1208    0.0000 O   0  0  0  0  0  0  0  0  0  0  0  0
    4.9292   -1.6042    0.0000 O   0  0  0  0  0  0  0  0  0  0  0  0
   -2.4625   -1.6667    0.0000 O   0  0  0  0  0  0  0  0  0  0  0  0
    4.2875    0.1500    0.0000 C   0  0  0  0  0  0  0  0  0  0  0  0
   12.4042   -1.6167    0.0000 O   0  0  0  0  0  0  0  0  0  0  0  0
    6.1417   -1.5917    0.0000 C   0  0  0  0  0  0  0  0  0  0  0  0
    7.9792    0.1958    0.0000 C   0  0  0  0  0  0  0  0  0  0  0  0
   -4.2375   -2.0042    0.0000 O   0  0  0  0  0  0  0  0  0  0  0  0
   -2.6208   -1.1167    0.0000 C   0  0  0  0  0  0  0  0  0  0  0  0
   11.0792   -2.9500    0.0000 N   0  0  0  0  0  0  0  0  0  0  0  0
   13.0167   -0.4917    0.0000 N   0  0  0  0  0  0  0  0  0  0  0  0
   10.4583   -4.0167    0.0000 N   0  0  0  0  0  0  0  0  0  0  0  0
   11.0542   -1.4917    0.0000 C   0  0  0  0  0  0  0  0  0  0  0  0
   -2.9375   -1.7917    0.0000 C   0  0  0  0  0  0  0  0  0  0  0  0
    4.9167    0.5208    0.0000 C   0  0  0  0  0  0  0  0  0  0  0  0
    6.1125    1.2458    0.0000 C   0  0  0  0  0  0  0  0  0  0  0  0
    2.4667   -1.6292    0.0000 C   0  0  0  0  0  0  0  0  0  0  0  0
    5.5125    0.1583    0.0000 C   0  0  0  0  0  0  0  0  0  0  0  0
    4.9167    1.2250    0.0000 C   0  0  0  0  0  0  0  0  0  0  0  0
    5.5042    1.5875    0.0000 C   0  0  0  0  0  0  0  0  0  0  0  0
    6.1125    0.5208    0.0000 C   0  0  0  0  0  0  0  0  0  0  0  0
   12.0625   -0.9917    0.0000 C   0  0  0  0  0  0  0  0  0  0  0  0
    6.7292    1.6000    0.0000 O   0  0  0  0  0  0  0  0  0  0  0  0
    3.0792   -1.9792    0.0000 O   0  0  0  0  0  0  0  0  0  0  0  0
   11.7917   -1.6292    0.0000 C   0  0  0  0  0  0  0  0  0  0  0  0
    9.8292   -1.5417    0.0000 C   0  0  0  0  0  0  0  0  0  0  0  0
    1.0417    1.7625    0.0000 C   0  0  0  0  0  0  0  0  0  0  0  0
    8.5875    0.5583    0.0000 C   0  0  0  0  0  0  0  0  0  0  0  0
    6.7542   -1.9417    0.0000 C   0  0  0  0  0  0  0  0  0  0  0  0
    2.4792    1.7750    0.0000 C   0  0  0  0  0  0  0  0  0  0  0  0
   13.6417   -0.8500    0.0000 C   0  0  0  0  0  0  0  0  0  0  0  0
   10.4542   -2.6042    0.0000 C   0  0  0  0  0  0  0  0  0  0  0  0
   10.4500   -1.8917    0.0000 C   0  0  0  0  0  0  0  0  0  0  0  0
    9.2042    0.2083    0.0000 C   0  0  0  0  0  0  0  0  0  0  0  0
    8.5750    1.2750    0.0000 C   0  0  0  0  0  0  0  0  0  0  0  0
    7.3792   -1.5667    0.0000 C   0  0  0  0  0  0  0  0  0  0  0  0
    6.7667   -2.6500    0.0000 C   0  0  0  0  0  0  0  0  0  0  0  0
   14.2542   -0.4875    0.0000 C   0  0  0  0  0  0  0  0  0  0  0  0
    1.4000    2.3917    0.0000 C   0  0  0  0  0  0  0  0  0  0  0  0
    2.1167    2.3958    0.0000 C   0  0  0  0  0  0  0  0  0  0  0  0
  2  1  2  0
  3  1  1  0
  4  1  1  0
  6  5  1  0
  7 39  1  0
  8 20  1  0
  9 16  1  0
 10 21  1  0
 11 25  1  0
 12 23  1  0
 13 24  1  0
 14 22  1  0
 35 15  1  6
 18 16  1  6
 17  5  1  6
 18  8  1  0
 19 26  1  0
 30 20  1  1
 28 21  1  1
 27 22  1  6
 32 23  1  1
 31 24  1  1
 34 25  1  6
 26  7  2  0
 27 10  1  0
 28  9  1  0
 29 40  1  0
 30 12  1  0
 31 11  1  0
 32 13  1  0
 33 17  1  0
 34  6  1  0
 35 14  1  0
 36 61  1  0
 37 15  1  0
 38  7  1  0
 39 28  1  0
 40 41  1  0
 41 27  1  0
 42 47  1  0
 43 29  2  0
 44 38  2  0
 45 36  2  0
 46  6  2  0
 47 40  2  0
 48  8  2  0
 49 11  2  0
 50 13  2  0
 51  9  2  0
 52 10  2  0
 53 12  2  0
 54 14  2  0
 55 30  1  0
 56 33  2  0
 57 32  1  0
 58 31  1  0
 59 37  2  0
 60 35  1  0
 61 83  1  0
 62 33  1  0
 63 36  1  0
 64  5  1  0
 65 60  1  0
 66 55  1  0
 67 72  1  0
 68 18  1  0
 69 66  1  0
 70 66  2  0
 71 70  1  0
 72 69  2  0
 73 17  1  0
 74 67  1  0
 75 68  1  0
 76 64  1  0
 77 34  1  0
 78 38  1  0
 79 58  1  0
 80 57  1  0
 81 44  1  0
 82 62  1  0
 83 84  1  0
 84 77  1  0
 85 79  1  0
 86 79  1  0
 87 80  1  0
 88 80  1  0
 89 82  1  0
 90 78  2  0
 91 90  1  0
 76 73  1  0
 67 71  2  0
 19 44  1  0
 91 81  2  0
 43 42  1  0
 37 65  1  0
M  END
> <chembl_id>
CHEMBL1200775

> <chembl_pref_name>
LEUPROLIDE ACETATE
