
     RDKit          2D

 30 33  0  0  0  0  0  0  0  0999 V2000
    3.8781   -0.9495    0.0000 C   0  0  0  0  0  0  0  0  0  0  0  0
    4.5926   -1.3620    0.0000 C   0  0  0  0  0  0  0  0  0  0  0  0
    3.1637   -1.3620    0.0000 N   0  0  0  0  0  0  0  0  0  0  0  0
    4.5926   -2.1870    0.0000 C   0  0  0  0  0  0  0  0  0  0  0  0
    3.8781   -2.5995    0.0000 C   0  0  0  0  0  0  0  0  0  0  0  0
    3.1637   -2.1870    0.0000 C   0  0  0  0  0  0  0  0  0  0  0  0
    2.4492   -2.5995    0.0000 C   0  0  0  0  0  0  0  0  0  0  0  0
    1.7347   -2.1870    0.0000 N   0  0  0  0  0  0  0  0  0  0  0  0
    2.4492   -3.4245    0.0000 O   0  0  0  0  0  0  0  0  0  0  0  0
    3.8781   -3.4245    0.0000 O   0  0  0  0  0  0  0  0  0  0  0  0
    5.3071   -2.5995    0.0000 O   0  0  0  0  0  0  0  0  0  0  0  0
    5.3071   -0.9495    0.0000 C   0  0  0  0  0  0  0  0  0  0  0  0
    6.0216   -1.3620    0.0000 N   0  0  0  0  0  0  0  0  0  0  0  0
    5.3071   -0.1245    0.0000 O   0  0  0  0  0  0  0  0  0  0  0  0
    1.7347   -1.3620    0.0000 C   0  0  0  0  0  0  0  0  0  0  0  0
    0.9501   -1.1071    0.0000 O   0  0  0  0  0  0  0  0  0  0  0  0
    2.4492   -0.9495    0.0000 C   0  0  0  0  0  0  0  0  0  0  0  0
    7.4505   -2.1870    0.0000 C   0  0  0  0  0  0  0  0  0  0  0  0
    7.4505   -1.3620    0.0000 C   0  0  0  0  0  0  0  0  0  0  0  0
    6.7360   -2.5995    0.0000 F   0  0  0  0  0  0  0  0  0  0  0  0
    8.1650   -2.5995    0.0000 C   0  0  0  0  0  0  0  0  0  0  0  0
    8.8794   -2.1870    0.0000 C   0  0  0  0  0  0  0  0  0  0  0  0
    9.5939   -2.5995    0.0000 F   0  0  0  0  0  0  0  0  0  0  0  0
    8.8794   -1.3620    0.0000 C   0  0  0  0  0  0  0  0  0  0  0  0
    8.1650   -0.9495    0.0000 C   0  0  0  0  0  0  0  0  0  0  0  0
    6.7360   -0.9495    0.0000 C   0  0  0  0  0  0  0  0  0  0  0  0
    0.4652   -1.7745    0.0000 C   0  0  0  0  0  0  0  0  0  0  0  0
    0.9501   -2.4419    0.0000 C   0  0  0  0  0  0  0  0  0  0  0  0
    1.6485   -0.5415    0.0000 H   0  0  0  0  0  0  0  0  0  0  0  0
    0.6952   -3.2266    0.0000 C   0  0  0  0  0  0  0  0  0  0  0  0
  1  2  2  0
  2  4  1  0
  2 12  1  0
  3  1  1  0
  3  6  1  0
  3 17  1  0
  4 11  2  0
  5  4  1  0
  5 10  1  0
  6  5  2  0
  6  7  1  0
  7  9  2  0
  8  7  1  0
  8 28  1  0
 12 14  2  0
 13 12  1  0
 15 16  1  0
 15  8  1  0
 15 29  1  1
 15 17  1  0
 18 19  2  0
 19 25  1  0
 19 26  1  0
 20 18  1  0
 21 22  2  0
 21 18  1  0
 23 22  1  0
 24 22  1  0
 25 24  2  0
 26 13  1  0
 27 28  1  0
 27 16  1  0
 28 30  1  1
M  END
> <chembl_id>
CHEMBL2403238

> <chembl_pref_name>
CABOTEGRAVIR
