
     RDKit          2D

 25 24  0  0  0  0  0  0  0  0999 V2000
    3.3348   -0.2062    0.0000 N   0  0  0  0  0  0  0  0  0  0  0  0
    4.0493    0.2063    0.0000 C   0  0  0  0  0  0  0  0  0  0  0  0
    4.7637   -0.2063    0.0000 C   0  0  0  0  0  0  0  0  0  0  0  0
    5.4782    0.2062    0.0000 C   0  0  0  0  0  0  0  0  0  0  0  0
    6.1927   -0.2063    0.0000 C   0  0  0  0  0  0  0  0  0  0  0  0
    6.9072    0.2062    0.0000 C   0  0  0  0  0  0  0  0  0  0  0  0
    6.9072    1.0312    0.0000 N   0  0  0  0  0  0  0  0  0  0  0  0
    7.6216   -0.2063    0.0000 C   0  0  0  0  0  0  0  0  0  0  0  0
    8.3361    0.2062    0.0000 O   0  0  0  0  0  0  0  0  0  0  0  0
    7.6216   -1.0313    0.0000 O   0  0  0  0  0  0  0  0  0  0  0  0
    0.3811   -3.0250    0.0000 C   0  0  0  0  0  0  0  0  0  0  0  0
    0.3811   -2.2000    0.0000 C   0  0  0  0  0  0  0  0  0  0  0  0
    1.0955   -1.7875    0.0000 C   0  0  0  0  0  0  0  0  0  0  0  0
   -0.3334   -1.7875    0.0000 C   0  0  0  0  0  0  0  0  0  0  0  0
   -0.3334   -0.9625    0.0000 C   0  0  0  0  0  0  0  0  0  0  0  0
   -1.0479   -0.5500    0.0000 C   0  0  0  0  0  0  0  0  0  0  0  0
   -1.0479    0.2750    0.0000 C   0  0  0  0  0  0  0  0  0  0  0  0
   -0.3334    0.6875    0.0000 C   0  0  0  0  0  0  0  0  0  0  0  0
    0.3811    0.2750    0.0000 C   0  0  0  0  0  0  0  0  0  0  0  0
    0.3811   -0.5500    0.0000 C   0  0  0  0  0  0  0  0  0  0  0  0
   -0.3334    1.5125    0.0000 C   0  0  0  0  0  0  0  0  0  0  0  0
   -1.0479    1.9250    0.0000 C   0  0  0  0  0  0  0  0  0  0  0  0
    0.3811    1.9250    0.0000 C   0  0  0  0  0  0  0  0  0  0  0  0
    0.3811    2.7500    0.0000 O   0  0  0  0  0  0  0  0  0  0  0  0
    1.0955    1.5125    0.0000 O   0  0  0  0  0  0  0  0  0  0  0  0
  1  2  1  0
  2  3  1  0
  3  4  1  0
  4  5  1  0
  5  6  1  0
  6  7  1  6
  6  8  1  0
  8  9  2  0
  8 10  1  0
 11 12  1  0
 12 13  1  0
 12 14  1  0
 14 15  1  0
 15 16  2  0
 16 17  1  0
 17 18  2  0
 18 19  1  0
 19 20  2  0
 15 20  1  0
 18 21  1  0
 21 22  1  0
 21 23  1  0
 23 24  2  0
 23 25  1  0
M  END
> <chembl_id>
CHEMBL1201141

> <chembl_pref_name>
IBUPROFEN LYSINE
