
     RDKit          2D

 14 14  0  0  0  0  0  0  0  0999 V2000
    3.7542   -5.0500    0.0000 C   0  0  0  0  0  0  0  0  0  0  0  0
    6.8292   -4.6792    0.0000 C   0  0  0  0  0  0  0  0  0  0  0  0
    5.6042   -3.9792    0.0000 C   0  0  0  0  0  0  0  0  0  0  0  0
    3.1417   -5.4042    0.0000 C   0  0  0  0  0  0  0  0  0  0  0  0
    6.2167   -3.6167    0.0000 C   0  0  0  0  0  0  0  0  0  0  0  0
    6.8292   -3.9792    0.0000 C   0  0  0  0  0  0  0  0  0  0  0  0
    6.2125   -5.0375    0.0000 C   0  0  0  0  0  0  0  0  0  0  0  0
    5.5917   -4.6792    0.0000 C   0  0  0  0  0  0  0  0  0  0  0  0
    2.5250   -5.7667    0.0000 I   0  0  0  0  0  0  0  0  0  0  0  0
    7.4542   -3.6167    0.0000 Cl  0  0  0  0  0  0  0  0  0  0  0  0
    6.2125   -2.9125    0.0000 Cl  0  0  0  0  0  0  0  0  0  0  0  0
    6.2125   -5.7542    0.0000 Cl  0  0  0  0  0  0  0  0  0  0  0  0
    4.9917   -5.0375    0.0000 O   0  0  0  0  0  0  0  0  0  0  0  0
    4.3750   -4.6917    0.0000 C   0  0  0  0  0  0  0  0  0  0  0  0
  2  7  1  0
  3  8  1  0
  4  1  3  0
  5  3  2  0
  6  2  2  0
  7  8  2  0
  8 13  1  0
  9  4  1  0
 10  6  1  0
 11  5  1  0
 12  7  1  0
 13 14  1  0
 14  1  1  0
  6  5  1  0
M  END
> <chembl_id>
CHEMBL1289

> <chembl_pref_name>
HALOPROGIN
