
     RDKit          2D

  3  1  0  0  0  0  0  0  0  0999 V2000
   -0.1083   -0.8125    0.0000 Na  0  0  0  0  0 15  0  0  0  0  0  0
   -1.2333   -0.8125    0.0000 O   0  0  0  0  0  0  0  0  0  0  0  0
   -1.9458   -0.8125    0.0000 Cl  0  0  0  0  0  0  0  0  0  0  0  0
  3  2  1  0
M  CHG  2   1   1   2  -1
M  END
> <chembl_id>
CHEMBL1334078

> <chembl_pref_name>
SODIUM HYPOCHLORITE
