
     RDKit          2D

 48 51  0  0  0  0  0  0  0  0999 V2000
   -7.1709   -0.5544    0.0000 C   0  0  0  0  0  0  0  0  0  0  0  0
   -7.1709   -1.3794    0.0000 C   0  0  0  0  0  0  0  0  0  0  0  0
   -6.4396   -1.8015    0.0000 N   0  0  0  0  0  0  0  0  0  0  0  0
   -5.7215   -1.3422    0.0000 C   0  0  0  0  0  0  0  0  0  0  0  0
   -5.7660   -0.5156    0.0000 N   0  0  0  0  0  0  0  0  0  0  0  0
   -6.4795   -0.1021    0.0000 C   0  0  0  0  0  0  0  0  0  0  0  0
   -6.4795    0.7020    0.0000 C   0  0  0  0  0  0  0  0  0  0  0  0
   -5.7825    1.1071    0.0000 C   0  0  0  0  0  0  0  0  0  0  0  0
   -5.7825    1.9395    0.0000 C   0  0  0  0  0  0  0  0  0  0  0  0
   -6.5082    2.3584    0.0000 C   0  0  0  0  0  0  0  0  0  0  0  0
   -7.2237    1.9438    0.0000 C   0  0  0  0  0  0  0  0  0  0  0  0
   -7.2237    1.1203    0.0000 C   0  0  0  0  0  0  0  0  0  0  0  0
   -5.0692    2.3515    0.0000 C   0  0  0  0  0  0  0  0  0  0  0  0
   -5.0692    3.1753    0.0000 O   0  0  0  0  0  0  0  0  0  0  0  0
   -4.3558    3.5872    0.0000 C   0  0  0  0  0  0  0  0  0  0  0  0
   -3.6424    3.1754    0.0000 C   0  0  0  0  0  0  0  0  0  0  0  0
   -3.6423    2.3516    0.0000 C   0  0  0  0  0  0  0  0  0  0  0  0
   -2.9288    1.9397    0.0000 C   0  0  0  0  0  0  0  0  0  0  0  0
   -2.9287    1.1160    0.0000 O   0  0  0  0  0  0  0  0  0  0  0  0
   -3.6422    0.7040    0.0000 C   0  0  0  0  0  0  0  0  0  0  0  0
   -4.9884   -1.7182    0.0000 N   0  0  0  0  0  0  0  0  0  0  0  0
   -4.3421   -1.2756    0.0000 C   0  0  0  0  0  0  0  0  0  0  0  0
   -3.5656   -1.6515    0.0000 C   0  0  0  0  0  0  0  0  0  0  0  0
   -2.8740   -1.2054    0.0000 C   0  0  0  0  0  0  0  0  0  0  0  0
   -2.9144   -0.3818    0.0000 C   0  0  0  0  0  0  0  0  0  0  0  0
   -3.6524   -0.0062    0.0000 C   0  0  0  0  0  0  0  0  0  0  0  0
   -4.3410   -0.4544    0.0000 C   0  0  0  0  0  0  0  0  0  0  0  0
   -2.2228    0.0658    0.0000 O   0  0  0  0  0  0  0  0  0  0  0  0
   -1.4894   -0.3091    0.0000 C   0  0  0  0  0  0  0  0  0  0  0  0
   -0.7981    0.1383    0.0000 C   0  0  0  0  0  0  0  0  0  0  0  0
   -0.1217   -0.3318    0.0000 N   0  0  0  0  0  0  0  0  0  0  0  0
   -0.1066   -1.1528    0.0000 C   0  0  0  0  0  0  0  0  0  0  0  0
    0.6819   -1.3909    0.0000 C   0  0  0  0  0  0  0  0  0  0  0  0
    1.1522   -0.7145    0.0000 C   0  0  0  0  0  0  0  0  0  0  0  0
    0.6542   -0.0583    0.0000 C   0  0  0  0  0  0  0  0  0  0  0  0
    0.6808    3.4999    0.0000 C   0  0  0  0  0  0  0  0  0  0  0  0
   -0.0409    3.0930    0.0000 C   0  0  0  0  0  0  0  0  0  0  0  0
    1.3978    3.0930    0.0000 C   0  0  0  0  0  0  0  0  0  0  0  0
    0.2642    4.2168    0.0000 C   0  0  0  0  0  0  0  0  0  0  0  0
    2.1099    3.4999    0.0000 C   0  0  0  0  0  0  0  0  0  0  0  0
   -0.0263    2.2792    0.0000 C   0  0  0  0  0  0  0  0  0  0  0  0
    0.6662    4.9386    0.0000 O   0  0  0  0  0  0  0  0  0  0  0  0
    0.7099    1.8868    0.0000 O   0  0  0  0  0  0  0  0  0  0  0  0
    2.1099    4.3283    0.0000 O   0  0  0  0  0  0  0  0  0  0  0  0
    1.0877    4.2168    0.0000 O   0  0  0  0  0  0  0  0  0  0  0  0
   -0.5641    4.2120    0.0000 O   0  0  0  0  0  0  0  0  0  0  0  0
   -0.7239    1.8432    0.0000 O   0  0  0  0  0  0  0  0  0  0  0  0
    2.8316    3.0930    0.0000 O   0  0  0  0  0  0  0  0  0  0  0  0
  1  2  2  0
  2  3  1  0
  3  4  2  0
  4  5  1  0
  5  6  2  0
  6  1  1  0
  7  8  2  0
  8  9  1  0
  9 10  2  0
 10 11  1  0
 11 12  2  0
 12  7  1  0
  6  7  1  0
  9 13  1  0
 13 14  1  0
 14 15  1  0
 16 15  1  0
 16 17  2  0
 17 18  1  0
 18 19  1  0
 19 20  1  0
  4 21  1  0
 21 22  1  0
 22 23  2  0
 23 24  1  0
 24 25  2  0
 25 26  1  0
 26 27  2  0
 27 22  1  0
 20 26  1  0
 25 28  1  0
 28 29  1  0
 29 30  1  0
 30 31  1  0
 31 32  1  0
 32 33  1  0
 33 34  1  0
 34 35  1  0
 35 31  1  0
 37 36  1  0
 38 36  1  0
 39 36  1  0
 40 38  1  0
 41 37  1  0
 42 39  2  0
 43 41  2  0
 44 40  2  0
 45 36  1  0
 46 39  1  0
 47 41  1  0
 48 40  1  0
M  END
> <chembl_id>
CHEMBL5095049

> <chembl_pref_name>
PACRITINIB CITRATE
