
     RDKit          2D

 59 62  0  0  0  0  0  0  0  0999 V2000
    1.0018   -8.3102    0.0000 O   0  0  0  0  0  0  0  0  0  0  0  0
    2.6504   -8.2219    0.0000 O   0  0  0  0  0  0  0  0  0  0  0  0
   -1.2309   -1.3586    0.0000 N   0  0  0  0  0  0  0  0  0  0  0  0
   -1.9454   -1.7711    0.0000 C   0  0  0  0  0  0  0  0  0  0  0  0
   -1.9454   -2.5961    0.0000 C   0  0  0  0  0  0  0  0  0  0  0  0
   -1.2309   -3.0086    0.0000 C   0  0  0  0  0  0  0  0  0  0  0  0
   -0.5164   -2.5961    0.0000 C   0  0  0  0  0  0  0  0  0  0  0  0
   -0.5164   -1.7711    0.0000 C   0  0  0  0  0  0  0  0  0  0  0  0
   -1.3684   -1.9086    0.0000 C   0  0  0  0  0  0  0  0  0  0  0  0
   -1.3684   -2.4586    0.0000 C   0  0  0  0  0  0  0  0  0  0  0  0
   -2.6599   -1.3586    0.0000 C   0  0  0  0  0  0  0  0  0  0  0  0
   -3.3743   -1.7711    0.0000 C   0  0  0  0  0  0  0  0  0  0  0  0
   -3.3743   -2.5961    0.0000 C   0  0  0  0  0  0  0  0  0  0  0  0
   -4.0888   -3.0086    0.0000 C   0  0  0  0  0  0  0  0  0  0  0  0
   -4.8033   -2.5961    0.0000 N   0  0  0  0  0  0  0  0  0  0  0  0
   -4.8033   -1.7711    0.0000 C   0  0  0  0  0  0  0  0  0  0  0  0
   -4.0888   -1.3586    0.0000 C   0  0  0  0  0  0  0  0  0  0  0  0
   -2.6599   -3.0086    0.0000 C   0  0  0  0  0  0  0  0  0  0  0  0
   -2.6599   -3.8336    0.0000 C   0  0  0  0  0  0  0  0  0  0  0  0
   -3.3743   -4.2461    0.0000 C   0  0  0  0  0  0  0  0  0  0  0  0
   -4.0888   -3.8336    0.0000 C   0  0  0  0  0  0  0  0  0  0  0  0
   -1.9454   -0.9461    0.0000 H   0  0  0  0  0  0  0  0  0  0  0  0
   -2.6599   -0.5336    0.0000 O   0  0  0  0  0  0  0  0  0  0  0  0
   -1.9454   -4.2461    0.0000 O   0  0  0  0  0  0  0  0  0  0  0  0
   -1.9454   -5.0711    0.0000 C   0  0  0  0  0  0  0  0  0  0  0  0
    0.1980   -3.0086    0.0000 C   0  0  0  0  0  0  0  0  0  0  0  0
    0.9125   -2.5961    0.0000 C   0  0  0  0  0  0  0  0  0  0  0  0
   -1.2309   -3.8336    0.0000 H   0  0  0  0  0  0  0  0  0  0  0  0
    7.0786   -1.6560    0.0000 N   0  0  0  0  0  0  0  0  0  0  0  0
    6.3641   -2.0685    0.0000 C   0  0  0  0  0  0  0  0  0  0  0  0
    6.3641   -2.8935    0.0000 C   0  0  0  0  0  0  0  0  0  0  0  0
    7.0786   -3.3060    0.0000 C   0  0  0  0  0  0  0  0  0  0  0  0
    7.7931   -2.8935    0.0000 C   0  0  0  0  0  0  0  0  0  0  0  0
    7.7931   -2.0685    0.0000 C   0  0  0  0  0  0  0  0  0  0  0  0
    6.9411   -2.2060    0.0000 C   0  0  0  0  0  0  0  0  0  0  0  0
    6.9411   -2.7560    0.0000 C   0  0  0  0  0  0  0  0  0  0  0  0
    5.6497   -1.6560    0.0000 C   0  0  0  0  0  0  0  0  0  0  0  0
    4.9352   -2.0685    0.0000 C   0  0  0  0  0  0  0  0  0  0  0  0
    4.9352   -2.8935    0.0000 C   0  0  0  0  0  0  0  0  0  0  0  0
    4.2207   -3.3060    0.0000 C   0  0  0  0  0  0  0  0  0  0  0  0
    3.5062   -2.8935    0.0000 N   0  0  0  0  0  0  0  0  0  0  0  0
    3.5062   -2.0685    0.0000 C   0  0  0  0  0  0  0  0  0  0  0  0
    4.2207   -1.6560    0.0000 C   0  0  0  0  0  0  0  0  0  0  0  0
    5.6497   -3.3060    0.0000 C   0  0  0  0  0  0  0  0  0  0  0  0
    5.6497   -4.1310    0.0000 C   0  0  0  0  0  0  0  0  0  0  0  0
    4.9352   -4.5435    0.0000 C   0  0  0  0  0  0  0  0  0  0  0  0
    4.2207   -4.1310    0.0000 C   0  0  0  0  0  0  0  0  0  0  0  0
    6.3641   -1.2435    0.0000 H   0  0  0  0  0  0  0  0  0  0  0  0
    5.6497   -0.8310    0.0000 O   0  0  0  0  0  0  0  0  0  0  0  0
    6.3641   -4.5435    0.0000 O   0  0  0  0  0  0  0  0  0  0  0  0
    6.3641   -5.3685    0.0000 C   0  0  0  0  0  0  0  0  0  0  0  0
    8.5075   -3.3060    0.0000 C   0  0  0  0  0  0  0  0  0  0  0  0
    9.2220   -2.8935    0.0000 C   0  0  0  0  0  0  0  0  0  0  0  0
    7.0786   -4.1310    0.0000 H   0  0  0  0  0  0  0  0  0  0  0  0
    1.3763   -5.8062    0.0000 S   0  0  0  0  0  0  0  0  0  0  0  0
    0.9552   -5.0898    0.0000 O   0  0  0  0  0  0  0  0  0  0  0  0
    1.7828   -5.0898    0.0000 O   0  0  0  0  0  0  0  0  0  0  0  0
    2.0878   -6.2224    0.0000 O   0  0  0  0  0  0  0  0  0  0  0  0
    0.6647   -6.2224    0.0000 O   0  0  0  0  0  0  0  0  0  0  0  0
  3  4  1  0
  4  5  1  0
  5  6  1  0
  6  7  1  0
  7  8  1  0
  8  3  1  0
  3  9  1  0
  9 10  1  0
  6 10  1  0
  4 11  1  0
 11 12  1  0
 12 13  1  0
 17 12  2  0
 14 15  1  0
 15 16  2  0
 16 17  1  0
 13 18  2  0
 14 13  1  0
 21 14  2  0
 18 19  1  0
 19 20  2  0
 20 21  1  0
  4 22  1  1
 11 23  1  6
 19 24  1  0
 24 25  1  0
  7 26  1  6
 26 27  2  0
  6 28  1  1
 29 30  1  0
 30 31  1  0
 31 32  1  0
 32 33  1  0
 33 34  1  0
 34 29  1  0
 29 35  1  0
 35 36  1  0
 32 36  1  0
 30 37  1  0
 37 38  1  0
 38 39  1  0
 43 38  2  0
 40 41  1  0
 41 42  2  0
 42 43  1  0
 39 44  2  0
 40 39  1  0
 47 40  2  0
 44 45  1  0
 45 46  2  0
 46 47  1  0
 30 48  1  1
 37 49  1  6
 45 50  1  0
 50 51  1  0
 33 52  1  6
 52 53  2  0
 32 54  1  1
 56 55  2  0
 57 55  2  0
 58 55  1  0
 59 55  1  0
M  END
> <chembl_id>
CHEMBL3707183

> <chembl_pref_name>
QUINIDINE SULFATE
