
     RDKit          2D

 22 22  0  0  0  0  0  0  0  0999 V2000
    3.5042   -3.7875    0.0000 C   0  0  0  0  0  0  0  0  0  0  0  0
    4.1292   -3.4167    0.0000 C   0  0  0  0  0  0  0  0  0  0  0  0
    3.5042   -4.4875    0.0000 C   0  0  0  0  0  0  0  0  0  0  0  0
    2.9042   -3.4417    0.0000 C   0  0  0  0  0  0  0  0  0  0  0  0
    4.7375   -3.7542    0.0000 C   0  0  0  0  0  0  0  0  0  0  0  0
    7.2042   -5.8875    0.0000 C   0  0  0  0  0  0  0  0  0  0  0  0
    7.1917   -6.6167    0.0000 C   0  0  0  0  0  0  0  0  0  0  0  0
    5.9292   -4.4417    0.0000 C   0  0  0  0  0  0  0  0  0  0  0  0
    6.5667   -5.5167    0.0000 C   0  0  0  0  0  0  0  0  0  0  0  0
    5.3292   -3.3917    0.0000 C   0  0  0  0  0  0  0  0  0  0  0  0
    6.5625   -4.8000    0.0000 C   0  0  0  0  0  0  0  0  0  0  0  0
    5.9375   -3.7292    0.0000 C   0  0  0  0  0  0  0  0  0  0  0  0
    6.6042   -7.0000    0.0000 O   0  0  0  0  0  0  0  0  0  0  0  0
    7.8542   -6.9667    0.0000 O   0  0  0  0  0  0  0  0  0  0  0  0
    2.9042   -4.8417    0.0000 C   0  0  0  0  0  0  0  0  0  0  0  0
    2.2917   -3.7875    0.0000 C   0  0  0  0  0  0  0  0  0  0  0  0
    4.1167   -4.8375    0.0000 C   0  0  0  0  0  0  0  0  0  0  0  0
    2.5542   -2.8250    0.0000 C   0  0  0  0  0  0  0  0  0  0  0  0
    3.2667   -2.8250    0.0000 C   0  0  0  0  0  0  0  0  0  0  0  0
    2.2917   -4.4875    0.0000 C   0  0  0  0  0  0  0  0  0  0  0  0
    5.9542   -5.8667    0.0000 C   0  0  0  0  0  0  0  0  0  0  0  0
    5.3292   -2.6792    0.0000 C   0  0  0  0  0  0  0  0  0  0  0  0
  2  1  1  0
  3  1  2  0
  4  1  1  0
  5  2  2  0
  6  9  2  0
  7  6  1  0
  8 12  1  0
  9 11  1  0
 10  5  1  0
 11  8  2  0
 12 10  2  0
 13  7  2  0
 14  7  1  0
 15  3  1  0
 16  4  1  0
 17  3  1  0
 18  4  1  0
 19  4  1  0
 20 16  1  0
 21  9  1  0
 22 10  1  0
 20 15  1  0
M  END
> <chembl_id>
CHEMBL705

> <chembl_pref_name>
ALITRETINOIN
