
     RDKit          2D

  8  7  0  0  0  0  0  0  0  0999 V2000
    1.8375   -0.5875    0.0000 C   0  0  0  0  0  0  0  0  0  0  0  0
   -1.7625    0.6625    0.0000 C   0  0  0  0  0  0  0  0  0  0  0  0
   -0.3208    0.6625    0.0000 C   0  0  0  0  0  0  0  0  0  0  0  0
    0.3917   -0.5875    0.0000 C   0  0  0  0  0  0  0  0  0  0  0  0
    2.5375    0.6625    0.0000 O   0  0  0  0  0  0  0  0  0  0  0  0
   -2.4625   -0.5875    0.0000 O   0  0  0  0  0  0  0  0  0  0  0  0
   -2.4750    1.9000    0.0000 O   0  0  0  0  0  0  0  0  0  0  0  0
    2.5500   -1.8000    0.0000 O   0  0  0  0  0  0  0  0  0  0  0  0
  2  3  1  0
  3  4  2  0
  4  1  1  0
  5  1  2  0
  6  2  2  0
  7  2  1  0
  8  1  1  0
M  END
> <chembl_id>
CHEMBL503160

> <chembl_pref_name>
FUMARIC ACID
