
     RDKit          2D

 11 10  0  0  0  0  0  0  0  0999 V2000
    3.3375   -4.4667    0.0000 Cl  0  0  0  0  0  0  0  0  0  0  0  0
    4.1417   -4.5042    0.0000 N   0  0  0  0  0  0  0  0  0  0  0  0
    4.7667   -4.8667    0.0000 C   0  0  0  0  0  0  0  0  0  0  0  0
    5.9875   -4.8667    0.0000 N   0  0  0  0  0  0  0  0  0  0  0  0
    5.3750   -4.5042    0.0000 C   0  0  0  0  0  0  0  0  0  0  0  0
    4.1417   -3.8042    0.0000 C   0  0  0  0  0  0  0  0  0  0  0  0
    3.5375   -4.8667    0.0000 C   0  0  0  0  0  0  0  0  0  0  0  0
    6.6042   -4.5042    0.0000 O   0  0  0  0  0  0  0  0  0  0  0  0
    4.7667   -5.5792    0.0000 C   0  0  0  0  0  0  0  0  0  0  0  0
    3.5375   -5.5792    0.0000 C   0  0  0  0  0  0  0  0  0  0  0  0
    4.1417   -5.9375    0.0000 C   0  0  0  0  0  0  0  0  0  0  0  0
  3  2  2  0
  4  5  2  0
  5  3  1  0
  6  2  1  0
  7  2  1  0
  8  4  1  0
  9  3  1  0
 10  7  2  0
 11 10  1  0
 11  9  2  0
M  CHG  2   1  -1   2   1
M  END
> <chembl_id>
CHEMBL748

> <chembl_pref_name>
PRALIDOXIME CHLORIDE
