
     RDKit          2D

 21 22  0  0  0  0  0  0  0  0999 V2000
    4.2648   -0.6600    0.0000 N   0  0  0  0  0  0  0  0  0  0  0  0
    4.2648   -2.3100    0.0000 N   0  0  0  0  0  0  0  0  0  0  0  0
    4.2648    0.1650    0.0000 C   0  0  0  0  0  0  0  0  0  0  0  0
    3.5504    0.5775    0.0000 C   0  0  0  0  0  0  0  0  0  0  0  0
    4.9793    0.5775    0.0000 C   0  0  0  0  0  0  0  0  0  0  0  0
    4.9793   -1.0725    0.0000 C   0  0  0  0  0  0  0  0  0  0  0  0
    3.5504   -1.0725    0.0000 C   0  0  0  0  0  0  0  0  0  0  0  0
    2.8359    0.1650    0.0000 C   0  0  0  0  0  0  0  0  0  0  0  0
    4.9793    1.4025    0.0000 C   0  0  0  0  0  0  0  0  0  0  0  0
    3.5504    1.4025    0.0000 C   0  0  0  0  0  0  0  0  0  0  0  0
    5.6938    0.1650    0.0000 C   0  0  0  0  0  0  0  0  0  0  0  0
    4.9793   -1.8975    0.0000 C   0  0  0  0  0  0  0  0  0  0  0  0
    3.5504   -1.8975    0.0000 C   0  0  0  0  0  0  0  0  0  0  0  0
    2.1214    0.5775    0.0000 C   0  0  0  0  0  0  0  0  0  0  0  0
    5.6938    1.8150    0.0000 C   0  0  0  0  0  0  0  0  0  0  0  0
    2.8359    1.8150    0.0000 C   0  0  0  0  0  0  0  0  0  0  0  0
    6.4083    0.5775    0.0000 C   0  0  0  0  0  0  0  0  0  0  0  0
    2.1214    1.4025    0.0000 C   0  0  0  0  0  0  0  0  0  0  0  0
    6.4083    1.4025    0.0000 C   0  0  0  0  0  0  0  0  0  0  0  0
    4.2648   -3.1350    0.0000 C   0  0  0  0  0  0  0  0  0  0  0  0
    0.0000    0.0000    0.0000 Cl  0  0  0  0  0  0  0  0  0  0  0  0
  1  3  1  0
  1  6  1  0
  1  7  1  0
  2 12  1  0
  2 13  1  0
  2 20  1  0
  3  4  1  0
  3  5  1  0
  4  8  2  0
  4 10  1  0
  5  9  2  0
  5 11  1  0
  6 12  1  0
  7 13  1  0
  8 14  1  0
  9 15  1  0
 10 16  2  0
 11 17  2  0
 14 18  2  0
 15 19  2  0
 16 18  1  0
 17 19  1  0
M  END
> <chembl_id>
CHEMBL1324714

> <chembl_pref_name>
CYCLIZINE HYDROCHLORIDE
