
     RDKit          2D

 24 27  0  0  1  0  0  0  0  0999 V2000
    2.6167   -1.1292    0.0000 C   0  0  0  0  0  0  0  0  0  0  0  0
    1.6542   -1.6917    0.0000 C   0  0  0  0  0  0  0  0  0  0  0  0
   -3.3833   -1.0792    0.0000 C   0  0  0  0  0  0  0  0  0  0  0  0
    2.6167   -0.0167    0.0000 C   0  0  0  0  0  0  0  0  0  0  0  0
    3.6792   -1.4542    0.0000 O   0  0  0  0  0  0  0  0  0  0  0  0
   -2.4208   -1.6375    0.0000 C   0  0  0  0  0  0  0  0  0  0  0  0
    3.7000    0.3333    0.0000 O   0  0  0  0  0  0  0  0  0  0  0  0
   -3.3833    0.0375    0.0000 C   0  0  0  0  0  0  0  0  0  0  0  0
    4.3417   -0.5500    0.0000 C   0  0  0  0  0  0  0  0  0  0  0  0
   -3.3833   -3.3042    0.0000 N   0  0  0  0  0  0  0  0  0  0  0  0
   -1.4458   -1.0792    0.0000 C   0  0  0  0  0  0  0  0  0  0  0  0
    0.6792   -1.1417    0.0000 C   0  0  0  0  0  0  0  0  0  0  0  0
    1.6417    0.5375    0.0000 C   0  0  0  0  0  0  0  0  0  0  0  0
   -0.2833   -1.7042    0.0000 O   0  0  0  0  0  0  0  0  0  0  0  0
   -2.4208    0.5958    0.0000 C   0  0  0  0  0  0  0  0  0  0  0  0
   -4.3458    0.5958    0.0000 C   0  0  0  0  0  0  0  0  0  0  0  0
   -3.3833    2.2708    0.0000 C   0  0  0  0  0  0  0  0  0  0  0  0
    0.6792   -0.0250    0.0000 C   0  0  0  0  0  0  0  0  0  0  0  0
   -2.4208    1.7125    0.0000 C   0  0  0  0  0  0  0  0  0  0  0  0
   -4.3458    1.7125    0.0000 C   0  0  0  0  0  0  0  0  0  0  0  0
   -2.4208   -2.7500    0.0000 C   0  0  0  0  0  0  0  0  0  0  0  0
   -3.3833    3.3833    0.0000 F   0  0  0  0  0  0  0  0  0  0  0  0
   -4.3458   -2.7500    0.0000 C   0  0  0  0  0  0  0  0  0  0  0  0
   -4.3458   -1.6375    0.0000 C   0  0  0  0  0  0  0  0  0  0  0  0
  2  1  2  0
  3  6  1  0
  4  1  1  0
  5  1  1  0
  6 11  1  6
  7  4  1  0
  3  8  1  1
  9  5  1  0
 10 21  1  0
 11 14  1  0
 12  2  1  0
 13  4  2  0
 14 12  1  0
 15  8  1  0
 16  8  2  0
 17 20  2  0
 18 13  1  0
 19 15  2  0
 20 16  1  0
 21  6  1  0
 22 17  1  0
 23 10  1  0
 24  3  1  0
  7  9  1  0
 12 18  2  0
 24 23  1  0
 19 17  1  0
M  END
> <chembl_id>
CHEMBL490

> <chembl_pref_name>
PAROXETINE
