
     RDKit          2D

 35 37  0  0  0  0  0  0  0  0999 V2000
    8.0230    4.2943    0.0000 C   0  0  0  0  0  0  0  0  0  0  0  0
    8.7375    3.8818    0.0000 N   0  0  0  0  0  0  0  0  0  0  0  0
    8.7375    3.0568    0.0000 C   0  0  0  0  0  0  0  0  0  0  0  0
    8.0230    2.6443    0.0000 N   0  0  0  0  0  0  0  0  0  0  0  0
    7.3085    3.0568    0.0000 C   0  0  0  0  0  0  0  0  0  0  0  0
    7.3085    3.8818    0.0000 C   0  0  0  0  0  0  0  0  0  0  0  0
    6.5239    2.8019    0.0000 N   0  0  0  0  0  0  0  0  0  0  0  0
    6.0390    3.4693    0.0000 C   0  0  0  0  0  0  0  0  0  0  0  0
    6.5239    4.1368    0.0000 N   0  0  0  0  0  0  0  0  0  0  0  0
    6.2690    2.0173    0.0000 C   0  0  0  0  0  0  0  0  0  0  0  0
    8.0230    5.1193    0.0000 N   0  0  0  0  0  0  0  0  0  0  0  0
    6.8210    1.4042    0.0000 C   0  0  0  0  0  0  0  0  0  0  0  0
    7.6280    1.5757    0.0000 C   0  0  0  0  0  0  0  0  0  0  0  0
    6.5661    0.6196    0.0000 O   0  0  0  0  0  0  0  0  0  0  0  0
    7.0760    2.1888    0.0000 H   0  0  0  0  0  0  0  0  0  0  0  0
    7.1181    0.0065    0.0000 C   0  0  0  0  0  0  0  0  0  0  0  0
    6.8632   -0.7782    0.0000 P   0  0  0  0  0  0  0  0  0  0  0  0
    6.0785   -0.5232    0.0000 O   0  0  0  0  0  0  0  0  0  0  0  0
    7.6478   -1.0331    0.0000 O   0  0  0  0  0  0  0  0  0  0  0  0
    6.6082   -1.5628    0.0000 N   0  0  0  0  0  0  0  0  0  0  0  0
    7.1603   -2.1759    0.0000 C   0  0  0  0  0  0  0  0  0  0  0  0
    6.9053   -2.9605    0.0000 C   0  0  0  0  0  0  0  0  0  0  0  0
    7.4574   -3.5736    0.0000 O   0  0  0  0  0  0  0  0  0  0  0  0
    7.9672   -2.0043    0.0000 C   0  0  0  0  0  0  0  0  0  0  0  0
    7.7123   -2.7890    0.0000 H   0  0  0  0  0  0  0  0  0  0  0  0
    5.4655   -1.0752    0.0000 C   0  0  0  0  0  0  0  0  0  0  0  0
    5.6370   -1.8822    0.0000 C   0  0  0  0  0  0  0  0  0  0  0  0
    5.0239   -2.4343    0.0000 C   0  0  0  0  0  0  0  0  0  0  0  0
    4.2393   -2.1793    0.0000 C   0  0  0  0  0  0  0  0  0  0  0  0
    4.0677   -1.3723    0.0000 C   0  0  0  0  0  0  0  0  0  0  0  0
    4.6808   -0.8203    0.0000 C   0  0  0  0  0  0  0  0  0  0  0  0
    6.0984   -3.1320    0.0000 O   0  0  0  0  0  0  0  0  0  0  0  0
    7.2024   -4.3582    0.0000 C   0  0  0  0  0  0  0  0  0  0  0  0
    7.7545   -4.9713    0.0000 C   0  0  0  0  0  0  0  0  0  0  0  0
    6.3954   -4.5297    0.0000 C   0  0  0  0  0  0  0  0  0  0  0  0
  1  2  2  0
  1  6  1  0
  1 11  1  0
  2  3  1  0
  3  4  2  0
  4  5  1  0
  5  7  1  0
  6  5  2  0
  6  9  1  0
  7  8  1  0
  7 10  1  0
  8  9  2  0
 10 12  1  0
 12 13  1  1
 12 14  1  0
 12 15  1  6
 14 16  1  0
 16 17  1  0
 17 18  1  0
 17 19  2  0
 17 20  1  1
 18 26  1  0
 20 21  1  0
 21 22  1  0
 21 24  1  1
 21 25  1  6
 22 23  1  0
 22 32  2  0
 23 33  1  0
 26 27  2  0
 26 31  1  0
 27 28  1  0
 28 29  2  0
 29 30  1  0
 30 31  2  0
 33 34  1  0
 33 35  1  0
M  END
> <chembl_id>
CHEMBL2107825

> <chembl_pref_name>
TENOFOVIR ALAFENAMIDE
