
     RDKit          2D

 39 44  0  0  0  0  0  0  0  0999 V2000
   -0.8000   -5.8792    0.0000 C   0  0  0  0  0  0  0  0  0  0  0  0
    1.7167   -5.7417    0.0000 N   0  0  0  0  0  0  0  0  0  0  0  0
    1.7125   -4.5917    0.0000 N   0  0  0  0  0  0  0  0  0  0  0  0
   -1.4500   -5.5917    0.0000 N   0  0  0  0  0  0  0  0  0  0  0  0
   -0.8750   -6.5917    0.0000 N   0  0  0  0  0  0  0  0  0  0  0  0
    1.0417   -5.5250    0.0000 C   0  0  0  0  0  0  0  0  0  0  0  0
    2.1292   -5.1625    0.0000 C   0  0  0  0  0  0  0  0  0  0  0  0
    1.0375   -4.8167    0.0000 C   0  0  0  0  0  0  0  0  0  0  0  0
   -0.1875   -5.5292    0.0000 C   0  0  0  0  0  0  0  0  0  0  0  0
   -1.5708   -6.7375    0.0000 C   0  0  0  0  0  0  0  0  0  0  0  0
   -1.9250   -6.1167    0.0000 C   0  0  0  0  0  0  0  0  0  0  0  0
    0.4250   -5.8792    0.0000 C   0  0  0  0  0  0  0  0  0  0  0  0
    4.7542   -7.5375    0.0000 C   0  0  0  0  0  0  0  0  0  0  0  0
    0.4250   -4.4625    0.0000 C   0  0  0  0  0  0  0  0  0  0  0  0
    4.1417   -7.8875    0.0000 C   0  0  0  0  0  0  0  0  0  0  0  0
    4.7625   -6.8292    0.0000 C   0  0  0  0  0  0  0  0  0  0  0  0
   -0.1875   -4.8167    0.0000 C   0  0  0  0  0  0  0  0  0  0  0  0
    1.7125   -6.4500    0.0000 C   0  0  0  0  0  0  0  0  0  0  0  0
    3.5375   -7.5292    0.0000 C   0  0  0  0  0  0  0  0  0  0  0  0
    4.1500   -6.4667    0.0000 O   0  0  0  0  0  0  0  0  0  0  0  0
    2.9167   -7.8750    0.0000 C   0  0  0  0  0  0  0  0  0  0  0  0
    3.5417   -6.8167    0.0000 C   0  0  0  0  0  0  0  0  0  0  0  0
    2.3167   -6.8042    0.0000 C   0  0  0  0  0  0  0  0  0  0  0  0
   -0.5333   -7.2042    0.0000 C   0  0  0  0  0  0  0  0  0  0  0  0
    5.3750   -6.4792    0.0000 O   0  0  0  0  0  0  0  0  0  0  0  0
    2.8292   -5.1500    0.0000 C   0  0  0  0  0  0  0  0  0  0  0  0
    2.9292   -6.4542    0.0000 C   0  0  0  0  0  0  0  0  0  0  0  0
    2.3042   -7.5167    0.0000 C   0  0  0  0  0  0  0  0  0  0  0  0
   -1.9250   -7.3417    0.0000 C   0  0  0  0  0  0  0  0  0  0  0  0
   -2.6333   -6.1250    0.0000 C   0  0  0  0  0  0  0  0  0  0  0  0
    5.3667   -7.8917    0.0000 C   0  0  0  0  0  0  0  0  0  0  0  0
    4.1292   -8.5917    0.0000 C   0  0  0  0  0  0  0  0  0  0  0  0
    0.4250   -3.7542    0.0000 C   0  0  0  0  0  0  0  0  0  0  0  0
    3.2042   -5.7542    0.0000 C   0  0  0  0  0  0  0  0  0  0  0  0
   -2.6333   -7.3417    0.0000 C   0  0  0  0  0  0  0  0  0  0  0  0
    5.3625   -8.6042    0.0000 C   0  0  0  0  0  0  0  0  0  0  0  0
    4.7417   -8.9542    0.0000 C   0  0  0  0  0  0  0  0  0  0  0  0
   -2.9833   -6.7375    0.0000 C   0  0  0  0  0  0  0  0  0  0  0  0
    3.9125   -5.7417    0.0000 C   0  0  0  0  0  0  0  0  0  0  0  0
  2  6  1  0
  3  8  1  0
  4  1  2  0
  5  1  1  0
  6 12  2  0
  7  2  1  0
  8 14  2  0
  9  1  1  0
 10  5  1  0
 11  4  1  0
 12  9  1  0
 13 15  1  0
 14 17  1  0
 15 19  1  0
 16 13  1  0
 17  9  2  0
 18  2  1  0
 19 21  2  0
 20 16  2  0
 21 28  1  0
 22 27  2  0
 23 18  1  0
 24  5  1  0
 25 16  1  0
 26  7  1  0
 27 23  1  0
 28 23  2  0
 29 10  1  0
 30 11  1  0
 31 13  2  0
 32 15  2  0
 33 14  1  0
 34 26  1  0
 35 29  2  0
 36 37  2  0
 37 32  1  0
 38 30  2  0
 39 34  1  0
 10 11  2  0
  8  6  1  0
 35 38  1  0
  3  7  2  0
 19 22  1  0
 36 31  1  0
M  END
> <chembl_id>
CHEMBL1017

> <chembl_pref_name>
TELMISARTAN
