
     RDKit          2D

 20 21  0  0  0  0  0  0  0  0999 V2000
    0.0000    3.3708    0.0000 Cl  0  0  0  0  0  0  0  0  0  0  0  0
    0.1542   -0.5042    0.0000 C   0  0  0  0  0  0  0  0  0  0  0  0
   -0.3958   -1.6917    0.0000 C   0  0  0  0  0  0  0  0  0  0  0  0
    1.4042   -0.0792    0.0000 C   0  0  0  0  0  0  0  0  0  0  0  0
    3.0250   -1.9000    0.0000 N   0  0  0  0  0  0  0  0  0  0  0  0
    2.6000   -0.6542    0.0000 C   0  0  0  0  0  0  0  0  0  0  0  0
    0.0125   -2.9375    0.0000 O   0  0  0  0  0  0  0  0  0  0  0  0
   -1.7125   -1.6125    0.0000 C   0  0  0  0  0  0  0  0  0  0  0  0
    1.2000   -3.5167    0.0000 C   0  0  0  0  0  0  0  0  0  0  0  0
    2.4417   -3.0917    0.0000 C   0  0  0  0  0  0  0  0  0  0  0  0
   -0.8125    0.3375    0.0000 C   0  0  0  0  0  0  0  0  0  0  0  0
    4.3417   -1.9875    0.0000 C   0  0  0  0  0  0  0  0  0  0  0  0
    1.6625    1.1958    0.0000 C   0  0  0  0  0  0  0  0  0  0  0  0
   -2.3000   -0.4292    0.0000 C   0  0  0  0  0  0  0  0  0  0  0  0
   -2.4375   -2.7167    0.0000 C   0  0  0  0  0  0  0  0  0  0  0  0
   -0.5583    1.6250    0.0000 C   0  0  0  0  0  0  0  0  0  0  0  0
    0.6625    2.0583    0.0000 C   0  0  0  0  0  0  0  0  0  0  0  0
   -3.6083   -0.3542    0.0000 C   0  0  0  0  0  0  0  0  0  0  0  0
   -3.7458   -2.6292    0.0000 C   0  0  0  0  0  0  0  0  0  0  0  0
   -4.3458   -1.4500    0.0000 C   0  0  0  0  0  0  0  0  0  0  0  0
  3  2  1  0
  4  2  1  0
  5  6  1  0
  6  4  1  0
  7  3  1  0
  8  3  1  0
  9  7  1  0
 10  5  1  0
 11  2  2  0
 12  5  1  0
 13  4  2  0
 14  8  2  0
 15  8  1  0
 16 11  1  0
 17 16  2  0
 18 14  1  0
 19 15  2  0
 20 18  2  0
 13 17  1  0
  9 10  1  0
 19 20  1  0
M  END
> <chembl_id>
CHEMBL1407915

> <chembl_pref_name>
NEFOPAM HYDROCHLORIDE
