
     RDKit          2D

 20 20  0  0  0  0  0  0  0  0999 V2000
    3.7750   -4.2167    0.0000 Cl  0  0  0  0  0  0  0  0  0  0  0  0
    0.9000   -3.2917    0.0000 C   0  0  0  0  0  0  0  0  0  0  0  0
    1.5167   -2.9375    0.0000 C   0  0  0  0  0  0  0  0  0  0  0  0
    1.5167   -2.2292    0.0000 O   0  0  0  0  0  0  0  0  0  0  0  0
    3.9708   -2.2292    0.0000 N   0  0  0  0  0  0  0  0  0  0  0  0
    0.9000   -4.0000    0.0000 C   0  0  0  0  0  0  0  0  0  0  0  0
    2.7458   -2.2292    0.0000 C   0  0  0  0  0  0  0  0  0  0  0  0
    2.1292   -1.8750    0.0000 C   0  0  0  0  0  0  0  0  0  0  0  0
    3.3583   -1.8750    0.0000 C   0  0  0  0  0  0  0  0  0  0  0  0
    2.7417   -2.9375    0.0000 O   0  0  0  0  0  0  0  0  0  0  0  0
    4.5833   -1.8750    0.0000 C   0  0  0  0  0  0  0  0  0  0  0  0
    2.1292   -4.0000    0.0000 C   0  0  0  0  0  0  0  0  0  0  0  0
    2.1292   -3.2917    0.0000 C   0  0  0  0  0  0  0  0  0  0  0  0
    0.2792   -2.9375    0.0000 C   0  0  0  0  0  0  0  0  0  0  0  0
    1.5167   -4.3542    0.0000 C   0  0  0  0  0  0  0  0  0  0  0  0
    0.2792   -4.3542    0.0000 C   0  0  0  0  0  0  0  0  0  0  0  0
    4.5875   -1.1667    0.0000 C   0  0  0  0  0  0  0  0  0  0  0  0
    5.2000   -2.2292    0.0000 C   0  0  0  0  0  0  0  0  0  0  0  0
   -0.3333   -3.2917    0.0000 C   0  0  0  0  0  0  0  0  0  0  0  0
   -0.3333   -4.0000    0.0000 C   0  0  0  0  0  0  0  0  0  0  0  0
  3  2  1  0
  4  3  1  0
  5  9  1  0
  6  2  2  0
  7  8  1  0
  8  4  1  0
  9  7  1  0
 10  7  1  0
 11  5  1  0
 12 15  2  0
 13  3  2  0
 14  2  1  0
 15  6  1  0
 16  6  1  0
 17 11  1  0
 18 11  1  0
 19 14  2  0
 20 16  2  0
 12 13  1  0
 19 20  1  0
M  END
> <chembl_id>
CHEMBL1671

> <chembl_pref_name>
PROPRANOLOL HYDROCHLORIDE
