
     RDKit          2D

 23 24  0  0  0  0  0  0  0  0999 V2000
    3.1167   -1.6250    0.0000 Cl  0  0  0  0  0  0  0  0  0  0  0  0
    0.6167   -0.9792    0.0000 C   0  0  0  0  0  0  0  0  0  0  0  0
    1.2375   -0.6250    0.0000 C   0  0  0  0  0  0  0  0  0  0  0  0
    2.4667   -0.6167    0.0000 N   0  0  0  0  0  0  0  0  0  0  0  0
    0.9750   -1.5917    0.0000 C   0  0  0  0  0  0  0  0  0  0  0  0
    1.8542   -0.9750    0.0000 C   0  0  0  0  0  0  0  0  0  0  0  0
    0.0042   -0.6250    0.0000 C   0  0  0  0  0  0  0  0  0  0  0  0
    0.2625   -1.5917    0.0000 O   0  0  0  0  0  0  0  0  0  0  0  0
    3.0792   -0.9750    0.0000 C   0  0  0  0  0  0  0  0  0  0  0  0
    2.4625    0.0958    0.0000 C   0  0  0  0  0  0  0  0  0  0  0  0
    0.6167   -2.2042    0.0000 C   0  0  0  0  0  0  0  0  0  0  0  0
    1.6750   -1.5917    0.0000 C   0  0  0  0  0  0  0  0  0  0  0  0
   -0.6083   -0.9792    0.0000 C   0  0  0  0  0  0  0  0  0  0  0  0
    0.0042    0.0875    0.0000 C   0  0  0  0  0  0  0  0  0  0  0  0
    3.0792    0.4458    0.0000 C   0  0  0  0  0  0  0  0  0  0  0  0
    3.6917   -0.6167    0.0000 C   0  0  0  0  0  0  0  0  0  0  0  0
    2.0292   -2.2042    0.0000 C   0  0  0  0  0  0  0  0  0  0  0  0
    0.9667   -2.8167    0.0000 C   0  0  0  0  0  0  0  0  0  0  0  0
   -1.2208   -0.6250    0.0000 C   0  0  0  0  0  0  0  0  0  0  0  0
   -0.6083    0.4458    0.0000 C   0  0  0  0  0  0  0  0  0  0  0  0
    1.6750   -2.8167    0.0000 C   0  0  0  0  0  0  0  0  0  0  0  0
    3.6917    0.0875    0.0000 C   0  0  0  0  0  0  0  0  0  0  0  0
   -1.2208    0.0875    0.0000 C   0  0  0  0  0  0  0  0  0  0  0  0
  3  2  1  0
  4  6  1  0
  5  2  1  0
  6  3  1  0
  7  2  1  0
  8  2  1  0
  9  4  1  0
 10  4  1  0
 11  5  2  0
 12  5  1  0
 13  7  1  0
 14  7  1  0
 15 10  1  0
 16  9  1  0
 17 12  2  0
 18 11  1  0
 19 13  1  0
 20 14  1  0
 21 18  2  0
 22 16  1  0
 23 19  1  0
 23 20  1  0
 21 17  1  0
 22 15  1  0
M  END
> <chembl_id>
CHEMBL1092

> <chembl_pref_name>
TRIHEXYPHENIDYL HYDROCHLORIDE
