
     RDKit          2D

 14 13  0  0  0  0  0  0  0  0999 V2000
   -2.1625   -1.8792    0.0000 Na  0  0  0  0  0 15  0  0  0  0  0  0
    0.1625   -1.2000    0.0000 C   0  0  0  0  0  0  0  0  0  0  0  0
    1.5625   -1.2000    0.0000 C   0  0  0  0  0  0  0  0  0  0  0  0
    2.0167    0.1833    0.0000 C   0  0  0  0  0  0  0  0  0  0  0  0
   -0.2708    0.1708    0.0000 C   0  0  0  0  0  0  0  0  0  0  0  0
    0.8625    1.0208    0.0000 O   0  0  0  0  0  0  0  0  0  0  0  0
   -0.6833   -2.3542    0.0000 O   0  0  0  0  0  0  0  0  0  0  0  0
   -1.6458    0.6083    0.0000 C   0  0  0  0  0  0  0  0  0  0  0  0
    3.3875    0.6250    0.0000 O   0  0  0  0  0  0  0  0  0  0  0  0
    2.4000   -2.3542    0.0000 O   0  0  0  0  0  0  0  0  0  0  0  0
   -2.7083   -0.3417    0.0000 O   0  0  0  0  0  0  0  0  0  0  0  0
   -3.3125    2.4583    0.0000 O   0  0  0  0  0  0  0  0  0  0  0  0
   -1.9458    2.0208    0.0000 C   0  0  0  0  0  0  0  0  0  0  0  0
   -0.4377    1.1568    0.0000 H   0  0  0  0  0  0  0  0  0  0  0  0
  3  2  2  0
  4  3  1  0
  5  2  1  0
  5  6  1  0
  7  2  1  0
  8  5  1  0
  9  4  2  0
 10  3  1  0
  8 11  1  1
 12 13  1  0
 13  8  1  0
  6  4  1  0
  5 14  1  6
M  CHG  2   1   1   7  -1
M  END
> <chembl_id>
CHEMBL591665

> <chembl_pref_name>
SODIUM ASCORBATE
