
     RDKit          2D

 51 53  0  0  0  0  0  0  0  0999 V2000
    1.3740   -4.6892    0.0000 O   0  0  0  0  0  0  0  0  0  0  0  0
    2.0925   -5.1030    0.0000 C   0  0  0  0  0  0  0  0  0  0  0  0
    2.8125   -4.6918    0.0000 C   0  0  0  0  0  0  0  0  0  0  0  0
    3.5310   -5.1056    0.0000 C   0  0  0  0  0  0  0  0  0  0  0  0
    4.2509   -4.6944    0.0000 C   0  0  0  0  0  0  0  0  0  0  0  0
    4.9694   -5.1081    0.0000 O   0  0  0  0  0  0  0  0  0  0  0  0
    2.0910   -5.9280    0.0000 O   0  0  0  0  0  0  0  0  0  0  0  0
    4.2509   -3.8694    0.0000 O   0  0  0  0  0  0  0  0  0  0  0  0
   -0.5379    1.1626    0.0000 C   0  0  0  0  0  0  0  0  0  0  0  0
   -0.7928    1.9472    0.0000 C   0  0  0  0  0  0  0  0  0  0  0  0
   -1.5998    2.1188    0.0000 C   0  0  0  0  0  0  0  0  0  0  0  0
   -2.1518    1.5056    0.0000 C   0  0  0  0  0  0  0  0  0  0  0  0
   -1.8969    0.7210    0.0000 C   0  0  0  0  0  0  0  0  0  0  0  0
   -1.0899    0.5495    0.0000 C   0  0  0  0  0  0  0  0  0  0  0  0
   -2.3094    0.0066    0.0000 N   0  0  0  0  0  0  0  0  0  0  0  0
   -1.0036   -0.2710    0.0000 C   0  0  0  0  0  0  0  0  0  0  0  0
   -1.7573   -0.6065    0.0000 C   0  0  0  0  0  0  0  0  0  0  0  0
    0.4253   -0.2709    0.0000 N   0  0  0  0  0  0  0  0  0  0  0  0
   -0.2892   -0.6835    0.0000 C   0  0  0  0  0  0  0  0  0  0  0  0
   -0.2892   -1.5085    0.0000 C   0  0  0  0  0  0  0  0  0  0  0  0
    0.4253   -1.9209    0.0000 C   0  0  0  0  0  0  0  0  0  0  0  0
    1.1398   -1.5084    0.0000 N   0  0  0  0  0  0  0  0  0  0  0  0
    1.1398   -0.6834    0.0000 C   0  0  0  0  0  0  0  0  0  0  0  0
    3.2832   -0.2709    0.0000 C   0  0  0  0  0  0  0  0  0  0  0  0
    2.5687   -0.6834    0.0000 C   0  0  0  0  0  0  0  0  0  0  0  0
    2.5687   -1.5084    0.0000 C   0  0  0  0  0  0  0  0  0  0  0  0
    3.2832   -1.9209    0.0000 C   0  0  0  0  0  0  0  0  0  0  0  0
    3.9977   -1.5084    0.0000 C   0  0  0  0  0  0  0  0  0  0  0  0
    3.9977   -0.6834    0.0000 C   0  0  0  0  0  0  0  0  0  0  0  0
   -3.1298   -0.0797    0.0000 C   0  0  0  0  0  0  0  0  0  0  0  0
   -1.0036   -1.9210    0.0000 C   0  0  0  0  0  0  0  0  0  0  0  0
   -1.0036   -2.7460    0.0000 O   0  0  0  0  0  0  0  0  0  0  0  0
   -1.7181   -1.5085    0.0000 O   0  0  0  0  0  0  0  0  0  0  0  0
   -2.4326   -1.9210    0.0000 C   0  0  0  0  0  0  0  0  0  0  0  0
    1.8542   -0.2709    0.0000 N   0  0  0  0  0  0  0  0  0  0  0  0
    1.8543   -1.9209    0.0000 O   0  0  0  0  0  0  0  0  0  0  0  0
    1.8543   -2.7459    0.0000 C   0  0  0  0  0  0  0  0  0  0  0  0
    4.7121   -0.2709    0.0000 N   0  0  0  0  0  0  0  0  0  0  0  0
    4.7121   -1.9209    0.0000 N   0  0  0  0  0  0  0  0  0  0  0  0
    4.7121    0.5541    0.0000 C   0  0  0  0  0  0  0  0  0  0  0  0
    5.4266    0.9666    0.0000 C   0  0  0  0  0  0  0  0  0  0  0  0
    3.9976    0.9666    0.0000 O   0  0  0  0  0  0  0  0  0  0  0  0
    5.4266    1.7916    0.0000 C   0  0  0  0  0  0  0  0  0  0  0  0
    4.7122   -2.7459    0.0000 C   0  0  0  0  0  0  0  0  0  0  0  0
    5.4266   -1.5084    0.0000 C   0  0  0  0  0  0  0  0  0  0  0  0
    6.1411   -1.9209    0.0000 C   0  0  0  0  0  0  0  0  0  0  0  0
    6.8556   -1.5084    0.0000 N   0  0  0  0  0  0  0  0  0  0  0  0
    7.5700   -1.9209    0.0000 C   0  0  0  0  0  0  0  0  0  0  0  0
    6.8555   -0.6834    0.0000 C   0  0  0  0  0  0  0  0  0  0  0  0
   -3.1470   -1.5085    0.0000 C   0  0  0  0  0  0  0  0  0  0  0  0
   -2.4326   -2.7460    0.0000 C   0  0  0  0  0  0  0  0  0  0  0  0
  1  2  1  0
  2  3  1  0
  3  4  1  0
  4  5  1  0
  5  6  1  0
  2  7  2  0
  5  8  2  0
  9 10  2  0
 10 11  1  0
 11 12  2  0
 12 13  1  0
 13 14  2  0
  9 14  1  0
 16 17  2  0
 15 17  1  0
 14 16  1  0
 15 13  1  0
 18 19  2  0
 19 20  1  0
 20 21  2  0
 21 22  1  0
 22 23  2  0
 18 23  1  0
 24 25  1  0
 25 26  2  0
 26 27  1  0
 27 28  2  0
 28 29  1  0
 24 29  2  0
 15 30  1  0
 16 19  1  0
 20 31  1  0
 31 32  2  0
 31 33  1  0
 33 34  1  0
 23 35  1  0
 35 25  1  0
 26 36  1  0
 36 37  1  0
 29 38  1  0
 28 39  1  0
 38 40  1  0
 40 41  1  0
 40 42  2  0
 41 43  2  0
 39 44  1  0
 39 45  1  0
 45 46  1  0
 46 47  1  0
 47 48  1  0
 47 49  1  0
 34 50  1  0
 34 51  1  0
M  END
> <chembl_id>
CHEMBL4802239

> <chembl_pref_name>
MOBOCERTINIB SUCCINATE
