
     RDKit          2D

 25 25  0  0  0  0  0  0  0  0999 V2000
   -1.5083   -1.3917    0.0000 C   0  0  0  0  0  0  0  0  0  0  0  0
   -2.4458    1.3875    0.0000 C   0  0  0  0  0  0  0  0  0  0  0  0
   -0.5125    0.2583    0.0000 C   0  0  0  0  0  0  0  0  0  0  0  0
   -1.5083   -0.3125    0.0000 O   0  0  0  0  0  0  0  0  0  0  0  0
   -1.4833    1.9333    0.0000 O   0  0  0  0  0  0  0  0  0  0  0  0
   -0.5125    1.3625    0.0000 C   0  0  0  0  0  0  0  0  0  0  0  0
    0.4167   -0.3125    0.0000 C   0  0  0  0  0  0  0  0  0  0  0  0
    1.4125    0.2208    0.0000 C   0  0  0  0  0  0  0  0  0  0  0  0
   -0.5708   -1.9625    0.0000 C   0  0  0  0  0  0  0  0  0  0  0  0
   -3.3833    1.9583    0.0000 C   0  0  0  0  0  0  0  0  0  0  0  0
   -2.4750   -1.9292    0.0000 O   0  0  0  0  0  0  0  0  0  0  0  0
   -2.4750    0.3083    0.0000 O   0  0  0  0  0  0  0  0  0  0  0  0
    0.4167    1.9000    0.0000 C   0  0  0  0  0  0  0  0  0  0  0  0
    1.4125    1.3625    0.0000 C   0  0  0  0  0  0  0  0  0  0  0  0
    2.3792   -0.3667    0.0000 C   0  0  0  0  0  0  0  0  0  0  0  0
    3.3792    1.2750    0.0000 N   0  0  0  0  0  0  0  0  0  0  0  0
    2.3542   -1.4792    0.0000 O   0  0  0  0  0  0  0  0  0  0  0  0
   -0.8583   -3.0167    0.0000 C   0  0  0  0  0  0  0  0  0  0  0  0
   -0.2875   -3.0167    0.0000 C   0  0  0  0  0  0  0  0  0  0  0  0
   -4.3458    1.4333    0.0000 C   0  0  0  0  0  0  0  0  0  0  0  0
   -3.6708    3.0208    0.0000 C   0  0  0  0  0  0  0  0  0  0  0  0
   -3.1000    3.0250    0.0000 C   0  0  0  0  0  0  0  0  0  0  0  0
    0.3917   -1.4292    0.0000 C   0  0  0  0  0  0  0  0  0  0  0  0
    3.3417    0.1708    0.0000 C   0  0  0  0  0  0  0  0  0  0  0  0
    4.3417    1.8125    0.0000 C   0  0  0  0  0  0  0  0  0  0  0  0
  2  5  1  0
  3  4  1  0
  4  1  1  0
  5  6  1  0
  6  3  2  0
  7  3  1  0
  8  7  2  0
  9  1  1  0
 10  2  1  0
 11  1  2  0
 12  2  2  0
 13  6  1  0
 14  8  1  0
 15  8  1  0
 16 24  1  0
 17 15  1  0
 18  9  1  0
 19  9  1  0
 20 10  1  0
 21 10  1  0
 22 10  1  0
 23  9  1  0
 24 15  1  0
 25 16  1  0
 13 14  2  0
M  END
> <chembl_id>
CHEMBL1201262

> <chembl_pref_name>
DIPIVEFRIN
