
     RDKit          2D

 16 17  0  0  0  0  0  0  0  0999 V2000
    4.3917   -4.7750    0.0000 C   0  0  0  0  0  0  0  0  0  0  0  0
    4.3917   -4.0667    0.0000 C   0  0  0  0  0  0  0  0  0  0  0  0
    3.7875   -5.1250    0.0000 N   0  0  0  0  0  0  0  0  0  0  0  0
    5.0750   -4.9875    0.0000 N   0  0  0  0  0  0  0  0  0  0  0  0
    3.1625   -4.0625    0.0000 N   0  0  0  0  0  0  0  0  0  0  0  0
    5.0667   -3.8292    0.0000 N   0  0  0  0  0  0  0  0  0  0  0  0
    3.7667   -3.7167    0.0000 C   0  0  0  0  0  0  0  0  0  0  0  0
    3.1667   -4.7750    0.0000 C   0  0  0  0  0  0  0  0  0  0  0  0
    5.4875   -4.4042    0.0000 C   0  0  0  0  0  0  0  0  0  0  0  0
    3.7667   -3.0000    0.0000 O   0  0  0  0  0  0  0  0  0  0  0  0
    5.0792   -5.6833    0.0000 C   0  0  0  0  0  0  0  0  0  0  0  0
    2.5542   -5.1292    0.0000 N   0  0  0  0  0  0  0  0  0  0  0  0
    5.6958   -6.0333    0.0000 O   0  0  0  0  0  0  0  0  0  0  0  0
    7.5458   -5.6875    0.0000 O   0  0  0  0  0  0  0  0  0  0  0  0
    6.9250   -6.0292    0.0000 C   0  0  0  0  0  0  0  0  0  0  0  0
    6.3125   -5.6833    0.0000 C   0  0  0  0  0  0  0  0  0  0  0  0
  2  1  2  0
  3  1  1  0
  4  1  1  0
  5  8  1  0
  6  2  1  0
  7  2  1  0
  8  3  2  0
  9  4  1  0
 10  7  2  0
 11  4  1  0
 12  8  1  0
 13 11  1  0
 14 15  1  0
 15 16  1  0
 16 13  1  0
  6  9  2  0
  7  5  1  0
M  END
> <chembl_id>
CHEMBL184

> <chembl_pref_name>
ACYCLOVIR
