
     RDKit          2D

 16 16  0  0  0  0  0  0  0  0999 V2000
   -1.6833    0.0083    0.0000 C   0  0  0  0  0  0  0  0  0  0  0  0
   -2.6583    0.0208    0.0000 C   0  0  0  0  0  0  0  0  0  0  0  0
   -1.1750   -0.8792    0.0000 N   0  0  0  0  0  0  0  0  0  0  0  0
   -1.1750    0.8583    0.0000 O   0  0  0  0  0  0  0  0  0  0  0  0
   -0.1583   -0.8667    0.0000 C   0  0  0  0  0  0  0  0  0  0  0  0
    1.8375   -0.8667    0.0000 C   0  0  0  0  0  0  0  0  0  0  0  0
   -3.1500    0.8708    0.0000 C   0  0  0  0  0  0  0  0  0  0  0  0
    0.3375    0.0000    0.0000 C   0  0  0  0  0  0  0  0  0  0  0  0
    0.3375   -1.7292    0.0000 C   0  0  0  0  0  0  0  0  0  0  0  0
    1.3292   -1.7292    0.0000 C   0  0  0  0  0  0  0  0  0  0  0  0
    1.3375    0.0000    0.0000 C   0  0  0  0  0  0  0  0  0  0  0  0
    2.8500   -0.8792    0.0000 O   0  0  0  0  0  0  0  0  0  0  0  0
   -4.1583    0.8708    0.0000 O   0  0  0  0  0  0  0  0  0  0  0  0
    3.3375    0.0000    0.0000 C   0  0  0  0  0  0  0  0  0  0  0  0
   -2.6583    1.7333    0.0000 C   0  0  0  0  0  0  0  0  0  0  0  0
    4.3417    0.0000    0.0000 C   0  0  0  0  0  0  0  0  0  0  0  0
  2  1  1  0
  3  1  1  0
  4  1  2  0
  5  3  1  0
  6 10  2  0
  7  2  1  0
  8  5  1  0
  9  5  2  0
 10  9  1  0
 11  8  2  0
 12  6  1  0
 13  7  1  0
 14 12  1  0
 15  7  1  0
 16 14  1  0
 11  6  1  0
M  END
> <chembl_id>
CHEMBL1697856

> <chembl_pref_name>
BUCETIN
