
     RDKit          2D

 18 19  0  0  0  0  0  0  0  0999 V2000
   16.7774   -0.3991    0.0000 C   0  0  0  0  0  0  0  0  0  0  0  0
   16.2911    0.2701    0.0000 N   0  0  0  0  0  0  0  0  0  0  0  0
   16.2869   -1.0684    0.0000 N   0  0  0  0  0  0  0  0  0  0  0  0
   17.6005   -0.3991    0.0000 N   0  0  0  0  0  0  0  0  0  0  0  0
   15.5012   -0.8149    0.0000 C   0  0  0  0  0  0  0  0  0  0  0  0
   15.5012    0.0166    0.0000 C   0  0  0  0  0  0  0  0  0  0  0  0
   18.0120    0.3160    0.0000 C   0  0  0  0  0  0  0  0  0  0  0  0
   14.7821   -1.2222    0.0000 C   0  0  0  0  0  0  0  0  0  0  0  0
   17.6005    1.0268    0.0000 O   0  0  0  0  0  0  0  0  0  0  0  0
   14.7862    0.4281    0.0000 C   0  0  0  0  0  0  0  0  0  0  0  0
   14.0754   -0.8107    0.0000 C   0  0  0  0  0  0  0  0  0  0  0  0
   18.8351    0.3160    0.0000 O   0  0  0  0  0  0  0  0  0  0  0  0
   13.3604   -1.2222    0.0000 S   0  0  0  0  0  0  0  0  0  0  0  0
   14.0754    0.0166    0.0000 C   0  0  0  0  0  0  0  0  0  0  0  0
   12.6496   -0.8065    0.0000 C   0  0  0  0  0  0  0  0  0  0  0  0
   19.2466    1.0268    0.0000 C   0  0  0  0  0  0  0  0  0  0  0  0
   11.9388   -1.2180    0.0000 C   0  0  0  0  0  0  0  0  0  0  0  0
   11.2237   -0.8065    0.0000 C   0  0  0  0  0  0  0  0  0  0  0  0
  2  1  1  0
  3  1  2  0
  4  1  1  0
  5  3  1  0
  6  2  1  0
  7  4  1  0
  8  5  2  0
  9  7  2  0
 10  6  2  0
 11  8  1  0
 12  7  1  0
 13 11  1  0
 14 10  1  0
 15 13  1  0
 16 12  1  0
 17 15  1  0
 18 17  1  0
  6  5  1  0
 14 11  2  0
M  END
> <chembl_id>
CHEMBL1483

> <chembl_pref_name>
ALBENDAZOLE
