
     RDKit          2D

 26 25  0  0  0  0  0  0  0  0999 V2000
    1.4625   -2.5792    0.0000 C   0  0  0  0  0  0  0  0  0  0  0  0
    0.8500   -2.9375    0.0000 C   0  0  0  0  0  0  0  0  0  0  0  0
    0.2375   -2.5792    0.0000 C   0  0  0  0  0  0  0  0  0  0  0  0
    2.0667   -2.9375    0.0000 C   0  0  0  0  0  0  0  0  0  0  0  0
    2.6875   -2.5792    0.0000 C   0  0  0  0  0  0  0  0  0  0  0  0
   -0.3750   -2.9375    0.0000 C   0  0  0  0  0  0  0  0  0  0  0  0
   -0.9833   -2.5792    0.0000 C   0  0  0  0  0  0  0  0  0  0  0  0
    3.3000   -2.9375    0.0000 C   0  0  0  0  0  0  0  0  0  0  0  0
    1.2042   -3.5417    0.0000 F   0  0  0  0  0  0  0  0  0  0  0  0
    1.8167   -1.9667    0.0000 F   0  0  0  0  0  0  0  0  0  0  0  0
    1.1042   -1.9667    0.0000 F   0  0  0  0  0  0  0  0  0  0  0  0
    0.4917   -3.5417    0.0000 F   0  0  0  0  0  0  0  0  0  0  0  0
    1.7167   -3.5417    0.0000 F   0  0  0  0  0  0  0  0  0  0  0  0
    2.4292   -3.5417    0.0000 F   0  0  0  0  0  0  0  0  0  0  0  0
    0.5917   -1.9667    0.0000 F   0  0  0  0  0  0  0  0  0  0  0  0
   -0.1208   -1.9667    0.0000 F   0  0  0  0  0  0  0  0  0  0  0  0
    3.0417   -1.9667    0.0000 F   0  0  0  0  0  0  0  0  0  0  0  0
    2.3292   -1.9667    0.0000 F   0  0  0  0  0  0  0  0  0  0  0  0
   -0.7333   -3.5417    0.0000 F   0  0  0  0  0  0  0  0  0  0  0  0
   -0.0208   -3.5417    0.0000 F   0  0  0  0  0  0  0  0  0  0  0  0
   -1.3375   -1.9667    0.0000 F   0  0  0  0  0  0  0  0  0  0  0  0
    2.9417   -3.5417    0.0000 F   0  0  0  0  0  0  0  0  0  0  0  0
    3.6542   -3.5417    0.0000 F   0  0  0  0  0  0  0  0  0  0  0  0
   -0.6333   -1.9667    0.0000 F   0  0  0  0  0  0  0  0  0  0  0  0
   -1.6000   -2.9375    0.0000 F   0  0  0  0  0  0  0  0  0  0  0  0
    3.9125   -2.5792    0.0000 Br  0  0  0  0  0  0  0  0  0  0  0  0
  2  1  1  0
  3  2  1  0
  4  1  1  0
  5  4  1  0
  6  3  1  0
  7  6  1  0
  8  5  1  0
  9  2  1  0
 10  1  1  0
 11  1  1  0
 12  2  1  0
 13  4  1  0
 14  4  1  0
 15  3  1  0
 16  3  1  0
 17  5  1  0
 18  5  1  0
 19  6  1  0
 20  6  1  0
 21  7  1  0
 22  8  1  0
 23  8  1  0
 24  7  1  0
 25  7  1  0
 26  8  1  0
M  END
> <chembl_id>
CHEMBL1200866

> <chembl_pref_name>
PERFLUBRON
