
     RDKit          2D

 65 71  0  0  0  0  0  0  0  0999 V2000
    2.7033    1.2199    0.0000 C   0  0  0  0  0  0  0  0  0  0  0  0
    1.9888    0.8074    0.0000 C   0  0  0  0  0  0  0  0  0  0  0  0
    1.9888   -0.0176    0.0000 C   0  0  0  0  0  0  0  0  0  0  0  0
    2.7033   -0.4301    0.0000 C   0  0  0  0  0  0  0  0  0  0  0  0
    3.4178   -0.0176    0.0000 C   0  0  0  0  0  0  0  0  0  0  0  0
    3.4178    0.8074    0.0000 C   0  0  0  0  0  0  0  0  0  0  0  0
    1.2743   -0.4301    0.0000 N   0  0  0  0  0  0  0  0  0  0  0  0
    0.5598   -0.0176    0.0000 C   0  0  0  0  0  0  0  0  0  0  0  0
    0.5598    0.8074    0.0000 C   0  0  0  0  0  0  0  0  0  0  0  0
    1.2743    1.2199    0.0000 N   0  0  0  0  0  0  0  0  0  0  0  0
    4.1323   -0.4301    0.0000 O   0  0  0  0  0  0  0  0  0  0  0  0
    4.8467   -0.0176    0.0000 C   0  0  0  0  0  0  0  0  0  0  0  0
   -0.1546    1.2199    0.0000 C   0  0  0  0  0  0  0  0  0  0  0  0
   -0.8691    0.8074    0.0000 C   0  0  0  0  0  0  0  0  0  0  0  0
   -1.5836    1.2199    0.0000 C   0  0  0  0  0  0  0  0  0  0  0  0
   -2.2980    0.8074    0.0000 C   0  0  0  0  0  0  0  0  0  0  0  0
   -3.0125    1.2199    0.0000 C   0  0  0  0  0  0  0  0  0  0  0  0
   -3.7270    0.8075    0.0000 C   0  0  0  0  0  0  0  0  0  0  0  0
   -3.7270   -0.0175    0.0000 C   0  0  0  0  0  0  0  0  0  0  0  0
   -3.0125   -0.4300    0.0000 O   0  0  0  0  0  0  0  0  0  0  0  0
   -4.4414    0.3949    0.0000 C   0  0  0  0  0  0  0  0  0  0  0  0
   -3.0125   -1.2550    0.0000 C   0  0  0  0  0  0  0  0  0  0  0  0
   -2.2980   -1.6675    0.0000 N   0  0  0  0  0  0  0  0  0  0  0  0
   -3.7270   -1.6675    0.0000 O   0  0  0  0  0  0  0  0  0  0  0  0
   -2.2980   -2.4925    0.0000 C   0  0  0  0  0  0  0  0  0  0  0  0
   -1.5836   -2.9050    0.0000 C   0  0  0  0  0  0  0  0  0  0  0  0
   -3.0125   -2.9050    0.0000 C   0  0  0  0  0  0  0  0  0  0  0  0
   -1.5836   -3.7300    0.0000 O   0  0  0  0  0  0  0  0  0  0  0  0
   -0.8691   -2.4925    0.0000 N   0  0  0  0  0  0  0  0  0  0  0  0
   -0.1154   -2.8281    0.0000 C   0  0  0  0  0  0  0  0  0  0  0  0
    0.4366   -2.2150    0.0000 C   0  0  0  0  0  0  0  0  0  0  0  0
    0.0241   -1.5006    0.0000 C   0  0  0  0  0  0  0  0  0  0  0  0
   -0.7828   -1.6721    0.0000 C   0  0  0  0  0  0  0  0  0  0  0  0
    0.0241   -0.6756    0.0000 O   0  0  0  0  0  0  0  0  0  0  0  0
    1.2571   -2.3013    0.0000 C   0  0  0  0  0  0  0  0  0  0  0  0
    1.7420   -1.6338    0.0000 C   0  0  0  0  0  0  0  0  0  0  0  0
    0.0561   -3.6351    0.0000 C   0  0  0  0  0  0  0  0  0  0  0  0
    0.8407   -3.8900    0.0000 N   0  0  0  0  0  0  0  0  0  0  0  0
   -0.5570   -4.1871    0.0000 O   0  0  0  0  0  0  0  0  0  0  0  0
    1.0123   -4.6970    0.0000 C   0  0  0  0  0  0  0  0  0  0  0  0
    1.7969   -4.9519    0.0000 C   0  0  0  0  0  0  0  0  0  0  0  0
    0.1873   -4.6970    0.0000 C   0  0  0  0  0  0  0  0  0  0  0  0
    0.5998   -5.4114    0.0000 C   0  0  0  0  0  0  0  0  0  0  0  0
    0.5997   -6.2364    0.0000 C   0  0  0  0  0  0  0  0  0  0  0  0
    1.3142   -6.6489    0.0000 C   0  0  0  0  0  0  0  0  0  0  0  0
   -0.1147   -6.6489    0.0000 C   0  0  0  0  0  0  0  0  0  0  0  0
    1.9684   -5.7589    0.0000 O   0  0  0  0  0  0  0  0  0  0  0  0
    2.4100   -4.3998    0.0000 N   0  0  0  0  0  0  0  0  0  0  0  0
    3.1946   -4.6548    0.0000 S   0  0  0  0  0  0  0  0  0  0  0  0
    3.8077   -4.1027    0.0000 C   0  0  0  0  0  0  0  0  0  0  0  0
    3.8077   -3.2777    0.0000 C   0  0  0  0  0  0  0  0  0  0  0  0
    4.6327   -4.1027    0.0000 C   0  0  0  0  0  0  0  0  0  0  0  0
    4.2202   -4.8172    0.0000 C   0  0  0  0  0  0  0  0  0  0  0  0
    2.9811   -5.4517    0.0000 O   0  0  0  0  0  0  0  0  0  0  0  0
    3.7780   -5.2381    0.0000 O   0  0  0  0  0  0  0  0  0  0  0  0
   -0.5671    1.9344    0.0000 F   0  0  0  0  0  0  0  0  0  0  0  0
    0.2579    1.9344    0.0000 F   0  0  0  0  0  0  0  0  0  0  0  0
   -4.1395    1.5219    0.0000 H   0  0  0  0  0  0  0  0  0  0  0  0
   -4.1395   -0.7320    0.0000 H   0  0  0  0  0  0  0  0  0  0  0  0
   -3.0125   -3.7300    0.0000 C   0  0  0  0  0  0  0  0  0  0  0  0
   -3.7270   -2.4925    0.0000 C   0  0  0  0  0  0  0  0  0  0  0  0
   -3.7270   -3.3175    0.0000 C   0  0  0  0  0  0  0  0  0  0  0  0
   -3.0125   -2.0800    0.0000 H   0  0  0  0  0  0  0  0  0  0  0  0
    0.8210   -1.2870    0.0000 H   0  0  0  0  0  0  0  0  0  0  0  0
    1.3966   -5.6250    0.0000 H   0  0  0  0  0  0  0  0  0  0  0  0
  1  2  2  0
  1  6  1  0
  3  4  2  0
  4  5  1  0
  5  6  2  0
  2 10  1  0
  2  3  1  0
  3  7  1  0
  7  8  2  0
  8  9  1  0
  9 10  2  0
  5 11  1  0
 11 12  1  0
  9 13  1  0
 13 14  1  0
 14 15  1  0
 15 16  1  0
 16 17  1  0
 18 17  1  1
 19 20  1  0
 21 18  1  0
 18 19  1  0
 19 21  1  0
 20 22  1  0
 22 23  1  0
 22 24  2  0
 23 25  1  0
 25 26  1  0
 25 27  1  0
 26 28  2  0
 26 29  1  0
 29 30  1  0
 29 33  1  0
 30 31  1  0
 31 32  1  0
 32 33  1  0
 32 34  1  0
 34  8  1  0
 31 35  1  1
 35 36  1  0
 30 37  1  1
 37 38  1  0
 37 39  2  0
 40 38  1  1
 40 41  1  0
 40 42  1  0
 43 40  1  0
 42 43  1  0
 43 44  1  0
 44 45  1  0
 44 46  1  0
 41 47  2  0
 41 48  1  0
 48 49  1  0
 49 50  1  0
 50 51  1  0
 52 50  1  0
 50 53  1  0
 53 52  1  0
 49 54  2  0
 49 55  2  0
 13 56  1  0
 13 57  1  0
 18 58  1  0
 19 59  1  1
 27 60  1  0
 27 61  1  0
 27 62  1  0
 25 63  1  1
 32 64  1  1
 43 65  1  1
M  END
> <chembl_id>
CHEMBL3707372

> <chembl_pref_name>
VOXILAPREVIR
