
     RDKit          2D

 15 15  0  0  0  0  0  0  0  0999 V2000
   -0.7607   -1.9305    0.0000 C   0  0  0  0  0  0  0  0  0  0  0  0
   -0.0462    1.7820    0.0000 C   0  0  0  0  0  0  0  0  0  0  0  0
    0.6683    2.1945    0.0000 C   0  0  0  0  0  0  0  0  0  0  0  0
    0.6683    3.0195    0.0000 C   0  0  0  0  0  0  0  0  0  0  0  0
    1.3827    1.7820    0.0000 C   0  0  0  0  0  0  0  0  0  0  0  0
   -0.0462   -1.5180    0.0000 C   0  0  0  0  0  0  0  0  0  0  0  0
    0.6683   -1.9305    0.0000 C   0  0  0  0  0  0  0  0  0  0  0  0
   -0.0462   -0.6930    0.0000 C   0  0  0  0  0  0  0  0  0  0  0  0
   -0.7607   -0.2805    0.0000 C   0  0  0  0  0  0  0  0  0  0  0  0
   -0.7607    0.5445    0.0000 C   0  0  0  0  0  0  0  0  0  0  0  0
   -0.0462    0.9570    0.0000 C   0  0  0  0  0  0  0  0  0  0  0  0
    0.6683    0.5445    0.0000 C   0  0  0  0  0  0  0  0  0  0  0  0
    0.6683   -0.2805    0.0000 C   0  0  0  0  0  0  0  0  0  0  0  0
   -0.7607   -2.7555    0.0000 O   0  0  0  0  0  0  0  0  0  0  0  0
   -1.4751   -1.5180    0.0000 O   0  0  0  0  0  0  0  0  0  0  0  0
  1  6  1  0
  1 14  1  0
  1 15  2  0
  2  3  1  0
 11  2  1  0
  3  4  1  0
  3  5  1  0
  6  7  1  6
  6  8  1  0
  8  9  2  0
 13  8  1  0
 10  9  1  0
 10 11  2  0
 11 12  1  0
 12 13  2  0
M  END
> <chembl_id>
CHEMBL175

> <chembl_pref_name>
DEXIBUPROFEN
