
     RDKit          2D

  9  9  0  0  0  0  0  0  0  0999 V2000
    0.0292   -0.5750    0.0000 C   0  0  0  0  0  0  0  0  0  0  0  0
   -1.1958    0.1208    0.0000 C   0  0  0  0  0  0  0  0  0  0  0  0
    1.2750    0.1208    0.0000 C   0  0  0  0  0  0  0  0  0  0  0  0
    0.0292   -2.0167    0.0000 O   0  0  0  0  0  0  0  0  0  0  0  0
   -2.4500   -0.5750    0.0000 O   0  0  0  0  0  0  0  0  0  0  0  0
    2.5250   -0.5750    0.0000 O   0  0  0  0  0  0  0  0  0  0  0  0
    0.0292    2.2875    0.0000 C   0  0  0  0  0  0  0  0  0  0  0  0
   -1.1958    1.5625    0.0000 C   0  0  0  0  0  0  0  0  0  0  0  0
    1.2750    1.5625    0.0000 C   0  0  0  0  0  0  0  0  0  0  0  0
  2  1  2  0
  3  1  1  0
  4  1  1  0
  5  2  1  0
  6  3  1  0
  7  9  1  0
  8  2  1  0
  9  3  2  0
  8  7  2  0
M  END
> <chembl_id>
CHEMBL307145

> <chembl_pref_name>
PYROGALLOL
