
     RDKit          2D

 24 27  0  0  0  0  0  0  0  0999 V2000
    2.1792   -0.9000    0.0000 C   0  0  0  0  0  0  0  0  0  0  0  0
    1.2625    0.6625    0.0000 N   0  0  0  0  0  0  0  0  0  0  0  0
    0.3542   -0.9000    0.0000 C   0  0  0  0  0  0  0  0  0  0  0  0
    0.3542    0.1458    0.0000 C   0  0  0  0  0  0  0  0  0  0  0  0
    1.2625   -1.4167    0.0000 C   0  0  0  0  0  0  0  0  0  0  0  0
    2.1792    0.1458    0.0000 C   0  0  0  0  0  0  0  0  0  0  0  0
   -0.5583    0.6625    0.0000 C   0  0  0  0  0  0  0  0  0  0  0  0
   -1.4708    0.1458    0.0000 C   0  0  0  0  0  0  0  0  0  0  0  0
    1.2625    1.7208    0.0000 C   0  0  0  0  0  0  0  0  0  0  0  0
   -0.5583   -1.4167    0.0000 C   0  0  0  0  0  0  0  0  0  0  0  0
    3.1167   -1.3917    0.0000 C   0  0  0  0  0  0  0  0  0  0  0  0
   -1.4708   -0.9000    0.0000 C   0  0  0  0  0  0  0  0  0  0  0  0
   -2.3833    0.6625    0.0000 N   0  0  0  0  0  0  0  0  0  0  0  0
    2.0167    2.7083    0.0000 C   0  0  0  0  0  0  0  0  0  0  0  0
    0.7000    2.7083    0.0000 C   0  0  0  0  0  0  0  0  0  0  0  0
    1.2625   -2.5000    0.0000 O   0  0  0  0  0  0  0  0  0  0  0  0
   -4.2083    1.7083    0.0000 N   0  0  0  0  0  0  0  0  0  0  0  0
    3.1375   -2.4792    0.0000 O   0  0  0  0  0  0  0  0  0  0  0  0
   -2.4125   -1.3917    0.0000 F   0  0  0  0  0  0  0  0  0  0  0  0
    4.2625   -0.7000    0.0000 O   0  0  0  0  0  0  0  0  0  0  0  0
   -3.2958    0.1083    0.0000 C   0  0  0  0  0  0  0  0  0  0  0  0
   -2.3833    1.7083    0.0000 C   0  0  0  0  0  0  0  0  0  0  0  0
   -4.2083    0.6333    0.0000 C   0  0  0  0  0  0  0  0  0  0  0  0
   -3.2958    2.2250    0.0000 C   0  0  0  0  0  0  0  0  0  0  0  0
  2  6  1  0
  3  5  1  0
  4  2  1  0
  5  1  1  0
  6  1  2  0
  7  4  1  0
  8  7  2  0
  9  2  1  0
 10  3  1  0
 11  1  1  0
 12 10  2  0
 13  8  1  0
 14  9  1  0
 15  9  1  0
 16  5  2  0
 17 24  1  0
 18 11  2  0
 19 12  1  0
 20 11  1  0
 21 13  1  0
 22 13  1  0
 23 21  1  0
 24 22  1  0
  3  4  2  0
 14 15  1  0
 12  8  1  0
 23 17  1  0
M  END
> <chembl_id>
CHEMBL8

> <chembl_pref_name>
CIPROFLOXACIN
