
     RDKit          2D

  2  1  0  0  0  0  0  0  0  0999 V2000
    1.0000    0.0000    0.0000 N   0  0  0  0  0  2  0  0  0  0  0  0
    0.0000    0.0000    0.0000 O   0  0  0  0  0  0  0  0  0  0  0  0
  1  2  2  0
M  RAD  1   1   2
M  END
> <chembl_id>
CHEMBL1200689

> <chembl_pref_name>
NITRIC OXIDE
