
     RDKit          2D

 44 44  0  0  0  0  0  0  0  0999 V2000
   -4.4208   -1.1250    0.0000 Na  0  0  0  0  0 15  0  0  0  0  0  0
    3.2333   -0.1125    0.0000 C   0  0  0  0  0  0  0  0  0  0  0  0
    2.6333   -1.1917    0.0000 C   0  0  0  0  0  0  0  0  0  0  0  0
   -2.3000   -1.1792    0.0000 C   0  0  0  0  0  0  0  0  0  0  0  0
   -1.6667   -0.1083    0.0000 C   0  0  0  0  0  0  0  0  0  0  0  0
    3.8667   -1.2000    0.0000 C   0  0  0  0  0  0  0  0  0  0  0  0
   -1.0500   -1.1792    0.0000 C   0  0  0  0  0  0  0  0  0  0  0  0
    3.8667   -0.4708    0.0000 C   0  0  0  0  0  0  0  0  0  0  0  0
    2.6333   -0.4708    0.0000 C   0  0  0  0  0  0  0  0  0  0  0  0
   -1.0500   -0.4625    0.0000 C   0  0  0  0  0  0  0  0  0  0  0  0
   -1.6667   -1.5208    0.0000 C   0  0  0  0  0  0  0  0  0  0  0  0
    3.2333   -1.5333    0.0000 C   0  0  0  0  0  0  0  0  0  0  0  0
   -2.3000   -0.4417    0.0000 C   0  0  0  0  0  0  0  0  0  0  0  0
    3.2500    0.5667    0.0000 N   0  0  0  0  0  0  0  0  0  0  0  0
    2.0125   -1.5333    0.0000 C   0  0  0  0  0  0  0  0  0  0  0  0
   -2.9250   -1.5208    0.0000 C   0  0  0  0  0  0  0  0  0  0  0  0
    4.4792   -1.5708    0.0000 C   0  0  0  0  0  0  0  0  0  0  0  0
   -1.6583    0.6167    0.0000 C   0  0  0  0  0  0  0  0  0  0  0  0
   -0.4417   -1.5208    0.0000 N   0  0  0  0  0  0  0  0  0  0  0  0
    2.6417    0.9333    0.0000 C   0  0  0  0  0  0  0  0  0  0  0  0
    0.1917   -1.1792    0.0000 C   0  0  0  0  0  0  0  0  0  0  0  0
    1.3750   -1.1917    0.0000 N   0  0  0  0  0  0  0  0  0  0  0  0
   -3.5333   -1.1542    0.0000 O   0  0  0  0  0  0  0  0  0  0  0  0
    2.0125   -2.2583    0.0000 O   0  0  0  0  0  0  0  0  0  0  0  0
   -2.9250   -2.2125    0.0000 O   0  0  0  0  0  0  0  0  0  0  0  0
    4.4792   -2.2625    0.0000 O   0  0  0  0  0  0  0  0  0  0  0  0
   -2.2708    0.9792    0.0000 O   0  0  0  0  0  0  0  0  0  0  0  0
    2.6417    1.6375    0.0000 O   0  0  0  0  0  0  0  0  0  0  0  0
    4.4917   -0.1292    0.0000 I   0  0  0  0  0  0  0  0  0  0  0  0
   -0.4333   -0.1125    0.0000 I   0  0  0  0  0  0  0  0  0  0  0  0
   -2.9083   -0.0833    0.0000 I   0  0  0  0  0  0  0  0  0  0  0  0
    3.2333   -2.2625    0.0000 I   0  0  0  0  0  0  0  0  0  0  0  0
   -1.6833   -2.2125    0.0000 I   0  0  0  0  0  0  0  0  0  0  0  0
    2.0292   -0.1125    0.0000 I   0  0  0  0  0  0  0  0  0  0  0  0
    0.1917   -0.4625    0.0000 O   0  0  0  0  0  0  0  0  0  0  0  0
    5.1125   -1.2000    0.0000 N   0  0  0  0  0  0  0  0  0  0  0  0
   -1.0542    0.9667    0.0000 N   0  0  0  0  0  0  0  0  0  0  0  0
    0.8000   -1.5333    0.0000 C   0  0  0  0  0  0  0  0  0  0  0  0
    3.8667    0.9333    0.0000 C   0  0  0  0  0  0  0  0  0  0  0  0
    2.0292    0.5917    0.0000 C   0  0  0  0  0  0  0  0  0  0  0  0
    0.7792    0.5958    0.0000 O   0  0  0  0  0  0  0  0  0  0  0  0
   -0.4208    0.6083    0.0000 C   0  0  0  0  0  0  0  0  0  0  0  0
    5.7167   -1.5708    0.0000 C   0  0  0  0  0  0  0  0  0  0  0  0
    0.1708    0.9583    0.0000 C   0  0  0  0  0  0  0  0  0  0  0  0
  3  9  1  0
  4 11  2  0
  5 10  1  0
  6  8  2  0
  7 19  1  0
  8  2  1  0
  9  2  2  0
 10  7  2  0
 11  7  1  0
 12  6  1  0
 13  4  1  0
 14  2  1  0
 15  3  1  0
 16  4  1  0
 17  6  1  0
 18  5  1  0
 19 21  1  0
 20 14  1  0
 21 38  1  0
 22 15  1  0
 23 16  1  0
 24 15  2  0
 25 16  2  0
 26 17  2  0
 27 18  2  0
 28 20  2  0
 29  8  1  0
 30 10  1  0
 31 13  1  0
 32 12  1  0
 33 11  1  0
 34  9  1  0
 35 21  2  0
 36 17  1  0
 37 18  1  0
 38 22  1  0
 39 14  1  0
 40 20  1  0
 41 44  1  0
 42 37  1  0
 43 36  1  0
 44 42  1  0
 12  3  2  0
 13  5  2  0
M  CHG  2   1   1  23  -1
M  END
> <chembl_id>
CHEMBL1200743

> <chembl_pref_name>
IOXAGLATE SODIUM
