
     RDKit          2D

 30 33  0  0  1  0  0  0  0  0999 V2000
    4.5333   -3.1000    0.0000 C   0  0  0  0  0  0  0  0  0  0  0  0
    4.5250   -3.8042    0.0000 C   0  0  0  0  0  0  0  0  0  0  0  0
    2.6875   -4.1500    0.0000 C   0  0  0  0  0  0  0  0  0  0  0  0
    5.2083   -2.8875    0.0000 C   0  0  0  0  0  0  0  0  0  0  0  0
    3.9125   -4.1542    0.0000 C   0  0  0  0  0  0  0  0  0  0  0  0
    3.3000   -3.7958    0.0000 C   0  0  0  0  0  0  0  0  0  0  0  0
    3.3042   -3.0875    0.0000 C   0  0  0  0  0  0  0  0  0  0  0  0
    2.6875   -4.8542    0.0000 C   0  0  0  0  0  0  0  0  0  0  0  0
    3.9208   -2.7375    0.0000 C   0  0  0  0  0  0  0  0  0  0  0  0
    5.6167   -3.4625    0.0000 C   0  0  0  0  0  0  0  0  0  0  0  0
    2.0750   -3.7917    0.0000 C   0  0  0  0  0  0  0  0  0  0  0  0
    5.1958   -4.0333    0.0000 C   0  0  0  0  0  0  0  0  0  0  0  0
    2.0750   -5.2125    0.0000 C   0  0  0  0  0  0  0  0  0  0  0  0
    5.2042   -2.1792    0.0000 C   0  0  0  0  0  0  0  0  0  0  0  0
    3.9083   -4.8625    0.0000 C   0  0  0  0  0  0  0  0  0  0  0  0
    1.4667   -4.1500    0.0000 C   0  0  0  0  0  0  0  0  0  0  0  0
    1.4667   -4.8542    0.0000 C   0  0  0  0  0  0  0  0  0  0  0  0
    3.2958   -5.2125    0.0000 C   0  0  0  0  0  0  0  0  0  0  0  0
    2.6917   -2.7292    0.0000 O   0  0  0  0  0  0  0  0  0  0  0  0
    4.5875   -1.8292    0.0000 O   0  0  0  0  0  0  0  0  0  0  0  0
    0.8500   -5.2083    0.0000 O   0  0  0  0  0  0  0  0  0  0  0  0
    5.8167   -2.5292    0.0000 O   0  0  0  0  0  0  0  0  0  0  0  0
    4.5292   -2.3917    0.0000 C   0  0  0  0  0  0  0  0  0  0  0  0
    2.6792   -3.4417    0.0000 C   0  0  0  0  0  0  0  0  0  0  0  0
    6.3250   -3.4708    0.0000 C   0  0  0  0  0  0  0  0  0  0  0  0
    5.8125   -1.8167    0.0000 C   0  0  0  0  0  0  0  0  0  0  0  0
    6.4292   -2.1667    0.0000 O   0  0  0  0  0  0  0  0  0  0  0  0
    3.2917   -4.5042    0.0000 H   0  0  0  0  0  0  0  0  0  0  0  0
    4.5167   -4.5083    0.0000 H   0  0  0  0  0  0  0  0  0  0  0  0
    3.9042   -3.4417    0.0000 H   0  0  0  0  0  0  0  0  0  0  0  0
  2  1  1  0
  3  6  1  0
  4  1  1  0
  5  2  1  0
  6  5  1  0
  7  9  1  0
  8  3  1  0
  9  1  1  0
 10  4  1  0
 11  3  1  0
 12  2  1  0
 13  8  2  0
 14  4  1  0
 15  5  1  0
 16 11  2  0
 17 13  1  0
 18 15  1  0
 19  7  2  0
 20 14  2  0
 21 17  2  0
  4 22  1  6
  1 23  1  1
  3 24  1  1
 10 25  1  1
 26 14  1  0
 27 26  1  0
  6 28  1  6
  2 29  1  6
  5 30  1  1
 10 12  1  0
  7  6  1  0
 18  8  1  0
 17 16  1  0
M  END
> <chembl_id>
CHEMBL1201148

> <chembl_pref_name>
MEPREDNISONE
