
     RDKit          2D

 27 31  0  0  1  0  0  0  0  0999 V2000
    0.2667    0.0375    0.0000 N   0  0  0  0  0  0  0  0  0  0  0  0
   -0.3583    1.1875    0.0000 C   0  0  0  0  0  0  0  0  0  0  0  0
   -0.3833   -1.0792    0.0000 C   0  0  0  0  0  0  0  0  0  0  0  0
    0.2542   -2.2292    0.0000 C   0  0  0  0  0  0  0  0  0  0  0  0
    1.7167   -0.3375    0.0000 C   0  0  0  0  0  0  0  0  0  0  0  0
   -2.3458    0.0500    0.0000 C   0  0  0  0  0  0  0  0  0  0  0  0
   -1.7000   -1.0750    0.0000 C   0  0  0  0  0  0  0  0  0  0  0  0
    1.7167   -1.8417    0.0000 C   0  0  0  0  0  0  0  0  0  0  0  0
   -1.6833    1.1958    0.0000 C   0  0  0  0  0  0  0  0  0  0  0  0
    0.8542    1.6333    0.0000 C   0  0  0  0  0  0  0  0  0  0  0  0
   -2.3708   -2.2167    0.0000 N   0  0  0  0  0  0  0  0  0  0  0  0
   -0.3958   -3.3625    0.0000 C   0  0  0  0  0  0  0  0  0  0  0  0
   -1.7083   -3.3542    0.0000 C   0  0  0  0  0  0  0  0  0  0  0  0
   -0.5958    2.4958    0.0000 O   0  0  0  0  0  0  0  0  0  0  0  0
    1.8667    0.7708    0.0000 O   0  0  0  0  0  0  0  0  0  0  0  0
   -3.6750    0.0708    0.0000 C   0  0  0  0  0  0  0  0  0  0  0  0
   -3.0000    1.2083    0.0000 C   0  0  0  0  0  0  0  0  0  0  0  0
    1.1000    2.9333    0.0000 O   0  0  0  0  0  0  0  0  0  0  0  0
    3.0375    0.3875    0.0000 C   0  0  0  0  0  0  0  0  0  0  0  0
   -3.6833   -2.2125    0.0000 C   0  0  0  0  0  0  0  0  0  0  0  0
    3.0167   -2.6167    0.0000 C   0  0  0  0  0  0  0  0  0  0  0  0
   -4.3458   -1.0542    0.0000 C   0  0  0  0  0  0  0  0  0  0  0  0
    2.3375    3.3708    0.0000 C   0  0  0  0  0  0  0  0  0  0  0  0
   -4.3333    1.2083    0.0000 C   0  0  0  0  0  0  0  0  0  0  0  0
    4.3417   -0.3542    0.0000 C   0  0  0  0  0  0  0  0  0  0  0  0
    4.3292   -1.8667    0.0000 C   0  0  0  0  0  0  0  0  0  0  0  0
   -0.9250   -2.2000    0.0000 H   0  0  0  0  0  0  0  0  0  0  0  0
  2  1  1  0
  3  1  1  0
  4  3  2  0
  5  1  1  0
  6  7  1  0
  7  3  1  0
  8  5  1  0
  9  2  1  0
  2 10  1  6
 11  7  1  0
 12  4  1  0
 13 11  1  0
  2 14  1  1
 15 10  2  0
 16  6  1  0
  6 17  1  6
 18 10  1  0
 19  5  2  0
 20 11  1  0
 21  8  2  0
 22 20  1  0
 23 18  1  0
 24 17  1  0
 25 19  1  0
 26 25  2  0
  7 27  1  6
  4  8  1  0
  9  6  1  0
 21 26  1  0
 12 13  1  0
 22 16  1  0
M  END
> <chembl_id>
CHEMBL1165342

> <chembl_pref_name>
VINCAMINE
