
     RDKit          2D

 21 22  0  0  1  0  0  0  0  0999 V2000
   -2.7000   -5.5208    0.0000 C   0  0  0  0  0  0  0  0  0  0  0  0
   -2.0875   -5.8750    0.0000 C   0  0  0  0  0  0  0  0  0  0  0  0
   -1.4750   -5.5167    0.0000 O   0  0  0  0  0  0  0  0  0  0  0  0
    0.9792   -5.5083    0.0000 N   0  0  0  0  0  0  0  0  0  0  0  0
    1.5917   -5.8625    0.0000 C   0  0  0  0  0  0  0  0  0  0  0  0
   -2.7000   -4.8083    0.0000 C   0  0  0  0  0  0  0  0  0  0  0  0
   -0.2500   -5.5125    0.0000 C   0  0  0  0  0  0  0  0  0  0  0  0
   -0.8625   -5.8708    0.0000 C   0  0  0  0  0  0  0  0  0  0  0  0
    0.3667   -5.8667    0.0000 C   0  0  0  0  0  0  0  0  0  0  0  0
   -0.2500   -4.8042    0.0000 O   0  0  0  0  0  0  0  0  0  0  0  0
   -3.3125   -5.8750    0.0000 C   0  0  0  0  0  0  0  0  0  0  0  0
   -2.0875   -6.5875    0.0000 C   0  0  0  0  0  0  0  0  0  0  0  0
    2.2042   -5.5042    0.0000 C   0  0  0  0  0  0  0  0  0  0  0  0
    1.9417   -6.4750    0.0000 C   0  0  0  0  0  0  0  0  0  0  0  0
    1.2292   -6.4750    0.0000 C   0  0  0  0  0  0  0  0  0  0  0  0
   -3.2750   -4.3958    0.0000 C   0  0  0  0  0  0  0  0  0  0  0  0
   -2.1292   -4.3917    0.0000 C   0  0  0  0  0  0  0  0  0  0  0  0
   -3.3125   -6.5875    0.0000 C   0  0  0  0  0  0  0  0  0  0  0  0
   -2.7000   -6.9417    0.0000 C   0  0  0  0  0  0  0  0  0  0  0  0
   -2.3500   -3.7167    0.0000 C   0  0  0  0  0  0  0  0  0  0  0  0
   -3.0583   -3.7208    0.0000 C   0  0  0  0  0  0  0  0  0  0  0  0
  2  1  2  0
  3  2  1  0
  4  9  1  0
  5  4  1  0
  6  1  1  0
  7  8  1  0
  8  3  1  0
  9  7  1  0
  7 10  1  1
 11  1  1  0
 12  2  1  0
 13  5  1  0
 14  5  1  0
 15  5  1  0
 16  6  1  0
 17  6  1  0
 18 11  2  0
 19 12  2  0
 20 17  1  0
 21 16  1  0
 19 18  1  0
 21 20  1  0
M  END
> <chembl_id>
CHEMBL1290

> <chembl_pref_name>
PENBUTOLOL
