
     RDKit          2D

 25 26  0  0  0  0  0  0  0  0999 V2000
    6.0292  -19.0042    0.0000 N   0  0  0  0  0  0  0  0  0  0  0  0
    6.0292  -18.3167    0.0000 C   0  0  0  0  0  0  0  0  0  0  0  0
    6.6125  -19.4292    0.0000 C   0  0  0  0  0  0  0  0  0  0  0  0
    4.7792  -18.3167    0.0000 N   0  0  0  0  0  0  0  0  0  0  0  0
    5.3917  -17.9542    0.0000 C   0  0  0  0  0  0  0  0  0  0  0  0
    7.1917  -19.0542    0.0000 C   0  0  0  0  0  0  0  0  0  0  0  0
    4.1500  -17.2292    0.0000 C   0  0  0  0  0  0  0  0  0  0  0  0
    4.1500  -17.9542    0.0000 C   0  0  0  0  0  0  0  0  0  0  0  0
    6.6417  -17.9667    0.0000 O   0  0  0  0  0  0  0  0  0  0  0  0
    7.1917  -18.4292    0.0000 O   0  0  0  0  0  0  0  0  0  0  0  0
    3.5375  -16.9125    0.0000 O   0  0  0  0  0  0  0  0  0  0  0  0
    3.5250  -18.3167    0.0000 C   0  0  0  0  0  0  0  0  0  0  0  0
    5.4292  -19.4292    0.0000 C   0  0  0  0  0  0  0  0  0  0  0  0
    7.7875  -19.3542    0.0000 O   0  0  0  0  0  0  0  0  0  0  0  0
    4.6917  -16.9417    0.0000 O   0  0  0  0  0  0  0  0  0  0  0  0
    2.9000  -17.9542    0.0000 C   0  0  0  0  0  0  0  0  0  0  0  0
    6.3917  -20.1167    0.0000 C   0  0  0  0  0  0  0  0  0  0  0  0
    2.2792  -18.3167    0.0000 C   0  0  0  0  0  0  0  0  0  0  0  0
    5.6542  -20.1167    0.0000 C   0  0  0  0  0  0  0  0  0  0  0  0
    5.3917  -17.2250    0.0000 C   0  0  0  0  0  0  0  0  0  0  0  0
    2.2792  -19.0417    0.0000 C   0  0  0  0  0  0  0  0  0  0  0  0
    1.6500  -17.9417    0.0000 C   0  0  0  0  0  0  0  0  0  0  0  0
    1.6500  -19.3917    0.0000 C   0  0  0  0  0  0  0  0  0  0  0  0
    1.0292  -18.3167    0.0000 C   0  0  0  0  0  0  0  0  0  0  0  0
    1.0292  -19.0417    0.0000 C   0  0  0  0  0  0  0  0  0  0  0  0
  2  1  1  0
  3  1  1  0
  4  5  1  0
  5  2  1  0
  3  6  1  6
  8  7  1  1
  8  4  1  0
  9  2  2  0
 10  6  2  0
 11  7  2  0
 12  8  1  0
 13  1  1  0
 14  6  1  0
 15  7  1  0
 16 12  1  0
 17  3  1  0
 18 16  1  0
 19 13  1  0
  5 20  1  1
 21 18  2  0
 22 18  1  0
 23 21  1  0
 24 22  2  0
 25 23  2  0
 17 19  1  0
 24 25  1  0
M  END
> <chembl_id>
CHEMBL577

> <chembl_pref_name>
ENALAPRILAT ANHYDROUS
