
     RDKit          2D

 34 37  0  0  1  0  0  0  0  0999 V2000
    3.4917   -6.7500    0.0000 C   0  0  0  0  0  0  0  0  0  0  0  0
    5.3417   -5.7000    0.0000 C   0  0  0  0  0  0  0  0  0  0  0  0
    3.4917   -7.4542    0.0000 C   0  0  0  0  0  0  0  0  0  0  0  0
    5.3292   -6.4042    0.0000 C   0  0  0  0  0  0  0  0  0  0  0  0
    6.0167   -5.4875    0.0000 C   0  0  0  0  0  0  0  0  0  0  0  0
    4.7167   -6.7542    0.0000 C   0  0  0  0  0  0  0  0  0  0  0  0
    4.1042   -6.3917    0.0000 C   0  0  0  0  0  0  0  0  0  0  0  0
    2.8792   -6.3917    0.0000 C   0  0  0  0  0  0  0  0  0  0  0  0
    4.7292   -5.3375    0.0000 C   0  0  0  0  0  0  0  0  0  0  0  0
    4.1125   -5.6875    0.0000 C   0  0  0  0  0  0  0  0  0  0  0  0
    6.4250   -6.0625    0.0000 C   0  0  0  0  0  0  0  0  0  0  0  0
    6.0042   -6.6292    0.0000 C   0  0  0  0  0  0  0  0  0  0  0  0
    4.7167   -7.4625    0.0000 C   0  0  0  0  0  0  0  0  0  0  0  0
    4.1042   -7.8125    0.0000 C   0  0  0  0  0  0  0  0  0  0  0  0
    2.8792   -7.8125    0.0000 C   0  0  0  0  0  0  0  0  0  0  0  0
    6.0125   -4.7792    0.0000 C   0  0  0  0  0  0  0  0  0  0  0  0
    2.2750   -6.7500    0.0000 C   0  0  0  0  0  0  0  0  0  0  0  0
    2.2750   -7.4542    0.0000 C   0  0  0  0  0  0  0  0  0  0  0  0
    7.8500   -4.4042    0.0000 C   0  0  0  0  0  0  0  0  0  0  0  0
    6.6167   -4.4167    0.0000 C   0  0  0  0  0  0  0  0  0  0  0  0
    5.3917   -4.4292    0.0000 O   0  0  0  0  0  0  0  0  0  0  0  0
    7.2375   -4.7667    0.0000 O   0  0  0  0  0  0  0  0  0  0  0  0
    7.8417   -3.7000    0.0000 O   0  0  0  0  0  0  0  0  0  0  0  0
    1.6542   -7.8042    0.0000 O   0  0  0  0  0  0  0  0  0  0  0  0
    6.6292   -5.1292    0.0000 O   0  0  0  0  0  0  0  0  0  0  0  0
    3.4917   -6.0417    0.0000 C   0  0  0  0  0  0  0  0  0  0  0  0
    5.3375   -4.9917    0.0000 C   0  0  0  0  0  0  0  0  0  0  0  0
    4.1000   -8.5167    0.0000 F   0  0  0  0  0  0  0  0  0  0  0  0
    3.5000   -5.3292    0.0000 O   0  0  0  0  0  0  0  0  0  0  0  0
    7.1292   -6.0667    0.0000 C   0  0  0  0  0  0  0  0  0  0  0  0
    8.4625   -4.7542    0.0000 C   0  0  0  0  0  0  0  0  0  0  0  0
    4.7167   -6.0417    0.0000 H   0  0  0  0  0  0  0  0  0  0  0  0
    5.3292   -7.1125    0.0000 H   0  0  0  0  0  0  0  0  0  0  0  0
    4.1042   -7.1042    0.0000 H   0  0  0  0  0  0  0  0  0  0  0  0
  2  9  1  0
  3  1  1  0
  4  6  1  0
  5  2  1  0
  6  7  1  0
  7  1  1  0
  8  1  1  0
  9 10  1  0
 10  7  1  0
 11 12  1  0
 12  4  1  0
 13  6  1  0
 14  3  1  0
 15  3  2  0
 16  5  1  0
 17  8  2  0
 18 17  1  0
 19 22  1  0
 20 16  1  0
 21 16  2  0
 22 20  1  0
 23 19  2  0
 24 18  2  0
  5 25  1  6
  1 26  1  1
  2 27  1  1
 14 28  1  6
 10 29  1  1
 11 30  1  6
 31 19  1  0
  6 32  1  1
  4 33  1  6
  7 34  1  6
 13 14  1  0
 18 15  1  0
  4  2  1  0
  5 11  1  0
M  END
> <chembl_id>
CHEMBL1200342

> <chembl_pref_name>
PARAMETHASONE ACETATE
