
     RDKit          2D

 21 23  0  0  0  0  0  0  0  0999 V2000
    5.4167   -5.1875    0.0000 C   0  0  0  0  0  0  0  0  0  0  0  0
    2.9667   -5.9292    0.0000 N   0  0  0  0  0  0  0  0  0  0  0  0
    4.8000   -4.8375    0.0000 O   0  0  0  0  0  0  0  0  0  0  0  0
    6.0292   -4.8167    0.0000 C   0  0  0  0  0  0  0  0  0  0  0  0
    5.4167   -5.8875    0.0000 C   0  0  0  0  0  0  0  0  0  0  0  0
    4.1917   -5.1917    0.0000 C   0  0  0  0  0  0  0  0  0  0  0  0
    3.5667   -4.8542    0.0000 C   0  0  0  0  0  0  0  0  0  0  0  0
    4.1917   -5.9042    0.0000 C   0  0  0  0  0  0  0  0  0  0  0  0
    2.9542   -5.2167    0.0000 C   0  0  0  0  0  0  0  0  0  0  0  0
    3.5792   -6.2667    0.0000 C   0  0  0  0  0  0  0  0  0  0  0  0
    2.3542   -6.2917    0.0000 C   0  0  0  0  0  0  0  0  0  0  0  0
    6.0417   -6.2375    0.0000 C   0  0  0  0  0  0  0  0  0  0  0  0
    4.8167   -6.2500    0.0000 C   0  0  0  0  0  0  0  0  0  0  0  0
    6.0167   -4.1125    0.0000 C   0  0  0  0  0  0  0  0  0  0  0  0
    6.6500   -5.1625    0.0000 C   0  0  0  0  0  0  0  0  0  0  0  0
    7.2542   -4.7917    0.0000 C   0  0  0  0  0  0  0  0  0  0  0  0
    6.0542   -6.9500    0.0000 C   0  0  0  0  0  0  0  0  0  0  0  0
    4.8292   -6.9625    0.0000 C   0  0  0  0  0  0  0  0  0  0  0  0
    6.6292   -3.7417    0.0000 C   0  0  0  0  0  0  0  0  0  0  0  0
    5.4500   -7.3125    0.0000 C   0  0  0  0  0  0  0  0  0  0  0  0
    7.2542   -4.0917    0.0000 C   0  0  0  0  0  0  0  0  0  0  0  0
  2 10  1  0
  3  1  1  0
  4  1  1  0
  5  1  1  0
  6  3  1  0
  7  6  1  0
  8  6  1  0
  9  7  1  0
 10  8  1  0
 11  2  1  0
 12  5  1  0
 13  5  2  0
 14  4  1  0
 15  4  2  0
 16 15  1  0
 17 12  2  0
 18 13  1  0
 19 14  2  0
 20 18  2  0
 21 19  1  0
 20 17  1  0
 21 16  2  0
  2  9  1  0
M  END
> <chembl_id>
CHEMBL1492

> <chembl_pref_name>
DIPHENYLPYRALINE
