
     RDKit          2D

 54 53  0  0  0  0  0  0  0  0999 V2000
   12.9107   -7.7679    0.0000 O   0  0  0  0  0  0  0  0  0  0  0  0
    5.8076   -7.1580    0.0000 C   0  0  0  0  0  0  0  0  0  0  0  0
    6.3942   -6.5781    0.0000 C   0  0  0  0  0  0  0  0  0  0  0  0
    5.0097   -6.9491    0.0000 C   0  0  0  0  0  0  0  0  0  0  0  0
    4.4213   -7.5381    0.0000 N   0  0  0  0  0  0  0  0  0  0  0  0
    5.0196   -1.3516    0.0000 N   0  0  0  0  0  0  0  0  0  0  0  0
    4.0004   -2.3451    0.0000 C   0  0  0  0  0  0  0  0  0  0  0  0
    4.7954   -2.1407    0.0000 C   0  0  0  0  0  0  0  0  0  0  0  0
    7.1932   -6.7910    0.0000 C   0  0  0  0  0  0  0  0  0  0  0  0
    6.0274   -7.9619    0.0000 C   0  0  0  0  0  0  0  0  0  0  0  0
    2.7743   -4.1446    0.0000 O   0  0  0  0  0  0  0  0  0  0  0  0
    2.9884   -3.3496    0.0000 C   0  0  0  0  0  0  0  0  0  0  0  0
    6.1847   -5.7801    0.0000 O   0  0  0  0  0  0  0  0  0  0  0  0
    3.7863   -3.1401    0.0000 C   0  0  0  0  0  0  0  0  0  0  0  0
    3.4256   -1.7615    0.0000 C   0  0  0  0  0  0  0  0  0  0  0  0
    2.9857   -4.9334    0.0000 C   0  0  0  0  0  0  0  0  0  0  0  0
    7.4068   -7.5879    0.0000 C   0  0  0  0  0  0  0  0  0  0  0  0
    6.8253   -8.1708    0.0000 C   0  0  0  0  0  0  0  0  0  0  0  0
    2.4096   -2.7670    0.0000 C   0  0  0  0  0  0  0  0  0  0  0  0
    2.6236   -1.9721    0.0000 C   0  0  0  0  0  0  0  0  0  0  0  0
    4.7962   -6.1522    0.0000 C   0  0  0  0  0  0  0  0  0  0  0  0
    4.4387   -0.7610    0.0000 C   0  0  0  0  0  0  0  0  0  0  0  0
    4.6410   -8.3420    0.0000 C   0  0  0  0  0  0  0  0  0  0  0  0
    8.5106   -3.4487    0.0000 C   0  0  0  0  0  0  0  0  0  0  0  0
    2.4053   -5.5203    0.0000 C   0  0  0  0  0  0  0  0  0  0  0  0
    3.7796   -5.1434    0.0000 C   0  0  0  0  0  0  0  0  0  0  0  0
    5.4451   -8.5579    0.0000 C   0  0  0  0  0  0  0  0  0  0  0  0
    3.9931   -5.9403    0.0000 C   0  0  0  0  0  0  0  0  0  0  0  0
    3.6397   -0.9665    0.0000 C   0  0  0  0  0  0  0  0  0  0  0  0
    6.7702   -5.1962    0.0000 C   0  0  0  0  0  0  0  0  0  0  0  0
    2.6240   -6.3201    0.0000 C   0  0  0  0  0  0  0  0  0  0  0  0
    7.7747   -6.2082    0.0000 O   0  0  0  0  0  0  0  0  0  0  0  0
    7.9331   -4.0305    0.0000 C   0  0  0  0  0  0  0  0  0  0  0  0
    3.4168   -6.5261    0.0000 C   0  0  0  0  0  0  0  0  0  0  0  0
    8.1977   -7.8031    0.0000 O   0  0  0  0  0  0  0  0  0  0  0  0
    5.8146   -1.1472    0.0000 C   0  0  0  0  0  0  0  0  0  0  0  0
    3.8285   -8.1111    0.0000 C   0  0  0  0  0  0  0  0  0  0  0  0
    3.5300   -7.0935    0.0000 C   0  0  0  0  0  0  0  0  0  0  0  0
    1.6156   -2.9754    0.0000 O   0  0  0  0  0  0  0  0  0  0  0  0
    1.6103   -5.3062    0.0000 O   0  0  0  0  0  0  0  0  0  0  0  0
    6.5548   -4.4084    0.0000 C   0  0  0  0  0  0  0  0  0  0  0  0
    7.5662   -5.4143    0.0000 C   0  0  0  0  0  0  0  0  0  0  0  0
    8.1466   -4.8274    0.0000 C   0  0  0  0  0  0  0  0  0  0  0  0
    7.1282   -3.8277    0.0000 C   0  0  0  0  0  0  0  0  0  0  0  0
    8.7832   -7.2191    0.0000 C   0  0  0  0  0  0  0  0  0  0  0  0
    1.0357   -2.3889    0.0000 C   0  0  0  0  0  0  0  0  0  0  0  0
    5.6835   -1.6809    0.0000 H   0  0  0  0  0  0  0  0  0  0  0  0
    4.0437   -6.6905    0.0000 H   0  0  0  0  0  0  0  0  0  0  0  0
    2.8619   -7.7877    0.0000 Cl  0  0  0  0  0  0  0  0  0  0  0  0
   10.5268   -4.4732    0.0000 Cl  0  0  0  0  0  0  0  0  0  0  0  0
   10.6071   -5.6786    0.0000 O   0  0  0  0  0  0  0  0  0  0  0  0
   11.4375   -5.7589    0.0000 O   0  0  0  0  0  0  0  0  0  0  0  0
   13.1518   -6.2946    0.0000 O   0  0  0  0  0  0  0  0  0  0  0  0
   11.8929   -7.0446    0.0000 O   0  0  0  0  0  0  0  0  0  0  0  0
  3  2  2  0
  4  2  1  0
  5  4  1  0
  6  8  1  0
  7  8  1  0
  8 24  1  0
  9  3  1  0
 10  2  1  0
 11 16  1  0
 12 11  1  0
 13  3  1  0
 14 12  2  0
 15  7  2  0
 16 26  1  0
 17  9  2  0
 18 10  2  0
 19 12  1  0
 20 19  2  0
  4 21  1  0
 22  6  1  0
 23  5  1  0
 24 33  1  0
 25 31  1  0
 26 28  2  0
 27 10  1  0
 28 21  1  0
 29 22  1  0
 30 13  1  0
 31 34  2  0
 32  9  1  0
 33 43  2  0
 34 28  1  0
 35 17  1  0
 36  6  1  0
 37  5  1  0
 38  5  1  0
 39 19  1  0
 40 25  1  0
 41 30  1  0
 42 30  2  0
 43 42  1  0
 44 41  2  0
 45 35  1  0
 46 39  1  0
  8 47  1  6
 17 18  1  0
 27 23  1  0
 44 33  1  0
 25 16  2  0
  7 14  1  0
 20 15  1  0
 29 15  1  0
  4 48  1  1
M  CHG  2   5   1  49  -1
M  END
> <chembl_id>
CHEMBL3989821

> <chembl_pref_name>
TUBOCURARINE CHLORIDE
