
     RDKit          2D

  4  3  0  0  0  0  0  0  0  0999 V2000
   -0.1083   -0.3042    0.0000 C   0  0  0  0  0  0  0  0  0  0  0  0
    1.1375   -1.0250    0.0000 Cl  0  0  0  0  0  0  0  0  0  0  0  0
   -1.3458   -1.0250    0.0000 Cl  0  0  0  0  0  0  0  0  0  0  0  0
   -0.1083    1.1208    0.0000 Cl  0  0  0  0  0  0  0  0  0  0  0  0
  2  1  1  0
  3  1  1  0
  4  1  1  0
M  END
> <chembl_id>
CHEMBL44618

> <chembl_pref_name>
CHLOROFORM
