
     RDKit          2D

 34 37  0  0  0  0  0  0  0  0999 V2000
    8.2625   -0.7875    0.0000 C   0  0  0  0  0  0  0  0  0  0  0  0
    7.5500   -1.2042    0.0000 C   0  0  0  0  0  0  0  0  0  0  0  0
    4.4875   -2.2667    0.0000 C   0  0  0  0  0  0  0  0  0  0  0  0
    5.7083   -1.5625    0.0000 N   0  0  0  0  0  0  0  0  0  0  0  0
    6.9375   -1.5625    0.0000 C   0  0  0  0  0  0  0  0  0  0  0  0
    8.8792   -1.1333    0.0000 N   0  0  0  0  0  0  0  0  0  0  0  0
    5.0958   -2.6250    0.0000 C   0  0  0  0  0  0  0  0  0  0  0  0
    4.4875   -1.5625    0.0000 C   0  0  0  0  0  0  0  0  0  0  0  0
    4.1292   -2.8792    0.0000 C   0  0  0  0  0  0  0  0  0  0  0  0
    8.2542   -0.0792    0.0000 O   0  0  0  0  0  0  0  0  0  0  0  0
    7.9000   -1.8167    0.0000 C   0  0  0  0  0  0  0  0  0  0  0  0
    7.1917   -0.5875    0.0000 C   0  0  0  0  0  0  0  0  0  0  0  0
    6.3208   -1.2083    0.0000 C   0  0  0  0  0  0  0  0  0  0  0  0
    5.7083   -2.2667    0.0000 C   0  0  0  0  0  0  0  0  0  0  0  0
    5.0958   -1.2042    0.0000 C   0  0  0  0  0  0  0  0  0  0  0  0
    3.4167   -2.8750    0.0000 C   0  0  0  0  0  0  0  0  0  0  0  0
    4.4792   -3.4917    0.0000 C   0  0  0  0  0  0  0  0  0  0  0  0
    3.7792   -2.2667    0.0000 O   0  0  0  0  0  0  0  0  0  0  0  0
    3.4083   -4.1042    0.0000 C   0  0  0  0  0  0  0  0  0  0  0  0
    4.1250   -4.1042    0.0000 C   0  0  0  0  0  0  0  0  0  0  0  0
    3.0583   -3.4875    0.0000 C   0  0  0  0  0  0  0  0  0  0  0  0
    3.0542   -4.7167    0.0000 Cl  0  0  0  0  0  0  0  0  0  0  0  0
    8.8833   -1.8417    0.0000 C   0  0  0  0  0  0  0  0  0  0  0  0
    9.4875   -0.7708    0.0000 C   0  0  0  0  0  0  0  0  0  0  0  0
    7.5500    0.0333    0.0000 C   0  0  0  0  0  0  0  0  0  0  0  0
    6.4750   -0.5875    0.0000 C   0  0  0  0  0  0  0  0  0  0  0  0
    7.5417   -2.4208    0.0000 C   0  0  0  0  0  0  0  0  0  0  0  0
    8.5958   -1.8167    0.0000 C   0  0  0  0  0  0  0  0  0  0  0  0
    6.1167    0.0292    0.0000 C   0  0  0  0  0  0  0  0  0  0  0  0
    7.8917   -3.0292    0.0000 C   0  0  0  0  0  0  0  0  0  0  0  0
    8.9458   -2.4208    0.0000 C   0  0  0  0  0  0  0  0  0  0  0  0
    7.1917    0.6542    0.0000 C   0  0  0  0  0  0  0  0  0  0  0  0
    6.4750    0.6542    0.0000 C   0  0  0  0  0  0  0  0  0  0  0  0
    8.5917   -3.0333    0.0000 C   0  0  0  0  0  0  0  0  0  0  0  0
  2  1  1  0
  3  8  1  0
  4 13  1  0
  5  2  1  0
  6  1  1  0
  7 14  1  0
  8 15  1  0
  9  3  1  0
 10  1  2  0
 11  2  1  0
 12  2  1  0
 13  5  1  0
 14  4  1  0
 15  4  1  0
 16  9  2  0
 17  9  1  0
 18  3  1  0
 19 20  1  0
 20 17  2  0
 21 16  1  0
 22 19  1  0
 23  6  1  0
 24  6  1  0
 25 12  2  0
 26 12  1  0
 27 11  2  0
 28 11  1  0
 29 26  2  0
 30 27  1  0
 31 28  2  0
 32 25  1  0
 33 32  2  0
 34 31  1  0
 34 30  2  0
 29 33  1  0
  7  3  1  0
 19 21  2  0
M  END
> <chembl_id>
CHEMBL841

> <chembl_pref_name>
LOPERAMIDE
