
     RDKit          2D

 13 13  0  0  0  0  0  0  0  0999 V2000
   -0.2167    1.6458    0.0000 C   0  0  0  0  0  0  0  0  0  0  0  0
    0.4042    1.9958    0.0000 S   0  0  0  0  0  0  0  0  0  0  0  0
   -0.7917    2.0625    0.0000 S   0  0  0  0  0  0  0  0  0  0  0  0
   -1.3667    1.6458    0.0000 C   0  0  0  0  0  0  0  0  0  0  0  0
   -0.4333    0.9667    0.0000 N   0  0  0  0  0  0  0  0  0  0  0  0
   -1.1458    0.9667    0.0000 N   0  0  0  0  0  0  0  0  0  0  0  0
   -1.9833    1.9958    0.0000 N   0  0  0  0  0  0  0  0  0  0  0  0
   -2.6000    1.6458    0.0000 C   0  0  0  0  0  0  0  0  0  0  0  0
    0.0542    2.6083    0.0000 O   0  0  0  0  0  0  0  0  0  0  0  0
    0.7667    2.6083    0.0000 O   0  0  0  0  0  0  0  0  0  0  0  0
    1.0208    1.6333    0.0000 N   0  0  0  0  0  0  0  0  0  0  0  0
   -2.6000    0.9333    0.0000 O   0  0  0  0  0  0  0  0  0  0  0  0
   -3.2167    2.0000    0.0000 C   0  0  0  0  0  0  0  0  0  0  0  0
  2  1  1  0
  3  1  1  0
  4  3  1  0
  5  1  2  0
  6  5  1  0
  7  4  1  0
  8  7  1  0
  9  2  2  0
 10  2  2  0
 11  2  1  0
 12  8  2  0
 13  8  1  0
  4  6  2  0
M  END
> <chembl_id>
CHEMBL20

> <chembl_pref_name>
ACETAZOLAMIDE
