
     RDKit          2D

 20 19  0  0  0  0  0  0  0  0999 V2000
    1.9349   -0.7955    0.0000 Na  0  0  0  0  0 15  0  0  0  0  0  0
    0.2711   -1.0836    0.0000 N   0  0  0  0  0  0  0  0  0  0  0  0
   -1.1579   -1.0836    0.0000 N   0  0  0  0  0  0  0  0  0  0  0  0
    0.2711   -0.2586    0.0000 C   0  0  0  0  0  0  0  0  0  0  0  0
   -0.4434   -1.4961    0.0000 C   0  0  0  0  0  0  0  0  0  0  0  0
   -0.4434    0.1539    0.0000 C   0  0  0  0  0  0  0  0  0  0  0  0
   -1.1579   -0.2586    0.0000 C   0  0  0  0  0  0  0  0  0  0  0  0
    0.8993    0.6426    0.0000 C   0  0  0  0  0  0  0  0  0  0  0  0
    1.7118    0.4993    0.0000 C   0  0  0  0  0  0  0  0  0  0  0  0
   -0.4434   -2.3211    0.0000 O   0  0  0  0  0  0  0  0  0  0  0  0
    0.9855    0.1539    0.0000 O   0  0  0  0  0  0  0  0  0  0  0  0
    0.0869    0.7859    0.0000 C   0  0  0  0  0  0  0  0  0  0  0  0
   -1.8724    0.1539    0.0000 O   0  0  0  0  0  0  0  0  0  0  0  0
   -0.9737    0.7859    0.0000 C   0  0  0  0  0  0  0  0  0  0  0  0
    0.9855   -1.4961    0.0000 C   0  0  0  0  0  0  0  0  0  0  0  0
   -1.7862    0.6426    0.0000 C   0  0  0  0  0  0  0  0  0  0  0  0
   -2.3165    1.2746    0.0000 C   0  0  0  0  0  0  0  0  0  0  0  0
    2.5243    0.3561    0.0000 C   0  0  0  0  0  0  0  0  0  0  0  0
   -0.1953    1.5611    0.0000 C   0  0  0  0  0  0  0  0  0  0  0  0
    3.0546    0.9881    0.0000 C   0  0  0  0  0  0  0  0  0  0  0  0
  3  5  2  0
  4  2  1  0
  5  2  1  0
  6  4  1  0
  7  3  1  0
  8 12  1  0
  9  8  3  0
 10  5  1  0
 11  4  2  0
 12  6  1  0
 13  7  2  0
 14  6  1  0
 15  2  1  0
 16 14  1  0
 17 16  2  0
 18  9  1  0
 19 12  1  0
 20 18  1  0
  7  6  1  0
M  CHG  2   1   1  10  -1
M  END
> <chembl_id>
CHEMBL30219

> <chembl_pref_name>
METHOHEXITAL SODIUM
