
     RDKit          2D

 21 21  0  0  0  0  0  0  0  0999 V2000
    3.5792   -1.2667    0.0000 C   0  0  0  0  0  0  0  0  0  0  0  0
    2.9625   -1.6208    0.0000 C   0  0  0  0  0  0  0  0  0  0  0  0
    2.3333   -2.7042    0.0000 C   0  0  0  0  0  0  0  0  0  0  0  0
    2.9625   -2.3417    0.0000 C   0  0  0  0  0  0  0  0  0  0  0  0
    1.7125   -2.3375    0.0000 C   0  0  0  0  0  0  0  0  0  0  0  0
    3.5583   -0.5708    0.0000 O   0  0  0  0  0  0  0  0  0  0  0  0
    2.3417   -1.2625    0.0000 C   0  0  0  0  0  0  0  0  0  0  0  0
    1.7125   -1.6250    0.0000 C   0  0  0  0  0  0  0  0  0  0  0  0
    2.3333   -3.4208    0.0000 N   0  0  0  0  0  0  0  0  0  0  0  0
    4.1667   -1.6375    0.0000 O   0  0  0  0  0  0  0  0  0  0  0  0
    6.0125   -1.3625    0.0000 N   0  0  0  0  0  0  0  0  0  0  0  0
    1.0833   -2.6917    0.0000 O   0  0  0  0  0  0  0  0  0  0  0  0
    4.8000   -1.3208    0.0000 C   0  0  0  0  0  0  0  0  0  0  0  0
    5.3917   -1.6958    0.0000 C   0  0  0  0  0  0  0  0  0  0  0  0
    6.6125   -1.7250    0.0000 C   0  0  0  0  0  0  0  0  0  0  0  0
    6.0500   -0.6792    0.0000 C   0  0  0  0  0  0  0  0  0  0  0  0
    0.4667   -2.3250    0.0000 C   0  0  0  0  0  0  0  0  0  0  0  0
   -0.1542   -2.6750    0.0000 C   0  0  0  0  0  0  0  0  0  0  0  0
    7.2292   -1.3958    0.0000 C   0  0  0  0  0  0  0  0  0  0  0  0
    6.7000   -0.3625    0.0000 C   0  0  0  0  0  0  0  0  0  0  0  0
   -0.7583   -2.3167    0.0000 C   0  0  0  0  0  0  0  0  0  0  0  0
  2  1  1  0
  3  4  2  0
  4  2  1  0
  5  8  2  0
  6  1  2  0
  7  2  2  0
  8  7  1  0
  9  3  1  0
 10  1  1  0
 11 14  1  0
 12  5  1  0
 13 10  1  0
 14 13  1  0
 15 11  1  0
 16 11  1  0
 17 12  1  0
 18 17  1  0
 19 15  1  0
 20 16  1  0
 21 18  1  0
  5  3  1  0
M  END
> <chembl_id>
CHEMBL1196

> <chembl_pref_name>
PROPARACAINE
