
     RDKit          2D

 14 15  0  0  0  0  0  0  0  0999 V2000
   -2.0208   -0.5292    0.0000 C   0  0  0  0  0  0  0  0  0  0  0  0
    0.0375    0.6583    0.0000 C   0  0  0  0  0  0  0  0  0  0  0  0
   -2.7083    0.6583    0.0000 C   0  0  0  0  0  0  0  0  0  0  0  0
   -0.6458   -0.5292    0.0000 C   0  0  0  0  0  0  0  0  0  0  0  0
   -2.0208    1.8583    0.0000 N   0  0  0  0  0  0  0  0  0  0  0  0
   -0.5708    1.8583    0.0000 C   0  0  0  0  0  0  0  0  0  0  0  0
   -4.0833    0.6583    0.0000 O   0  0  0  0  0  0  0  0  0  0  0  0
    1.4417    0.6583    0.0000 C   0  0  0  0  0  0  0  0  0  0  0  0
    4.1917    0.6583    0.0000 N   0  0  0  0  0  0  0  0  0  0  0  0
   -2.7375   -1.7292    0.0000 N   0  0  0  0  0  0  0  0  0  0  0  0
    3.5042    1.8583    0.0000 C   0  0  0  0  0  0  0  0  0  0  0  0
    3.5042   -0.5292    0.0000 C   0  0  0  0  0  0  0  0  0  0  0  0
    2.1292    1.8583    0.0000 C   0  0  0  0  0  0  0  0  0  0  0  0
    2.1292   -0.5292    0.0000 C   0  0  0  0  0  0  0  0  0  0  0  0
  2  4  1  0
  3  1  1  0
  4  1  2  0
  5  3  1  0
  6  2  2  0
  7  3  2  0
  8  2  1  0
  9 12  2  0
 10  1  1  0
 11 13  2  0
 12 14  1  0
 13  8  1  0
 14  8  2  0
  5  6  1  0
 11  9  1  0
M  END
> <chembl_id>
CHEMBL12856

> <chembl_pref_name>
INAMRINONE
