
     RDKit          2D

 42 46  0  0  0  0  0  0  0  0999 V2000
   -3.6818    0.1431    0.0000 C   0  0  0  0  0  0  0  0  0  0  0  0
   -4.3962   -0.2693    0.0000 C   0  0  0  0  0  0  0  0  0  0  0  0
   -4.3962   -1.0943    0.0000 C   0  0  0  0  0  0  0  0  0  0  0  0
   -3.6818   -1.5068    0.0000 C   0  0  0  0  0  0  0  0  0  0  0  0
   -2.9673   -1.0943    0.0000 C   0  0  0  0  0  0  0  0  0  0  0  0
   -2.9673   -0.2693    0.0000 C   0  0  0  0  0  0  0  0  0  0  0  0
   -2.2528    0.1431    0.0000 C   0  0  0  0  0  0  0  0  0  0  0  0
   -2.2528   -1.5068    0.0000 F   0  0  0  0  0  0  0  0  0  0  0  0
   -1.5384   -1.0943    0.0000 C   0  0  0  0  0  0  0  0  0  0  0  0
   -1.5384   -0.2693    0.0000 N   0  0  0  0  0  0  0  0  0  0  0  0
   -0.8239    0.1431    0.0000 C   0  0  0  0  0  0  0  0  0  0  0  0
   -0.8239   -1.5068    0.0000 C   0  0  0  0  0  0  0  0  0  0  0  0
   -0.1094   -1.0943    0.0000 C   0  0  0  0  0  0  0  0  0  0  0  0
   -0.1094   -0.2693    0.0000 C   0  0  0  0  0  0  0  0  0  0  0  0
    2.0339    0.1431    0.0000 C   0  0  0  0  0  0  0  0  0  0  0  0
    2.7483   -0.2693    0.0000 C   0  0  0  0  0  0  0  0  0  0  0  0
    3.4628    0.1431    0.0000 C   0  0  0  0  0  0  0  0  0  0  0  0
    3.4629    0.9681    0.0000 C   0  0  0  0  0  0  0  0  0  0  0  0
    2.7484    1.3806    0.0000 C   0  0  0  0  0  0  0  0  0  0  0  0
    2.0339    0.9681    0.0000 C   0  0  0  0  0  0  0  0  0  0  0  0
   -0.7438    2.6143    0.0000 C   0  0  0  0  0  0  0  0  0  0  0  0
   -1.4583    2.2018    0.0000 C   0  0  0  0  0  0  0  0  0  0  0  0
   -1.4583    1.3768    0.0000 C   0  0  0  0  0  0  0  0  0  0  0  0
   -0.7438    0.9643    0.0000 C   0  0  0  0  0  0  0  0  0  0  0  0
   -0.0293    1.3768    0.0000 C   0  0  0  0  0  0  0  0  0  0  0  0
   -0.0293    2.2018    0.0000 C   0  0  0  0  0  0  0  0  0  0  0  0
    0.0568    4.6723    0.0000 C   0  0  0  0  0  0  0  0  0  0  0  0
   -0.0293    3.8518    0.0000 C   0  0  0  0  0  0  0  0  0  0  0  0
    0.7242    3.5162    0.0000 C   0  0  0  0  0  0  0  0  0  0  0  0
    1.2762    4.1293    0.0000 C   0  0  0  0  0  0  0  0  0  0  0  0
    0.8638    4.8438    0.0000 C   0  0  0  0  0  0  0  0  0  0  0  0
   -3.6665    0.9670    0.0000 C   0  0  0  0  0  0  0  0  0  0  0  0
   -2.2960    0.9670    0.0000 O   0  0  0  0  0  0  0  0  0  0  0  0
    0.6049    0.1431    0.0000 C   0  0  0  0  0  0  0  0  0  0  0  0
    1.3194   -0.2693    0.0000 N   0  0  0  0  0  0  0  0  0  0  0  0
    0.6049    0.9681    0.0000 O   0  0  0  0  0  0  0  0  0  0  0  0
    2.8346    2.2011    0.0000 C   0  0  0  0  0  0  0  0  0  0  0  0
    4.1303    1.4531    0.0000 C   0  0  0  0  0  0  0  0  0  0  0  0
   -0.7438    3.4393    0.0000 N   0  0  0  0  0  0  0  0  0  0  0  0
    2.3843    2.8328    0.0000 F   0  0  0  0  0  0  0  0  0  0  0  0
    2.9209    3.0216    0.0000 F   0  0  0  0  0  0  0  0  0  0  0  0
    3.4798    2.7188    0.0000 F   0  0  0  0  0  0  0  0  0  0  0  0
  1  2  2  0
  2  3  1  0
  3  4  2  0
  4  5  1  0
  5  6  2  0
  1  6  1  0
  7 10  1  0
  5  8  1  0
  7  6  1  0
 12 13  1  0
 13 14  1  0
 11 14  1  0
  9 12  1  0
 11 10  1  0
 10  9  1  0
 15 16  1  0
 16 17  2  0
 17 18  1  0
 18 19  2  0
 19 20  1  0
 15 20  2  0
 21 22  1  0
 22 23  2  0
 23 24  1  0
 24 25  2  0
 25 26  1  0
 21 26  2  0
 27 28  1  0
 28 29  1  0
 29 30  1  0
 30 31  1  0
 27 31  1  0
  1 32  1  0
  7 33  2  0
 11 24  1  1
 14 34  1  1
 34 35  1  0
 35 15  1  0
 34 36  2  0
 19 37  1  0
 18 38  1  0
 21 39  1  0
 39 28  1  0
 37 40  1  0
 37 41  1  0
 37 42  1  0
M  END
> <chembl_id>
CHEMBL3989871

> <chembl_pref_name>
AVACOPAN
