
     RDKit          2D

 35 38  0  0  0  0  0  0  0  0999 V2000
   -4.7188   -0.1324    0.0000 C   0  0  0  0  0  0  0  0  0  0  0  0
   -5.4333   -0.5449    0.0000 C   0  0  0  0  0  0  0  0  0  0  0  0
   -5.4333   -1.3700    0.0000 C   0  0  0  0  0  0  0  0  0  0  0  0
   -4.7188   -1.7825    0.0000 C   0  0  0  0  0  0  0  0  0  0  0  0
   -4.0044   -1.3700    0.0000 C   0  0  0  0  0  0  0  0  0  0  0  0
   -4.0044   -0.5449    0.0000 C   0  0  0  0  0  0  0  0  0  0  0  0
   -3.2899   -0.1324    0.0000 O   0  0  0  0  0  0  0  0  0  0  0  0
   -3.2899   -1.7825    0.0000 C   0  0  0  0  0  0  0  0  0  0  0  0
   -2.5754   -1.3700    0.0000 O   0  0  0  0  0  0  0  0  0  0  0  0
   -2.5754   -0.5449    0.0000 C   0  0  0  0  0  0  0  0  0  0  0  0
   -3.2899   -2.6075    0.0000 C   0  0  0  0  0  0  0  0  0  0  0  0
   -2.5754   -3.0200    0.0000 O   0  0  0  0  0  0  0  0  0  0  0  0
   -1.8610   -2.6075    0.0000 C   0  0  0  0  0  0  0  0  0  0  0  0
   -1.8610   -1.7825    0.0000 C   0  0  0  0  0  0  0  0  0  0  0  0
   -1.1465   -1.3700    0.0000 C   0  0  0  0  0  0  0  0  0  0  0  0
   -1.1465   -3.0200    0.0000 C   0  0  0  0  0  0  0  0  0  0  0  0
   -0.4321   -2.6075    0.0000 C   0  0  0  0  0  0  0  0  0  0  0  0
   -0.4321   -1.7825    0.0000 C   0  0  0  0  0  0  0  0  0  0  0  0
    0.2824   -3.0200    0.0000 F   0  0  0  0  0  0  0  0  0  0  0  0
    0.9969   -2.6075    0.0000 O   0  0  0  0  0  0  0  0  0  0  0  0
    0.9969   -1.7825    0.0000 C   0  0  0  0  0  0  0  0  0  0  0  0
    0.2824   -1.3700    0.0000 N   0  0  0  0  0  0  0  0  0  0  0  0
    0.2824   -0.5450    0.0000 C   0  0  0  0  0  0  0  0  0  0  0  0
    0.9969   -0.1325    0.0000 C   0  0  0  0  0  0  0  0  0  0  0  0
    1.7114   -0.5450    0.0000 C   0  0  0  0  0  0  0  0  0  0  0  0
    1.7114   -1.3700    0.0000 N   0  0  0  0  0  0  0  0  0  0  0  0
    1.1684    0.6744    0.0000 C   0  0  0  0  0  0  0  0  0  0  0  0
    1.9889    0.7607    0.0000 S   0  0  0  0  0  0  0  0  0  0  0  0
    2.3245    0.0071    0.0000 C   0  0  0  0  0  0  0  0  0  0  0  0
   -6.1478   -1.7825    0.0000 F   0  0  0  0  0  0  0  0  0  0  0  0
   -4.7620   -2.6063    0.0000 F   0  0  0  0  0  0  0  0  0  0  0  0
   -0.4320   -0.1325    0.0000 O   0  0  0  0  0  0  0  0  0  0  0  0
    0.5553    1.2265    0.0000 C   0  0  0  0  0  0  0  0  0  0  0  0
    0.7269    2.0335    0.0000 O   0  0  0  0  0  0  0  0  0  0  0  0
   -0.2293    0.9715    0.0000 O   0  0  0  0  0  0  0  0  0  0  0  0
  1  2  1  0
  2  3  2  0
  3  4  1  0
  4  5  2  0
  5  6  1  0
  1  6  2  0
  8  9  1  0
  7 10  1  0
  5  8  1  0
  7  6  1  0
 11 12  1  0
 12 13  1  0
 13 14  1  0
  9 14  1  0
 16 17  1  0
 17 18  2  0
 15 18  1  0
 13 16  2  0
 15 14  2  0
 20 21  2  0
 21 22  1  0
 17 19  1  0
 18 22  1  0
 23 24  1  0
 24 25  1  0
 25 26  1  0
 21 26  1  0
 22 23  1  0
 27 28  1  0
 28 29  1  0
 24 27  2  0
 25 29  2  0
  3 30  1  0
  4 31  1  0
 23 32  2  0
 27 33  1  0
 33 34  2  0
 33 35  1  0
M  END
> <chembl_id>
CHEMBL3668014

> <chembl_pref_name>
LINZAGOLIX
