
     RDKit          2D

 25 29  0  0  1  0  0  0  0  0999 V2000
    2.6799   -9.0112    0.0000 C   0  0  0  0  0  0  0  0  0  0  0  0
    1.8501   -9.0209    0.0000 C   0  0  0  0  0  0  0  0  0  0  0  0
    3.0949   -8.3033    0.0000 C   0  0  0  0  0  0  0  0  0  0  0  0
    1.4401   -9.7287    0.0000 C   0  0  0  0  0  0  0  0  0  0  0  0
    3.0802   -9.7287    0.0000 C   0  0  0  0  0  0  0  0  0  0  0  0
    2.2309  -10.1485    0.0000 O   0  0  0  0  0  0  0  0  0  0  0  0
    2.6848   -7.5907    0.0000 C   0  0  0  0  0  0  0  0  0  0  0  0
    1.4401   -8.3033    0.0000 C   0  0  0  0  0  0  0  0  0  0  0  0
    3.9149   -8.3082    0.0000 C   0  0  0  0  0  0  0  0  0  0  0  0
    1.8501   -7.5857    0.0000 C   0  0  0  0  0  0  0  0  0  0  0  0
    3.0949   -6.8731    0.0000 N   0  0  0  0  0  0  0  0  0  0  0  0
    2.2601   -8.4254    0.0000 C   0  0  0  0  0  0  0  0  0  0  0  0
    4.3250   -9.0258    0.0000 C   0  0  0  0  0  0  0  0  0  0  0  0
    3.9100   -9.7384    0.0000 C   0  0  0  0  0  0  0  0  0  0  0  0
    0.6151   -9.7287    0.0000 C   0  0  0  0  0  0  0  0  0  0  0  0
    2.2699   -6.8682    0.0000 C   0  0  0  0  0  0  0  0  0  0  0  0
    0.6151   -8.3033    0.0000 C   0  0  0  0  0  0  0  0  0  0  0  0
    0.2050   -9.0209    0.0000 C   0  0  0  0  0  0  0  0  0  0  0  0
    4.3201  -10.4609    0.0000 O   0  0  0  0  0  0  0  0  0  0  0  0
    0.1953  -10.4463    0.0000 O   0  0  0  0  0  0  0  0  0  0  0  0
    3.8222   -6.4581    0.0000 C   0  0  0  0  0  0  0  0  0  0  0  0
   -0.6297  -10.4463    0.0000 C   0  0  0  0  0  0  0  0  0  0  0  0
    2.1855   -6.7243    0.0000 H   0  0  0  0  0  0  0  0  0  0  0  0
    3.3020  -10.7038    0.0000 H   0  0  0  0  0  0  0  0  0  0  0  0
    3.5981   -7.4391    0.0000 H   0  0  0  0  0  0  0  0  0  0  0  0
  2  1  1  0
  3  1  1  0
  4  2  1  0
  5  1  1  0
  5  6  1  0
  7  3  1  0
  8  2  2  0
  9  3  1  0
 10  7  1  0
  7 11  1  0
  1 12  1  1
 13  9  2  0
 14  5  1  0
 15  4  2  0
 16 12  1  0
 17  8  1  0
 18 15  1  0
 14 19  1  6
 20 15  1  0
 21 11  1  0
 22 20  1  0
 16 11  1  0
 14 13  1  0
  6  4  1  0
 10  8  1  0
 17 18  2  0
  7 23  1  6
  5 24  1  1
  3 25  1  1
M  END
> <chembl_id>
CHEMBL485

> <chembl_pref_name>
CODEINE
