
     RDKit          2D

 26 28  0  0  0  0  0  0  0  0999 V2000
    1.0500   -5.0375    0.0000 C   0  0  0  0  0  0  0  0  0  0  0  0
    6.5625   -4.6750    0.0000 C   0  0  0  0  0  0  0  0  0  0  0  0
    7.1750   -5.0292    0.0000 C   0  0  0  0  0  0  0  0  0  0  0  0
    1.6625   -4.6792    0.0000 C   0  0  0  0  0  0  0  0  0  0  0  0
    2.2750   -5.0292    0.0000 C   0  0  0  0  0  0  0  0  0  0  0  0
    0.4375   -4.6875    0.0000 F   0  0  0  0  0  0  0  0  0  0  0  0
    1.4000   -5.6500    0.0000 F   0  0  0  0  0  0  0  0  0  0  0  0
    0.6875   -5.6500    0.0000 F   0  0  0  0  0  0  0  0  0  0  0  0
    5.9500   -5.0292    0.0000 C   0  0  0  0  0  0  0  0  0  0  0  0
    7.7875   -4.6750    0.0000 C   0  0  0  0  0  0  0  0  0  0  0  0
    5.3375   -4.6750    0.0000 N   0  0  0  0  0  0  0  0  0  0  0  0
    2.8875   -4.6750    0.0000 C   0  0  0  0  0  0  0  0  0  0  0  0
    6.5625   -3.9625    0.0000 C   0  0  0  0  0  0  0  0  0  0  0  0
    1.6625   -3.9667    0.0000 C   0  0  0  0  0  0  0  0  0  0  0  0
    7.1750   -5.7292    0.0000 C   0  0  0  0  0  0  0  0  0  0  0  0
    7.1750   -3.6042    0.0000 C   0  0  0  0  0  0  0  0  0  0  0  0
    2.2750   -3.6167    0.0000 C   0  0  0  0  0  0  0  0  0  0  0  0
    7.7875   -3.9625    0.0000 C   0  0  0  0  0  0  0  0  0  0  0  0
    2.8875   -3.9667    0.0000 C   0  0  0  0  0  0  0  0  0  0  0  0
    4.7250   -5.0292    0.0000 C   0  0  0  0  0  0  0  0  0  0  0  0
    8.4000   -5.0250    0.0000 C   0  0  0  0  0  0  0  0  0  0  0  0
    5.9500   -5.7375    0.0000 C   0  0  0  0  0  0  0  0  0  0  0  0
    3.5000   -5.0292    0.0000 C   0  0  0  0  0  0  0  0  0  0  0  0
    4.1125   -4.6750    0.0000 C   0  0  0  0  0  0  0  0  0  0  0  0
    7.7875   -6.0875    0.0000 C   0  0  0  0  0  0  0  0  0  0  0  0
    8.4083   -5.7292    0.0000 C   0  0  0  0  0  0  0  0  0  0  0  0
  2  9  1  0
  3  2  1  0
  4  1  1  0
  5  4  2  0
  6  1  1  0
  7  1  1  0
  8  1  1  0
  9 11  1  0
 10  3  1  0
 11 20  1  0
 12  5  1  0
 13  2  2  0
 14  4  1  0
 15  3  2  0
 16 13  1  0
 17 14  2  0
 18 16  2  0
 19 17  1  0
 20 24  1  0
 21 10  2  0
  9 22  1  1
 23 12  1  0
 24 23  1  0
 25 15  1  0
 26 25  2  0
 12 19  2  0
 10 18  1  0
 26 21  1  0
M  END
> <chembl_id>
CHEMBL1201284

> <chembl_pref_name>
CINACALCET
