
     RDKit          2D

 14 15  0  0  0  0  0  0  0  0999 V2000
   -2.4043    0.6158    0.0000 C   0  0  0  0  0  0  0  0  0  0  0  0
   -1.6887    1.0263    0.0000 C   0  0  0  0  0  0  0  0  0  0  0  0
   -1.6887    1.8519    0.0000 C   0  0  0  0  0  0  0  0  0  0  0  0
   -2.4043    2.2669    0.0000 C   0  0  0  0  0  0  0  0  0  0  0  0
   -3.1153    1.0263    0.0000 C   0  0  0  0  0  0  0  0  0  0  0  0
   -3.1153    1.8564    0.0000 C   0  0  0  0  0  0  0  0  0  0  0  0
   -3.9048    2.1131    0.0000 N   0  0  0  0  0  0  0  0  0  0  0  0
   -4.3930    1.4414    0.0000 C   0  0  0  0  0  0  0  0  0  0  0  0
   -3.9049    0.7699    0.0000 S   0  0  0  0  0  0  0  0  0  0  0  0
   -5.2140    1.4414    0.0000 N   0  0  0  0  0  0  0  0  0  0  0  0
   -0.9782    0.6148    0.0000 N   0  0  0  0  0  0  0  0  0  0  0  0
   -0.2667    1.0243    0.0000 C   0  0  0  0  0  0  0  0  0  0  0  0
    0.4438    0.6128    0.0000 C   0  0  0  0  0  0  0  0  0  0  0  0
    1.1554    1.0224    0.0000 C   0  0  0  0  0  0  0  0  0  0  0  0
  1  2  1  0
  2  3  1  0
  6  7  1  0
  7  8  2  0
  8  9  1  0
  9  5  1  0
  3  4  1  0
  8 10  1  0
  5  6  2  0
  2 11  1  6
 11 12  1  0
  6  4  1  0
 12 13  1  0
  5  1  1  0
 13 14  1  0
M  END
> <chembl_id>
CHEMBL301265

> <chembl_pref_name>
PRAMIPEXOLE
