
     RDKit          2D

 30 32  0  0  0  0  0  0  0  0999 V2000
    9.4167   -6.8375    0.0000 Cl  0  0  0  0  0  0  0  0  0  0  0  0
    2.9875   -4.5292    0.0000 O   0  0  0  0  0  0  0  0  0  0  0  0
    7.2667   -4.5292    0.0000 O   0  0  0  0  0  0  0  0  0  0  0  0
    7.9875   -4.1167    0.0000 C   0  0  0  0  0  0  0  0  0  0  0  0
    2.2667   -4.1167    0.0000 C   0  0  0  0  0  0  0  0  0  0  0  0
    2.9875   -5.3542    0.0000 C   0  0  0  0  0  0  0  0  0  0  0  0
    7.2667   -5.3542    0.0000 C   0  0  0  0  0  0  0  0  0  0  0  0
    1.5542   -4.5292    0.0000 C   0  0  0  0  0  0  0  0  0  0  0  0
    8.7000   -4.5292    0.0000 C   0  0  0  0  0  0  0  0  0  0  0  0
    3.7000   -5.7667    0.0000 C   0  0  0  0  0  0  0  0  0  0  0  0
    6.5542   -5.7667    0.0000 C   0  0  0  0  0  0  0  0  0  0  0  0
    0.8417   -4.1167    0.0000 C   0  0  0  0  0  0  0  0  0  0  0  0
    9.4167   -4.1167    0.0000 C   0  0  0  0  0  0  0  0  0  0  0  0
    1.5542   -5.3542    0.0000 C   0  0  0  0  0  0  0  0  0  0  0  0
    8.7000   -5.3542    0.0000 C   0  0  0  0  0  0  0  0  0  0  0  0
    7.9875   -5.7667    0.0000 C   0  0  0  0  0  0  0  0  0  0  0  0
    2.2667   -5.7667    0.0000 C   0  0  0  0  0  0  0  0  0  0  0  0
    2.2667   -3.2917    0.0000 C   0  0  0  0  0  0  0  0  0  0  0  0
    7.9875   -3.2917    0.0000 C   0  0  0  0  0  0  0  0  0  0  0  0
    5.1292   -5.7667    0.0000 N   0  0  0  0  0  0  0  0  0  0  0  0
    9.4167   -3.2917    0.0000 C   0  0  0  0  0  0  0  0  0  0  0  0
    0.8417   -3.2917    0.0000 C   0  0  0  0  0  0  0  0  0  0  0  0
    8.7000   -2.8792    0.0000 C   0  0  0  0  0  0  0  0  0  0  0  0
    1.5542   -2.8792    0.0000 C   0  0  0  0  0  0  0  0  0  0  0  0
    0.1292   -2.8792    0.0000 F   0  0  0  0  0  0  0  0  0  0  0  0
   10.1292   -2.8792    0.0000 F   0  0  0  0  0  0  0  0  0  0  0  0
    3.7000   -6.5917    0.0000 O   0  0  0  0  0  0  0  0  0  0  0  0
    6.5542   -6.5917    0.0000 O   0  0  0  0  0  0  0  0  0  0  0  0
    4.4167   -5.3542    0.0000 C   0  0  0  0  0  0  0  0  0  0  0  0
    5.8417   -5.3542    0.0000 C   0  0  0  0  0  0  0  0  0  0  0  0
  3  7  1  0
  4  3  1  0
  5  2  1  0
  6  2  1  0
  7 11  1  0
  8  5  2  0
  9 15  1  0
 10  6  1  0
 11 30  1  0
 12  8  1  0
 13  9  1  0
 14 17  1  0
 15 16  1  0
 16  7  1  0
 17  6  1  0
 18  5  1  0
 19  4  1  0
 20 29  1  0
 21 13  2  0
 22 24  1  0
 23 19  2  0
 24 18  2  0
 25 22  1  0
 26 21  1  0
 27 10  1  0
 28 11  1  0
 29 10  1  0
 30 20  1  0
 14  8  1  0
 12 22  2  0
  9  4  2  0
 21 23  1  0
M  END
> <chembl_id>
CHEMBL1201731

> <chembl_pref_name>
NEBIVOLOL HYDROCHLORIDE
