
     RDKit          2D

 35 36  0  0  0  0  0  0  0  0999 V2000
   13.0130    0.9935    0.0000 Na  0  0  0  0  0 15  0  0  0  0  0  0
    9.9725   -0.3958    0.0000 C   0  0  0  0  0  0  0  0  0  0  0  0
   10.6213    0.8774    0.0000 C   0  0  0  0  0  0  0  0  0  0  0  0
    9.9294    0.4281    0.0000 C   0  0  0  0  0  0  0  0  0  0  0  0
    9.2807   -0.8451    0.0000 C   0  0  0  0  0  0  0  0  0  0  0  0
   10.7077   -0.7703    0.0000 C   0  0  0  0  0  0  0  0  0  0  0  0
   11.3564    0.5029    0.0000 C   0  0  0  0  0  0  0  0  0  0  0  0
   10.7508   -1.5942    0.0000 C   0  0  0  0  0  0  0  0  0  0  0  0
    9.3239   -1.6690    0.0000 C   0  0  0  0  0  0  0  0  0  0  0  0
   12.0482    0.9522    0.0000 O   0  0  0  0  0  0  0  0  0  0  0  0
   10.5781    1.7013    0.0000 C   0  0  0  0  0  0  0  0  0  0  0  0
   10.0589   -2.0435    0.0000 O   0  0  0  0  0  0  0  0  0  0  0  0
    9.1944    0.8027    0.0000 C   0  0  0  0  0  0  0  0  0  0  0  0
    9.8430    2.0758    0.0000 C   0  0  0  0  0  0  0  0  0  0  0  0
    9.1512    1.6265    0.0000 C   0  0  0  0  0  0  0  0  0  0  0  0
    8.6320   -2.1183    0.0000 C   0  0  0  0  0  0  0  0  0  0  0  0
   11.4859   -1.9687    0.0000 C   0  0  0  0  0  0  0  0  0  0  0  0
   12.1778   -1.5194    0.0000 C   0  0  0  0  0  0  0  0  0  0  0  0
    7.8968   -1.7437    0.0000 C   0  0  0  0  0  0  0  0  0  0  0  0
    8.5456   -0.4705    0.0000 C   0  0  0  0  0  0  0  0  0  0  0  0
   11.3996   -0.3210    0.0000 C   0  0  0  0  0  0  0  0  0  0  0  0
    7.8537   -0.9199    0.0000 C   0  0  0  0  0  0  0  0  0  0  0  0
   12.1346   -0.6955    0.0000 C   0  0  0  0  0  0  0  0  0  0  0  0
   11.8756   -0.1382    0.0000 O   0  0  0  0  0  0  0  0  0  0  0  0
   12.8265   -0.2462    0.0000 I   0  0  0  0  0  0  0  0  0  0  0  0
    7.1186   -0.5453    0.0000 I   0  0  0  0  0  0  0  0  0  0  0  0
   12.9129   -1.8939    0.0000 O   0  0  0  0  0  0  0  0  0  0  0  0
    7.2049   -2.1931    0.0000 O   0  0  0  0  0  0  0  0  0  0  0  0
   11.2701    2.1506    0.0000 Cl  0  0  0  0  0  0  0  0  0  0  0  0
    8.5024    0.3533    0.0000 Cl  0  0  0  0  0  0  0  0  0  0  0  0
    9.7998    2.8997    0.0000 Cl  0  0  0  0  0  0  0  0  0  0  0  0
    8.4161    2.0011    0.0000 Cl  0  0  0  0  0  0  0  0  0  0  0  0
    8.6751   -2.9422    0.0000 I   0  0  0  0  0  0  0  0  0  0  0  0
   11.5291   -2.7926    0.0000 I   0  0  0  0  0  0  0  0  0  0  0  0
   13.6169   -1.9481    0.0000 Na  0  0  0  0  0 15  0  0  0  0  0  0
  3  4  2  0
  4  2  1  0
  5  2  2  0
  6  2  1  0
  7 10  1  0
  8  6  2  0
  9  5  1  0
 11  3  1  0
 12  8  1  0
 13  4  1  0
 14 15  1  0
 15 13  2  0
 16  9  2  0
 17  8  1  0
 18 23  1  0
 19 22  1  0
 20  5  1  0
 21  6  1  0
 22 20  2  0
 23 21  2  0
 24  7  2  0
 25 23  1  0
 26 22  1  0
 27 18  1  0
 28 19  2  0
 29 11  1  0
 30 13  1  0
 31 14  1  0
 32 15  1  0
 33 16  1  0
 34 17  1  0
  7  3  1  0
 12  9  1  0
 17 18  2  0
 19 16  1  0
 14 11  2  0
M  CHG  4   1   1  10  -1  27  -1  35   1
M  END
> <chembl_id>
CHEMBL2359093

> <chembl_pref_name>
ROSE BENGAL SODIUM
