
     RDKit          2D

 32 32  0  0  0  0  0  0  0  0999 V2000
    0.3875   -5.9500    0.0000 N   0  0  0  0  0  0  0  0  0  0  0  0
    1.0000   -5.5917    0.0000 C   0  0  0  0  0  0  0  0  0  0  0  0
    1.6167   -5.9417    0.0000 N   0  0  0  0  0  0  0  0  0  0  0  0
   -0.2208   -5.5917    0.0000 C   0  0  0  0  0  0  0  0  0  0  0  0
    0.4000   -6.6542    0.0000 C   0  0  0  0  0  0  0  0  0  0  0  0
   -0.2083   -7.7250    0.0000 N   0  0  0  0  0  0  0  0  0  0  0  0
   -0.2125   -7.0125    0.0000 C   0  0  0  0  0  0  0  0  0  0  0  0
   -0.8375   -5.9542    0.0000 C   0  0  0  0  0  0  0  0  0  0  0  0
    0.9875   -4.8792    0.0000 C   0  0  0  0  0  0  0  0  0  0  0  0
    2.2250   -5.5792    0.0000 C   0  0  0  0  0  0  0  0  0  0  0  0
    0.4125   -8.0667    0.0000 C   0  0  0  0  0  0  0  0  0  0  0  0
   -0.8208   -8.0792    0.0000 C   0  0  0  0  0  0  0  0  0  0  0  0
   -1.4583   -5.6042    0.0000 C   0  0  0  0  0  0  0  0  0  0  0  0
   -0.8250   -6.6625    0.0000 C   0  0  0  0  0  0  0  0  0  0  0  0
    1.6042   -4.5167    0.0000 C   0  0  0  0  0  0  0  0  0  0  0  0
    2.2250   -4.8667    0.0000 C   0  0  0  0  0  0  0  0  0  0  0  0
   -1.4458   -7.0167    0.0000 C   0  0  0  0  0  0  0  0  0  0  0  0
   -2.0708   -5.9542    0.0000 C   0  0  0  0  0  0  0  0  0  0  0  0
   -2.0583   -6.6667    0.0000 C   0  0  0  0  0  0  0  0  0  0  0  0
    4.0625   -6.4250    0.0000 C   0  0  0  0  0  0  0  0  0  0  0  0
    4.6792   -6.7792    0.0000 C   0  0  0  0  0  0  0  0  0  0  0  0
    3.4500   -6.7792    0.0000 C   0  0  0  0  0  0  0  0  0  0  0  0
    3.7042   -5.8042    0.0000 C   0  0  0  0  0  0  0  0  0  0  0  0
    3.4500   -7.4875    0.0000 C   0  0  0  0  0  0  0  0  0  0  0  0
    5.2917   -6.4250    0.0000 C   0  0  0  0  0  0  0  0  0  0  0  0
    2.9917   -5.8125    0.0000 O   0  0  0  0  0  0  0  0  0  0  0  0
    4.0625   -7.8417    0.0000 O   0  0  0  0  0  0  0  0  0  0  0  0
    5.2917   -5.7167    0.0000 O   0  0  0  0  0  0  0  0  0  0  0  0
    4.4125   -5.8042    0.0000 O   0  0  0  0  0  0  0  0  0  0  0  0
    4.0542   -5.1917    0.0000 O   0  0  0  0  0  0  0  0  0  0  0  0
    5.9042   -6.7792    0.0000 O   0  0  0  0  0  0  0  0  0  0  0  0
    2.8375   -7.8417    0.0000 O   0  0  0  0  0  0  0  0  0  0  0  0
  2  1  1  0
  3  2  2  0
  4  1  1  0
  5  1  1  0
  6  7  1  0
  7  5  1  0
  8  4  1  0
  9  2  1  0
 10  3  1  0
 11  6  1  0
 12  6  1  0
 13  8  2  0
 14  8  1  0
 15  9  2  0
 16 15  1  0
 17 14  2  0
 18 13  1  0
 19 17  1  0
 16 10  2  0
 19 18  2  0
 21 20  1  0
 22 20  1  0
 23 20  1  0
 24 22  1  0
 25 21  1  0
 26 23  2  0
 27 24  2  0
 28 25  2  0
 29 20  1  0
 30 23  1  0
 31 25  1  0
 32 24  1  0
M  END
> <chembl_id>
CHEMBL1200769

> <chembl_pref_name>
TRIPELENNAMINE CITRATE
