
     RDKit          2D

 22 24  0  0  0  0  0  0  0  0999 V2000
    2.3061  -21.2519    0.0000 C   0  0  0  0  0  0  0  0  0  0  0  0
    1.8526  -20.5861    0.0000 N   0  0  0  0  0  0  0  0  0  0  0  0
    1.8526  -21.8404    0.0000 N   0  0  0  0  0  0  0  0  0  0  0  0
    3.1552  -21.2519    0.0000 N   0  0  0  0  0  0  0  0  0  0  0  0
    1.0470  -21.6426    0.0000 C   0  0  0  0  0  0  0  0  0  0  0  0
    1.0470  -20.8177    0.0000 C   0  0  0  0  0  0  0  0  0  0  0  0
    5.0078  -21.2229    0.0000 N   0  0  0  0  0  0  0  0  0  0  0  0
    3.6522  -20.6006    0.0000 C   0  0  0  0  0  0  0  0  0  0  0  0
    4.4916  -20.6006    0.0000 C   0  0  0  0  0  0  0  0  0  0  0  0
    1.8526  -22.7860    0.0000 C   0  0  0  0  0  0  0  0  0  0  0  0
    4.1105  -22.3229    0.0000 C   0  0  0  0  0  0  0  0  0  0  0  0
    3.4206  -22.0141    0.0000 C   0  0  0  0  0  0  0  0  0  0  0  0
    4.8679  -21.9321    0.0000 C   0  0  0  0  0  0  0  0  0  0  0  0
    0.2895  -22.0190    0.0000 C   0  0  0  0  0  0  0  0  0  0  0  0
    0.2895  -20.3931    0.0000 C   0  0  0  0  0  0  0  0  0  0  0  0
    5.8521  -21.2229    0.0000 C   0  0  0  0  0  0  0  0  0  0  0  0
    3.2565  -22.7716    0.0000 O   0  0  0  0  0  0  0  0  0  0  0  0
    2.5522  -23.1864    0.0000 C   0  0  0  0  0  0  0  0  0  0  0  0
    3.9706  -23.1864    0.0000 C   0  0  0  0  0  0  0  0  0  0  0  0
   -0.4293  -21.6426    0.0000 C   0  0  0  0  0  0  0  0  0  0  0  0
   -0.4293  -20.8177    0.0000 C   0  0  0  0  0  0  0  0  0  0  0  0
    4.6653  -22.7716    0.0000 C   0  0  0  0  0  0  0  0  0  0  0  0
  2  1  2  0
  3  1  1  0
  4  1  1  0
  5  3  1  0
  6  2  1  0
  7  9  1  0
  8  4  1  0
  9  8  1  0
 10  3  1  0
 11 12  1  0
 12  4  1  0
 13 11  1  0
 14  5  1  0
 15  6  1  0
 16  7  1  0
 17 18  1  0
 18 10  1  0
 19 17  1  0
 20 14  2  0
 21 15  2  0
 22 19  1  0
  5  6  2  0
 13  7  1  0
 20 21  1  0
M  END
> <chembl_id>
CHEMBL594

> <chembl_pref_name>
EMEDASTINE
