
     RDKit          2D

 13 13  0  0  0  0  0  0  0  0999 V2000
    6.7474    3.4605    0.0000 Cl  0  0  0  0  0  0  0  0  0  0  0  0
    4.5036    4.1565    0.0000 C   0  0  0  0  0  0  0  0  0  0  0  0
    4.0911    4.8709    0.0000 C   0  0  0  0  0  0  0  0  0  0  0  0
    3.2661    4.8709    0.0000 C   0  0  0  0  0  0  0  0  0  0  0  0
    2.8536    4.1565    0.0000 C   0  0  0  0  0  0  0  0  0  0  0  0
    3.2661    3.4420    0.0000 C   0  0  0  0  0  0  0  0  0  0  0  0
    4.0911    3.4420    0.0000 C   0  0  0  0  0  0  0  0  0  0  0  0
    5.2181    4.5690    0.0000 C   0  0  0  0  0  0  0  0  0  0  0  0
    5.3005    3.9429    0.0000 C   0  0  0  0  0  0  0  0  0  0  0  0
    3.8776    2.6451    0.0000 C   0  0  0  0  0  0  0  0  0  0  0  0
    4.8056    3.0295    0.0000 N   0  0  0  0  0  0  0  0  0  0  0  0
    4.8056    2.2045    0.0000 C   0  0  0  0  0  0  0  0  0  0  0  0
    3.4796    4.2389    0.0000 C   0  0  0  0  0  0  0  0  0  0  0  0
  2  3  1  0
  3  4  1  0
  4  5  1  0
  5  6  1  0
  6  7  1  0
  7  2  1  0
  2  8  1  0
  2  9  1  0
  7 10  1  0
  7 11  1  0
 11 12  1  0
  6 13  1  0
  3 13  1  0
M  END
> <chembl_id>
CHEMBL1237082

> <chembl_pref_name>
MECAMYLAMINE HYDROCHLORIDE
