
     RDKit          2D

 13 12  0  0  0  0  0  0  0  0999 V2000
   -3.0643   -2.6813    0.0000 N   0  0  0  0  0  0  0  0  0  0  0  0
   -2.3498   -2.2688    0.0000 C   0  0  0  0  0  0  0  0  0  0  0  0
   -1.6353   -2.6813    0.0000 N   0  0  0  0  0  0  0  0  0  0  0  0
   -0.9209   -2.2688    0.0000 C   0  0  0  0  0  0  0  0  0  0  0  0
   -0.2064   -2.6813    0.0000 C   0  0  0  0  0  0  0  0  0  0  0  0
    0.5081   -2.2688    0.0000 C   0  0  0  0  0  0  0  0  0  0  0  0
    1.2225   -2.6813    0.0000 C   0  0  0  0  0  0  0  0  0  0  0  0
    1.9370   -2.2688    0.0000 O   0  0  0  0  0  0  0  0  0  0  0  0
    1.2225   -3.5063    0.0000 O   0  0  0  0  0  0  0  0  0  0  0  0
   -0.9209   -1.4438    0.0000 C   0  0  0  0  0  0  0  0  0  0  0  0
   -0.2064   -1.0313    0.0000 O   0  0  0  0  0  0  0  0  0  0  0  0
   -1.6353   -1.0313    0.0000 O   0  0  0  0  0  0  0  0  0  0  0  0
   -2.3498   -1.4438    0.0000 O   0  0  0  0  0  0  0  0  0  0  0  0
  1  2  1  0
  2  3  1  0
  4  3  1  6
  4  5  1  0
  5  6  1  0
  6  7  1  0
  7  8  1  0
  7  9  2  0
  4 10  1  0
 10 11  2  0
 10 12  1  0
  2 13  2  0
M  END
> <chembl_id>
CHEMBL1201780

> <chembl_pref_name>
CARGLUMIC ACID
