
     RDKit          2D

 15 16  0  0  1  0  0  0  0  0999 V2000
    0.3625    0.0583    0.0000 C   0  0  0  0  0  0  0  0  0  0  0  0
   -2.0708    0.0625    0.0000 C   0  0  0  0  0  0  0  0  0  0  0  0
   -3.4458    0.5458    0.0000 N   0  0  0  0  0  0  0  0  0  0  0  0
    1.7292    0.6333    0.0000 C   0  0  0  0  0  0  0  0  0  0  0  0
   -0.8583    0.8583    0.0000 C   0  0  0  0  0  0  0  0  0  0  0  0
   -3.4083   -1.9292    0.0000 N   0  0  0  0  0  0  0  0  0  0  0  0
   -4.3458   -0.6792    0.0000 C   0  0  0  0  0  0  0  0  0  0  0  0
   -1.9958   -1.4250    0.0000 C   0  0  0  0  0  0  0  0  0  0  0  0
    2.9417   -0.2792    0.0000 C   0  0  0  0  0  0  0  0  0  0  0  0
    0.1667   -1.4667    0.0000 C   0  0  0  0  0  0  0  0  0  0  0  0
    1.9167    2.1458    0.0000 C   0  0  0  0  0  0  0  0  0  0  0  0
   -0.8583    2.3833    0.0000 C   0  0  0  0  0  0  0  0  0  0  0  0
    1.3542   -2.3750    0.0000 C   0  0  0  0  0  0  0  0  0  0  0  0
    2.7500   -1.7917    0.0000 C   0  0  0  0  0  0  0  0  0  0  0  0
    4.3375    0.3083    0.0000 C   0  0  0  0  0  0  0  0  0  0  0  0
  2  5  1  0
  3  2  1  0
  4  1  1  0
  5  1  1  0
  6  8  1  0
  7  3  2  0
  8  2  2  0
  9  4  2  0
 10  1  2  0
 11  4  1  0
  5 12  1  1
 13 10  1  0
 14 13  2  0
 15  9  1  0
  9 14  1  0
  6  7  1  0
M  END
> <chembl_id>
CHEMBL778

> <chembl_pref_name>
DEXMEDETOMIDINE
