
     RDKit          2D

 16 16  0  0  0  0  0  0  0  0999 V2000
   -0.4833    1.3708    0.0000 C   0  0  0  0  0  0  0  0  0  0  0  0
    0.6792    0.7083    0.0000 C   0  0  0  0  0  0  0  0  0  0  0  0
    0.6542   -0.6417    0.0000 C   0  0  0  0  0  0  0  0  0  0  0  0
   -1.6500    0.6750    0.0000 C   0  0  0  0  0  0  0  0  0  0  0  0
   -0.4833   -1.3667    0.0000 C   0  0  0  0  0  0  0  0  0  0  0  0
   -1.6500   -0.6792    0.0000 C   0  0  0  0  0  0  0  0  0  0  0  0
   -0.4833    2.7208    0.0000 C   0  0  0  0  0  0  0  0  0  0  0  0
    1.9375   -1.2750    0.0000 N   0  0  0  0  0  0  0  0  0  0  0  0
    1.9375   -2.5500    0.0000 C   0  0  0  0  0  0  0  0  0  0  0  0
   -1.6500    3.3833    0.0000 O   0  0  0  0  0  0  0  0  0  0  0  0
    1.8750    1.3708    0.0000 I   0  0  0  0  0  0  0  0  0  0  0  0
    0.7667   -3.2542    0.0000 O   0  0  0  0  0  0  0  0  0  0  0  0
   -2.8833    1.3708    0.0000 I   0  0  0  0  0  0  0  0  0  0  0  0
   -0.4833   -2.7167    0.0000 I   0  0  0  0  0  0  0  0  0  0  0  0
    0.6792    3.3833    0.0000 O   0  0  0  0  0  0  0  0  0  0  0  0
    3.1292   -3.1625    0.0000 C   0  0  0  0  0  0  0  0  0  0  0  0
  2  1  1  0
  3  2  2  0
  4  1  2  0
  5  6  2  0
  6  4  1  0
  7  1  1  0
  8  3  1  0
  9  8  1  0
 10  7  2  0
 11  2  1  0
 12  9  2  0
 13  4  1  0
 14  5  1  0
 15  7  1  0
 16  9  1  0
  3  5  1  0
M  END
> <chembl_id>
CHEMBL1201327

> <chembl_pref_name>
ACETRIZOIC ACID
