
     RDKit          2D

 21 21  0  0  0  0  0  0  0  0999 V2000
   16.3527  -79.7893    0.0000 Cl  0  0  0  0  0  0  0  0  0  0  0  0
   10.4082  -81.4982    0.0000 C   0  0  0  0  0  0  0  0  0  0  0  0
   10.4082  -80.6732    0.0000 C   0  0  0  0  0  0  0  0  0  0  0  0
    9.6937  -80.2607    0.0000 N   0  0  0  0  0  0  0  0  0  0  0  0
    8.9793  -80.6732    0.0000 C   0  0  0  0  0  0  0  0  0  0  0  0
    8.9793  -81.4982    0.0000 C   0  0  0  0  0  0  0  0  0  0  0  0
    9.6938  -81.9107    0.0000 C   0  0  0  0  0  0  0  0  0  0  0  0
    9.6937  -79.4357    0.0000 C   0  0  0  0  0  0  0  0  0  0  0  0
   10.4082  -79.0232    0.0000 C   0  0  0  0  0  0  0  0  0  0  0  0
   10.4082  -78.1982    0.0000 C   0  0  0  0  0  0  0  0  0  0  0  0
   11.1227  -80.2607    0.0000 C   0  0  0  0  0  0  0  0  0  0  0  0
   11.1227  -79.4357    0.0000 O   0  0  0  0  0  0  0  0  0  0  0  0
   11.8372  -80.6732    0.0000 N   0  0  0  0  0  0  0  0  0  0  0  0
   12.5516  -80.2607    0.0000 C   0  0  0  0  0  0  0  0  0  0  0  0
   13.2661  -80.6732    0.0000 C   0  0  0  0  0  0  0  0  0  0  0  0
   13.9806  -80.2607    0.0000 C   0  0  0  0  0  0  0  0  0  0  0  0
   13.9806  -79.4357    0.0000 C   0  0  0  0  0  0  0  0  0  0  0  0
   13.2661  -79.0232    0.0000 C   0  0  0  0  0  0  0  0  0  0  0  0
   12.5516  -79.4357    0.0000 C   0  0  0  0  0  0  0  0  0  0  0  0
   11.8371  -79.0232    0.0000 C   0  0  0  0  0  0  0  0  0  0  0  0
   13.2661  -81.4982    0.0000 C   0  0  0  0  0  0  0  0  0  0  0  0
  2  3  1  0
  3  4  1  0
  4  5  1  0
  5  6  1  0
  6  7  1  0
  7  2  1  0
  4  8  1  0
  8  9  1  0
  9 10  1  0
  3 11  1  6
 11 12  2  0
 11 13  1  0
 13 14  1  0
 14 15  1  0
 14 19  2  0
 15 16  2  0
 16 17  1  0
 17 18  2  0
 18 19  1  0
 19 20  1  0
 15 21  1  0
M  END
> <chembl_id>
CHEMBL1889140

> <chembl_pref_name>
ROPIVACAINE HYDROCHLORIDE
