
     RDKit          2D

 29 28  0  0  0  0  0  0  0  0999 V2000
    5.1609   -6.5935    0.0000 C   0  0  0  0  0  0  0  0  0  0  0  0
    5.1609   -5.7821    0.0000 N   0  0  0  0  0  0  0  0  0  0  0  0
    4.4364   -6.9992    0.0000 N   0  0  0  0  0  0  0  0  0  0  0  0
    0.8721   -6.6225    0.0000 I   0  0  0  0  0  0  0  0  0  0  0  0
    5.8564   -6.9992    0.0000 N   0  0  0  0  0  0  0  0  0  0  0  0
    1.5676   -7.0137    0.0000 C   0  0  0  0  0  0  0  0  0  0  0  0
    3.7410   -6.5935    0.0000 C   0  0  0  0  0  0  0  0  0  0  0  0
    2.2775   -6.6080    0.0000 C   0  0  0  0  0  0  0  0  0  0  0  0
    2.9875   -6.9992    0.0000 C   0  0  0  0  0  0  0  0  0  0  0  0
    2.2775   -8.2598    0.0000 C   0  0  0  0  0  0  0  0  0  0  0  0
    1.5676   -7.8396    0.0000 C   0  0  0  0  0  0  0  0  0  0  0  0
    2.9875   -7.8396    0.0000 C   0  0  0  0  0  0  0  0  0  0  0  0
    7.6118   -4.7670    0.0000 S   0  0  0  0  0  0  0  0  0  0  0  0
    8.3217   -5.1823    0.0000 O   0  0  0  0  0  0  0  0  0  0  0  0
    6.9018   -5.1823    0.0000 O   0  0  0  0  0  0  0  0  0  0  0  0
    7.1916   -4.0521    0.0000 O   0  0  0  0  0  0  0  0  0  0  0  0
    8.0175   -4.0521    0.0000 O   0  0  0  0  0  0  0  0  0  0  0  0
    4.7139   -3.9701    0.0000 C   0  0  0  0  0  0  0  0  0  0  0  0
    4.7139   -3.1587    0.0000 N   0  0  0  0  0  0  0  0  0  0  0  0
    3.9894   -4.3758    0.0000 N   0  0  0  0  0  0  0  0  0  0  0  0
    0.4251   -3.9990    0.0000 I   0  0  0  0  0  0  0  0  0  0  0  0
    5.4094   -4.3758    0.0000 N   0  0  0  0  0  0  0  0  0  0  0  0
    1.1205   -4.3903    0.0000 C   0  0  0  0  0  0  0  0  0  0  0  0
    3.2939   -3.9701    0.0000 C   0  0  0  0  0  0  0  0  0  0  0  0
    1.8305   -3.9846    0.0000 C   0  0  0  0  0  0  0  0  0  0  0  0
    2.5405   -4.3758    0.0000 C   0  0  0  0  0  0  0  0  0  0  0  0
    1.8305   -5.6363    0.0000 C   0  0  0  0  0  0  0  0  0  0  0  0
    1.1205   -5.2161    0.0000 C   0  0  0  0  0  0  0  0  0  0  0  0
    2.5405   -5.2161    0.0000 C   0  0  0  0  0  0  0  0  0  0  0  0
  2  1  2  0
  3  1  1  0
  4  6  1  0
  5  1  1  0
  6  8  2  0
  7  3  1  0
  8  9  1  0
  9  7  1  0
 10 12  1  0
 11 10  2  0
 12  9  2  0
  6 11  1  0
 14 13  1  0
 15 13  1  0
 16 13  2  0
 17 13  2  0
 19 18  2  0
 20 18  1  0
 21 23  1  0
 22 18  1  0
 23 25  2  0
 24 20  1  0
 25 26  1  0
 26 24  1  0
 27 29  1  0
 28 27  2  0
 29 26  2  0
 23 28  1  0
M  ISO  2   4 131  21 131
M  END
> <chembl_id>
CHEMBL3989511

> <chembl_pref_name>
IOBENGUANE SULFATE I 131
