
     RDKit          2D

 17 17  0  0  0  0  0  0  0  0999 V2000
   -0.5625    1.5708    0.0000 C   0  0  0  0  0  0  0  0  0  0  0  0
   -0.5625   -0.8375    0.0000 C   0  0  0  0  0  0  0  0  0  0  0  0
    0.1250    0.3833    0.0000 C   0  0  0  0  0  0  0  0  0  0  0  0
   -1.9458    1.5833    0.0000 N   0  0  0  0  0  0  0  0  0  0  0  0
   -1.9500   -0.8417    0.0000 N   0  0  0  0  0  0  0  0  0  0  0  0
   -2.6583    0.3500    0.0000 C   0  0  0  0  0  0  0  0  0  0  0  0
   -4.0958    0.3500    0.0000 S   0  0  0  0  0  0  0  0  0  0  0  0
    0.1292    2.7875    0.0000 O   0  0  0  0  0  0  0  0  0  0  0  0
    0.1250   -2.0917    0.0000 O   0  0  0  0  0  0  0  0  0  0  0  0
    1.3417    0.8000    0.0000 C   0  0  0  0  0  0  0  0  0  0  0  0
    0.7417   -1.9792    0.0000 C   0  0  0  0  0  0  0  0  0  0  0  0
    1.1000   -0.6292    0.0000 C   0  0  0  0  0  0  0  0  0  0  0  0
    1.7375   -2.9917    0.0000 C   0  0  0  0  0  0  0  0  0  0  0  0
    2.4292    0.1833    0.0000 C   0  0  0  0  0  0  0  0  0  0  0  0
    1.4000    1.8500    0.0000 C   0  0  0  0  0  0  0  0  0  0  0  0
    3.3375    1.0000    0.0000 C   0  0  0  0  0  0  0  0  0  0  0  0
    4.3417    0.5958    0.0000 C   0  0  0  0  0  0  0  0  0  0  0  0
  2  3  1  0
  3  1  1  0
  4  1  1  0
  5  6  1  0
  6  4  1  0
  7  6  2  0
  8  1  2  0
  9  2  2  0
 10  3  1  0
 11 12  1  0
 12  3  1  0
 13 11  2  0
 14 10  1  0
 15 10  1  0
 16 14  1  0
 17 16  1  0
  2  5  1  0
M  END
> <chembl_id>
CHEMBL440

> <chembl_pref_name>
THIAMYLAL
