
     RDKit          2D

 28 32  0  0  0  0  0  0  0  0999 V2000
    6.9542   -6.0625    0.0000 Cl  0  0  0  0  0  0  0  0  0  0  0  0
    6.5250   -4.8042    0.0000 C   0  0  0  0  0  0  0  0  0  0  0  0
    6.8792   -4.1917    0.0000 C   0  0  0  0  0  0  0  0  0  0  0  0
    5.8167   -4.8042    0.0000 C   0  0  0  0  0  0  0  0  0  0  0  0
    6.8667   -5.4167    0.0000 C   0  0  0  0  0  0  0  0  0  0  0  0
    5.4667   -5.4167    0.0000 C   0  0  0  0  0  0  0  0  0  0  0  0
    6.1417   -5.7667    0.0000 O   0  0  0  0  0  0  0  0  0  0  0  0
    6.5292   -3.5875    0.0000 C   0  0  0  0  0  0  0  0  0  0  0  0
    6.8792   -2.9750    0.0000 N   0  0  0  0  0  0  0  0  0  0  0  0
    5.4667   -4.1917    0.0000 C   0  0  0  0  0  0  0  0  0  0  0  0
    5.8167   -3.5792    0.0000 C   0  0  0  0  0  0  0  0  0  0  0  0
    6.1667   -4.1875    0.0000 C   0  0  0  0  0  0  0  0  0  0  0  0
    7.5792   -4.1958    0.0000 C   0  0  0  0  0  0  0  0  0  0  0  0
    7.5750   -5.4167    0.0000 C   0  0  0  0  0  0  0  0  0  0  0  0
    7.4917   -2.6167    0.0000 C   0  0  0  0  0  0  0  0  0  0  0  0
    4.7625   -5.4167    0.0000 C   0  0  0  0  0  0  0  0  0  0  0  0
    6.1750   -2.9750    0.0000 C   0  0  0  0  0  0  0  0  0  0  0  0
    8.1042   -2.9750    0.0000 C   0  0  0  0  0  0  0  0  0  0  0  0
    8.4625   -3.5792    0.0000 C   0  0  0  0  0  0  0  0  0  0  0  0
    8.8167   -2.9667    0.0000 C   0  0  0  0  0  0  0  0  0  0  0  0
    4.7625   -4.1917    0.0000 C   0  0  0  0  0  0  0  0  0  0  0  0
    7.9292   -4.8125    0.0000 C   0  0  0  0  0  0  0  0  0  0  0  0
    7.2292   -3.5792    0.0000 O   0  0  0  0  0  0  0  0  0  0  0  0
    7.9250   -6.0375    0.0000 O   0  0  0  0  0  0  0  0  0  0  0  0
    4.4125   -4.8042    0.0000 C   0  0  0  0  0  0  0  0  0  0  0  0
    4.4042   -6.0292    0.0000 O   0  0  0  0  0  0  0  0  0  0  0  0
    6.0323   -2.7197    0.0000 H   0  0  0  0  0  0  0  0  0  0  0  0
    7.0897   -6.3915    0.0000 H   0  0  0  0  0  0  0  0  0  0  0  0
  3  2  1  0
  4  2  1  0
  5  2  1  0
  6  4  1  0
  5  7  1  0
  8  3  1  0
  9 17  1  0
 10  4  2  0
 11 10  1  0
  2 12  1  1
 13  3  1  0
 14  5  1  0
 15  9  1  0
 16  6  2  0
 17 12  1  0
 18 15  1  0
 19 18  1  0
 20 18  1  0
 21 10  1  0
 22 14  1  0
  3 23  1  1
 24 14  2  0
 25 21  2  0
 26 16  1  0
  7  6  1  0
  8  9  1  0
 22 13  1  0
 11  8  1  0
 16 25  1  0
 19 20  1  0
  8 27  1  6
  5 28  1  1
M  END
> <chembl_id>
CHEMBL1201149

> <chembl_pref_name>
NALTREXONE HYDROCHLORIDE
