
     RDKit          2D

 27 29  0  0  0  0  0  0  0  0999 V2000
   -2.0083    0.2458    0.0000 N   0  0  0  0  0  0  0  0  0  0  0  0
   -1.2208    0.6958    0.0000 C   0  0  0  0  0  0  0  0  0  0  0  0
   -2.7833    0.7083    0.0000 C   0  0  0  0  0  0  0  0  0  0  0  0
    0.6167    0.6958    0.0000 N   0  0  0  0  0  0  0  0  0  0  0  0
    2.9125    1.4583    0.0000 C   0  0  0  0  0  0  0  0  0  0  0  0
    3.4417    0.7083    0.0000 S   0  0  0  0  0  0  0  0  0  0  0  0
   -0.7583    1.4708    0.0000 C   0  0  0  0  0  0  0  0  0  0  0  0
   -0.7583   -0.0917    0.0000 C   0  0  0  0  0  0  0  0  0  0  0  0
    4.3292    0.9750    0.0000 C   0  0  0  0  0  0  0  0  0  0  0  0
    3.4667    2.2083    0.0000 C   0  0  0  0  0  0  0  0  0  0  0  0
   -2.7708    1.6125    0.0000 O   0  0  0  0  0  0  0  0  0  0  0  0
   -2.0250   -0.6625    0.0000 C   0  0  0  0  0  0  0  0  0  0  0  0
    1.9875    1.4708    0.0000 C   0  0  0  0  0  0  0  0  0  0  0  0
    4.3417    1.9000    0.0000 C   0  0  0  0  0  0  0  0  0  0  0  0
    0.1750    1.4708    0.0000 C   0  0  0  0  0  0  0  0  0  0  0  0
    0.1750   -0.0917    0.0000 C   0  0  0  0  0  0  0  0  0  0  0  0
    1.5417    0.6958    0.0000 C   0  0  0  0  0  0  0  0  0  0  0  0
   -2.0083    1.1458    0.0000 C   0  0  0  0  0  0  0  0  0  0  0  0
   -3.5708    0.2708    0.0000 C   0  0  0  0  0  0  0  0  0  0  0  0
   -2.0083    2.0500    0.0000 O   0  0  0  0  0  0  0  0  0  0  0  0
   -2.8208   -1.1125    0.0000 C   0  0  0  0  0  0  0  0  0  0  0  0
   -1.2208   -1.1375    0.0000 C   0  0  0  0  0  0  0  0  0  0  0  0
   -2.7958    2.5000    0.0000 C   0  0  0  0  0  0  0  0  0  0  0  0
   -4.3458    0.7333    0.0000 C   0  0  0  0  0  0  0  0  0  0  0  0
   -2.8208   -2.0417    0.0000 C   0  0  0  0  0  0  0  0  0  0  0  0
   -1.2458   -2.0500    0.0000 C   0  0  0  0  0  0  0  0  0  0  0  0
   -2.0333   -2.5000    0.0000 C   0  0  0  0  0  0  0  0  0  0  0  0
  2  1  1  0
  3  1  1  0
  4 16  1  0
  5 13  1  0
  6  5  1  0
  7  2  1  0
  8  2  1  0
  9  6  1  0
 10  5  2  0
 11  3  2  0
 12  1  1  0
 13 17  1  0
 14 10  1  0
 15  7  1  0
 16  8  1  0
 17  4  1  0
 18  2  1  0
 19  3  1  0
 20 18  1  0
 21 12  2  0
 22 12  1  0
 23 20  1  0
 24 19  1  0
 25 21  1  0
 26 22  2  0
 27 26  1  0
 15  4  1  0
 25 27  2  0
 14  9  2  0
M  END
> <chembl_id>
CHEMBL658

> <chembl_pref_name>
SUFENTANIL
