
     RDKit          2D

 27 27  0  0  0  0  0  0  0  0999 V2000
    0.3241   -7.7196    0.0000 O   0  0  0  0  0  0  0  0  0  0  0  0
    0.1505   -6.0292    0.0000 C   0  0  0  0  0  0  0  0  0  0  0  0
    0.1456   -5.2040    0.0000 C   0  0  0  0  0  0  0  0  0  0  0  0
    0.9369   -6.2767    0.0000 C   0  0  0  0  0  0  0  0  0  0  0  0
    0.9320   -4.9418    0.0000 N   0  0  0  0  0  0  0  0  0  0  0  0
    1.4223   -5.6068    0.0000 C   0  0  0  0  0  0  0  0  0  0  0  0
    1.2767   -7.0244    0.0000 C   0  0  0  0  0  0  0  0  0  0  0  0
    2.5145   -7.8204    0.0000 C   0  0  0  0  0  0  0  0  0  0  0  0
    2.0971   -7.1117    0.0000 C   0  0  0  0  0  0  0  0  0  0  0  0
   -0.5680   -6.4418    0.0000 C   0  0  0  0  0  0  0  0  0  0  0  0
   -0.5680   -4.7913    0.0000 C   0  0  0  0  0  0  0  0  0  0  0  0
    2.2378   -5.6893    0.0000 C   0  0  0  0  0  0  0  0  0  0  0  0
    2.1068   -8.5389    0.0000 O   0  0  0  0  0  0  0  0  0  0  0  0
    2.5777   -6.4369    0.0000 C   0  0  0  0  0  0  0  0  0  0  0  0
    3.3399   -7.8155    0.0000 N   0  0  0  0  0  0  0  0  0  0  0  0
   -1.2767   -6.0292    0.0000 C   0  0  0  0  0  0  0  0  0  0  0  0
   -1.9952   -6.4369    0.0000 N   0  0  0  0  0  0  0  0  0  0  0  0
   -1.2767   -5.2040    0.0000 C   0  0  0  0  0  0  0  0  0  0  0  0
   -2.7088   -6.0243    0.0000 C   0  0  0  0  0  0  0  0  0  0  0  0
   -1.2803   -8.7699    0.0000 C   0  0  0  0  0  0  0  0  0  0  0  0
   -3.4162   -8.3330    0.0000 C   0  0  0  0  0  0  0  0  0  0  0  0
   -1.2949   -9.6000    0.0000 O   0  0  0  0  0  0  0  0  0  0  0  0
   -3.4016   -7.5029    0.0000 O   0  0  0  0  0  0  0  0  0  0  0  0
   -1.9842   -8.3524    0.0000 C   0  0  0  0  0  0  0  0  0  0  0  0
   -2.7075   -8.7553    0.0000 C   0  0  0  0  0  0  0  0  0  0  0  0
   -0.5570   -8.3670    0.0000 O   0  0  0  0  0  0  0  0  0  0  0  0
   -4.1347   -8.7360    0.0000 O   0  0  0  0  0  0  0  0  0  0  0  0
  3  2  2  0
  4  2  1  0
  5  3  1  0
  6  4  2  0
  7  4  1  0
  8  9  1  0
  9  7  2  0
 10  2  1  0
 11  3  1  0
 12  6  1  0
 13  8  2  0
 14  9  1  0
 15  8  1  0
 16 10  1  0
 16 17  1  6
 18 16  1  0
 19 17  1  0
  5  6  1  0
 11 18  1  0
 12 14  2  0
 21 25  1  0
 22 20  2  0
 23 21  2  0
 24 20  1  0
 25 24  1  0
 26 20  1  0
 27 21  1  0
M  END
> <chembl_id>
CHEMBL2138684

> <chembl_pref_name>
FROVATRIPTAN SUCCINATE
