
     RDKit          2D

 28 30  0  0  0  0  0  0  0  0999 V2000
    4.6917   -1.1042    0.0000 N   0  0  0  0  0  0  0  0  0  0  0  0
    5.2417   -0.4917    0.0000 C   0  0  0  0  0  0  0  0  0  0  0  0
    3.9375   -0.7667    0.0000 C   0  0  0  0  0  0  0  0  0  0  0  0
    4.8292    0.2250    0.0000 S   0  0  0  0  0  0  0  0  0  0  0  0
    2.5083   -0.7667    0.0000 C   0  0  0  0  0  0  0  0  0  0  0  0
    3.2208   -1.1792    0.0000 C   0  0  0  0  0  0  0  0  0  0  0  0
    4.0208    0.0542    0.0000 C   0  0  0  0  0  0  0  0  0  0  0  0
    1.7917   -1.1792    0.0000 N   0  0  0  0  0  0  0  0  0  0  0  0
    2.5083    0.0583    0.0000 O   0  0  0  0  0  0  0  0  0  0  0  0
    6.0625   -0.5750    0.0000 N   0  0  0  0  0  0  0  0  0  0  0  0
   -4.6375    0.0583    0.0000 C   0  0  0  0  0  0  0  0  0  0  0  0
    1.0792   -0.7667    0.0000 C   0  0  0  0  0  0  0  0  0  0  0  0
   -3.9250    0.4708    0.0000 C   0  0  0  0  0  0  0  0  0  0  0  0
   -2.4958    0.4708    0.0000 N   0  0  0  0  0  0  0  0  0  0  0  0
   -0.3500    0.0583    0.0000 C   0  0  0  0  0  0  0  0  0  0  0  0
    0.3625   -1.1792    0.0000 C   0  0  0  0  0  0  0  0  0  0  0  0
    1.0792    0.0583    0.0000 C   0  0  0  0  0  0  0  0  0  0  0  0
   -0.3500   -0.7667    0.0000 C   0  0  0  0  0  0  0  0  0  0  0  0
    0.3625    0.4708    0.0000 C   0  0  0  0  0  0  0  0  0  0  0  0
   -3.5125    1.1833    0.0000 O   0  0  0  0  0  0  0  0  0  0  0  0
   -3.2083    0.0583    0.0000 C   0  0  0  0  0  0  0  0  0  0  0  0
   -4.6375   -0.7667    0.0000 C   0  0  0  0  0  0  0  0  0  0  0  0
   -5.3500    0.4708    0.0000 C   0  0  0  0  0  0  0  0  0  0  0  0
   -1.7792    0.0583    0.0000 C   0  0  0  0  0  0  0  0  0  0  0  0
   -1.0667    0.4708    0.0000 C   0  0  0  0  0  0  0  0  0  0  0  0
   -5.3500   -1.1792    0.0000 C   0  0  0  0  0  0  0  0  0  0  0  0
   -6.0625    0.0583    0.0000 C   0  0  0  0  0  0  0  0  0  0  0  0
   -6.0625   -0.7667    0.0000 C   0  0  0  0  0  0  0  0  0  0  0  0
  2  1  2  0
  3  1  1  0
  4  2  1  0
  5  6  1  0
  6  3  1  0
  7  3  2  0
  8  5  1  0
  9  5  2  0
 10  2  1  0
 11 13  1  0
 12  8  1  0
 13 21  1  0
 14 24  1  0
 15 19  1  0
 16 12  2  0
 17 12  1  0
 18 16  1  0
 19 17  2  0
 13 20  1  1
 21 14  1  0
 22 11  2  0
 23 11  1  0
 24 25  1  0
 25 15  1  0
 26 22  1  0
 27 23  2  0
 28 27  1  0
  7  4  1  0
 18 15  2  0
 26 28  2  0
M  END
> <chembl_id>
CHEMBL2095212

> <chembl_pref_name>
MIRABEGRON
