
     RDKit          2D

 37 41  0  0  0  0  0  0  0  0999 V2000
    0.2113   -2.5359    0.0000 Cl  0  0  0  0  0  0  0  0  0  0  0  0
   -1.4211    1.4663    0.0000 C   0  0  0  0  0  0  0  0  0  0  0  0
   -2.1317    0.2256    0.0000 C   0  0  0  0  0  0  0  0  0  0  0  0
   -2.1317    1.0489    0.0000 C   0  0  0  0  0  0  0  0  0  0  0  0
    0.7106    1.0489    0.0000 C   0  0  0  0  0  0  0  0  0  0  0  0
    0.7106    0.2256    0.0000 C   0  0  0  0  0  0  0  0  0  0  0  0
    3.5867    0.2256    0.0000 C   0  0  0  0  0  0  0  0  0  0  0  0
    2.8479    1.4493    0.0000 C   0  0  0  0  0  0  0  0  0  0  0  0
    2.1430    1.0489    0.0000 C   0  0  0  0  0  0  0  0  0  0  0  0
    1.4211   -0.1861    0.0000 C   0  0  0  0  0  0  0  0  0  0  0  0
    2.0140   -0.5125    0.0000 C   0  0  0  0  0  0  0  0  0  0  0  0
    0.8261   -0.5085    0.0000 C   0  0  0  0  0  0  0  0  0  0  0  0
    4.3089    2.1562    0.0000 C   0  0  0  0  0  0  0  0  0  0  0  0
    5.7855   -1.0425    0.0000 C   0  0  0  0  0  0  0  0  0  0  0  0
    5.0530   -1.4656    0.0000 C   0  0  0  0  0  0  0  0  0  0  0  0
   -3.4510   -0.5360    0.0000 N   0  0  0  0  0  0  0  0  0  0  0  0
   -2.8650   -0.1977    0.0000 C   0  0  0  0  0  0  0  0  0  0  0  0
   -1.4211   -0.1861    0.0000 C   0  0  0  0  0  0  0  0  0  0  0  0
   -0.7218    0.2256    0.0000 C   0  0  0  0  0  0  0  0  0  0  0  0
   -0.7218    1.0489    0.0000 C   0  0  0  0  0  0  0  0  0  0  0  0
    0.0000   -0.1861    0.0000 N   0  0  0  0  0  0  0  0  0  0  0  0
    2.1430    0.2256    0.0000 C   0  0  0  0  0  0  0  0  0  0  0  0
    1.4211    1.4663    0.0000 C   0  0  0  0  0  0  0  0  0  0  0  0
    1.4188    2.1430    0.0000 O   0  0  0  0  0  0  0  0  0  0  0  0
    2.8479   -0.2030    0.0000 C   0  0  0  0  0  0  0  0  0  0  0  0
    3.5867    1.0489    0.0000 C   0  0  0  0  0  0  0  0  0  0  0  0
    4.3153    1.4796    0.0000 C   0  0  0  0  0  0  0  0  0  0  0  0
    4.3201   -0.1968    0.0000 N   0  0  0  0  0  0  0  0  0  0  0  0
    5.0527    0.2263    0.0000 C   0  0  0  0  0  0  0  0  0  0  0  0
    5.7853   -0.1965    0.0000 C   0  0  0  0  0  0  0  0  0  0  0  0
    4.3203   -1.0428    0.0000 C   0  0  0  0  0  0  0  0  0  0  0  0
    6.5186   -1.4655    0.0000 N   0  0  0  0  0  0  0  0  0  0  0  0
    6.5202   -2.3114    0.0000 C   0  0  0  0  0  0  0  0  0  0  0  0
    7.2535   -2.7330    0.0000 C   0  0  0  0  0  0  0  0  0  0  0  0
    7.9853   -2.3088    0.0000 O   0  0  0  0  0  0  0  0  0  0  0  0
    7.9838   -1.4629    0.0000 C   0  0  0  0  0  0  0  0  0  0  0  0
    7.2504   -1.0413    0.0000 C   0  0  0  0  0  0  0  0  0  0  0  0
  2  4  2  0
 20  2  1  0
  3  4  1  0
 17  3  1  0
 18  3  2  0
  5  6  2  0
 20  5  1  0
 23  5  1  0
 10  6  1  0
  6 21  1  0
  7 25  2  0
  7 26  1  0
  7 28  1  0
  8  9  1  0
 26  8  2  0
 22  9  2  0
  9 23  1  0
 10 11  1  0
 10 12  1  0
 22 10  1  0
 27 13  1  0
 14 15  1  0
 14 30  1  0
 14 32  1  0
 15 31  1  0
 17 16  3  0
 19 18  1  0
 19 20  2  0
 19 21  1  0
 25 22  1  0
 23 24  2  0
 26 27  1  0
 29 28  1  0
 31 28  1  0
 30 29  1  0
 33 32  1  0
 37 32  1  0
 33 34  1  0
 34 35  1  0
 36 35  1  0
 37 36  1  0
M  END
> <chembl_id>
CHEMBL3707320

> <chembl_pref_name>
ALECTINIB HYDROCHLORIDE
