
     RDKit          2D

  7  5  0  0  0  0  0  0  0  0999 V2000
    2.6833   -1.4375    0.0000 K   0  0  0  0  0 15  0  0  0  0  0  0
    1.1208   -1.6958    0.0000 C   0  0  0  0  0  0  0  0  0  0  0  0
    1.7375   -1.3375    0.0000 O   0  0  0  0  0  0  0  0  0  0  0  0
    1.1208   -2.4083    0.0000 O   0  0  0  0  0  0  0  0  0  0  0  0
    0.5083   -1.3417    0.0000 C   0  0  0  0  0  0  0  0  0  0  0  0
    0.5042   -0.6292    0.0000 O   0  0  0  0  0  0  0  0  0  0  0  0
   -0.1083   -1.7000    0.0000 C   0  0  0  0  0  0  0  0  0  0  0  0
  3  2  1  0
  4  2  2  0
  5  2  1  0
  6  5  1  0
  7  5  1  0
M  CHG  2   1   1   3  -1
M  END
> <chembl_id>
CHEMBL1200664

> <chembl_pref_name>
POTASSIUM LACTATE
