
     RDKit          2D

 46 47  0  0  0  0  0  0  0  0999 V2000
   11.7369   -5.0727    0.0000 C   0  0  0  0  0  0  0  0  0  0  0  0
   11.7273   -6.7131    0.0000 C   0  0  0  0  0  0  0  0  0  0  0  0
   11.0277   -5.4779    0.0000 C   0  0  0  0  0  0  0  0  0  0  0  0
   11.0181   -6.3029    0.0000 C   0  0  0  0  0  0  0  0  0  0  0  0
   11.7418   -4.2525    0.0000 O   0  0  0  0  0  0  0  0  0  0  0  0
   11.7225   -7.5332    0.0000 O   0  0  0  0  0  0  0  0  0  0  0  0
   12.4462   -5.4828    0.0000 O   0  0  0  0  0  0  0  0  0  0  0  0
   12.4365   -6.3078    0.0000 O   0  0  0  0  0  0  0  0  0  0  0  0
    2.4701   -4.5447    0.0000 N   0  0  0  0  0  0  0  0  0  0  0  0
    3.1697   -4.1299    0.0000 C   0  0  0  0  0  0  0  0  0  0  0  0
    2.4701   -2.8851    0.0000 S   0  0  0  0  0  0  0  0  0  0  0  0
    3.1697   -3.3049    0.0000 C   0  0  0  0  0  0  0  0  0  0  0  0
    1.7562   -4.1299    0.0000 C   0  0  0  0  0  0  0  0  0  0  0  0
    1.7562   -3.3049    0.0000 C   0  0  0  0  0  0  0  0  0  0  0  0
    3.8693   -4.5447    0.0000 C   0  0  0  0  0  0  0  0  0  0  0  0
    4.5930   -4.1299    0.0000 C   0  0  0  0  0  0  0  0  0  0  0  0
    3.8693   -6.9908    0.0000 N   0  0  0  0  0  0  0  0  0  0  0  0
    5.2878   -7.8062    0.0000 N   0  0  0  0  0  0  0  0  0  0  0  0
    5.2878   -4.5447    0.0000 C   0  0  0  0  0  0  0  0  0  0  0  0
    3.8693   -2.8851    0.0000 C   0  0  0  0  0  0  0  0  0  0  0  0
    4.5930   -3.3049    0.0000 C   0  0  0  0  0  0  0  0  0  0  0  0
    5.2878   -5.3697    0.0000 O   0  0  0  0  0  0  0  0  0  0  0  0
    2.4701   -5.3697    0.0000 C   0  0  0  0  0  0  0  0  0  0  0  0
    5.2878   -6.9908    0.0000 C   0  0  0  0  0  0  0  0  0  0  0  0
    3.8693   -7.8062    0.0000 C   0  0  0  0  0  0  0  0  0  0  0  0
    4.5930   -6.5759    0.0000 C   0  0  0  0  0  0  0  0  0  0  0  0
    4.5930   -8.2259    0.0000 C   0  0  0  0  0  0  0  0  0  0  0  0
    3.1697   -5.7654    0.0000 C   0  0  0  0  0  0  0  0  0  0  0  0
    3.1697   -6.5759    0.0000 C   0  0  0  0  0  0  0  0  0  0  0  0
    1.0325   -4.5447    0.0000 C   0  0  0  0  0  0  0  0  0  0  0  0
    6.0114   -8.2259    0.0000 C   0  0  0  0  0  0  0  0  0  0  0  0
    1.0325   -2.8851    0.0000 C   0  0  0  0  0  0  0  0  0  0  0  0
    7.4299   -8.2259    0.0000 O   0  0  0  0  0  0  0  0  0  0  0  0
    6.0114   -4.1299    0.0000 C   0  0  0  0  0  0  0  0  0  0  0  0
    6.7207   -7.8062    0.0000 C   0  0  0  0  0  0  0  0  0  0  0  0
    6.7207   -4.5447    0.0000 C   0  0  0  0  0  0  0  0  0  0  0  0
    0.3184   -4.1299    0.0000 C   0  0  0  0  0  0  0  0  0  0  0  0
    0.3184   -3.3049    0.0000 C   0  0  0  0  0  0  0  0  0  0  0  0
    8.8434   -4.9934    0.0000 C   0  0  0  0  0  0  0  0  0  0  0  0
    8.8338   -6.6338    0.0000 C   0  0  0  0  0  0  0  0  0  0  0  0
    8.1342   -5.3987    0.0000 C   0  0  0  0  0  0  0  0  0  0  0  0
    8.1246   -6.2237    0.0000 C   0  0  0  0  0  0  0  0  0  0  0  0
    8.8483   -4.1733    0.0000 O   0  0  0  0  0  0  0  0  0  0  0  0
    8.8289   -7.4539    0.0000 O   0  0  0  0  0  0  0  0  0  0  0  0
    9.5526   -5.4035    0.0000 O   0  0  0  0  0  0  0  0  0  0  0  0
    9.5430   -6.2285    0.0000 O   0  0  0  0  0  0  0  0  0  0  0  0
  2  4  1  0
  3  1  1  0
  4  3  2  0
  5  1  2  0
  6  2  2  0
  7  1  1  0
  8  2  1  0
 10  9  1  0
 11 14  1  0
 12 10  1  0
 13  9  1  0
 14 13  2  0
 15 10  2  0
 16 15  1  0
 17 29  1  0
 18 27  1  0
 19 16  1  0
 20 12  2  0
 21 16  2  0
 22 19  2  0
 23  9  1  0
 24 26  1  0
 25 17  1  0
 26 17  1  0
 27 25  1  0
 28 23  1  0
 29 28  1  0
 30 13  1  0
 31 18  1  0
 32 14  1  0
 33 35  1  0
 34 19  1  0
 35 31  1  0
 36 34  1  0
 37 30  2  0
 38 32  2  0
 12 11  1  0
 37 38  1  0
 20 21  1  0
 24 18  1  0
 40 42  1  0
 41 39  1  0
 42 41  2  0
 43 39  2  0
 44 40  2  0
 45 39  1  0
 46 40  1  0
M  END
> <chembl_id>
CHEMBL2358147

> <chembl_pref_name>
CARPHENAZINE MALEATE
