
     RDKit          2D

 15 15  0  0  0  0  0  0  0  0999 V2000
    5.3875   -5.6250    0.0000 C   0  0  0  0  0  0  0  0  0  0  0  0
    4.7667   -5.9792    0.0000 C   0  0  0  0  0  0  0  0  0  0  0  0
    4.1542   -5.6250    0.0000 N   0  0  0  0  0  0  0  0  0  0  0  0
    5.3875   -4.9042    0.0000 O   0  0  0  0  0  0  0  0  0  0  0  0
    6.0042   -5.9792    0.0000 C   0  0  0  0  0  0  0  0  0  0  0  0
    4.7750   -6.6917    0.0000 C   0  0  0  0  0  0  0  0  0  0  0  0
    4.1500   -4.9042    0.0000 C   0  0  0  0  0  0  0  0  0  0  0  0
    3.5417   -5.9792    0.0000 C   0  0  0  0  0  0  0  0  0  0  0  0
    6.6167   -5.6292    0.0000 C   0  0  0  0  0  0  0  0  0  0  0  0
    6.0042   -6.6917    0.0000 C   0  0  0  0  0  0  0  0  0  0  0  0
    3.5375   -4.5500    0.0000 C   0  0  0  0  0  0  0  0  0  0  0  0
    2.9250   -5.6250    0.0000 C   0  0  0  0  0  0  0  0  0  0  0  0
    6.6167   -7.0417    0.0000 C   0  0  0  0  0  0  0  0  0  0  0  0
    7.2375   -5.9792    0.0000 C   0  0  0  0  0  0  0  0  0  0  0  0
    7.2375   -6.6917    0.0000 C   0  0  0  0  0  0  0  0  0  0  0  0
  2  1  1  0
  3  2  1  0
  4  1  2  0
  5  1  1  0
  6  2  1  0
  7  3  1  0
  8  3  1  0
  9  5  2  0
 10  5  1  0
 11  7  1  0
 12  8  1  0
 13 10  2  0
 14  9  1  0
 15 14  2  0
 15 13  1  0
M  END
> <chembl_id>
CHEMBL1194666

> <chembl_pref_name>
DIETHYLPROPION
