
     RDKit          2D

 31 33  0  0  0  0  0  0  0  0999 V2000
    2.4000   -9.8125    0.0000 O   0  0  0  0  0  0  0  0  0  0  0  0
    2.2875   -7.6917    0.0000 C   0  0  0  0  0  0  0  0  0  0  0  0
    1.5792   -7.7000    0.0000 C   0  0  0  0  0  0  0  0  0  0  0  0
    2.6417   -7.0875    0.0000 C   0  0  0  0  0  0  0  0  0  0  0  0
    1.2292   -8.3042    0.0000 C   0  0  0  0  0  0  0  0  0  0  0  0
    2.6292   -8.3042    0.0000 C   0  0  0  0  0  0  0  0  0  0  0  0
    1.9042   -8.6625    0.0000 O   0  0  0  0  0  0  0  0  0  0  0  0
    2.2917   -6.4792    0.0000 C   0  0  0  0  0  0  0  0  0  0  0  0
    1.2292   -7.0875    0.0000 C   0  0  0  0  0  0  0  0  0  0  0  0
    3.3417   -7.0917    0.0000 C   0  0  0  0  0  0  0  0  0  0  0  0
    1.5792   -6.4750    0.0000 C   0  0  0  0  0  0  0  0  0  0  0  0
    2.6417   -5.8667    0.0000 N   0  0  0  0  0  0  0  0  0  0  0  0
    1.9292   -7.1917    0.0000 C   0  0  0  0  0  0  0  0  0  0  0  0
    3.6917   -7.7042    0.0000 C   0  0  0  0  0  0  0  0  0  0  0  0
    3.3375   -8.3125    0.0000 C   0  0  0  0  0  0  0  0  0  0  0  0
    0.5250   -8.3042    0.0000 C   0  0  0  0  0  0  0  0  0  0  0  0
    1.9375   -5.8625    0.0000 C   0  0  0  0  0  0  0  0  0  0  0  0
    0.5250   -7.0875    0.0000 C   0  0  0  0  0  0  0  0  0  0  0  0
    0.1750   -7.7000    0.0000 C   0  0  0  0  0  0  0  0  0  0  0  0
    3.6875   -8.9292    0.0000 O   0  0  0  0  0  0  0  0  0  0  0  0
    0.1667   -8.9167    0.0000 O   0  0  0  0  0  0  0  0  0  0  0  0
    3.2625   -5.5125    0.0000 C   0  0  0  0  0  0  0  0  0  0  0  0
   -0.5375   -8.9167    0.0000 C   0  0  0  0  0  0  0  0  0  0  0  0
    3.1449   -6.2234    0.0000 H   0  0  0  0  0  0  0  0  0  0  0  0
    1.7923   -5.6128    0.0000 H   0  0  0  0  0  0  0  0  0  0  0  0
    2.8510   -9.2793    0.0000 H   0  0  0  0  0  0  0  0  0  0  0  0
    5.1750   -7.1167    0.0000 P   0  0  0  0  0  0  0  0  0  0  0  0
    5.1750   -6.4125    0.0000 O   0  0  0  0  0  0  0  0  0  0  0  0
    5.1750   -7.8292    0.0000 O   0  0  0  0  0  0  0  0  0  0  0  0
    4.4625   -7.1167    0.0000 O   0  0  0  0  0  0  0  0  0  0  0  0
    5.8750   -7.1167    0.0000 O   0  0  0  0  0  0  0  0  0  0  0  0
  3  2  1  0
  4  2  1  0
  5  3  1  0
  6  2  1  0
  6  7  1  0
  8  4  1  0
  9  3  2  0
 10  4  1  0
 11  8  1  0
  8 12  1  0
  2 13  1  1
 14 15  1  0
 15  6  1  0
 16  5  2  0
 17 13  1  0
 18  9  1  0
 19 16  1  0
 15 20  1  6
 21 16  1  0
 22 12  1  0
 23 21  1  0
  4 24  1  1
  7  5  1  0
 17 12  1  0
 10 14  2  0
 11  9  1  0
 18 19  2  0
  8 25  1  6
  6 26  1  1
 28 27  2  0
 29 27  1  0
 30 27  1  0
 31 27  1  0
M  END
> <chembl_id>
CHEMBL1201099

> <chembl_pref_name>
CODEINE PHOSPHATE
