
     RDKit          2D

 20 22  0  0  0  0  0  0  0  0999 V2000
    4.5292   -3.8292    0.0000 N   0  0  0  0  0  0  0  0  0  0  0  0
    3.8417   -3.9792    0.0000 C   0  0  0  0  0  0  0  0  0  0  0  0
    3.2917   -3.5500    0.0000 C   0  0  0  0  0  0  0  0  0  0  0  0
    3.8417   -2.3917    0.0000 N   0  0  0  0  0  0  0  0  0  0  0  0
    4.5292   -2.5500    0.0000 C   0  0  0  0  0  0  0  0  0  0  0  0
    4.8417   -3.1917    0.0000 C   0  0  0  0  0  0  0  0  0  0  0  0
    3.2917   -2.8417    0.0000 C   0  0  0  0  0  0  0  0  0  0  0  0
    2.6792   -3.8917    0.0000 C   0  0  0  0  0  0  0  0  0  0  0  0
    3.4792   -4.5917    0.0000 C   0  0  0  0  0  0  0  0  0  0  0  0
    4.9792   -1.9917    0.0000 O   0  0  0  0  0  0  0  0  0  0  0  0
    2.6792   -2.4792    0.0000 C   0  0  0  0  0  0  0  0  0  0  0  0
    2.0625   -3.5375    0.0000 C   0  0  0  0  0  0  0  0  0  0  0  0
    5.5542   -3.1917    0.0000 O   0  0  0  0  0  0  0  0  0  0  0  0
    2.0542   -2.8375    0.0000 C   0  0  0  0  0  0  0  0  0  0  0  0
    1.4500   -3.8917    0.0000 Cl  0  0  0  0  0  0  0  0  0  0  0  0
    3.8375   -5.2125    0.0000 C   0  0  0  0  0  0  0  0  0  0  0  0
    2.7750   -4.5917    0.0000 C   0  0  0  0  0  0  0  0  0  0  0  0
    3.4750   -5.8292    0.0000 C   0  0  0  0  0  0  0  0  0  0  0  0
    2.4125   -5.2042    0.0000 C   0  0  0  0  0  0  0  0  0  0  0  0
    2.7667   -5.8250    0.0000 C   0  0  0  0  0  0  0  0  0  0  0  0
  2  1  2  0
  3  2  1  0
  4  5  1  0
  5  6  1  0
  6  1  1  0
  7  3  1  0
  8  3  2  0
  9  2  1  0
 10  5  2  0
 11  7  2  0
 12  8  1  0
 13  6  1  0
 14 12  2  0
 15 12  1  0
 16  9  2  0
 17  9  1  0
 18 16  1  0
 19 17  2  0
 20 19  1  0
  4  7  1  0
 20 18  2  0
 14 11  1  0
M  END
> <chembl_id>
CHEMBL568

> <chembl_pref_name>
OXAZEPAM
