
     RDKit          2D

 27 28  0  0  0  0  0  0  0  0999 V2000
    1.5042   -0.0042    0.0000 C   0  0  0  0  0  0  0  0  0  0  0  0
    2.4292   -0.0042    0.0000 C   0  0  0  0  0  0  0  0  0  0  0  0
    1.0542    0.8083    0.0000 C   0  0  0  0  0  0  0  0  0  0  0  0
    1.0417   -0.8167    0.0000 C   0  0  0  0  0  0  0  0  0  0  0  0
    0.5917   -1.6042    0.0000 N   0  0  0  0  0  0  0  0  0  0  0  0
    0.0250    0.8083    0.0000 O   0  0  0  0  0  0  0  0  0  0  0  0
    2.9042   -0.8167    0.0000 C   0  0  0  0  0  0  0  0  0  0  0  0
    2.9042    0.7833    0.0000 C   0  0  0  0  0  0  0  0  0  0  0  0
    1.4792    1.4958    0.0000 O   0  0  0  0  0  0  0  0  0  0  0  0
   -0.4333    0.0000    0.0000 C   0  0  0  0  0  0  0  0  0  0  0  0
    2.4042   -1.6167    0.0000 C   0  0  0  0  0  0  0  0  0  0  0  0
    3.8042   -0.8167    0.0000 C   0  0  0  0  0  0  0  0  0  0  0  0
    3.8417    0.7833    0.0000 C   0  0  0  0  0  0  0  0  0  0  0  0
    2.4542    1.6125    0.0000 C   0  0  0  0  0  0  0  0  0  0  0  0
   -1.3583    0.0000    0.0000 C   0  0  0  0  0  0  0  0  0  0  0  0
   -1.9083   -0.8375    0.0000 C   0  0  0  0  0  0  0  0  0  0  0  0
   -2.0083    0.8333    0.0000 C   0  0  0  0  0  0  0  0  0  0  0  0
   -3.4208    1.6125    0.0000 C   0  0  0  0  0  0  0  0  0  0  0  0
   -2.9125    0.8083    0.0000 C   0  0  0  0  0  0  0  0  0  0  0  0
   -2.8458   -0.8375    0.0000 C   0  0  0  0  0  0  0  0  0  0  0  0
   -4.3458    1.6125    0.0000 C   0  0  0  0  0  0  0  0  0  0  0  0
    4.2917   -1.6417    0.0000 C   0  0  0  0  0  0  0  0  0  0  0  0
    4.3417    1.5875    0.0000 C   0  0  0  0  0  0  0  0  0  0  0  0
    2.9417    2.4458    0.0000 C   0  0  0  0  0  0  0  0  0  0  0  0
    2.8542   -2.4167    0.0000 C   0  0  0  0  0  0  0  0  0  0  0  0
    3.8667    2.4208    0.0000 C   0  0  0  0  0  0  0  0  0  0  0  0
    3.7792   -2.4375    0.0000 C   0  0  0  0  0  0  0  0  0  0  0  0
  2  1  2  0
  3  1  1  0
  4  1  1  0
  5  4  3  0
  6  3  1  0
  7  2  1  0
  8  2  1  0
  9  3  2  0
 10  6  1  0
 11  7  2  0
 12  7  1  0
 13  8  2  0
 14  8  1  0
 15 10  1  0
 16 15  1  0
 17 15  1  0
 18 19  1  0
 19 17  1  0
 20 16  1  0
 21 18  1  0
 22 12  2  0
 23 13  1  0
 24 14  2  0
 25 11  1  0
 26 24  1  0
 27 22  1  0
 23 26  2  0
 25 27  2  0
M  END
> <chembl_id>
CHEMBL1201147

> <chembl_pref_name>
OCTOCRYLENE
