
     RDKit          2D

 20 21  0  0  0  0  0  0  0  0999 V2000
   11.0351   -5.6985    0.0000 S   0  0  0  0  0  0  0  0  0  0  0  0
   14.6860   -6.7704    0.0000 N   0  0  0  0  0  0  0  0  0  0  0  0
   13.8935   -5.6940    0.0000 C   0  0  0  0  0  0  0  0  0  0  0  0
   14.6768   -5.4329    0.0000 C   0  0  0  0  0  0  0  0  0  0  0  0
   15.1670   -6.0970    0.0000 C   0  0  0  0  0  0  0  0  0  0  0  0
   13.8935   -6.5185    0.0000 C   0  0  0  0  0  0  0  0  0  0  0  0
   10.6182   -6.4223    0.0000 O   0  0  0  0  0  0  0  0  0  0  0  0
   11.4428   -6.4223    0.0000 O   0  0  0  0  0  0  0  0  0  0  0  0
   11.7497   -5.2862    0.0000 C   0  0  0  0  0  0  0  0  0  0  0  0
   13.1743   -5.2817    0.0000 C   0  0  0  0  0  0  0  0  0  0  0  0
   10.3205   -5.2862    0.0000 N   0  0  0  0  0  0  0  0  0  0  0  0
   12.4643   -5.6940    0.0000 C   0  0  0  0  0  0  0  0  0  0  0  0
   15.0891   -4.7228    0.0000 C   0  0  0  0  0  0  0  0  0  0  0  0
   13.1743   -6.9353    0.0000 C   0  0  0  0  0  0  0  0  0  0  0  0
   16.3259   -4.0082    0.0000 N   0  0  0  0  0  0  0  0  0  0  0  0
   15.9137   -4.7228    0.0000 C   0  0  0  0  0  0  0  0  0  0  0  0
   12.4643   -6.5230    0.0000 C   0  0  0  0  0  0  0  0  0  0  0  0
    9.6059   -5.6985    0.0000 C   0  0  0  0  0  0  0  0  0  0  0  0
   15.9137   -3.2936    0.0000 C   0  0  0  0  0  0  0  0  0  0  0  0
   17.1505   -4.0082    0.0000 C   0  0  0  0  0  0  0  0  0  0  0  0
  2  6  1  0
  3 10  2  0
  4  3  1  0
  5  4  2  0
  6 14  2  0
  7  1  2  0
  8  1  2  0
  9  1  1  0
 10 12  1  0
 11  1  1  0
 12  9  1  0
 13  4  1  0
 14 17  1  0
 15 16  1  0
 16 13  1  0
 17 12  2  0
 18 11  1  0
 19 15  1  0
 20 15  1  0
  3  6  1  0
  2  5  1  0
M  END
> <chembl_id>
CHEMBL128

> <chembl_pref_name>
SUMATRIPTAN
