
     RDKit          2D

 20 20  0  0  0  0  0  0  0  0999 V2000
    4.6125   -4.7542    0.0000 C   0  0  0  0  0  0  0  0  0  0  0  0
    5.2250   -4.4042    0.0000 N   0  0  0  0  0  0  0  0  0  0  0  0
    4.6167   -5.4542    0.0000 C   0  0  0  0  0  0  0  0  0  0  0  0
    3.9917   -5.8042    0.0000 C   0  0  0  0  0  0  0  0  0  0  0  0
    4.0000   -4.3917    0.0000 C   0  0  0  0  0  0  0  0  0  0  0  0
    5.8250   -4.7250    0.0000 C   0  0  0  0  0  0  0  0  0  0  0  0
    3.3792   -5.4667    0.0000 C   0  0  0  0  0  0  0  0  0  0  0  0
    6.4417   -4.3750    0.0000 C   0  0  0  0  0  0  0  0  0  0  0  0
    3.3792   -4.7500    0.0000 C   0  0  0  0  0  0  0  0  0  0  0  0
    5.2250   -3.6792    0.0000 C   0  0  0  0  0  0  0  0  0  0  0  0
    7.0500   -4.7167    0.0000 C   0  0  0  0  0  0  0  0  0  0  0  0
    5.2292   -5.8167    0.0000 I   0  0  0  0  0  0  0  0  0  0  0  0
    4.6042   -3.3417    0.0000 O   0  0  0  0  0  0  0  0  0  0  0  0
    7.0667   -5.4375    0.0000 O   0  0  0  0  0  0  0  0  0  0  0  0
    3.9667   -6.5375    0.0000 N   0  0  0  0  0  0  0  0  0  0  0  0
    3.9875   -3.6792    0.0000 I   0  0  0  0  0  0  0  0  0  0  0  0
    2.7667   -5.8292    0.0000 I   0  0  0  0  0  0  0  0  0  0  0  0
    7.6667   -4.3625    0.0000 O   0  0  0  0  0  0  0  0  0  0  0  0
    6.4417   -3.6792    0.0000 C   0  0  0  0  0  0  0  0  0  0  0  0
    5.8375   -3.3250    0.0000 C   0  0  0  0  0  0  0  0  0  0  0  0
  2  1  1  0
  3  1  1  0
  4  3  2  0
  5  1  2  0
  6  2  1  0
  7  9  2  0
  8  6  1  0
  9  5  1  0
 10  2  1  0
 11  8  1  0
 12  3  1  0
 13 10  2  0
 14 11  2  0
 15  4  1  0
 16  5  1  0
 17  7  1  0
 18 11  1  0
 19  8  1  0
 20 10  1  0
  7  4  1  0
M  END
> <chembl_id>
CHEMBL1200770

> <chembl_pref_name>
IOCETAMIC ACID
