
     RDKit          2D

 45 42  0  0  0  0  0  0  0  0999 V2000
    4.2054   -6.8304    0.0000 O   0  0  0  0  0  0  0  0  0  0  0  0
    3.1987   -4.5207    0.0000 C   0  0  0  0  0  0  0  0  0  0  0  0
    2.4799   -4.9259    0.0000 C   0  0  0  0  0  0  0  0  0  0  0  0
    3.9128   -4.9259    0.0000 C   0  0  0  0  0  0  0  0  0  0  0  0
    2.7838   -3.8066    0.0000 C   0  0  0  0  0  0  0  0  0  0  0  0
    4.6220   -4.5207    0.0000 C   0  0  0  0  0  0  0  0  0  0  0  0
    2.4943   -5.7364    0.0000 C   0  0  0  0  0  0  0  0  0  0  0  0
    3.1842   -3.0878    0.0000 O   0  0  0  0  0  0  0  0  0  0  0  0
    3.2276   -6.1272    0.0000 O   0  0  0  0  0  0  0  0  0  0  0  0
    4.6220   -3.6957    0.0000 O   0  0  0  0  0  0  0  0  0  0  0  0
    3.6039   -3.8066    0.0000 O   0  0  0  0  0  0  0  0  0  0  0  0
    1.9588   -3.8114    0.0000 O   0  0  0  0  0  0  0  0  0  0  0  0
    1.7996   -6.1707    0.0000 O   0  0  0  0  0  0  0  0  0  0  0  0
    5.3408   -4.9259    0.0000 O   0  0  0  0  0  0  0  0  0  0  0  0
   -0.2171   -5.8088    0.0000 N   0  0  0  0  0  0  0  0  0  0  0  0
   -0.2171   -4.1588    0.0000 N   0  0  0  0  0  0  0  0  0  0  0  0
    0.4970   -5.3987    0.0000 C   0  0  0  0  0  0  0  0  0  0  0  0
    0.4970   -4.5737    0.0000 C   0  0  0  0  0  0  0  0  0  0  0  0
   -0.9263   -5.3987    0.0000 C   0  0  0  0  0  0  0  0  0  0  0  0
   -0.9263   -4.5737    0.0000 C   0  0  0  0  0  0  0  0  0  0  0  0
    2.5719   -0.8030    0.0000 C   0  0  0  0  0  0  0  0  0  0  0  0
    1.8531   -1.2083    0.0000 C   0  0  0  0  0  0  0  0  0  0  0  0
    3.2860   -1.2083    0.0000 C   0  0  0  0  0  0  0  0  0  0  0  0
    2.1570   -0.0890    0.0000 C   0  0  0  0  0  0  0  0  0  0  0  0
    3.9952   -0.8030    0.0000 C   0  0  0  0  0  0  0  0  0  0  0  0
    1.8676   -2.0188    0.0000 C   0  0  0  0  0  0  0  0  0  0  0  0
    2.5574    0.6298    0.0000 O   0  0  0  0  0  0  0  0  0  0  0  0
    2.6009   -2.4096    0.0000 O   0  0  0  0  0  0  0  0  0  0  0  0
    3.9952    0.0220    0.0000 O   0  0  0  0  0  0  0  0  0  0  0  0
    2.9772   -0.0890    0.0000 O   0  0  0  0  0  0  0  0  0  0  0  0
    1.3320   -0.0938    0.0000 O   0  0  0  0  0  0  0  0  0  0  0  0
    1.1728   -2.4530    0.0000 O   0  0  0  0  0  0  0  0  0  0  0  0
    4.7140   -1.2083    0.0000 O   0  0  0  0  0  0  0  0  0  0  0  0
   -0.8439   -2.0912    0.0000 N   0  0  0  0  0  0  0  0  0  0  0  0
   -0.8439   -0.4412    0.0000 N   0  0  0  0  0  0  0  0  0  0  0  0
   -0.1298   -1.6811    0.0000 C   0  0  0  0  0  0  0  0  0  0  0  0
   -0.1298   -0.8561    0.0000 C   0  0  0  0  0  0  0  0  0  0  0  0
   -1.5531   -1.6811    0.0000 C   0  0  0  0  0  0  0  0  0  0  0  0
   -1.5531   -0.8561    0.0000 C   0  0  0  0  0  0  0  0  0  0  0  0
    0.7484   -9.2073    0.0000 N   0  0  0  0  0  0  0  0  0  0  0  0
    0.7484   -7.5573    0.0000 N   0  0  0  0  0  0  0  0  0  0  0  0
    1.4625   -8.7972    0.0000 C   0  0  0  0  0  0  0  0  0  0  0  0
    1.4625   -7.9722    0.0000 C   0  0  0  0  0  0  0  0  0  0  0  0
    0.0392   -8.7972    0.0000 C   0  0  0  0  0  0  0  0  0  0  0  0
    0.0392   -7.9722    0.0000 C   0  0  0  0  0  0  0  0  0  0  0  0
  3  2  1  0
  4  2  1  0
  5  2  1  0
  6  4  1  0
  7  3  1  0
  8  5  2  0
  9  7  2  0
 10  6  2  0
 11  2  1  0
 12  5  1  0
 13  7  1  0
 14  6  1  0
 16 20  1  0
 17 15  1  0
 18 17  1  0
 19 15  1  0
 20 19  1  0
 16 18  1  0
 22 21  1  0
 23 21  1  0
 24 21  1  0
 25 23  1  0
 26 22  1  0
 27 24  2  0
 28 26  2  0
 29 25  2  0
 30 21  1  0
 31 24  1  0
 32 26  1  0
 33 25  1  0
 35 39  1  0
 36 34  1  0
 37 36  1  0
 38 34  1  0
 39 38  1  0
 35 37  1  0
 41 45  1  0
 42 40  1  0
 43 42  1  0
 44 40  1  0
 45 44  1  0
 41 43  1  0
M  END
> <chembl_id>
CHEMBL3989678

> <chembl_pref_name>
PIPERAZINE CITRATE
