
     RDKit          2D

 17 18  0  0  0  0  0  0  0  0999 V2000
    6.0542   -5.4375    0.0000 Cl  0  0  0  0  0  0  0  0  0  0  0  0
    5.1292   -4.2167    0.0000 C   0  0  0  0  0  0  0  0  0  0  0  0
    5.3292   -3.5292    0.0000 N   0  0  0  0  0  0  0  0  0  0  0  0
    4.5292   -5.2875    0.0000 C   0  0  0  0  0  0  0  0  0  0  0  0
    5.7042   -4.6167    0.0000 N   0  0  0  0  0  0  0  0  0  0  0  0
    3.9167   -5.6417    0.0000 C   0  0  0  0  0  0  0  0  0  0  0  0
    4.5125   -4.5792    0.0000 C   0  0  0  0  0  0  0  0  0  0  0  0
    3.9167   -6.3542    0.0000 C   0  0  0  0  0  0  0  0  0  0  0  0
    6.0542   -3.5167    0.0000 C   0  0  0  0  0  0  0  0  0  0  0  0
    5.1292   -5.6375    0.0000 C   0  0  0  0  0  0  0  0  0  0  0  0
    6.2750   -4.1917    0.0000 C   0  0  0  0  0  0  0  0  0  0  0  0
    5.1500   -6.3417    0.0000 C   0  0  0  0  0  0  0  0  0  0  0  0
    3.3000   -5.2917    0.0000 C   0  0  0  0  0  0  0  0  0  0  0  0
    4.5292   -6.7000    0.0000 C   0  0  0  0  0  0  0  0  0  0  0  0
    3.3000   -6.7167    0.0000 C   0  0  0  0  0  0  0  0  0  0  0  0
    2.6792   -5.6542    0.0000 C   0  0  0  0  0  0  0  0  0  0  0  0
    2.6792   -6.3750    0.0000 C   0  0  0  0  0  0  0  0  0  0  0  0
  3  2  2  0
  4  7  1  0
  5  2  1  0
  6  4  2  0
  7  2  1  0
  8  6  1  0
  9  3  1  0
 10  4  1  0
 11  5  1  0
 12 10  2  0
 13  6  1  0
 14 12  1  0
 15  8  1  0
 16 13  2  0
 17 16  1  0
  9 11  1  0
 14  8  2  0
 17 15  2  0
M  END
> <chembl_id>
CHEMBL1706

> <chembl_pref_name>
NAPHAZOLINE HYDROCHLORIDE
