
     RDKit          2D

 37 40  0  0  0  0  0  0  0  0999 V2000
   -4.3503    2.1170    0.0000 N   0  0  0  0  0  0  0  0  0  0  0  0
   -4.2794    0.7758    0.0000 F   0  0  0  0  0  0  0  0  0  0  0  0
   -3.5649    0.3633    0.0000 C   0  0  0  0  0  0  0  0  0  0  0  0
   -2.8505    0.7758    0.0000 C   0  0  0  0  0  0  0  0  0  0  0  0
   -2.8505    1.6008    0.0000 C   0  0  0  0  0  0  0  0  0  0  0  0
   -2.1360    2.0133    0.0000 C   0  0  0  0  0  0  0  0  0  0  0  0
   -2.1360    0.3633    0.0000 C   0  0  0  0  0  0  0  0  0  0  0  0
   -1.4215    0.7758    0.0000 N   0  0  0  0  0  0  0  0  0  0  0  0
   -1.4215    1.6008    0.0000 C   0  0  0  0  0  0  0  0  0  0  0  0
   -3.5649   -0.4617    0.0000 C   0  0  0  0  0  0  0  0  0  0  0  0
   -2.8505   -0.8742    0.0000 C   0  0  0  0  0  0  0  0  0  0  0  0
   -2.1360   -0.4617    0.0000 C   0  0  0  0  0  0  0  0  0  0  0  0
   -2.8505   -1.6993    0.0000 F   0  0  0  0  0  0  0  0  0  0  0  0
   -0.7071    2.0133    0.0000 C   0  0  0  0  0  0  0  0  0  0  0  0
   -0.7071    0.3633    0.0000 C   0  0  0  0  0  0  0  0  0  0  0  0
    0.0074    0.7758    0.0000 C   0  0  0  0  0  0  0  0  0  0  0  0
    0.0074    1.6008    0.0000 C   0  0  0  0  0  0  0  0  0  0  0  0
    0.7219   -0.4617    0.0000 C   0  0  0  0  0  0  0  0  0  0  0  0
    0.7219    0.3633    0.0000 C   0  0  0  0  0  0  0  0  0  0  0  0
    1.4363    0.7758    0.0000 C   0  0  0  0  0  0  0  0  0  0  0  0
    1.4363   -0.8742    0.0000 C   0  0  0  0  0  0  0  0  0  0  0  0
    2.1508   -0.4617    0.0000 C   0  0  0  0  0  0  0  0  0  0  0  0
    2.1508    0.3633    0.0000 C   0  0  0  0  0  0  0  0  0  0  0  0
    2.8653   -0.8742    0.0000 O   0  0  0  0  0  0  0  0  0  0  0  0
    2.8653   -1.6992    0.0000 C   0  0  0  0  0  0  0  0  0  0  0  0
    3.5797   -2.1117    0.0000 C   0  0  0  0  0  0  0  0  0  0  0  0
   -4.6459    2.8872    0.0000 N   0  0  0  0  0  0  0  0  0  0  0  0
   -5.4698    2.8441    0.0000 N   0  0  0  0  0  0  0  0  0  0  0  0
   -5.6833    2.0472    0.0000 N   0  0  0  0  0  0  0  0  0  0  0  0
   -4.9914    1.5979    0.0000 C   0  0  0  0  0  0  0  0  0  0  0  0
   -2.8936    2.4247    0.0000 O   0  0  0  0  0  0  0  0  0  0  0  0
   -2.1360    2.8383    0.0000 F   0  0  0  0  0  0  0  0  0  0  0  0
   -1.4949    2.5325    0.0000 F   0  0  0  0  0  0  0  0  0  0  0  0
    4.2942   -2.5242    0.0000 F   0  0  0  0  0  0  0  0  0  0  0  0
    3.1672   -2.8262    0.0000 F   0  0  0  0  0  0  0  0  0  0  0  0
    3.9922   -1.3972    0.0000 F   0  0  0  0  0  0  0  0  0  0  0  0
   -3.5264    2.0738    0.0000 C   0  0  0  0  0  0  0  0  0  0  0  0
  2  3  1  0
  3  4  2  0
  4  5  1  0
  8  9  1  0
  6  9  1  0
  4  7  1  0
  6  5  1  0
 10 11  2  0
 11 12  1  0
  3 10  1  0
 12  7  2  0
 11 13  1  0
 15 16  1  0
 16 17  2  0
 14 17  1  0
  8 15  2  0
 14  9  2  0
 18 19  2  0
 16 19  1  0
 21 22  2  0
 22 23  1  0
 20 23  2  0
 18 21  1  0
 20 19  1  0
 24 25  1  0
 25 26  1  0
 22 24  1  0
 27 28  2  0
 28 29  1  0
 29 30  2  0
  1 27  1  0
  1 30  1  0
  5 31  1  6
  6 32  1  0
  6 33  1  0
 26 34  1  0
 26 35  1  0
 26 36  1  0
  1 37  1  0
  5 37  1  0
M  END
> <chembl_id>
CHEMBL3311228

> <chembl_pref_name>
OTESECONAZOLE
