
     RDKit          2D

 22 24  0  0  0  0  0  0  0  0999 V2000
   -1.0583   -0.9125    0.0000 C   0  0  0  0  0  0  0  0  0  0  0  0
   -0.3625   -1.9000    0.0000 C   0  0  0  0  0  0  0  0  0  0  0  0
   -0.6208    0.2458    0.0000 C   0  0  0  0  0  0  0  0  0  0  0  0
   -1.0583   -2.9167    0.0000 O   0  0  0  0  0  0  0  0  0  0  0  0
    0.5542    0.4708    0.0000 C   0  0  0  0  0  0  0  0  0  0  0  0
   -2.2458   -1.3042    0.0000 C   0  0  0  0  0  0  0  0  0  0  0  0
    2.9917    0.8708    0.0000 C   0  0  0  0  0  0  0  0  0  0  0  0
   -2.2458   -2.5542    0.0000 C   0  0  0  0  0  0  0  0  0  0  0  0
    2.2125    1.8208    0.0000 C   0  0  0  0  0  0  0  0  0  0  0  0
    2.5667   -0.2792    0.0000 C   0  0  0  0  0  0  0  0  0  0  0  0
    0.9917    1.6208    0.0000 C   0  0  0  0  0  0  0  0  0  0  0  0
    1.3417   -0.4792    0.0000 C   0  0  0  0  0  0  0  0  0  0  0  0
   -1.4125    1.2000    0.0000 O   0  0  0  0  0  0  0  0  0  0  0  0
    3.3625   -1.2375    0.0000 Br  0  0  0  0  0  0  0  0  0  0  0  0
    2.6375    3.0208    0.0000 Br  0  0  0  0  0  0  0  0  0  0  0  0
    4.2542    1.0625    0.0000 O   0  0  0  0  0  0  0  0  0  0  0  0
    0.8542   -1.9000    0.0000 C   0  0  0  0  0  0  0  0  0  0  0  0
   -3.2958   -0.6792    0.0000 C   0  0  0  0  0  0  0  0  0  0  0  0
   -3.2958   -3.1542    0.0000 C   0  0  0  0  0  0  0  0  0  0  0  0
    1.4792   -2.9792    0.0000 C   0  0  0  0  0  0  0  0  0  0  0  0
   -4.3458   -1.3042    0.0000 C   0  0  0  0  0  0  0  0  0  0  0  0
   -4.3458   -2.5542    0.0000 C   0  0  0  0  0  0  0  0  0  0  0  0
  2  1  2  0
  3  1  1  0
  4  2  1  0
  5  3  1  0
  6  1  1  0
  7 10  2  0
  8  6  2  0
  9 11  2  0
 10 12  1  0
 11  5  1  0
 12  5  2  0
 13  3  2  0
 14 10  1  0
 15  9  1  0
 16  7  1  0
 17  2  1  0
 18  6  1  0
 19  8  1  0
 20 17  1  0
 21 18  2  0
 22 21  1  0
  8  4  1  0
 19 22  2  0
  9  7  1  0
M  END
> <chembl_id>
CHEMBL388590

> <chembl_pref_name>
BENZBROMARONE
