
     RDKit          2D

 16 18  0  0  0  0  0  0  0  0999 V2000
    0.0250    0.5333    0.0000 N   0  0  0  0  0  0  0  0  0  0  0  0
   -1.0208   -0.0542    0.0000 C   0  0  0  0  0  0  0  0  0  0  0  0
    1.0792   -0.0542    0.0000 C   0  0  0  0  0  0  0  0  0  0  0  0
    1.0792   -1.2792    0.0000 C   0  0  0  0  0  0  0  0  0  0  0  0
   -1.0208   -1.2792    0.0000 C   0  0  0  0  0  0  0  0  0  0  0  0
   -2.0708    0.5333    0.0000 C   0  0  0  0  0  0  0  0  0  0  0  0
    2.1292    0.5333    0.0000 C   0  0  0  0  0  0  0  0  0  0  0  0
    0.0250   -1.8875    0.0000 C   0  0  0  0  0  0  0  0  0  0  0  0
    2.1292   -1.8875    0.0000 C   0  0  0  0  0  0  0  0  0  0  0  0
   -2.0708   -1.8875    0.0000 C   0  0  0  0  0  0  0  0  0  0  0  0
   -3.1333   -0.0542    0.0000 C   0  0  0  0  0  0  0  0  0  0  0  0
    3.1917   -0.0542    0.0000 C   0  0  0  0  0  0  0  0  0  0  0  0
   -4.1958    0.5333    0.0000 N   0  0  0  0  0  0  0  0  0  0  0  0
    4.2542    0.5333    0.0000 N   0  0  0  0  0  0  0  0  0  0  0  0
   -3.1333   -1.2792    0.0000 C   0  0  0  0  0  0  0  0  0  0  0  0
    3.1917   -1.2792    0.0000 C   0  0  0  0  0  0  0  0  0  0  0  0
  2  1  2  0
  3  1  1  0
  4  3  1  0
  5  2  1  0
  6  2  1  0
  7  3  2  0
  8  4  1  0
  9  4  2  0
 10  5  1  0
 11  6  2  0
 12  7  1  0
 13 11  1  0
 14 12  1  0
 15 11  1  0
 16 12  2  0
  5  8  2  0
  9 16  1  0
 10 15  2  0
M  END
> <chembl_id>
CHEMBL55400

> <chembl_pref_name>
PROFLAVINE
