
     RDKit          2D

 14 14  0  0  0  0  0  0  0  0999 V2000
    1.5167    0.0958    0.0000 C   0  0  0  0  0  0  0  0  0  0  0  0
   -2.6875    0.0833    0.0000 C   0  0  0  0  0  0  0  0  0  0  0  0
   -0.5708    1.2833    0.0000 N   0  0  0  0  0  0  0  0  0  0  0  0
   -4.0833    0.0833    0.0000 N   0  0  0  0  0  0  0  0  0  0  0  0
    2.1917    1.3125    0.0000 C   0  0  0  0  0  0  0  0  0  0  0  0
    2.2167   -1.1000    0.0000 C   0  0  0  0  0  0  0  0  0  0  0  0
   -1.9708    1.2833    0.0000 N   0  0  0  0  0  0  0  0  0  0  0  0
    0.1167    0.0958    0.0000 C   0  0  0  0  0  0  0  0  0  0  0  0
   -1.9875   -1.1500    0.0000 N   0  0  0  0  0  0  0  0  0  0  0  0
    1.5000    2.5083    0.0000 Cl  0  0  0  0  0  0  0  0  0  0  0  0
    1.5000   -2.3792    0.0000 Cl  0  0  0  0  0  0  0  0  0  0  0  0
    4.3417    0.1125    0.0000 C   0  0  0  0  0  0  0  0  0  0  0  0
    3.6042    1.3125    0.0000 C   0  0  0  0  0  0  0  0  0  0  0  0
    3.6542   -1.1000    0.0000 C   0  0  0  0  0  0  0  0  0  0  0  0
  2  7  1  0
  3  8  2  0
  4  2  2  0
  5  1  1  0
  6  1  2  0
  7  3  1  0
  8  1  1  0
  9  2  1  0
 10  5  1  0
 11  6  1  0
 12 14  2  0
 13  5  2  0
 14  6  1  0
 13 12  1  0
M  END
> <chembl_id>
CHEMBL420

> <chembl_pref_name>
GUANABENZ
