
     RDKit          2D

 34 37  0  0  1  0  0  0  0  0999 V2000
    1.8917   -2.9792    0.0000 C   0  0  0  0  0  0  0  0  0  0  0  0
    2.5667   -2.7667    0.0000 C   0  0  0  0  0  0  0  0  0  0  0  0
    0.0542   -4.0375    0.0000 C   0  0  0  0  0  0  0  0  0  0  0  0
    1.2792   -4.0375    0.0000 C   0  0  0  0  0  0  0  0  0  0  0  0
    1.8917   -3.6792    0.0000 C   0  0  0  0  0  0  0  0  0  0  0  0
    0.6667   -3.6792    0.0000 C   0  0  0  0  0  0  0  0  0  0  0  0
    0.0542   -4.7417    0.0000 C   0  0  0  0  0  0  0  0  0  0  0  0
    1.2792   -2.6292    0.0000 C   0  0  0  0  0  0  0  0  0  0  0  0
    0.6667   -2.9792    0.0000 C   0  0  0  0  0  0  0  0  0  0  0  0
   -0.5583   -5.1042    0.0000 C   0  0  0  0  0  0  0  0  0  0  0  0
    2.5625   -2.0542    0.0000 C   0  0  0  0  0  0  0  0  0  0  0  0
    2.9875   -3.3292    0.0000 C   0  0  0  0  0  0  0  0  0  0  0  0
    3.1792   -2.4042    0.0000 O   0  0  0  0  0  0  0  0  0  0  0  0
    2.5667   -3.9042    0.0000 C   0  0  0  0  0  0  0  0  0  0  0  0
    1.2792   -4.7417    0.0000 C   0  0  0  0  0  0  0  0  0  0  0  0
   -0.5583   -3.6792    0.0000 C   0  0  0  0  0  0  0  0  0  0  0  0
    3.7917   -2.7542    0.0000 C   0  0  0  0  0  0  0  0  0  0  0  0
    0.6667   -5.1042    0.0000 C   0  0  0  0  0  0  0  0  0  0  0  0
   -1.1708   -4.7417    0.0000 C   0  0  0  0  0  0  0  0  0  0  0  0
    1.9417   -1.7042    0.0000 O   0  0  0  0  0  0  0  0  0  0  0  0
    3.7917   -3.4667    0.0000 O   0  0  0  0  0  0  0  0  0  0  0  0
   -1.7875   -5.1042    0.0000 O   0  0  0  0  0  0  0  0  0  0  0  0
    1.8667   -2.2667    0.0000 C   0  0  0  0  0  0  0  0  0  0  0  0
   -1.1708   -4.0375    0.0000 C   0  0  0  0  0  0  0  0  0  0  0  0
    0.0542   -2.6292    0.0000 O   0  0  0  0  0  0  0  0  0  0  0  0
    0.0542   -3.3292    0.0000 C   0  0  0  0  0  0  0  0  0  0  0  0
    3.1667   -1.7000    0.0000 C   0  0  0  0  0  0  0  0  0  0  0  0
    3.7875   -2.0500    0.0000 O   0  0  0  0  0  0  0  0  0  0  0  0
    4.4042   -2.4000    0.0000 C   0  0  0  0  0  0  0  0  0  0  0  0
    5.0167   -2.7500    0.0000 C   0  0  0  0  0  0  0  0  0  0  0  0
    5.6292   -2.3917    0.0000 C   0  0  0  0  0  0  0  0  0  0  0  0
    1.2792   -3.3125    0.0000 H   0  0  0  0  0  0  0  0  0  0  0  0
    0.6542   -4.4792    0.0000 H   0  0  0  0  0  0  0  0  0  0  0  0
    1.8917   -4.4042    0.0000 H   0  0  0  0  0  0  0  0  0  0  0  0
  2  1  1  0
  3  6  1  0
  4  5  1  0
  5  1  1  0
  6  9  1  0
  7  3  1  0
  8  1  1  0
  9  8  1  0
 10  7  2  0
 11  2  1  0
 12  2  1  0
  2 13  1  6
 14  5  1  0
 15  4  1  0
 16  3  1  0
 17 13  1  0
 18 15  1  0
 19 24  1  0
 20 11  2  0
 21 17  2  0
 22 19  2  0
  1 23  1  1
 24 16  1  0
  9 25  1  1
  3 26  1  1
 27 11  1  0
 28 27  1  0
 29 17  1  0
 30 29  1  0
 31 30  1  0
  4 32  1  1
  6 33  1  6
  5 34  1  6
 14 12  1  0
  6  4  1  0
  7 18  1  0
 19 10  1  0
M  END
> <chembl_id>
CHEMBL1683

> <chembl_pref_name>
HYDROCORTISONE BUTYRATE
