
     RDKit          2D

 40 41  0  0  0  0  0  0  0  0999 V2000
   -1.5833    0.0375    0.0000 C   0  0  0  0  0  0  0  0  0  0  0  0
   10.2208    0.3500    0.0000 C   0  0  0  0  0  0  0  0  0  0  0  0
    9.5833    0.0250    0.0000 C   0  0  0  0  0  0  0  0  0  0  0  0
   -0.9667    0.3625    0.0000 C   0  0  0  0  0  0  0  0  0  0  0  0
   -1.5833   -0.6917    0.0000 C   0  0  0  0  0  0  0  0  0  0  0  0
   10.2208    1.0792    0.0000 C   0  0  0  0  0  0  0  0  0  0  0  0
   10.8542    0.0250    0.0000 C   0  0  0  0  0  0  0  0  0  0  0  0
   -2.2167    0.3625    0.0000 C   0  0  0  0  0  0  0  0  0  0  0  0
   -0.3458    0.0292    0.0000 C   0  0  0  0  0  0  0  0  0  0  0  0
    8.9833    0.3583    0.0000 C   0  0  0  0  0  0  0  0  0  0  0  0
    7.1083    0.0250    0.0000 C   0  0  0  0  0  0  0  0  0  0  0  0
    1.5250    0.3625    0.0000 C   0  0  0  0  0  0  0  0  0  0  0  0
    8.3542    0.0250    0.0000 C   0  0  0  0  0  0  0  0  0  0  0  0
    0.2667    0.3625    0.0000 C   0  0  0  0  0  0  0  0  0  0  0  0
    5.8542    0.0250    0.0000 C   0  0  0  0  0  0  0  0  0  0  0  0
    2.7750    0.3625    0.0000 C   0  0  0  0  0  0  0  0  0  0  0  0
    0.9083    0.0292    0.0000 C   0  0  0  0  0  0  0  0  0  0  0  0
    7.7208    0.3583    0.0000 C   0  0  0  0  0  0  0  0  0  0  0  0
    2.1458    0.0292    0.0000 C   0  0  0  0  0  0  0  0  0  0  0  0
    6.4833    0.3583    0.0000 C   0  0  0  0  0  0  0  0  0  0  0  0
    3.3875    0.0292    0.0000 C   0  0  0  0  0  0  0  0  0  0  0  0
    5.2417    0.3583    0.0000 C   0  0  0  0  0  0  0  0  0  0  0  0
    4.6083    0.0292    0.0000 C   0  0  0  0  0  0  0  0  0  0  0  0
    4.0125    0.3583    0.0000 C   0  0  0  0  0  0  0  0  0  0  0  0
   -2.2167   -1.0417    0.0000 C   0  0  0  0  0  0  0  0  0  0  0  0
   10.8417    1.4292    0.0000 C   0  0  0  0  0  0  0  0  0  0  0  0
   11.4625    0.3625    0.0000 C   0  0  0  0  0  0  0  0  0  0  0  0
   -2.8375    0.0250    0.0000 C   0  0  0  0  0  0  0  0  0  0  0  0
   -0.9667   -1.0417    0.0000 C   0  0  0  0  0  0  0  0  0  0  0  0
    9.5958    1.4292    0.0000 C   0  0  0  0  0  0  0  0  0  0  0  0
   10.3833   -0.5375    0.0000 C   0  0  0  0  0  0  0  0  0  0  0  0
   11.3083   -0.5333    0.0000 C   0  0  0  0  0  0  0  0  0  0  0  0
   -2.6750    0.9125    0.0000 C   0  0  0  0  0  0  0  0  0  0  0  0
   -1.7500    0.9250    0.0000 C   0  0  0  0  0  0  0  0  0  0  0  0
   -2.8375   -0.6917    0.0000 C   0  0  0  0  0  0  0  0  0  0  0  0
   11.4750    1.0792    0.0000 C   0  0  0  0  0  0  0  0  0  0  0  0
    0.2833    1.0792    0.0000 C   0  0  0  0  0  0  0  0  0  0  0  0
    8.3500   -0.6917    0.0000 C   0  0  0  0  0  0  0  0  0  0  0  0
    5.8542   -0.6917    0.0000 C   0  0  0  0  0  0  0  0  0  0  0  0
    2.7750    1.0792    0.0000 C   0  0  0  0  0  0  0  0  0  0  0  0
  2  3  1  0
  3 10  2  0
  4  1  1  0
  5  1  2  0
  6  2  2  0
  7  2  1  0
  8  1  1  0
  9  4  2  0
 10 13  1  0
 11 20  2  0
 12 17  1  0
 13 18  2  0
 14  9  1  0
 15 22  2  0
 16 19  1  0
 17 14  2  0
 18 11  1  0
 19 12  2  0
 20 15  1  0
 21 16  2  0
 22 23  1  0
 23 24  2  0
 24 21  1  0
 25  5  1  0
 26  6  1  0
 27  7  1  0
 28  8  1  0
 29  5  1  0
 30  6  1  0
 31  7  1  0
 32  7  1  0
 33  8  1  0
 34  8  1  0
 35 25  1  0
 36 26  1  0
 37 14  1  0
 38 13  1  0
 39 15  1  0
 40 16  1  0
 35 28  1  0
 36 27  1  0
M  END
> <chembl_id>
CHEMBL1293

> <chembl_pref_name>
BETA CAROTENE
