
     RDKit          2D

 41 44  0  0  0  0  0  0  0  0999 V2000
   -8.7804  -20.7429    0.0000 N   0  0  0  0  0  0  0  0  0  0  0  0
   -9.4949  -21.1554    0.0000 C   0  0  0  0  0  0  0  0  0  0  0  0
   -9.4949  -21.9804    0.0000 C   0  0  0  0  0  0  0  0  0  0  0  0
   -8.7804  -22.3929    0.0000 C   0  0  0  0  0  0  0  0  0  0  0  0
   -8.0659  -21.9804    0.0000 C   0  0  0  0  0  0  0  0  0  0  0  0
   -8.0659  -21.1554    0.0000 C   0  0  0  0  0  0  0  0  0  0  0  0
  -10.2093  -20.7428    0.0000 N   0  0  0  0  0  0  0  0  0  0  0  0
  -10.2093  -19.9178    0.0000 C   0  0  0  0  0  0  0  0  0  0  0  0
  -10.9238  -19.5053    0.0000 C   0  0  0  0  0  0  0  0  0  0  0  0
  -11.6383  -19.9178    0.0000 N   0  0  0  0  0  0  0  0  0  0  0  0
  -11.6383  -20.7428    0.0000 C   0  0  0  0  0  0  0  0  0  0  0  0
  -10.9238  -21.1553    0.0000 C   0  0  0  0  0  0  0  0  0  0  0  0
   -8.7804  -23.2179    0.0000 C   0  0  0  0  0  0  0  0  0  0  0  0
   -9.4948  -23.6304    0.0000 C   0  0  0  0  0  0  0  0  0  0  0  0
   -9.4948  -24.4554    0.0000 C   0  0  0  0  0  0  0  0  0  0  0  0
   -8.7804  -24.8679    0.0000 C   0  0  0  0  0  0  0  0  0  0  0  0
   -8.0659  -24.4554    0.0000 C   0  0  0  0  0  0  0  0  0  0  0  0
   -8.0659  -23.6304    0.0000 C   0  0  0  0  0  0  0  0  0  0  0  0
  -10.2093  -23.2179    0.0000 C   0  0  0  0  0  0  0  0  0  0  0  0
  -12.3528  -19.5053    0.0000 C   0  0  0  0  0  0  0  0  0  0  0  0
   -7.3514  -22.3929    0.0000 N   0  0  0  0  0  0  0  0  0  0  0  0
   -6.6369  -21.9804    0.0000 C   0  0  0  0  0  0  0  0  0  0  0  0
   -5.9224  -22.3929    0.0000 C   0  0  0  0  0  0  0  0  0  0  0  0
   -6.6369  -21.1554    0.0000 O   0  0  0  0  0  0  0  0  0  0  0  0
   -5.2080  -21.9804    0.0000 C   0  0  0  0  0  0  0  0  0  0  0  0
   -6.1360  -23.1898    0.0000 C   0  0  0  0  0  0  0  0  0  0  0  0
   -5.3391  -22.9762    0.0000 C   0  0  0  0  0  0  0  0  0  0  0  0
   -4.4935  -22.3929    0.0000 C   0  0  0  0  0  0  0  0  0  0  0  0
   -3.7790  -21.9804    0.0000 C   0  0  0  0  0  0  0  0  0  0  0  0
   -3.7790  -21.1554    0.0000 C   0  0  0  0  0  0  0  0  0  0  0  0
   -4.4935  -20.7428    0.0000 C   0  0  0  0  0  0  0  0  0  0  0  0
   -5.2080  -21.1553    0.0000 C   0  0  0  0  0  0  0  0  0  0  0  0
   -3.0645  -22.3929    0.0000 C   0  0  0  0  0  0  0  0  0  0  0  0
   -3.0645  -23.2179    0.0000 F   0  0  0  0  0  0  0  0  0  0  0  0
   -2.3501  -21.9804    0.0000 F   0  0  0  0  0  0  0  0  0  0  0  0
   -2.3501  -22.8054    0.0000 F   0  0  0  0  0  0  0  0  0  0  0  0
   -4.4935  -19.9178    0.0000 C   0  0  0  0  0  0  0  0  0  0  0  0
   -5.2080  -19.5053    0.0000 F   0  0  0  0  0  0  0  0  0  0  0  0
   -3.7790  -19.5053    0.0000 F   0  0  0  0  0  0  0  0  0  0  0  0
   -4.4935  -19.0928    0.0000 F   0  0  0  0  0  0  0  0  0  0  0  0
   -7.3514  -23.2179    0.0000 C   0  0  0  0  0  0  0  0  0  0  0  0
  1  2  1  0
  1  6  2  0
  2  3  2  0
  3  4  1  0
  4  5  2  0
  5  6  1  0
  2  7  1  0
  7  8  1  0
 12  7  1  0
  8  9  1  0
  9 10  1  0
 10 11  1  0
 11 12  1  0
  4 13  1  0
 13 14  2  0
 18 13  1  0
 14 15  1  0
 15 16  2  0
 16 17  1  0
 17 18  2  0
 14 19  1  0
 10 20  1  0
  5 21  1  0
 21 22  1  0
 22 23  1  0
 22 24  2  0
 23 25  1  0
 23 26  1  0
 23 27  1  0
 25 28  1  0
 25 32  2  0
 28 29  2  0
 29 30  1  0
 30 31  2  0
 31 32  1  0
 29 33  1  0
 33 34  1  0
 33 35  1  0
 33 36  1  0
 31 37  1  0
 37 38  1  0
 37 39  1  0
 37 40  1  0
 21 41  1  0
M  END
> <chembl_id>
CHEMBL206253

> <chembl_pref_name>
NETUPITANT
