
     RDKit          2D

 41 45  0  0  1  0  0  0  0  0999 V2000
    2.0375   -2.1417    0.0000 C   0  0  0  0  0  0  0  0  0  0  0  0
    1.3625   -2.3542    0.0000 C   0  0  0  0  0  0  0  0  0  0  0  0
    0.1292   -3.0500    0.0000 C   0  0  0  0  0  0  0  0  0  0  0  0
   -0.4833   -3.4042    0.0000 C   0  0  0  0  0  0  0  0  0  0  0  0
    1.3542   -3.0542    0.0000 C   0  0  0  0  0  0  0  0  0  0  0  0
    0.7417   -3.4042    0.0000 C   0  0  0  0  0  0  0  0  0  0  0  0
    2.4417   -2.7125    0.0000 C   0  0  0  0  0  0  0  0  0  0  0  0
   -0.4833   -4.1125    0.0000 C   0  0  0  0  0  0  0  0  0  0  0  0
    2.4542   -1.5750    0.0000 O   0  0  0  0  0  0  0  0  0  0  0  0
    0.1292   -2.3417    0.0000 C   0  0  0  0  0  0  0  0  0  0  0  0
    0.7500   -1.9917    0.0000 C   0  0  0  0  0  0  0  0  0  0  0  0
    3.1167   -1.7917    0.0000 C   0  0  0  0  0  0  0  0  0  0  0  0
    3.1167   -2.5000    0.0000 O   0  0  0  0  0  0  0  0  0  0  0  0
   -1.0958   -3.0500    0.0000 C   0  0  0  0  0  0  0  0  0  0  0  0
    2.0250   -3.2875    0.0000 C   0  0  0  0  0  0  0  0  0  0  0  0
    2.0292   -1.4292    0.0000 C   0  0  0  0  0  0  0  0  0  0  0  0
   -1.0958   -4.4667    0.0000 C   0  0  0  0  0  0  0  0  0  0  0  0
    0.7375   -4.1167    0.0000 C   0  0  0  0  0  0  0  0  0  0  0  0
   -1.7083   -3.4042    0.0000 C   0  0  0  0  0  0  0  0  0  0  0  0
   -1.7083   -4.1125    0.0000 C   0  0  0  0  0  0  0  0  0  0  0  0
    3.2417   -0.0042    0.0000 C   0  0  0  0  0  0  0  0  0  0  0  0
    0.1250   -4.4667    0.0000 C   0  0  0  0  0  0  0  0  0  0  0  0
    0.1250   -3.7542    0.0000 F   0  0  0  0  0  0  0  0  0  0  0  0
    2.6417   -1.0667    0.0000 C   0  0  0  0  0  0  0  0  0  0  0  0
    1.4167   -1.0792    0.0000 O   0  0  0  0  0  0  0  0  0  0  0  0
    2.6375   -0.3625    0.0000 O   0  0  0  0  0  0  0  0  0  0  0  0
    3.2417    0.7083    0.0000 O   0  0  0  0  0  0  0  0  0  0  0  0
   -2.3208   -4.4625    0.0000 O   0  0  0  0  0  0  0  0  0  0  0  0
    3.8625   -0.3542    0.0000 C   0  0  0  0  0  0  0  0  0  0  0  0
    4.4750    0.0083    0.0000 C   0  0  0  0  0  0  0  0  0  0  0  0
    1.3542   -1.6417    0.0000 C   0  0  0  0  0  0  0  0  0  0  0  0
   -0.4833   -1.9792    0.0000 O   0  0  0  0  0  0  0  0  0  0  0  0
   -0.4875   -2.6917    0.0000 C   0  0  0  0  0  0  0  0  0  0  0  0
    3.8292   -1.7917    0.0000 C   0  0  0  0  0  0  0  0  0  0  0  0
    3.4667   -1.1792    0.0000 C   0  0  0  0  0  0  0  0  0  0  0  0
    4.8292    0.6208    0.0000 C   0  0  0  0  0  0  0  0  0  0  0  0
    4.1167    0.6208    0.0000 C   0  0  0  0  0  0  0  0  0  0  0  0
    5.0917   -0.3417    0.0000 C   0  0  0  0  0  0  0  0  0  0  0  0
    3.0263   -3.5238    0.0000 H   0  0  0  0  0  0  0  0  0  0  0  0
    1.6051   -3.9087    0.0000 H   0  0  0  0  0  0  0  0  0  0  0  0
    1.4463   -4.0500    0.0000 H   0  0  0  0  0  0  0  0  0  0  0  0
  2  1  1  0
  3 10  1  0
  4  3  1  0
  5  2  1  0
  6  5  1  0
  7  1  1  0
  8  4  1  0
  1  9  1  0
 10 11  1  0
 11  2  1  0
 12  9  1  0
  7 13  1  0
 14  4  1  0
 15  7  1  0
  1 16  1  1
 17  8  2  0
 18  6  1  0
 19 14  2  0
 20 19  1  0
 21 26  1  0
 22 18  1  0
  3 23  1  6
 24 16  1  0
 25 16  2  0
 26 24  1  0
 27 21  2  0
 28 20  2  0
 29 21  1  0
 30 29  1  0
  2 31  1  1
 10 32  1  1
  4 33  1  1
 34 12  1  0
 35 12  1  0
 36 30  1  0
 37 30  1  0
 38 30  1  0
 15  5  1  0
 12 13  1  0
  3  6  1  0
 22  8  1  0
 20 17  1  0
  7 39  1  1
  6 40  1  1
  5 41  1  6
M  END
> <chembl_id>
CHEMBL1200878

> <chembl_pref_name>
TRIAMCINOLONE HEXACETONIDE
