
     RDKit          2D

 18 18  0  0  0  0  0  0  0  0999 V2000
    6.4292   -5.6250    0.0000 C   0  0  0  0  0  0  0  0  0  0  0  0
    7.0417   -5.2667    0.0000 O   0  0  0  0  0  0  0  0  0  0  0  0
    6.4250   -6.3292    0.0000 O   0  0  0  0  0  0  0  0  0  0  0  0
    5.2000   -5.6292    0.0000 N   0  0  0  0  0  0  0  0  0  0  0  0
    5.8167   -5.2750    0.0000 C   0  0  0  0  0  0  0  0  0  0  0  0
    2.9292   -6.2000    0.0000 N   0  0  0  0  0  0  0  0  0  0  0  0
    3.5500   -5.8417    0.0000 C   0  0  0  0  0  0  0  0  0  0  0  0
    2.3125   -5.1292    0.0000 N   0  0  0  0  0  0  0  0  0  0  0  0
    2.3125   -5.8417    0.0000 C   0  0  0  0  0  0  0  0  0  0  0  0
    3.5500   -5.1292    0.0000 C   0  0  0  0  0  0  0  0  0  0  0  0
    2.9292   -4.7792    0.0000 C   0  0  0  0  0  0  0  0  0  0  0  0
    4.2292   -6.0542    0.0000 N   0  0  0  0  0  0  0  0  0  0  0  0
    4.2292   -4.9167    0.0000 N   0  0  0  0  0  0  0  0  0  0  0  0
    4.6292   -5.4917    0.0000 C   0  0  0  0  0  0  0  0  0  0  0  0
    1.7042   -6.2000    0.0000 O   0  0  0  0  0  0  0  0  0  0  0  0
    2.9292   -4.0667    0.0000 O   0  0  0  0  0  0  0  0  0  0  0  0
    2.9292   -6.9125    0.0000 C   0  0  0  0  0  0  0  0  0  0  0  0
    1.7042   -4.7792    0.0000 C   0  0  0  0  0  0  0  0  0  0  0  0
  2  1  1  0
  3  1  2  0
  4  5  1  0
  5  1  1  0
  7  6  1  0
  8  9  1  0
  9  6  1  0
 10  7  2  0
 11  8  1  0
 12  7  1  0
 13 10  1  0
 14 12  2  0
 15  9  2  0
 16 11  2  0
 17  6  1  0
 18  8  1  0
 11 10  1  0
 14 13  1  0
M  END
> <chembl_id>
CHEMBL1208646

> <chembl_pref_name>
THEOPHYLLINE GLYCINATE
