
     RDKit          2D

 14 14  0  0  0  0  0  0  0  0999 V2000
    1.0417   -0.3917    0.0000 S   0  0  0  0  0  0  0  0  0  0  0  0
    2.3500   -0.3917    0.0000 N   0  0  0  0  0  0  0  0  0  0  0  0
    2.9875    0.7125    0.0000 C   0  0  0  0  0  0  0  0  0  0  0  0
   -0.2625   -0.3917    0.0000 C   0  0  0  0  0  0  0  0  0  0  0  0
    1.0417   -1.6625    0.0000 O   0  0  0  0  0  0  0  0  0  0  0  0
    1.0417    0.8833    0.0000 O   0  0  0  0  0  0  0  0  0  0  0  0
    2.3292    1.7833    0.0000 N   0  0  0  0  0  0  0  0  0  0  0  0
   -0.9208    0.7125    0.0000 C   0  0  0  0  0  0  0  0  0  0  0  0
   -0.9208   -1.4750    0.0000 C   0  0  0  0  0  0  0  0  0  0  0  0
    4.2042    0.7125    0.0000 N   0  0  0  0  0  0  0  0  0  0  0  0
   -2.8083   -0.3917    0.0000 C   0  0  0  0  0  0  0  0  0  0  0  0
   -4.1000   -0.3917    0.0000 N   0  0  0  0  0  0  0  0  0  0  0  0
   -2.1750    0.7125    0.0000 C   0  0  0  0  0  0  0  0  0  0  0  0
   -2.1750   -1.4750    0.0000 C   0  0  0  0  0  0  0  0  0  0  0  0
  2  1  1  0
  3  2  1  0
  4  1  1  0
  5  1  2  0
  6  1  2  0
  7  3  2  0
  8  4  1  0
  9  4  2  0
 10  3  1  0
 11 14  2  0
 12 11  1  0
 13  8  2  0
 14  9  1  0
 13 11  1  0
M  END
> <chembl_id>
CHEMBL338802

> <chembl_pref_name>
SULFAGUANIDINE
