
     RDKit          2D

 17 18  0  0  0  0  0  0  0  0999 V2000
    0.4081   -5.6297    0.0000 N   0  0  0  0  0  0  0  0  0  0  0  0
   -1.0463   -5.4027    0.0000 O   0  0  0  0  0  0  0  0  0  0  0  0
   -1.7098   -5.8882    0.0000 C   0  0  0  0  0  0  0  0  0  0  0  0
   -1.4541   -6.6721    0.0000 C   0  0  0  0  0  0  0  0  0  0  0  0
   -0.6290   -6.6723    0.0000 C   0  0  0  0  0  0  0  0  0  0  0  0
   -0.3740   -5.8878    0.0000 C   0  0  0  0  0  0  0  0  0  0  0  0
   -1.9391   -7.3395    0.0000 O   0  0  0  0  0  0  0  0  0  0  0  0
   -2.4210   -5.4700    0.0000 C   0  0  0  0  0  0  0  0  0  0  0  0
   -2.4144   -4.6450    0.0000 O   0  0  0  0  0  0  0  0  0  0  0  0
    1.0771   -6.1104    0.0000 N   0  0  0  0  0  0  0  0  0  0  0  0
    1.7405   -5.6240    0.0000 C   0  0  0  0  0  0  0  0  0  0  0  0
    1.4831   -4.8412    0.0000 N   0  0  0  0  0  0  0  0  0  0  0  0
    0.6596   -4.8451    0.0000 C   0  0  0  0  0  0  0  0  0  0  0  0
    2.4578   -6.0317    0.0000 C   0  0  0  0  0  0  0  0  0  0  0  0
    2.4633   -6.8567    0.0000 O   0  0  0  0  0  0  0  0  0  0  0  0
    3.1695   -5.6144    0.0000 N   0  0  0  0  0  0  0  0  0  0  0  0
   -0.1442   -7.3399    0.0000 O   0  0  0  0  0  0  0  0  0  0  0  0
  3  4  1  0
  8  9  1  0
  1 10  1  0
  4  5  1  0
  5  6  1  0
  6  2  1  0
  6  1  1  1
 10 11  2  0
 11 12  1  0
 12 13  2  0
 13  1  1  0
 11 14  1  0
  4  7  1  6
 14 15  2  0
  2  3  1  0
 14 16  1  0
  3  8  1  1
  5 17  1  6
M  END
> <chembl_id>
CHEMBL1643

> <chembl_pref_name>
RIBAVIRIN
