
     RDKit          2D

 22 23  0  0  0  0  0  0  0  0999 V2000
    3.2216   -6.3701    0.0000 Cl  0  0  0  0  0  0  0  0  0  0  0  0
    1.7443   -8.2039    0.0000 C   0  0  0  0  0  0  0  0  0  0  0  0
    2.4764   -8.4929    0.0000 C   0  0  0  0  0  0  0  0  0  0  0  0
    1.0597   -8.5672    0.0000 C   0  0  0  0  0  0  0  0  0  0  0  0
    2.2777  -10.0213    0.0000 S   0  0  0  0  0  0  0  0  0  0  0  0
    2.7312   -9.3027    0.0000 C   0  0  0  0  0  0  0  0  0  0  0  0
    1.7013   -7.3830    0.0000 C   0  0  0  0  0  0  0  0  0  0  0  0
    0.8705   -9.4312    0.0000 C   0  0  0  0  0  0  0  0  0  0  0  0
    1.3774  -10.0685    0.0000 C   0  0  0  0  0  0  0  0  0  0  0  0
   -0.4657   -7.0717    0.0000 N   0  0  0  0  0  0  0  0  0  0  0  0
    0.9509   -6.9975    0.0000 C   0  0  0  0  0  0  0  0  0  0  0  0
    0.4392   -8.0421    0.0000 C   0  0  0  0  0  0  0  0  0  0  0  0
    3.0419   -7.8836    0.0000 C   0  0  0  0  0  0  0  0  0  0  0  0
    0.2617   -7.4407    0.0000 C   0  0  0  0  0  0  0  0  0  0  0  0
    3.5414   -9.4771    0.0000 C   0  0  0  0  0  0  0  0  0  0  0  0
    0.1002   -9.6795    0.0000 C   0  0  0  0  0  0  0  0  0  0  0  0
   -1.1726   -7.5159    0.0000 C   0  0  0  0  0  0  0  0  0  0  0  0
   -0.5088   -6.2509    0.0000 C   0  0  0  0  0  0  0  0  0  0  0  0
   -0.3350   -8.2996    0.0000 C   0  0  0  0  0  0  0  0  0  0  0  0
    3.8393   -8.0675    0.0000 C   0  0  0  0  0  0  0  0  0  0  0  0
    4.0887   -8.8598    0.0000 C   0  0  0  0  0  0  0  0  0  0  0  0
   -0.5135   -9.1143    0.0000 C   0  0  0  0  0  0  0  0  0  0  0  0
  3  2  1  0
  4  2  1  0
  5  6  1  0
  6  3  1  0
  7  2  2  0
  8  4  1  0
  9  8  1  0
 10 14  1  0
 11  7  1  0
 12  4  2  0
 13  3  2  0
 14 11  1  0
 15  6  2  0
 16  8  2  0
 17 10  1  0
 18 10  1  0
 19 12  1  0
 20 13  1  0
 21 20  2  0
 22 19  2  0
  5  9  1  0
 22 16  1  0
 21 15  1  0
M  END
> <chembl_id>
CHEMBL1711280

> <chembl_pref_name>
DOTHIEPIN HYDROCHLORIDE
