
     RDKit          2D

 30 33  0  0  0  0  0  0  0  0999 V2000
    7.1917   -3.2000    0.0000 N   0  0  0  0  0  0  0  0  0  0  0  0
    6.5000   -4.0917    0.0000 C   0  0  0  0  0  0  0  0  0  0  0  0
    6.5000   -3.4042    0.0000 C   0  0  0  0  0  0  0  0  0  0  0  0
    7.1917   -4.3167    0.0000 C   0  0  0  0  0  0  0  0  0  0  0  0
    7.6042   -3.7500    0.0000 C   0  0  0  0  0  0  0  0  0  0  0  0
    5.9000   -4.4625    0.0000 C   0  0  0  0  0  0  0  0  0  0  0  0
    5.8875   -5.1625    0.0000 O   0  0  0  0  0  0  0  0  0  0  0  0
    2.8000   -5.5167    0.0000 C   0  0  0  0  0  0  0  0  0  0  0  0
    2.8000   -6.2042    0.0000 C   0  0  0  0  0  0  0  0  0  0  0  0
    6.4542   -5.4917    0.0000 C   0  0  0  0  0  0  0  0  0  0  0  0
    6.4542   -6.1917    0.0000 C   0  0  0  0  0  0  0  0  0  0  0  0
    5.9000   -3.0375    0.0000 C   0  0  0  0  0  0  0  0  0  0  0  0
    5.2625   -6.1917    0.0000 N   0  0  0  0  0  0  0  0  0  0  0  0
    3.3792   -5.1292    0.0000 O   0  0  0  0  0  0  0  0  0  0  0  0
    3.4000   -6.5792    0.0000 O   0  0  0  0  0  0  0  0  0  0  0  0
    7.1125   -6.6167    0.0000 O   0  0  0  0  0  0  0  0  0  0  0  0
    7.4542   -4.9500    0.0000 C   0  0  0  0  0  0  0  0  0  0  0  0
    8.3042   -3.8167    0.0000 C   0  0  0  0  0  0  0  0  0  0  0  0
    5.2625   -3.3917    0.0000 C   0  0  0  0  0  0  0  0  0  0  0  0
    5.2625   -4.1167    0.0000 C   0  0  0  0  0  0  0  0  0  0  0  0
    5.8667   -6.5667    0.0000 C   0  0  0  0  0  0  0  0  0  0  0  0
    2.1417   -5.1625    0.0000 C   0  0  0  0  0  0  0  0  0  0  0  0
    2.1875   -6.6000    0.0000 C   0  0  0  0  0  0  0  0  0  0  0  0
    4.6625   -6.5667    0.0000 C   0  0  0  0  0  0  0  0  0  0  0  0
    4.0292   -6.2042    0.0000 C   0  0  0  0  0  0  0  0  0  0  0  0
    3.3542   -4.4542    0.0000 C   0  0  0  0  0  0  0  0  0  0  0  0
    8.1667   -5.0375    0.0000 C   0  0  0  0  0  0  0  0  0  0  0  0
    8.6042   -4.4625    0.0000 C   0  0  0  0  0  0  0  0  0  0  0  0
    1.5417   -5.5542    0.0000 C   0  0  0  0  0  0  0  0  0  0  0  0
    1.5625   -6.2542    0.0000 C   0  0  0  0  0  0  0  0  0  0  0  0
  2  3  2  0
  3  1  1  0
  4  5  2  0
  5  1  1  0
  6  2  1  0
  7  6  1  0
  8  9  2  0
  9 15  1  0
 10  7  1  0
 11 10  1  0
 12  3  1  0
 13 21  1  0
 14  8  1  0
 15 25  1  0
 16 11  1  0
 17  4  1  0
 18  5  1  0
 19 12  2  0
 20 19  1  0
 21 11  1  0
 22  8  1  0
 23  9  1  0
 24 13  1  0
 25 24  1  0
 26 14  1  0
 27 28  1  0
 28 18  2  0
 29 30  1  0
 30 23  2  0
  4  2  1  0
 27 17  2  0
 20  6  2  0
 29 22  2  0
M  END
> <chembl_id>
CHEMBL723

> <chembl_pref_name>
CARVEDILOL
