
     RDKit          2D

 19 21  0  0  0  0  0  0  0  0999 V2000
    0.3833    0.3958    0.0000 N   0  0  0  0  0  0  0  0  0  0  0  0
    0.6292   -0.3917    0.0000 C   0  0  0  0  0  0  0  0  0  0  0  0
    0.9875    0.9583    0.0000 C   0  0  0  0  0  0  0  0  0  0  0  0
    0.1625   -1.0750    0.0000 C   0  0  0  0  0  0  0  0  0  0  0  0
   -0.3833    0.7000    0.0000 C   0  0  0  0  0  0  0  0  0  0  0  0
   -0.6583   -1.1333    0.0000 C   0  0  0  0  0  0  0  0  0  0  0  0
   -1.1000    0.2875    0.0000 C   0  0  0  0  0  0  0  0  0  0  0  0
   -1.2208   -0.5292    0.0000 C   0  0  0  0  0  0  0  0  0  0  0  0
    0.8042    1.7625    0.0000 O   0  0  0  0  0  0  0  0  0  0  0  0
    1.7792    0.7167    0.0000 N   0  0  0  0  0  0  0  0  0  0  0  0
   -1.2417   -1.7167    0.0000 O   0  0  0  0  0  0  0  0  0  0  0  0
    1.4500   -0.4542    0.0000 C   0  0  0  0  0  0  0  0  0  0  0  0
    0.5208   -1.8167    0.0000 C   0  0  0  0  0  0  0  0  0  0  0  0
   -0.3833    1.5250    0.0000 C   0  0  0  0  0  0  0  0  0  0  0  0
   -1.8125    0.7000    0.0000 C   0  0  0  0  0  0  0  0  0  0  0  0
    1.8083   -1.1958    0.0000 C   0  0  0  0  0  0  0  0  0  0  0  0
    1.3417   -1.8792    0.0000 C   0  0  0  0  0  0  0  0  0  0  0  0
   -1.1000    1.9375    0.0000 C   0  0  0  0  0  0  0  0  0  0  0  0
   -1.8125    1.5250    0.0000 C   0  0  0  0  0  0  0  0  0  0  0  0
  2  1  1  0
  3  1  1  0
  4  2  2  0
  5  1  1  0
  6  4  1  0
  7  5  2  0
  8  7  1  0
  9  3  2  0
 10  3  1  0
  6 11  1  1
 12  2  1  0
 13  4  1  0
 14  5  1  0
 15  7  1  0
 16 12  2  0
 17 16  1  0
 18 14  2  0
 19 18  1  0
  6  8  1  0
 15 19  2  0
 17 13  2  0
M  END
> <chembl_id>
CHEMBL315985

> <chembl_pref_name>
ESLICARBAZEPINE
