
     RDKit          2D

  9  9  0  0  0  0  0  0  0  0999 V2000
    5.0167   -5.3542    0.0000 N   0  0  0  0  0  0  0  0  0  0  0  0
    5.6167   -5.0125    0.0000 C   0  0  0  0  0  0  0  0  0  0  0  0
    5.6292   -4.3042    0.0000 C   0  0  0  0  0  0  0  0  0  0  0  0
    4.4000   -5.0125    0.0000 C   0  0  0  0  0  0  0  0  0  0  0  0
    4.4042   -4.3000    0.0000 N   0  0  0  0  0  0  0  0  0  0  0  0
    5.0042   -3.9417    0.0000 C   0  0  0  0  0  0  0  0  0  0  0  0
    3.7750   -5.3542    0.0000 O   0  0  0  0  0  0  0  0  0  0  0  0
    6.2417   -5.3667    0.0000 N   0  0  0  0  0  0  0  0  0  0  0  0
    6.2542   -3.9500    0.0000 F   0  0  0  0  0  0  0  0  0  0  0  0
  2  1  2  0
  3  2  1  0
  4  1  1  0
  5  4  1  0
  6  5  1  0
  7  4  2  0
  8  2  1  0
  9  3  1  0
  6  3  2  0
M  END
> <chembl_id>
CHEMBL1463

> <chembl_pref_name>
FLUCYTOSINE
