
     RDKit          2D

 21 20  0  0  0  0  0  0  0  0999 V2000
   -1.0583    2.5875    0.0000 Na  0  0  0  0  0 15  0  0  0  0  0  0
   -1.2458    0.7083    0.0000 C   0  0  0  0  0  0  0  0  0  0  0  0
    1.4000    0.8750    0.0000 C   0  0  0  0  0  0  0  0  0  0  0  0
   -2.6375    1.3833    0.0000 C   0  0  0  0  0  0  0  0  0  0  0  0
    1.4917   -0.6417    0.0000 C   0  0  0  0  0  0  0  0  0  0  0  0
    0.0375    1.5583    0.0000 S   0  0  0  0  0  0  0  0  0  0  0  0
   -3.9208    0.5208    0.0000 C   0  0  0  0  0  0  0  0  0  0  0  0
    2.9000   -1.3167    0.0000 C   0  0  0  0  0  0  0  0  0  0  0  0
    2.6792    1.7375    0.0000 C   0  0  0  0  0  0  0  0  0  0  0  0
   -1.1500   -0.8125    0.0000 C   0  0  0  0  0  0  0  0  0  0  0  0
   -3.8333   -0.9917    0.0000 C   0  0  0  0  0  0  0  0  0  0  0  0
    4.1667   -0.4667    0.0000 C   0  0  0  0  0  0  0  0  0  0  0  0
    4.0792    1.0458    0.0000 C   0  0  0  0  0  0  0  0  0  0  0  0
   -2.4333   -1.6750    0.0000 C   0  0  0  0  0  0  0  0  0  0  0  0
   -2.7375    2.9208    0.0000 O   0  0  0  0  0  0  0  0  0  0  0  0
    0.2042   -1.5000    0.0000 O   0  0  0  0  0  0  0  0  0  0  0  0
   -5.3208    1.2208    0.0000 Cl  0  0  0  0  0  0  0  0  0  0  0  0
    2.9917   -2.8750    0.0000 Cl  0  0  0  0  0  0  0  0  0  0  0  0
   -2.3333   -3.2250    0.0000 Cl  0  0  0  0  0  0  0  0  0  0  0  0
    5.3625    1.9208    0.0000 Cl  0  0  0  0  0  0  0  0  0  0  0  0
    1.2792   -2.9000    0.0000 Na  0  0  0  0  0 15  0  0  0  0  0  0
  3  6  1  0
  4  2  1  0
  5  3  2  0
  6  2  1  0
  7  4  2  0
  8  5  1  0
  9  3  1  0
 10  2  2  0
 11 14  2  0
 12 13  1  0
 13  9  2  0
 14 10  1  0
 15  4  1  0
 16  5  1  0
 17  7  1  0
 18  8  1  0
 19 14  1  0
 20 13  1  0
  7 11  1  0
  8 12  2  0
M  CHG  4   1   1  15  -1  16  -1  21   1
M  END
> <chembl_id>
CHEMBL1447476

> <chembl_pref_name>
BITHIONOLATE SODIUM
