
     RDKit          2D

 15 14  0  0  0  0  0  0  0  0999 V2000
    3.0042   -4.6875    0.0000 C   0  0  0  0  0  0  0  0  0  0  0  0
   -0.6708   -4.6875    0.0000 C   0  0  0  0  0  0  0  0  0  0  0  0
    1.1667   -4.3292    0.0000 C   0  0  0  0  0  0  0  0  0  0  0  0
    3.0042   -5.3917    0.0000 O   0  0  0  0  0  0  0  0  0  0  0  0
   -0.6708   -5.3917    0.0000 O   0  0  0  0  0  0  0  0  0  0  0  0
    2.3917   -4.3292    0.0000 O   0  0  0  0  0  0  0  0  0  0  0  0
   -0.0583   -4.3292    0.0000 O   0  0  0  0  0  0  0  0  0  0  0  0
   -1.2833   -4.3292    0.0000 N   0  0  0  0  0  0  0  0  0  0  0  0
    3.6250   -4.3292    0.0000 N   0  0  0  0  0  0  0  0  0  0  0  0
    0.5542   -4.6875    0.0000 C   0  0  0  0  0  0  0  0  0  0  0  0
    1.7792   -4.6875    0.0000 C   0  0  0  0  0  0  0  0  0  0  0  0
    0.8125   -3.7125    0.0000 C   0  0  0  0  0  0  0  0  0  0  0  0
    1.5167   -3.7125    0.0000 C   0  0  0  0  0  0  0  0  0  0  0  0
    1.1625   -3.0917    0.0000 C   0  0  0  0  0  0  0  0  0  0  0  0
    0.8042   -2.4792    0.0000 C   0  0  0  0  0  0  0  0  0  0  0  0
  2  7  1  0
  3 11  1  0
  4  1  2  0
  5  2  2  0
  6  1  1  0
  7 10  1  0
  8  2  1  0
  9  1  1  0
 10  3  1  0
 11  6  1  0
 12  3  1  0
 13  3  1  0
 14 12  1  0
 15 14  1  0
M  END
> <chembl_id>
CHEMBL979

> <chembl_pref_name>
MEPROBAMATE
