
     RDKit          2D

 23 25  0  0  0  0  0  0  0  0999 V2000
    5.8219   -2.7648    0.0000 C   0  0  0  0  0  0  0  0  0  0  0  0
    6.8998   -3.5783    0.0000 C   0  0  0  0  0  0  0  0  0  0  0  0
    6.3803   -3.1416    0.0000 C   0  0  0  0  0  0  0  0  0  0  0  0
    5.3929   -3.1416    0.0000 C   0  0  0  0  0  0  0  0  0  0  0  0
    5.2489   -2.3170    0.0000 N   0  0  0  0  0  0  0  0  0  0  0  0
    6.7619   -2.7494    0.0000 C   0  0  0  0  0  0  0  0  0  0  0  0
    4.8652   -3.8657    0.0000 C   0  0  0  0  0  0  0  0  0  0  0  0
    5.4930   -3.4853    0.0000 C   0  0  0  0  0  0  0  0  0  0  0  0
    5.1616   -1.3245    0.0000 C   0  0  0  0  0  0  0  0  0  0  0  0
    4.5642   -3.1416    0.0000 H   0  0  0  0  0  0  0  0  0  0  0  0
    6.2240   -2.0473    0.0000 H   0  0  0  0  0  0  0  0  0  0  0  0
    7.1086   -4.3683    0.0000 O   0  0  0  0  0  0  0  0  0  0  0  0
    7.8199   -4.7786    0.0000 C   0  0  0  0  0  0  0  0  0  0  0  0
    8.5363   -4.3700    0.0000 C   0  0  0  0  0  0  0  0  0  0  0  0
    7.8180   -5.6038    0.0000 O   0  0  0  0  0  0  0  0  0  0  0  0
    9.2506   -4.7821    0.0000 C   0  0  0  0  0  0  0  0  0  0  0  0
    8.5383   -3.5446    0.0000 C   0  0  0  0  0  0  0  0  0  0  0  0
    9.2547   -3.1314    0.0000 O   0  0  0  0  0  0  0  0  0  0  0  0
    9.2508   -5.6071    0.0000 C   0  0  0  0  0  0  0  0  0  0  0  0
    9.9654   -6.0194    0.0000 C   0  0  0  0  0  0  0  0  0  0  0  0
   10.6798   -5.6067    0.0000 C   0  0  0  0  0  0  0  0  0  0  0  0
   10.6796   -4.7816    0.0000 C   0  0  0  0  0  0  0  0  0  0  0  0
    9.9650   -4.3694    0.0000 C   0  0  0  0  0  0  0  0  0  0  0  0
  2  3  1  0
  4 10  1  1
  3  4  1  0
  1 11  1  6
  4  5  1  0
  2 12  1  6
  5  1  1  0
 12 13  1  0
  1  6  1  0
 13 14  1  0
  6  2  1  0
 13 15  2  0
  4  7  1  0
 14 16  1  0
  1  8  1  0
 14 17  1  0
  7  8  1  0
 17 18  1  0
  5  9  1  0
 16 19  1  0
 16 23  2  0
 19 20  2  0
 20 21  1  0
 21 22  2  0
 22 23  1  0
M  END
> <chembl_id>
CHEMBL517712

> <chembl_pref_name>
ATROPINE
