
     RDKit          2D

 31 28  0  0  0  0  0  0  0  0999 V2000
   -2.2909   -5.9841    0.0000 Ca  0  0  0  0  0 15  0  0  0  0  0  0
   -4.5415   -3.5091    0.0000 C   0  0  0  0  0  0  0  0  0  0  0  0
   -3.8270   -3.0966    0.0000 C   0  0  0  0  0  0  0  0  0  0  0  0
   -3.1125   -3.5091    0.0000 C   0  0  0  0  0  0  0  0  0  0  0  0
   -2.3981   -3.0966    0.0000 C   0  0  0  0  0  0  0  0  0  0  0  0
   -1.6836   -3.5091    0.0000 C   0  0  0  0  0  0  0  0  0  0  0  0
   -0.9691   -3.0966    0.0000 C   0  0  0  0  0  0  0  0  0  0  0  0
   -0.2546   -3.5091    0.0000 C   0  0  0  0  0  0  0  0  0  0  0  0
   -5.2559   -3.0966    0.0000 O   0  0  0  0  0  0  0  0  0  0  0  0
   -3.8270   -2.2716    0.0000 O   0  0  0  0  0  0  0  0  0  0  0  0
   -3.1125   -4.3341    0.0000 O   0  0  0  0  0  0  0  0  0  0  0  0
   -2.3981   -2.2716    0.0000 O   0  0  0  0  0  0  0  0  0  0  0  0
   -1.6836   -4.3341    0.0000 O   0  0  0  0  0  0  0  0  0  0  0  0
   -0.9691   -2.2716    0.0000 O   0  0  0  0  0  0  0  0  0  0  0  0
    0.4598   -3.0966    0.0000 O   0  0  0  0  0  0  0  0  0  0  0  0
   -0.2546   -4.3341    0.0000 O   0  0  0  0  0  0  0  0  0  0  0  0
    3.2957   -3.5091    0.0000 C   0  0  0  0  0  0  0  0  0  0  0  0
    4.0102   -3.0966    0.0000 C   0  0  0  0  0  0  0  0  0  0  0  0
    4.7247   -3.5091    0.0000 C   0  0  0  0  0  0  0  0  0  0  0  0
    5.4391   -3.0966    0.0000 C   0  0  0  0  0  0  0  0  0  0  0  0
    6.1536   -3.5091    0.0000 C   0  0  0  0  0  0  0  0  0  0  0  0
    6.8681   -3.0966    0.0000 C   0  0  0  0  0  0  0  0  0  0  0  0
    7.5826   -3.5091    0.0000 C   0  0  0  0  0  0  0  0  0  0  0  0
    2.5813   -3.0966    0.0000 O   0  0  0  0  0  0  0  0  0  0  0  0
    4.0102   -2.2716    0.0000 O   0  0  0  0  0  0  0  0  0  0  0  0
    4.7247   -4.3341    0.0000 O   0  0  0  0  0  0  0  0  0  0  0  0
    5.4391   -2.2716    0.0000 O   0  0  0  0  0  0  0  0  0  0  0  0
    6.1536   -4.3341    0.0000 O   0  0  0  0  0  0  0  0  0  0  0  0
    6.8681   -2.2716    0.0000 O   0  0  0  0  0  0  0  0  0  0  0  0
    8.2970   -3.0966    0.0000 O   0  0  0  0  0  0  0  0  0  0  0  0
    7.5826   -4.3341    0.0000 O   0  0  0  0  0  0  0  0  0  0  0  0
  3  2  1  0
  4  3  1  0
  5  4  1  0
  6  5  1  0
  6  7  1  0
  8  7  1  0
  9  2  1  0
  3 10  1  1
  4 11  1  6
  5 12  1  6
  6 13  1  6
 14  7  1  0
 15  8  2  0
 16  8  1  0
 18 17  1  0
 19 18  1  0
 20 19  1  0
 21 20  1  0
 21 22  1  0
 23 22  1  0
 24 17  1  0
 18 25  1  1
 19 26  1  6
 20 27  1  6
 21 28  1  6
 29 22  1  0
 30 23  2  0
 31 23  1  0
M  CHG  3   1   2  16  -1  31  -1
M  END
> <chembl_id>
CHEMBL1237066

> <chembl_pref_name>
CALCIUM GLUCEPTATE
