
     RDKit          2D

 60 64  0  0  0  0  0  0  0  0999 V2000
    7.5292   -3.4667    0.0000 S   0  0  0  0  0  0  0  0  0  0  0  0
   10.3917   -3.4625    0.0000 S   0  0  0  0  0  0  0  0  0  0  0  0
    5.3917   -3.8917    0.0000 C   0  0  0  0  0  0  0  0  0  0  0  0
    5.4000   -4.7167    0.0000 C   0  0  0  0  0  0  0  0  0  0  0  0
    5.3875   -1.4167    0.0000 N   0  0  0  0  0  0  0  0  0  0  0  0
    4.6792   -3.4875    0.0000 C   0  0  0  0  0  0  0  0  0  0  0  0
    5.3917   -2.2417    0.0000 C   0  0  0  0  0  0  0  0  0  0  0  0
    6.1167   -5.1250    0.0000 C   0  0  0  0  0  0  0  0  0  0  0  0
    6.1125   -3.4792    0.0000 C   0  0  0  0  0  0  0  0  0  0  0  0
    4.6750   -2.6625    0.0000 C   0  0  0  0  0  0  0  0  0  0  0  0
    6.1042   -2.6542    0.0000 C   0  0  0  0  0  0  0  0  0  0  0  0
    9.6792   -3.8750    0.0000 C   0  0  0  0  0  0  0  0  0  0  0  0
    7.5292   -2.6417    0.0000 C   0  0  0  0  0  0  0  0  0  0  0  0
    6.8167   -4.7042    0.0000 C   0  0  0  0  0  0  0  0  0  0  0  0
    7.5417   -5.9417    0.0000 C   0  0  0  0  0  0  0  0  0  0  0  0
    8.2542   -6.3542    0.0000 N   0  0  0  0  0  0  0  0  0  0  0  0
    7.5375   -5.1167    0.0000 C   0  0  0  0  0  0  0  0  0  0  0  0
   11.1042   -3.0417    0.0000 O   0  0  0  0  0  0  0  0  0  0  0  0
    7.5375   -4.2917    0.0000 O   0  0  0  0  0  0  0  0  0  0  0  0
    4.6875   -5.1292    0.0000 C   0  0  0  0  0  0  0  0  0  0  0  0
    6.1125   -5.9500    0.0000 C   0  0  0  0  0  0  0  0  0  0  0  0
    8.4542   -3.2542    0.0000 O   0  0  0  0  0  0  0  0  0  0  0  0
   11.1042   -3.8667    0.0000 O   0  0  0  0  0  0  0  0  0  0  0  0
   10.3875   -2.6375    0.0000 O   0  0  0  0  0  0  0  0  0  0  0  0
    6.7125   -3.3417    0.0000 O   0  0  0  0  0  0  0  0  0  0  0  0
    6.1000   -1.0042    0.0000 C   0  0  0  0  0  0  0  0  0  0  0  0
    8.9667   -5.9375    0.0000 C   0  0  0  0  0  0  0  0  0  0  0  0
    9.6792   -4.7000    0.0000 C   0  0  0  0  0  0  0  0  0  0  0  0
    6.8167   -2.2375    0.0000 C   0  0  0  0  0  0  0  0  0  0  0  0
    2.5417   -6.3750    0.0000 N   0  0  0  0  0  0  0  0  0  0  0  0
    6.8292   -6.3542    0.0000 C   0  0  0  0  0  0  0  0  0  0  0  0
    6.8167   -1.4125    0.0000 C   0  0  0  0  0  0  0  0  0  0  0  0
    8.9667   -5.1125    0.0000 C   0  0  0  0  0  0  0  0  0  0  0  0
    3.9750   -4.7167    0.0000 C   0  0  0  0  0  0  0  0  0  0  0  0
    4.6875   -5.9542    0.0000 C   0  0  0  0  0  0  0  0  0  0  0  0
    3.2625   -5.9542    0.0000 C   0  0  0  0  0  0  0  0  0  0  0  0
    1.8292   -5.9542    0.0000 C   0  0  0  0  0  0  0  0  0  0  0  0
    4.6667   -1.0042    0.0000 C   0  0  0  0  0  0  0  0  0  0  0  0
    0.4042   -5.1375    0.0000 C   0  0  0  0  0  0  0  0  0  0  0  0
    3.9750   -6.3667    0.0000 C   0  0  0  0  0  0  0  0  0  0  0  0
    3.2625   -5.1292    0.0000 C   0  0  0  0  0  0  0  0  0  0  0  0
    3.9667   -3.9042    0.0000 C   0  0  0  0  0  0  0  0  0  0  0  0
    1.8292   -5.1292    0.0000 C   0  0  0  0  0  0  0  0  0  0  0  0
    1.1167   -6.3750    0.0000 C   0  0  0  0  0  0  0  0  0  0  0  0
    0.4042   -5.9625    0.0000 C   0  0  0  0  0  0  0  0  0  0  0  0
    1.1167   -4.7167    0.0000 C   0  0  0  0  0  0  0  0  0  0  0  0
   -0.3083   -4.7250    0.0000 O   0  0  0  0  0  0  0  0  0  0  0  0
    8.2500   -2.2292    0.0000 C   0  0  0  0  0  0  0  0  0  0  0  0
    8.9625   -3.4667    0.0000 C   0  0  0  0  0  0  0  0  0  0  0  0
    6.8167   -3.8792    0.0000 C   0  0  0  0  0  0  0  0  0  0  0  0
    8.2625   -7.1792    0.0000 C   0  0  0  0  0  0  0  0  0  0  0  0
    8.2417   -1.4000    0.0000 C   0  0  0  0  0  0  0  0  0  0  0  0
    8.2417   -3.8875    0.0000 C   0  0  0  0  0  0  0  0  0  0  0  0
    7.5250   -0.9917    0.0000 C   0  0  0  0  0  0  0  0  0  0  0  0
    8.2542   -4.7042    0.0000 C   0  0  0  0  0  0  0  0  0  0  0  0
   -0.3083   -3.9000    0.0000 C   0  0  0  0  0  0  0  0  0  0  0  0
    3.9542   -1.4250    0.0000 C   0  0  0  0  0  0  0  0  0  0  0  0
    7.5500   -7.5917    0.0000 C   0  0  0  0  0  0  0  0  0  0  0  0
   -1.0250   -3.4875    0.0000 C   0  0  0  0  0  0  0  0  0  0  0  0
   12.0167   -2.6292    0.0000 Na  0  0  0  0  0 15  0  0  0  0  0  0
  2 12  1  0
  3  9  1  0
  4  3  2  0
  5 26  1  0
  6 10  2  0
  7  5  2  0
  8  4  1  0
  9 11  2  0
 10  7  1  0
 11  7  1  0
 12 28  1  0
 13  1  1  0
 14  8  1  0
 15 31  2  0
 16 15  1  0
 17 14  2  0
 18  2  1  0
 19  1  1  0
 20  4  1  0
 21  8  2  0
 22  1  2  0
 23  2  2  0
 24  2  2  0
 25  1  2  0
 26 32  1  0
 27 16  1  0
 28 33  2  0
 29 13  1  0
 30 36  1  0
 31 21  1  0
 32 29  2  0
 33 27  1  0
 34 20  2  0
 35 20  1  0
 36 41  2  0
 37 30  1  0
 38  5  1  0
 39 46  1  0
 40 35  2  0
 41 34  1  0
 42  6  1  0
 43 37  1  0
 44 37  2  0
 45 44  1  0
 46 43  2  0
 47 39  1  0
 48 13  2  0
 49 53  1  0
 50 14  1  0
 51 16  1  0
 52 48  1  0
 53 55  2  0
 54 52  2  0
 55 33  1  0
 56 47  1  0
 57 38  1  0
 58 51  1  0
 59 56  1  0
 32 54  1  0
  3  6  1  0
 36 40  1  0
 15 17  1  0
 39 45  2  0
 12 49  2  0
M  CHG  4   5   1  18  -1  19  -1  60   1
M  END
> <chembl_id>
CHEMBL4173394

> <chembl_pref_name>
BRILLIANT BLUE G
