
     RDKit          2D

 34 37  0  0  1  0  0  0  0  0999 V2000
    0.9167   -1.1542    0.0000 N   0  0  0  0  0  0  0  0  0  0  0  0
    0.0792   -1.1542    0.0000 C   0  0  0  0  0  0  0  0  0  0  0  0
    0.0792   -0.4792    0.0000 C   0  0  0  0  0  0  0  0  0  0  0  0
    0.9167   -0.4792    0.0000 C   0  0  0  0  0  0  0  0  0  0  0  0
    4.0292   -1.5417    0.0000 C   0  0  0  0  0  0  0  0  0  0  0  0
    1.5417   -1.5417    0.0000 C   0  0  0  0  0  0  0  0  0  0  0  0
   -2.3833   -0.5125    0.0000 C   0  0  0  0  0  0  0  0  0  0  0  0
    4.5917   -1.1167    0.0000 N   0  0  0  0  0  0  0  0  0  0  0  0
    4.2417   -2.2125    0.0000 N   0  0  0  0  0  0  0  0  0  0  0  0
    4.9667   -2.2125    0.0000 N   0  0  0  0  0  0  0  0  0  0  0  0
   -1.7958   -0.1542    0.0000 C   0  0  0  0  0  0  0  0  0  0  0  0
   -2.9708   -0.1292    0.0000 N   0  0  0  0  0  0  0  0  0  0  0  0
    5.1667   -1.5417    0.0000 N   0  0  0  0  0  0  0  0  0  0  0  0
   -0.5833   -0.1292    0.0000 N   0  0  0  0  0  0  0  0  0  0  0  0
   -1.1958   -0.4792    0.0000 C   0  0  0  0  0  0  0  0  0  0  0  0
    1.5417   -0.1417    0.0000 S   0  0  0  0  0  0  0  0  0  0  0  0
    2.1667   -1.1542    0.0000 C   0  0  0  0  0  0  0  0  0  0  0  0
   -3.5333   -0.5125    0.0000 C   0  0  0  0  0  0  0  0  0  0  0  0
   -2.5958   -1.2125    0.0000 C   0  0  0  0  0  0  0  0  0  0  0  0
   -3.3333   -1.2125    0.0000 S   0  0  0  0  0  0  0  0  0  0  0  0
    1.5417   -2.2292    0.0000 C   0  0  0  0  0  0  0  0  0  0  0  0
    3.4042   -1.1667    0.0000 S   0  0  0  0  0  0  0  0  0  0  0  0
    2.1667   -0.4792    0.0000 C   0  0  0  0  0  0  0  0  0  0  0  0
   -1.7958    0.5208    0.0000 N   0  0  0  0  0  0  0  0  0  0  0  0
   -0.4083   -1.4875    0.0000 O   0  0  0  0  0  0  0  0  0  0  0  0
    2.7917   -1.5292    0.0000 C   0  0  0  0  0  0  0  0  0  0  0  0
   -1.1958   -1.1917    0.0000 O   0  0  0  0  0  0  0  0  0  0  0  0
    0.9042   -2.5917    0.0000 O   0  0  0  0  0  0  0  0  0  0  0  0
   -4.1708   -0.1292    0.0000 N   0  0  0  0  0  0  0  0  0  0  0  0
    4.5917   -0.4167    0.0000 C   0  0  0  0  0  0  0  0  0  0  0  0
    2.1542   -2.6000    0.0000 O   0  0  0  0  0  0  0  0  0  0  0  0
   -1.2208    0.8708    0.0000 O   0  0  0  0  0  0  0  0  0  0  0  0
   -1.2208    1.5583    0.0000 C   0  0  0  0  0  0  0  0  0  0  0  0
    0.9167    0.2250    0.0000 H   0  0  0  0  0  0  0  0  0  0  0  0
  2  1  1  0
  3  4  1  0
  4  1  1  0
  5 22  1  0
  6  1  1  0
  7 11  1  0
  8  5  1  0
  9  5  2  0
 10  9  1  0
 11 15  1  0
 12  7  1  0
 13  8  1  0
  3 14  1  1
 15 14  1  0
 16  4  1  0
 17  6  2  0
 18 12  2  0
 19  7  2  0
 20 19  1  0
 21  6  1  0
 22 26  1  0
 23 17  1  0
 24 11  2  0
 25  2  2  0
 26 17  1  0
 27 15  2  0
 28 21  2  0
 29 18  1  0
 30  8  1  0
 31 21  1  0
 32 24  1  0
 33 32  1  0
  4 34  1  6
  2  3  1  0
 16 23  1  0
 13 10  2  0
 20 18  1  0
M  END
> <chembl_id>
CHEMBL1201224

> <chembl_pref_name>
CEFMENOXIME
