
     RDKit          2D

 42 45  0  0  0  0  0  0  0  0999 V2000
    6.1292    1.3708    0.0000 Na  0  0  0  0  0 15  0  0  0  0  0  0
   -0.8708   -2.5125    0.0000 N   0  0  0  0  0  0  0  0  0  0  0  0
    4.0000   -0.1875    0.0000 C   0  0  0  0  0  0  0  0  0  0  0  0
   -1.4625   -2.1625    0.0000 C   0  0  0  0  0  0  0  0  0  0  0  0
    5.3125   -3.2000    0.0000 C   0  0  0  0  0  0  0  0  0  0  0  0
   -2.0750   -2.5250    0.0000 C   0  0  0  0  0  0  0  0  0  0  0  0
    4.6625    0.9625    0.0000 C   0  0  0  0  0  0  0  0  0  0  0  0
    3.3375   -0.1875    0.0000 C   0  0  0  0  0  0  0  0  0  0  0  0
    3.7000    0.4208    0.0000 C   0  0  0  0  0  0  0  0  0  0  0  0
    4.7000   -3.5375    0.0000 C   0  0  0  0  0  0  0  0  0  0  0  0
    0.3167   -2.5125    0.0000 C   0  0  0  0  0  0  0  0  0  0  0  0
    0.9417   -2.1917    0.0000 C   0  0  0  0  0  0  0  0  0  0  0  0
    3.4167   -1.3792    0.0000 S   0  0  0  0  0  0  0  0  0  0  0  0
    2.7625   -2.5250    0.0000 C   0  0  0  0  0  0  0  0  0  0  0  0
   -0.2625   -2.1625    0.0000 C   0  0  0  0  0  0  0  0  0  0  0  0
   -1.4625   -1.5000    0.0000 C   0  0  0  0  0  0  0  0  0  0  0  0
    5.3125   -2.5125    0.0000 C   0  0  0  0  0  0  0  0  0  0  0  0
    4.6625    0.2333    0.0000 C   0  0  0  0  0  0  0  0  0  0  0  0
    3.4167   -2.1167    0.0000 C   0  0  0  0  0  0  0  0  0  0  0  0
    5.3375    1.3583    0.0000 O   0  0  0  0  0  0  0  0  0  0  0  0
    2.1417   -2.1625    0.0000 C   0  0  0  0  0  0  0  0  0  0  0  0
    4.0000   -1.0250    0.0000 C   0  0  0  0  0  0  0  0  0  0  0  0
    3.9667    1.3583    0.0000 O   0  0  0  0  0  0  0  0  0  0  0  0
    4.6750   -2.1750    0.0000 C   0  0  0  0  0  0  0  0  0  0  0  0
    4.0625   -2.5125    0.0000 C   0  0  0  0  0  0  0  0  0  0  0  0
   -2.6875   -2.1750    0.0000 C   0  0  0  0  0  0  0  0  0  0  0  0
   -2.0750   -1.1250    0.0000 C   0  0  0  0  0  0  0  0  0  0  0  0
   -0.8708   -1.1625    0.0000 C   0  0  0  0  0  0  0  0  0  0  0  0
    1.5625   -2.5125    0.0000 C   0  0  0  0  0  0  0  0  0  0  0  0
    4.3417   -4.1500    0.0000 O   0  0  0  0  0  0  0  0  0  0  0  0
   -0.2625   -1.5000    0.0000 C   0  0  0  0  0  0  0  0  0  0  0  0
   -2.6875   -1.4750    0.0000 C   0  0  0  0  0  0  0  0  0  0  0  0
   -3.3000   -2.5250    0.0000 Cl  0  0  0  0  0  0  0  0  0  0  0  0
    2.7625   -3.2125    0.0000 C   0  0  0  0  0  0  0  0  0  0  0  0
    2.1417   -3.5750    0.0000 C   0  0  0  0  0  0  0  0  0  0  0  0
    5.9250   -3.5750    0.0000 C   0  0  0  0  0  0  0  0  0  0  0  0
    4.1000   -3.2000    0.0000 C   0  0  0  0  0  0  0  0  0  0  0  0
    5.0500   -4.1500    0.0000 C   0  0  0  0  0  0  0  0  0  0  0  0
    5.9250   -2.1625    0.0000 C   0  0  0  0  0  0  0  0  0  0  0  0
    1.5625   -3.2125    0.0000 C   0  0  0  0  0  0  0  0  0  0  0  0
    6.5167   -3.2000    0.0000 C   0  0  0  0  0  0  0  0  0  0  0  0
    6.5167   -2.5125    0.0000 C   0  0  0  0  0  0  0  0  0  0  0  0
  3 22  1  0
  4  2  2  0
  5 17  1  0
  6  4  1  0
  7 18  1  0
  8  3  1  0
  9  3  1  0
 10  5  1  0
 11 15  1  0
 12 11  2  0
 19 13  1  6
 14 21  1  0
 15  2  1  0
 16  4  1  0
 17 24  1  0
 18  3  1  0
 19 14  1  0
 20  7  1  0
 21 29  2  0
 22 13  1  0
 23  7  2  0
 24 25  1  0
 25 19  1  0
 26  6  2  0
 27 16  1  0
 28 31  1  0
 29 12  1  0
 30 10  1  0
 31 15  2  0
 32 27  2  0
 33 26  1  0
 34 35  1  0
 35 40  2  0
 36  5  2  0
 37 10  1  0
 38 10  1  0
 39 17  2  0
 40 29  1  0
 41 42  2  0
 42 39  1  0
 28 16  2  0
 32 26  1  0
 34 14  2  0
  8  9  1  0
 41 36  1  0
M  CHG  2   1   1  20  -1
M  END
> <chembl_id>
CHEMBL1200681

> <chembl_pref_name>
MONTELUKAST SODIUM
