
     RDKit          2D

 33 35  0  0  1  0  0  0  0  0999 V2000
    6.9187   -1.4116    0.0000 N   0  0  0  0  0  0  0  0  0  0  0  0
    6.9187   -0.5854    0.0000 C   0  0  0  0  0  0  0  0  0  0  0  0
    6.0925   -1.4116    0.0000 C   0  0  0  0  0  0  0  0  0  0  0  0
    6.0925   -0.5854    0.0000 C   0  0  0  0  0  0  0  0  0  0  0  0
    7.6990   -1.6620    0.0000 C   0  0  0  0  0  0  0  0  0  0  0  0
    7.6990   -0.3309    0.0000 S   0  0  0  0  0  0  0  0  0  0  0  0
    8.1831   -0.9943    0.0000 C   0  0  0  0  0  0  0  0  0  0  0  0
    5.5084   -0.0054    0.0000 N   0  0  0  0  0  0  0  0  0  0  0  0
    4.7073   -0.2182    0.0000 C   0  0  0  0  0  0  0  0  0  0  0  0
    7.9576   -2.4507    0.0000 C   0  0  0  0  0  0  0  0  0  0  0  0
    7.3443   -5.2296    0.0000 C   0  0  0  0  0  0  0  0  0  0  0  0
    4.1273    0.3701    0.0000 C   0  0  0  0  0  0  0  0  0  0  0  0
    5.5084   -1.9874    0.0000 O   0  0  0  0  0  0  0  0  0  0  0  0
    6.7810   -5.8387    0.0000 C   0  0  0  0  0  0  0  0  0  0  0  0
    4.4945   -0.9986    0.0000 O   0  0  0  0  0  0  0  0  0  0  0  0
    7.3986   -3.0640    0.0000 O   0  0  0  0  0  0  0  0  0  0  0  0
    7.0940   -4.4534    0.0000 O   0  0  0  0  0  0  0  0  0  0  0  0
    7.6489   -3.8483    0.0000 C   0  0  0  0  0  0  0  0  0  0  0  0
    8.7587   -2.6258    0.0000 O   0  0  0  0  0  0  0  0  0  0  0  0
    8.1454   -5.4173    0.0000 O   0  0  0  0  0  0  0  0  0  0  0  0
    3.3261    0.1656    0.0000 C   0  0  0  0  0  0  0  0  0  0  0  0
    4.3401    1.1546    0.0000 N   0  0  0  0  0  0  0  0  0  0  0  0
    8.8256   -1.5118    0.0000 C   0  0  0  0  0  0  0  0  0  0  0  0
    8.6711   -0.3226    0.0000 C   0  0  0  0  0  0  0  0  0  0  0  0
    6.2219   -6.4438    0.0000 C   0  0  0  0  0  0  0  0  0  0  0  0
    7.3861   -6.3937    0.0000 C   0  0  0  0  0  0  0  0  0  0  0  0
    6.1802   -5.2797    0.0000 C   0  0  0  0  0  0  0  0  0  0  0  0
    2.7420    0.7415    0.0000 C   0  0  0  0  0  0  0  0  0  0  0  0
    3.1050   -0.6356    0.0000 C   0  0  0  0  0  0  0  0  0  0  0  0
    2.3122   -0.8484    0.0000 C   0  0  0  0  0  0  0  0  0  0  0  0
    1.9534    0.5327    0.0000 C   0  0  0  0  0  0  0  0  0  0  0  0
    1.7280   -0.2600    0.0000 C   0  0  0  0  0  0  0  0  0  0  0  0
    6.9187    0.2407    0.0000 H   0  0  0  0  0  0  0  0  0  0  0  0
  2  1  1  0
  3  1  1  0
  4  3  1  0
  5  1  1  0
  6  2  1  0
  7  5  1  0
  4  8  1  1
  9  8  1  0
  5 10  1  6
 11 17  1  0
 12  9  1  0
 13  3  2  0
 14 11  1  0
 15  9  2  0
 16 10  1  0
 17 18  1  0
 18 16  1  0
 19 10  2  0
 20 11  2  0
 21 12  1  0
 12 22  1  1
 23  7  1  0
 24  7  1  0
 25 14  1  0
 26 14  1  0
 27 14  1  0
 28 21  2  0
 29 21  1  0
 30 29  2  0
 31 28  1  0
 32 30  1  0
  2 33  1  6
  6  7  1  0
  2  4  1  0
 31 32  2  0
M  END
> <chembl_id>
CHEMBL3182343

> <chembl_pref_name>
PIVAMPICILLIN
