
     RDKit          2D

 16 12  0  0  0  0  0  0  0  0999 V2000
    3.0542   -5.6542    0.0000 K   0  0  0  0  0 15  0  0  0  0  0  0
    4.9292   -6.2542    0.0000 C   0  0  0  0  0  0  0  0  0  0  0  0
    4.9292   -5.5417    0.0000 C   0  0  0  0  0  0  0  0  0  0  0  0
    4.9292   -6.9875    0.0000 C   0  0  0  0  0  0  0  0  0  0  0  0
    4.2125   -6.2542    0.0000 C   0  0  0  0  0  0  0  0  0  0  0  0
    5.5417   -5.1875    0.0000 C   0  0  0  0  0  0  0  0  0  0  0  0
    5.5292   -7.3417    0.0000 C   0  0  0  0  0  0  0  0  0  0  0  0
    3.8542   -5.6417    0.0000 O   0  0  0  0  0  0  0  0  0  0  0  0
    6.1542   -5.5542    0.0000 O   0  0  0  0  0  0  0  0  0  0  0  0
    6.1375   -6.9917    0.0000 O   0  0  0  0  0  0  0  0  0  0  0  0
    3.8417   -6.8750    0.0000 O   0  0  0  0  0  0  0  0  0  0  0  0
    5.5000   -8.0375    0.0000 O   0  0  0  0  0  0  0  0  0  0  0  0
    5.5542   -4.4792    0.0000 O   0  0  0  0  0  0  0  0  0  0  0  0
    5.6417   -6.2542    0.0000 O   0  0  0  0  0  0  0  0  0  0  0  0
    6.9292   -5.5292    0.0000 K   0  0  0  0  0 15  0  0  0  0  0  0
    6.8292   -7.0625    0.0000 K   0  0  0  0  0 15  0  0  0  0  0  0
  3  2  1  0
  4  2  1  0
  5  2  1  0
  6  3  1  0
  7  4  1  0
  8  5  1  0
  9  6  1  0
 10  7  1  0
 11  5  2  0
 12  7  2  0
 13  6  2  0
 14  2  1  0
M  CHG  6   1   1   8  -1   9  -1  10  -1  15   1  16   1
M  END
> <chembl_id>
CHEMBL1200458

> <chembl_pref_name>
POTASSIUM CITRATE ANHYDROUS
