
     RDKit          2D

 17 16  0  0  0  0  0  0  0  0999 V2000
    5.2917   -3.7792    0.0000 Cl  0  0  0  0  0  0  0  0  0  0  0  0
   -0.5500   -2.3167    0.0000 C   0  0  0  0  0  0  0  0  0  0  0  0
    0.0542   -2.6625    0.0000 C   0  0  0  0  0  0  0  0  0  0  0  0
    0.6792   -2.3042    0.0000 C   0  0  0  0  0  0  0  0  0  0  0  0
    1.2875   -2.6667    0.0000 C   0  0  0  0  0  0  0  0  0  0  0  0
   -1.1583   -2.6667    0.0000 F   0  0  0  0  0  0  0  0  0  0  0  0
   -0.5500   -1.6292    0.0000 F   0  0  0  0  0  0  0  0  0  0  0  0
   -1.1833   -1.9542    0.0000 F   0  0  0  0  0  0  0  0  0  0  0  0
    1.9000   -2.3125    0.0000 C   0  0  0  0  0  0  0  0  0  0  0  0
    3.1500   -2.3125    0.0000 N   0  0  0  0  0  0  0  0  0  0  0  0
    0.0542   -3.3917    0.0000 C   0  0  0  0  0  0  0  0  0  0  0  0
    2.5250   -2.6667    0.0000 C   0  0  0  0  0  0  0  0  0  0  0  0
    0.6875   -3.7417    0.0000 C   0  0  0  0  0  0  0  0  0  0  0  0
    1.2917   -3.3875    0.0000 C   0  0  0  0  0  0  0  0  0  0  0  0
    3.7667   -2.6667    0.0000 C   0  0  0  0  0  0  0  0  0  0  0  0
    2.5250   -3.3167    0.0000 C   0  0  0  0  0  0  0  0  0  0  0  0
    4.3917   -2.3000    0.0000 C   0  0  0  0  0  0  0  0  0  0  0  0
  3  2  1  0
  4  3  1  0
  5  4  2  0
  6  2  1  0
  7  2  1  0
  8  2  1  0
  9  5  1  0
 10 12  1  0
 11  3  2  0
 12  9  1  0
 13 11  1  0
 14 13  2  0
 15 10  1  0
 12 16  1  1
 17 15  1  0
 14  5  1  0
M  END
> <chembl_id>
CHEMBL1887891

> <chembl_pref_name>
DEXFENFLURAMINE HYDROCHLORIDE
