
     RDKit          2D

102104  0  0  0  0  0  0  0  0999 V2000
   12.6862   -4.2563    0.0000 Zn  0  0  0  0  0 15  0  0  0  0  0  0
   14.4479   -0.3445    0.0000 N   0  0  0  0  0  0  0  0  0  0  0  0
    0.9367   -0.8493    0.0000 N   0  0  0  0  0  0  0  0  0  0  0  0
   15.1128   -0.8348    0.0000 C   0  0  0  0  0  0  0  0  0  0  0  0
   -0.4901   -0.8493    0.0000 C   0  0  0  0  0  0  0  0  0  0  0  0
   -0.4901   -1.6743    0.0000 N   0  0  0  0  0  0  0  0  0  0  0  0
    0.9367   -4.1252    0.0000 N   0  0  0  0  0  0  0  0  0  0  0  0
    3.0721   -4.5280    0.0000 N   0  0  0  0  0  0  0  0  0  0  0  0
   -0.4901   -3.3099    0.0000 N   0  0  0  0  0  0  0  0  0  0  0  0
   13.7782   -0.8348    0.0000 C   0  0  0  0  0  0  0  0  0  0  0  0
    3.7758   -0.8348    0.0000 N   0  0  0  0  0  0  0  0  0  0  0  0
    1.6452   -0.4368    0.0000 C   0  0  0  0  0  0  0  0  0  0  0  0
    2.3586   -4.1203    0.0000 C   0  0  0  0  0  0  0  0  0  0  0  0
    0.2233   -4.5329    0.0000 C   0  0  0  0  0  0  0  0  0  0  0  0
   -1.2035   -2.9022    0.0000 C   0  0  0  0  0  0  0  0  0  0  0  0
    6.6295   -0.8299    0.0000 C   0  0  0  0  0  0  0  0  0  0  0  0
    4.4892   -0.4271    0.0000 C   0  0  0  0  0  0  0  0  0  0  0  0
    8.0563   -0.8299    0.0000 N   0  0  0  0  0  0  0  0  0  0  0  0
   13.0648   -0.4173    0.0000 C   0  0  0  0  0  0  0  0  0  0  0  0
    0.2233   -0.4417    0.0000 C   0  0  0  0  0  0  0  0  0  0  0  0
    1.6501   -4.5329    0.0000 C   0  0  0  0  0  0  0  0  0  0  0  0
    3.7758   -4.1107    0.0000 C   0  0  0  0  0  0  0  0  0  0  0  0
   -0.4901   -4.1252    0.0000 C   0  0  0  0  0  0  0  0  0  0  0  0
    8.7745   -0.4173    0.0000 C   0  0  0  0  0  0  0  0  0  0  0  0
   10.9196   -0.8299    0.0000 C   0  0  0  0  0  0  0  0  0  0  0  0
   14.8604   -1.6161    0.0000 S   0  0  0  0  0  0  0  0  0  0  0  0
   -1.2035   -2.0723    0.0000 C   0  0  0  0  0  0  0  0  0  0  0  0
    5.9161   -0.4173    0.0000 N   0  0  0  0  0  0  0  0  0  0  0  0
    4.4892   -4.5183    0.0000 C   0  0  0  0  0  0  0  0  0  0  0  0
   12.3514   -0.8299    0.0000 N   0  0  0  0  0  0  0  0  0  0  0  0
    7.3477   -0.4173    0.0000 C   0  0  0  0  0  0  0  0  0  0  0  0
   10.2062   -0.4173    0.0000 N   0  0  0  0  0  0  0  0  0  0  0  0
    1.6501   -5.3579    0.0000 C   0  0  0  0  0  0  0  0  0  0  0  0
    3.7758   -3.2904    0.0000 C   0  0  0  0  0  0  0  0  0  0  0  0
   11.6379   -0.4173    0.0000 C   0  0  0  0  0  0  0  0  0  0  0  0
   -1.6112   -6.6391    0.0000 N   0  0  0  0  0  0  0  0  0  0  0  0
    3.0624   -0.4271    0.0000 C   0  0  0  0  0  0  0  0  0  0  0  0
    5.2026   -0.8348    0.0000 C   0  0  0  0  0  0  0  0  0  0  0  0
   -1.2035   -4.5426    0.0000 C   0  0  0  0  0  0  0  0  0  0  0  0
   -1.1988   -5.3676    0.0000 C   0  0  0  0  0  0  0  0  0  0  0  0
    9.4928   -0.8299    0.0000 C   0  0  0  0  0  0  0  0  0  0  0  0
    3.3536   -2.5674    0.0000 C   0  0  0  0  0  0  0  0  0  0  0  0
    2.3683   -5.7656    0.0000 C   0  0  0  0  0  0  0  0  0  0  0  0
   -0.5338   -5.8529    0.0000 N   0  0  0  0  0  0  0  0  0  0  0  0
   15.8262   -0.4126    0.0000 C   0  0  0  0  0  0  0  0  0  0  0  0
   -0.7862   -6.6391    0.0000 C   0  0  0  0  0  0  0  0  0  0  0  0
    5.2026   -4.1107    0.0000 N   0  0  0  0  0  0  0  0  0  0  0  0
   14.0354   -1.6161    0.0000 C   0  0  0  0  0  0  0  0  0  0  0  0
    8.7745   -2.8925    0.0000 C   0  0  0  0  0  0  0  0  0  0  0  0
   -1.8685   -5.8578    0.0000 C   0  0  0  0  0  0  0  0  0  0  0  0
   -1.2035   -0.4417    0.0000 O   0  0  0  0  0  0  0  0  0  0  0  0
    6.6295   -1.6549    0.0000 O   0  0  0  0  0  0  0  0  0  0  0  0
    1.2279    0.2863    0.0000 O   0  0  0  0  0  0  0  0  0  0  0  0
   -1.9170   -3.3147    0.0000 O   0  0  0  0  0  0  0  0  0  0  0  0
    2.3537   -3.2953    0.0000 O   0  0  0  0  0  0  0  0  0  0  0  0
    0.2281   -5.3628    0.0000 O   0  0  0  0  0  0  0  0  0  0  0  0
    4.4843    0.4028    0.0000 O   0  0  0  0  0  0  0  0  0  0  0  0
   13.0648    0.4077    0.0000 O   0  0  0  0  0  0  0  0  0  0  0  0
   -1.9122   -1.6598    0.0000 C   0  0  0  0  0  0  0  0  0  0  0  0
    8.7745    0.4077    0.0000 O   0  0  0  0  0  0  0  0  0  0  0  0
   10.9196   -1.6549    0.0000 O   0  0  0  0  0  0  0  0  0  0  0  0
    4.4940   -5.3482    0.0000 O   0  0  0  0  0  0  0  0  0  0  0  0
   11.6379    0.4077    0.0000 C   0  0  0  0  0  0  0  0  0  0  0  0
    2.5334   -2.5721    0.0000 O   0  0  0  0  0  0  0  0  0  0  0  0
    2.3683   -6.5906    0.0000 O   0  0  0  0  0  0  0  0  0  0  0  0
    9.4928   -3.3050    0.0000 O   0  0  0  0  0  0  0  0  0  0  0  0
    9.4928   -1.6549    0.0000 C   0  0  0  0  0  0  0  0  0  0  0  0
    0.2184    0.3882    0.0000 C   0  0  0  0  0  0  0  0  0  0  0  0
    7.3477    0.4077    0.0000 C   0  0  0  0  0  0  0  0  0  0  0  0
    3.7660   -1.8539    0.0000 N   0  0  0  0  0  0  0  0  0  0  0  0
    8.7745   -2.0675    0.0000 C   0  0  0  0  0  0  0  0  0  0  0  0
   16.5396   -0.8202    0.0000 N   0  0  0  0  0  0  0  0  0  0  0  0
   15.8116    0.4077    0.0000 C   0  0  0  0  0  0  0  0  0  0  0  0
    3.0817   -5.3482    0.0000 O   0  0  0  0  0  0  0  0  0  0  0  0
    8.0611   -3.3050    0.0000 O   0  0  0  0  0  0  0  0  0  0  0  0
   -2.6304   -2.0675    0.0000 C   0  0  0  0  0  0  0  0  0  0  0  0
    3.0429    2.4314    0.0000 N   0  0  0  0  0  0  0  0  0  0  0  0
    5.2026   -3.2904    0.0000 C   0  0  0  0  0  0  0  0  0  0  0  0
    3.4701    0.2863    0.0000 C   0  0  0  0  0  0  0  0  0  0  0  0
   10.9196    0.8202    0.0000 C   0  0  0  0  0  0  0  0  0  0  0  0
    5.2026   -1.6501    0.0000 C   0  0  0  0  0  0  0  0  0  0  0  0
    3.4603    1.7180    0.0000 C   0  0  0  0  0  0  0  0  0  0  0  0
   -0.4999    0.7959    0.0000 C   0  0  0  0  0  0  0  0  0  0  0  0
    8.0563    0.8202    0.0000 C   0  0  0  0  0  0  0  0  0  0  0  0
   16.5202    0.8348    0.0000 C   0  0  0  0  0  0  0  0  0  0  0  0
    0.9318    0.8008    0.0000 C   0  0  0  0  0  0  0  0  0  0  0  0
    6.6295    0.8202    0.0000 C   0  0  0  0  0  0  0  0  0  0  0  0
   15.0885    0.8104    0.0000 C   0  0  0  0  0  0  0  0  0  0  0  0
   -2.6304   -2.8877    0.0000 C   0  0  0  0  0  0  0  0  0  0  0  0
   -3.3390   -1.6501    0.0000 C   0  0  0  0  0  0  0  0  0  0  0  0
    3.0526    0.9997    0.0000 C   0  0  0  0  0  0  0  0  0  0  0  0
   10.9196    1.6452    0.0000 C   0  0  0  0  0  0  0  0  0  0  0  0
   10.2062    0.4077    0.0000 C   0  0  0  0  0  0  0  0  0  0  0  0
   16.5056    1.6598    0.0000 C   0  0  0  0  0  0  0  0  0  0  0  0
    8.0563    1.6452    0.0000 C   0  0  0  0  0  0  0  0  0  0  0  0
   -0.4999    1.6210    0.0000 C   0  0  0  0  0  0  0  0  0  0  0  0
    5.9161   -2.8828    0.0000 C   0  0  0  0  0  0  0  0  0  0  0  0
    5.9161   -2.0578    0.0000 C   0  0  0  0  0  0  0  0  0  0  0  0
   -3.3438   -3.3001    0.0000 C   0  0  0  0  0  0  0  0  0  0  0  0
   -4.0572   -2.0578    0.0000 C   0  0  0  0  0  0  0  0  0  0  0  0
   -4.0572   -2.8828    0.0000 C   0  0  0  0  0  0  0  0  0  0  0  0
    1.0867    0.0628    0.0000 H   0  0  0  0  0  0  0  0  0  0  0  0
  3 12  1  0
  4  2  2  0
  5 20  1  0
  6  5  1  0
  7 21  1  0
  8 22  1  0
  9 15  1  0
 10  2  1  0
 11 17  1  0
 12 37  1  0
 13  8  1  0
 14  7  1  0
 15 27  1  0
 16 31  1  0
 17 38  1  0
 18 24  1  0
 10 19  1  1
 20  3  1  0
 21 13  1  0
 22 29  1  0
 23  9  1  0
 24 41  1  0
 25 35  1  0
 26  4  1  0
 27  6  1  0
 28 16  1  0
 29 47  1  0
 30 19  1  0
 31 18  1  6
 32 25  1  0
 21 33  1  1
 22 34  1  1
 35 30  1  6
 36 50  1  0
 37 11  1  0
 38 28  1  1
 23 39  1  6
 40 39  1  0
 41 32  1  6
 42 34  1  0
 43 33  1  0
 44 40  1  0
 45  4  1  0
 46 44  1  0
 47 78  1  0
 48 10  1  0
 49 71  1  0
 50 40  2  0
 51  5  2  0
 52 16  2  0
 53 12  2  0
 54 15  2  0
 55 13  2  0
 56 14  2  0
 57 17  2  0
 58 19  2  0
 27 59  1  1
 60 24  2  0
 61 25  2  0
 62 29  2  0
 35 63  1  0
 64 42  2  0
 65 43  2  0
 66 49  2  0
 41 67  1  0
 68 20  1  0
 69 31  1  0
 70 42  1  0
 71 67  1  0
 45 72  1  6
 73 45  1  0
 74 43  1  0
 75 49  1  0
 76 59  1  0
 77 82  1  0
 78 97  1  0
 37 79  1  1
 80 63  1  0
 38 81  1  0
 82 91  1  0
 83 68  1  0
 84 69  1  0
 85 73  1  0
 68 86  1  6
 69 87  1  1
 73 88  1  1
 89 76  1  0
 90 76  2  0
 91 79  1  0
 92 80  1  0
 93 80  1  0
 94 85  1  0
 95 84  1  0
 96 83  1  0
 97 98  1  0
 98 81  1  0
 99 89  2  0
100 90  1  0
101 99  1  0
 26 48  1  0
 14 23  1  0
101100  2  0
 46 36  2  0
 20102  1  1
M  CHG  3   1   2  74  -1  75  -1
M  END
> <chembl_id>
CHEMBL2096639

> <chembl_pref_name>
BACITRACIN ZINC
