
     RDKit          2D

 23 23  0  0  0  0  0  0  0  0999 V2000
    4.7750   -6.3750    0.0000 O   0  0  0  0  0  0  0  0  0  0  0  0
    1.6625   -5.9667    0.0000 N   0  0  0  0  0  0  0  0  0  0  0  0
    2.3375   -6.1792    0.0000 C   0  0  0  0  0  0  0  0  0  0  0  0
    0.9542   -5.9667    0.0000 C   0  0  0  0  0  0  0  0  0  0  0  0
    1.6542   -5.2542    0.0000 C   0  0  0  0  0  0  0  0  0  0  0  0
    0.9542   -5.2542    0.0000 C   0  0  0  0  0  0  0  0  0  0  0  0
    2.7542   -5.6042    0.0000 C   0  0  0  0  0  0  0  0  0  0  0  0
    2.3292   -5.0375    0.0000 C   0  0  0  0  0  0  0  0  0  0  0  0
    2.3292   -6.8917    0.0000 C   0  0  0  0  0  0  0  0  0  0  0  0
    0.4500   -6.4667    0.0000 O   0  0  0  0  0  0  0  0  0  0  0  0
    5.5792   -4.3667    0.0000 C   0  0  0  0  0  0  0  0  0  0  0  0
    5.9292   -3.7500    0.0000 N   0  0  0  0  0  0  0  0  0  0  0  0
    0.3292   -4.9042    0.0000 C   0  0  0  0  0  0  0  0  0  0  0  0
    3.4625   -5.6042    0.0000 S   0  0  0  0  0  0  0  0  0  0  0  0
    1.7125   -7.2375    0.0000 O   0  0  0  0  0  0  0  0  0  0  0  0
    4.8667   -4.3667    0.0000 N   0  0  0  0  0  0  0  0  0  0  0  0
    2.9417   -7.2500    0.0000 O   0  0  0  0  0  0  0  0  0  0  0  0
    0.3208   -4.1917    0.0000 O   0  0  0  0  0  0  0  0  0  0  0  0
    3.8125   -4.9875    0.0000 C   0  0  0  0  0  0  0  0  0  0  0  0
    4.5167   -4.9792    0.0000 C   0  0  0  0  0  0  0  0  0  0  0  0
   -0.2792   -5.2583    0.0000 C   0  0  0  0  0  0  0  0  0  0  0  0
    1.6542   -4.5417    0.0000 H   0  0  0  0  0  0  0  0  0  0  0  0
    0.9417   -4.5417    0.0000 H   0  0  0  0  0  0  0  0  0  0  0  0
  3  2  1  0
  4  2  1  0
  5  2  1  0
  6  5  1  0
  7  3  2  0
  8  5  1  0
  9  3  1  0
 10  4  2  0
 11 16  1  0
 12 11  2  0
 13  6  1  0
 14  7  1  0
 15  9  2  0
 16 20  1  0
 17  9  1  0
 13 18  1  1
 19 14  1  0
 20 19  1  0
 21 13  1  0
  5 22  1  6
  6 23  1  1
  4  6  1  0
  7  8  1  0
M  END
> <chembl_id>
CHEMBL43708

> <chembl_pref_name>
IMIPENEM
