
     RDKit          2D

 29 33  0  0  0  0  0  0  0  0999 V2000
   -2.5710   -2.4002    0.0000 C   0  0  0  0  0  0  0  0  0  0  0  0
   -2.5710   -3.2252    0.0000 C   0  0  0  0  0  0  0  0  0  0  0  0
   -1.8589   -3.6336    0.0000 C   0  0  0  0  0  0  0  0  0  0  0  0
   -1.8589   -1.9834    0.0000 C   0  0  0  0  0  0  0  0  0  0  0  0
   -1.1469   -2.4002    0.0000 C   0  0  0  0  0  0  0  0  0  0  0  0
   -1.1458   -3.2252    0.0000 C   0  0  0  0  0  0  0  0  0  0  0  0
   -0.4347   -3.6346    0.0000 C   0  0  0  0  0  0  0  0  0  0  0  0
    0.2799   -3.2234    0.0000 C   0  0  0  0  0  0  0  0  0  0  0  0
   -0.4368   -1.9844    0.0000 C   0  0  0  0  0  0  0  0  0  0  0  0
    0.2784   -2.4030    0.0000 C   0  0  0  0  0  0  0  0  0  0  0  0
    0.2863   -0.7485    0.0000 C   0  0  0  0  0  0  0  0  0  0  0  0
   -0.4360   -1.1580    0.0000 C   0  0  0  0  0  0  0  0  0  0  0  0
    1.0017   -1.1670    0.0000 C   0  0  0  0  0  0  0  0  0  0  0  0
    0.9935   -1.9919    0.0000 C   0  0  0  0  0  0  0  0  0  0  0  0
    1.7756   -2.2546    0.0000 C   0  0  0  0  0  0  0  0  0  0  0  0
    2.2671   -1.5919    0.0000 C   0  0  0  0  0  0  0  0  0  0  0  0
    1.7887   -0.9199    0.0000 C   0  0  0  0  0  0  0  0  0  0  0  0
    2.1840   -0.1988    0.0000 C   0  0  0  0  0  0  0  0  0  0  0  0
    3.0100   -0.1812    0.0000 C   0  0  0  0  0  0  0  0  0  0  0  0
    3.4059    0.5417    0.0000 N   0  0  0  0  0  0  0  0  0  0  0  0
    2.9770    1.2476    0.0000 C   0  0  0  0  0  0  0  0  0  0  0  0
    2.1481    1.2259    0.0000 C   0  0  0  0  0  0  0  0  0  0  0  0
    1.7558    0.5024    0.0000 C   0  0  0  0  0  0  0  0  0  0  0  0
   -3.2849   -3.6388    0.0000 O   0  0  0  0  0  0  0  0  0  0  0  0
   -1.1543   -1.5751    0.0000 C   0  0  0  0  0  0  0  0  0  0  0  0
    0.9959   -0.3417    0.0000 C   0  0  0  0  0  0  0  0  0  0  0  0
    0.2708   -1.5751    0.0000 H   0  0  0  0  0  0  0  0  0  0  0  0
   -0.4417   -2.8085    0.0000 H   0  0  0  0  0  0  0  0  0  0  0  0
    0.9876   -2.8169    0.0000 H   0  0  0  0  0  0  0  0  0  0  0  0
  1  2  1  0
  1  4  1  0
  2  3  1  0
  5  9  1  0
  6  7  2  0
 14 15  1  0
 15 16  1  0
 16 17  2  0
 17 13  1  0
  7  8  1  0
  8 10  1  0
 18 19  2  0
  9 10  1  0
 19 20  1  0
  3  6  1  0
 20 21  2  0
  5  4  1  0
 21 22  1  0
  5  6  1  0
 22 23  2  0
 23 18  1  0
 17 18  1  0
  2 24  1  1
  9 12  1  0
  5 25  1  1
 10 14  1  0
 13 26  1  1
 13 11  1  0
 10 27  1  1
 11 12  1  0
  9 28  1  6
 13 14  1  0
 14 29  1  6
M  END
> <chembl_id>
CHEMBL254328

> <chembl_pref_name>
ABIRATERONE
