
     RDKit          2D

  5  4  0  0  0  0  0  0  0  0999 V2000
   11.1624   -7.9502    0.0000 S   0  0  0  0  0  0  0  0  0  0  0  0
   11.5690   -7.2290    0.0000 S   0  0  0  0  0  0  0  0  0  0  0  0
   11.8740   -8.3617    0.0000 O   0  0  0  0  0  0  0  0  0  0  0  0
   10.4508   -8.3617    0.0000 O   0  0  0  0  0  0  0  0  0  0  0  0
   10.7412   -7.2290    0.0000 O   0  0  0  0  0  0  0  0  0  0  0  0
  2  1  2  0
  3  1  1  0
  4  1  1  0
  5  1  2  0
M  END
> <chembl_id>
CHEMBL1208642

> <chembl_pref_name>
THIOSULFURIC ACID
