
     RDKit          2D

 13 13  0  0  0  0  0  0  0  0999 V2000
   -1.1333   -1.9042    0.0000 Cl  0  0  0  0  0  0  0  0  0  0  0  0
   -0.1208   -0.9500    0.0000 C   0  0  0  0  0  0  0  0  0  0  0  0
    0.1000   -0.2792    0.0000 N   0  0  0  0  0  0  0  0  0  0  0  0
    0.4500   -1.3667    0.0000 N   0  0  0  0  0  0  0  0  0  0  0  0
   -0.7250   -1.3250    0.0000 C   0  0  0  0  0  0  0  0  0  0  0  0
   -1.3458   -0.9917    0.0000 C   0  0  0  0  0  0  0  0  0  0  0  0
    0.8125   -0.2875    0.0000 C   0  0  0  0  0  0  0  0  0  0  0  0
    1.0250   -0.9542    0.0000 C   0  0  0  0  0  0  0  0  0  0  0  0
   -1.9458   -1.3625    0.0000 C   0  0  0  0  0  0  0  0  0  0  0  0
   -1.3625   -0.2792    0.0000 C   0  0  0  0  0  0  0  0  0  0  0  0
   -1.9958    0.0500    0.0000 C   0  0  0  0  0  0  0  0  0  0  0  0
   -2.5708   -1.0250    0.0000 C   0  0  0  0  0  0  0  0  0  0  0  0
   -2.5958   -0.3125    0.0000 C   0  0  0  0  0  0  0  0  0  0  0  0
  3  2  2  0
  4  2  1  0
  5  2  1  0
  6  5  1  0
  7  3  1  0
  8  4  1  0
  9  6  1  0
 10  6  2  0
 11 10  1  0
 12  9  2  0
 13 12  1  0
  7  8  1  0
 13 11  2  0
M  END
> <chembl_id>
CHEMBL1689

> <chembl_pref_name>
TOLAZOLINE HYDROCHLORIDE
