
     RDKit          2D

 16 13  0  0  0  0  0  0  0  0999 V2000
    4.3018   -6.0402    0.0000 Cl  0  0  0  0  0  0  0  0  0  0  0  0
   -0.1127   -3.1046    0.0000 C   0  0  0  0  0  0  0  0  0  0  0  0
    0.6974   -2.9487    0.0000 C   0  0  0  0  0  0  0  0  0  0  0  0
    1.2375   -3.5724    0.0000 C   0  0  0  0  0  0  0  0  0  0  0  0
    0.9675   -4.3519    0.0000 C   0  0  0  0  0  0  0  0  0  0  0  0
    0.1573   -4.5078    0.0000 O   0  0  0  0  0  0  0  0  0  0  0  0
    2.0476   -3.4164    0.0000 N   0  0  0  0  0  0  0  0  0  0  0  0
    2.5877   -4.0401    0.0000 C   0  0  0  0  0  0  0  0  0  0  0  0
    3.3979   -3.8842    0.0000 C   0  0  0  0  0  0  0  0  0  0  0  0
    3.9379   -4.5078    0.0000 N   0  0  0  0  0  0  0  0  0  0  0  0
    4.7481   -4.3519    0.0000 C   0  0  0  0  0  0  0  0  0  0  0  0
    5.2882   -4.9755    0.0000 C   0  0  0  0  0  0  0  0  0  0  0  0
    6.0983   -4.8196    0.0000 C   0  0  0  0  0  0  0  0  0  0  0  0
    5.0181   -3.5724    0.0000 C   0  0  0  0  0  0  0  0  0  0  0  0
    5.8283   -3.4164    0.0000 O   0  0  0  0  0  0  0  0  0  0  0  0
    2.3028   -5.3348    0.0000 Cl  0  0  0  0  0  0  0  0  0  0  0  0
  2  3  1  0
  3  4  1  0
  4  5  1  0
  5  6  1  0
  4  7  1  6
  7  8  1  0
  8  9  1  0
  9 10  1  0
 11 10  1  6
 11 12  1  0
 12 13  1  0
 11 14  1  0
 14 15  1  0
M  END
> <chembl_id>
CHEMBL3140361

> <chembl_pref_name>
ETHAMBUTOL HYDROCHLORIDE
