
     RDKit          2D

 24 26  0  0  1  0  0  0  0  0999 V2000
    4.4172   -4.0212    0.0000 C   0  0  0  0  0  0  0  0  0  0  0  0
    3.7219   -3.7738    0.0000 C   0  0  0  0  0  0  0  0  0  0  0  0
    4.4172   -4.7366    0.0000 C   0  0  0  0  0  0  0  0  0  0  0  0
    4.8066   -3.4279    0.0000 O   0  0  0  0  0  0  0  0  0  0  0  0
    5.0237   -4.3707    0.0000 C   0  0  0  0  0  0  0  0  0  0  0  0
    3.7219   -3.0826    0.0000 C   0  0  0  0  0  0  0  0  0  0  0  0
    3.1284   -4.1570    0.0000 C   0  0  0  0  0  0  0  0  0  0  0  0
    5.0306   -5.1060    0.0000 C   0  0  0  0  0  0  0  0  0  0  0  0
    3.7997   -5.1060    0.0000 C   0  0  0  0  0  0  0  0  0  0  0  0
    4.4172   -2.8586    0.0000 C   0  0  0  0  0  0  0  0  0  0  0  0
    5.6336   -4.0212    0.0000 C   0  0  0  0  0  0  0  0  0  0  0  0
    3.1284   -2.7194    0.0000 C   0  0  0  0  0  0  0  0  0  0  0  0
    2.5082   -3.7738    0.0000 C   0  0  0  0  0  0  0  0  0  0  0  0
    5.0306   -5.8352    0.0000 C   0  0  0  0  0  0  0  0  0  0  0  0
    3.7997   -5.8352    0.0000 C   0  0  0  0  0  0  0  0  0  0  0  0
    6.2512   -4.3707    0.0000 C   0  0  0  0  0  0  0  0  0  0  0  0
    2.5082   -3.0826    0.0000 C   0  0  0  0  0  0  0  0  0  0  0  0
    4.4172   -6.1777    0.0000 C   0  0  0  0  0  0  0  0  0  0  0  0
    6.8645   -4.0212    0.0000 N   0  0  0  0  0  0  0  0  0  0  0  0
    4.4172   -6.8828    0.0000 F   0  0  0  0  0  0  0  0  0  0  0  0
    7.4745   -4.3707    0.0000 C   0  0  0  0  0  0  0  0  0  0  0  0
    6.8645   -3.3094    0.0000 C   0  0  0  0  0  0  0  0  0  0  0  0
    1.8914   -2.7573    0.0000 C   0  0  0  0  0  0  0  0  0  0  0  0
    1.2746   -2.4217    0.0000 N   0  0  0  0  0  0  0  0  0  0  0  0
  3  9  1  0
  4 10  1  0
  5 11  1  0
  6 12  1  0
  7 13  2  0
  8 14  1  0
  9 15  2  0
 11 16  1  0
 12 17  2  0
 14 18  2  0
 16 19  1  0
 17 23  1  0
 18 20  1  0
 19 21  1  0
 19 22  1  0
  6 10  1  0
 13 17  1  0
 15 18  1  0
  1  2  1  0
  1  3  1  0
  1  4  1  0
  1  5  1  6
  2  6  2  0
  2  7  1  0
  3  8  2  0
 23 24  3  0
M  END
> <chembl_id>
CHEMBL1508

> <chembl_pref_name>
ESCITALOPRAM
