
     RDKit          2D

  3  0  0  0  0  0  0  0  0  0999 V2000
    0.4042   -1.1250    0.0000 Mg  0  0  0  0  0 15  0  0  0  0  0  0
   -0.7583   -1.1542    0.0000 O   0  0  0  0  0  0  0  0  0  0  0  0
    1.9917   -1.2167    0.0000 O   0  0  0  0  0  0  0  0  0  0  0  0
M  CHG  3   1   2   2  -1   3  -1
M  END
> <chembl_id>
CHEMBL1200718

> <chembl_pref_name>
MAGNESIUM HYDROXIDE
