
     RDKit          2D

 28 32  0  0  0  0  0  0  0  0999 V2000
    0.3241   -0.3757    0.0000 C   0  0  0  0  0  0  0  0  0  0  0  0
   -0.5009   -0.3757    0.0000 C   0  0  0  0  0  0  0  0  0  0  0  0
   -0.9134   -1.0902    0.0000 C   0  0  0  0  0  0  0  0  0  0  0  0
   -0.5009   -1.8047    0.0000 C   0  0  0  0  0  0  0  0  0  0  0  0
    0.3241   -1.8047    0.0000 C   0  0  0  0  0  0  0  0  0  0  0  0
   -1.0843   -2.3880    0.0000 C   0  0  0  0  0  0  0  0  0  0  0  0
   -1.9093   -2.3880    0.0000 N   0  0  0  0  0  0  0  0  0  0  0  0
   -0.6718   -3.1025    0.0000 O   0  0  0  0  0  0  0  0  0  0  0  0
    0.9075   -2.3880    0.0000 O   0  0  0  0  0  0  0  0  0  0  0  0
    1.5616    0.3388    0.0000 C   0  0  0  0  0  0  0  0  0  0  0  0
    0.7366    0.3388    0.0000 C   0  0  0  0  0  0  0  0  0  0  0  0
    0.7366   -1.0902    0.0000 C   0  0  0  0  0  0  0  0  0  0  0  0
    1.9741   -0.3757    0.0000 C   0  0  0  0  0  0  0  0  0  0  0  0
    2.7991   -0.3757    0.0000 C   0  0  0  0  0  0  0  0  0  0  0  0
    1.5616   -1.0902    0.0000 C   0  0  0  0  0  0  0  0  0  0  0  0
    1.9741   -1.8046    0.0000 C   0  0  0  0  0  0  0  0  0  0  0  0
    2.7991   -1.8046    0.0000 C   0  0  0  0  0  0  0  0  0  0  0  0
    3.2116   -1.0901    0.0000 C   0  0  0  0  0  0  0  0  0  0  0  0
    2.1450    0.9222    0.0000 N   0  0  0  0  0  0  0  0  0  0  0  0
    2.7284    1.5055    0.0000 C   0  0  0  0  0  0  0  0  0  0  0  0
    3.4428    1.0930    0.0000 C   0  0  0  0  0  0  0  0  0  0  0  0
    4.2678    1.0930    0.0000 C   0  0  0  0  0  0  0  0  0  0  0  0
    3.8553    0.3786    0.0000 C   0  0  0  0  0  0  0  0  0  0  0  0
    1.1491   -0.3757    0.0000 O   0  0  0  0  0  0  0  0  0  0  0  0
    2.7284    0.3388    0.0000 C   0  0  0  0  0  0  0  0  0  0  0  0
    2.3866   -1.0902    0.0000 C   0  0  0  0  0  0  0  0  0  0  0  0
    1.1491    1.0533    0.0000 H   0  0  0  0  0  0  0  0  0  0  0  0
    3.2116   -2.5191    0.0000 O   0  0  0  0  0  0  0  0  0  0  0  0
  1  2  1  0
  2  3  2  0
  3  4  1  0
  4  5  2  0
  5 12  1  0
  4  6  1  0
  6  7  1  0
  6  8  2  0
  5  9  1  0
 11  1  1  0
 10 11  1  0
 10 13  1  0
 12 15  1  0
  1 12  2  0
 14 13  1  0
 14 18  1  0
 15 16  1  0
 16 17  1  0
 17 18  1  0
 13 15  1  0
 10 19  1  0
 19 20  1  0
 20 21  1  0
 21 22  1  0
 21 23  1  0
 22 23  1  0
 13 24  1  1
 19 25  1  0
 15 26  1  1
 26 25  1  0
 10 27  1  6
 17 28  2  0
M  END
> <chembl_id>
CHEMBL426084

> <chembl_pref_name>
SAMIDORPHAN
