
     RDKit          2D

 13 12  0  0  0  0  0  0  0  0999 V2000
   -0.0458    0.1208    0.0000 C   0  0  0  0  0  0  0  0  0  0  0  0
   -0.8708   -1.2667    0.0000 P   0  0  0  0  0  0  0  0  0  0  0  0
   -0.9958    1.4458    0.0000 P   0  0  0  0  0  0  0  0  0  0  0  0
    0.8750    0.2708    0.0000 C   0  0  0  0  0  0  0  0  0  0  0  0
    0.5250   -2.0917    0.0000 O   0  0  0  0  0  0  0  0  0  0  0  0
    0.3250    2.3833    0.0000 O   0  0  0  0  0  0  0  0  0  0  0  0
   -1.4250   -0.3125    0.0000 O   0  0  0  0  0  0  0  0  0  0  0  0
   -2.2583   -0.4417    0.0000 O   0  0  0  0  0  0  0  0  0  0  0  0
   -1.9375    2.7583    0.0000 O   0  0  0  0  0  0  0  0  0  0  0  0
   -2.3083    0.4958    0.0000 O   0  0  0  0  0  0  0  0  0  0  0  0
   -1.6958   -2.6542    0.0000 O   0  0  0  0  0  0  0  0  0  0  0  0
    2.3792   -0.3042    0.0000 N   0  0  0  0  0  0  0  0  0  0  0  0
    1.4542   -0.4542    0.0000 C   0  0  0  0  0  0  0  0  0  0  0  0
  2  1  1  0
  3  1  1  0
  4  1  1  0
  5  2  2  0
  6  3  2  0
  7  1  1  0
  8  2  1  0
  9  3  1  0
 10  3  1  0
 11  2  1  0
 12 13  1  0
 13  4  1  0
M  END
> <chembl_id>
CHEMBL834

> <chembl_pref_name>
PAMIDRONIC ACID
