
     RDKit          2D

 32 35  0  0  1  0  0  0  0  0999 V2000
    2.8125   -6.4125    0.0000 C   0  0  0  0  0  0  0  0  0  0  0  0
    4.6417   -5.3417    0.0000 C   0  0  0  0  0  0  0  0  0  0  0  0
    2.8167   -7.1167    0.0000 C   0  0  0  0  0  0  0  0  0  0  0  0
    3.4167   -6.0542    0.0000 C   0  0  0  0  0  0  0  0  0  0  0  0
    4.6542   -6.0500    0.0000 C   0  0  0  0  0  0  0  0  0  0  0  0
    4.0375   -6.4042    0.0000 C   0  0  0  0  0  0  0  0  0  0  0  0
    5.3167   -5.1167    0.0000 C   0  0  0  0  0  0  0  0  0  0  0  0
    2.2042   -7.4792    0.0000 C   0  0  0  0  0  0  0  0  0  0  0  0
    4.0250   -4.9917    0.0000 C   0  0  0  0  0  0  0  0  0  0  0  0
    3.4125   -5.3542    0.0000 C   0  0  0  0  0  0  0  0  0  0  0  0
    2.1917   -6.0542    0.0000 C   0  0  0  0  0  0  0  0  0  0  0  0
    4.0417   -7.1167    0.0000 C   0  0  0  0  0  0  0  0  0  0  0  0
    5.3250   -6.2625    0.0000 C   0  0  0  0  0  0  0  0  0  0  0  0
    5.3167   -4.4042    0.0000 O   0  0  0  0  0  0  0  0  0  0  0  0
    4.7000   -4.0542    0.0000 C   0  0  0  0  0  0  0  0  0  0  0  0
    3.4250   -7.4792    0.0000 C   0  0  0  0  0  0  0  0  0  0  0  0
    1.5917   -7.1250    0.0000 C   0  0  0  0  0  0  0  0  0  0  0  0
    5.7292   -5.6792    0.0000 C   0  0  0  0  0  0  0  0  0  0  0  0
    4.6917   -3.3417    0.0000 O   0  0  0  0  0  0  0  0  0  0  0  0
    0.9792   -7.5042    0.0000 O   0  0  0  0  0  0  0  0  0  0  0  0
    1.5792   -6.4042    0.0000 C   0  0  0  0  0  0  0  0  0  0  0  0
    2.8042   -5.7042    0.0000 C   0  0  0  0  0  0  0  0  0  0  0  0
    4.6417   -4.6292    0.0000 C   0  0  0  0  0  0  0  0  0  0  0  0
    4.0875   -4.4125    0.0000 C   0  0  0  0  0  0  0  0  0  0  0  0
    3.4667   -4.0625    0.0000 C   0  0  0  0  0  0  0  0  0  0  0  0
    1.6292   -4.4292    0.0000 C   0  0  0  0  0  0  0  0  0  0  0  0
    2.2417   -4.0667    0.0000 C   0  0  0  0  0  0  0  0  0  0  0  0
    2.8625   -4.4167    0.0000 C   0  0  0  0  0  0  0  0  0  0  0  0
    1.0167   -4.0792    0.0000 C   0  0  0  0  0  0  0  0  0  0  0  0
    4.0292   -5.6917    0.0000 H   0  0  0  0  0  0  0  0  0  0  0  0
    3.4167   -6.7667    0.0000 H   0  0  0  0  0  0  0  0  0  0  0  0
    4.6500   -6.7542    0.0000 H   0  0  0  0  0  0  0  0  0  0  0  0
  2  9  1  0
  3  1  1  0
  4  1  1  0
  5  6  1  0
  6  4  1  0
  7  2  1  0
  8  3  2  0
  9 10  1  0
 10  4  1  0
 11  1  1  0
 12  6  1  0
 13  5  1  0
  7 14  1  1
 15 14  1  0
 16  3  1  0
 17 21  1  0
 18 13  1  0
 19 15  2  0
 20 17  2  0
 21 11  1  0
  1 22  1  1
  2 23  1  1
 24 15  1  0
 25 24  1  0
 26 27  1  0
 27 28  1  0
 28 25  1  0
 29 26  1  0
  6 30  1  1
  4 31  1  6
  5 32  1  6
 12 16  1  0
 17  8  1  0
  2  5  1  0
 18  7  1  0
M  END
> <chembl_id>
CHEMBL1200335

> <chembl_pref_name>
TESTOSTERONE ENANTHATE
