
     RDKit          2D

 36 38  0  0  1  0  0  0  0  0999 V2000
    5.5125   -4.9292    0.0000 N   0  0  0  0  0  0  0  0  0  0  0  0
    5.5125   -4.2417    0.0000 C   0  0  0  0  0  0  0  0  0  0  0  0
    6.1042   -5.3042    0.0000 C   0  0  0  0  0  0  0  0  0  0  0  0
    4.9042   -5.2917    0.0000 C   0  0  0  0  0  0  0  0  0  0  0  0
    4.9042   -6.0250    0.0000 C   0  0  0  0  0  0  0  0  0  0  0  0
    5.5125   -6.3750    0.0000 C   0  0  0  0  0  0  0  0  0  0  0  0
    6.1042   -6.0250    0.0000 C   0  0  0  0  0  0  0  0  0  0  0  0
    4.1542   -4.2417    0.0000 N   0  0  0  0  0  0  0  0  0  0  0  0
    6.7167   -4.9500    0.0000 C   0  0  0  0  0  0  0  0  0  0  0  0
    4.8250   -3.8667    0.0000 C   0  0  0  0  0  0  0  0  0  0  0  0
    3.5292   -3.1792    0.0000 C   0  0  0  0  0  0  0  0  0  0  0  0
    5.5125   -7.0667    0.0000 C   0  0  0  0  0  0  0  0  0  0  0  0
    4.3042   -6.3750    0.0000 C   0  0  0  0  0  0  0  0  0  0  0  0
    4.9042   -7.4167    0.0000 C   0  0  0  0  0  0  0  0  0  0  0  0
    4.3042   -7.0667    0.0000 C   0  0  0  0  0  0  0  0  0  0  0  0
    3.5292   -3.8917    0.0000 C   0  0  0  0  0  0  0  0  0  0  0  0
    6.0917   -3.8917    0.0000 O   0  0  0  0  0  0  0  0  0  0  0  0
    6.7167   -4.2417    0.0000 O   0  0  0  0  0  0  0  0  0  0  0  0
    4.1500   -2.8125    0.0000 O   0  0  0  0  0  0  0  0  0  0  0  0
    2.9125   -4.2417    0.0000 C   0  0  0  0  0  0  0  0  0  0  0  0
    7.3292   -5.2917    0.0000 O   0  0  0  0  0  0  0  0  0  0  0  0
    2.9375   -2.8125    0.0000 O   0  0  0  0  0  0  0  0  0  0  0  0
    2.2667   -3.8917    0.0000 C   0  0  0  0  0  0  0  0  0  0  0  0
    4.9042   -8.1167    0.0000 O   0  0  0  0  0  0  0  0  0  0  0  0
    3.6917   -7.4042    0.0000 O   0  0  0  0  0  0  0  0  0  0  0  0
    1.6417   -4.2125    0.0000 C   0  0  0  0  0  0  0  0  0  0  0  0
    4.8250   -3.2042    0.0000 C   0  0  0  0  0  0  0  0  0  0  0  0
    2.3042   -3.1792    0.0000 C   0  0  0  0  0  0  0  0  0  0  0  0
    3.1042   -7.0542    0.0000 C   0  0  0  0  0  0  0  0  0  0  0  0
    5.5125   -8.4625    0.0000 C   0  0  0  0  0  0  0  0  0  0  0  0
    1.0167   -3.8375    0.0000 C   0  0  0  0  0  0  0  0  0  0  0  0
    1.6417   -4.9500    0.0000 C   0  0  0  0  0  0  0  0  0  0  0  0
    1.7042   -2.8125    0.0000 C   0  0  0  0  0  0  0  0  0  0  0  0
    0.3792   -4.2125    0.0000 C   0  0  0  0  0  0  0  0  0  0  0  0
    1.0167   -5.3042    0.0000 C   0  0  0  0  0  0  0  0  0  0  0  0
    0.3792   -4.9500    0.0000 C   0  0  0  0  0  0  0  0  0  0  0  0
  2  1  1  0
  3  1  1  0
  4  1  1  0
  5  4  1  0
  6  5  1  0
  7  3  1  0
  8 10  1  0
  3  9  1  6
 10  2  1  0
 16 11  1  1
 12  6  2  0
 13  5  2  0
 14 15  2  0
 15 13  1  0
 16  8  1  0
 17  2  2  0
 18  9  2  0
 19 11  2  0
 20 16  1  0
 21  9  1  0
 22 11  1  0
 23 20  1  0
 24 14  1  0
 25 15  1  0
 26 23  1  0
 10 27  1  1
 28 22  1  0
 29 25  1  0
 30 24  1  0
 31 26  2  0
 32 26  1  0
 33 28  1  0
 34 31  1  0
 35 32  2  0
 36 34  2  0
  6  7  1  0
 12 14  1  0
 36 35  1  0
M  END
> <chembl_id>
CHEMBL1165

> <chembl_pref_name>
MOEXIPRIL
