
     RDKit          2D

 23 23  0  0  0  0  0  0  0  0999 V2000
    3.8659   -4.0253    0.0000 C   0  0  0  0  0  0  0  0  0  0  0  0
    4.5804   -4.4378    0.0000 C   0  0  0  0  0  0  0  0  0  0  0  0
    5.2948   -4.0253    0.0000 C   0  0  0  0  0  0  0  0  0  0  0  0
    6.0093   -4.4378    0.0000 C   0  0  0  0  0  0  0  0  0  0  0  0
    6.7238   -4.0253    0.0000 C   0  0  0  0  0  0  0  0  0  0  0  0
    7.4383   -4.4378    0.0000 C   0  0  0  0  0  0  0  0  0  0  0  0
    8.1527   -4.0253    0.0000 C   0  0  0  0  0  0  0  0  0  0  0  0
    8.8672   -4.4378    0.0000 C   0  0  0  0  0  0  0  0  0  0  0  0
    9.5817   -4.0253    0.0000 N   0  0  0  0  0  0  0  0  0  0  0  0
   10.2961   -4.4378    0.0000 C   0  0  0  0  0  0  0  0  0  0  0  0
   10.2961   -5.2628    0.0000 C   0  0  0  0  0  0  0  0  0  0  0  0
   11.0106   -4.0253    0.0000 C   0  0  0  0  0  0  0  0  0  0  0  0
   11.0106   -3.2003    0.0000 O   0  0  0  0  0  0  0  0  0  0  0  0
   11.7251   -4.4378    0.0000 C   0  0  0  0  0  0  0  0  0  0  0  0
   12.4396   -4.0253    0.0000 C   0  0  0  0  0  0  0  0  0  0  0  0
   13.1540   -4.4378    0.0000 C   0  0  0  0  0  0  0  0  0  0  0  0
   13.1540   -5.2628    0.0000 C   0  0  0  0  0  0  0  0  0  0  0  0
   13.8685   -5.6753    0.0000 S   0  0  0  0  0  0  0  0  0  0  0  0
   13.8685   -6.5003    0.0000 C   0  0  0  0  0  0  0  0  0  0  0  0
   14.5830   -6.9128    0.0000 C   0  0  0  0  0  0  0  0  0  0  0  0
   13.1540   -6.9128    0.0000 C   0  0  0  0  0  0  0  0  0  0  0  0
   12.4396   -5.6753    0.0000 C   0  0  0  0  0  0  0  0  0  0  0  0
   11.7251   -5.2628    0.0000 C   0  0  0  0  0  0  0  0  0  0  0  0
  1  2  1  0
  2  3  1  0
  3  4  1  0
  4  5  1  0
  5  6  1  0
  6  7  1  0
  7  8  1  0
  8  9  1  0
  9 10  1  0
 10 11  1  0
 10 12  1  0
 12 13  1  0
 12 14  1  0
 14 15  2  0
 15 16  1  0
 16 17  2  0
 17 18  1  0
 18 19  1  0
 19 20  1  0
 19 21  1  0
 17 22  1  0
 22 23  2  0
 23 14  1  0
M  END
> <chembl_id>
CHEMBL404849

> <chembl_pref_name>
SULOCTIDIL
