
     RDKit          2D

 33 36  0  0  0  0  0  0  0  0999 V2000
   -0.1926  -25.6002    0.0000 C   0  0  0  0  0  0  0  0  0  0  0  0
   -0.1938  -26.4255    0.0000 C   0  0  0  0  0  0  0  0  0  0  0  0
    0.5193  -26.8373    0.0000 C   0  0  0  0  0  0  0  0  0  0  0  0
    1.2340  -26.4251    0.0000 C   0  0  0  0  0  0  0  0  0  0  0  0
    1.2311  -25.5965    0.0000 C   0  0  0  0  0  0  0  0  0  0  0  0
    0.5175  -25.1884    0.0000 C   0  0  0  0  0  0  0  0  0  0  0  0
   -0.9075  -25.1848    0.0000 C   0  0  0  0  0  0  0  0  0  0  0  0
   -0.9064  -24.3607    0.0000 C   0  0  0  0  0  0  0  0  0  0  0  0
   -1.6183  -23.9495    0.0000 C   0  0  0  0  0  0  0  0  0  0  0  0
   -2.3361  -24.3612    0.0000 C   0  0  0  0  0  0  0  0  0  0  0  0
   -2.3375  -25.1885    0.0000 C   0  0  0  0  0  0  0  0  0  0  0  0
   -1.6248  -25.6001    0.0000 C   0  0  0  0  0  0  0  0  0  0  0  0
   -3.0569  -25.6067    0.0000 C   0  0  0  0  0  0  0  0  0  0  0  0
   -3.7765  -25.1965    0.0000 O   0  0  0  0  0  0  0  0  0  0  0  0
   -3.0549  -26.4283    0.0000 O   0  0  0  0  0  0  0  0  0  0  0  0
    0.5192  -24.3654    0.0000 O   0  0  0  0  0  0  0  0  0  0  0  0
    1.9506  -25.1782    0.0000 N   0  0  0  0  0  0  0  0  0  0  0  0
    1.9458  -24.3525    0.0000 N   0  0  0  0  0  0  0  0  0  0  0  0
    2.6570  -23.9383    0.0000 C   0  0  0  0  0  0  0  0  0  0  0  0
    3.4386  -24.1942    0.0000 C   0  0  0  0  0  0  0  0  0  0  0  0
    3.9204  -23.5224    0.0000 N   0  0  0  0  0  0  0  0  0  0  0  0
    3.4398  -22.8609    0.0000 N   0  0  0  0  0  0  0  0  0  0  0  0
    2.6561  -23.1142    0.0000 C   0  0  0  0  0  0  0  0  0  0  0  0
    1.9881  -22.6202    0.0000 C   0  0  0  0  0  0  0  0  0  0  0  0
    3.6920  -24.9777    0.0000 O   0  0  0  0  0  0  0  0  0  0  0  0
    4.7434  -23.5596    0.0000 C   0  0  0  0  0  0  0  0  0  0  0  0
    5.1321  -24.2915    0.0000 C   0  0  0  0  0  0  0  0  0  0  0  0
    5.9543  -24.3249    0.0000 C   0  0  0  0  0  0  0  0  0  0  0  0
    6.3990  -23.6235    0.0000 C   0  0  0  0  0  0  0  0  0  0  0  0
    6.0115  -22.8992    0.0000 C   0  0  0  0  0  0  0  0  0  0  0  0
    5.1862  -22.8654    0.0000 C   0  0  0  0  0  0  0  0  0  0  0  0
    7.2220  -23.6348    0.0000 C   0  0  0  0  0  0  0  0  0  0  0  0
    6.3372  -25.0632    0.0000 C   0  0  0  0  0  0  0  0  0  0  0  0
  6 16  1  0
  5 17  1  0
  8  9  1  0
 17 18  1  0
  4  5  1  0
 18 19  2  0
 19 20  1  0
  9 10  2  0
  2  3  1  0
 10 11  1  0
  5  6  2  0
 20 21  1  0
 21 22  1  0
 22 23  2  0
 23 19  1  0
 11 12  2  0
 23 24  1  0
 12  7  1  0
 20 25  2  0
  1  7  1  0
 21 26  1  0
  6  1  1  0
 26 27  2  0
 11 13  1  0
 27 28  1  0
  1  2  2  0
 28 29  2  0
  3  4  2  0
 29 30  1  0
 13 14  1  0
 30 31  2  0
 31 26  1  0
 13 15  2  0
 29 32  1  0
  7  8  2  0
 28 33  1  0
M  END
> <chembl_id>
CHEMBL461101

> <chembl_pref_name>
ELTROMBOPAG
