
     RDKit          2D

 23 25  0  0  0  0  0  0  0  0999 V2000
    4.3000   -5.6500    0.0000 N   0  0  0  0  0  0  0  0  0  0  0  0
    4.5042   -6.3167    0.0000 N   0  0  0  0  0  0  0  0  0  0  0  0
    4.8917   -5.2417    0.0000 C   0  0  0  0  0  0  0  0  0  0  0  0
    5.2042   -6.3375    0.0000 C   0  0  0  0  0  0  0  0  0  0  0  0
    5.4375   -5.6750    0.0000 C   0  0  0  0  0  0  0  0  0  0  0  0
    3.6792   -5.3042    0.0000 C   0  0  0  0  0  0  0  0  0  0  0  0
    3.8917   -6.6750    0.0000 C   0  0  0  0  0  0  0  0  0  0  0  0
    4.9042   -4.5292    0.0000 O   0  0  0  0  0  0  0  0  0  0  0  0
    5.6042   -6.9250    0.0000 O   0  0  0  0  0  0  0  0  0  0  0  0
    6.0542   -5.3042    0.0000 C   0  0  0  0  0  0  0  0  0  0  0  0
    3.2750   -6.3167    0.0000 C   0  0  0  0  0  0  0  0  0  0  0  0
    3.8917   -7.3792    0.0000 C   0  0  0  0  0  0  0  0  0  0  0  0
    3.6667   -4.5917    0.0000 C   0  0  0  0  0  0  0  0  0  0  0  0
    3.0667   -5.6750    0.0000 C   0  0  0  0  0  0  0  0  0  0  0  0
    6.6750   -5.6625    0.0000 C   0  0  0  0  0  0  0  0  0  0  0  0
    7.2875   -5.3042    0.0000 C   0  0  0  0  0  0  0  0  0  0  0  0
    7.9042   -5.6417    0.0000 C   0  0  0  0  0  0  0  0  0  0  0  0
    3.2792   -7.7417    0.0000 C   0  0  0  0  0  0  0  0  0  0  0  0
    2.4417   -5.3292    0.0000 C   0  0  0  0  0  0  0  0  0  0  0  0
    3.0375   -4.2500    0.0000 C   0  0  0  0  0  0  0  0  0  0  0  0
    2.6542   -6.6750    0.0000 C   0  0  0  0  0  0  0  0  0  0  0  0
    2.4292   -4.6125    0.0000 C   0  0  0  0  0  0  0  0  0  0  0  0
    2.6542   -7.3917    0.0000 C   0  0  0  0  0  0  0  0  0  0  0  0
  2  1  1  0
  3  1  1  0
  4  2  1  0
  5  3  1  0
  6  1  1  0
  7  2  1  0
  8  3  2  0
  9  4  2  0
 10  5  1  0
 11  7  2  0
 12  7  1  0
 13  6  2  0
 14  6  1  0
 15 10  1  0
 16 15  1  0
 17 16  1  0
 18 12  2  0
 19 14  2  0
 20 13  1  0
 21 11  1  0
 22 19  1  0
 23 18  1  0
  5  4  1  0
 22 20  2  0
 23 21  2  0
M  END
> <chembl_id>
CHEMBL101

> <chembl_pref_name>
PHENYLBUTAZONE
