
     RDKit          2D

 37 40  0  0  0  0  0  0  0  0999 V2000
    6.0963   -7.5383    0.0000 C   0  0  0  0  0  0  0  0  0  0  0  0
    6.8108   -7.9508    0.0000 C   0  0  0  0  0  0  0  0  0  0  0  0
    7.5253   -7.5383    0.0000 C   0  0  0  0  0  0  0  0  0  0  0  0
    8.2397   -7.9508    0.0000 C   0  0  0  0  0  0  0  0  0  0  0  0
    7.5253   -6.7133    0.0000 O   0  0  0  0  0  0  0  0  0  0  0  0
    5.3818   -7.9508    0.0000 O   0  0  0  0  0  0  0  0  0  0  0  0
    6.0963   -6.7133    0.0000 O   0  0  0  0  0  0  0  0  0  0  0  0
    8.9542   -7.5383    0.0000 O   0  0  0  0  0  0  0  0  0  0  0  0
    8.2397   -8.7758    0.0000 O   0  0  0  0  0  0  0  0  0  0  0  0
    0.5806   -7.0046    0.0000 C   0  0  0  0  0  0  0  0  0  0  0  0
   -0.2444   -7.0046    0.0000 C   0  0  0  0  0  0  0  0  0  0  0  0
   -0.6569   -7.7191    0.0000 C   0  0  0  0  0  0  0  0  0  0  0  0
   -0.2444   -8.4336    0.0000 C   0  0  0  0  0  0  0  0  0  0  0  0
    0.5806   -8.4336    0.0000 C   0  0  0  0  0  0  0  0  0  0  0  0
   -0.8278   -9.0169    0.0000 C   0  0  0  0  0  0  0  0  0  0  0  0
   -1.6528   -9.0169    0.0000 N   0  0  0  0  0  0  0  0  0  0  0  0
   -0.4153   -9.7314    0.0000 O   0  0  0  0  0  0  0  0  0  0  0  0
    0.9132   -9.2221    0.0000 O   0  0  0  0  0  0  0  0  0  0  0  0
    1.8181   -6.2901    0.0000 C   0  0  0  0  0  0  0  0  0  0  0  0
    0.9931   -6.2901    0.0000 C   0  0  0  0  0  0  0  0  0  0  0  0
    0.9931   -7.7191    0.0000 C   0  0  0  0  0  0  0  0  0  0  0  0
    2.2306   -7.0046    0.0000 C   0  0  0  0  0  0  0  0  0  0  0  0
    3.0556   -7.0046    0.0000 C   0  0  0  0  0  0  0  0  0  0  0  0
    1.8181   -7.7191    0.0000 C   0  0  0  0  0  0  0  0  0  0  0  0
    2.2306   -8.4335    0.0000 C   0  0  0  0  0  0  0  0  0  0  0  0
    3.0556   -8.4335    0.0000 C   0  0  0  0  0  0  0  0  0  0  0  0
    3.4681   -7.7190    0.0000 C   0  0  0  0  0  0  0  0  0  0  0  0
    2.4015   -5.7067    0.0000 N   0  0  0  0  0  0  0  0  0  0  0  0
    2.9849   -5.1234    0.0000 C   0  0  0  0  0  0  0  0  0  0  0  0
    3.6993   -5.5359    0.0000 C   0  0  0  0  0  0  0  0  0  0  0  0
    4.5243   -5.5359    0.0000 C   0  0  0  0  0  0  0  0  0  0  0  0
    4.1118   -6.2503    0.0000 C   0  0  0  0  0  0  0  0  0  0  0  0
    1.4056   -7.0046    0.0000 O   0  0  0  0  0  0  0  0  0  0  0  0
    2.9849   -6.2901    0.0000 C   0  0  0  0  0  0  0  0  0  0  0  0
    2.6431   -7.7191    0.0000 C   0  0  0  0  0  0  0  0  0  0  0  0
    3.4681   -9.1480    0.0000 O   0  0  0  0  0  0  0  0  0  0  0  0
    1.6046   -5.4932    0.0000 H   0  0  0  0  0  0  0  0  0  0  0  0
  1  2  1  0
  2  3  1  0
  3  4  1  0
  3  5  1  6
  1  6  2  0
  1  7  1  0
  4  8  2  0
  4  9  1  0
 10 11  1  0
 11 12  2  0
 12 13  1  0
 13 14  2  0
 14 21  1  0
 13 15  1  0
 15 16  1  0
 15 17  2  0
 14 18  1  0
 20 10  1  0
 19 20  1  0
 19 22  1  0
 21 24  1  0
 10 21  2  0
 22 23  1  0
 23 27  1  0
 24 25  1  0
 25 26  1  0
 26 27  1  0
 22 24  1  0
 19 28  1  0
 28 29  1  0
 29 30  1  0
 30 31  1  0
 30 32  1  0
 31 32  1  0
 22 33  1  1
 28 34  1  0
 24 35  1  1
 35 34  1  0
 26 36  2  0
 19 37  1  6
M  END
> <chembl_id>
CHEMBL2105749

> <chembl_pref_name>
SAMIDORPHAN L-MALATE
