
     RDKit          2D

 25 28  0  0  1  0  0  0  0  0999 V2000
   -0.9083   -0.1417    0.0000 C   0  0  0  0  0  0  0  0  0  0  0  0
   -0.9083   -1.4042    0.0000 C   0  0  0  0  0  0  0  0  0  0  0  0
    2.4375    1.7625    0.0000 C   0  0  0  0  0  0  0  0  0  0  0  0
    0.2292    0.5000    0.0000 C   0  0  0  0  0  0  0  0  0  0  0  0
   -2.0083   -2.0125    0.0000 C   0  0  0  0  0  0  0  0  0  0  0  0
    2.4375    0.4625    0.0000 C   0  0  0  0  0  0  0  0  0  0  0  0
    1.3000   -0.1417    0.0000 C   0  0  0  0  0  0  0  0  0  0  0  0
    3.6542    2.1458    0.0000 C   0  0  0  0  0  0  0  0  0  0  0  0
    0.1917   -2.0125    0.0000 C   0  0  0  0  0  0  0  0  0  0  0  0
   -3.0833   -1.3667    0.0000 C   0  0  0  0  0  0  0  0  0  0  0  0
    1.3375    2.4083    0.0000 C   0  0  0  0  0  0  0  0  0  0  0  0
   -1.9708    0.5000    0.0000 C   0  0  0  0  0  0  0  0  0  0  0  0
    0.2292    1.8000    0.0000 C   0  0  0  0  0  0  0  0  0  0  0  0
    1.3000   -1.4417    0.0000 C   0  0  0  0  0  0  0  0  0  0  0  0
    3.6167    0.0833    0.0000 C   0  0  0  0  0  0  0  0  0  0  0  0
   -3.0833   -0.1417    0.0000 C   0  0  0  0  0  0  0  0  0  0  0  0
    4.3417    1.1458    0.0000 C   0  0  0  0  0  0  0  0  0  0  0  0
    4.1167    3.3000    0.0000 O   0  0  0  0  0  0  0  0  0  0  0  0
   -4.1833   -1.9542    0.0000 O   0  0  0  0  0  0  0  0  0  0  0  0
   -2.0083   -3.2125    0.0000 O   0  0  0  0  0  0  0  0  0  0  0  0
   -0.9083    1.1458    0.0000 C   0  0  0  0  0  0  0  0  0  0  0  0
    2.4375    3.1333    0.0000 C   0  0  0  0  0  0  0  0  0  0  0  0
    0.1917   -0.7917    0.0000 H   0  0  0  0  0  0  0  0  0  0  0  0
    1.3375    1.1458    0.0000 H   0  0  0  0  0  0  0  0  0  0  0  0
    2.4375   -0.9292    0.0000 H   0  0  0  0  0  0  0  0  0  0  0  0
  2  1  1  0
  3 11  1  0
  4  1  1  0
  5  2  2  0
  6  7  1  0
  7  4  1  0
  8  3  1  0
  9  2  1  0
 10 16  1  0
 11 13  1  0
 12  1  1  0
 13  4  1  0
 14  7  1  0
 15  6  1  0
 16 12  1  0
 17 15  1  0
 18  8  2  0
 19 10  2  0
 20  5  1  0
  1 21  1  1
  3 22  1  1
  4 23  1  6
  7 24  1  1
  6 25  1  6
  5 10  1  0
  9 14  1  0
  6  3  1  0
  8 17  1  0
M  END
> <chembl_id>
CHEMBL132530

> <chembl_pref_name>
FORMESTANE
