
     RDKit          2D

 32 36  0  0  0  0  0  0  0  0999 V2000
    3.9904   -4.4079    0.0000 C   0  0  0  0  0  0  0  0  0  0  0  0
    4.7049   -4.8204    0.0000 N   0  0  0  0  0  0  0  0  0  0  0  0
    3.9904   -3.5829    0.0000 C   0  0  0  0  0  0  0  0  0  0  0  0
    3.2759   -3.1704    0.0000 C   0  0  0  0  0  0  0  0  0  0  0  0
    2.5615   -3.5829    0.0000 F   0  0  0  0  0  0  0  0  0  0  0  0
    3.2759   -2.3454    0.0000 C   0  0  0  0  0  0  0  0  0  0  0  0
    3.9904   -1.9329    0.0000 C   0  0  0  0  0  0  0  0  0  0  0  0
    4.7049   -2.3454    0.0000 C   0  0  0  0  0  0  0  0  0  0  0  0
    6.1338   -0.6954    0.0000 C   0  0  0  0  0  0  0  0  0  0  0  0
    5.4193   -1.1079    0.0000 C   0  0  0  0  0  0  0  0  0  0  0  0
    6.8483   -1.1079    0.0000 C   0  0  0  0  0  0  0  0  0  0  0  0
    7.5627   -0.6954    0.0000 C   0  0  0  0  0  0  0  0  0  0  0  0
    7.5627    0.1296    0.0000 C   0  0  0  0  0  0  0  0  0  0  0  0
    6.8483    0.5421    0.0000 C   0  0  0  0  0  0  0  0  0  0  0  0
    6.1338    0.1296    0.0000 C   0  0  0  0  0  0  0  0  0  0  0  0
    5.4193    0.5421    0.0000 C   0  0  0  0  0  0  0  0  0  0  0  0
    5.4193    1.3671    0.0000 O   0  0  0  0  0  0  0  0  0  0  0  0
    4.7049    0.1296    0.0000 N   0  0  0  0  0  0  0  0  0  0  0  0
    4.7049   -0.6954    0.0000 N   0  0  0  0  0  0  0  0  0  0  0  0
    5.4193   -1.9329    0.0000 C   0  0  0  0  0  0  0  0  0  0  0  0
    4.7049   -3.1704    0.0000 C   0  0  0  0  0  0  0  0  0  0  0  0
    3.2759   -4.8204    0.0000 O   0  0  0  0  0  0  0  0  0  0  0  0
    6.1338   -5.6454    0.0000 N   0  0  0  0  0  0  0  0  0  0  0  0
    5.4193   -6.0579    0.0000 C   0  0  0  0  0  0  0  0  0  0  0  0
    4.7049   -5.6454    0.0000 C   0  0  0  0  0  0  0  0  0  0  0  0
    8.3877   -5.6454    0.0000 C   0  0  0  0  0  0  0  0  0  0  0  0
    7.5627   -5.6454    0.0000 C   0  0  0  0  0  0  0  0  0  0  0  0
    6.8483   -6.8829    0.0000 O   0  0  0  0  0  0  0  0  0  0  0  0
    6.8483   -6.0579    0.0000 C   0  0  0  0  0  0  0  0  0  0  0  0
    7.9752   -4.9310    0.0000 C   0  0  0  0  0  0  0  0  0  0  0  0
    6.1338   -4.8204    0.0000 C   0  0  0  0  0  0  0  0  0  0  0  0
    5.4193   -4.4079    0.0000 C   0  0  0  0  0  0  0  0  0  0  0  0
  1  2  1  0
  1  3  1  0
  3  4  2  0
  3 21  1  0
  4  5  1  0
  4  6  1  0
  6  7  2  0
  8  7  1  0
  8 20  1  0
  9 10  1  0
  9 15  2  0
 10 19  2  0
 11  9  1  0
 12 11  2  0
 12 13  1  0
 13 14  2  0
 15 14  1  0
 15 16  1  0
 16 17  2  0
 18 16  1  0
 19 18  1  0
 20 10  1  0
 21  8  2  0
 22  1  2  0
 23 24  1  0
 25  2  1  0
 25 24  1  0
 26 27  1  0
 27 30  1  0
 28 29  2  0
 29 23  1  0
 29 27  1  0
 30 26  1  0
 31 23  1  0
 31 32  1  0
 32  2  1  0
M  END
> <chembl_id>
CHEMBL521686

> <chembl_pref_name>
OLAPARIB
