
     RDKit          2D

 34 34  0  0  0  0  0  0  0  0999 V2000
    0.0000   -0.9250    0.0000 N   0  0  0  0  0  0  0  0  0  0  0  0
    2.7250   -2.1167    0.0000 C   0  0  0  0  0  0  0  0  0  0  0  0
   -2.3833   -2.6917    0.0000 C   0  0  0  0  0  0  0  0  0  0  0  0
   -1.1958   -1.8042    0.0000 C   0  0  0  0  0  0  0  0  0  0  0  0
    1.3625   -1.5167    0.0000 C   0  0  0  0  0  0  0  0  0  0  0  0
    0.8500   -0.8292    0.0000 C   0  0  0  0  0  0  0  0  0  0  0  0
   -0.3375   -1.7125    0.0000 C   0  0  0  0  0  0  0  0  0  0  0  0
   -1.5333   -2.6000    0.0000 C   0  0  0  0  0  0  0  0  0  0  0  0
    2.2167   -1.4167    0.0000 C   0  0  0  0  0  0  0  0  0  0  0  0
   -0.5000   -0.2292    0.0000 C   0  0  0  0  0  0  0  0  0  0  0  0
    3.5792   -2.0167    0.0000 C   0  0  0  0  0  0  0  0  0  0  0  0
    2.3792   -2.9000    0.0000 C   0  0  0  0  0  0  0  0  0  0  0  0
   -2.7333   -3.4792    0.0000 C   0  0  0  0  0  0  0  0  0  0  0  0
   -2.8958   -2.0000    0.0000 C   0  0  0  0  0  0  0  0  0  0  0  0
   -1.3583   -0.3250    0.0000 C   0  0  0  0  0  0  0  0  0  0  0  0
    4.0875   -2.7125    0.0000 C   0  0  0  0  0  0  0  0  0  0  0  0
    2.8917   -3.5917    0.0000 C   0  0  0  0  0  0  0  0  0  0  0  0
   -3.5833   -3.5792    0.0000 C   0  0  0  0  0  0  0  0  0  0  0  0
   -3.7583   -2.1000    0.0000 C   0  0  0  0  0  0  0  0  0  0  0  0
    3.7500   -3.5000    0.0000 C   0  0  0  0  0  0  0  0  0  0  0  0
   -4.0958   -2.8917    0.0000 C   0  0  0  0  0  0  0  0  0  0  0  0
    0.3500    1.3625    0.0000 C   0  0  0  0  0  0  0  0  0  0  0  0
   -0.1875    2.0250    0.0000 C   0  0  0  0  0  0  0  0  0  0  0  0
   -0.3458    0.8708    0.0000 C   0  0  0  0  0  0  0  0  0  0  0  0
    1.1292    1.7208    0.0000 C   0  0  0  0  0  0  0  0  0  0  0  0
    0.1000    2.8375    0.0000 C   0  0  0  0  0  0  0  0  0  0  0  0
   -1.1333    1.2458    0.0000 C   0  0  0  0  0  0  0  0  0  0  0  0
    1.8292    1.2208    0.0000 O   0  0  0  0  0  0  0  0  0  0  0  0
    0.9500    2.9833    0.0000 O   0  0  0  0  0  0  0  0  0  0  0  0
   -1.8458    0.7583    0.0000 O   0  0  0  0  0  0  0  0  0  0  0  0
    0.7667    0.6083    0.0000 O   0  0  0  0  0  0  0  0  0  0  0  0
    1.2167    2.5833    0.0000 O   0  0  0  0  0  0  0  0  0  0  0  0
   -1.1958    2.1083    0.0000 O   0  0  0  0  0  0  0  0  0  0  0  0
   -0.4375    3.4958    0.0000 O   0  0  0  0  0  0  0  0  0  0  0  0
  2  9  1  0
  3  8  1  0
  4  7  1  0
  5  6  1  0
  6  1  1  0
  7  1  1  0
  8  4  1  0
  9  5  1  0
 10  1  1  0
 11  2  1  0
 12  2  2  0
 13  3  1  0
 14  3  2  0
 15 10  1  0
 16 11  2  0
 17 12  1  0
 18 13  2  0
 19 14  1  0
 20 17  2  0
 21 19  2  0
 18 21  1  0
 16 20  1  0
 23 22  1  0
 24 22  1  0
 25 22  1  0
 26 23  1  0
 27 24  1  0
 28 25  2  0
 29 26  2  0
 30 27  2  0
 31 22  1  0
 32 25  1  0
 33 27  1  0
 34 26  1  0
M  END
> <chembl_id>
CHEMBL1408594

> <chembl_pref_name>
ALVERINE CITRATE
