
     RDKit          2D

 26 29  0  0  1  0  0  0  0  0999 V2000
   -0.9833   -0.5375    0.0000 C   0  0  0  0  0  0  0  0  0  0  0  0
    0.0875    0.0708    0.0000 C   0  0  0  0  0  0  0  0  0  0  0  0
    2.2167    1.2833    0.0000 C   0  0  0  0  0  0  0  0  0  0  0  0
    2.2167    0.0708    0.0000 C   0  0  0  0  0  0  0  0  0  0  0  0
    1.1500   -0.5375    0.0000 C   0  0  0  0  0  0  0  0  0  0  0  0
   -0.9833   -1.7417    0.0000 C   0  0  0  0  0  0  0  0  0  0  0  0
   -2.0458    0.0708    0.0000 C   0  0  0  0  0  0  0  0  0  0  0  0
    1.1500    1.8958    0.0000 C   0  0  0  0  0  0  0  0  0  0  0  0
    0.0875    1.2833    0.0000 C   0  0  0  0  0  0  0  0  0  0  0  0
    1.1500   -1.7417    0.0000 C   0  0  0  0  0  0  0  0  0  0  0  0
    4.3417    0.0708    0.0000 C   0  0  0  0  0  0  0  0  0  0  0  0
   -3.1000   -1.7417    0.0000 C   0  0  0  0  0  0  0  0  0  0  0  0
   -2.0458   -2.3500    0.0000 C   0  0  0  0  0  0  0  0  0  0  0  0
   -3.1000   -0.5375    0.0000 C   0  0  0  0  0  0  0  0  0  0  0  0
    3.2792    1.8958    0.0000 C   0  0  0  0  0  0  0  0  0  0  0  0
    0.0875   -2.3500    0.0000 C   0  0  0  0  0  0  0  0  0  0  0  0
    4.3417    1.2833    0.0000 C   0  0  0  0  0  0  0  0  0  0  0  0
   -4.1875   -2.3667    0.0000 O   0  0  0  0  0  0  0  0  0  0  0  0
   -0.9833    0.6958    0.0000 C   0  0  0  0  0  0  0  0  0  0  0  0
    2.2167    2.5333    0.0000 C   0  0  0  0  0  0  0  0  0  0  0  0
    3.2792    3.1333    0.0000 O   0  0  0  0  0  0  0  0  0  0  0  0
   -2.0458    1.3000    0.0000 C   0  0  0  0  0  0  0  0  0  0  0  0
    1.1500    0.7333    0.0000 H   0  0  0  0  0  0  0  0  0  0  0  0
    0.0875   -1.0500    0.0000 H   0  0  0  0  0  0  0  0  0  0  0  0
    2.2167   -0.9792    0.0000 H   0  0  0  0  0  0  0  0  0  0  0  0
   -0.9833   -3.0417    0.0000 H   0  0  0  0  0  0  0  0  0  0  0  0
  2  1  1  0
  3  8  1  0
  4  5  1  0
  5  2  1  0
  6  1  1  0
  7  1  1  0
  8  9  1  0
  9  2  1  0
 10 16  1  0
 11  4  1  0
 12 14  1  0
 13  6  1  0
 14  7  1  0
 15  3  1  0
 16  6  1  0
 17 11  1  0
 18 12  2  0
  1 19  1  1
  3 20  1  1
 15 21  1  1
  7 22  1  6
  5 23  1  1
  2 24  1  6
  4 25  1  6
  6 26  1  6
 13 12  1  0
  5 10  1  0
  4  3  1  0
 15 17  1  0
M  END
> <chembl_id>
CHEMBL258918

> <chembl_pref_name>
MESTEROLONE
