
     RDKit          2D

 41 45  0  0  0  0  0  0  0  0999 V2000
    6.4417   -9.4167    0.0000 S   0  0  0  0  0  0  0  0  0  0  0  0
    5.8542   -9.0667    0.0000 N   0  0  0  0  0  0  0  0  0  0  0  0
    2.7875   -7.3542    0.0000 C   0  0  0  0  0  0  0  0  0  0  0  0
    2.7875   -6.1917    0.0000 N   0  0  0  0  0  0  0  0  0  0  0  0
    2.0875   -7.1292    0.0000 C   0  0  0  0  0  0  0  0  0  0  0  0
    3.1917   -6.7792    0.0000 C   0  0  0  0  0  0  0  0  0  0  0  0
    2.0875   -6.4292    0.0000 C   0  0  0  0  0  0  0  0  0  0  0  0
    5.2292   -9.4167    0.0000 C   0  0  0  0  0  0  0  0  0  0  0  0
   -0.3625   -7.1292    0.0000 C   0  0  0  0  0  0  0  0  0  0  0  0
    7.0542   -9.0417    0.0000 C   0  0  0  0  0  0  0  0  0  0  0  0
    2.7875   -7.9917    0.0000 C   0  0  0  0  0  0  0  0  0  0  0  0
    4.6000   -9.0667    0.0000 C   0  0  0  0  0  0  0  0  0  0  0  0
    3.3792   -8.3667    0.0000 C   0  0  0  0  0  0  0  0  0  0  0  0
    6.0792  -10.0292    0.0000 O   0  0  0  0  0  0  0  0  0  0  0  0
    6.7917  -10.0292    0.0000 O   0  0  0  0  0  0  0  0  0  0  0  0
    3.9917   -8.0292    0.0000 C   0  0  0  0  0  0  0  0  0  0  0  0
    0.2500   -7.4792    0.0000 N   0  0  0  0  0  0  0  0  0  0  0  0
    4.6000   -8.3667    0.0000 C   0  0  0  0  0  0  0  0  0  0  0  0
    1.4792   -6.0667    0.0000 C   0  0  0  0  0  0  0  0  0  0  0  0
    1.4792   -7.5042    0.0000 C   0  0  0  0  0  0  0  0  0  0  0  0
   -0.9958   -7.4792    0.0000 O   0  0  0  0  0  0  0  0  0  0  0  0
    0.8667   -7.1292    0.0000 C   0  0  0  0  0  0  0  0  0  0  0  0
   -0.3625   -6.4292    0.0000 O   0  0  0  0  0  0  0  0  0  0  0  0
    5.2292  -10.1417    0.0000 O   0  0  0  0  0  0  0  0  0  0  0  0
    3.9917   -9.4167    0.0000 C   0  0  0  0  0  0  0  0  0  0  0  0
    3.3792   -9.0667    0.0000 C   0  0  0  0  0  0  0  0  0  0  0  0
    7.6667   -9.3917    0.0000 C   0  0  0  0  0  0  0  0  0  0  0  0
    0.8667   -6.4292    0.0000 C   0  0  0  0  0  0  0  0  0  0  0  0
    3.1375   -5.4542    0.0000 C   0  0  0  0  0  0  0  0  0  0  0  0
    3.9917   -7.3292    0.0000 O   0  0  0  0  0  0  0  0  0  0  0  0
   -1.6208   -7.1292    0.0000 C   0  0  0  0  0  0  0  0  0  0  0  0
    7.0542   -8.3292    0.0000 C   0  0  0  0  0  0  0  0  0  0  0  0
    7.6667  -10.1667    0.0000 C   0  0  0  0  0  0  0  0  0  0  0  0
    8.2667   -9.0417    0.0000 C   0  0  0  0  0  0  0  0  0  0  0  0
    4.5792   -6.9917    0.0000 C   0  0  0  0  0  0  0  0  0  0  0  0
   -2.1833   -7.5167    0.0000 C   0  0  0  0  0  0  0  0  0  0  0  0
   -1.8458   -6.4542    0.0000 C   0  0  0  0  0  0  0  0  0  0  0  0
    7.6667   -7.9792    0.0000 C   0  0  0  0  0  0  0  0  0  0  0  0
    8.2667   -8.3292    0.0000 C   0  0  0  0  0  0  0  0  0  0  0  0
   -2.7500   -7.1292    0.0000 C   0  0  0  0  0  0  0  0  0  0  0  0
   -2.5125   -6.4542    0.0000 C   0  0  0  0  0  0  0  0  0  0  0  0
  2  1  1  0
  3 11  1  0
  4  6  1  0
  5  3  1  0
  6  3  2  0
  7  5  2  0
  8  2  1  0
  9 17  1  0
 10  1  1  0
 11 13  1  0
 12  8  1  0
 13 26  1  0
 14  1  2  0
 15  1  2  0
 16 18  1  0
 17 22  1  0
 18 12  2  0
 19  7  1  0
 20  5  1  0
 21  9  1  0
 22 20  2  0
 23  9  2  0
 24  8  2  0
 25 12  1  0
 26 25  2  0
 27 10  2  0
 28 22  1  0
 29  4  1  0
 30 16  1  0
 31 21  1  0
 32 10  1  0
 33 27  1  0
 34 27  1  0
 35 30  1  0
 36 31  1  0
 37 31  1  0
 38 32  2  0
 39 38  1  0
 40 36  1  0
 41 37  1  0
 34 39  2  0
 13 16  2  0
  7  4  1  0
 19 28  2  0
 40 41  1  0
M  END
> <chembl_id>
CHEMBL603

> <chembl_pref_name>
ZAFIRLUKAST
