
     RDKit          2D

  6  4  0  0  0  0  0  0  0  0999 V2000
    3.6792   -3.9708    0.0000 K   0  0  0  0  0 15  0  0  0  0  0  0
    2.2333   -3.4542    0.0000 Cl  0  0  0  0  0  0  0  0  0  0  0  0
    2.8458   -3.8125    0.0000 O   0  0  0  0  0  0  0  0  0  0  0  0
    1.6167   -3.8125    0.0000 O   0  0  0  0  0  0  0  0  0  0  0  0
    2.5792   -2.8375    0.0000 O   0  0  0  0  0  0  0  0  0  0  0  0
    1.8750   -2.8375    0.0000 O   0  0  0  0  0  0  0  0  0  0  0  0
  3  2  1  0
  4  2  2  0
  5  2  2  0
  6  2  2  0
M  CHG  2   1   1   3  -1
M  END
> <chembl_id>
CHEMBL1200696

> <chembl_pref_name>
POTASSIUM PERCHLORATE
