
     RDKit          2D

 49 52  0  0  0  0  0  0  0  0999 V2000
   -2.1000    2.7333    0.0000 S   0  0  0  0  0  0  0  0  0  0  0  0
    0.7667    2.5958    0.0000 N   0  0  0  0  0  0  0  0  0  0  0  0
    0.0750    3.0458    0.0000 C   0  0  0  0  0  0  0  0  0  0  0  0
    0.8417    4.2292    0.0000 S   0  0  0  0  0  0  0  0  0  0  0  0
   -1.3583    3.1083    0.0000 C   0  0  0  0  0  0  0  0  0  0  0  0
   -0.6583    2.6583    0.0000 C   0  0  0  0  0  0  0  0  0  0  0  0
    0.1042    3.8625    0.0000 C   0  0  0  0  0  0  0  0  0  0  0  0
    1.5042    2.9708    0.0000 C   0  0  0  0  0  0  0  0  0  0  0  0
    1.5417    3.7958    0.0000 C   0  0  0  0  0  0  0  0  0  0  0  0
   -2.8458    2.3458    0.0000 N   0  0  0  0  0  0  0  0  0  0  0  0
   -2.4833    3.4625    0.0000 O   0  0  0  0  0  0  0  0  0  0  0  0
   -1.7208    1.9833    0.0000 O   0  0  0  0  0  0  0  0  0  0  0  0
   -0.7583    0.1500    0.0000 N   0  0  0  0  0  0  0  0  0  0  0  0
   -3.7208   -3.0792    0.0000 C   0  0  0  0  0  0  0  0  0  0  0  0
   -1.3208    3.9250    0.0000 C   0  0  0  0  0  0  0  0  0  0  0  0
   -0.5875    4.3042    0.0000 C   0  0  0  0  0  0  0  0  0  0  0  0
   -4.4458   -3.4792    0.0000 O   0  0  0  0  0  0  0  0  0  0  0  0
    0.7417    1.7625    0.0000 C   0  0  0  0  0  0  0  0  0  0  0  0
    0.0042    1.3708    0.0000 C   0  0  0  0  0  0  0  0  0  0  0  0
   -0.7833   -0.6750    0.0000 C   0  0  0  0  0  0  0  0  0  0  0  0
   -1.4583    0.5833    0.0000 C   0  0  0  0  0  0  0  0  0  0  0  0
   -3.6958   -2.2542    0.0000 O   0  0  0  0  0  0  0  0  0  0  0  0
   -0.0208    0.5458    0.0000 C   0  0  0  0  0  0  0  0  0  0  0  0
   -2.1833    0.2000    0.0000 C   0  0  0  0  0  0  0  0  0  0  0  0
   -1.5125   -1.0667    0.0000 C   0  0  0  0  0  0  0  0  0  0  0  0
    2.2042    2.5250    0.0000 C   0  0  0  0  0  0  0  0  0  0  0  0
   -2.2125   -0.6292    0.0000 C   0  0  0  0  0  0  0  0  0  0  0  0
   -2.9625   -1.8542    0.0000 C   0  0  0  0  0  0  0  0  0  0  0  0
    2.2792    4.1667    0.0000 C   0  0  0  0  0  0  0  0  0  0  0  0
   -3.5458    2.7958    0.0000 C   0  0  0  0  0  0  0  0  0  0  0  0
   -2.8833    1.5250    0.0000 C   0  0  0  0  0  0  0  0  0  0  0  0
   -3.0083   -3.5167    0.0000 C   0  0  0  0  0  0  0  0  0  0  0  0
   -2.9458   -1.0292    0.0000 C   0  0  0  0  0  0  0  0  0  0  0  0
   -2.2833   -3.1292    0.0000 C   0  0  0  0  0  0  0  0  0  0  0  0
    6.3042   -3.5167    0.0000 C   0  0  0  0  0  0  0  0  0  0  0  0
    5.5750   -3.9000    0.0000 C   0  0  0  0  0  0  0  0  0  0  0  0
   -0.1458   -3.6250    0.0000 C   0  0  0  0  0  0  0  0  0  0  0  0
    0.5875   -3.2417    0.0000 C   0  0  0  0  0  0  0  0  0  0  0  0
    1.2792   -3.6917    0.0000 C   0  0  0  0  0  0  0  0  0  0  0  0
    2.0167   -3.3125    0.0000 C   0  0  0  0  0  0  0  0  0  0  0  0
    2.7167   -3.7542    0.0000 C   0  0  0  0  0  0  0  0  0  0  0  0
    3.4417   -3.3792    0.0000 C   0  0  0  0  0  0  0  0  0  0  0  0
    4.1417   -3.8292    0.0000 C   0  0  0  0  0  0  0  0  0  0  0  0
    4.8792   -3.4542    0.0000 C   0  0  0  0  0  0  0  0  0  0  0  0
   -1.5833   -3.5667    0.0000 C   0  0  0  0  0  0  0  0  0  0  0  0
   -0.8458   -3.1792    0.0000 C   0  0  0  0  0  0  0  0  0  0  0  0
    2.9292    2.9000    0.0000 C   0  0  0  0  0  0  0  0  0  0  0  0
    2.9750    3.7333    0.0000 C   0  0  0  0  0  0  0  0  0  0  0  0
    7.0042   -3.9667    0.0000 C   0  0  0  0  0  0  0  0  0  0  0  0
  2  3  1  0
  3  6  1  0
  4  7  1  0
  5  1  1  0
  6  5  2  0
  7 16  1  0
  8  2  1  0
  9  4  1  0
 10  1  1  0
 11  1  2  0
 12  1  2  0
 13 23  1  0
 14 22  1  0
 15  5  1  0
 16 15  2  0
 17 14  2  0
 18  2  1  0
 19 18  1  0
 20 13  1  0
 21 13  1  0
 22 28  1  0
 23 19  1  0
 24 21  1  0
 25 20  1  0
 26  8  1  0
 27 24  1  0
 28 33  1  0
 29  9  1  0
 30 10  1  0
 31 10  1  0
 32 14  1  0
 33 27  1  0
 34 32  1  0
 35 36  1  0
 36 44  1  0
 37 46  1  0
 38 37  1  0
 39 38  1  0
 40 39  1  0
 41 40  1  0
 42 41  1  0
 43 42  1  0
 44 43  1  0
 45 34  1  0
 46 45  1  0
 47 26  2  0
 48 29  2  0
 49 35  1  0
  3  7  2  0
  8  9  2  0
 47 48  1  0
 25 27  1  0
M  END
> <chembl_id>
CHEMBL2106439

> <chembl_pref_name>
PIPOTIAZINE PALMITATE
