
     RDKit          2D

 19 20  0  0  1  0  0  0  0  0999 V2000
    1.0875   -5.8167    0.0000 N   0  0  0  0  0  0  0  0  0  0  0  0
    0.4750   -5.4625    0.0000 C   0  0  0  0  0  0  0  0  0  0  0  0
    0.4750   -4.7542    0.0000 N   0  0  0  0  0  0  0  0  0  0  0  0
    1.0917   -6.7000    0.0000 C   0  0  0  0  0  0  0  0  0  0  0  0
    1.6958   -5.4625    0.0000 C   0  0  0  0  0  0  0  0  0  0  0  0
    1.6958   -4.7542    0.0000 C   0  0  0  0  0  0  0  0  0  0  0  0
    1.0875   -4.4000    0.0000 C   0  0  0  0  0  0  0  0  0  0  0  0
    0.5167   -6.2792    0.0000 O   0  0  0  0  0  0  0  0  0  0  0  0
    0.8750   -7.3750    0.0000 C   0  0  0  0  0  0  0  0  0  0  0  0
   -0.2583   -8.6542    0.0000 N   0  0  0  0  0  0  0  0  0  0  0  0
    0.1625   -7.3750    0.0000 C   0  0  0  0  0  0  0  0  0  0  0  0
   -0.0542   -6.7000    0.0000 C   0  0  0  0  0  0  0  0  0  0  0  0
   -0.2583   -9.3625    0.0000 N   0  0  0  0  0  0  0  0  0  0  0  0
   -0.2500   -7.9458    0.0000 N   0  0  0  0  0  0  0  0  0  0  0  0
   -0.1417   -5.8125    0.0000 O   0  0  0  0  0  0  0  0  0  0  0  0
    1.0875   -3.6917    0.0000 O   0  0  0  0  0  0  0  0  0  0  0  0
    2.3125   -4.4000    0.0000 C   0  0  0  0  0  0  0  0  0  0  0  0
   -0.6708   -6.3417    0.0000 C   0  0  0  0  0  0  0  0  0  0  0  0
   -1.2875   -6.6958    0.0000 O   0  0  0  0  0  0  0  0  0  0  0  0
  2  1  1  0
  3  2  1  0
  4  1  1  1
  5  1  1  0
  6  5  2  0
  7  6  1  0
  8  4  1  0
  9  4  1  0
 10 14  2  0
 11  9  1  0
 12  8  1  0
 13 10  2  0
 11 14  1  6
 15  2  2  0
 16  7  2  0
 17  6  1  0
 12 18  1  1
 19 18  1  0
 11 12  1  0
  7  3  1  0
M  CHG  2  10   1  13  -1
M  END
> <chembl_id>
CHEMBL129

> <chembl_pref_name>
ZIDOVUDINE
