
     RDKit          2D

 24 25  0  0  0  0  0  0  0  0999 V2000
    0.5328    0.0507    0.0000 C   0  0  0  0  0  0  0  0  0  0  0  0
   -0.2922    0.0507    0.0000 C   0  0  0  0  0  0  0  0  0  0  0  0
   -2.3547    0.7651    0.0000 C   0  0  0  0  0  0  0  0  0  0  0  0
   -0.7047    0.7651    0.0000 O   0  0  0  0  0  0  0  0  0  0  0  0
   -2.7672    1.4796    0.0000 N   0  0  0  0  0  0  0  0  0  0  0  0
   -1.5297    0.7651    0.0000 C   0  0  0  0  0  0  0  0  0  0  0  0
   -0.7047   -0.6638    0.0000 O   0  0  0  0  0  0  0  0  0  0  0  0
    0.5328   -0.7743    0.0000 C   0  0  0  0  0  0  0  0  0  0  0  0
    1.3578    0.0507    0.0000 C   0  0  0  0  0  0  0  0  0  0  0  0
    0.5328    0.8757    0.0000 O   0  0  0  0  0  0  0  0  0  0  0  0
   -3.5922    1.4796    0.0000 C   0  0  0  0  0  0  0  0  0  0  0  0
   -2.3547    2.1941    0.0000 C   0  0  0  0  0  0  0  0  0  0  0  0
   -0.1817   -1.1868    0.0000 C   0  0  0  0  0  0  0  0  0  0  0  0
    1.2473   -1.1868    0.0000 C   0  0  0  0  0  0  0  0  0  0  0  0
    1.7703   -0.6638    0.0000 C   0  0  0  0  0  0  0  0  0  0  0  0
    1.7703    0.7651    0.0000 C   0  0  0  0  0  0  0  0  0  0  0  0
    2.5953   -0.6638    0.0000 C   0  0  0  0  0  0  0  0  0  0  0  0
    2.5953    0.7651    0.0000 C   0  0  0  0  0  0  0  0  0  0  0  0
   -0.1817   -2.0118    0.0000 C   0  0  0  0  0  0  0  0  0  0  0  0
    1.2473   -2.0118    0.0000 C   0  0  0  0  0  0  0  0  0  0  0  0
    3.0078    0.0507    0.0000 C   0  0  0  0  0  0  0  0  0  0  0  0
    0.5328   -2.4243    0.0000 C   0  0  0  0  0  0  0  0  0  0  0  0
   -1.5297   -0.0599    0.0000 C   0  0  0  0  0  0  0  0  0  0  0  0
   -1.5297    1.5901    0.0000 C   0  0  0  0  0  0  0  0  0  0  0  0
  2  1  1  0
  3  6  1  0
  4  2  1  0
  5  3  1  0
  6  4  1  0
  7  2  2  0
  8  1  1  0
  9  1  1  0
 10  1  1  0
 11  5  1  0
 12  5  1  0
 13  8  1  0
 14  8  2  0
 15  9  2  0
 16  9  1  0
 17 15  1  0
 18 16  2  0
 19 13  2  0
 20 14  1  0
 21 17  2  0
 22 20  2  0
 18 21  1  0
 22 19  1  0
  6 23  1  0
  6 24  1  0
M  END
> <chembl_id>
CHEMBL3304486

> <chembl_pref_name>
DIFEMERINE
