
     RDKit          2D

 11 11  0  0  0  0  0  0  0  0999 V2000
   -0.7958   -1.6167    0.0000 N   0  0  0  0  0  0  0  0  0  0  0  0
    0.5167    0.6625    0.0000 C   0  0  0  0  0  0  0  0  0  0  0  0
    0.5167   -0.8542    0.0000 C   0  0  0  0  0  0  0  0  0  0  0  0
   -0.7958    1.4208    0.0000 N   0  0  0  0  0  0  0  0  0  0  0  0
    1.7542    1.3833    0.0000 C   0  0  0  0  0  0  0  0  0  0  0  0
   -2.1000   -0.8542    0.0000 C   0  0  0  0  0  0  0  0  0  0  0  0
   -0.7958   -2.7167    0.0000 O   0  0  0  0  0  0  0  0  0  0  0  0
   -2.1000    0.6625    0.0000 C   0  0  0  0  0  0  0  0  0  0  0  0
    1.7542    2.8208    0.0000 O   0  0  0  0  0  0  0  0  0  0  0  0
    3.0292    0.6958    0.0000 O   0  0  0  0  0  0  0  0  0  0  0  0
   -3.1458   -1.5167    0.0000 C   0  0  0  0  0  0  0  0  0  0  0  0
  2  3  2  0
  3  1  1  0
  4  8  2  0
  5  2  1  0
  6  1  2  0
  7  1  1  0
  8  6  1  0
  9  5  2  0
 10  5  1  0
 11  6  1  0
  2  4  1  0
M  CHG  2   1   1   7  -1
M  END
> <chembl_id>
CHEMBL345714

> <chembl_pref_name>
ACIPIMOX
