
     RDKit          2D

 13 13  0  0  0  0  0  0  0  0999 V2000
    1.0917   -0.6000    0.0000 C   0  0  0  0  0  0  0  0  0  0  0  0
   -0.0583   -1.4375    0.0000 C   0  0  0  0  0  0  0  0  0  0  0  0
    2.3917   -1.2042    0.0000 C   0  0  0  0  0  0  0  0  0  0  0  0
   -2.5333   -1.6667    0.0000 N   0  0  0  0  0  0  0  0  0  0  0  0
    2.5250   -2.6375    0.0000 O   0  0  0  0  0  0  0  0  0  0  0  0
   -1.3708   -0.8292    0.0000 C   0  0  0  0  0  0  0  0  0  0  0  0
    0.9542    0.8000    0.0000 C   0  0  0  0  0  0  0  0  0  0  0  0
    3.5667   -0.3667    0.0000 C   0  0  0  0  0  0  0  0  0  0  0  0
   -3.8458   -1.0667    0.0000 C   0  0  0  0  0  0  0  0  0  0  0  0
    3.8375   -3.2292    0.0000 C   0  0  0  0  0  0  0  0  0  0  0  0
   -1.5000    0.5833    0.0000 C   0  0  0  0  0  0  0  0  0  0  0  0
    2.1250    1.6458    0.0000 C   0  0  0  0  0  0  0  0  0  0  0  0
    3.4375    1.0333    0.0000 C   0  0  0  0  0  0  0  0  0  0  0  0
  2  1  1  0
  3  1  1  0
  4  6  1  0
  5  3  1  0
  6  2  1  0
  7  1  2  0
  8  3  2  0
  9  4  1  0
 10  5  1  0
 11  6  1  0
 12  7  1  0
 13 12  2  0
  8 13  1  0
M  END
> <chembl_id>
CHEMBL2010507

> <chembl_pref_name>
METHOXYPHENAMINE
