
     RDKit          2D

 27 30  0  0  0  0  0  0  0  0999 V2000
    6.0000   -5.0250    0.0000 N   0  0  0  0  0  0  0  0  0  0  0  0
    6.6125   -3.9625    0.0000 C   0  0  0  0  0  0  0  0  0  0  0  0
    5.3917   -4.6792    0.0000 C   0  0  0  0  0  0  0  0  0  0  0  0
    5.3917   -3.9625    0.0000 C   0  0  0  0  0  0  0  0  0  0  0  0
    6.6167   -4.6667    0.0000 C   0  0  0  0  0  0  0  0  0  0  0  0
    6.0000   -3.6125    0.0000 C   0  0  0  0  0  0  0  0  0  0  0  0
    4.7750   -5.0292    0.0000 C   0  0  0  0  0  0  0  0  0  0  0  0
    4.1625   -4.6792    0.0000 C   0  0  0  0  0  0  0  0  0  0  0  0
    3.5417   -5.0292    0.0000 N   0  0  0  0  0  0  0  0  0  0  0  0
    4.1625   -3.9625    0.0000 C   0  0  0  0  0  0  0  0  0  0  0  0
    6.0000   -5.7375    0.0000 C   0  0  0  0  0  0  0  0  0  0  0  0
    4.7750   -3.6167    0.0000 C   0  0  0  0  0  0  0  0  0  0  0  0
    7.2250   -3.6042    0.0000 C   0  0  0  0  0  0  0  0  0  0  0  0
    5.6500   -6.3500    0.0000 C   0  0  0  0  0  0  0  0  0  0  0  0
    6.3625   -6.3500    0.0000 C   0  0  0  0  0  0  0  0  0  0  0  0
    3.5500   -5.7417    0.0000 C   0  0  0  0  0  0  0  0  0  0  0  0
    5.9917   -2.9000    0.0000 O   0  0  0  0  0  0  0  0  0  0  0  0
    2.3167   -5.7375    0.0000 N   0  0  0  0  0  0  0  0  0  0  0  0
    7.2167   -2.8917    0.0000 O   0  0  0  0  0  0  0  0  0  0  0  0
    4.7792   -5.7417    0.0000 O   0  0  0  0  0  0  0  0  0  0  0  0
    3.5417   -3.6167    0.0000 F   0  0  0  0  0  0  0  0  0  0  0  0
    2.9375   -4.6792    0.0000 C   0  0  0  0  0  0  0  0  0  0  0  0
    2.9292   -6.0917    0.0000 C   0  0  0  0  0  0  0  0  0  0  0  0
    7.8292   -3.9542    0.0000 O   0  0  0  0  0  0  0  0  0  0  0  0
    2.3167   -5.0250    0.0000 C   0  0  0  0  0  0  0  0  0  0  0  0
    4.2667   -6.2417    0.0000 C   0  0  0  0  0  0  0  0  0  0  0  0
    2.9292   -6.8000    0.0000 C   0  0  0  0  0  0  0  0  0  0  0  0
  2  5  2  0
  3  1  1  0
  4  3  1  0
  5  1  1  0
  6  2  1  0
  7  3  2  0
  8  7  1  0
  9  8  1  0
 10  8  2  0
 11  1  1  0
 12  4  2  0
 13  2  1  0
 14 11  1  0
 15 11  1  0
 16  9  1  0
 17  6  2  0
 18 25  1  0
 19 13  2  0
 20  7  1  0
 21 10  1  0
 22  9  1  0
 23 16  1  0
 24 13  1  0
 25 22  1  0
 26 20  1  0
 27 23  1  0
 15 14  1  0
  6  4  1  0
 10 12  1  0
 18 23  1  0
M  END
> <chembl_id>
CHEMBL31

> <chembl_pref_name>
GATIFLOXACIN
