
     RDKit          2D

 25 25  0  0  0  0  0  0  0  0999 V2000
    6.8250   -3.1750    0.0000 Cl  0  0  0  0  0  0  0  0  0  0  0  0
    2.5792   -3.7917    0.0000 C   0  0  0  0  0  0  0  0  0  0  0  0
    3.2042   -4.1542    0.0000 C   0  0  0  0  0  0  0  0  0  0  0  0
    2.5792   -3.0792    0.0000 C   0  0  0  0  0  0  0  0  0  0  0  0
    3.2042   -4.8542    0.0000 C   0  0  0  0  0  0  0  0  0  0  0  0
    1.9667   -4.1417    0.0000 C   0  0  0  0  0  0  0  0  0  0  0  0
    3.2042   -2.7292    0.0000 O   0  0  0  0  0  0  0  0  0  0  0  0
    2.5792   -5.2125    0.0000 C   0  0  0  0  0  0  0  0  0  0  0  0
    5.0417   -5.2125    0.0000 N   0  0  0  0  0  0  0  0  0  0  0  0
    1.9667   -4.8542    0.0000 C   0  0  0  0  0  0  0  0  0  0  0  0
    4.4417   -4.8542    0.0000 C   0  0  0  0  0  0  0  0  0  0  0  0
    3.8250   -5.2167    0.0000 C   0  0  0  0  0  0  0  0  0  0  0  0
    1.9667   -2.7167    0.0000 N   0  0  0  0  0  0  0  0  0  0  0  0
    1.3500   -3.7792    0.0000 O   0  0  0  0  0  0  0  0  0  0  0  0
    6.8917   -4.8750    0.0000 C   0  0  0  0  0  0  0  0  0  0  0  0
    3.8125   -5.9292    0.0000 O   0  0  0  0  0  0  0  0  0  0  0  0
    7.5167   -5.2292    0.0000 C   0  0  0  0  0  0  0  0  0  0  0  0
    6.2792   -5.2167    0.0000 C   0  0  0  0  0  0  0  0  0  0  0  0
    5.6625   -4.8750    0.0000 C   0  0  0  0  0  0  0  0  0  0  0  0
    7.5167   -5.9375    0.0000 C   0  0  0  0  0  0  0  0  0  0  0  0
    8.1375   -4.8792    0.0000 C   0  0  0  0  0  0  0  0  0  0  0  0
    5.6667   -4.1542    0.0000 C   0  0  0  0  0  0  0  0  0  0  0  0
    8.1417   -6.2917    0.0000 C   0  0  0  0  0  0  0  0  0  0  0  0
    8.7625   -5.2292    0.0000 C   0  0  0  0  0  0  0  0  0  0  0  0
    8.7667   -5.9417    0.0000 C   0  0  0  0  0  0  0  0  0  0  0  0
  3  2  1  0
  4  2  1  0
  5  3  2  0
  6  2  2  0
  7  4  2  0
  8 10  2  0
  9 11  1  0
 10  6  1  0
 11 12  1  0
 12  5  1  0
 13  4  1  0
 14  6  1  0
 15 18  1  0
 16 12  1  0
 17 15  1  0
 18 19  1  0
 19  9  1  0
 20 17  2  0
 21 17  1  0
 22 19  1  0
 23 20  1  0
 24 21  2  0
 25 23  2  0
  8  5  1  0
 25 24  1  0
M  END
> <chembl_id>
CHEMBL1200323

> <chembl_pref_name>
LABETALOL HYDROCHLORIDE
