
     RDKit          2D

 27 28  0  0  0  0  0  0  0  0999 V2000
    4.9917   -2.2792    0.0000 Na  0  0  0  0  0 15  0  0  0  0  0  0
    4.3625   -3.6500    0.0000 S   0  0  0  0  0  0  0  0  0  0  0  0
    4.0167   -3.0417    0.0000 N   0  0  0  0  0  0  0  0  0  0  0  0
    6.7125   -6.7792    0.0000 N   0  0  0  0  0  0  0  0  0  0  0  0
    5.7667   -6.1125    0.0000 C   0  0  0  0  0  0  0  0  0  0  0  0
    6.5000   -6.1125    0.0000 C   0  0  0  0  0  0  0  0  0  0  0  0
    6.1292   -7.2042    0.0000 O   0  0  0  0  0  0  0  0  0  0  0  0
    5.5542   -6.7792    0.0000 C   0  0  0  0  0  0  0  0  0  0  0  0
    4.7125   -4.2667    0.0000 C   0  0  0  0  0  0  0  0  0  0  0  0
    3.3125   -3.0417    0.0000 C   0  0  0  0  0  0  0  0  0  0  0  0
    5.4250   -5.4917    0.0000 C   0  0  0  0  0  0  0  0  0  0  0  0
    4.9917   -3.3000    0.0000 O   0  0  0  0  0  0  0  0  0  0  0  0
    3.7417   -4.0042    0.0000 O   0  0  0  0  0  0  0  0  0  0  0  0
    6.8500   -5.4917    0.0000 C   0  0  0  0  0  0  0  0  0  0  0  0
    2.9542   -2.4292    0.0000 O   0  0  0  0  0  0  0  0  0  0  0  0
    5.4250   -4.2667    0.0000 C   0  0  0  0  0  0  0  0  0  0  0  0
    4.3500   -4.8792    0.0000 C   0  0  0  0  0  0  0  0  0  0  0  0
    4.7042   -5.4917    0.0000 C   0  0  0  0  0  0  0  0  0  0  0  0
    5.7792   -4.8792    0.0000 C   0  0  0  0  0  0  0  0  0  0  0  0
    4.8792   -6.9667    0.0000 C   0  0  0  0  0  0  0  0  0  0  0  0
    2.9542   -3.6625    0.0000 C   0  0  0  0  0  0  0  0  0  0  0  0
    7.5625   -5.4917    0.0000 C   0  0  0  0  0  0  0  0  0  0  0  0
    6.4917   -4.8792    0.0000 C   0  0  0  0  0  0  0  0  0  0  0  0
    2.2292   -3.6625    0.0000 C   0  0  0  0  0  0  0  0  0  0  0  0
    7.9167   -4.8792    0.0000 C   0  0  0  0  0  0  0  0  0  0  0  0
    6.8500   -4.2542    0.0000 C   0  0  0  0  0  0  0  0  0  0  0  0
    7.5625   -4.2542    0.0000 C   0  0  0  0  0  0  0  0  0  0  0  0
  3  2  1  0
  4  6  2  0
  5 11  1  0
  6  5  1  0
  7  8  1  0
  8  5  2  0
  9  2  1  0
 10  3  1  0
 11 18  1  0
 12  2  2  0
 13  2  2  0
 14  6  1  0
 15 10  2  0
 16  9  2  0
 17  9  1  0
 18 17  2  0
 19 16  1  0
 20  8  1  0
 21 10  1  0
 22 14  1  0
 23 14  2  0
 24 21  1  0
 25 22  2  0
 26 23  1  0
 27 25  1  0
 19 11  2  0
  4  7  1  0
 26 27  2  0
M  CHG  2   1   1   3  -1
M  END
> <chembl_id>
CHEMBL296913

> <chembl_pref_name>
PARECOXIB SODIUM
