
     RDKit          2D

 17 18  0  0  0  0  0  0  0  0999 V2000
    8.8250   -5.3417    0.0000 S   0  0  0  0  0  0  0  0  0  0  0  0
    9.4292   -4.9875    0.0000 N   0  0  0  0  0  0  0  0  0  0  0  0
   10.0542   -5.3375    0.0000 C   0  0  0  0  0  0  0  0  0  0  0  0
    8.2042   -5.0000    0.0000 C   0  0  0  0  0  0  0  0  0  0  0  0
    8.4750   -5.9542    0.0000 O   0  0  0  0  0  0  0  0  0  0  0  0
    9.1875   -5.9542    0.0000 O   0  0  0  0  0  0  0  0  0  0  0  0
   10.0667   -6.0417    0.0000 N   0  0  0  0  0  0  0  0  0  0  0  0
   10.6667   -4.9667    0.0000 N   0  0  0  0  0  0  0  0  0  0  0  0
    7.6000   -5.3625    0.0000 C   0  0  0  0  0  0  0  0  0  0  0  0
    8.2000   -4.2917    0.0000 C   0  0  0  0  0  0  0  0  0  0  0  0
    6.9750   -4.3042    0.0000 C   0  0  0  0  0  0  0  0  0  0  0  0
    6.3542   -3.9542    0.0000 N   0  0  0  0  0  0  0  0  0  0  0  0
    6.9792   -5.0167    0.0000 C   0  0  0  0  0  0  0  0  0  0  0  0
    7.5875   -3.9417    0.0000 C   0  0  0  0  0  0  0  0  0  0  0  0
   11.3042   -6.0292    0.0000 C   0  0  0  0  0  0  0  0  0  0  0  0
   11.2917   -5.3167    0.0000 C   0  0  0  0  0  0  0  0  0  0  0  0
   10.7000   -6.3875    0.0000 C   0  0  0  0  0  0  0  0  0  0  0  0
  2  1  1  0
  3  2  1  0
  4  1  1  0
  5  1  2  0
  6  1  2  0
  7  3  1  0
  8  3  2  0
  9  4  2  0
 10  4  1  0
 11 14  1  0
 12 11  1  0
 13  9  1  0
 14 10  2  0
 15 16  2  0
 16  8  1  0
 17  7  2  0
 11 13  2  0
 15 17  1  0
M  END
> <chembl_id>
CHEMBL439

> <chembl_pref_name>
SULFADIAZINE
