
     RDKit          2D

 32 33  0  0  0  0  0  0  0  0999 V2000
    4.1625   -1.2542    0.0000 Cl  0  0  0  0  0  0  0  0  0  0  0  0
   -0.2083    0.0208    0.0000 N   0  0  0  0  0  0  0  0  0  0  0  0
    0.4167    0.0208    0.0000 C   0  0  0  0  0  0  0  0  0  0  0  0
   -1.5083    0.0208    0.0000 N   0  0  0  0  0  0  0  0  0  0  0  0
    0.7375   -0.5167    0.0000 C   0  0  0  0  0  0  0  0  0  0  0  0
    0.7292    0.5625    0.0000 C   0  0  0  0  0  0  0  0  0  0  0  0
   -2.4458   -0.5167    0.0000 C   0  0  0  0  0  0  0  0  0  0  0  0
   -0.5250    0.5750    0.0000 C   0  0  0  0  0  0  0  0  0  0  0  0
   -0.5375   -0.5292    0.0000 C   0  0  0  0  0  0  0  0  0  0  0  0
   -3.0625   -0.5167    0.0000 C   0  0  0  0  0  0  0  0  0  0  0  0
    1.3667   -0.5167    0.0000 C   0  0  0  0  0  0  0  0  0  0  0  0
    0.4125    1.1208    0.0000 C   0  0  0  0  0  0  0  0  0  0  0  0
    1.3542    0.5583    0.0000 C   0  0  0  0  0  0  0  0  0  0  0  0
    0.4167   -1.0500    0.0000 C   0  0  0  0  0  0  0  0  0  0  0  0
   -1.1833   -0.5292    0.0000 C   0  0  0  0  0  0  0  0  0  0  0  0
   -1.1708    0.5750    0.0000 C   0  0  0  0  0  0  0  0  0  0  0  0
    1.3667    1.6625    0.0000 C   0  0  0  0  0  0  0  0  0  0  0  0
    1.3667   -1.6042    0.0000 C   0  0  0  0  0  0  0  0  0  0  0  0
   -2.1375    0.0208    0.0000 C   0  0  0  0  0  0  0  0  0  0  0  0
    0.7375   -1.6167    0.0000 C   0  0  0  0  0  0  0  0  0  0  0  0
    1.6917   -1.0500    0.0000 C   0  0  0  0  0  0  0  0  0  0  0  0
    0.7167    1.6625    0.0000 C   0  0  0  0  0  0  0  0  0  0  0  0
    1.6792    1.1208    0.0000 C   0  0  0  0  0  0  0  0  0  0  0  0
   -3.3833   -1.0542    0.0000 C   0  0  0  0  0  0  0  0  0  0  0  0
    1.6792   -2.1417    0.0000 F   0  0  0  0  0  0  0  0  0  0  0  0
    1.7000    2.1958    0.0000 F   0  0  0  0  0  0  0  0  0  0  0  0
   -4.0208   -1.0500    0.0000 C   0  0  0  0  0  0  0  0  0  0  0  0
   -3.0750   -1.6167    0.0000 C   0  0  0  0  0  0  0  0  0  0  0  0
   -4.3458   -1.6042    0.0000 C   0  0  0  0  0  0  0  0  0  0  0  0
   -3.3833   -2.1542    0.0000 C   0  0  0  0  0  0  0  0  0  0  0  0
   -4.0333   -2.1542    0.0000 C   0  0  0  0  0  0  0  0  0  0  0  0
    4.1667    0.4958    0.0000 Cl  0  0  0  0  0  0  0  0  0  0  0  0
  3  2  1  0
  4 15  1  0
  5  3  1  0
  6  3  1  0
  7 19  1  0
  8  2  1  0
  9  2  1  0
 10  7  2  0
 11  5  1  0
 12  6  1  0
 13  6  2  0
 14  5  2  0
 15  9  1  0
 16  8  1  0
 17 23  2  0
 18 20  2  0
 19  4  1  0
 20 14  1  0
 21 11  2  0
 22 12  2  0
 23 13  1  0
 24 10  1  0
 25 18  1  0
 26 17  1  0
 27 24  2  0
 28 24  1  0
 29 27  1  0
 30 28  2  0
 31 30  1  0
 16  4  1  0
 22 17  1  0
 21 18  1  0
 29 31  2  0
M  END
> <chembl_id>
CHEMBL552659

> <chembl_pref_name>
FLUNARIZINE HYDROCHLORIDE
