
     RDKit          2D

 17 12  0  0  0  0  0  0  0  0999 V2000
    9.2143  -15.8304    0.0000 O   0  0  0  0  0  0  0  0  0  0  0  0
    5.8463  -13.1228    0.0000 K   0  0  0  0  0 15  0  0  0  0  0  0
    5.8463  -15.5224    0.0000 K   0  0  0  0  0 15  0  0  0  0  0  0
   10.8832  -14.1844    0.0000 K   0  0  0  0  0 15  0  0  0  0  0  0
    7.8727  -13.8014    0.0000 C   0  0  0  0  0  0  0  0  0  0  0  0
    7.1503  -14.2086    0.0000 C   0  0  0  0  0  0  0  0  0  0  0  0
    8.5901  -14.2086    0.0000 C   0  0  0  0  0  0  0  0  0  0  0  0
    7.4557  -13.0839    0.0000 C   0  0  0  0  0  0  0  0  0  0  0  0
    9.3027  -13.8014    0.0000 C   0  0  0  0  0  0  0  0  0  0  0  0
    7.1649  -15.0231    0.0000 C   0  0  0  0  0  0  0  0  0  0  0  0
    7.8582  -12.3617    0.0000 O   0  0  0  0  0  0  0  0  0  0  0  0
    7.9018  -15.4157    0.0000 O   0  0  0  0  0  0  0  0  0  0  0  0
    9.3027  -12.9725    0.0000 O   0  0  0  0  0  0  0  0  0  0  0  0
    8.2799  -13.0839    0.0000 O   0  0  0  0  0  0  0  0  0  0  0  0
    6.6268  -13.0888    0.0000 O   0  0  0  0  0  0  0  0  0  0  0  0
    6.4668  -15.4594    0.0000 O   0  0  0  0  0  0  0  0  0  0  0  0
   10.0251  -14.2086    0.0000 O   0  0  0  0  0  0  0  0  0  0  0  0
  6  5  1  0
  7  5  1  0
  8  5  1  0
  9  7  1  0
 10  6  1  0
 11  8  2  0
 12 10  2  0
 13  9  2  0
 14  5  1  0
 15  8  1  0
 16 10  1  0
 17  9  1  0
M  CHG  6   2   1   3   1   4   1  15  -1  16  -1  17  -1
M  END
> <chembl_id>
CHEMBL3989822

> <chembl_pref_name>
POTASSIUM CITRATE
