
     RDKit          2D

 32 36  0  0  0  0  0  0  0  0999 V2000
    4.6750   -3.0667    0.0000 N   0  0  0  0  0  0  0  0  0  0  0  0
    3.9917   -3.2792    0.0000 C   0  0  0  0  0  0  0  0  0  0  0  0
    4.0167   -2.1292    0.0000 N   0  0  0  0  0  0  0  0  0  0  0  0
    4.6875   -2.3542    0.0000 C   0  0  0  0  0  0  0  0  0  0  0  0
    3.5875   -2.7000    0.0000 C   0  0  0  0  0  0  0  0  0  0  0  0
    6.5125   -6.2667    0.0000 C   0  0  0  0  0  0  0  0  0  0  0  0
    7.4375   -5.5792    0.0000 N   0  0  0  0  0  0  0  0  0  0  0  0
    6.7250   -5.5875    0.0000 N   0  0  0  0  0  0  0  0  0  0  0  0
    7.6667   -6.2542    0.0000 N   0  0  0  0  0  0  0  0  0  0  0  0
    7.0917   -6.6792    0.0000 N   0  0  0  0  0  0  0  0  0  0  0  0
    5.8917   -6.6292    0.0000 C   0  0  0  0  0  0  0  0  0  0  0  0
    5.2792   -6.2750    0.0000 C   0  0  0  0  0  0  0  0  0  0  0  0
    5.2917   -3.4292    0.0000 C   0  0  0  0  0  0  0  0  0  0  0  0
    5.2792   -5.5625    0.0000 C   0  0  0  0  0  0  0  0  0  0  0  0
    3.7667   -3.9542    0.0000 O   0  0  0  0  0  0  0  0  0  0  0  0
    5.9000   -5.2042    0.0000 C   0  0  0  0  0  0  0  0  0  0  0  0
    4.6625   -5.2042    0.0000 C   0  0  0  0  0  0  0  0  0  0  0  0
    5.2875   -4.1417    0.0000 C   0  0  0  0  0  0  0  0  0  0  0  0
    5.3042   -2.0000    0.0000 C   0  0  0  0  0  0  0  0  0  0  0  0
    5.9000   -4.4917    0.0000 C   0  0  0  0  0  0  0  0  0  0  0  0
    4.6667   -4.4875    0.0000 C   0  0  0  0  0  0  0  0  0  0  0  0
    3.1750   -3.2792    0.0000 C   0  0  0  0  0  0  0  0  0  0  0  0
    3.1542   -2.1292    0.0000 C   0  0  0  0  0  0  0  0  0  0  0  0
    5.8917   -7.3417    0.0000 C   0  0  0  0  0  0  0  0  0  0  0  0
    4.6625   -6.6292    0.0000 C   0  0  0  0  0  0  0  0  0  0  0  0
    5.9167   -2.3500    0.0000 C   0  0  0  0  0  0  0  0  0  0  0  0
    6.5375   -1.9917    0.0000 C   0  0  0  0  0  0  0  0  0  0  0  0
    2.4917   -3.0667    0.0000 C   0  0  0  0  0  0  0  0  0  0  0  0
    2.4792   -2.3542    0.0000 C   0  0  0  0  0  0  0  0  0  0  0  0
    5.2792   -7.6917    0.0000 C   0  0  0  0  0  0  0  0  0  0  0  0
    4.6542   -7.3417    0.0000 C   0  0  0  0  0  0  0  0  0  0  0  0
    7.1542   -2.3417    0.0000 C   0  0  0  0  0  0  0  0  0  0  0  0
  2  1  1  0
  3  4  2  0
  4  1  1  0
  5  2  1  0
  6 11  1  0
  7  8  1  0
  8  6  2  0
  9 10  1  0
 10  6  1  0
 11 12  1  0
 12 14  1  0
 13  1  1  0
 14 17  2  0
 15  2  2  0
 16 20  2  0
 17 21  1  0
 18 13  1  0
 19  4  1  0
 20 18  1  0
 21 18  2  0
 22  5  1  0
 23  5  1  0
 24 11  2  0
 25 12  2  0
 26 19  1  0
 27 26  1  0
 28 22  1  0
 29 23  1  0
 30 31  2  0
 31 25  1  0
 32 27  1  0
  3  5  1  0
 14 16  1  0
 28 29  1  0
 30 24  1  0
  7  9  2  0
M  END
> <chembl_id>
CHEMBL1513

> <chembl_pref_name>
IRBESARTAN
