
     RDKit          2D

 22 25  0  0  0  0  0  0  0  0999 V2000
    3.2625   -4.2667    0.0000 C   0  0  0  0  0  0  0  0  0  0  0  0
    2.6292   -4.5542    0.0000 C   0  0  0  0  0  0  0  0  0  0  0  0
    3.4417   -3.5667    0.0000 C   0  0  0  0  0  0  0  0  0  0  0  0
    2.9667   -2.9917    0.0000 C   0  0  0  0  0  0  0  0  0  0  0  0
    1.9917   -4.2542    0.0000 C   0  0  0  0  0  0  0  0  0  0  0  0
    2.6125   -5.2417    0.0000 C   0  0  0  0  0  0  0  0  0  0  0  0
    1.8417   -3.5417    0.0000 C   0  0  0  0  0  0  0  0  0  0  0  0
    4.1375   -3.5250    0.0000 S   0  0  0  0  0  0  0  0  0  0  0  0
    2.2583   -3.0042    0.0000 C   0  0  0  0  0  0  0  0  0  0  0  0
    3.8792   -4.6125    0.0000 C   0  0  0  0  0  0  0  0  0  0  0  0
    2.6000   -6.6792    0.0000 N   0  0  0  0  0  0  0  0  0  0  0  0
    4.3917   -4.1417    0.0000 C   0  0  0  0  0  0  0  0  0  0  0  0
    3.2667   -2.3292    0.0000 O   0  0  0  0  0  0  0  0  0  0  0  0
    1.9917   -5.6042    0.0000 C   0  0  0  0  0  0  0  0  0  0  0  0
    3.2000   -5.6167    0.0000 C   0  0  0  0  0  0  0  0  0  0  0  0
    1.9667   -6.3250    0.0000 C   0  0  0  0  0  0  0  0  0  0  0  0
    3.2167   -6.3417    0.0000 C   0  0  0  0  0  0  0  0  0  0  0  0
    1.4667   -4.7375    0.0000 C   0  0  0  0  0  0  0  0  0  0  0  0
    1.1417   -3.3500    0.0000 C   0  0  0  0  0  0  0  0  0  0  0  0
    2.6250   -7.4042    0.0000 C   0  0  0  0  0  0  0  0  0  0  0  0
    0.7792   -4.5083    0.0000 C   0  0  0  0  0  0  0  0  0  0  0  0
    0.6167   -3.8292    0.0000 C   0  0  0  0  0  0  0  0  0  0  0  0
  2  1  1  0
  3  1  2  0
  4  3  1  0
  5  2  1  0
  6  2  2  0
  7  5  2  0
  8  3  1  0
  9  4  1  0
 10  1  1  0
 11 17  1  0
 12 10  2  0
 13  4  2  0
 14  6  1  0
 15  6  1  0
 16 14  1  0
 17 15  1  0
 18  5  1  0
 19  7  1  0
 20 11  1  0
 21 18  2  0
 22 19  2  0
 12  8  1  0
  9  7  1  0
 11 16  1  0
 21 22  1  0
M  END
> <chembl_id>
CHEMBL534

> <chembl_pref_name>
KETOTIFEN
