
     RDKit          2D

 19 20  0  0  0  0  0  0  0  0999 V2000
    0.3000    0.0208    0.0000 C   0  0  0  0  0  0  0  0  0  0  0  0
    1.6750    0.0208    0.0000 O   0  0  0  0  0  0  0  0  0  0  0  0
   -0.3000   -1.1792    0.0000 O   0  0  0  0  0  0  0  0  0  0  0  0
   -0.3750    1.1000    0.0000 C   0  0  0  0  0  0  0  0  0  0  0  0
    0.4417    2.2458    0.0000 N   0  0  0  0  0  0  0  0  0  0  0  0
   -1.6625   -1.1667    0.0000 C   0  0  0  0  0  0  0  0  0  0  0  0
    2.3167   -1.1792    0.0000 C   0  0  0  0  0  0  0  0  0  0  0  0
    1.5292    2.2458    0.0000 C   0  0  0  0  0  0  0  0  0  0  0  0
   -0.1708    3.4458    0.0000 C   0  0  0  0  0  0  0  0  0  0  0  0
   -2.3708   -0.0292    0.0000 C   0  0  0  0  0  0  0  0  0  0  0  0
   -2.3208   -2.3250    0.0000 C   0  0  0  0  0  0  0  0  0  0  0  0
    3.6667   -1.1667    0.0000 C   0  0  0  0  0  0  0  0  0  0  0  0
    1.6167   -2.2792    0.0000 C   0  0  0  0  0  0  0  0  0  0  0  0
    4.3375   -2.3667    0.0000 C   0  0  0  0  0  0  0  0  0  0  0  0
    2.2917   -3.4375    0.0000 C   0  0  0  0  0  0  0  0  0  0  0  0
   -3.7000   -0.0250    0.0000 C   0  0  0  0  0  0  0  0  0  0  0  0
   -3.6708   -2.3250    0.0000 C   0  0  0  0  0  0  0  0  0  0  0  0
    3.6542   -3.4250    0.0000 C   0  0  0  0  0  0  0  0  0  0  0  0
   -4.3458   -1.1542    0.0000 C   0  0  0  0  0  0  0  0  0  0  0  0
  2  1  1  0
  3  1  1  0
  4  1  1  0
  5  4  1  0
  6  3  1  0
  7  2  1  0
  8  5  1  0
  9  5  1  0
 10  6  2  0
 11  6  1  0
 12  7  2  0
 13  7  1  0
 14 12  1  0
 15 13  2  0
 16 10  1  0
 17 11  2  0
 18 15  1  0
 19 17  1  0
 16 19  2  0
 14 18  2  0
M  END
> <chembl_id>
CHEMBL85231

> <chembl_pref_name>
MEDIFOXAMINE
