
     RDKit          2D

 26 28  0  0  0  0  0  0  0  0999 V2000
    0.4357   -1.8175    0.0000 C   0  0  0  0  0  0  0  0  0  0  0  0
    1.1370   -1.4109    0.0000 N   0  0  0  0  0  0  0  0  0  0  0  0
   -0.2821   -1.4109    0.0000 C   0  0  0  0  0  0  0  0  0  0  0  0
    1.1370   -3.0499    0.0000 C   0  0  0  0  0  0  0  0  0  0  0  0
   -0.2821   -0.5893    0.0000 C   0  0  0  0  0  0  0  0  0  0  0  0
    1.8548   -1.8175    0.0000 C   0  0  0  0  0  0  0  0  0  0  0  0
    2.5769   -1.3984    0.0000 C   0  0  0  0  0  0  0  0  0  0  0  0
    0.4357   -2.6433    0.0000 C   0  0  0  0  0  0  0  0  0  0  0  0
    1.8548   -2.6391    0.0000 C   0  0  0  0  0  0  0  0  0  0  0  0
    1.1370   -3.8508    0.0000 C   0  0  0  0  0  0  0  0  0  0  0  0
    1.8548   -5.0915    0.0000 N   0  0  0  0  0  0  0  0  0  0  0  0
    1.8548   -4.2616    0.0000 C   0  0  0  0  0  0  0  0  0  0  0  0
    0.5395   -0.5893    0.0000 F   0  0  0  0  0  0  0  0  0  0  0  0
   -1.1037   -0.5893    0.0000 F   0  0  0  0  0  0  0  0  0  0  0  0
   -0.2821    0.2323    0.0000 F   0  0  0  0  0  0  0  0  0  0  0  0
    3.2989   -1.0001    0.0000 F   0  0  0  0  0  0  0  0  0  0  0  0
    2.9794   -2.1204    0.0000 F   0  0  0  0  0  0  0  0  0  0  0  0
    2.1702   -0.6847    0.0000 F   0  0  0  0  0  0  0  0  0  0  0  0
   -0.9959   -1.8299    0.0000 C   0  0  0  0  0  0  0  0  0  0  0  0
    0.4150   -4.2740    0.0000 O   0  0  0  0  0  0  0  0  0  0  0  0
   -0.2821   -3.0499    0.0000 C   0  0  0  0  0  0  0  0  0  0  0  0
    2.5561   -5.4940    0.0000 C   0  0  0  0  0  0  0  0  0  0  0  0
   -0.9959   -2.6391    0.0000 C   0  0  0  0  0  0  0  0  0  0  0  0
    2.5561   -3.8508    0.0000 C   0  0  0  0  0  0  0  0  0  0  0  0
    3.2782   -5.0915    0.0000 C   0  0  0  0  0  0  0  0  0  0  0  0
    3.2782   -4.2740    0.0000 C   0  0  0  0  0  0  0  0  0  0  0  0
  2  1  1  0
  3  1  1  0
  4  8  1  0
  5  3  1  0
  6  2  2  0
  7  6  1  0
  8  1  2  0
  9  4  2  0
 10  4  1  0
 11 12  1  0
 12 10  1  0
 13  5  1  0
 14  5  1  0
 15  5  1  0
 16  7  1  0
 17  7  1  0
 18  7  1  0
 19  3  2  0
 20 10  1  0
 21  8  1  0
 22 11  1  0
 23 21  2  0
 24 12  1  0
 25 26  1  0
 26 24  1  0
 19 23  1  0
  6  9  1  0
 22 25  1  0
M  END
> <chembl_id>
CHEMBL416956

> <chembl_pref_name>
MEFLOQUINE
