
     RDKit          2D

 22 22  0  0  0  0  0  0  0  0999 V2000
   -3.1570    1.3724    0.0000 N   0  0  0  0  0  0  0  0  0  0  0  0
   -3.8245    0.8875    0.0000 C   0  0  0  0  0  0  0  0  0  0  0  0
   -3.5695    0.1029    0.0000 C   0  0  0  0  0  0  0  0  0  0  0  0
   -2.7445    0.1029    0.0000 C   0  0  0  0  0  0  0  0  0  0  0  0
   -2.4896    0.8875    0.0000 C   0  0  0  0  0  0  0  0  0  0  0  0
   -1.7037    0.6367    0.0000 C   0  0  0  0  0  0  0  0  0  0  0  0
   -1.0935    1.1919    0.0000 N   0  0  0  0  0  0  0  0  0  0  0  0
   -0.3226    0.8981    0.0000 C   0  0  0  0  0  0  0  0  0  0  0  0
    0.2791    1.4625    0.0000 C   0  0  0  0  0  0  0  0  0  0  0  0
    1.0650    1.2117    0.0000 C   0  0  0  0  0  0  0  0  0  0  0  0
    1.6752    1.7669    0.0000 C   0  0  0  0  0  0  0  0  0  0  0  0
    2.4612    1.5161    0.0000 O   0  0  0  0  0  0  0  0  0  0  0  0
   -3.1570    2.1974    0.0000 C   0  0  0  0  0  0  0  0  0  0  0  0
   -2.4426    2.6099    0.0000 C   0  0  0  0  0  0  0  0  0  0  0  0
   -3.8715    2.6099    0.0000 O   0  0  0  0  0  0  0  0  0  0  0  0
   -2.4426    3.4349    0.0000 N   0  0  0  0  0  0  0  0  0  0  0  0
   -2.0304    1.5729    0.0000 C   0  0  0  0  0  0  0  0  0  0  0  0
   -1.5279   -0.1694    0.0000 O   0  0  0  0  0  0  0  0  0  0  0  0
   -0.1630    0.0887    0.0000 C   0  0  0  0  0  0  0  0  0  0  0  0
    0.6178   -0.1778    0.0000 O   0  0  0  0  0  0  0  0  0  0  0  0
   -0.7841   -0.4543    0.0000 O   0  0  0  0  0  0  0  0  0  0  0  0
    1.4764    2.5676    0.0000 O   0  0  0  0  0  0  0  0  0  0  0  0
  1  2  1  0
  2  3  1  0
  3  4  1  0
  4  5  1  0
  1  5  1  0
  6  7  1  0
  7  8  1  0
  8  9  1  0
  9 10  1  0
 10 11  1  0
 11 12  1  0
  5  6  1  0
  1 13  1  0
 13 14  1  0
 13 15  2  0
 14 16  1  0
  5 17  1  1
  6 18  2  0
  8 19  1  1
 19 20  1  0
 19 21  2  0
 11 22  2  0
M  END
> <chembl_id>
CHEMBL197084

> <chembl_pref_name>
TROFINETIDE
