
     RDKit          2D

 23 25  0  0  0  0  0  0  0  0999 V2000
   -0.0250   -0.9542    0.0000 S   0  0  0  0  0  0  0  0  0  0  0  0
    0.5875   -0.6000    0.0000 N   0  0  0  0  0  0  0  0  0  0  0  0
    0.5875    0.1083    0.0000 C   0  0  0  0  0  0  0  0  0  0  0  0
   -0.0250    0.4583    0.0000 C   0  0  0  0  0  0  0  0  0  0  0  0
    1.1917    0.4583    0.0000 C   0  0  0  0  0  0  0  0  0  0  0  0
   -0.6458   -0.6000    0.0000 C   0  0  0  0  0  0  0  0  0  0  0  0
   -0.6458    0.1083    0.0000 C   0  0  0  0  0  0  0  0  0  0  0  0
    1.8042    0.1083    0.0000 N   0  0  0  0  0  0  0  0  0  0  0  0
   -0.3833   -1.5667    0.0000 O   0  0  0  0  0  0  0  0  0  0  0  0
    0.3250   -1.5667    0.0000 O   0  0  0  0  0  0  0  0  0  0  0  0
    2.4250    0.4583    0.0000 C   0  0  0  0  0  0  0  0  0  0  0  0
    1.2000    1.1708    0.0000 O   0  0  0  0  0  0  0  0  0  0  0  0
    3.0417    0.1000    0.0000 N   0  0  0  0  0  0  0  0  0  0  0  0
   -0.0250    1.1708    0.0000 O   0  0  0  0  0  0  0  0  0  0  0  0
    1.1917   -0.9542    0.0000 C   0  0  0  0  0  0  0  0  0  0  0  0
   -1.2625    0.4583    0.0000 C   0  0  0  0  0  0  0  0  0  0  0  0
   -1.2625   -0.9542    0.0000 C   0  0  0  0  0  0  0  0  0  0  0  0
    3.6625    0.4583    0.0000 C   0  0  0  0  0  0  0  0  0  0  0  0
    2.4292    1.1750    0.0000 C   0  0  0  0  0  0  0  0  0  0  0  0
   -1.8833    0.1083    0.0000 C   0  0  0  0  0  0  0  0  0  0  0  0
   -1.8833   -0.6000    0.0000 C   0  0  0  0  0  0  0  0  0  0  0  0
    3.6625    1.1708    0.0000 C   0  0  0  0  0  0  0  0  0  0  0  0
    3.0417    1.5333    0.0000 C   0  0  0  0  0  0  0  0  0  0  0  0
  2  1  1  0
  3  2  1  0
  4  3  2  0
  5  3  1  0
  6  1  1  0
  7  6  2  0
  8  5  1  0
  9  1  2  0
 10  1  2  0
 11  8  1  0
 12  5  2  0
 13 11  2  0
 14  4  1  0
 15  2  1  0
 16  7  1  0
 17  6  1  0
 18 13  1  0
 19 11  1  0
 20 21  1  0
 21 17  2  0
 22 23  1  0
 23 19  2  0
  7  4  1  0
 20 16  2  0
 22 18  2  0
M  END
> <chembl_id>
CHEMBL527

> <chembl_pref_name>
PIROXICAM
