
     RDKit          2D

 13 12  0  0  0  0  0  0  0  0999 V2000
    3.1792   -8.2792    0.0000 Cl  0  0  0  0  0  0  0  0  0  0  0  0
    4.5667   -7.1792    0.0000 C   0  0  0  0  0  0  0  0  0  0  0  0
    5.1792   -7.5375    0.0000 C   0  0  0  0  0  0  0  0  0  0  0  0
    3.9542   -7.5417    0.0000 C   0  0  0  0  0  0  0  0  0  0  0  0
    3.3375   -7.1792    0.0000 N   0  0  0  0  0  0  0  0  0  0  0  0
    4.5667   -6.4792    0.0000 O   0  0  0  0  0  0  0  0  0  0  0  0
    5.7917   -7.1875    0.0000 C   0  0  0  0  0  0  0  0  0  0  0  0
    5.1792   -8.2417    0.0000 C   0  0  0  0  0  0  0  0  0  0  0  0
    2.7250   -7.5417    0.0000 C   0  0  0  0  0  0  0  0  0  0  0  0
    3.9542   -8.2542    0.0000 C   0  0  0  0  0  0  0  0  0  0  0  0
    6.4125   -7.5292    0.0000 C   0  0  0  0  0  0  0  0  0  0  0  0
    5.8000   -8.6042    0.0000 C   0  0  0  0  0  0  0  0  0  0  0  0
    6.4125   -8.2500    0.0000 C   0  0  0  0  0  0  0  0  0  0  0  0
  3  2  1  0
  4  2  1  0
  5  4  1  0
  2  6  1  1
  7  3  1  0
  8  3  2  0
  9  5  1  0
  4 10  1  6
 11  7  2  0
 12  8  1  0
 13 11  1  0
 13 12  2  0
M  END
> <chembl_id>
CHEMBL1200724

> <chembl_pref_name>
PSEUDOEPHEDRINE HYDROCHLORIDE
