
     RDKit          2D

 32 34  0  0  1  0  0  0  0  0999 V2000
    0.7750   -5.7042    0.0000 N   0  0  0  0  0  0  0  0  0  0  0  0
    1.9958   -5.7042    0.0000 C   0  0  0  0  0  0  0  0  0  0  0  0
    1.3833   -4.6417    0.0000 N   0  0  0  0  0  0  0  0  0  0  0  0
    1.3833   -6.0625    0.0000 C   0  0  0  0  0  0  0  0  0  0  0  0
    1.9958   -5.0000    0.0000 C   0  0  0  0  0  0  0  0  0  0  0  0
    0.7750   -5.0000    0.0000 C   0  0  0  0  0  0  0  0  0  0  0  0
    2.6042   -6.0583    0.0000 N   0  0  0  0  0  0  0  0  0  0  0  0
    6.8958   -7.1167    0.0000 C   0  0  0  0  0  0  0  0  0  0  0  0
    2.6042   -4.6458    0.0000 N   0  0  0  0  0  0  0  0  0  0  0  0
    7.5083   -6.7625    0.0000 N   0  0  0  0  0  0  0  0  0  0  0  0
    8.7375   -6.7583    0.0000 C   0  0  0  0  0  0  0  0  0  0  0  0
    8.1250   -7.1125    0.0000 C   0  0  0  0  0  0  0  0  0  0  0  0
    6.2833   -6.7625    0.0000 C   0  0  0  0  0  0  0  0  0  0  0  0
    3.2167   -5.7042    0.0000 C   0  0  0  0  0  0  0  0  0  0  0  0
    1.3875   -6.7667    0.0000 O   0  0  0  0  0  0  0  0  0  0  0  0
    8.7417   -8.8833    0.0000 C   0  0  0  0  0  0  0  0  0  0  0  0
    6.8958   -7.8250    0.0000 O   0  0  0  0  0  0  0  0  0  0  0  0
    8.7333   -6.0500    0.0000 O   0  0  0  0  0  0  0  0  0  0  0  0
    0.1583   -4.6458    0.0000 N   0  0  0  0  0  0  0  0  0  0  0  0
    4.4458   -5.7042    0.0000 N   0  0  0  0  0  0  0  0  0  0  0  0
    8.1292   -9.2375    0.0000 O   0  0  0  0  0  0  0  0  0  0  0  0
    3.2167   -4.9958    0.0000 C   0  0  0  0  0  0  0  0  0  0  0  0
    8.1250   -7.8208    0.0000 C   0  0  0  0  0  0  0  0  0  0  0  0
    6.2792   -6.0542    0.0000 C   0  0  0  0  0  0  0  0  0  0  0  0
    5.6667   -7.1208    0.0000 C   0  0  0  0  0  0  0  0  0  0  0  0
    3.8333   -6.0583    0.0000 C   0  0  0  0  0  0  0  0  0  0  0  0
    5.0583   -6.0583    0.0000 C   0  0  0  0  0  0  0  0  0  0  0  0
    8.7375   -8.1750    0.0000 C   0  0  0  0  0  0  0  0  0  0  0  0
    9.3500   -7.1125    0.0000 O   0  0  0  0  0  0  0  0  0  0  0  0
    9.3542   -9.2375    0.0000 O   0  0  0  0  0  0  0  0  0  0  0  0
    5.0542   -6.7667    0.0000 C   0  0  0  0  0  0  0  0  0  0  0  0
    5.6667   -5.7000    0.0000 C   0  0  0  0  0  0  0  0  0  0  0  0
  2  4  1  0
  3  6  1  0
  4  1  1  0
  5  3  1  0
  6  1  2  0
  7  2  1  0
  8 13  1  0
  9  5  1  0
 10  8  1  0
 11 12  1  0
 12 10  1  0
 13 24  1  0
 14  7  2  0
 15  4  2  0
 16 28  1  0
 17  8  2  0
 18 11  2  0
 19  6  1  0
 20 26  1  0
 21 16  2  0
 22  9  2  0
 12 23  1  6
 24 32  2  0
 25 31  1  0
 26 14  1  0
 27 20  1  0
 28 23  1  0
 29 11  1  0
 30 16  1  0
 31 27  2  0
 32 27  1  0
  2  5  2  0
 22 14  1  0
 13 25  2  0
M  END
> <chembl_id>
CHEMBL1622

> <chembl_pref_name>
FOLIC ACID
