
     RDKit          2D

 26 29  0  0  0  0  0  0  0  0999 V2000
    0.3167    0.4625    0.0000 C   0  0  0  0  0  0  0  0  0  0  0  0
    0.1042    1.5458    0.0000 N   0  0  0  0  0  0  0  0  0  0  0  0
   -0.3375   -0.4000    0.0000 C   0  0  0  0  0  0  0  0  0  0  0  0
    0.8875    2.2833    0.0000 C   0  0  0  0  0  0  0  0  0  0  0  0
   -2.1583    0.4625    0.0000 N   0  0  0  0  0  0  0  0  0  0  0  0
   -1.4625   -0.4000    0.0000 C   0  0  0  0  0  0  0  0  0  0  0  0
   -1.9250    1.5333    0.0000 C   0  0  0  0  0  0  0  0  0  0  0  0
    1.9417    1.9833    0.0000 C   0  0  0  0  0  0  0  0  0  0  0  0
   -0.9375    2.0333    0.0000 C   0  0  0  0  0  0  0  0  0  0  0  0
    1.3875    0.1333    0.0000 O   0  0  0  0  0  0  0  0  0  0  0  0
    2.1792    0.8958    0.0000 C   0  0  0  0  0  0  0  0  0  0  0  0
    0.1917   -1.3542    0.0000 C   0  0  0  0  0  0  0  0  0  0  0  0
    1.2167   -1.1375    0.0000 C   0  0  0  0  0  0  0  0  0  0  0  0
   -2.0083   -1.3792    0.0000 C   0  0  0  0  0  0  0  0  0  0  0  0
    0.6500    3.4208    0.0000 O   0  0  0  0  0  0  0  0  0  0  0  0
   -2.8125    2.2333    0.0000 O   0  0  0  0  0  0  0  0  0  0  0  0
   -0.3583   -2.3167    0.0000 C   0  0  0  0  0  0  0  0  0  0  0  0
   -1.4375   -2.3292    0.0000 C   0  0  0  0  0  0  0  0  0  0  0  0
   -3.2833    0.2000    0.0000 C   0  0  0  0  0  0  0  0  0  0  0  0
    0.1792   -3.3042    0.0000 Cl  0  0  0  0  0  0  0  0  0  0  0  0
    3.2750    0.6083    0.0000 C   0  0  0  0  0  0  0  0  0  0  0  0
    0.8875   -2.2167    0.0000 C   0  0  0  0  0  0  0  0  0  0  0  0
    2.3542   -0.9000    0.0000 C   0  0  0  0  0  0  0  0  0  0  0  0
    3.1500   -1.7625    0.0000 C   0  0  0  0  0  0  0  0  0  0  0  0
    1.6500   -3.1042    0.0000 C   0  0  0  0  0  0  0  0  0  0  0  0
    2.8000   -2.8292    0.0000 C   0  0  0  0  0  0  0  0  0  0  0  0
  2  1  1  0
  3  1  1  0
  4  2  1  0
  5  6  1  0
  6  3  2  0
  7  9  1  0
  8 11  2  0
  9  2  1  0
 10  1  1  0
 11 10  1  0
 12  3  1  0
 13  1  1  0
 14  6  1  0
 15  4  2  0
 16  7  2  0
 17 12  2  0
 18 17  1  0
 19  5  1  0
 20 17  1  0
 21 11  1  0
 22 13  1  0
 23 13  2  0
 24 23  1  0
 25 22  2  0
 26 24  2  0
  4  8  1  0
  5  7  1  0
 25 26  1  0
 14 18  2  0
M  END
> <chembl_id>
CHEMBL2104356

> <chembl_pref_name>
KETAZOLAM
