
     RDKit          2D

 14 12  0  0  0  0  0  0  0  0999 V2000
   -4.1958    1.5125    0.0000 K   0  0  0  0  0 15  0  0  0  0  0  0
   -1.0708    0.2375    0.0000 C   0  0  0  0  0  0  0  0  0  0  0  0
    0.0000   -0.3792    0.0000 C   0  0  0  0  0  0  0  0  0  0  0  0
    1.0625    0.2458    0.0000 C   0  0  0  0  0  0  0  0  0  0  0  0
   -2.1333   -0.3792    0.0000 C   0  0  0  0  0  0  0  0  0  0  0  0
    2.1250   -0.3667    0.0000 C   0  0  0  0  0  0  0  0  0  0  0  0
   -3.2000    0.2375    0.0000 O   0  0  0  0  0  0  0  0  0  0  0  0
   -2.1333   -1.6125    0.0000 O   0  0  0  0  0  0  0  0  0  0  0  0
   -1.6958    1.3000    0.0000 O   0  0  0  0  0  0  0  0  0  0  0  0
   -0.6208   -1.4375    0.0000 O   0  0  0  0  0  0  0  0  0  0  0  0
    0.7375    1.4375    0.0000 O   0  0  0  0  0  0  0  0  0  0  0  0
    2.7375   -1.4292    0.0000 O   0  0  0  0  0  0  0  0  0  0  0  0
    4.2542   -0.3625    0.0000 O   0  0  0  0  0  0  0  0  0  0  0  0
    3.1792    0.2500    0.0000 C   0  0  0  0  0  0  0  0  0  0  0  0
  3  2  1  0
  4  3  1  0
  5  2  1  0
  6  4  1  0
  7  5  1  0
  8  5  2  0
  2  9  1  6
  3 10  1  6
  4 11  1  6
  6 12  1  1
 13 14  1  0
 14  6  1  0
M  CHG  2   1   1   7  -1
M  END
> <chembl_id>
CHEMBL2106978

> <chembl_pref_name>
POTASSIUM GLUCONATE
