
     RDKit          2D

 30 31  0  0  0  0  0  0  0  0999 V2000
    4.1518   -2.6786    0.0000 Cl  0  0  0  0  0  0  0  0  0  0  0  0
   -2.1432    0.4125    0.0000 C   0  0  0  0  0  0  0  0  0  0  0  0
   -2.1432   -0.4125    0.0000 C   0  0  0  0  0  0  0  0  0  0  0  0
   -1.4287   -0.8251    0.0000 C   0  0  0  0  0  0  0  0  0  0  0  0
   -1.4287    0.8251    0.0000 C   0  0  0  0  0  0  0  0  0  0  0  0
   -0.7144    0.4125    0.0000 C   0  0  0  0  0  0  0  0  0  0  0  0
   -0.7144   -0.4125    0.0000 C   0  0  0  0  0  0  0  0  0  0  0  0
    0.0000   -0.8251    0.0000 N   0  0  0  0  0  0  0  0  0  0  0  0
    0.0000    0.8251    0.0000 S   0  0  0  0  0  0  0  0  0  0  0  0
    0.7043    0.4125    0.0000 C   0  0  0  0  0  0  0  0  0  0  0  0
    0.7043   -0.4125    0.0000 C   0  0  0  0  0  0  0  0  0  0  0  0
    1.4287   -0.8251    0.0000 C   0  0  0  0  0  0  0  0  0  0  0  0
    2.1432   -0.4125    0.0000 C   0  0  0  0  0  0  0  0  0  0  0  0
    2.1432    0.4125    0.0000 C   0  0  0  0  0  0  0  0  0  0  0  0
    1.4287    0.8251    0.0000 C   0  0  0  0  0  0  0  0  0  0  0  0
    2.8580   -0.8252    0.0000 C   0  0  0  0  0  0  0  0  0  0  0  0
    2.8584   -1.4852    0.0000 F   0  0  0  0  0  0  0  0  0  0  0  0
    3.4295   -0.4951    0.0000 F   0  0  0  0  0  0  0  0  0  0  0  0
    3.4297   -1.1550    0.0000 F   0  0  0  0  0  0  0  0  0  0  0  0
    0.0066   -1.6504    0.0000 C   0  0  0  0  0  0  0  0  0  0  0  0
    0.7245   -2.0579    0.0000 C   0  0  0  0  0  0  0  0  0  0  0  0
    0.7311   -2.8833    0.0000 C   0  0  0  0  0  0  0  0  0  0  0  0
    1.4490   -3.2907    0.0000 N   0  0  0  0  0  0  0  0  0  0  0  0
    1.4568   -4.1156    0.0000 C   0  0  0  0  0  0  0  0  0  0  0  0
    2.1751   -4.5213    0.0000 C   0  0  0  0  0  0  0  0  0  0  0  0
    2.8856   -4.1021    0.0000 N   0  0  0  0  0  0  0  0  0  0  0  0
    2.8779   -3.2772    0.0000 C   0  0  0  0  0  0  0  0  0  0  0  0
    2.1596   -2.8715    0.0000 C   0  0  0  0  0  0  0  0  0  0  0  0
    3.4603   -4.4267    0.0000 C   0  0  0  0  0  0  0  0  0  0  0  0
    4.9793   -1.8482    0.0000 Cl  0  0  0  0  0  0  0  0  0  0  0  0
  2  3  2  0
  3  4  1  0
  2  5  1  0
  5  6  2  0
  4  7  2  0
  6  7  1  0
  7  8  1  0
  6  9  1  0
  9 10  1  0
  8 11  1  0
 10 11  2  0
 11 12  1  0
 12 13  2  0
 13 14  1  0
 10 15  1  0
 14 15  2  0
 13 16  1  0
 16 17  1  0
 16 18  1  0
 16 19  1  0
  8 20  1  0
 20 21  1  0
 21 22  1  0
 22 23  1  0
 23 24  1  0
 24 25  1  0
 25 26  1  0
 26 27  1  0
 23 28  1  0
 27 28  1  0
 26 29  1  0
M  END
> <chembl_id>
CHEMBL1257040

> <chembl_pref_name>
TRIFLUOPERAZINE HYDROCHLORIDE
