
     RDKit          2D

 37 40  0  0  0  0  0  0  0  0999 V2000
   -6.7664    1.3590    0.0000 N   0  0  0  0  0  0  0  0  0  0  0  0
   -7.5914    1.3590    0.0000 C   0  0  0  0  0  0  0  0  0  0  0  0
   -7.5914    0.5340    0.0000 C   0  0  0  0  0  0  0  0  0  0  0  0
   -6.7664    0.5340    0.0000 C   0  0  0  0  0  0  0  0  0  0  0  0
   -5.9818    0.2791    0.0000 S   0  0  0  0  0  0  0  0  0  0  0  0
   -5.4969    0.9465    0.0000 C   0  0  0  0  0  0  0  0  0  0  0  0
   -5.9817    1.6139    0.0000 C   0  0  0  0  0  0  0  0  0  0  0  0
   -8.1747    1.9424    0.0000 O   0  0  0  0  0  0  0  0  0  0  0  0
   -6.7664   -0.2910    0.0000 H   0  0  0  0  0  0  0  0  0  0  0  0
   -5.7268    2.3985    0.0000 C   0  0  0  0  0  0  0  0  0  0  0  0
   -6.2788    3.0116    0.0000 O   0  0  0  0  0  0  0  0  0  0  0  0
   -4.9198    2.5700    0.0000 O   0  0  0  0  0  0  0  0  0  0  0  0
   -8.4164    0.5340    0.0000 N   0  0  0  0  0  0  0  0  0  0  0  0
   -4.9135    1.5299    0.0000 C   0  0  0  0  0  0  0  0  0  0  0  0
   -4.7824    0.5340    0.0000 C   0  0  0  0  0  0  0  0  0  0  0  0
   -9.1308    0.9465    0.0000 C   0  0  0  0  0  0  0  0  0  0  0  0
   -9.8453    0.5340    0.0000 C   0  0  0  0  0  0  0  0  0  0  0  0
   -9.1308    1.7715    0.0000 O   0  0  0  0  0  0  0  0  0  0  0  0
  -10.5598    0.9465    0.0000 N   0  0  0  0  0  0  0  0  0  0  0  0
  -11.2742    0.5340    0.0000 C   0  0  0  0  0  0  0  0  0  0  0  0
   -9.8453   -0.2910    0.0000 C   0  0  0  0  0  0  0  0  0  0  0  0
  -11.9887    0.9465    0.0000 N   0  0  0  0  0  0  0  0  0  0  0  0
  -11.2742   -0.2910    0.0000 O   0  0  0  0  0  0  0  0  0  0  0  0
  -12.2844    1.7167    0.0000 C   0  0  0  0  0  0  0  0  0  0  0  0
  -13.1082    1.6735    0.0000 C   0  0  0  0  0  0  0  0  0  0  0  0
  -13.3217    0.8766    0.0000 N   0  0  0  0  0  0  0  0  0  0  0  0
  -12.6299    0.4273    0.0000 C   0  0  0  0  0  0  0  0  0  0  0  0
  -14.0919    0.5810    0.0000 S   0  0  0  0  0  0  0  0  0  0  0  0
  -14.2210   -0.2339    0.0000 O   0  0  0  0  0  0  0  0  0  0  0  0
  -14.5044    1.2954    0.0000 C   0  0  0  0  0  0  0  0  0  0  0  0
  -13.5086   -0.0024    0.0000 O   0  0  0  0  0  0  0  0  0  0  0  0
  -10.5598   -0.7035    0.0000 C   0  0  0  0  0  0  0  0  0  0  0  0
  -10.5598   -1.5285    0.0000 C   0  0  0  0  0  0  0  0  0  0  0  0
   -9.8453   -1.9410    0.0000 C   0  0  0  0  0  0  0  0  0  0  0  0
   -9.1308   -1.5285    0.0000 C   0  0  0  0  0  0  0  0  0  0  0  0
   -9.1308   -0.7035    0.0000 C   0  0  0  0  0  0  0  0  0  0  0  0
  -12.5867   -0.3965    0.0000 O   0  0  0  0  0  0  0  0  0  0  0  0
  1  2  1  0
  2  3  1  0
  3  4  1  0
  4  5  1  0
  1  4  1  0
  1  7  1  0
  5  6  1  0
  6  7  1  0
  2  8  2  0
  4  9  1  1
  7 10  1  1
 10 11  1  0
 10 12  2  0
  3 13  1  6
  6 14  1  0
  6 15  1  0
 13 16  1  0
 16 17  1  0
 16 18  2  0
 17 19  1  0
 19 20  1  0
 17 21  1  1
 20 22  1  0
 20 23  2  0
 22 24  1  0
 22 27  1  0
 24 25  1  0
 25 26  1  0
 26 27  1  0
 26 28  1  0
 28 29  2  0
 28 30  1  0
 28 31  2  0
 21 32  1  0
 21 36  2  0
 32 33  2  0
 33 34  1  0
 34 35  2  0
 35 36  1  0
 27 37  2  0
M  END
> <chembl_id>
CHEMBL1731

> <chembl_pref_name>
MEZLOCILLIN
