
     RDKit          2D

 22 24  0  0  0  0  0  0  0  0999 V2000
   -0.0250    0.1750    0.0000 N   0  0  0  0  0  0  0  0  0  0  0  0
   -0.8875    0.6875    0.0000 N   0  0  0  0  0  0  0  0  0  0  0  0
   -0.0250   -0.8042    0.0000 C   0  0  0  0  0  0  0  0  0  0  0  0
   -1.7625    0.2125    0.0000 C   0  0  0  0  0  0  0  0  0  0  0  0
   -0.9208   -1.2917    0.0000 C   0  0  0  0  0  0  0  0  0  0  0  0
   -1.7625   -0.8000    0.0000 C   0  0  0  0  0  0  0  0  0  0  0  0
    2.5375    0.6208    0.0000 N   0  0  0  0  0  0  0  0  0  0  0  0
   -2.6000    0.7083    0.0000 C   0  0  0  0  0  0  0  0  0  0  0  0
    0.8167   -1.3167    0.0000 N   0  0  0  0  0  0  0  0  0  0  0  0
    4.2375    1.5208    0.0000 O   0  0  0  0  0  0  0  0  0  0  0  0
    1.6667   -0.8417    0.0000 C   0  0  0  0  0  0  0  0  0  0  0  0
    1.6542    0.1333    0.0000 C   0  0  0  0  0  0  0  0  0  0  0  0
    2.5292    1.6458    0.0000 C   0  0  0  0  0  0  0  0  0  0  0  0
    3.3750    0.1333    0.0000 C   0  0  0  0  0  0  0  0  0  0  0  0
   -0.9208   -2.2167    0.0000 C   0  0  0  0  0  0  0  0  0  0  0  0
    3.3917    2.0708    0.0000 C   0  0  0  0  0  0  0  0  0  0  0  0
    4.2417    0.5708    0.0000 C   0  0  0  0  0  0  0  0  0  0  0  0
   -2.6000    1.7083    0.0000 C   0  0  0  0  0  0  0  0  0  0  0  0
   -3.4833    0.2333    0.0000 C   0  0  0  0  0  0  0  0  0  0  0  0
   -3.4625    2.2208    0.0000 C   0  0  0  0  0  0  0  0  0  0  0  0
   -4.3458    0.7458    0.0000 C   0  0  0  0  0  0  0  0  0  0  0  0
   -4.3458    1.7458    0.0000 C   0  0  0  0  0  0  0  0  0  0  0  0
  2  1  2  0
  3  1  1  0
  4  2  1  0
  5  3  2  0
  6  5  1  0
  7 12  1  0
  8  4  1  0
  9  3  1  0
 10 17  1  0
 11  9  1  0
 12 11  1  0
 13  7  1  0
 14  7  1  0
 15  5  1  0
 16 13  1  0
 17 14  1  0
 18  8  2  0
 19  8  1  0
 20 18  1  0
 21 19  2  0
 22 21  1  0
  4  6  2  0
 20 22  2  0
 16 10  1  0
M  END
> <chembl_id>
CHEMBL278819

> <chembl_pref_name>
MINAPRINE
