
     RDKit          2D

 39 38  0  0  0  0  0  0  0  0999 V2000
    4.2917   -9.0292    0.0000 O   0  0  0  0  0  0  0  0  0  0  0  0
    3.0792   -7.5583    0.0000 C   0  0  0  0  0  0  0  0  0  0  0  0
    1.8542   -7.5667    0.0000 C   0  0  0  0  0  0  0  0  0  0  0  0
    2.4667   -7.2083    0.0000 C   0  0  0  0  0  0  0  0  0  0  0  0
    1.2417   -7.2167    0.0000 C   0  0  0  0  0  0  0  0  0  0  0  0
    3.6917   -7.2000    0.0000 O   0  0  0  0  0  0  0  0  0  0  0  0
    3.0875   -8.2667    0.0000 O   0  0  0  0  0  0  0  0  0  0  0  0
    0.6333   -7.5750    0.0000 C   0  0  0  0  0  0  0  0  0  0  0  0
    0.0208   -7.2208    0.0000 O   0  0  0  0  0  0  0  0  0  0  0  0
   -0.5917   -7.5792    0.0000 C   0  0  0  0  0  0  0  0  0  0  0  0
    1.8583   -8.2792    0.0000 C   0  0  0  0  0  0  0  0  0  0  0  0
    1.2458   -8.6333    0.0000 C   0  0  0  0  0  0  0  0  0  0  0  0
    0.6333   -8.2833    0.0000 C   0  0  0  0  0  0  0  0  0  0  0  0
    2.4583   -6.5000    0.0000 C   0  0  0  0  0  0  0  0  0  0  0  0
   -0.5917   -8.2917    0.0000 C   0  0  0  0  0  0  0  0  0  0  0  0
   -1.2042   -7.2250    0.0000 C   0  0  0  0  0  0  0  0  0  0  0  0
   -1.8167   -7.5792    0.0000 C   0  0  0  0  0  0  0  0  0  0  0  0
   -1.2042   -8.6458    0.0000 C   0  0  0  0  0  0  0  0  0  0  0  0
   -1.8167   -8.2917    0.0000 C   0  0  0  0  0  0  0  0  0  0  0  0
    6.6208   -7.5583    0.0000 C   0  0  0  0  0  0  0  0  0  0  0  0
    7.8458   -7.5667    0.0000 C   0  0  0  0  0  0  0  0  0  0  0  0
    7.2333   -7.2083    0.0000 C   0  0  0  0  0  0  0  0  0  0  0  0
    8.4625   -7.2167    0.0000 C   0  0  0  0  0  0  0  0  0  0  0  0
    6.0083   -7.2000    0.0000 O   0  0  0  0  0  0  0  0  0  0  0  0
    6.6125   -8.2667    0.0000 O   0  0  0  0  0  0  0  0  0  0  0  0
    9.0667   -7.5750    0.0000 C   0  0  0  0  0  0  0  0  0  0  0  0
    9.6792   -7.2208    0.0000 O   0  0  0  0  0  0  0  0  0  0  0  0
   10.2917   -7.5792    0.0000 C   0  0  0  0  0  0  0  0  0  0  0  0
    7.8417   -8.2792    0.0000 C   0  0  0  0  0  0  0  0  0  0  0  0
    8.4542   -8.6333    0.0000 C   0  0  0  0  0  0  0  0  0  0  0  0
    9.0667   -8.2833    0.0000 C   0  0  0  0  0  0  0  0  0  0  0  0
    7.2417   -6.5000    0.0000 C   0  0  0  0  0  0  0  0  0  0  0  0
   10.2917   -8.2917    0.0000 C   0  0  0  0  0  0  0  0  0  0  0  0
   10.9042   -7.2250    0.0000 C   0  0  0  0  0  0  0  0  0  0  0  0
   10.9042   -8.6458    0.0000 C   0  0  0  0  0  0  0  0  0  0  0  0
   11.5167   -7.5792    0.0000 C   0  0  0  0  0  0  0  0  0  0  0  0
   11.5167   -8.2917    0.0000 C   0  0  0  0  0  0  0  0  0  0  0  0
    4.6000   -7.2667    0.0000 Ca  0  0  0  0  0 15  0  0  0  0  0  0
    5.5792   -9.0292    0.0000 O   0  0  0  0  0  0  0  0  0  0  0  0
  3  4  1  0
  4  2  1  0
  5  3  2  0
  6  2  1  0
  7  2  2  0
  8  5  1  0
  9  8  1  0
 10  9  1  0
 11  3  1  0
 12 11  2  0
 13  8  2  0
 14  4  1  0
 15 10  1  0
 16 10  2  0
 17 16  1  0
 18 15  2  0
 19 17  2  0
 12 13  1  0
 18 19  1  0
 21 22  1  0
 22 20  1  0
 23 21  2  0
 24 20  1  0
 25 20  2  0
 26 23  1  0
 27 26  1  0
 28 27  1  0
 29 21  1  0
 30 29  2  0
 31 26  2  0
 32 22  1  0
 33 28  1  0
 34 28  2  0
 35 33  2  0
 36 34  1  0
 37 36  2  0
 30 31  1  0
 35 37  1  0
M  CHG  3   6  -1  24  -1  38   2
M  END
> <chembl_id>
CHEMBL2103736

> <chembl_pref_name>
FENOPROFEN CALCIUM
