
     RDKit          2D

 19 19  0  0  0  0  0  0  0  0999 V2000
   -3.3208   -1.7000    0.0000 C   0  0  0  0  0  0  0  0  0  0  0  0
   -2.4583   -2.1750    0.0000 N   0  0  0  0  0  0  0  0  0  0  0  0
   -4.1583   -2.1875    0.0000 O   0  0  0  0  0  0  0  0  0  0  0  0
    2.6542   -0.1750    0.0000 N   0  0  0  0  0  0  0  0  0  0  0  0
   -1.6000   -1.6625    0.0000 C   0  0  0  0  0  0  0  0  0  0  0  0
    0.9667   -0.1750    0.0000 O   0  0  0  0  0  0  0  0  0  0  0  0
    1.8000    1.2958    0.0000 C   0  0  0  0  0  0  0  0  0  0  0  0
    0.1000   -0.6792    0.0000 C   0  0  0  0  0  0  0  0  0  0  0  0
    2.6542    0.8083    0.0000 C   0  0  0  0  0  0  0  0  0  0  0  0
    0.9667    0.8083    0.0000 C   0  0  0  0  0  0  0  0  0  0  0  0
   -0.7500   -2.1542    0.0000 C   0  0  0  0  0  0  0  0  0  0  0  0
   -1.6000   -0.6792    0.0000 C   0  0  0  0  0  0  0  0  0  0  0  0
   -0.7500   -0.1917    0.0000 C   0  0  0  0  0  0  0  0  0  0  0  0
    0.1000   -1.6625    0.0000 C   0  0  0  0  0  0  0  0  0  0  0  0
    1.8000    2.2833    0.0000 O   0  0  0  0  0  0  0  0  0  0  0  0
    3.4917   -0.6667    0.0000 C   0  0  0  0  0  0  0  0  0  0  0  0
   -3.3208   -0.7000    0.0000 C   0  0  0  0  0  0  0  0  0  0  0  0
    4.3417   -0.1750    0.0000 C   0  0  0  0  0  0  0  0  0  0  0  0
    3.4917   -1.6625    0.0000 C   0  0  0  0  0  0  0  0  0  0  0  0
  2  1  1  0
  3  1  2  0
  4  9  1  0
  5  2  1  0
  6  8  1  0
  7 10  1  0
  8 13  2  0
  9  7  1  0
 10  6  1  0
 11  5  1  0
 12  5  2  0
 13 12  1  0
 14 11  2  0
 15  7  1  0
 16  4  1  0
 17  1  1  0
 18 16  1  0
 19 16  1  0
  8 14  1  0
M  END
> <chembl_id>
CHEMBL6995

> <chembl_pref_name>
PRACTOLOL
