
     RDKit          2D

 40 40  0  0  0  0  0  0  0  0999 V2000
   -4.0714   -1.9870    0.0000 O   0  0  0  0  0  0  0  0  0  0  0  0
   -4.1883    1.9549    0.0000 C   0  0  0  0  0  0  0  0  0  0  0  0
   -4.9028    1.5424    0.0000 N   0  0  0  0  0  0  0  0  0  0  0  0
   -4.9028    0.7174    0.0000 C   0  0  0  0  0  0  0  0  0  0  0  0
   -3.4738    1.5424    0.0000 C   0  0  0  0  0  0  0  0  0  0  0  0
   -2.0449    0.7173    0.0000 C   0  0  0  0  0  0  0  0  0  0  0  0
   -2.0449    1.5423    0.0000 C   0  0  0  0  0  0  0  0  0  0  0  0
   -2.7594    1.9548    0.0000 O   0  0  0  0  0  0  0  0  0  0  0  0
   -1.3304    1.9548    0.0000 C   0  0  0  0  0  0  0  0  0  0  0  0
   -1.3304    0.3048    0.0000 C   0  0  0  0  0  0  0  0  0  0  0  0
   -0.6160    0.7173    0.0000 C   0  0  0  0  0  0  0  0  0  0  0  0
   -0.6160    1.5423    0.0000 C   0  0  0  0  0  0  0  0  0  0  0  0
   -0.6160   -0.9327    0.0000 N   0  0  0  0  0  0  0  0  0  0  0  0
    0.0985   -0.5202    0.0000 C   0  0  0  0  0  0  0  0  0  0  0  0
    0.0985    0.3048    0.0000 N   0  0  0  0  0  0  0  0  0  0  0  0
   -0.6160   -1.7577    0.0000 C   0  0  0  0  0  0  0  0  0  0  0  0
    0.0985   -2.1703    0.0000 C   0  0  0  0  0  0  0  0  0  0  0  0
    0.8129   -1.7577    0.0000 C   0  0  0  0  0  0  0  0  0  0  0  0
    0.8129   -0.9327    0.0000 N   0  0  0  0  0  0  0  0  0  0  0  0
    1.5274   -2.1703    0.0000 N   0  0  0  0  0  0  0  0  0  0  0  0
    2.2418   -1.7577    0.0000 C   0  0  0  0  0  0  0  0  0  0  0  0
    2.2418   -0.9327    0.0000 C   0  0  0  0  0  0  0  0  0  0  0  0
    2.9564   -0.5202    0.0000 C   0  0  0  0  0  0  0  0  0  0  0  0
    2.9564   -2.1703    0.0000 C   0  0  0  0  0  0  0  0  0  0  0  0
    3.6708   -1.7577    0.0000 C   0  0  0  0  0  0  0  0  0  0  0  0
    3.6708   -0.9327    0.0000 C   0  0  0  0  0  0  0  0  0  0  0  0
    4.3853   -2.1703    0.0000 S   0  0  0  0  0  0  0  0  0  0  0  0
    5.1485   -1.9038    0.0000 N   0  0  0  0  0  0  0  0  0  0  0  0
    5.8371   -2.1961    0.0000 C   0  0  0  0  0  0  0  0  0  0  0  0
    5.8566   -2.8906    0.0000 C   0  0  0  0  0  0  0  0  0  0  0  0
   -5.6874    0.4624    0.0000 C   0  0  0  0  0  0  0  0  0  0  0  0
   -6.1723    1.1298    0.0000 C   0  0  0  0  0  0  0  0  0  0  0  0
   -5.6874    1.7973    0.0000 C   0  0  0  0  0  0  0  0  0  0  0  0
    0.1417   -2.9941    0.0000 C   0  0  0  0  0  0  0  0  0  0  0  0
    4.0507   -2.8458    0.0000 O   0  0  0  0  0  0  0  0  0  0  0  0
    4.7686   -2.8555    0.0000 O   0  0  0  0  0  0  0  0  0  0  0  0
    6.6037   -1.7675    0.0000 C   0  0  0  0  0  0  0  0  0  0  0  0
    6.6553   -2.2029    0.0000 C   0  0  0  0  0  0  0  0  0  0  0  0
   -4.1883   -0.7987    0.0000 Cl  0  0  0  0  0  0  0  0  0  0  0  0
   -4.1688   -1.3831    0.0000 Cl  0  0  0  0  0  0  0  0  0  0  0  0
  2  3  1  0
  3  4  1  0
  2  5  1  0
  6  7  2  0
  7  8  1  0
  5  8  1  0
 10 11  2  0
 11 12  1  0
  9 12  2  0
  9  7  1  0
  6 10  1  0
 13 14  2  0
 14 15  1  0
 11 15  1  0
 16 17  2  0
 17 18  1  0
 18 19  2  0
 13 16  1  0
 14 19  1  0
 20 21  1  0
 21 22  2  0
 18 20  1  0
 24 25  2  0
 25 26  1  0
 23 26  2  0
 21 24  1  0
 23 22  1  0
 27 28  1  0
 25 27  1  0
 29 30  1  0
 28 29  1  0
  4 31  1  0
 31 32  1  0
 32 33  1  0
 33  3  1  0
 17 34  1  0
 27 35  2  0
 27 36  2  0
 29 37  1  0
 29 38  1  0
M  END
> <chembl_id>
CHEMBL4297216

> <chembl_pref_name>
FEDRATINIB HYDROCHLORIDE
