
     RDKit          2D

 33 34  0  0  0  0  0  0  0  0999 V2000
    3.2125   -6.7500    0.0000 O   0  0  0  0  0  0  0  0  0  0  0  0
    5.3375   -5.5792    0.0000 N   0  0  0  0  0  0  0  0  0  0  0  0
    5.3375   -4.8750    0.0000 C   0  0  0  0  0  0  0  0  0  0  0  0
    4.6250   -5.5792    0.0000 C   0  0  0  0  0  0  0  0  0  0  0  0
    4.6250   -4.8750    0.0000 C   0  0  0  0  0  0  0  0  0  0  0  0
    2.5792   -3.8417    0.0000 C   0  0  0  0  0  0  0  0  0  0  0  0
    2.7875   -4.5167    0.0000 C   0  0  0  0  0  0  0  0  0  0  0  0
    6.0125   -5.8042    0.0000 C   0  0  0  0  0  0  0  0  0  0  0  0
    6.0125   -4.6542    0.0000 S   0  0  0  0  0  0  0  0  0  0  0  0
    3.4042   -4.8667    0.0000 C   0  0  0  0  0  0  0  0  0  0  0  0
    1.8625   -3.8375    0.0000 N   0  0  0  0  0  0  0  0  0  0  0  0
    6.4292   -5.2375    0.0000 C   0  0  0  0  0  0  0  0  0  0  0  0
    4.0250   -4.5292    0.0000 N   0  0  0  0  0  0  0  0  0  0  0  0
    2.9292   -3.2250    0.0000 C   0  0  0  0  0  0  0  0  0  0  0  0
    1.6500   -4.5083    0.0000 O   0  0  0  0  0  0  0  0  0  0  0  0
    2.2167   -4.9417    0.0000 C   0  0  0  0  0  0  0  0  0  0  0  0
    6.0292   -6.5167    0.0000 C   0  0  0  0  0  0  0  0  0  0  0  0
    4.1417   -6.0917    0.0000 O   0  0  0  0  0  0  0  0  0  0  0  0
    3.6417   -3.2250    0.0000 C   0  0  0  0  0  0  0  0  0  0  0  0
    2.5792   -2.6167    0.0000 C   0  0  0  0  0  0  0  0  0  0  0  0
    3.4000   -5.5750    0.0000 O   0  0  0  0  0  0  0  0  0  0  0  0
    6.6542   -6.8542    0.0000 O   0  0  0  0  0  0  0  0  0  0  0  0
    5.4292   -6.8875    0.0000 O   0  0  0  0  0  0  0  0  0  0  0  0
    4.0000   -3.8417    0.0000 Cl  0  0  0  0  0  0  0  0  0  0  0  0
    1.8667   -2.6042    0.0000 Cl  0  0  0  0  0  0  0  0  0  0  0  0
    6.9542   -4.7542    0.0000 C   0  0  0  0  0  0  0  0  0  0  0  0
    6.9542   -5.7042    0.0000 C   0  0  0  0  0  0  0  0  0  0  0  0
    2.2125   -5.6375    0.0000 C   0  0  0  0  0  0  0  0  0  0  0  0
    3.6375   -2.0042    0.0000 C   0  0  0  0  0  0  0  0  0  0  0  0
    3.9875   -2.6167    0.0000 C   0  0  0  0  0  0  0  0  0  0  0  0
    2.9292   -2.0000    0.0000 C   0  0  0  0  0  0  0  0  0  0  0  0
    5.3292   -4.1667    0.0000 H   0  0  0  0  0  0  0  0  0  0  0  0
    7.3667   -6.9042    0.0000 Na  0  0  0  0  0 15  0  0  0  0  0  0
  3  2  1  0
  4  2  1  0
  5  4  1  0
  6  7  1  0
  7 10  1  0
  8  2  1  0
  9  3  1  0
 10 13  1  0
 11  6  2  0
 12  8  1  0
  5 13  1  1
 14  6  1  0
 15 16  1  0
 16  7  2  0
  8 17  1  6
 18  4  2  0
 19 14  2  0
 20 14  1  0
 21 10  2  0
 22 17  1  0
 23 17  2  0
 24 19  1  0
 25 20  1  0
 26 12  1  0
 27 12  1  0
 28 16  1  0
 29 31  1  0
 30 19  1  0
 31 20  2  0
  3 32  1  6
 12  9  1  0
  5  3  1  0
 15 11  1  0
 29 30  2  0
M  CHG  2  22  -1  33   1
M  END
> <chembl_id>
CHEMBL1200701

> <chembl_pref_name>
DICLOXACILLIN SODIUM
