
     RDKit          2D

 37 40  0  0  0  0  0  0  0  0999 V2000
   -6.2532    0.0653    0.0000 C   0  0  0  0  0  0  0  0  0  0  0  0
   -6.9677   -0.3472    0.0000 C   0  0  0  0  0  0  0  0  0  0  0  0
   -6.9677   -1.1722    0.0000 C   0  0  0  0  0  0  0  0  0  0  0  0
   -6.2532   -1.5848    0.0000 C   0  0  0  0  0  0  0  0  0  0  0  0
   -5.5388   -1.1722    0.0000 C   0  0  0  0  0  0  0  0  0  0  0  0
   -5.5388   -0.3472    0.0000 C   0  0  0  0  0  0  0  0  0  0  0  0
   -4.8243    0.0653    0.0000 C   0  0  0  0  0  0  0  0  0  0  0  0
   -4.1098   -1.1722    0.0000 C   0  0  0  0  0  0  0  0  0  0  0  0
   -4.1098   -0.3472    0.0000 C   0  0  0  0  0  0  0  0  0  0  0  0
   -4.1098    1.3028    0.0000 C   0  0  0  0  0  0  0  0  0  0  0  0
   -4.8243    0.8903    0.0000 C   0  0  0  0  0  0  0  0  0  0  0  0
   -3.3954    0.0653    0.0000 C   0  0  0  0  0  0  0  0  0  0  0  0
   -3.3954    0.8903    0.0000 C   0  0  0  0  0  0  0  0  0  0  0  0
   -2.6809    1.3028    0.0000 C   0  0  0  0  0  0  0  0  0  0  0  0
   -1.9665    0.8903    0.0000 O   0  0  0  0  0  0  0  0  0  0  0  0
   -1.2520    1.3028    0.0000 N   0  0  0  0  0  0  0  0  0  0  0  0
   -0.5375    0.0653    0.0000 C   0  0  0  0  0  0  0  0  0  0  0  0
   -0.5375    0.8903    0.0000 C   0  0  0  0  0  0  0  0  0  0  0  0
    0.8914    0.8902    0.0000 C   0  0  0  0  0  0  0  0  0  0  0  0
    0.1770    1.3028    0.0000 C   0  0  0  0  0  0  0  0  0  0  0  0
    0.8914    2.5403    0.0000 C   0  0  0  0  0  0  0  0  0  0  0  0
    0.1770    2.1278    0.0000 C   0  0  0  0  0  0  0  0  0  0  0  0
    1.6059    1.3028    0.0000 C   0  0  0  0  0  0  0  0  0  0  0  0
    1.6059    2.1278    0.0000 C   0  0  0  0  0  0  0  0  0  0  0  0
    2.3204    0.0652    0.0000 C   0  0  0  0  0  0  0  0  0  0  0  0
    2.3204    0.8903    0.0000 C   0  0  0  0  0  0  0  0  0  0  0  0
    2.3204    2.5403    0.0000 C   0  0  0  0  0  0  0  0  0  0  0  0
    3.0348    2.1278    0.0000 N   0  0  0  0  0  0  0  0  0  0  0  0
   -3.3627   -1.6787    0.0000 F   0  0  0  0  0  0  0  0  0  0  0  0
   -4.1530   -1.9961    0.0000 F   0  0  0  0  0  0  0  0  0  0  0  0
   -4.8118   -1.6397    0.0000 F   0  0  0  0  0  0  0  0  0  0  0  0
    3.8194    2.3827    0.0000 C   0  0  0  0  0  0  0  0  0  0  0  0
    3.2898    1.3432    0.0000 C   0  0  0  0  0  0  0  0  0  0  0  0
    4.0744    1.5981    0.0000 C   0  0  0  0  0  0  0  0  0  0  0  0
    4.8095    1.2236    0.0000 C   0  0  0  0  0  0  0  0  0  0  0  0
    5.5014    1.6729    0.0000 O   0  0  0  0  0  0  0  0  0  0  0  0
    4.8526    0.3997    0.0000 O   0  0  0  0  0  0  0  0  0  0  0  0
  1  2  1  0
  2  3  1  0
  3  4  1  0
  4  5  1  0
  5  6  1  0
  1  6  1  0
  8  9  1  0
  7  9  2  0
  7  6  1  0
 10 11  2  0
 12 13  2  0
 10 13  1  0
 11  7  1  0
  9 12  1  0
 14 15  1  0
 14 13  1  0
 17 18  1  0
 16 18  2  0
 16 15  1  0
 19 20  2  0
 18 20  1  0
 21 22  2  0
 23 24  2  0
 21 24  1  0
 22 20  1  0
 19 23  1  0
 25 26  1  0
 23 26  1  0
 27 28  1  0
 27 24  1  0
  8 29  1  0
  8 30  1  0
  8 31  1  0
 28 32  1  0
 28 33  1  0
 32 34  1  0
 34 33  1  0
 34 35  1  0
 35 36  2  0
 35 37  1  0
M  END
> <chembl_id>
CHEMBL2336071

> <chembl_pref_name>
SIPONIMOD
