
     RDKit          2D

 34 36  0  0  0  0  0  0  0  0999 V2000
   -4.0567    1.8065    0.0000 F   0  0  0  0  0  0  0  0  0  0  0  0
   -3.3422    0.5690    0.0000 C   0  0  0  0  0  0  0  0  0  0  0  0
   -3.3422    1.3940    0.0000 C   0  0  0  0  0  0  0  0  0  0  0  0
   -2.6278    0.1564    0.0000 C   0  0  0  0  0  0  0  0  0  0  0  0
   -1.9133    0.5689    0.0000 C   0  0  0  0  0  0  0  0  0  0  0  0
   -1.9133    1.3939    0.0000 C   0  0  0  0  0  0  0  0  0  0  0  0
   -2.6278    1.8064    0.0000 C   0  0  0  0  0  0  0  0  0  0  0  0
   -1.1988   -0.6686    0.0000 C   0  0  0  0  0  0  0  0  0  0  0  0
   -1.1988    0.1564    0.0000 O   0  0  0  0  0  0  0  0  0  0  0  0
   -1.1988    1.8065    0.0000 C   0  0  0  0  0  0  0  0  0  0  0  0
   -0.4844    1.3940    0.0000 N   0  0  0  0  0  0  0  0  0  0  0  0
   -1.1988    2.6315    0.0000 O   0  0  0  0  0  0  0  0  0  0  0  0
    0.2301    1.8065    0.0000 C   0  0  0  0  0  0  0  0  0  0  0  0
    0.9446    0.5689    0.0000 C   0  0  0  0  0  0  0  0  0  0  0  0
    0.9446    1.3940    0.0000 C   0  0  0  0  0  0  0  0  0  0  0  0
    1.6591    0.1564    0.0000 C   0  0  0  0  0  0  0  0  0  0  0  0
    2.3735    0.5689    0.0000 C   0  0  0  0  0  0  0  0  0  0  0  0
    2.3735    1.3939    0.0000 C   0  0  0  0  0  0  0  0  0  0  0  0
    1.6591    1.8064    0.0000 C   0  0  0  0  0  0  0  0  0  0  0  0
    3.0880    0.1564    0.0000 C   0  0  0  0  0  0  0  0  0  0  0  0
    3.7554    0.6413    0.0000 C   0  0  0  0  0  0  0  0  0  0  0  0
    3.3429   -0.6282    0.0000 N   0  0  0  0  0  0  0  0  0  0  0  0
    4.1679   -0.6282    0.0000 N   0  0  0  0  0  0  0  0  0  0  0  0
    4.4229    0.1564    0.0000 C   0  0  0  0  0  0  0  0  0  0  0  0
    4.6529   -1.2956    0.0000 C   0  0  0  0  0  0  0  0  0  0  0  0
    5.4733   -1.2094    0.0000 C   0  0  0  0  0  0  0  0  0  0  0  0
    4.3173   -2.0493    0.0000 C   0  0  0  0  0  0  0  0  0  0  0  0
    5.2075    0.4113    0.0000 N   0  0  0  0  0  0  0  0  0  0  0  0
    3.7554    1.4663    0.0000 C   0  0  0  0  0  0  0  0  0  0  0  0
    3.0410    1.8788    0.0000 O   0  0  0  0  0  0  0  0  0  0  0  0
    4.4699    1.8788    0.0000 N   0  0  0  0  0  0  0  0  0  0  0  0
    5.9583   -1.8768    0.0000 F   0  0  0  0  0  0  0  0  0  0  0  0
    5.8089   -0.4557    0.0000 F   0  0  0  0  0  0  0  0  0  0  0  0
    6.2938   -1.1231    0.0000 F   0  0  0  0  0  0  0  0  0  0  0  0
  2  3  1  0
  1  3  1  0
  4  5  1  0
  5  6  2  0
  6  7  1  0
  2  4  2  0
  3  7  2  0
  8  9  1  0
  5  9  1  0
 10 11  1  0
 10  6  1  0
 10 12  2  0
 14 15  2  0
 13 15  1  0
 13 11  1  0
 16 17  2  0
 17 18  1  0
 18 19  2  0
 14 16  1  0
 15 19  1  0
 17 20  1  0
 22 23  1  0
 23 24  1  0
 21 24  2  0
 21 20  1  0
 20 22  2  0
 23 25  1  0
 25 26  1  0
 25 27  1  6
 24 28  1  0
 21 29  1  0
 29 30  2  0
 29 31  1  0
 26 32  1  0
 26 33  1  0
 26 34  1  0
M  END
> <chembl_id>
CHEMBL4650485

> <chembl_pref_name>
PIRTOBRUTINIB
