
     RDKit          2D

 20 21  0  0  0  0  0  0  0  0999 V2000
   -3.8441    1.2012    0.0000 C   0  0  0  0  0  0  0  0  0  0  0  0
   -4.5585    0.7887    0.0000 C   0  0  0  0  0  0  0  0  0  0  0  0
   -4.5585   -0.0363    0.0000 C   0  0  0  0  0  0  0  0  0  0  0  0
   -3.8441   -0.4488    0.0000 C   0  0  0  0  0  0  0  0  0  0  0  0
   -3.1296   -0.0363    0.0000 C   0  0  0  0  0  0  0  0  0  0  0  0
   -3.1296    0.7887    0.0000 C   0  0  0  0  0  0  0  0  0  0  0  0
   -2.4151    1.2012    0.0000 C   0  0  0  0  0  0  0  0  0  0  0  0
   -2.4151    2.0263    0.0000 C   0  0  0  0  0  0  0  0  0  0  0  0
   -1.7006    0.7887    0.0000 N   0  0  0  0  0  0  0  0  0  0  0  0
   -0.9862    1.2012    0.0000 C   0  0  0  0  0  0  0  0  0  0  0  0
   -0.9862    2.0262    0.0000 N   0  0  0  0  0  0  0  0  0  0  0  0
   -0.2717    2.4387    0.0000 C   0  0  0  0  0  0  0  0  0  0  0  0
   -0.2717    0.7887    0.0000 C   0  0  0  0  0  0  0  0  0  0  0  0
    0.4428    1.2012    0.0000 C   0  0  0  0  0  0  0  0  0  0  0  0
    0.4428    2.0262    0.0000 N   0  0  0  0  0  0  0  0  0  0  0  0
    1.1572    2.4387    0.0000 C   0  0  0  0  0  0  0  0  0  0  0  0
    1.1572    0.7887    0.0000 O   0  0  0  0  0  0  0  0  0  0  0  0
    1.8717    2.0262    0.0000 C   0  0  0  0  0  0  0  0  0  0  0  0
    1.1572    3.2638    0.0000 C   0  0  0  0  0  0  0  0  0  0  0  0
   -0.2717    3.2637    0.0000 O   0  0  0  0  0  0  0  0  0  0  0  0
  1  2  2  0
  2  3  1  0
  3  4  2  0
  4  5  1  0
  5  6  2  0
  1  6  1  0
  7  8  1  6
  6  7  1  0
  9 10  1  0
 10 11  1  0
  7  9  1  0
 13 14  1  0
 14 15  1  0
 12 15  1  0
 10 13  2  0
 12 11  1  0
 16 18  1  0
 14 17  2  0
 16 15  1  0
 19 16  1  0
 12 20  2  0
M  END
> <chembl_id>
CHEMBL4297517

> <chembl_pref_name>
MAVACAMTEN
