
     RDKit          2D

 20 21  0  0  0  0  0  0  0  0999 V2000
    3.7750   -1.1042    0.0000 S   0  0  0  0  0  0  0  0  0  0  0  0
    4.3792   -1.4667    0.0000 N   0  0  0  0  0  0  0  0  0  0  0  0
    3.1667   -1.4542    0.0000 C   0  0  0  0  0  0  0  0  0  0  0  0
    1.3292   -1.0917    0.0000 S   0  0  0  0  0  0  0  0  0  0  0  0
    4.3792   -2.1667    0.0000 C   0  0  0  0  0  0  0  0  0  0  0  0
    1.9417   -1.4500    0.0000 C   0  0  0  0  0  0  0  0  0  0  0  0
    3.1625   -2.1542    0.0000 C   0  0  0  0  0  0  0  0  0  0  0  0
    3.7625   -2.5125    0.0000 N   0  0  0  0  0  0  0  0  0  0  0  0
    2.5542   -1.0917    0.0000 C   0  0  0  0  0  0  0  0  0  0  0  0
    1.9375   -2.1417    0.0000 C   0  0  0  0  0  0  0  0  0  0  0  0
    2.5417   -2.5000    0.0000 C   0  0  0  0  0  0  0  0  0  0  0  0
    4.2292   -0.5667    0.0000 O   0  0  0  0  0  0  0  0  0  0  0  0
    3.3167   -0.5542    0.0000 O   0  0  0  0  0  0  0  0  0  0  0  0
    4.9625   -2.5667    0.0000 C   0  0  0  0  0  0  0  0  0  0  0  0
    1.6792   -0.4750    0.0000 O   0  0  0  0  0  0  0  0  0  0  0  0
    0.9667   -0.4750    0.0000 O   0  0  0  0  0  0  0  0  0  0  0  0
    0.7125   -1.4417    0.0000 N   0  0  0  0  0  0  0  0  0  0  0  0
    1.3167   -2.4917    0.0000 Cl  0  0  0  0  0  0  0  0  0  0  0  0
    4.9625   -3.2792    0.0000 Cl  0  0  0  0  0  0  0  0  0  0  0  0
    5.6542   -2.1542    0.0000 Cl  0  0  0  0  0  0  0  0  0  0  0  0
  2  1  1  0
  3  1  1  0
  4  6  1  0
  5  2  1  0
  6  9  2  0
  7  3  2  0
  8  7  1  0
  9  3  1  0
 10  6  1  0
 11  7  1  0
 12  1  2  0
 13  1  2  0
 14  5  1  0
 15  4  2  0
 16  4  2  0
 17  4  1  0
 18 10  1  0
 19 14  1  0
 20 14  1  0
 11 10  2  0
  5  8  1  0
M  END
> <chembl_id>
CHEMBL1054

> <chembl_pref_name>
TRICHLORMETHIAZIDE
