
     RDKit          2D

 10 10  0  0  0  0  0  0  0  0999 V2000
    0.0000   -0.4125    0.0000 C   0  0  0  0  0  0  0  0  0  0  0  0
    0.7125    0.0000    0.0000 C   0  0  0  0  0  0  0  0  0  0  0  0
    0.7125    0.8250    0.0000 N   0  0  0  0  0  0  0  0  0  0  0  0
   -0.7167    0.8250    0.0000 C   0  0  0  0  0  0  0  0  0  0  0  0
   -0.7167    0.0000    0.0000 C   0  0  0  0  0  0  0  0  0  0  0  0
    0.0000    1.2375    0.0000 C   0  0  0  0  0  0  0  0  0  0  0  0
   -1.4292   -0.4125    0.0000 O   0  0  0  0  0  0  0  0  0  0  0  0
    0.0000   -1.2375    0.0000 O   0  0  0  0  0  0  0  0  0  0  0  0
    1.4250   -0.4125    0.0000 C   0  0  0  0  0  0  0  0  0  0  0  0
    1.4250    1.2375    0.0000 C   0  0  0  0  0  0  0  0  0  0  0  0
  2  1  2  0
  3  2  1  0
  4  5  1  0
  5  1  1  0
  6  4  2  0
  7  5  2  0
  8  1  1  0
  9  2  1  0
 10  3  1  0
  3  6  1  0
M  END
> <chembl_id>
CHEMBL70927

> <chembl_pref_name>
DEFERIPRONE
