
     RDKit          2D

 33 35  0  0  0  0  0  0  0  0999 V2000
   11.3841   -6.8938    0.0000 N   0  0  0  0  0  0  0  0  0  0  0  0
   10.6966   -5.6311    0.0000 N   0  0  0  0  0  0  0  0  0  0  0  0
    9.9507   -6.8597    0.0000 C   0  0  0  0  0  0  0  0  0  0  0  0
    9.9604   -6.0406    0.0000 C   0  0  0  0  0  0  0  0  0  0  0  0
   10.6528   -7.2887    0.0000 C   0  0  0  0  0  0  0  0  0  0  0  0
   11.3938   -6.0455    0.0000 C   0  0  0  0  0  0  0  0  0  0  0  0
    9.2291   -7.2546    0.0000 N   0  0  0  0  0  0  0  0  0  0  0  0
    4.2026   -8.4003    0.0000 C   0  0  0  0  0  0  0  0  0  0  0  0
    9.2633   -5.6164    0.0000 N   0  0  0  0  0  0  0  0  0  0  0  0
    3.4957   -7.9713    0.0000 N   0  0  0  0  0  0  0  0  0  0  0  0
    8.5270   -6.8304    0.0000 C   0  0  0  0  0  0  0  0  0  0  0  0
    2.7546   -9.1901    0.0000 C   0  0  0  0  0  0  0  0  0  0  0  0
    7.0840   -6.8061    0.0000 N   0  0  0  0  0  0  0  0  0  0  0  0
    2.7693   -8.3711    0.0000 C   0  0  0  0  0  0  0  0  0  0  0  0
    0.6338   -7.9127    0.0000 C   0  0  0  0  0  0  0  0  0  0  0  0
    4.9290   -7.9908    0.0000 C   0  0  0  0  0  0  0  0  0  0  0  0
    7.7957   -7.2399    0.0000 C   0  0  0  0  0  0  0  0  0  0  0  0
    6.3527   -7.2156    0.0000 C   0  0  0  0  0  0  0  0  0  0  0  0
    4.1880   -9.2145    0.0000 O   0  0  0  0  0  0  0  0  0  0  0  0
   -0.2584   -8.3515    0.0000 O   0  0  0  0  0  0  0  0  0  0  0  0
    3.4567   -9.6143    0.0000 O   0  0  0  0  0  0  0  0  0  0  0  0
    8.5270   -6.0016    0.0000 C   0  0  0  0  0  0  0  0  0  0  0  0
    0.6485   -7.0840    0.0000 O   0  0  0  0  0  0  0  0  0  0  0  0
   10.6528   -8.1078    0.0000 N   0  0  0  0  0  0  0  0  0  0  0  0
    5.6311   -8.4100    0.0000 C   0  0  0  0  0  0  0  0  0  0  0  0
    4.9290   -7.1814    0.0000 C   0  0  0  0  0  0  0  0  0  0  0  0
    6.3527   -8.0200    0.0000 C   0  0  0  0  0  0  0  0  0  0  0  0
    5.6652   -6.7768    0.0000 C   0  0  0  0  0  0  0  0  0  0  0  0
   12.1251   -5.6506    0.0000 N   0  0  0  0  0  0  0  0  0  0  0  0
    2.0672   -7.9323    0.0000 C   0  0  0  0  0  0  0  0  0  0  0  0
    1.3456   -8.3369    0.0000 C   0  0  0  0  0  0  0  0  0  0  0  0
    2.0379   -9.5948    0.0000 O   0  0  0  0  0  0  0  0  0  0  0  0
    7.0986   -5.9724    0.0000 C   0  0  0  0  0  0  0  0  0  0  0  0
  2  6  1  0
  3  5  2  0
  4  2  2  0
  5  1  1  0
  6  1  2  0
  7  3  1  0
  8 16  1  0
  9  4  1  0
 10  8  1  0
 11  7  2  0
 14 12  1  6
 13 17  1  0
 14 10  1  0
 15 31  1  0
 16 26  1  0
 17 11  1  0
 18 13  1  0
 19  8  2  0
 20 15  1  0
 21 12  2  0
 22  9  2  0
 23 15  2  0
 24  5  1  0
 25 27  1  0
 26 28  2  0
 27 18  2  0
 28 18  1  0
 29  6  1  0
 30 14  1  0
 31 30  1  0
 32 12  1  0
 33 13  1  0
  4  3  1  0
 22 11  1  0
 16 25  2  0
M  END
> <chembl_id>
CHEMBL34259

> <chembl_pref_name>
METHOTREXATE
