
     RDKit          2D

 32 34  0  0  0  0  0  0  0  0999 V2000
    3.7667   -0.4542    0.0000 C   0  0  0  0  0  0  0  0  0  0  0  0
    3.7667   -1.1667    0.0000 C   0  0  0  0  0  0  0  0  0  0  0  0
    2.5292   -0.4542    0.0000 C   0  0  0  0  0  0  0  0  0  0  0  0
    2.5292   -1.1667    0.0000 C   0  0  0  0  0  0  0  0  0  0  0  0
    3.1500   -0.0958    0.0000 C   0  0  0  0  0  0  0  0  0  0  0  0
    3.1500   -1.5292    0.0000 C   0  0  0  0  0  0  0  0  0  0  0  0
    4.3792   -1.5292    0.0000 C   0  0  0  0  0  0  0  0  0  0  0  0
    4.3792   -0.0958    0.0000 C   0  0  0  0  0  0  0  0  0  0  0  0
    1.9167   -0.0958    0.0000 C   0  0  0  0  0  0  0  0  0  0  0  0
    1.9167   -1.5292    0.0000 C   0  0  0  0  0  0  0  0  0  0  0  0
    3.1500    0.6083    0.0000 O   0  0  0  0  0  0  0  0  0  0  0  0
    3.1500   -2.2375    0.0000 O   0  0  0  0  0  0  0  0  0  0  0  0
    4.9917   -0.4542    0.0000 C   0  0  0  0  0  0  0  0  0  0  0  0
    4.9917   -1.1667    0.0000 C   0  0  0  0  0  0  0  0  0  0  0  0
    1.3042   -0.4542    0.0000 C   0  0  0  0  0  0  0  0  0  0  0  0
    1.3042   -1.1667    0.0000 C   0  0  0  0  0  0  0  0  0  0  0  0
    4.3792    0.6083    0.0000 N   0  0  0  0  0  0  0  0  0  0  0  0
    4.3792   -2.2375    0.0000 N   0  0  0  0  0  0  0  0  0  0  0  0
    1.9167    0.6083    0.0000 O   0  0  0  0  0  0  0  0  0  0  0  0
    1.9167   -2.2375    0.0000 O   0  0  0  0  0  0  0  0  0  0  0  0
    6.2292    0.9625    0.0000 N   0  0  0  0  0  0  0  0  0  0  0  0
    6.2292   -2.5917    0.0000 N   0  0  0  0  0  0  0  0  0  0  0  0
    8.0750   -2.2375    0.0000 O   0  0  0  0  0  0  0  0  0  0  0  0
    8.0750    0.6083    0.0000 O   0  0  0  0  0  0  0  0  0  0  0  0
    4.9917    0.9625    0.0000 C   0  0  0  0  0  0  0  0  0  0  0  0
    4.9917   -2.5917    0.0000 C   0  0  0  0  0  0  0  0  0  0  0  0
    5.6125   -2.2375    0.0000 C   0  0  0  0  0  0  0  0  0  0  0  0
    5.6125    0.6083    0.0000 C   0  0  0  0  0  0  0  0  0  0  0  0
    6.8417   -2.2375    0.0000 C   0  0  0  0  0  0  0  0  0  0  0  0
    6.8417    0.6083    0.0000 C   0  0  0  0  0  0  0  0  0  0  0  0
    7.4625   -2.5917    0.0000 C   0  0  0  0  0  0  0  0  0  0  0  0
    7.4625    0.9625    0.0000 C   0  0  0  0  0  0  0  0  0  0  0  0
  2  1  2  0
  3  5  1  0
  4  3  2  0
  5  1  1  0
  6  2  1  0
  7  2  1  0
  8  1  1  0
  9  3  1  0
 10  4  1  0
 11  5  2  0
 12  6  2  0
 13  8  2  0
 14 13  1  0
 15  9  2  0
 16 15  1  0
 17  8  1  0
 18  7  1  0
 19  9  1  0
 20 10  1  0
 21 28  1  0
 22 27  1  0
 23 31  1  0
 24 32  1  0
 25 17  1  0
 26 18  1  0
 27 26  1  0
 28 25  1  0
 29 22  1  0
 30 21  1  0
 31 29  1  0
 32 30  1  0
  4  6  1  0
 14  7  2  0
 16 10  2  0
M  END
> <chembl_id>
CHEMBL58

> <chembl_pref_name>
MITOXANTRONE
