
     RDKit          2D

 14 15  0  0  0  0  0  0  0  0999 V2000
   -0.1208   -1.0000    0.0000 C   0  0  0  0  0  0  0  0  0  0  0  0
   -0.1083   -0.2917    0.0000 C   0  0  0  0  0  0  0  0  0  0  0  0
   -0.7375   -1.3375    0.0000 N   0  0  0  0  0  0  0  0  0  0  0  0
   -1.3333   -0.2667    0.0000 N   0  0  0  0  0  0  0  0  0  0  0  0
   -1.3458   -0.9667    0.0000 C   0  0  0  0  0  0  0  0  0  0  0  0
   -0.7125    0.0750    0.0000 C   0  0  0  0  0  0  0  0  0  0  0  0
    0.5500   -1.2292    0.0000 N   0  0  0  0  0  0  0  0  0  0  0  0
    0.5792   -0.0917    0.0000 N   0  0  0  0  0  0  0  0  0  0  0  0
    0.9792   -0.6625    0.0000 C   0  0  0  0  0  0  0  0  0  0  0  0
   -1.9833   -1.3125    0.0000 O   0  0  0  0  0  0  0  0  0  0  0  0
   -0.7000    0.7875    0.0000 O   0  0  0  0  0  0  0  0  0  0  0  0
   -0.7500   -2.0542    0.0000 C   0  0  0  0  0  0  0  0  0  0  0  0
   -1.9375    0.1083    0.0000 C   0  0  0  0  0  0  0  0  0  0  0  0
    0.8125    0.5833    0.0000 C   0  0  0  0  0  0  0  0  0  0  0  0
  2  1  2  0
  3  1  1  0
  4  5  1  0
  5  3  1  0
  6  2  1  0
  7  1  1  0
  8  2  1  0
  9  7  2  0
 10  5  2  0
 11  6  2  0
 12  3  1  0
 13  4  1  0
 14  8  1  0
  8  9  1  0
  6  4  1  0
M  END
> <chembl_id>
CHEMBL113

> <chembl_pref_name>
CAFFEINE
