
     RDKit          2D

 24 26  0  0  1  0  0  0  0  0999 V2000
    1.9042    0.3208    0.0000 N   0  0  0  0  0  0  0  0  0  0  0  0
    1.9500   -0.6667    0.0000 C   0  0  0  0  0  0  0  0  0  0  0  0
    0.9000    0.3333    0.0000 C   0  0  0  0  0  0  0  0  0  0  0  0
    0.9292   -0.6875    0.0000 C   0  0  0  0  0  0  0  0  0  0  0  0
    2.8042    0.6958    0.0000 C   0  0  0  0  0  0  0  0  0  0  0  0
    2.9250   -0.9167    0.0000 S   0  0  0  0  0  0  0  0  0  0  0  0
    3.4500   -0.0667    0.0000 C   0  0  0  0  0  0  0  0  0  0  0  0
    0.2125   -1.3750    0.0000 N   0  0  0  0  0  0  0  0  0  0  0  0
    3.0750    1.6500    0.0000 C   0  0  0  0  0  0  0  0  0  0  0  0
   -0.7625   -1.1667    0.0000 C   0  0  0  0  0  0  0  0  0  0  0  0
    0.1292    0.9708    0.0000 O   0  0  0  0  0  0  0  0  0  0  0  0
    2.3542    2.3458    0.0000 O   0  0  0  0  0  0  0  0  0  0  0  0
   -1.0833   -0.2125    0.0000 O   0  0  0  0  0  0  0  0  0  0  0  0
   -1.4208   -1.9167    0.0000 C   0  0  0  0  0  0  0  0  0  0  0  0
    4.0292    1.9250    0.0000 O   0  0  0  0  0  0  0  0  0  0  0  0
    4.3417    0.3833    0.0000 C   0  0  0  0  0  0  0  0  0  0  0  0
    4.3417   -0.5167    0.0000 C   0  0  0  0  0  0  0  0  0  0  0  0
   -2.3958   -1.7167    0.0000 C   0  0  0  0  0  0  0  0  0  0  0  0
   -3.0750   -2.4542    0.0000 C   0  0  0  0  0  0  0  0  0  0  0  0
   -2.7208   -0.7667    0.0000 C   0  0  0  0  0  0  0  0  0  0  0  0
   -4.0583   -2.2750    0.0000 C   0  0  0  0  0  0  0  0  0  0  0  0
   -3.6958   -0.5667    0.0000 C   0  0  0  0  0  0  0  0  0  0  0  0
   -4.3458   -1.3292    0.0000 C   0  0  0  0  0  0  0  0  0  0  0  0
    1.9500   -1.6625    0.0000 H   0  0  0  0  0  0  0  0  0  0  0  0
  2  1  1  0
  3  1  1  0
  4  3  1  0
  5  1  1  0
  6  2  1  0
  7  5  1  0
  4  8  1  6
  5  9  1  1
 10  8  1  0
 11  3  2  0
 12  9  2  0
 13 10  2  0
 14 10  1  0
 15  9  1  0
 16  7  1  0
 17  7  1  0
 18 14  1  0
 19 18  2  0
 20 18  1  0
 21 19  1  0
 22 20  2  0
 23 22  1  0
  2 24  1  1
  6  7  1  0
  2  4  1  0
 21 23  2  0
M  END
> <chembl_id>
CHEMBL29

> <chembl_pref_name>
BENZYLPENICILLIN
