
     RDKit          2D

 19 20  0  0  0  0  0  0  0  0999 V2000
    2.3208   -0.5125    0.0000 S   0  0  0  0  0  0  0  0  0  0  0  0
    3.0500   -0.9250    0.0000 C   0  0  0  0  0  0  0  0  0  0  0  0
    1.6208   -0.9250    0.0000 C   0  0  0  0  0  0  0  0  0  0  0  0
    3.7583   -0.5125    0.0000 C   0  0  0  0  0  0  0  0  0  0  0  0
    2.3167    0.3125    0.0000 O   0  0  0  0  0  0  0  0  0  0  0  0
    3.7583    0.3125    0.0000 O   0  0  0  0  0  0  0  0  0  0  0  0
    0.8542   -0.5125    0.0000 C   0  0  0  0  0  0  0  0  0  0  0  0
    1.6083   -1.7542    0.0000 C   0  0  0  0  0  0  0  0  0  0  0  0
    4.4792   -0.9250    0.0000 N   0  0  0  0  0  0  0  0  0  0  0  0
    2.3083   -2.1708    0.0000 C   0  0  0  0  0  0  0  0  0  0  0  0
    0.8833   -2.1708    0.0000 C   0  0  0  0  0  0  0  0  0  0  0  0
    0.1500   -0.9250    0.0000 C   0  0  0  0  0  0  0  0  0  0  0  0
    0.8542    0.3125    0.0000 C   0  0  0  0  0  0  0  0  0  0  0  0
   -0.5792   -0.5125    0.0000 C   0  0  0  0  0  0  0  0  0  0  0  0
    0.1500    0.7208    0.0000 C   0  0  0  0  0  0  0  0  0  0  0  0
    2.3083   -2.9917    0.0000 C   0  0  0  0  0  0  0  0  0  0  0  0
    0.8833   -2.9917    0.0000 C   0  0  0  0  0  0  0  0  0  0  0  0
    1.6083   -3.4167    0.0000 C   0  0  0  0  0  0  0  0  0  0  0  0
   -0.5792    0.3125    0.0000 C   0  0  0  0  0  0  0  0  0  0  0  0
  2  1  1  0
  1  3  1  6
  4  2  1  0
  5  1  1  0
  6  4  2  0
  7  3  1  0
  8  3  1  0
  9  4  1  0
 10  8  1  0
 11  8  2  0
 12  7  1  0
 13  7  2  0
 14 12  2  0
 15 13  1  0
 16 10  2  0
 17 11  1  0
 18 17  2  0
 19 14  1  0
 15 19  2  0
 16 18  1  0
M  CHG  2   1   1   5  -1
M  END
> <chembl_id>
CHEMBL1201192

> <chembl_pref_name>
ARMODAFINIL
