
     RDKit          2D

 18 19  0  0  0  0  0  0  0  0999 V2000
    5.5167   -5.3042    0.0000 C   0  0  0  0  0  0  0  0  0  0  0  0
    6.1292   -5.6667    0.0000 C   0  0  0  0  0  0  0  0  0  0  0  0
    5.5167   -4.6042    0.0000 C   0  0  0  0  0  0  0  0  0  0  0  0
    4.9125   -5.6542    0.0000 C   0  0  0  0  0  0  0  0  0  0  0  0
    6.1292   -6.3792    0.0000 C   0  0  0  0  0  0  0  0  0  0  0  0
    4.3000   -5.3000    0.0000 C   0  0  0  0  0  0  0  0  0  0  0  0
    4.9042   -6.3667    0.0000 C   0  0  0  0  0  0  0  0  0  0  0  0
    4.9125   -4.2417    0.0000 Cl  0  0  0  0  0  0  0  0  0  0  0  0
    6.1417   -4.2500    0.0000 Cl  0  0  0  0  0  0  0  0  0  0  0  0
    3.6750   -6.3542    0.0000 C   0  0  0  0  0  0  0  0  0  0  0  0
    5.5042   -6.7250    0.0000 Cl  0  0  0  0  0  0  0  0  0  0  0  0
    4.2875   -6.7167    0.0000 C   0  0  0  0  0  0  0  0  0  0  0  0
    3.6792   -5.6542    0.0000 C   0  0  0  0  0  0  0  0  0  0  0  0
    3.0542   -6.7042    0.0000 Cl  0  0  0  0  0  0  0  0  0  0  0  0
    6.7500   -5.3125    0.0000 C   0  0  0  0  0  0  0  0  0  0  0  0
    6.7417   -6.7292    0.0000 C   0  0  0  0  0  0  0  0  0  0  0  0
    7.3625   -5.6750    0.0000 C   0  0  0  0  0  0  0  0  0  0  0  0
    7.3542   -6.3792    0.0000 C   0  0  0  0  0  0  0  0  0  0  0  0
  2  1  1  0
  3  1  1  0
  4  1  1  0
  5  2  2  0
  6  4  2  0
  7  4  1  0
  8  3  1  0
  9  3  1  0
 10 12  1  0
 11  5  1  0
 12  7  2  0
 13  6  1  0
 14 10  1  0
 15  2  1  0
 16  5  1  0
 17 15  2  0
 18 17  1  0
 10 13  2  0
 18 16  2  0
M  END
> <chembl_id>
CHEMBL1670

> <chembl_pref_name>
MITOTANE
