
     RDKit          2D

 31 33  0  0  1  0  0  0  0  0999 V2000
    2.5500   -8.3042    0.0000 N   0  0  0  0  0  0  0  0  0  0  0  0
    1.8375   -8.3042    0.0000 C   0  0  0  0  0  0  0  0  0  0  0  0
    1.8375   -7.5917    0.0000 C   0  0  0  0  0  0  0  0  0  0  0  0
    2.5500   -7.5917    0.0000 C   0  0  0  0  0  0  0  0  0  0  0  0
    3.1583   -8.6542    0.0000 C   0  0  0  0  0  0  0  0  0  0  0  0
   -0.6333   -7.5833    0.0000 C   0  0  0  0  0  0  0  0  0  0  0  0
   -0.0208   -7.2333    0.0000 C   0  0  0  0  0  0  0  0  0  0  0  0
   -1.2083   -7.1625    0.0000 N   0  0  0  0  0  0  0  0  0  0  0  0
    1.2167   -7.2292    0.0000 N   0  0  0  0  0  0  0  0  0  0  0  0
    0.5958   -7.5917    0.0000 C   0  0  0  0  0  0  0  0  0  0  0  0
    3.1667   -7.2375    0.0000 S   0  0  0  0  0  0  0  0  0  0  0  0
    3.7750   -8.3083    0.0000 C   0  0  0  0  0  0  0  0  0  0  0  0
   -1.7833   -7.5833    0.0000 C   0  0  0  0  0  0  0  0  0  0  0  0
    3.1542   -9.3667    0.0000 C   0  0  0  0  0  0  0  0  0  0  0  0
   -0.8542   -8.2542    0.0000 C   0  0  0  0  0  0  0  0  0  0  0  0
   -1.5625   -8.2542    0.0000 S   0  0  0  0  0  0  0  0  0  0  0  0
    3.7792   -7.6000    0.0000 C   0  0  0  0  0  0  0  0  0  0  0  0
   -0.0208   -6.5250    0.0000 N   0  0  0  0  0  0  0  0  0  0  0  0
    1.3375   -8.8083    0.0000 O   0  0  0  0  0  0  0  0  0  0  0  0
    4.3833   -8.6667    0.0000 C   0  0  0  0  0  0  0  0  0  0  0  0
    5.6167   -8.6792    0.0000 C   0  0  0  0  0  0  0  0  0  0  0  0
    0.5958   -8.3042    0.0000 O   0  0  0  0  0  0  0  0  0  0  0  0
    3.7667   -9.7292    0.0000 O   0  0  0  0  0  0  0  0  0  0  0  0
    2.5333   -9.7208    0.0000 O   0  0  0  0  0  0  0  0  0  0  0  0
    5.0042   -8.3167    0.0000 O   0  0  0  0  0  0  0  0  0  0  0  0
    5.6083   -9.3875    0.0000 O   0  0  0  0  0  0  0  0  0  0  0  0
   -2.4000   -7.2292    0.0000 N   0  0  0  0  0  0  0  0  0  0  0  0
    0.5958   -6.1708    0.0000 O   0  0  0  0  0  0  0  0  0  0  0  0
    6.2333   -8.3292    0.0000 C   0  0  0  0  0  0  0  0  0  0  0  0
    1.2083   -6.5250    0.0000 C   0  0  0  0  0  0  0  0  0  0  0  0
    2.5417   -6.8792    0.0000 H   0  0  0  0  0  0  0  0  0  0  0  0
  2  1  1  0
  3  4  1  0
  4  1  1  0
  5  1  1  0
  6  7  1  0
  7 10  1  0
  8  6  1  0
  3  9  1  1
 10  9  1  0
 11  4  1  0
 12  5  2  0
 13  8  2  0
 14  5  1  0
 15  6  2  0
 16 15  1  0
 17 12  1  0
 18  7  2  0
 19  2  2  0
 20 12  1  0
 21 25  1  0
 22 10  2  0
 23 14  1  0
 24 14  2  0
 25 20  1  0
 26 21  2  0
 27 13  1  0
 28 18  1  0
 29 21  1  0
 30 28  1  0
  4 31  1  6
  2  3  1  0
 11 17  1  0
 16 13  1  0
M  END
> <chembl_id>
CHEMBL1730

> <chembl_pref_name>
CEFOTAXIME
