
     RDKit          2D

 62 65  0  0  0  0  0  0  0  0999 V2000
    1.4298   -6.0369    0.0000 C   0  0  0  0  0  0  0  0  0  0  0  0
    0.7072   -6.4432    0.0000 F   0  0  0  0  0  0  0  0  0  0  0  0
    1.4275   -5.2119    0.0000 C   0  0  0  0  0  0  0  0  0  0  0  0
    2.1440   -4.8065    0.0000 C   0  0  0  0  0  0  0  0  0  0  0  0
    2.1338   -3.9655    0.0000 F   0  0  0  0  0  0  0  0  0  0  0  0
    2.8607   -5.2094    0.0000 C   0  0  0  0  0  0  0  0  0  0  0  0
    3.5602   -3.9749    0.0000 O   0  0  0  0  0  0  0  0  0  0  0  0
    3.5664   -4.8219    0.0000 C   0  0  0  0  0  0  0  0  0  0  0  0
    4.2829   -5.2043    0.0000 N   0  0  0  0  0  0  0  0  0  0  0  0
    2.8549   -6.0426    0.0000 C   0  0  0  0  0  0  0  0  0  0  0  0
    3.5697   -6.4432    0.0000 F   0  0  0  0  0  0  0  0  0  0  0  0
    2.1451   -6.4464    0.0000 C   0  0  0  0  0  0  0  0  0  0  0  0
    5.7001   -5.2043    0.0000 N   0  0  0  0  0  0  0  0  0  0  0  0
    6.4297   -4.8039    0.0000 C   0  0  0  0  0  0  0  0  0  0  0  0
    4.9999   -4.8029    0.0000 C   0  0  0  0  0  0  0  0  0  0  0  0
    4.9955   -3.9818    0.0000 C   0  0  0  0  0  0  0  0  0  0  0  0
    5.7151   -3.5525    0.0000 C   0  0  0  0  0  0  0  0  0  0  0  0
    6.4327   -3.9744    0.0000 C   0  0  0  0  0  0  0  0  0  0  0  0
    7.1947   -5.2028    0.0000 C   0  0  0  0  0  0  0  0  0  0  0  0
    7.8496   -4.8131    0.0000 C   0  0  0  0  0  0  0  0  0  0  0  0
    7.8549   -3.9749    0.0000 C   0  0  0  0  0  0  0  0  0  0  0  0
    8.5675   -3.5500    0.0000 C   0  0  0  0  0  0  0  0  0  0  0  0
    9.2664   -3.9749    0.0000 N   0  0  0  0  0  0  0  0  0  0  0  0
    9.2825   -4.8086    0.0000 C   0  0  0  0  0  0  0  0  0  0  0  0
    8.5788   -5.2170    0.0000 C   0  0  0  0  0  0  0  0  0  0  0  0
    7.1361   -6.0302    0.0000 O   0  0  0  0  0  0  0  0  0  0  0  0
   10.1252   -3.5619    0.0000 C   0  0  0  0  0  0  0  0  0  0  0  0
    0.8446   -2.6439    0.0000 C   0  0  0  0  0  0  0  0  0  0  0  0
    0.1220   -3.0502    0.0000 F   0  0  0  0  0  0  0  0  0  0  0  0
    0.8423   -1.8189    0.0000 C   0  0  0  0  0  0  0  0  0  0  0  0
    1.5588   -1.4135    0.0000 C   0  0  0  0  0  0  0  0  0  0  0  0
    1.5486   -0.5725    0.0000 F   0  0  0  0  0  0  0  0  0  0  0  0
    2.2755   -1.8164    0.0000 C   0  0  0  0  0  0  0  0  0  0  0  0
    2.9750   -0.5819    0.0000 O   0  0  0  0  0  0  0  0  0  0  0  0
    2.9812   -1.4289    0.0000 C   0  0  0  0  0  0  0  0  0  0  0  0
    3.6977   -1.8113    0.0000 N   0  0  0  0  0  0  0  0  0  0  0  0
    2.2697   -2.6496    0.0000 C   0  0  0  0  0  0  0  0  0  0  0  0
    2.9845   -3.0502    0.0000 F   0  0  0  0  0  0  0  0  0  0  0  0
    1.5599   -3.0534    0.0000 C   0  0  0  0  0  0  0  0  0  0  0  0
    5.1149   -1.8113    0.0000 N   0  0  0  0  0  0  0  0  0  0  0  0
    5.8445   -1.4109    0.0000 C   0  0  0  0  0  0  0  0  0  0  0  0
    4.4147   -1.4099    0.0000 C   0  0  0  0  0  0  0  0  0  0  0  0
    4.4103   -0.5888    0.0000 C   0  0  0  0  0  0  0  0  0  0  0  0
    5.1299   -0.1595    0.0000 C   0  0  0  0  0  0  0  0  0  0  0  0
    5.8475   -0.5814    0.0000 C   0  0  0  0  0  0  0  0  0  0  0  0
    6.6095   -1.8098    0.0000 C   0  0  0  0  0  0  0  0  0  0  0  0
    7.2644   -1.4201    0.0000 C   0  0  0  0  0  0  0  0  0  0  0  0
    7.2697   -0.5819    0.0000 C   0  0  0  0  0  0  0  0  0  0  0  0
    7.9823   -0.1570    0.0000 C   0  0  0  0  0  0  0  0  0  0  0  0
    8.6812   -0.5819    0.0000 N   0  0  0  0  0  0  0  0  0  0  0  0
    8.6973   -1.4156    0.0000 C   0  0  0  0  0  0  0  0  0  0  0  0
    7.9936   -1.8240    0.0000 C   0  0  0  0  0  0  0  0  0  0  0  0
    6.5509   -2.6372    0.0000 O   0  0  0  0  0  0  0  0  0  0  0  0
    9.5400   -0.1689    0.0000 C   0  0  0  0  0  0  0  0  0  0  0  0
   10.9313   -1.0312    0.0000 O   0  0  0  0  0  0  0  0  0  0  0  0
   11.5146   -1.6146    0.0000 C   0  0  0  0  0  0  0  0  0  0  0  0
   11.5146   -2.4396    0.0000 O   0  0  0  0  0  0  0  0  0  0  0  0
   12.2291   -1.2021    0.0000 C   0  0  0  0  0  0  0  0  0  0  0  0
   12.9436   -1.6146    0.0000 C   0  0  0  0  0  0  0  0  0  0  0  0
   13.6580   -1.2021    0.0000 C   0  0  0  0  0  0  0  0  0  0  0  0
   13.6580   -0.3771    0.0000 O   0  0  0  0  0  0  0  0  0  0  0  0
   14.3725   -1.6146    0.0000 O   0  0  0  0  0  0  0  0  0  0  0  0
  1  2  1  0
  1 12  1  0
  3  1  2  0
  3  4  1  0
  4  6  2  0
  5  4  1  0
  7  8  2  0
  8  9  1  0
  8  6  1  0
  9 15  1  0
 10 11  1  0
 10  6  1  0
 12 10  2  0
 13 14  1  0
 14 18  2  0
 15 13  2  0
 15 16  1  0
 16 17  2  0
 18 17  1  0
 19 14  1  0
 19 20  1  0
 20 21  1  0
 21 22  1  0
 22 23  1  0
 23 24  1  0
 23 27  1  0
 24 25  1  0
 25 20  1  0
 26 19  2  0
 28 29  1  0
 28 39  1  0
 30 28  2  0
 30 31  1  0
 31 33  2  0
 32 31  1  0
 34 35  2  0
 35 36  1  0
 35 33  1  0
 36 42  1  0
 37 38  1  0
 37 33  1  0
 39 37  2  0
 40 41  1  0
 41 45  2  0
 42 40  2  0
 42 43  1  0
 43 44  2  0
 45 44  1  0
 46 41  1  0
 46 47  1  0
 47 48  1  0
 48 49  1  0
 49 50  1  0
 50 51  1  0
 50 54  1  0
 51 52  1  0
 52 47  1  0
 53 46  2  0
 55 56  1  0
 56 57  2  0
 56 58  1  0
 58 59  1  0
 59 60  1  0
 60 61  2  0
 60 62  1  0
M  END
> <chembl_id>
CHEMBL3039526

> <chembl_pref_name>
LASMIDITAN SUCCINATE
