
     RDKit          2D

 32 33  0  0  0  0  0  0  0  0999 V2000
    7.3661   -8.8982    0.0000 O   0  0  0  0  0  0  0  0  0  0  0  0
    3.3037   -8.6965    0.0000 N   0  0  0  0  0  0  0  0  0  0  0  0
    3.2989   -7.8706    0.0000 C   0  0  0  0  0  0  0  0  0  0  0  0
    2.4778   -8.7014    0.0000 C   0  0  0  0  0  0  0  0  0  0  0  0
    2.4778   -7.8706    0.0000 C   0  0  0  0  0  0  0  0  0  0  0  0
    4.0907   -8.9491    0.0000 C   0  0  0  0  0  0  0  0  0  0  0  0
    4.0859   -7.6131    0.0000 S   0  0  0  0  0  0  0  0  0  0  0  0
    1.0348   -7.8706    0.0000 C   0  0  0  0  0  0  0  0  0  0  0  0
    4.5766   -8.2787    0.0000 C   0  0  0  0  0  0  0  0  0  0  0  0
    1.7539   -7.4528    0.0000 N   0  0  0  0  0  0  0  0  0  0  0  0
    0.3207   -7.4576    0.0000 C   0  0  0  0  0  0  0  0  0  0  0  0
    4.0859   -9.7702    0.0000 C   0  0  0  0  0  0  0  0  0  0  0  0
   -0.3886   -7.8706    0.0000 C   0  0  0  0  0  0  0  0  0  0  0  0
    1.8899   -9.2844    0.0000 O   0  0  0  0  0  0  0  0  0  0  0  0
    0.3256   -6.6268    0.0000 C   0  0  0  0  0  0  0  0  0  0  0  0
    1.0348   -8.6965    0.0000 O   0  0  0  0  0  0  0  0  0  0  0  0
    4.7952  -10.1929    0.0000 O   0  0  0  0  0  0  0  0  0  0  0  0
    3.3620  -10.1783    0.0000 O   0  0  0  0  0  0  0  0  0  0  0  0
   -1.1028   -7.4576    0.0000 C   0  0  0  0  0  0  0  0  0  0  0  0
   -0.3886   -6.2139    0.0000 C   0  0  0  0  0  0  0  0  0  0  0  0
   -1.1028   -6.6268    0.0000 C   0  0  0  0  0  0  0  0  0  0  0  0
    5.2908   -8.6917    0.0000 C   0  0  0  0  0  0  0  0  0  0  0  0
    5.2908   -7.8609    0.0000 C   0  0  0  0  0  0  0  0  0  0  0  0
    1.0445   -6.2187    0.0000 O   0  0  0  0  0  0  0  0  0  0  0  0
   -0.3839   -8.6868    0.0000 C   0  0  0  0  0  0  0  0  0  0  0  0
   -1.8122   -7.8706    0.0000 C   0  0  0  0  0  0  0  0  0  0  0  0
    1.7587   -6.6317    0.0000 C   0  0  0  0  0  0  0  0  0  0  0  0
   -1.0882   -9.0998    0.0000 C   0  0  0  0  0  0  0  0  0  0  0  0
    2.4729   -6.2236    0.0000 C   0  0  0  0  0  0  0  0  0  0  0  0
   -1.8073   -8.6965    0.0000 C   0  0  0  0  0  0  0  0  0  0  0  0
    3.2940   -7.0447    0.0000 H   0  0  0  0  0  0  0  0  0  0  0  0
    5.8204  -10.2026    0.0000 Na  0  0  0  0  0 15  0  0  0  0  0  0
  3  2  1  0
  4  2  1  0
  5  4  1  0
  6  2  1  0
  7  3  1  0
  8 10  1  0
  9  6  1  0
  5 10  1  1
 11  8  1  0
  6 12  1  6
 13 11  1  0
 14  4  2  0
 15 11  2  0
 16  8  2  0
 17 12  1  0
 18 12  2  0
 19 13  1  0
 20 15  1  0
 21 19  1  0
 22  9  1  0
 23  9  1  0
 24 15  1  0
 25 13  2  0
 26 19  2  0
 27 24  1  0
 28 25  1  0
 29 27  1  0
 30 28  2  0
  3 31  1  6
  7  9  1  0
  5  3  1  0
 21 20  2  0
 30 26  1  0
M  CHG  2  17  -1  32   1
M  END
> <chembl_id>
CHEMBL1568276

> <chembl_pref_name>
NAFCILLIN SODIUM
