
     RDKit          2D

  6  4  0  0  0  0  0  0  0  0999 V2000
   -1.6583   -1.3417    0.0000 Mg  0  0  0  0  0 15  0  0  0  0  0  0
   -1.4458   -0.3042    0.0000 S   0  0  0  0  0  0  0  0  0  0  0  0
   -2.0583   -0.6625    0.0000 O   0  0  0  0  0  0  0  0  0  0  0  0
   -0.8333   -0.6625    0.0000 O   0  0  0  0  0  0  0  0  0  0  0  0
   -1.0958    0.3125    0.0000 O   0  0  0  0  0  0  0  0  0  0  0  0
   -1.8083    0.3125    0.0000 O   0  0  0  0  0  0  0  0  0  0  0  0
  3  2  1  0
  4  2  1  0
  5  2  2  0
  6  2  2  0
M  CHG  3   1   2   3  -1   4  -1
M  END
> <chembl_id>
CHEMBL2021423

> <chembl_pref_name>
MAGNESIUM SULFATE ANHYDROUS
