
     RDKit          2D

 53 52  0  0  0  0  0  0  0  0999 V2000
    5.3812   -4.7833    0.0000 O   0  0  0  0  0  0  0  0  0  0  0  0
   -6.4496   -1.1294    0.0000 C   0  0  0  0  0  0  0  0  0  0  0  0
   -6.8621   -0.4149    0.0000 C   0  0  0  0  0  0  0  0  0  0  0  0
   -7.6871   -0.4149    0.0000 C   0  0  0  0  0  0  0  0  0  0  0  0
   -8.0996   -1.1294    0.0000 C   0  0  0  0  0  0  0  0  0  0  0  0
   -7.6871   -1.8439    0.0000 C   0  0  0  0  0  0  0  0  0  0  0  0
   -6.8621   -1.8439    0.0000 C   0  0  0  0  0  0  0  0  0  0  0  0
   -6.3101   -2.4569    0.0000 N   0  0  0  0  0  0  0  0  0  0  0  0
   -5.5564   -2.1214    0.0000 C   0  0  0  0  0  0  0  0  0  0  0  0
   -5.6426   -1.3010    0.0000 N   0  0  0  0  0  0  0  0  0  0  0  0
   -8.9246   -1.1294    0.0000 O   0  0  0  0  0  0  0  0  0  0  0  0
   -9.3371   -1.8439    0.0000 C   0  0  0  0  0  0  0  0  0  0  0  0
   -4.8420   -2.5339    0.0000 S   0  0  0  0  0  0  0  0  0  0  0  0
   -4.1275   -2.1215    0.0000 C   0  0  0  0  0  0  0  0  0  0  0  0
   -4.8420   -3.3589    0.0000 O   0  0  0  0  0  0  0  0  0  0  0  0
   -3.4130   -2.5340    0.0000 C   0  0  0  0  0  0  0  0  0  0  0  0
   -3.4131   -3.3590    0.0000 N   0  0  0  0  0  0  0  0  0  0  0  0
   -2.6986   -3.7715    0.0000 C   0  0  0  0  0  0  0  0  0  0  0  0
   -1.9841   -3.3590    0.0000 C   0  0  0  0  0  0  0  0  0  0  0  0
   -1.9841   -2.5340    0.0000 C   0  0  0  0  0  0  0  0  0  0  0  0
   -2.6985   -2.1215    0.0000 C   0  0  0  0  0  0  0  0  0  0  0  0
   -2.6985   -1.2965    0.0000 C   0  0  0  0  0  0  0  0  0  0  0  0
   -1.2696   -2.1215    0.0000 O   0  0  0  0  0  0  0  0  0  0  0  0
   -1.2696   -1.2965    0.0000 C   0  0  0  0  0  0  0  0  0  0  0  0
   -1.2697   -3.7716    0.0000 C   0  0  0  0  0  0  0  0  0  0  0  0
    0.6396    1.6435    0.0000 C   0  0  0  0  0  0  0  0  0  0  0  0
    0.2271    2.3580    0.0000 C   0  0  0  0  0  0  0  0  0  0  0  0
   -0.5980    2.3580    0.0000 C   0  0  0  0  0  0  0  0  0  0  0  0
   -1.0105    1.6435    0.0000 C   0  0  0  0  0  0  0  0  0  0  0  0
   -0.5980    0.9291    0.0000 C   0  0  0  0  0  0  0  0  0  0  0  0
    0.2271    0.9291    0.0000 C   0  0  0  0  0  0  0  0  0  0  0  0
    0.7790    0.3160    0.0000 N   0  0  0  0  0  0  0  0  0  0  0  0
    1.5327    0.6515    0.0000 C   0  0  0  0  0  0  0  0  0  0  0  0
    1.4465    1.4720    0.0000 N   0  0  0  0  0  0  0  0  0  0  0  0
   -1.8355    1.6435    0.0000 O   0  0  0  0  0  0  0  0  0  0  0  0
   -2.2480    0.9291    0.0000 C   0  0  0  0  0  0  0  0  0  0  0  0
    2.2472    0.2390    0.0000 S   0  0  0  0  0  0  0  0  0  0  0  0
    2.9617    0.6515    0.0000 C   0  0  0  0  0  0  0  0  0  0  0  0
    2.2472   -0.5860    0.0000 O   0  0  0  0  0  0  0  0  0  0  0  0
    3.6761    0.2389    0.0000 C   0  0  0  0  0  0  0  0  0  0  0  0
    3.6761   -0.5861    0.0000 N   0  0  0  0  0  0  0  0  0  0  0  0
    4.3905   -0.9986    0.0000 C   0  0  0  0  0  0  0  0  0  0  0  0
    5.1050   -0.5861    0.0000 C   0  0  0  0  0  0  0  0  0  0  0  0
    5.1051    0.2389    0.0000 C   0  0  0  0  0  0  0  0  0  0  0  0
    4.3906    0.6514    0.0000 C   0  0  0  0  0  0  0  0  0  0  0  0
    4.3906    1.4764    0.0000 C   0  0  0  0  0  0  0  0  0  0  0  0
    5.8196    0.6514    0.0000 O   0  0  0  0  0  0  0  0  0  0  0  0
    5.8196    1.4764    0.0000 C   0  0  0  0  0  0  0  0  0  0  0  0
    5.8195   -0.9986    0.0000 C   0  0  0  0  0  0  0  0  0  0  0  0
    2.0927   -3.3550    0.0000 Sr  0  0  0  0  0 15  0  0  0  0  0  0
    4.3515   -3.2885    0.0000 O   0  0  0  0  0  0  0  0  0  0  0  0
    5.4809   -3.5875    0.0000 O   0  0  0  0  0  0  0  0  0  0  0  0
    4.0857   -4.6504    0.0000 O   0  0  0  0  0  0  0  0  0  0  0  0
  2  3  1  0
  3  4  2  0
  4  5  1  0
  5  6  2  0
  6  7  1  0
  7  8  1  0
  2  7  2  0
  2 10  1  0
  8  9  2  0
  9 10  1  0
  5 11  1  0
 11 12  1  0
  9 13  1  0
 13 14  1  6
 13 15  1  0
 14 16  1  0
 16 17  1  0
 16 21  2  0
 17 18  2  0
 18 19  1  0
 19 20  2  0
 20 21  1  0
 21 22  1  0
 20 23  1  0
 23 24  1  0
 19 25  1  0
 26 27  1  0
 27 28  2  0
 28 29  1  0
 29 30  2  0
 30 31  1  0
 31 32  1  0
 26 31  2  0
 26 34  1  0
 32 33  2  0
 33 34  1  0
 29 35  1  0
 35 36  1  0
 33 37  1  0
 37 38  1  6
 37 39  1  0
 38 40  1  0
 40 41  1  0
 40 45  2  0
 41 42  2  0
 42 43  1  0
 43 44  2  0
 44 45  1  0
 45 46  1  0
 44 47  1  0
 47 48  1  0
 43 49  1  0
M  CHG  7  10  -1  13   1  15  -1  34  -1  37   1  39  -1  50   2
M  END
> <chembl_id>
CHEMBL2146140

> <chembl_pref_name>
ESOMEPRAZOLE STRONTIUM
