
     RDKit          2D

 25 27  0  0  0  0  0  0  0  0999 V2000
    5.0889    1.4774    0.0000 Cl  0  0  0  0  0  0  0  0  0  0  0  0
   -7.5382    5.2194    0.0000 C   0  0  0  0  0  0  0  0  0  0  0  0
   -7.5281    3.7194    0.0000 C   0  0  0  0  0  0  0  0  0  0  0  0
   -6.2240    2.9782    0.0000 C   0  0  0  0  0  0  0  0  0  0  0  0
   -4.9300    3.7369    0.0000 C   0  0  0  0  0  0  0  0  0  0  0  0
   -4.9402    5.2369    0.0000 C   0  0  0  0  0  0  0  0  0  0  0  0
   -6.2443    5.9781    0.0000 N   0  0  0  0  0  0  0  0  0  0  0  0
   -6.2139    1.4775    0.0000 C   0  0  0  0  0  0  0  0  0  0  0  0
   -4.9110    0.7341    0.0000 C   0  0  0  0  0  0  0  0  0  0  0  0
   -4.9033   -0.7659    0.0000 C   0  0  0  0  0  0  0  0  0  0  0  0
   -6.1984   -1.5226    0.0000 C   0  0  0  0  0  0  0  0  0  0  0  0
   -7.5013   -0.7793    0.0000 C   0  0  0  0  0  0  0  0  0  0  0  0
   -7.5091    0.7207    0.0000 C   0  0  0  0  0  0  0  0  0  0  0  0
   -6.1922   -2.7226    0.0000 F   0  0  0  0  0  0  0  0  0  0  0  0
   -3.6267    2.9927    0.0000 C   0  0  0  0  0  0  0  0  0  0  0  0
   -3.6187    1.4919    0.0000 O   0  0  0  0  0  0  0  0  0  0  0  0
   -2.3155    0.7475    0.0000 C   0  0  0  0  0  0  0  0  0  0  0  0
   -2.3155   -0.7475    0.0000 C   0  0  0  0  0  0  0  0  0  0  0  0
   -1.0028   -1.5132    0.0000 C   0  0  0  0  0  0  0  0  0  0  0  0
   -1.0028    1.5132    0.0000 C   0  0  0  0  0  0  0  0  0  0  0  0
    0.2917    0.7475    0.0000 C   0  0  0  0  0  0  0  0  0  0  0  0
    0.2917   -0.7475    0.0000 C   0  0  0  0  0  0  0  0  0  0  0  0
    1.7138   -1.2033    0.0000 O   0  0  0  0  0  0  0  0  0  0  0  0
    2.5889    0.0182    0.0000 C   0  0  0  0  0  0  0  0  0  0  0  0
    1.7138    1.2033    0.0000 O   0  0  0  0  0  0  0  0  0  0  0  0
  2  3  1  0
  3  4  1  0
  4  5  1  0
  5  6  1  0
  2  7  1  0
  6  7  1  0
  4  8  1  6
  8  9  2  0
  9 10  1  0
 10 11  2  0
 11 12  1  0
  8 13  1  0
 12 13  2  0
 11 14  1  0
  5 15  1  1
 15 16  1  0
 16 17  1  0
 17 18  2  0
 18 19  1  0
 17 20  1  0
 20 21  2  0
 19 22  2  0
 21 22  1  0
 22 23  1  0
 23 24  1  0
 21 25  1  0
 24 25  1  0
M  END
> <chembl_id>
CHEMBL1708

> <chembl_pref_name>
PAROXETINE HYDROCHLORIDE
