
     RDKit          2D

 50 55  0  0  0  0  0  0  0  0999 V2000
    4.2860   -0.7646    0.0000 N   0  0  0  0  0  0  0  0  0  0  0  0
    4.2860   -1.5896    0.0000 C   0  0  0  0  0  0  0  0  0  0  0  0
    5.0005   -2.0021    0.0000 C   0  0  0  0  0  0  0  0  0  0  0  0
    5.7150   -1.5896    0.0000 C   0  0  0  0  0  0  0  0  0  0  0  0
    5.7150   -0.7646    0.0000 C   0  0  0  0  0  0  0  0  0  0  0  0
    5.0005   -0.3521    0.0000 C   0  0  0  0  0  0  0  0  0  0  0  0
    6.4295   -2.0021    0.0000 N   0  0  0  0  0  0  0  0  0  0  0  0
    3.5716   -0.3521    0.0000 C   0  0  0  0  0  0  0  0  0  0  0  0
    2.8571   -0.7646    0.0000 C   0  0  0  0  0  0  0  0  0  0  0  0
    2.1426   -0.3521    0.0000 C   0  0  0  0  0  0  0  0  0  0  0  0
    1.4282   -0.7646    0.0000 C   0  0  0  0  0  0  0  0  0  0  0  0
    0.7137   -0.3521    0.0000 C   0  0  0  0  0  0  0  0  0  0  0  0
    0.7137    0.4729    0.0000 C   0  0  0  0  0  0  0  0  0  0  0  0
   -0.0400   -0.0165    0.0000 C   0  0  0  0  0  0  0  0  0  0  0  0
   -0.5920   -0.6296    0.0000 C   0  0  0  0  0  0  0  0  0  0  0  0
   -0.1795   -1.3441    0.0000 C   0  0  0  0  0  0  0  0  0  0  0  0
    0.6274   -1.1725    0.0000 C   0  0  0  0  0  0  0  0  0  0  0  0
   -0.4345   -2.1287    0.0000 C   0  0  0  0  0  0  0  0  0  0  0  0
    0.1176   -2.7418    0.0000 C   0  0  0  0  0  0  0  0  0  0  0  0
    0.9245   -2.5702    0.0000 C   0  0  0  0  0  0  0  0  0  0  0  0
    1.1795   -1.7856    0.0000 C   0  0  0  0  0  0  0  0  0  0  0  0
   -0.2949    0.7681    0.0000 C   0  0  0  0  0  0  0  0  0  0  0  0
   -1.1019    0.9397    0.0000 C   0  0  0  0  0  0  0  0  0  0  0  0
   -1.6539    0.3266    0.0000 C   0  0  0  0  0  0  0  0  0  0  0  0
   -1.3990   -0.4581    0.0000 C   0  0  0  0  0  0  0  0  0  0  0  0
    0.1533    0.9687    0.0000 O   0  0  0  0  0  0  0  0  0  0  0  0
    1.4282    0.8855    0.0000 N   0  0  0  0  0  0  0  0  0  0  0  0
    2.1426    0.4730    0.0000 C   0  0  0  0  0  0  0  0  0  0  0  0
    7.1439   -1.5896    0.0000 C   0  0  0  0  0  0  0  0  0  0  0  0
    7.8584   -2.0021    0.0000 C   0  0  0  0  0  0  0  0  0  0  0  0
    7.1439   -0.7646    0.0000 O   0  0  0  0  0  0  0  0  0  0  0  0
    7.8584   -2.8271    0.0000 C   0  0  0  0  0  0  0  0  0  0  0  0
    8.5729   -3.2396    0.0000 C   0  0  0  0  0  0  0  0  0  0  0  0
    9.2873   -2.8271    0.0000 C   0  0  0  0  0  0  0  0  0  0  0  0
    9.2873   -2.0021    0.0000 C   0  0  0  0  0  0  0  0  0  0  0  0
    8.5729   -1.5896    0.0000 C   0  0  0  0  0  0  0  0  0  0  0  0
    7.1439   -3.2396    0.0000 C   0  0  0  0  0  0  0  0  0  0  0  0
    6.4295   -2.8271    0.0000 C   0  0  0  0  0  0  0  0  0  0  0  0
    5.7150   -3.2396    0.0000 C   0  0  0  0  0  0  0  0  0  0  0  0
    5.7150   -4.0646    0.0000 C   0  0  0  0  0  0  0  0  0  0  0  0
    6.4295   -4.4770    0.0000 C   0  0  0  0  0  0  0  0  0  0  0  0
    7.1439   -4.0646    0.0000 C   0  0  0  0  0  0  0  0  0  0  0  0
    5.0005   -4.4771    0.0000 C   0  0  0  0  0  0  0  0  0  0  0  0
    2.8571    0.8855    0.0000 C   0  0  0  0  0  0  0  0  0  0  0  0
    3.5715    0.4730    0.0000 F   0  0  0  0  0  0  0  0  0  0  0  0
    2.8571    1.7105    0.0000 F   0  0  0  0  0  0  0  0  0  0  0  0
    3.0706    0.0886    0.0000 F   0  0  0  0  0  0  0  0  0  0  0  0
    4.2860   -4.0646    0.0000 F   0  0  0  0  0  0  0  0  0  0  0  0
    5.0005   -5.3021    0.0000 F   0  0  0  0  0  0  0  0  0  0  0  0
    4.7870   -3.6802    0.0000 F   0  0  0  0  0  0  0  0  0  0  0  0
  1  8  1  0
  8  9  1  0
  9 10  1  0
 10 11  1  0
 11 12  1  0
 12 13  1  0
 12 14  1  0
 14 15  2  0
 15 16  1  0
 16 17  2  0
 17 12  1  0
 16 18  1  0
 18 19  2  0
 19 20  1  0
 20 21  2  0
 21 17  1  0
 14 22  1  0
 22 23  2  0
 23 24  1  0
 24 25  2  0
 25 15  1  0
 13 26  2  0
 13 27  1  0
 27 28  1  0
  7 29  1  0
 29 30  1  0
 29 31  2  0
 30 32  2  0
 32 33  1  0
 33 34  2  0
 34 35  1  0
 35 36  2  0
 36 30  1  0
 32 37  1  0
 37 38  1  0
 38 39  2  0
 39 40  1  0
 40 41  2  0
 41 42  1  0
 42 37  2  0
 40 43  1  0
 28 44  1  0
  1  2  1  0
  2  3  1  0
 44 45  1  0
  3  4  1  0
 44 46  1  0
  4  5  1  0
 44 47  1  0
  5  6  1  0
 43 48  1  0
  6  1  1  0
 43 49  1  0
  4  7  1  0
 43 50  1  0
M  END
> <chembl_id>
CHEMBL354541

> <chembl_pref_name>
LOMITAPIDE
