
     RDKit          2D

 30 33  0  0  1  0  0  0  0  0999 V2000
    4.6167   -3.5250    0.0000 C   0  0  0  0  0  0  0  0  0  0  0  0
    3.3875   -4.2042    0.0000 C   0  0  0  0  0  0  0  0  0  0  0  0
    2.7667   -4.5542    0.0000 C   0  0  0  0  0  0  0  0  0  0  0  0
    4.6042   -4.2292    0.0000 C   0  0  0  0  0  0  0  0  0  0  0  0
    3.9917   -4.5667    0.0000 C   0  0  0  0  0  0  0  0  0  0  0  0
    5.2917   -3.3125    0.0000 C   0  0  0  0  0  0  0  0  0  0  0  0
    2.7667   -5.2667    0.0000 C   0  0  0  0  0  0  0  0  0  0  0  0
    3.4000   -3.5042    0.0000 C   0  0  0  0  0  0  0  0  0  0  0  0
    4.0042   -3.1750    0.0000 C   0  0  0  0  0  0  0  0  0  0  0  0
    5.7167   -3.8792    0.0000 C   0  0  0  0  0  0  0  0  0  0  0  0
    2.1542   -4.1917    0.0000 C   0  0  0  0  0  0  0  0  0  0  0  0
    5.2792   -4.4542    0.0000 C   0  0  0  0  0  0  0  0  0  0  0  0
    2.1292   -5.6167    0.0000 C   0  0  0  0  0  0  0  0  0  0  0  0
    5.2917   -2.6042    0.0000 C   0  0  0  0  0  0  0  0  0  0  0  0
    3.9917   -5.2792    0.0000 C   0  0  0  0  0  0  0  0  0  0  0  0
    1.5292   -4.5375    0.0000 C   0  0  0  0  0  0  0  0  0  0  0  0
    1.5250   -5.2667    0.0000 C   0  0  0  0  0  0  0  0  0  0  0  0
    3.3750   -5.6292    0.0000 C   0  0  0  0  0  0  0  0  0  0  0  0
    3.4000   -4.9167    0.0000 F   0  0  0  0  0  0  0  0  0  0  0  0
    4.6750   -2.2500    0.0000 O   0  0  0  0  0  0  0  0  0  0  0  0
    0.8917   -5.6167    0.0000 O   0  0  0  0  0  0  0  0  0  0  0  0
    5.9167   -2.9667    0.0000 O   0  0  0  0  0  0  0  0  0  0  0  0
    4.5917   -2.8042    0.0000 C   0  0  0  0  0  0  0  0  0  0  0  0
    2.7792   -3.1500    0.0000 O   0  0  0  0  0  0  0  0  0  0  0  0
    2.7667   -3.8417    0.0000 C   0  0  0  0  0  0  0  0  0  0  0  0
    5.9042   -2.2500    0.0000 C   0  0  0  0  0  0  0  0  0  0  0  0
    6.4292   -3.8875    0.0000 C   0  0  0  0  0  0  0  0  0  0  0  0
    6.5292   -2.5917    0.0000 O   0  0  0  0  0  0  0  0  0  0  0  0
    3.9792   -3.8542    0.0000 H   0  0  0  0  0  0  0  0  0  0  0  0
    4.6250   -4.9417    0.0000 H   0  0  0  0  0  0  0  0  0  0  0  0
  2  8  1  0
  3  2  1  0
  4  1  1  0
  5  4  1  0
  6  1  1  0
  7  3  1  0
  8  9  1  0
  9  1  1  0
 10  6  1  0
 11  3  1  0
 12  4  1  0
 13  7  2  0
 14  6  1  0
 15  5  1  0
 16 11  2  0
 17 16  1  0
 18 15  1  0
  2 19  1  6
 20 14  2  0
 21 17  2  0
  6 22  1  6
  1 23  1  1
  8 24  1  1
  3 25  1  1
 26 14  1  0
 10 27  1  1
 28 26  1  0
  5 29  1  1
  4 30  1  6
 10 12  1  0
  5  2  1  0
 18  7  1  0
 17 13  1  0
M  END
> <chembl_id>
CHEMBL632

> <chembl_pref_name>
BETAMETHASONE
