
     RDKit          2D

 37 40  0  0  1  0  0  0  0  0999 V2000
   -0.1375   -0.8125    0.0000 N   0  0  0  0  0  0  0  0  0  0  0  0
    1.3000   -1.4792    0.0000 N   0  0  0  0  0  0  0  0  0  0  0  0
    0.0667   -1.4917    0.0000 C   0  0  0  0  0  0  0  0  0  0  0  0
    2.5250   -1.4750    0.0000 C   0  0  0  0  0  0  0  0  0  0  0  0
   -0.8500   -0.8000    0.0000 C   0  0  0  0  0  0  0  0  0  0  0  0
   -0.5208   -1.9000    0.0000 N   0  0  0  0  0  0  0  0  0  0  0  0
    6.2042   -1.4542    0.0000 C   0  0  0  0  0  0  0  0  0  0  0  0
    4.9875   -3.5917    0.0000 C   0  0  0  0  0  0  0  0  0  0  0  0
    1.9125   -1.8292    0.0000 C   0  0  0  0  0  0  0  0  0  0  0  0
   -1.0875   -1.4667    0.0000 N   0  0  0  0  0  0  0  0  0  0  0  0
    4.9875   -2.8792    0.0000 C   0  0  0  0  0  0  0  0  0  0  0  0
    5.6000   -1.8167    0.0000 C   0  0  0  0  0  0  0  0  0  0  0  0
    3.1375   -1.8250    0.0000 O   0  0  0  0  0  0  0  0  0  0  0  0
    4.3667   -1.8250    0.0000 C   0  0  0  0  0  0  0  0  0  0  0  0
    0.6875   -1.8375    0.0000 C   0  0  0  0  0  0  0  0  0  0  0  0
    5.6000   -2.5250    0.0000 C   0  0  0  0  0  0  0  0  0  0  0  0
    4.3750   -2.5292    0.0000 C   0  0  0  0  0  0  0  0  0  0  0  0
    4.9792   -1.4625    0.0000 C   0  0  0  0  0  0  0  0  0  0  0  0
    2.5250   -0.7667    0.0000 O   0  0  0  0  0  0  0  0  0  0  0  0
    3.7500   -1.4750    0.0000 C   0  0  0  0  0  0  0  0  0  0  0  0
    1.9167   -2.5417    0.0000 C   0  0  0  0  0  0  0  0  0  0  0  0
   -1.2500   -0.2125    0.0000 O   0  0  0  0  0  0  0  0  0  0  0  0
    6.8167   -1.8042    0.0000 F   0  0  0  0  0  0  0  0  0  0  0  0
    5.6042   -3.9417    0.0000 F   0  0  0  0  0  0  0  0  0  0  0  0
    4.2750   -3.5792    0.0000 F   0  0  0  0  0  0  0  0  0  0  0  0
    4.6375   -4.1958    0.0000 F   0  0  0  0  0  0  0  0  0  0  0  0
    5.8500   -0.8375    0.0000 F   0  0  0  0  0  0  0  0  0  0  0  0
    6.5500   -0.8375    0.0000 F   0  0  0  0  0  0  0  0  0  0  0  0
    1.3042   -2.9000    0.0000 C   0  0  0  0  0  0  0  0  0  0  0  0
    2.5375   -2.8917    0.0000 C   0  0  0  0  0  0  0  0  0  0  0  0
    1.3000   -0.7750    0.0000 C   0  0  0  0  0  0  0  0  0  0  0  0
    1.9250   -3.9542    0.0000 C   0  0  0  0  0  0  0  0  0  0  0  0
    1.9125   -0.4125    0.0000 C   0  0  0  0  0  0  0  0  0  0  0  0
    2.5375   -3.6000    0.0000 C   0  0  0  0  0  0  0  0  0  0  0  0
    1.3125   -3.6042    0.0000 C   0  0  0  0  0  0  0  0  0  0  0  0
    1.9250   -4.6667    0.0000 F   0  0  0  0  0  0  0  0  0  0  0  0
    3.7500   -0.7625    0.0000 C   0  0  0  0  0  0  0  0  0  0  0  0
  2 15  1  0
  3  1  1  0
  4  9  1  0
  5  1  1  0
  6  3  2  0
  7 12  1  0
  8 11  1  0
  9  2  1  0
 10  5  1  0
 11 17  2  0
 12 18  1  0
  4 13  1  6
 14 20  1  0
 15  3  1  0
 16 12  2  0
 17 14  1  0
 18 14  2  0
 19 33  1  0
 20 13  1  0
  9 21  1  6
 22  5  2  0
 23  7  1  0
 24  8  1  0
 25  8  1  0
 26  8  1  0
 27  7  1  0
 28  7  1  0
 29 21  1  0
 30 21  2  0
 31  2  1  0
 32 34  2  0
 33 31  1  0
 34 30  1  0
 35 29  2  0
 36 32  1  0
 20 37  1  6
 10  6  1  0
  4 19  1  0
 35 32  1  0
 11 16  1  0
M  END
> <chembl_id>
CHEMBL1471

> <chembl_pref_name>
APREPITANT
