
     RDKit          2D

 20 22  0  0  1  0  0  0  0  0999 V2000
    3.9417   -5.7417    0.0000 C   0  0  0  0  0  0  0  0  0  0  0  0
    4.5542   -6.0917    0.0000 C   0  0  0  0  0  0  0  0  0  0  0  0
    4.5542   -6.7792    0.0000 C   0  0  0  0  0  0  0  0  0  0  0  0
    3.9417   -5.0375    0.0000 C   0  0  0  0  0  0  0  0  0  0  0  0
    5.1667   -7.1417    0.0000 C   0  0  0  0  0  0  0  0  0  0  0  0
    5.1667   -7.8375    0.0000 C   0  0  0  0  0  0  0  0  0  0  0  0
    5.1750   -5.7417    0.0000 C   0  0  0  0  0  0  0  0  0  0  0  0
    4.5542   -4.6917    0.0000 C   0  0  0  0  0  0  0  0  0  0  0  0
    4.5417   -8.1917    0.0000 C   0  0  0  0  0  0  0  0  0  0  0  0
    3.9750   -7.1250    0.0000 C   0  0  0  0  0  0  0  0  0  0  0  0
    5.1750   -5.0375    0.0000 C   0  0  0  0  0  0  0  0  0  0  0  0
    3.9750   -7.8125    0.0000 C   0  0  0  0  0  0  0  0  0  0  0  0
    4.5542   -3.9167    0.0000 N   0  0  0  0  0  0  0  0  0  0  0  0
    5.7500   -8.1917    0.0000 Cl  0  0  0  0  0  0  0  0  0  0  0  0
    4.5417   -8.9417    0.0000 Cl  0  0  0  0  0  0  0  0  0  0  0  0
    3.3167   -6.0917    0.0000 C   0  0  0  0  0  0  0  0  0  0  0  0
    3.3167   -4.6917    0.0000 C   0  0  0  0  0  0  0  0  0  0  0  0
    5.1750   -3.5500    0.0000 C   0  0  0  0  0  0  0  0  0  0  0  0
    2.7042   -5.7417    0.0000 C   0  0  0  0  0  0  0  0  0  0  0  0
    2.7042   -5.0375    0.0000 C   0  0  0  0  0  0  0  0  0  0  0  0
  2  1  1  0
  2  3  1  1
  4  1  2  0
  5  3  1  0
  6  5  2  0
  7  2  1  0
  8  4  1  0
  9 12  2  0
 10  3  2  0
 11  8  1  0
 12 10  1  0
  8 13  1  1
 14  6  1  0
 15  9  1  0
 16  1  1  0
 17  4  1  0
 18 13  1  0
 19 16  2  0
 20 19  1  0
 20 17  2  0
 11  7  1  0
  9  6  1  0
M  END
> <chembl_id>
CHEMBL809

> <chembl_pref_name>
SERTRALINE
