
     RDKit          2D

  7  6  0  0  0  0  0  0  0  0999 V2000
    9.1181    0.9029    0.0000 S   0  0  0  0  0  0  0  0  0  0  0  0
    9.8326    1.3153    0.0000 F   0  0  0  0  0  0  0  0  0  0  0  0
    8.4036    1.3153    0.0000 F   0  0  0  0  0  0  0  0  0  0  0  0
    8.5343    0.3230    0.0000 F   0  0  0  0  0  0  0  0  0  0  0  0
    9.6979    0.3230    0.0000 F   0  0  0  0  0  0  0  0  0  0  0  0
    9.1141    1.7279    0.0000 F   0  0  0  0  0  0  0  0  0  0  0  0
    9.1141    0.0778    0.0000 F   0  0  0  0  0  0  0  0  0  0  0  0
  1  4  1  0
  1  5  1  0
  1  3  1  0
  1  6  1  0
  1  2  1  0
  1  7  1  0
M  END
> <chembl_id>
CHEMBL1796998

> <chembl_pref_name>
SULFUR HEXAFLUORIDE
