
     RDKit          2D

 22 23  0  0  0  0  0  0  0  0999 V2000
    6.8667    0.3333    0.0000 C   0  0  0  0  0  0  0  0  0  0  0  0
    6.5125    0.9458    0.0000 C   0  0  0  0  0  0  0  0  0  0  0  0
    6.1625    0.3333    0.0000 C   0  0  0  0  0  0  0  0  0  0  0  0
   -1.1958   -1.1000    0.0000 N   0  0  0  0  0  0  0  0  0  0  0  0
    1.2542   -1.1000    0.0000 O   0  0  0  0  0  0  0  0  0  0  0  0
    0.0292   -1.1000    0.0000 C   0  0  0  0  0  0  0  0  0  0  0  0
    1.8667   -0.7417    0.0000 C   0  0  0  0  0  0  0  0  0  0  0  0
   -0.5833   -0.7417    0.0000 C   0  0  0  0  0  0  0  0  0  0  0  0
    0.6417   -0.7417    0.0000 C   0  0  0  0  0  0  0  0  0  0  0  0
    3.0917   -0.0292    0.0000 C   0  0  0  0  0  0  0  0  0  0  0  0
    1.8667   -0.0292    0.0000 C   0  0  0  0  0  0  0  0  0  0  0  0
    2.4792   -1.1000    0.0000 C   0  0  0  0  0  0  0  0  0  0  0  0
    2.4792    0.3208    0.0000 C   0  0  0  0  0  0  0  0  0  0  0  0
    3.0917   -0.7417    0.0000 C   0  0  0  0  0  0  0  0  0  0  0  0
    0.0292   -1.8042    0.0000 O   0  0  0  0  0  0  0  0  0  0  0  0
    5.5500   -0.0250    0.0000 C   0  0  0  0  0  0  0  0  0  0  0  0
    4.9292    0.3333    0.0000 O   0  0  0  0  0  0  0  0  0  0  0  0
   -1.8083   -0.7417    0.0000 C   0  0  0  0  0  0  0  0  0  0  0  0
    3.7042    0.3250    0.0000 C   0  0  0  0  0  0  0  0  0  0  0  0
    4.3167   -0.0292    0.0000 C   0  0  0  0  0  0  0  0  0  0  0  0
   -2.4250   -1.0917    0.0000 C   0  0  0  0  0  0  0  0  0  0  0  0
   -1.8083   -0.0333    0.0000 C   0  0  0  0  0  0  0  0  0  0  0  0
  2  1  1  0
  3  1  1  0
  4  8  1  0
  5  7  1  0
  6  9  1  0
  7 11  2  0
  8  6  1  0
  9  5  1  0
 10 19  1  0
 11 13  1  0
 12 14  2  0
 13 10  2  0
 14 10  1  0
 15  6  1  0
 16  3  1  0
 17 16  1  0
 18  4  1  0
 19 20  1  0
 20 17  1  0
 21 18  1  0
 22 18  1  0
  2  3  1  0
 12  7  1  0
M  END
> <chembl_id>
CHEMBL423

> <chembl_pref_name>
BETAXOLOL
