
     RDKit          2D

 19 18  0  0  0  0  0  0  0  0999 V2000
    5.6792   -5.5292    0.0000 Cl  0  0  0  0  0  0  0  0  0  0  0  0
    2.9500   -5.9250    0.0000 C   0  0  0  0  0  0  0  0  0  0  0  0
    4.7625   -6.9667    0.0000 C   0  0  0  0  0  0  0  0  0  0  0  0
    3.5625   -5.5667    0.0000 C   0  0  0  0  0  0  0  0  0  0  0  0
    2.3208   -5.5917    0.0000 C   0  0  0  0  0  0  0  0  0  0  0  0
    4.1625   -6.6417    0.0000 N   0  0  0  0  0  0  0  0  0  0  0  0
    2.9417   -6.6375    0.0000 C   0  0  0  0  0  0  0  0  0  0  0  0
    4.7792   -7.6500    0.0000 O   0  0  0  0  0  0  0  0  0  0  0  0
    3.5542   -6.9875    0.0000 C   0  0  0  0  0  0  0  0  0  0  0  0
    3.5375   -4.8292    0.0000 C   0  0  0  0  0  0  0  0  0  0  0  0
    2.3042   -4.8792    0.0000 C   0  0  0  0  0  0  0  0  0  0  0  0
    2.9375   -4.5042    0.0000 C   0  0  0  0  0  0  0  0  0  0  0  0
    5.9625   -6.9000    0.0000 N   0  0  0  0  0  0  0  0  0  0  0  0
    4.1750   -5.9167    0.0000 O   0  0  0  0  0  0  0  0  0  0  0  0
    2.3292   -7.0000    0.0000 O   0  0  0  0  0  0  0  0  0  0  0  0
    5.3500   -6.5792    0.0000 C   0  0  0  0  0  0  0  0  0  0  0  0
    1.6792   -4.5542    0.0000 O   0  0  0  0  0  0  0  0  0  0  0  0
    4.8917   -5.5667    0.0000 C   0  0  0  0  0  0  0  0  0  0  0  0
    1.1125   -4.9292    0.0000 C   0  0  0  0  0  0  0  0  0  0  0  0
  3  6  1  0
  4  2  2  0
  5  2  1  0
  6  9  1  0
  7  2  1  0
  8  3  2  0
  9  7  1  0
 10  4  1  0
 11  5  2  0
 12 11  1  0
 13 16  1  0
 14  4  1  0
 15  7  1  0
 16  3  1  0
 17 11  1  0
 18 14  1  0
 19 17  1  0
 12 10  2  0
M  END
> <chembl_id>
CHEMBL1200461

> <chembl_pref_name>
MIDODRINE HYDROCHLORIDE
