
     RDKit          2D

 14 14  0  0  0  0  0  0  0  0999 V2000
    4.2042   -4.1792    0.0000 P   0  0  0  0  0  0  0  0  0  0  0  0
    4.2042   -4.8875    0.0000 N   0  0  0  0  0  0  0  0  0  0  0  0
    3.6000   -3.8167    0.0000 O   0  0  0  0  0  0  0  0  0  0  0  0
    4.4542   -3.5125    0.0000 O   0  0  0  0  0  0  0  0  0  0  0  0
    4.8292   -4.5042    0.0000 N   0  0  0  0  0  0  0  0  0  0  0  0
    4.8042   -5.2375    0.0000 C   0  0  0  0  0  0  0  0  0  0  0  0
    5.4292   -4.1292    0.0000 C   0  0  0  0  0  0  0  0  0  0  0  0
    3.5875   -5.2375    0.0000 C   0  0  0  0  0  0  0  0  0  0  0  0
    6.0375   -5.2417    0.0000 Cl  0  0  0  0  0  0  0  0  0  0  0  0
    6.6625   -4.0792    0.0000 Cl  0  0  0  0  0  0  0  0  0  0  0  0
    2.9750   -4.8750    0.0000 C   0  0  0  0  0  0  0  0  0  0  0  0
    2.9792   -4.1625    0.0000 C   0  0  0  0  0  0  0  0  0  0  0  0
    5.4292   -4.8875    0.0000 C   0  0  0  0  0  0  0  0  0  0  0  0
    6.0667   -4.4542    0.0000 C   0  0  0  0  0  0  0  0  0  0  0  0
  2  1  1  0
  3  1  1  0
  4  1  2  0
  5  1  1  0
  6  2  1  0
  7  5  1  0
  8  2  1  0
  9 13  1  0
 10 14  1  0
 11 12  1  0
 12  3  1  0
 13  6  1  0
 14  7  1  0
 11  8  1  0
M  END
> <chembl_id>
CHEMBL1024

> <chembl_pref_name>
IFOSFAMIDE
