
     RDKit          2D

 17 18  0  0  0  0  0  0  0  0999 V2000
    8.6750   -3.6917    0.0000 S   0  0  0  0  0  0  0  0  0  0  0  0
    9.2875   -3.3333    0.0000 N   0  0  0  0  0  0  0  0  0  0  0  0
    8.0583   -3.3375    0.0000 C   0  0  0  0  0  0  0  0  0  0  0  0
    9.9000   -3.6875    0.0000 C   0  0  0  0  0  0  0  0  0  0  0  0
    9.0250   -4.3042    0.0000 O   0  0  0  0  0  0  0  0  0  0  0  0
    8.3167   -4.3042    0.0000 O   0  0  0  0  0  0  0  0  0  0  0  0
   10.5083   -3.3292    0.0000 N   0  0  0  0  0  0  0  0  0  0  0  0
    7.4458   -3.6917    0.0000 C   0  0  0  0  0  0  0  0  0  0  0  0
    8.0583   -2.6250    0.0000 C   0  0  0  0  0  0  0  0  0  0  0  0
    6.8333   -2.6250    0.0000 C   0  0  0  0  0  0  0  0  0  0  0  0
    6.2208   -2.2708    0.0000 N   0  0  0  0  0  0  0  0  0  0  0  0
    7.4458   -2.2708    0.0000 C   0  0  0  0  0  0  0  0  0  0  0  0
    6.8333   -3.3375    0.0000 C   0  0  0  0  0  0  0  0  0  0  0  0
   11.1250   -3.6792    0.0000 C   0  0  0  0  0  0  0  0  0  0  0  0
    9.9000   -4.3958    0.0000 C   0  0  0  0  0  0  0  0  0  0  0  0
   11.1292   -4.3917    0.0000 C   0  0  0  0  0  0  0  0  0  0  0  0
   10.5167   -4.7458    0.0000 C   0  0  0  0  0  0  0  0  0  0  0  0
  2  1  1  0
  3  1  1  0
  4  2  1  0
  5  1  2  0
  6  1  2  0
  7  4  1  0
  8  3  2  0
  9  3  1  0
 10 13  2  0
 11 10  1  0
 12  9  2  0
 13  8  1  0
 14  7  2  0
 15  4  2  0
 16 14  1  0
 17 15  1  0
 10 12  1  0
 16 17  2  0
M  END
> <chembl_id>
CHEMBL700

> <chembl_pref_name>
SULFAPYRIDINE
