
     RDKit          2D

 37 40  0  0  0  0  0  0  0  0999 V2000
   10.0750   -4.4567    0.0000 N   0  0  0  0  0  0  0  0  0  0  0  0
    9.0521   -3.8662    0.0000 C   0  0  0  0  0  0  0  0  0  0  0  0
    8.0293   -4.4567    0.0000 C   0  0  0  0  0  0  0  0  0  0  0  0
    7.0064   -3.8662    0.0000 C   0  0  0  0  0  0  0  0  0  0  0  0
    5.9835   -4.4567    0.0000 C   0  0  0  0  0  0  0  0  0  0  0  0
    5.9835   -5.6378    0.0000 C   0  0  0  0  0  0  0  0  0  0  0  0
    4.9607   -6.2284    0.0000 N   0  0  0  0  0  0  0  0  0  0  0  0
    3.8817   -5.7480    0.0000 N   0  0  0  0  0  0  0  0  0  0  0  0
    3.0914   -6.6257    0.0000 C   0  0  0  0  0  0  0  0  0  0  0  0
    3.6819   -7.6486    0.0000 C   0  0  0  0  0  0  0  0  0  0  0  0
    4.8372   -7.4030    0.0000 C   0  0  0  0  0  0  0  0  0  0  0  0
    7.0064   -6.2284    0.0000 C   0  0  0  0  0  0  0  0  0  0  0  0
    8.0293   -5.6378    0.0000 C   0  0  0  0  0  0  0  0  0  0  0  0
   11.0979   -3.8662    0.0000 S   0  0  0  0  0  0  0  0  0  0  0  0
   10.5073   -2.8433    0.0000 C   0  0  0  0  0  0  0  0  0  0  0  0
   11.0979   -1.8204    0.0000 C   0  0  0  0  0  0  0  0  0  0  0  0
   10.5073   -0.7976    0.0000 N   0  0  0  0  0  0  0  0  0  0  0  0
    9.3262   -0.7976    0.0000 C   0  0  0  0  0  0  0  0  0  0  0  0
    8.7357   -1.8204    0.0000 C   0  0  0  0  0  0  0  0  0  0  0  0
    9.3262   -2.8433    0.0000 C   0  0  0  0  0  0  0  0  0  0  0  0
   11.6884   -4.8890    0.0000 O   0  0  0  0  0  0  0  0  0  0  0  0
   12.1207   -3.2756    0.0000 O   0  0  0  0  0  0  0  0  0  0  0  0
   10.0750   -5.6378    0.0000 C   0  0  0  0  0  0  0  0  0  0  0  0
   11.0979   -6.2284    0.0000 C   0  0  0  0  0  0  0  0  0  0  0  0
   12.1207   -5.6378    0.0000 C   0  0  0  0  0  0  0  0  0  0  0  0
   13.1436   -6.2284    0.0000 C   0  0  0  0  0  0  0  0  0  0  0  0
   13.1436   -7.4095    0.0000 C   0  0  0  0  0  0  0  0  0  0  0  0
   12.1207   -8.0000    0.0000 C   0  0  0  0  0  0  0  0  0  0  0  0
   12.1207   -9.1811    0.0000 N   0  0  0  0  0  0  0  0  0  0  0  0
   13.1436   -9.7717    0.0000 C   0  0  0  0  0  0  0  0  0  0  0  0
   14.1665   -9.1811    0.0000 C   0  0  0  0  0  0  0  0  0  0  0  0
   14.1665   -8.0000    0.0000 O   0  0  0  0  0  0  0  0  0  0  0  0
   15.1893   -9.7717    0.0000 O   0  0  0  0  0  0  0  0  0  0  0  0
   16.2122   -9.1811    0.0000 C   0  0  0  0  0  0  0  0  0  0  0  0
   16.2122   -8.0000    0.0000 C   0  0  0  0  0  0  0  0  0  0  0  0
   17.2350   -9.7717    0.0000 C   0  0  0  0  0  0  0  0  0  0  0  0
   11.0979   -7.4095    0.0000 N   0  0  0  0  0  0  0  0  0  0  0  0
  1  2  1  0
  2  3  1  0
  3  4  1  0
  4  5  2  0
  5  6  1  0
  6  7  1  0
  7  8  1  0
  8  9  2  0
 10  9  1  0
 11 10  2  0
  7 11  1  0
 12  6  2  0
 13 12  1  0
  3 13  2  0
  1 14  1  0
 14 15  1  0
 15 16  2  0
 16 17  1  0
 17 18  2  0
 19 18  1  0
 20 19  2  0
 15 20  1  0
 14 21  2  0
 14 22  2  0
  1 23  1  0
 23 24  1  0
 24 25  2  0
 25 26  1  0
 26 27  2  0
 28 27  1  0
 28 29  1  0
 29 30  1  0
 30 31  1  0
 31 32  2  0
 31 33  1  0
 33 34  1  0
 34 35  1  0
 34 36  1  0
 37 28  2  0
 24 37  1  0
M  END
> <chembl_id>
CHEMBL4297666

> <chembl_pref_name>
OMIDENEPAG ISOPROPYL
