
     RDKit          2D

 25 26  0  0  0  0  0  0  0  0999 V2000
   -0.8333    2.5833    0.0000 C   0  0  0  0  0  0  0  0  0  0  0  0
   -0.7000   -2.5167    0.0000 C   0  0  0  0  0  0  0  0  0  0  0  0
   -0.3458    1.7458    0.0000 C   0  0  0  0  0  0  0  0  0  0  0  0
    0.6292    1.7458    0.0000 C   0  0  0  0  0  0  0  0  0  0  0  0
   -0.2208   -3.3500    0.0000 O   0  0  0  0  0  0  0  0  0  0  0  0
   -1.6833   -2.5167    0.0000 C   0  0  0  0  0  0  0  0  0  0  0  0
    1.1375    0.8833    0.0000 C   0  0  0  0  0  0  0  0  0  0  0  0
   -1.3375    3.4458    0.0000 F   0  0  0  0  0  0  0  0  0  0  0  0
   -1.6625    2.0833    0.0000 F   0  0  0  0  0  0  0  0  0  0  0  0
    0.0000    3.0875    0.0000 F   0  0  0  0  0  0  0  0  0  0  0  0
    2.1292    0.9000    0.0000 C   0  0  0  0  0  0  0  0  0  0  0  0
   -0.2458   -1.6542    0.0000 O   0  0  0  0  0  0  0  0  0  0  0  0
    2.1667   -0.7917    0.0000 N   0  0  0  0  0  0  0  0  0  0  0  0
   -0.8000    0.8833    0.0000 C   0  0  0  0  0  0  0  0  0  0  0  0
    2.6375    0.0375    0.0000 C   0  0  0  0  0  0  0  0  0  0  0  0
   -0.2958    0.0500    0.0000 C   0  0  0  0  0  0  0  0  0  0  0  0
    0.6542    0.0500    0.0000 C   0  0  0  0  0  0  0  0  0  0  0  0
   -2.1708   -1.6792    0.0000 C   0  0  0  0  0  0  0  0  0  0  0  0
   -2.1458   -3.3625    0.0000 C   0  0  0  0  0  0  0  0  0  0  0  0
    1.2000   -0.7917    0.0000 C   0  0  0  0  0  0  0  0  0  0  0  0
    0.7292   -1.6542    0.0000 C   0  0  0  0  0  0  0  0  0  0  0  0
    3.6167    0.0375    0.0000 C   0  0  0  0  0  0  0  0  0  0  0  0
   -3.1500   -1.6792    0.0000 C   0  0  0  0  0  0  0  0  0  0  0  0
   -3.1208   -3.3625    0.0000 C   0  0  0  0  0  0  0  0  0  0  0  0
   -3.6208   -2.5292    0.0000 C   0  0  0  0  0  0  0  0  0  0  0  0
  2 12  1  0
  3  1  1  0
  4  3  1  0
  5  2  2  0
  6  2  1  0
  7  4  2  0
  8  1  1  0
  9  1  1  0
 10  1  1  0
 11  7  1  0
 12 21  1  0
 13 15  1  0
 14  3  2  0
 15 11  1  0
 16 14  1  0
 17 16  2  0
 18  6  2  0
 19  6  1  0
 20 13  1  0
 21 20  1  0
 22 15  1  0
 23 18  1  0
 24 19  2  0
 25 24  1  0
  7 17  1  0
 23 25  2  0
M  END
> <chembl_id>
CHEMBL400599

> <chembl_pref_name>
BENFLUOREX
