
     RDKit          2D

 34 33  0  0  0  0  0  0  0  0999 V2000
    5.4917   -0.0417    0.0000 C   0  0  0  0  0  0  0  0  0  0  0  0
    6.1083   -0.4000    0.0000 C   0  0  0  0  0  0  0  0  0  0  0  0
    4.8750   -0.4000    0.0000 C   0  0  0  0  0  0  0  0  0  0  0  0
    6.7208   -0.0417    0.0000 C   0  0  0  0  0  0  0  0  0  0  0  0
    5.4875    0.6708    0.0000 O   0  0  0  0  0  0  0  0  0  0  0  0
    6.1083   -1.1125    0.0000 O   0  0  0  0  0  0  0  0  0  0  0  0
    3.6458   -0.4042    0.0000 N   0  0  0  0  0  0  0  0  0  0  0  0
    6.7167    0.6708    0.0000 O   0  0  0  0  0  0  0  0  0  0  0  0
    4.8750   -1.1125    0.0000 O   0  0  0  0  0  0  0  0  0  0  0  0
    4.2625   -0.0500    0.0000 C   0  0  0  0  0  0  0  0  0  0  0  0
    7.9458   -0.0333    0.0000 O   0  0  0  0  0  0  0  0  0  0  0  0
    7.3375   -0.3917    0.0000 C   0  0  0  0  0  0  0  0  0  0  0  0
    3.0333   -0.0542    0.0000 C   0  0  0  0  0  0  0  0  0  0  0  0
   -0.8667    0.5750    0.0000 C   0  0  0  0  0  0  0  0  0  0  0  0
   -1.4833   -0.4958    0.0000 C   0  0  0  0  0  0  0  0  0  0  0  0
   -0.2500   -0.4958    0.0000 C   0  0  0  0  0  0  0  0  0  0  0  0
   -1.4833    0.2208    0.0000 C   0  0  0  0  0  0  0  0  0  0  0  0
   -0.2500    0.2208    0.0000 C   0  0  0  0  0  0  0  0  0  0  0  0
   -0.8667   -0.8542    0.0000 C   0  0  0  0  0  0  0  0  0  0  0  0
   -0.8667    1.2875    0.0000 C   0  0  0  0  0  0  0  0  0  0  0  0
   -2.0958   -0.8500    0.0000 N   0  0  0  0  0  0  0  0  0  0  0  0
    0.3667   -0.8458    0.0000 C   0  0  0  0  0  0  0  0  0  0  0  0
   -2.7125   -0.4917    0.0000 C   0  0  0  0  0  0  0  0  0  0  0  0
    1.5917   -0.8417    0.0000 C   0  0  0  0  0  0  0  0  0  0  0  0
    0.9792   -0.4875    0.0000 N   0  0  0  0  0  0  0  0  0  0  0  0
   -1.4875    1.6417    0.0000 O   0  0  0  0  0  0  0  0  0  0  0  0
   -2.0958    0.5708    0.0000 I   0  0  0  0  0  0  0  0  0  0  0  0
    0.3667    0.5792    0.0000 I   0  0  0  0  0  0  0  0  0  0  0  0
   -2.7125    0.2208    0.0000 O   0  0  0  0  0  0  0  0  0  0  0  0
    1.5958   -1.5542    0.0000 O   0  0  0  0  0  0  0  0  0  0  0  0
   -0.8667   -1.5625    0.0000 I   0  0  0  0  0  0  0  0  0  0  0  0
   -0.2542    1.6375    0.0000 O   0  0  0  0  0  0  0  0  0  0  0  0
   -3.3250   -0.8500    0.0000 C   0  0  0  0  0  0  0  0  0  0  0  0
    2.2042   -0.4875    0.0000 C   0  0  0  0  0  0  0  0  0  0  0  0
  2  1  1  0
  3  1  1  0
  4  2  1  0
  1  5  1  1
  2  6  1  1
  7 10  1  0
  4  8  1  6
  3  9  1  1
 10  3  1  0
 11 12  1  0
 12  4  1  0
 13  7  1  0
 15 17  2  0
 16 18  1  0
 17 14  1  0
 18 14  2  0
 19 15  1  0
 20 14  1  0
 21 15  1  0
 22 16  1  0
 23 21  1  0
 24 25  1  0
 25 22  1  0
 26 20  2  0
 27 17  1  0
 28 18  1  0
 29 23  2  0
 30 24  2  0
 31 19  1  0
 32 20  1  0
 33 23  1  0
 34 24  1  0
 16 19  2  0
M  END
> <chembl_id>
CHEMBL1201172

> <chembl_pref_name>
IODAMIDE MEGLUMINE
