
     RDKit          2D

 20 23  0  0  0  0  0  0  0  0999 V2000
    7.8187    5.6179    0.0000 C   0  0  0  0  0  0  0  0  0  0  0  0
    7.1042    6.0304    0.0000 C   0  0  0  0  0  0  0  0  0  0  0  0
    6.3897    5.6178    0.0000 C   0  0  0  0  0  0  0  0  0  0  0  0
    6.3897    4.7928    0.0000 C   0  0  0  0  0  0  0  0  0  0  0  0
    7.1042    4.3804    0.0000 C   0  0  0  0  0  0  0  0  0  0  0  0
    7.8186    4.7929    0.0000 C   0  0  0  0  0  0  0  0  0  0  0  0
    8.6032    4.5379    0.0000 N   0  0  0  0  0  0  0  0  0  0  0  0
    9.0882    5.2053    0.0000 C   0  0  0  0  0  0  0  0  0  0  0  0
    8.6033    5.8728    0.0000 C   0  0  0  0  0  0  0  0  0  0  0  0
    8.9388    6.6265    0.0000 C   0  0  0  0  0  0  0  0  0  0  0  0
    9.7593    6.7127    0.0000 N   0  0  0  0  0  0  0  0  0  0  0  0
   10.2442    6.0453    0.0000 C   0  0  0  0  0  0  0  0  0  0  0  0
    9.9086    5.2916    0.0000 C   0  0  0  0  0  0  0  0  0  0  0  0
    5.6752    4.3803    0.0000 C   0  0  0  0  0  0  0  0  0  0  0  0
    4.9607    4.7929    0.0000 C   0  0  0  0  0  0  0  0  0  0  0  0
    4.2463    4.3804    0.0000 N   0  0  0  0  0  0  0  0  0  0  0  0
    4.2463    3.5553    0.0000 C   0  0  0  0  0  0  0  0  0  0  0  0
    4.9608    3.1428    0.0000 C   0  0  0  0  0  0  0  0  0  0  0  0
    5.6752    3.5553    0.0000 C   0  0  0  0  0  0  0  0  0  0  0  0
    3.5318    3.1428    0.0000 F   0  0  0  0  0  0  0  0  0  0  0  0
  1  2  1  0
  2  3  2  0
  3  4  1  0
  4  5  2  0
  5  6  1  0
  6  7  1  0
  1  6  2  0
  1  9  1  0
  7  8  1  0
 13  8  1  0
  8  9  2  0
  9 10  1  0
 10 11  2  0
 11 12  1  0
 12 13  2  0
  4 14  1  0
 14 15  1  0
 14 19  2  0
 15 16  2  0
 16 17  1  0
 17 18  2  0
 18 19  1  0
 17 20  1  0
M  END
> <chembl_id>
CHEMBL3546271

> <chembl_pref_name>
FLORTAUCIPIR
