
     RDKit          2D

 11  9  0  0  0  0  0  0  0  0999 V2000
    0.5875   -0.4375    0.0000 Cl  0  0  0  0  0  0  0  0  0  0  0  0
    3.1292   -1.1917    0.0000 C   0  0  0  0  0  0  0  0  0  0  0  0
    0.6667   -1.1542    0.0000 N   0  0  0  0  0  0  0  0  0  0  0  0
    3.1542   -1.8917    0.0000 O   0  0  0  0  0  0  0  0  0  0  0  0
    3.7417   -0.8167    0.0000 N   0  0  0  0  0  0  0  0  0  0  0  0
    2.5167   -0.8417    0.0000 O   0  0  0  0  0  0  0  0  0  0  0  0
    1.9042   -1.1792    0.0000 C   0  0  0  0  0  0  0  0  0  0  0  0
    1.2875   -0.8292    0.0000 C   0  0  0  0  0  0  0  0  0  0  0  0
    1.0167   -1.7667    0.0000 C   0  0  0  0  0  0  0  0  0  0  0  0
    0.3042   -1.7667    0.0000 C   0  0  0  0  0  0  0  0  0  0  0  0
    0.0625   -0.7792    0.0000 C   0  0  0  0  0  0  0  0  0  0  0  0
  3  8  1  0
  4  2  2  0
  5  2  1  0
  6  2  1  0
  7  6  1  0
  8  7  1  0
  9  3  1  0
 10  3  1  0
 11  3  1  0
M  CHG  2   1  -1   3   1
M  END
> <chembl_id>
CHEMBL14

> <chembl_pref_name>
CARBACHOL
