
     RDKit          2D

 29 30  0  0  0  0  0  0  0  0999 V2000
   -2.1333  -13.0125    0.0000 S   0  0  0  0  0  0  0  0  0  0  0  0
    7.0250  -14.7917    0.0000 S   0  0  0  0  0  0  0  0  0  0  0  0
    6.4250  -15.1500    0.0000 N   0  0  0  0  0  0  0  0  0  0  0  0
   -1.5083  -12.6458    0.0000 N   0  0  0  0  0  0  0  0  0  0  0  0
    7.3750  -14.1792    0.0000 O   0  0  0  0  0  0  0  0  0  0  0  0
    6.6667  -14.1792    0.0000 O   0  0  0  0  0  0  0  0  0  0  0  0
   -1.7833  -13.6250    0.0000 O   0  0  0  0  0  0  0  0  0  0  0  0
   -2.4958  -13.6250    0.0000 O   0  0  0  0  0  0  0  0  0  0  0  0
   -0.8875  -13.0125    0.0000 C   0  0  0  0  0  0  0  0  0  0  0  0
    5.7917  -14.7917    0.0000 C   0  0  0  0  0  0  0  0  0  0  0  0
    2.1667  -14.0625    0.0000 N   0  0  0  0  0  0  0  0  0  0  0  0
   -2.7583  -12.6458    0.0000 C   0  0  0  0  0  0  0  0  0  0  0  0
    7.6542  -15.1500    0.0000 C   0  0  0  0  0  0  0  0  0  0  0  0
    0.3625  -13.7375    0.0000 C   0  0  0  0  0  0  0  0  0  0  0  0
    4.5500  -14.0750    0.0000 C   0  0  0  0  0  0  0  0  0  0  0  0
    1.5875  -13.7375    0.0000 C   0  0  0  0  0  0  0  0  0  0  0  0
    0.9417  -14.0917    0.0000 C   0  0  0  0  0  0  0  0  0  0  0  0
    5.1792  -15.1750    0.0000 C   0  0  0  0  0  0  0  0  0  0  0  0
    5.7917  -14.0750    0.0000 C   0  0  0  0  0  0  0  0  0  0  0  0
   -0.2708  -12.6375    0.0000 C   0  0  0  0  0  0  0  0  0  0  0  0
   -0.8875  -13.7375    0.0000 C   0  0  0  0  0  0  0  0  0  0  0  0
   -0.2708  -14.0917    0.0000 C   0  0  0  0  0  0  0  0  0  0  0  0
    0.3625  -13.0125    0.0000 C   0  0  0  0  0  0  0  0  0  0  0  0
    4.5500  -14.7917    0.0000 C   0  0  0  0  0  0  0  0  0  0  0  0
    5.1792  -13.7125    0.0000 C   0  0  0  0  0  0  0  0  0  0  0  0
    3.9750  -13.7375    0.0000 O   0  0  0  0  0  0  0  0  0  0  0  0
    3.3792  -14.0625    0.0000 C   0  0  0  0  0  0  0  0  0  0  0  0
    2.7667  -13.7375    0.0000 C   0  0  0  0  0  0  0  0  0  0  0  0
    2.1667  -14.7375    0.0000 C   0  0  0  0  0  0  0  0  0  0  0  0
  2  3  1  0
  3 10  1  0
  4  1  1  0
  5  2  2  0
  6  2  2  0
  7  1  2  0
  8  1  2  0
  9  4  1  0
 10 19  1  0
 11 16  1  0
 12  1  1  0
 13  2  1  0
 14 22  1  0
 15 26  1  0
 16 17  1  0
 17 14  1  0
 18 24  1  0
 19 25  2  0
 20  9  2  0
 21  9  1  0
 22 21  2  0
 23 20  1  0
 24 15  2  0
 25 15  1  0
 26 27  1  0
 27 28  1  0
 28 11  1  0
 29 11  1  0
 23 14  2  0
 18 10  2  0
M  END
> <chembl_id>
CHEMBL473

> <chembl_pref_name>
DOFETILIDE
