
     RDKit          2D

 38 41  0  0  1  0  0  0  0  0999 V2000
    1.1000   -2.8417    0.0000 C   0  0  0  0  0  0  0  0  0  0  0  0
    1.7792   -2.6167    0.0000 C   0  0  0  0  0  0  0  0  0  0  0  0
   -0.7583   -3.9125    0.0000 C   0  0  0  0  0  0  0  0  0  0  0  0
    0.4792   -3.9125    0.0000 C   0  0  0  0  0  0  0  0  0  0  0  0
    1.1000   -3.5542    0.0000 C   0  0  0  0  0  0  0  0  0  0  0  0
   -0.1458   -3.5542    0.0000 C   0  0  0  0  0  0  0  0  0  0  0  0
   -0.7583   -4.6375    0.0000 C   0  0  0  0  0  0  0  0  0  0  0  0
    0.4792   -2.4792    0.0000 C   0  0  0  0  0  0  0  0  0  0  0  0
   -0.1458   -2.8417    0.0000 C   0  0  0  0  0  0  0  0  0  0  0  0
    1.7750   -1.9125    0.0000 C   0  0  0  0  0  0  0  0  0  0  0  0
   -1.3833   -4.9917    0.0000 C   0  0  0  0  0  0  0  0  0  0  0  0
    2.1917   -3.2000    0.0000 C   0  0  0  0  0  0  0  0  0  0  0  0
    2.3917   -2.2625    0.0000 O   0  0  0  0  0  0  0  0  0  0  0  0
    1.7792   -3.7792    0.0000 C   0  0  0  0  0  0  0  0  0  0  0  0
    0.4792   -4.6375    0.0000 C   0  0  0  0  0  0  0  0  0  0  0  0
   -1.3833   -3.5542    0.0000 C   0  0  0  0  0  0  0  0  0  0  0  0
    3.0042   -2.6125    0.0000 C   0  0  0  0  0  0  0  0  0  0  0  0
   -0.1375   -4.9917    0.0000 C   0  0  0  0  0  0  0  0  0  0  0  0
   -2.0000   -4.6292    0.0000 C   0  0  0  0  0  0  0  0  0  0  0  0
    3.6125   -1.5417    0.0000 C   0  0  0  0  0  0  0  0  0  0  0  0
    2.3792   -1.5542    0.0000 C   0  0  0  0  0  0  0  0  0  0  0  0
    1.1542   -1.5542    0.0000 O   0  0  0  0  0  0  0  0  0  0  0  0
    3.0000   -1.9042    0.0000 O   0  0  0  0  0  0  0  0  0  0  0  0
    3.0042   -3.3167    0.0000 O   0  0  0  0  0  0  0  0  0  0  0  0
    3.6042   -0.8375    0.0000 O   0  0  0  0  0  0  0  0  0  0  0  0
   -2.6250   -5.0000    0.0000 O   0  0  0  0  0  0  0  0  0  0  0  0
    1.1000   -2.1167    0.0000 C   0  0  0  0  0  0  0  0  0  0  0  0
   -2.0083   -3.9125    0.0000 C   0  0  0  0  0  0  0  0  0  0  0  0
   -0.7708   -2.4750    0.0000 O   0  0  0  0  0  0  0  0  0  0  0  0
   -0.7625   -3.1917    0.0000 C   0  0  0  0  0  0  0  0  0  0  0  0
    3.6167   -2.2542    0.0000 C   0  0  0  0  0  0  0  0  0  0  0  0
    4.2250   -1.8917    0.0000 C   0  0  0  0  0  0  0  0  0  0  0  0
    4.2292   -2.6042    0.0000 C   0  0  0  0  0  0  0  0  0  0  0  0
    4.8375   -1.5375    0.0000 C   0  0  0  0  0  0  0  0  0  0  0  0
    4.8417   -2.2417    0.0000 C   0  0  0  0  0  0  0  0  0  0  0  0
   -0.1458   -4.1542    0.0000 H   0  0  0  0  0  0  0  0  0  0  0  0
    1.1000   -4.1250    0.0000 H   0  0  0  0  0  0  0  0  0  0  0  0
    0.4542   -3.2042    0.0000 H   0  0  0  0  0  0  0  0  0  0  0  0
  2  1  1  0
  3  6  1  0
  4  5  1  0
  5  1  1  0
  6  9  1  0
  7  3  1  0
  8  1  1  0
  9  8  1  0
 10  2  1  0
 11  7  2  0
 12  2  1  0
  2 13  1  6
 14  5  1  0
 15  4  1  0
 16  3  1  0
 17 13  1  0
 18 15  1  0
 19 28  1  0
 20 23  1  0
 21 10  1  0
 22 10  2  0
 23 21  1  0
 24 17  2  0
 25 20  2  0
 26 19  2  0
  1 27  1  1
 28 16  1  0
  9 29  1  1
  3 30  1  1
 31 17  1  0
 32 20  1  0
 33 31  1  0
 34 32  1  0
 35 33  1  0
  6 36  1  6
  5 37  1  6
  4 38  1  1
 14 12  1  0
  6  4  1  0
  7 18  1  0
 19 11  1  0
M  END
> <chembl_id>
CHEMBL1200953

> <chembl_pref_name>
HYDROCORTISONE PROBUTATE
