
     RDKit          2D

 25 28  0  0  0  0  0  0  0  0999 V2000
   -0.1145    0.9068    0.0000 C   0  0  0  0  0  0  0  0  0  0  0  0
   -0.8290    0.4943    0.0000 C   0  0  0  0  0  0  0  0  0  0  0  0
   -0.8290   -0.3307    0.0000 N   0  0  0  0  0  0  0  0  0  0  0  0
   -0.1145   -0.7432    0.0000 C   0  0  0  0  0  0  0  0  0  0  0  0
    0.6000   -0.3307    0.0000 C   0  0  0  0  0  0  0  0  0  0  0  0
    0.6000    0.4943    0.0000 N   0  0  0  0  0  0  0  0  0  0  0  0
    1.3144   -0.7432    0.0000 C   0  0  0  0  0  0  0  0  0  0  0  0
    2.0289   -0.3308    0.0000 C   0  0  0  0  0  0  0  0  0  0  0  0
    2.0289    0.4942    0.0000 C   0  0  0  0  0  0  0  0  0  0  0  0
    1.3144    0.9068    0.0000 C   0  0  0  0  0  0  0  0  0  0  0  0
    2.7434    0.9068    0.0000 C   0  0  0  0  0  0  0  0  0  0  0  0
    2.7434   -0.7433    0.0000 C   0  0  0  0  0  0  0  0  0  0  0  0
    3.4579   -0.3308    0.0000 C   0  0  0  0  0  0  0  0  0  0  0  0
    3.4579    0.4943    0.0000 C   0  0  0  0  0  0  0  0  0  0  0  0
   -1.4420   -0.8827    0.0000 C   0  0  0  0  0  0  0  0  0  0  0  0
   -1.1065   -1.6364    0.0000 N   0  0  0  0  0  0  0  0  0  0  0  0
   -0.2861   -1.5502    0.0000 N   0  0  0  0  0  0  0  0  0  0  0  0
   -2.5659    0.0651    0.0000 N   0  0  0  0  0  0  0  0  0  0  0  0
   -3.3879   -0.0047    0.0000 C   0  0  0  0  0  0  0  0  0  0  0  0
   -3.5755   -0.8081    0.0000 N   0  0  0  0  0  0  0  0  0  0  0  0
   -2.8694   -1.2347    0.0000 S   0  0  0  0  0  0  0  0  0  0  0  0
   -2.2454   -0.6951    0.0000 C   0  0  0  0  0  0  0  0  0  0  0  0
   -3.9595    0.5902    0.0000 C   0  0  0  0  0  0  0  0  0  0  0  0
    1.3145    1.7318    0.0000 O   0  0  0  0  0  0  0  0  0  0  0  0
    4.1723   -0.7433    0.0000 F   0  0  0  0  0  0  0  0  0  0  0  0
  1  2  1  0
  2  3  1  0
  3  4  1  0
  4  5  1  0
  5  6  1  0
  1  6  1  0
  8  9  1  0
  9 10  1  0
  5  7  1  6
  6 10  1  0
 12 13  1  0
 13 14  2  0
 11 14  1  0
  8 12  2  0
 11  9  2  0
 15 16  2  0
 16 17  1  0
  3 15  1  0
  4 17  2  0
 18 19  1  0
 19 20  2  0
 20 21  1  0
 21 22  1  0
 18 22  2  0
 22 15  1  0
 19 23  1  0
 10 24  2  0
 13 25  1  0
M  END
> <chembl_id>
CHEMBL3608680

> <chembl_pref_name>
FEZOLINETANT
