
     RDKit          2D

 15 16  0  0  1  0  0  0  0  0999 V2000
    5.4125   -6.2417    0.0000 C   0  0  0  0  0  0  0  0  0  0  0  0
    5.9875   -6.6667    0.0000 N   0  0  0  0  0  0  0  0  0  0  0  0
    3.2625   -5.5667    0.0000 C   0  0  0  0  0  0  0  0  0  0  0  0
    6.3417   -5.5750    0.0000 N   0  0  0  0  0  0  0  0  0  0  0  0
    3.8375   -5.1542    0.0000 O   0  0  0  0  0  0  0  0  0  0  0  0
    4.1875   -6.2417    0.0000 C   0  0  0  0  0  0  0  0  0  0  0  0
    4.8000   -6.6000    0.0000 C   0  0  0  0  0  0  0  0  0  0  0  0
    6.5542   -6.2417    0.0000 C   0  0  0  0  0  0  0  0  0  0  0  0
    3.4792   -6.2417    0.0000 C   0  0  0  0  0  0  0  0  0  0  0  0
    5.6292   -5.5750    0.0000 C   0  0  0  0  0  0  0  0  0  0  0  0
    4.4042   -5.5667    0.0000 C   0  0  0  0  0  0  0  0  0  0  0  0
    2.5875   -5.3542    0.0000 O   0  0  0  0  0  0  0  0  0  0  0  0
    5.9875   -7.3750    0.0000 C   0  0  0  0  0  0  0  0  0  0  0  0
    2.8625   -6.5917    0.0000 C   0  0  0  0  0  0  0  0  0  0  0  0
    2.2500   -6.2292    0.0000 C   0  0  0  0  0  0  0  0  0  0  0  0
  2  1  1  0
  3  9  1  0
  4 10  1  0
  5 11  1  0
  6  7  1  6
  7  1  1  0
  8  2  1  0
  9  6  1  0
 10  1  2  0
 11  6  1  0
 12  3  2  0
 13  2  1  0
  9 14  1  6
 15 14  1  0
  8  4  2  0
  3  5  1  0
M  END
> <chembl_id>
CHEMBL550

> <chembl_pref_name>
PILOCARPINE
