
     RDKit          2D

 36 37  0  0  0  0  0  0  0  0999 V2000
   -9.2361   -0.9814    0.0000 C   0  0  0  0  0  0  0  0  0  0  0  0
  -10.0207   -0.7265    0.0000 C   0  0  0  0  0  0  0  0  0  0  0  0
   -8.6230   -0.4294    0.0000 C   0  0  0  0  0  0  0  0  0  0  0  0
   -6.8822   -1.7462    0.0000 C   0  0  0  0  0  0  0  0  0  0  0  0
   -6.7107   -2.5532    0.0000 C   0  0  0  0  0  0  0  0  0  0  0  0
   -5.9261   -2.8082    0.0000 C   0  0  0  0  0  0  0  0  0  0  0  0
   -5.7545   -3.6151    0.0000 C   0  0  0  0  0  0  0  0  0  0  0  0
   -6.3066   -4.2282    0.0000 C   0  0  0  0  0  0  0  0  0  0  0  0
   -5.8941   -4.9427    0.0000 C   0  0  0  0  0  0  0  0  0  0  0  0
   -5.0871   -4.7712    0.0000 C   0  0  0  0  0  0  0  0  0  0  0  0
   -5.0009   -3.9507    0.0000 C   0  0  0  0  0  0  0  0  0  0  0  0
   -7.6668   -1.4913    0.0000 C   0  0  0  0  0  0  0  0  0  0  0  0
   -7.8384   -0.6843    0.0000 C   0  0  0  0  0  0  0  0  0  0  0  0
   -8.7945    0.3776    0.0000 C   0  0  0  0  0  0  0  0  0  0  0  0
   -9.5791    0.6325    0.0000 C   0  0  0  0  0  0  0  0  0  0  0  0
  -10.1922    0.0805    0.0000 C   0  0  0  0  0  0  0  0  0  0  0  0
   -3.5719   -3.9507    0.0000 C   0  0  0  0  0  0  0  0  0  0  0  0
   -2.8574   -3.5382    0.0000 C   0  0  0  0  0  0  0  0  0  0  0  0
   -4.2864   -3.5382    0.0000 C   0  0  0  0  0  0  0  0  0  0  0  0
   -2.8574   -2.7132    0.0000 C   0  0  0  0  0  0  0  0  0  0  0  0
   -2.1430   -2.3007    0.0000 C   0  0  0  0  0  0  0  0  0  0  0  0
   -1.4285   -2.7132    0.0000 C   0  0  0  0  0  0  0  0  0  0  0  0
   -0.7140   -2.3007    0.0000 C   0  0  0  0  0  0  0  0  0  0  0  0
   -0.7140   -1.4757    0.0000 O   0  0  0  0  0  0  0  0  0  0  0  0
    0.7149   -2.3007    0.0000 C   0  0  0  0  0  0  0  0  0  0  0  0
    1.4294   -2.7132    0.0000 C   0  0  0  0  0  0  0  0  0  0  0  0
    2.1438   -2.3007    0.0000 C   0  0  0  0  0  0  0  0  0  0  0  0
    2.8583   -2.7132    0.0000 C   0  0  0  0  0  0  0  0  0  0  0  0
    3.5728   -2.3007    0.0000 O   0  0  0  0  0  0  0  0  0  0  0  0
    0.0004   -2.7132    0.0000 O   0  0  0  0  0  0  0  0  0  0  0  0
    5.0017   -2.3007    0.0000 O   0  0  0  0  0  0  0  0  0  0  0  0
    4.2873   -3.5382    0.0000 O   0  0  0  0  0  0  0  0  0  0  0  0
    4.2873   -2.7132    0.0000 N   0  0  0  0  0  0  0  0  0  0  0  0
   -7.1271   -4.1420    0.0000 O   0  0  0  0  0  0  0  0  0  0  0  0
   -6.2691   -1.1942    0.0000 O   0  0  0  0  0  0  0  0  0  0  0  0
   -4.4740   -5.3232    0.0000 O   0  0  0  0  0  0  0  0  0  0  0  0
  1  2  1  0
  1  3  2  0
  2 16  2  0
  3 13  1  0
  4 35  1  6
  4 12  1  0
  5  6  1  0
  5  4  1  0
  7  6  1  6
  7 11  1  0
  8  9  1  0
  8  7  1  0
  8 34  1  1
 10  9  1  0
 11 10  1  0
 12 13  1  0
 14  3  1  0
 15 14  2  0
 16 15  1  0
 17 18  2  0
 18 20  1  0
 19 17  1  0
 20 21  1  0
 21 22  1  0
 23 22  1  0
 23 30  1  0
 24 23  2  0
 25 26  1  0
 25 30  1  0
 26 27  1  0
 27 28  1  0
 28 29  1  0
 29 33  1  0
 33 32  1  0
 33 31  2  0
 10 36  1  1
 11 19  1  1
M  CHG  2  32  -1  33   1
M  END
> <chembl_id>
CHEMBL2364612

> <chembl_pref_name>
LATANOPROSTENE BUNOD
