
     RDKit          2D

 34 40  0  0  1  0  0  0  0  0999 V2000
    6.0625   -4.0500    0.0000 C   0  0  0  0  0  0  0  0  0  0  0  0
    6.4542   -4.6417    0.0000 C   0  0  0  0  0  0  0  0  0  0  0  0
    4.1542   -6.4167    0.0000 C   0  0  0  0  0  0  0  0  0  0  0  0
    3.5292   -6.0542    0.0000 C   0  0  0  0  0  0  0  0  0  0  0  0
    5.4042   -4.2917    0.0000 C   0  0  0  0  0  0  0  0  0  0  0  0
    6.0792   -5.1792    0.0000 C   0  0  0  0  0  0  0  0  0  0  0  0
    4.8000   -6.0542    0.0000 C   0  0  0  0  0  0  0  0  0  0  0  0
    5.4042   -4.9792    0.0000 C   0  0  0  0  0  0  0  0  0  0  0  0
    3.5292   -5.3292    0.0000 C   0  0  0  0  0  0  0  0  0  0  0  0
    4.8000   -5.3375    0.0000 C   0  0  0  0  0  0  0  0  0  0  0  0
    4.1667   -4.9917    0.0000 C   0  0  0  0  0  0  0  0  0  0  0  0
    4.6917   -6.7417    0.0000 C   0  0  0  0  0  0  0  0  0  0  0  0
    6.6500   -5.2917    0.0000 C   0  0  0  0  0  0  0  0  0  0  0  0
    6.7500   -4.0500    0.0000 O   0  0  0  0  0  0  0  0  0  0  0  0
    2.8917   -6.4042    0.0000 C   0  0  0  0  0  0  0  0  0  0  0  0
    4.8000   -3.9167    0.0000 C   0  0  0  0  0  0  0  0  0  0  0  0
    4.1667   -4.2792    0.0000 C   0  0  0  0  0  0  0  0  0  0  0  0
    5.8250   -3.3625    0.0000 C   0  0  0  0  0  0  0  0  0  0  0  0
    6.9875   -3.3625    0.0000 C   0  0  0  0  0  0  0  0  0  0  0  0
    2.9125   -4.9667    0.0000 C   0  0  0  0  0  0  0  0  0  0  0  0
    2.2667   -6.0250    0.0000 C   0  0  0  0  0  0  0  0  0  0  0  0
    7.6667   -3.1417    0.0000 O   0  0  0  0  0  0  0  0  0  0  0  0
    1.6292   -6.3500    0.0000 O   0  0  0  0  0  0  0  0  0  0  0  0
    6.4167   -2.9417    0.0000 C   0  0  0  0  0  0  0  0  0  0  0  0
    5.3292   -3.6167    0.0000 C   0  0  0  0  0  0  0  0  0  0  0  0
    2.2667   -5.3292    0.0000 C   0  0  0  0  0  0  0  0  0  0  0  0
    3.5292   -4.5542    0.0000 C   0  0  0  0  0  0  0  0  0  0  0  0
    3.3100   -4.4759    0.0000 H   0  0  0  0  0  0  0  0  0  0  0  0
    5.6689   -5.8324    0.0000 H   0  0  0  0  0  0  0  0  0  0  0  0
    5.5275   -5.9716    0.0000 H   0  0  0  0  0  0  0  0  0  0  0  0
    3.8030   -5.9762    0.0000 H   0  0  0  0  0  0  0  0  0  0  0  0
    6.3182   -4.2082    0.0000 H   0  0  0  0  0  0  0  0  0  0  0  0
    3.6446   -7.2771    0.0000 H   0  0  0  0  0  0  0  0  0  0  0  0
    5.5489   -5.0664    0.0000 H   0  0  0  0  0  0  0  0  0  0  0  0
  2  1  1  0
  3  7  1  0
  4  9  1  0
  5  1  1  0
  6  2  1  0
  7 10  1  0
  8  5  1  0
  9 11  1  0
 10  8  1  0
 11 17  1  0
  7 12  1  0
  2 13  1  0
  1 14  1  1
 15  4  2  0
 16  5  1  0
 17 16  1  0
 18  1  1  0
 19 14  1  0
 20  9  1  0
 21 26  1  0
 22 19  2  0
 23 21  2  0
 24 18  1  0
  5 25  1  1
 26 20  1  0
  9 27  1  1
 24 19  1  0
  6  8  1  0
  6 13  1  0
 11 10  1  0
  3 12  1  0
  4  3  1  0
 21 15  1  0
 11 28  1  6
 10 29  1  1
  8 30  1  6
  7 31  1  6
  6 32  1  6
  3 33  1  6
  2 34  1  6
M  END
> <chembl_id>
CHEMBL1509

> <chembl_pref_name>
DROSPIRENONE
