
     RDKit          2D

 52 57  0  0  0  0  0  0  0  0999 V2000
    5.6535   -4.0289    0.0000 O   0  0  0  0  0  0  0  0  0  0  0  0
    1.0667   -2.5167    0.0000 C   0  0  0  0  0  0  0  0  0  0  0  0
    0.9083   -3.3292    0.0000 C   0  0  0  0  0  0  0  0  0  0  0  0
    0.5208   -1.8917    0.0000 C   0  0  0  0  0  0  0  0  0  0  0  0
   -0.3083   -1.9250    0.0000 N   0  0  0  0  0  0  0  0  0  0  0  0
    0.1750   -3.7167    0.0000 N   0  0  0  0  0  0  0  0  0  0  0  0
    1.6292   -3.7292    0.0000 S   0  0  0  0  0  0  0  0  0  0  0  0
    0.9333   -1.1792    0.0000 N   0  0  0  0  0  0  0  0  0  0  0  0
    1.8875   -2.4208    0.0000 C   0  0  0  0  0  0  0  0  0  0  0  0
    2.2333   -3.1625    0.0000 C   0  0  0  0  0  0  0  0  0  0  0  0
   -0.7958   -2.5875    0.0000 C   0  0  0  0  0  0  0  0  0  0  0  0
   -0.5833   -3.3875    0.0000 C   0  0  0  0  0  0  0  0  0  0  0  0
    1.7542    0.2542    0.0000 N   0  0  0  0  0  0  0  0  0  0  0  0
    1.7542   -1.1750    0.0000 C   0  0  0  0  0  0  0  0  0  0  0  0
    0.5125   -0.4625    0.0000 C   0  0  0  0  0  0  0  0  0  0  0  0
    0.9292    0.2542    0.0000 C   0  0  0  0  0  0  0  0  0  0  0  0
    2.1667   -0.4625    0.0000 C   0  0  0  0  0  0  0  0  0  0  0  0
    2.1667    0.9667    0.0000 C   0  0  0  0  0  0  0  0  0  0  0  0
    3.0417   -3.3208    0.0000 C   0  0  0  0  0  0  0  0  0  0  0  0
   -1.5875   -2.3750    0.0000 C   0  0  0  0  0  0  0  0  0  0  0  0
   -1.1625   -3.9667    0.0000 C   0  0  0  0  0  0  0  0  0  0  0  0
   -2.1750   -2.9583    0.0000 C   0  0  0  0  0  0  0  0  0  0  0  0
   -1.9583   -3.7583    0.0000 C   0  0  0  0  0  0  0  0  0  0  0  0
    4.9223   -0.8134    0.0000 C   0  0  0  0  0  0  0  0  0  0  0  0
    4.9223   -1.6384    0.0000 C   0  0  0  0  0  0  0  0  0  0  0  0
    5.6343   -2.0467    0.0000 C   0  0  0  0  0  0  0  0  0  0  0  0
    6.3463   -1.6384    0.0000 C   0  0  0  0  0  0  0  0  0  0  0  0
    5.6343   -0.3967    0.0000 C   0  0  0  0  0  0  0  0  0  0  0  0
    6.3446   -0.8164    0.0000 C   0  0  0  0  0  0  0  0  0  0  0  0
    7.0592   -0.4134    0.0000 C   0  0  0  0  0  0  0  0  0  0  0  0
    7.0698    0.4109    0.0000 C   0  0  0  0  0  0  0  0  0  0  0  0
    6.3595    0.8306    0.0000 C   0  0  0  0  0  0  0  0  0  0  0  0
    5.6387    0.4260    0.0000 C   0  0  0  0  0  0  0  0  0  0  0  0
    7.0607   -2.0511    0.0000 C   0  0  0  0  0  0  0  0  0  0  0  0
    7.7753   -1.6389    0.0000 C   0  0  0  0  0  0  0  0  0  0  0  0
    9.2044   -0.8223    0.0000 C   0  0  0  0  0  0  0  0  0  0  0  0
    8.4902   -0.4074    0.0000 C   0  0  0  0  0  0  0  0  0  0  0  0
    7.7715   -0.8177    0.0000 C   0  0  0  0  0  0  0  0  0  0  0  0
    9.1998   -1.6477    0.0000 C   0  0  0  0  0  0  0  0  0  0  0  0
    8.4872   -2.0533    0.0000 C   0  0  0  0  0  0  0  0  0  0  0  0
    8.4823   -2.8687    0.0000 C   0  0  0  0  0  0  0  0  0  0  0  0
    9.1882   -3.2846    0.0000 C   0  0  0  0  0  0  0  0  0  0  0  0
    9.9007   -2.8790    0.0000 C   0  0  0  0  0  0  0  0  0  0  0  0
    9.9074   -2.0574    0.0000 C   0  0  0  0  0  0  0  0  0  0  0  0
    5.6343   -2.8717    0.0000 O   0  0  0  0  0  0  0  0  0  0  0  0
    4.2084   -2.0519    0.0000 C   0  0  0  0  0  0  0  0  0  0  0  0
    3.4934   -1.6404    0.0000 O   0  0  0  0  0  0  0  0  0  0  0  0
    4.2096   -2.8769    0.0000 O   0  0  0  0  0  0  0  0  0  0  0  0
    7.5515   -0.0175    0.0000 O   0  0  0  0  0  0  0  0  0  0  0  0
    8.4933    0.4176    0.0000 C   0  0  0  0  0  0  0  0  0  0  0  0
    9.2093    0.8274    0.0000 O   0  0  0  0  0  0  0  0  0  0  0  0
    7.7804    0.8328    0.0000 O   0  0  0  0  0  0  0  0  0  0  0  0
  3  2  2  0
  4  2  1  0
  5  4  2  0
  6  3  1  0
  7  3  1  0
  8  4  1  0
  9  2  1  0
 10  9  2  0
 11  5  1  0
 12  6  1  0
 13 16  1  0
 14  8  1  0
 15  8  1  0
 16 15  1  0
 17 14  1  0
 18 13  1  0
 19 10  1  0
 20 11  1  0
 21 12  1  0
 22 20  2  0
 23 21  2  0
 10  7  1  0
 11 12  2  0
 13 17  1  0
 23 22  1  0
 24 28  1  0
 25 26  1  0
 26 27  2  0
 27 29  1  0
 28 29  1  0
 28 33  2  0
 29 30  2  0
 30 31  1  0
 31 32  2  0
 32 33  1  0
 27 34  1  0
 34 35  1  0
 35 40  1  0
 35 38  2  0
 39 36  1  0
 36 37  2  0
 37 38  1  0
 39 40  1  0
 39 44  2  0
 40 41  2  0
 41 42  1  0
 42 43  2  0
 43 44  1  0
 26 45  1  0
 25 46  1  0
 46 47  1  0
 46 48  2  0
 38 49  1  0
 37 50  1  0
 24 25  2  0
 50 51  1  0
 50 52  2  0
M  END
> <chembl_id>
CHEMBL3989694

> <chembl_pref_name>
OLANZAPINE PAMOATE
