
     RDKit          2D

 87 93  0  0  1  0  0  0  0  0999 V2000
   -2.6375    0.2958    0.0000 N   0  0  0  0  0  0  0  0  0  0  0  0
   -0.6458   -1.8167    0.0000 N   0  0  0  0  0  0  0  0  0  0  0  0
   -2.1833    0.6375    0.0000 C   0  0  0  0  0  0  0  0  0  0  0  0
   -2.6375   -0.2750    0.0000 C   0  0  0  0  0  0  0  0  0  0  0  0
   -0.6458   -1.2542    0.0000 C   0  0  0  0  0  0  0  0  0  0  0  0
   -2.6250   -1.9792    0.0000 C   0  0  0  0  0  0  0  0  0  0  0  0
   -1.6458    0.4708    0.0000 C   0  0  0  0  0  0  0  0  0  0  0  0
   -3.1208   -0.5542    0.0000 C   0  0  0  0  0  0  0  0  0  0  0  0
   -0.1500   -0.9750    0.0000 C   0  0  0  0  0  0  0  0  0  0  0  0
   -2.1333   -2.2542    0.0000 N   0  0  0  0  0  0  0  0  0  0  0  0
   -3.1208   -1.1292    0.0000 N   0  0  0  0  0  0  0  0  0  0  0  0
   -0.1500   -0.4042    0.0000 N   0  0  0  0  0  0  0  0  0  0  0  0
   -2.6250   -1.4125    0.0000 C   0  0  0  0  0  0  0  0  0  0  0  0
   -1.1583    0.7625    0.0000 N   0  0  0  0  0  0  0  0  0  0  0  0
   -1.6458   -1.9750    0.0000 C   0  0  0  0  0  0  0  0  0  0  0  0
   -1.1083   -2.1500    0.0000 C   0  0  0  0  0  0  0  0  0  0  0  0
    0.3417   -0.1250    0.0000 C   0  0  0  0  0  0  0  0  0  0  0  0
   -3.1208   -2.2625    0.0000 C   0  0  0  0  0  0  0  0  0  0  0  0
   -3.1000    0.6208    0.0000 C   0  0  0  0  0  0  0  0  0  0  0  0
   -2.3708    1.1708    0.0000 C   0  0  0  0  0  0  0  0  0  0  0  0
    0.3750    0.3875    0.0000 C   0  0  0  0  0  0  0  0  0  0  0  0
    1.3292    0.4250    0.0000 C   0  0  0  0  0  0  0  0  0  0  0  0
   -0.8833    1.2583    0.0000 C   0  0  0  0  0  0  0  0  0  0  0  0
   -2.9458    1.1583    0.0000 C   0  0  0  0  0  0  0  0  0  0  0  0
    0.8375    0.7083    0.0000 N   0  0  0  0  0  0  0  0  0  0  0  0
   -0.1208    0.7333    0.0000 C   0  0  0  0  0  0  0  0  0  0  0  0
   -3.6083   -1.9792    0.0000 C   0  0  0  0  0  0  0  0  0  0  0  0
   -0.1875   -2.1542    0.0000 C   0  0  0  0  0  0  0  0  0  0  0  0
   -0.9333   -2.6917    0.0000 C   0  0  0  0  0  0  0  0  0  0  0  0
   -0.3125    1.2583    0.0000 C   0  0  0  0  0  0  0  0  0  0  0  0
   -2.1458   -0.5542    0.0000 O   0  0  0  0  0  0  0  0  0  0  0  0
   -1.1333   -0.9667    0.0000 O   0  0  0  0  0  0  0  0  0  0  0  0
    1.8167    0.7083    0.0000 C   0  0  0  0  0  0  0  0  0  0  0  0
   -1.5208   -0.0792    0.0000 O   0  0  0  0  0  0  0  0  0  0  0  0
   -2.1375   -1.1250    0.0000 O   0  0  0  0  0  0  0  0  0  0  0  0
   -1.6458   -1.4042    0.0000 O   0  0  0  0  0  0  0  0  0  0  0  0
   -4.0958   -2.2667    0.0000 C   0  0  0  0  0  0  0  0  0  0  0  0
    0.8292   -0.4125    0.0000 O   0  0  0  0  0  0  0  0  0  0  0  0
    2.8000    1.2833    0.0000 C   0  0  0  0  0  0  0  0  0  0  0  0
    3.2792    1.5625    0.0000 C   0  0  0  0  0  0  0  0  0  0  0  0
    4.2625    2.1333    0.0000 C   0  0  0  0  0  0  0  0  0  0  0  0
    4.7542    2.4125    0.0000 C   0  0  0  0  0  0  0  0  0  0  0  0
    1.3292   -0.1417    0.0000 O   0  0  0  0  0  0  0  0  0  0  0  0
    0.3375   -1.2542    0.0000 C   0  0  0  0  0  0  0  0  0  0  0  0
   -3.6208   -0.2792    0.0000 C   0  0  0  0  0  0  0  0  0  0  0  0
   -0.3708   -2.6917    0.0000 C   0  0  0  0  0  0  0  0  0  0  0  0
    2.3125    0.4333    0.0000 C   0  0  0  0  0  0  0  0  0  0  0  0
    1.8167    1.2833    0.0000 C   0  0  0  0  0  0  0  0  0  0  0  0
    3.2792    2.1333    0.0000 C   0  0  0  0  0  0  0  0  0  0  0  0
    3.7667    1.2833    0.0000 C   0  0  0  0  0  0  0  0  0  0  0  0
    3.7750    2.4125    0.0000 C   0  0  0  0  0  0  0  0  0  0  0  0
    4.2542    1.5583    0.0000 C   0  0  0  0  0  0  0  0  0  0  0  0
    2.3042    1.5625    0.0000 C   0  0  0  0  0  0  0  0  0  0  0  0
    2.8000    0.7083    0.0000 C   0  0  0  0  0  0  0  0  0  0  0  0
   -4.0958   -2.8375    0.0000 C   0  0  0  0  0  0  0  0  0  0  0  0
   -4.5833   -1.9792    0.0000 C   0  0  0  0  0  0  0  0  0  0  0  0
    4.7500    2.9833    0.0000 C   0  0  0  0  0  0  0  0  0  0  0  0
    5.2375    2.1250    0.0000 C   0  0  0  0  0  0  0  0  0  0  0  0
   -3.1125   -2.8292    0.0000 O   0  0  0  0  0  0  0  0  0  0  0  0
   -2.0500    1.6375    0.0000 O   0  0  0  0  0  0  0  0  0  0  0  0
   -1.1625    1.7458    0.0000 O   0  0  0  0  0  0  0  0  0  0  0  0
   -3.6083   -1.4167    0.0000 O   0  0  0  0  0  0  0  0  0  0  0  0
   -5.0833   -2.8375    0.0000 C   0  0  0  0  0  0  0  0  0  0  0  0
    5.7292    2.9833    0.0000 C   0  0  0  0  0  0  0  0  0  0  0  0
   -0.0333    1.7500    0.0000 O   0  0  0  0  0  0  0  0  0  0  0  0
   -4.5833   -3.1167    0.0000 C   0  0  0  0  0  0  0  0  0  0  0  0
   -5.0833   -2.2667    0.0000 C   0  0  0  0  0  0  0  0  0  0  0  0
    5.7250    2.4208    0.0000 C   0  0  0  0  0  0  0  0  0  0  0  0
    5.2375    3.2708    0.0000 C   0  0  0  0  0  0  0  0  0  0  0  0
   -0.0375   -3.1542    0.0000 O   0  0  0  0  0  0  0  0  0  0  0  0
    0.3375   -1.8250    0.0000 O   0  0  0  0  0  0  0  0  0  0  0  0
   -3.6208    0.2833    0.0000 O   0  0  0  0  0  0  0  0  0  0  0  0
   -5.5625   -3.1167    0.0000 O   0  0  0  0  0  0  0  0  0  0  0  0
   -3.2833    1.6083    0.0000 C   0  0  0  0  0  0  0  0  0  0  0  0
    6.2167    3.2708    0.0000 O   0  0  0  0  0  0  0  0  0  0  0  0
   -4.1000   -0.5667    0.0000 C   0  0  0  0  0  0  0  0  0  0  0  0
    0.8292   -0.9792    0.0000 C   0  0  0  0  0  0  0  0  0  0  0  0
    6.7125    2.9833    0.0000 C   0  0  0  0  0  0  0  0  0  0  0  0
    6.7042    2.4083    0.0000 C   0  0  0  0  0  0  0  0  0  0  0  0
    6.2125    1.5625    0.0000 C   0  0  0  0  0  0  0  0  0  0  0  0
    6.2167    2.1333    0.0000 C   0  0  0  0  0  0  0  0  0  0  0  0
    5.7167    1.2833    0.0000 C   0  0  0  0  0  0  0  0  0  0  0  0
   -1.8162   -2.8563    0.0000 H   0  0  0  0  0  0  0  0  0  0  0  0
    0.7152   -0.4735    0.0000 H   0  0  0  0  0  0  0  0  0  0  0  0
   -3.9816   -1.0632    0.0000 H   0  0  0  0  0  0  0  0  0  0  0  0
   -2.6204   -2.9792    0.0000 H   0  0  0  0  0  0  0  0  0  0  0  0
   -1.4895    1.3577    0.0000 H   0  0  0  0  0  0  0  0  0  0  0  0
  2 16  1  0
  3  1  1  0
  4  1  1  0
  5  2  1  0
  6 13  1  0
  3  7  1  0
  8  4  1  0
  9 12  1  0
  6 10  1  0
  8 11  1  0
 12 17  1  0
 13 11  1  0
 14  7  1  0
 15 10  1  0
 16 15  1  0
 17 21  1  0
 18  6  1  0
 19  1  1  0
 20  3  1  0
 21 26  1  0
 22 25  1  0
 23 14  1  0
 24 19  1  0
 21 25  1  6
 26 30  1  0
 27 18  1  0
 28  2  1  0
 29 16  1  0
 30 23  1  0
 31  4  2  0
 32  5  2  0
 33 22  1  0
 34  7  2  0
 35 13  2  0
 36 15  2  0
 37 27  1  0
 38 17  2  0
 39 53  2  0
 40 39  1  0
 41 52  1  0
 42 41  1  0
 43 22  2  0
 44  9  1  0
 45  8  1  0
 46 29  1  0
 47 33  1  0
 48 33  2  0
 49 40  2  0
 50 40  1  0
 51 49  1  0
 52 50  2  0
 53 48  1  0
 54 47  2  0
 55 37  1  0
 56 37  2  0
 57 42  2  0
 58 42  1  0
 18 59  1  6
 20 60  1  6
 23 61  1  6
 27 62  1  6
 63 67  2  0
 64 68  1  0
 30 65  1  6
 66 55  2  0
 67 56  1  0
 68 58  2  0
 69 57  1  0
 46 70  1  6
 44 71  1  1
 45 72  1  1
 73 63  1  0
 24 74  1  6
 75 64  1  0
 76 45  1  0
 77 44  1  0
 78 75  1  0
 79 78  1  0
 80 81  1  0
 81 79  1  0
 82 80  1  0
 20 24  1  0
 66 63  1  0
 28 46  1  0
  9  5  1  0
 54 39  1  0
 51 41  2  0
 69 64  2  0
 16 83  1  6
  9 84  1  6
  8 85  1  6
  6 86  1  6
  3 87  1  6
M  END
> <chembl_id>
CHEMBL264241

> <chembl_pref_name>
ANIDULAFUNGIN
