
     RDKit          2D

 19 21  0  0  0  0  0  0  0  0999 V2000
    4.0792   -4.2500    0.0000 N   0  0  0  0  0  0  0  0  0  0  0  0
    4.7542   -4.4458    0.0000 C   0  0  0  0  0  0  0  0  0  0  0  0
    4.1125   -5.4000    0.0000 C   0  0  0  0  0  0  0  0  0  0  0  0
    4.7792   -5.1625    0.0000 C   0  0  0  0  0  0  0  0  0  0  0  0
    3.6792   -4.8417    0.0000 C   0  0  0  0  0  0  0  0  0  0  0  0
    5.9792   -4.4167    0.0000 C   0  0  0  0  0  0  0  0  0  0  0  0
    5.3542   -4.0792    0.0000 C   0  0  0  0  0  0  0  0  0  0  0  0
    7.2042   -4.4042    0.0000 C   0  0  0  0  0  0  0  0  0  0  0  0
    5.3917   -5.4917    0.0000 C   0  0  0  0  0  0  0  0  0  0  0  0
    6.5875   -4.0625    0.0000 C   0  0  0  0  0  0  0  0  0  0  0  0
    3.8417   -6.0417    0.0000 C   0  0  0  0  0  0  0  0  0  0  0  0
    6.0000   -5.1250    0.0000 C   0  0  0  0  0  0  0  0  0  0  0  0
    7.2167   -5.1167    0.0000 O   0  0  0  0  0  0  0  0  0  0  0  0
    2.9792   -4.9292    0.0000 C   0  0  0  0  0  0  0  0  0  0  0  0
    3.1500   -6.1417    0.0000 C   0  0  0  0  0  0  0  0  0  0  0  0
    7.8292   -4.0417    0.0000 O   0  0  0  0  0  0  0  0  0  0  0  0
    2.7167   -5.5875    0.0000 C   0  0  0  0  0  0  0  0  0  0  0  0
    2.8750   -6.8292    0.0000 Cl  0  0  0  0  0  0  0  0  0  0  0  0
    6.5792   -3.3417    0.0000 C   0  0  0  0  0  0  0  0  0  0  0  0
  2  1  1  0
  3  5  2  0
  4  2  2  0
  5  1  1  0
  6  7  2  0
  7  2  1  0
  8 10  1  0
  9  4  1  0
 10  6  1  0
 11  3  1  0
 12  6  1  0
 13  8  2  0
 14  5  1  0
 15 17  1  0
 16  8  1  0
 17 14  2  0
 18 15  1  0
 19 10  1  0
  3  4  1  0
 15 11  2  0
 12  9  2  0
M  END
> <chembl_id>
CHEMBL1316

> <chembl_pref_name>
CARPROFEN
