
     RDKit          2D

 34 37  0  0  1  0  0  0  0  0999 V2000
    0.5792   -1.8792    0.0000 C   0  0  0  0  0  0  0  0  0  0  0  0
   -0.6583   -2.5917    0.0000 C   0  0  0  0  0  0  0  0  0  0  0  0
   -1.2833   -2.9667    0.0000 C   0  0  0  0  0  0  0  0  0  0  0  0
    0.5792   -2.5917    0.0000 C   0  0  0  0  0  0  0  0  0  0  0  0
    1.2542   -1.6542    0.0000 C   0  0  0  0  0  0  0  0  0  0  0  0
   -0.0458   -2.9542    0.0000 C   0  0  0  0  0  0  0  0  0  0  0  0
   -1.2833   -3.6667    0.0000 C   0  0  0  0  0  0  0  0  0  0  0  0
    2.4458    0.4833    0.0000 P   0  0  0  0  0  0  0  0  0  0  0  0
   -0.6583   -1.8792    0.0000 C   0  0  0  0  0  0  0  0  0  0  0  0
   -0.0458   -1.5292    0.0000 C   0  0  0  0  0  0  0  0  0  0  0  0
    1.6542   -2.2292    0.0000 C   0  0  0  0  0  0  0  0  0  0  0  0
   -1.8958   -2.6042    0.0000 C   0  0  0  0  0  0  0  0  0  0  0  0
    1.2542   -2.8042    0.0000 C   0  0  0  0  0  0  0  0  0  0  0  0
    1.2417   -0.9542    0.0000 C   0  0  0  0  0  0  0  0  0  0  0  0
   -1.8958   -4.0167    0.0000 C   0  0  0  0  0  0  0  0  0  0  0  0
   -0.0458   -3.6667    0.0000 C   0  0  0  0  0  0  0  0  0  0  0  0
   -2.5083   -2.9667    0.0000 C   0  0  0  0  0  0  0  0  0  0  0  0
   -2.5083   -3.6667    0.0000 C   0  0  0  0  0  0  0  0  0  0  0  0
    1.8417   -0.5917    0.0000 C   0  0  0  0  0  0  0  0  0  0  0  0
    1.8375    0.1208    0.0000 O   0  0  0  0  0  0  0  0  0  0  0  0
    3.0625    0.1375    0.0000 O   0  0  0  0  0  0  0  0  0  0  0  0
   -0.6583   -4.0167    0.0000 C   0  0  0  0  0  0  0  0  0  0  0  0
    2.0875    1.1000    0.0000 O   0  0  0  0  0  0  0  0  0  0  0  0
   -0.6458   -3.3042    0.0000 F   0  0  0  0  0  0  0  0  0  0  0  0
    0.6167   -0.6000    0.0000 O   0  0  0  0  0  0  0  0  0  0  0  0
   -3.1458   -4.0167    0.0000 O   0  0  0  0  0  0  0  0  0  0  0  0
    2.7917    1.1000    0.0000 O   0  0  0  0  0  0  0  0  0  0  0  0
    1.8667   -1.3042    0.0000 O   0  0  0  0  0  0  0  0  0  0  0  0
    0.5667   -1.1792    0.0000 C   0  0  0  0  0  0  0  0  0  0  0  0
   -1.2833   -1.5042    0.0000 O   0  0  0  0  0  0  0  0  0  0  0  0
   -1.3083   -2.2167    0.0000 C   0  0  0  0  0  0  0  0  0  0  0  0
    2.3667   -2.2292    0.0000 C   0  0  0  0  0  0  0  0  0  0  0  0
   -0.0458   -2.2292    0.0000 H   0  0  0  0  0  0  0  0  0  0  0  0
    0.5792   -3.2917    0.0000 H   0  0  0  0  0  0  0  0  0  0  0  0
  2  6  1  0
  3  2  1  0
  4  1  1  0
  5  1  1  0
  6  4  1  0
  7  3  1  0
  8 20  1  0
  9 10  1  0
 10  1  1  0
 11  5  1  0
 12  3  1  0
 13  4  1  0
 14  5  1  0
 15  7  2  0
 16  6  1  0
 17 12  2  0
 18 17  1  0
 19 14  1  0
 20 19  1  0
 21  8  1  0
 22 16  1  0
 23  8  2  0
  2 24  1  6
 25 14  2  0
 26 18  2  0
 27  8  1  0
  5 28  1  6
  1 29  1  1
  9 30  1  1
  3 31  1  1
 11 32  1  6
  6 33  1  1
  4 34  1  6
 13 11  1  0
  9  2  1  0
 22  7  1  0
 15 18  1  0
M  END
> <chembl_id>
CHEMBL1201302

> <chembl_pref_name>
DEXAMETHASONE PHOSPHORIC ACID
