
     RDKit          2D

 16 16  0  0  0  0  0  0  0  0999 V2000
    6.3167   -4.3583    0.0000 C   0  0  0  0  0  0  0  0  0  0  0  0
    6.9208   -4.7125    0.0000 N   0  0  0  0  0  0  0  0  0  0  0  0
    5.6958   -4.7333    0.0000 C   0  0  0  0  0  0  0  0  0  0  0  0
    6.3167   -3.6500    0.0000 O   0  0  0  0  0  0  0  0  0  0  0  0
    5.6958   -5.4333    0.0000 C   0  0  0  0  0  0  0  0  0  0  0  0
    5.0917   -4.3792    0.0000 C   0  0  0  0  0  0  0  0  0  0  0  0
    3.2375   -5.4667    0.0000 N   0  0  0  0  0  0  0  0  0  0  0  0
    2.6292   -5.8292    0.0000 N   0  0  0  0  0  0  0  0  0  0  0  0
    5.0917   -5.7917    0.0000 C   0  0  0  0  0  0  0  0  0  0  0  0
    4.4750   -4.7375    0.0000 C   0  0  0  0  0  0  0  0  0  0  0  0
    4.4750   -5.4375    0.0000 C   0  0  0  0  0  0  0  0  0  0  0  0
    7.5375   -4.3417    0.0000 C   0  0  0  0  0  0  0  0  0  0  0  0
    3.8500   -5.8125    0.0000 C   0  0  0  0  0  0  0  0  0  0  0  0
    2.0042   -5.4792    0.0000 C   0  0  0  0  0  0  0  0  0  0  0  0
    8.1458   -4.6958    0.0000 C   0  0  0  0  0  0  0  0  0  0  0  0
    7.5375   -3.6500    0.0000 C   0  0  0  0  0  0  0  0  0  0  0  0
  2  1  1  0
  3  1  1  0
  4  1  2  0
  5  3  2  0
  6  3  1  0
  7 13  1  0
  8  7  1  0
  9  5  1  0
 10  6  2  0
 11 10  1  0
 12  2  1  0
 13 11  1  0
 14  8  1  0
 15 12  1  0
 16 12  1  0
 11  9  2  0
M  END
> <chembl_id>
CHEMBL1321

> <chembl_pref_name>
PROCARBAZINE
