
     RDKit          2D

 13 14  0  0  0  0  0  0  0  0999 V2000
   -7.4250  -21.0591    0.0000 C   0  0  0  0  0  0  0  0  0  0  0  0
   -8.1683  -21.4171    0.0000 C   0  0  0  0  0  0  0  0  0  0  0  0
   -8.3519  -22.2213    0.0000 C   0  0  0  0  0  0  0  0  0  0  0  0
   -7.8375  -22.8664    0.0000 C   0  0  0  0  0  0  0  0  0  0  0  0
   -7.0125  -22.8664    0.0000 C   0  0  0  0  0  0  0  0  0  0  0  0
   -6.4981  -22.2213    0.0000 N   0  0  0  0  0  0  0  0  0  0  0  0
   -6.6817  -21.4171    0.0000 C   0  0  0  0  0  0  0  0  0  0  0  0
   -8.7731  -20.8559    0.0000 C   0  0  0  0  0  0  0  0  0  0  0  0
   -9.5614  -21.0991    0.0000 C   0  0  0  0  0  0  0  0  0  0  0  0
   -9.7450  -21.9034    0.0000 C   0  0  0  0  0  0  0  0  0  0  0  0
   -9.1402  -22.4646    0.0000 C   0  0  0  0  0  0  0  0  0  0  0  0
   -8.1955  -23.6097    0.0000 C   0  0  0  0  0  0  0  0  0  0  0  0
  -10.5333  -22.1466    0.0000 Cl  0  0  0  0  0  0  0  0  0  0  0  0
  1  2  1  0
  7  1  1  0
  3  4  1  0
  4  5  1  0
  5  6  1  0
  6  7  1  0
  2  8  2  0
  3  2  1  0
 11  3  2  0
  8  9  1  0
  9 10  2  0
 10 11  1  0
  4 12  1  6
 10 13  1  0
M  END
> <chembl_id>
CHEMBL360328

> <chembl_pref_name>
LORCASERIN
