
     RDKit          2D

 20 12  0  0  0  0  0  0  0  0999 V2000
    5.7455  -20.5071    0.0000 O   0  0  0  0  0  0  0  0  0  0  0  0
    2.4781  -17.4133    0.0000 C   0  0  0  0  0  0  0  0  0  0  0  0
    3.2020  -17.8263    0.0000 C   0  0  0  0  0  0  0  0  0  0  0  0
    1.7639  -17.8263    0.0000 C   0  0  0  0  0  0  0  0  0  0  0  0
    2.0651  -16.6991    0.0000 C   0  0  0  0  0  0  0  0  0  0  0  0
    1.7639  -18.6522    0.0000 C   0  0  0  0  0  0  0  0  0  0  0  0
    3.9162  -17.4133    0.0000 C   0  0  0  0  0  0  0  0  0  0  0  0
    2.4732  -15.9752    0.0000 O   0  0  0  0  0  0  0  0  0  0  0  0
    4.6304  -17.8263    0.0000 O   0  0  0  0  0  0  0  0  0  0  0  0
    1.0498  -19.0652    0.0000 O   0  0  0  0  0  0  0  0  0  0  0  0
    1.2392  -16.7040    0.0000 O   0  0  0  0  0  0  0  0  0  0  0  0
    2.4781  -19.0652    0.0000 O   0  0  0  0  0  0  0  0  0  0  0  0
    3.9162  -16.5874    0.0000 O   0  0  0  0  0  0  0  0  0  0  0  0
    2.8862  -16.6991    0.0000 O   0  0  0  0  0  0  0  0  0  0  0  0
    3.3089  -15.8586    0.0000 Li  0  0  0  0  0 15  0  0  0  0  0  0
    5.3786  -17.8992    0.0000 Li  0  0  0  0  0 15  0  0  0  0  0  0
    0.1753  -19.0652    0.0000 Li  0  0  0  0  0 15  0  0  0  0  0  0
    3.8579  -18.9582    0.0000 O   0  0  0  0  0  0  0  0  0  0  0  0
   -0.3536  -17.2071    0.0000 O   0  0  0  0  0  0  0  0  0  0  0  0
    5.0679  -16.0875    0.0000 O   0  0  0  0  0  0  0  0  0  0  0  0
  3  2  1  0
  4  2  1  0
  5  2  1  0
  6  4  1  0
  7  3  1  0
  8  5  1  0
  9  7  1  0
 10  6  1  0
 11  5  2  0
 12  6  2  0
 13  7  2  0
 14  2  1  0
M  CHG  6   8  -1   9  -1  10  -1  15   1  16   1  17   1
M  END
> <chembl_id>
CHEMBL2103738

> <chembl_pref_name>
LITHIUM CITRATE
