
     RDKit          2D

 38 41  0  0  0  0  0  0  0  0999 V2000
    4.2417   -4.4667    0.0000 Cl  0  0  0  0  0  0  0  0  0  0  0  0
    0.5417   -3.3875    0.0000 C   0  0  0  0  0  0  0  0  0  0  0  0
    0.5417   -4.1042    0.0000 C   0  0  0  0  0  0  0  0  0  0  0  0
   -0.0833   -4.4417    0.0000 C   0  0  0  0  0  0  0  0  0  0  0  0
   -0.0833   -3.0250    0.0000 C   0  0  0  0  0  0  0  0  0  0  0  0
    1.7917   -4.1042    0.0000 C   0  0  0  0  0  0  0  0  0  0  0  0
    1.7917   -3.3875    0.0000 C   0  0  0  0  0  0  0  0  0  0  0  0
    1.1667   -3.0250    0.0000 C   0  0  0  0  0  0  0  0  0  0  0  0
    1.1667   -4.4417    0.0000 C   0  0  0  0  0  0  0  0  0  0  0  0
    3.0417   -3.3792    0.0000 C   0  0  0  0  0  0  0  0  0  0  0  0
   -0.7083   -4.1042    0.0000 C   0  0  0  0  0  0  0  0  0  0  0  0
   -0.7083   -3.3875    0.0000 C   0  0  0  0  0  0  0  0  0  0  0  0
    2.4167   -4.4542    0.0000 C   0  0  0  0  0  0  0  0  0  0  0  0
    2.4167   -3.0167    0.0000 C   0  0  0  0  0  0  0  0  0  0  0  0
    1.8667   -6.2417    0.0000 C   0  0  0  0  0  0  0  0  0  0  0  0
    1.5417   -5.6667    0.0000 O   0  0  0  0  0  0  0  0  0  0  0  0
    3.0417   -4.1042    0.0000 C   0  0  0  0  0  0  0  0  0  0  0  0
    1.5417   -6.8250    0.0000 C   0  0  0  0  0  0  0  0  0  0  0  0
    0.5292   -6.2417    0.0000 C   0  0  0  0  0  0  0  0  0  0  0  0
    0.8667   -6.8250    0.0000 C   0  0  0  0  0  0  0  0  0  0  0  0
    0.8667   -5.6667    0.0000 C   0  0  0  0  0  0  0  0  0  0  0  0
    2.4250   -5.1542    0.0000 O   0  0  0  0  0  0  0  0  0  0  0  0
    3.5917   -2.9292    0.0000 C   0  0  0  0  0  0  0  0  0  0  0  0
   -0.0708   -5.1500    0.0000 O   0  0  0  0  0  0  0  0  0  0  0  0
   -0.0708   -2.3167    0.0000 O   0  0  0  0  0  0  0  0  0  0  0  0
    3.5667   -2.1250    0.0000 O   0  0  0  0  0  0  0  0  0  0  0  0
    1.1667   -2.3167    0.0000 O   0  0  0  0  0  0  0  0  0  0  0  0
    1.1667   -5.1500    0.0000 O   0  0  0  0  0  0  0  0  0  0  0  0
    3.6375   -3.7667    0.0000 O   0  0  0  0  0  0  0  0  0  0  0  0
    0.5375   -7.4042    0.0000 N   0  0  0  0  0  0  0  0  0  0  0  0
   -0.1375   -6.2417    0.0000 O   0  0  0  0  0  0  0  0  0  0  0  0
   -1.3333   -3.0250    0.0000 C   0  0  0  0  0  0  0  0  0  0  0  0
   -1.3333   -4.4417    0.0000 C   0  0  0  0  0  0  0  0  0  0  0  0
    0.5375   -5.0875    0.0000 C   0  0  0  0  0  0  0  0  0  0  0  0
    4.2292   -3.2875    0.0000 C   0  0  0  0  0  0  0  0  0  0  0  0
   -1.9708   -3.3875    0.0000 C   0  0  0  0  0  0  0  0  0  0  0  0
   -1.9708   -4.1042    0.0000 C   0  0  0  0  0  0  0  0  0  0  0  0
    2.4417   -6.5792    0.0000 H   0  0  0  0  0  0  0  0  0  0  0  0
  3  2  1  0
  4  3  1  0
  5  2  1  0
  6  7  2  0
  7  8  1  0
  8  2  2  0
  9  3  2  0
 10 14  1  0
 11 12  2  0
 12  5  1  0
 13  6  1  0
 14  7  1  0
 15 22  1  0
 16 15  1  0
 17 10  1  0
 18 15  1  0
 19 20  1  0
 20 18  1  0
 21 16  1  0
 13 22  1  6
 10 23  1  1
 24  4  2  0
 25  5  2  0
 26 23  2  0
 27  8  1  0
 28  9  1  0
 29 10  1  0
 20 30  1  6
 19 31  1  6
 32 12  1  0
 33 11  1  0
 21 34  1  6
 35 23  1  0
 36 32  2  0
 37 36  1  0
 15 38  1  6
  6  9  1  0
 11  4  1  0
 13 17  1  0
 33 37  2  0
 19 21  1  0
M  END
> <chembl_id>
CHEMBL1200976

> <chembl_pref_name>
IDARUBICIN HYDROCHLORIDE
