
     RDKit          2D

 26 29  0  0  0  0  0  0  0  0999 V2000
    6.2292   -4.1875    0.0000 C   0  0  0  0  0  0  0  0  0  0  0  0
    4.9875   -4.1875    0.0000 C   0  0  0  0  0  0  0  0  0  0  0  0
    5.6000   -5.2417    0.0000 N   0  0  0  0  0  0  0  0  0  0  0  0
    5.6000   -3.8250    0.0000 C   0  0  0  0  0  0  0  0  0  0  0  0
    4.9875   -4.9000    0.0000 C   0  0  0  0  0  0  0  0  0  0  0  0
    6.2292   -4.9000    0.0000 C   0  0  0  0  0  0  0  0  0  0  0  0
    4.3792   -3.8250    0.0000 C   0  0  0  0  0  0  0  0  0  0  0  0
    3.7417   -4.9042    0.0000 C   0  0  0  0  0  0  0  0  0  0  0  0
    3.1250   -5.2750    0.0000 N   0  0  0  0  0  0  0  0  0  0  0  0
    4.3792   -5.2417    0.0000 C   0  0  0  0  0  0  0  0  0  0  0  0
    3.7417   -4.1875    0.0000 C   0  0  0  0  0  0  0  0  0  0  0  0
    5.6000   -5.9542    0.0000 C   0  0  0  0  0  0  0  0  0  0  0  0
    6.8375   -3.8250    0.0000 C   0  0  0  0  0  0  0  0  0  0  0  0
    5.2042   -6.5667    0.0000 C   0  0  0  0  0  0  0  0  0  0  0  0
    5.9417   -6.5667    0.0000 C   0  0  0  0  0  0  0  0  0  0  0  0
    5.6000   -3.1250    0.0000 O   0  0  0  0  0  0  0  0  0  0  0  0
    2.5167   -4.9042    0.0000 C   0  0  0  0  0  0  0  0  0  0  0  0
    1.9042   -5.9667    0.0000 N   0  0  0  0  0  0  0  0  0  0  0  0
    6.8375   -3.1292    0.0000 O   0  0  0  0  0  0  0  0  0  0  0  0
    3.1542   -3.8250    0.0000 F   0  0  0  0  0  0  0  0  0  0  0  0
    1.9042   -5.3042    0.0000 C   0  0  0  0  0  0  0  0  0  0  0  0
    7.4542   -4.1875    0.0000 O   0  0  0  0  0  0  0  0  0  0  0  0
    3.1250   -5.9667    0.0000 C   0  0  0  0  0  0  0  0  0  0  0  0
    2.5167   -6.3375    0.0000 C   0  0  0  0  0  0  0  0  0  0  0  0
    4.3792   -3.1292    0.0000 C   0  0  0  0  0  0  0  0  0  0  0  0
    1.2792   -5.0042    0.0000 C   0  0  0  0  0  0  0  0  0  0  0  0
  2  4  1  0
  3  6  1  0
  4  1  1  0
  5  3  1  0
  6  1  2  0
  7  2  1  0
  8 10  2  0
  9  8  1  0
 10  5  1  0
 11  7  2  0
 12  3  1  0
 13  1  1  0
 14 12  1  0
 15 12  1  0
 16  4  2  0
 17  9  1  0
 18 24  1  0
 19 13  2  0
 20 11  1  0
 21 17  1  0
 22 13  1  0
 23  9  1  0
 24 23  1  0
 25  7  1  0
 26 21  1  0
  5  2  2  0
 15 14  1  0
  8 11  1  0
 18 21  1  0
M  END
> <chembl_id>
CHEMBL583

> <chembl_pref_name>
GREPAFLOXACIN
