
     RDKit          2D

 36 40  0  0  0  0  0  0  0  0999 V2000
    3.0542   -0.5542    0.0000 C   0  0  0  0  0  0  0  0  0  0  0  0
    2.3667   -0.9542    0.0000 C   0  0  0  0  0  0  0  0  0  0  0  0
    1.7000   -0.5292    0.0000 O   0  0  0  0  0  0  0  0  0  0  0  0
    1.0250   -0.9250    0.0000 C   0  0  0  0  0  0  0  0  0  0  0  0
    3.1917    0.2125    0.0000 N   0  0  0  0  0  0  0  0  0  0  0  0
    3.9542    0.3333    0.0000 N   0  0  0  0  0  0  0  0  0  0  0  0
    2.3667   -1.6917    0.0000 C   0  0  0  0  0  0  0  0  0  0  0  0
    4.2875   -0.3375    0.0000 N   0  0  0  0  0  0  0  0  0  0  0  0
    1.7000   -2.0917    0.0000 C   0  0  0  0  0  0  0  0  0  0  0  0
    1.0250   -1.7167    0.0000 C   0  0  0  0  0  0  0  0  0  0  0  0
    3.7417   -0.9000    0.0000 N   0  0  0  0  0  0  0  0  0  0  0  0
   -0.2750    0.7000    0.0000 C   0  0  0  0  0  0  0  0  0  0  0  0
    0.3625    0.2625    0.0000 N   0  0  0  0  0  0  0  0  0  0  0  0
    0.3542   -0.5292    0.0000 C   0  0  0  0  0  0  0  0  0  0  0  0
   -0.9708    0.3333    0.0000 C   0  0  0  0  0  0  0  0  0  0  0  0
    1.6917   -2.9167    0.0000 O   0  0  0  0  0  0  0  0  0  0  0  0
   -0.2750    1.4833    0.0000 O   0  0  0  0  0  0  0  0  0  0  0  0
   -0.9708   -0.4542    0.0000 C   0  0  0  0  0  0  0  0  0  0  0  0
   -1.6458    0.7458    0.0000 C   0  0  0  0  0  0  0  0  0  0  0  0
   -2.3833   -0.4250    0.0000 C   0  0  0  0  0  0  0  0  0  0  0  0
    0.3542   -2.0917    0.0000 C   0  0  0  0  0  0  0  0  0  0  0  0
   -2.3875    0.3583    0.0000 C   0  0  0  0  0  0  0  0  0  0  0  0
   -1.7000   -0.8292    0.0000 C   0  0  0  0  0  0  0  0  0  0  0  0
   -0.3000   -0.9542    0.0000 C   0  0  0  0  0  0  0  0  0  0  0  0
   -3.0708   -0.8000    0.0000 O   0  0  0  0  0  0  0  0  0  0  0  0
   -3.6958    1.9000    0.0000 C   0  0  0  0  0  0  0  0  0  0  0  0
   -0.3000   -1.6917    0.0000 C   0  0  0  0  0  0  0  0  0  0  0  0
   -4.3458    1.5125    0.0000 C   0  0  0  0  0  0  0  0  0  0  0  0
   -3.6958   -0.4000    0.0000 C   0  0  0  0  0  0  0  0  0  0  0  0
   -3.6958    2.6833    0.0000 C   0  0  0  0  0  0  0  0  0  0  0  0
   -3.0083    1.5125    0.0000 C   0  0  0  0  0  0  0  0  0  0  0  0
   -4.3458    0.7333    0.0000 C   0  0  0  0  0  0  0  0  0  0  0  0
   -3.6958    0.4250    0.0000 C   0  0  0  0  0  0  0  0  0  0  0  0
   -2.9750    3.0708    0.0000 C   0  0  0  0  0  0  0  0  0  0  0  0
   -2.3000    1.8958    0.0000 C   0  0  0  0  0  0  0  0  0  0  0  0
   -2.3000    2.6708    0.0000 C   0  0  0  0  0  0  0  0  0  0  0  0
  2  1  1  0
  3  2  1  0
  4  3  1  0
  5  1  2  0
  6  5  1  0
  7  2  2  0
  8 11  1  0
  9  7  1  0
 10  9  1  0
 11  1  1  0
 12 13  1  0
 13 14  1  0
 14  4  1  0
 15 12  1  0
 16  9  2  0
 17 12  2  0
 18 15  2  0
 19 15  1  0
 20 22  1  0
 21 10  1  0
 22 19  2  0
 23 18  1  0
 24 14  2  0
 25 20  1  0
 26 28  1  0
 27 21  2  0
 28 32  1  0
 29 25  1  0
 30 26  1  0
 31 26  2  0
 32 33  1  0
 33 29  1  0
 34 30  2  0
 35 31  1  0
 36 35  2  0
  8  6  2  0
  4 10  2  0
 24 27  1  0
 23 20  2  0
 34 36  1  0
M  END
> <chembl_id>
CHEMBL21333

> <chembl_pref_name>
PRANLUKAST
