
     RDKit          2D

  8  6  0  0  0  0  0  0  0  0999 V2000
    3.5917   -3.6500    0.0000 Na  0  0  0  0  0 15  0  0  0  0  0  0
    2.2167   -3.9625    0.0000 S   0  0  0  0  0  0  0  0  0  0  0  0
    2.8292   -3.6042    0.0000 O   0  0  0  0  0  0  0  0  0  0  0  0
    1.6042   -3.6042    0.0000 C   0  0  0  0  0  0  0  0  0  0  0  0
    1.8667   -4.5750    0.0000 O   0  0  0  0  0  0  0  0  0  0  0  0
    2.5792   -4.5750    0.0000 O   0  0  0  0  0  0  0  0  0  0  0  0
    0.3750   -3.6042    0.0000 S   0  0  0  0  0  0  0  0  0  0  0  0
    0.9917   -3.9625    0.0000 C   0  0  0  0  0  0  0  0  0  0  0  0
  3  2  1  0
  4  2  1  0
  5  2  2  0
  6  2  2  0
  7  8  1  0
  8  4  1  0
M  CHG  2   1   1   3  -1
M  END
> <chembl_id>
CHEMBL975

> <chembl_pref_name>
MESNA
