
     RDKit          2D

 30 33  0  0  0  0  0  0  0  0999 V2000
   -0.9708   -0.3292    0.0000 N   0  0  0  0  0  0  0  0  0  0  0  0
   -0.2958   -0.7167    0.0000 C   0  0  0  0  0  0  0  0  0  0  0  0
   -0.9708   -1.8625    0.0000 S   0  0  0  0  0  0  0  0  0  0  0  0
   -0.2958   -1.4875    0.0000 C   0  0  0  0  0  0  0  0  0  0  0  0
   -0.9708    0.4375    0.0000 C   0  0  0  0  0  0  0  0  0  0  0  0
   -1.6250   -0.7000    0.0000 C   0  0  0  0  0  0  0  0  0  0  0  0
   -1.6250   -1.4875    0.0000 C   0  0  0  0  0  0  0  0  0  0  0  0
    2.3750   -0.6667    0.0000 C   0  0  0  0  0  0  0  0  0  0  0  0
    0.3625   -0.3292    0.0000 C   0  0  0  0  0  0  0  0  0  0  0  0
   -1.6250    0.8250    0.0000 C   0  0  0  0  0  0  0  0  0  0  0  0
   -2.9375    0.8583    0.0000 N   0  0  0  0  0  0  0  0  0  0  0  0
    1.7000   -0.2917    0.0000 N   0  0  0  0  0  0  0  0  0  0  0  0
    1.0167   -0.7000    0.0000 C   0  0  0  0  0  0  0  0  0  0  0  0
   -0.2958    0.8083    0.0000 O   0  0  0  0  0  0  0  0  0  0  0  0
    2.3792   -1.4167    0.0000 O   0  0  0  0  0  0  0  0  0  0  0  0
    0.3625   -1.8625    0.0000 C   0  0  0  0  0  0  0  0  0  0  0  0
   -2.2958    0.4583    0.0000 C   0  0  0  0  0  0  0  0  0  0  0  0
   -4.2458    1.6458    0.0000 O   0  0  0  0  0  0  0  0  0  0  0  0
    3.0167   -0.2500    0.0000 O   0  0  0  0  0  0  0  0  0  0  0  0
    1.0167   -1.4875    0.0000 C   0  0  0  0  0  0  0  0  0  0  0  0
   -2.2875   -0.3125    0.0000 C   0  0  0  0  0  0  0  0  0  0  0  0
   -2.2875   -1.8792    0.0000 C   0  0  0  0  0  0  0  0  0  0  0  0
   -3.6083    0.4958    0.0000 C   0  0  0  0  0  0  0  0  0  0  0  0
   -2.9250    1.6250    0.0000 C   0  0  0  0  0  0  0  0  0  0  0  0
   -4.2583    0.9000    0.0000 C   0  0  0  0  0  0  0  0  0  0  0  0
   -3.5833    2.0083    0.0000 C   0  0  0  0  0  0  0  0  0  0  0  0
    3.7000   -0.6000    0.0000 C   0  0  0  0  0  0  0  0  0  0  0  0
   -2.9708   -0.7000    0.0000 C   0  0  0  0  0  0  0  0  0  0  0  0
   -2.9708   -1.5000    0.0000 C   0  0  0  0  0  0  0  0  0  0  0  0
    4.3417   -0.1750    0.0000 C   0  0  0  0  0  0  0  0  0  0  0  0
  2  1  1  0
  3  7  1  0
  4  2  2  0
  5  1  1  0
  6  1  1  0
  7  6  2  0
  8 12  1  0
  9  2  1  0
 10  5  1  0
 11 17  1  0
 12 13  1  0
 13  9  2  0
 14  5  2  0
 15  8  2  0
 16  4  1  0
 17 10  1  0
 18 26  1  0
 19  8  1  0
 20 13  1  0
 21  6  1  0
 22  7  1  0
 23 11  1  0
 24 11  1  0
 25 23  1  0
 26 24  1  0
 27 19  1  0
 28 21  2  0
 29 28  1  0
 30 27  1  0
  4  3  1  0
 22 29  2  0
 16 20  2  0
 25 18  1  0
M  END
> <chembl_id>
CHEMBL1075

> <chembl_pref_name>
MORICIZINE
