
     RDKit          2D

 20 20  0  0  0  0  0  0  0  0999 V2000
    0.6250    1.3875    0.0000 C   0  0  0  0  0  0  0  0  0  0  0  0
    1.7750   -0.6042    0.0000 C   0  0  0  0  0  0  0  0  0  0  0  0
   -0.5208   -0.6042    0.0000 C   0  0  0  0  0  0  0  0  0  0  0  0
    1.7750    0.7083    0.0000 C   0  0  0  0  0  0  0  0  0  0  0  0
   -0.5208    0.7250    0.0000 C   0  0  0  0  0  0  0  0  0  0  0  0
    0.6250   -1.2667    0.0000 C   0  0  0  0  0  0  0  0  0  0  0  0
    0.6250    2.7083    0.0000 C   0  0  0  0  0  0  0  0  0  0  0  0
    2.9375   -1.2667    0.0000 N   0  0  0  0  0  0  0  0  0  0  0  0
   -1.6625   -1.2792    0.0000 N   0  0  0  0  0  0  0  0  0  0  0  0
    2.9375   -2.6042    0.0000 C   0  0  0  0  0  0  0  0  0  0  0  0
   -2.8333   -0.6417    0.0000 C   0  0  0  0  0  0  0  0  0  0  0  0
   -0.5208    3.3708    0.0000 O   0  0  0  0  0  0  0  0  0  0  0  0
    2.9542    1.3875    0.0000 I   0  0  0  0  0  0  0  0  0  0  0  0
   -1.6625    1.4083    0.0000 I   0  0  0  0  0  0  0  0  0  0  0  0
    0.6250   -2.5875    0.0000 I   0  0  0  0  0  0  0  0  0  0  0  0
    4.0667   -3.2625    0.0000 O   0  0  0  0  0  0  0  0  0  0  0  0
   -3.9583   -1.3167    0.0000 O   0  0  0  0  0  0  0  0  0  0  0  0
    1.7750    3.3833    0.0000 O   0  0  0  0  0  0  0  0  0  0  0  0
   -2.8458    0.6750    0.0000 C   0  0  0  0  0  0  0  0  0  0  0  0
    1.7750   -3.2625    0.0000 C   0  0  0  0  0  0  0  0  0  0  0  0
  2  4  2  0
  3  5  1  0
  4  1  1  0
  5  1  2  0
  6  3  2  0
  7  1  1  0
  8  2  1  0
  9  3  1  0
 10  8  1  0
 11  9  1  0
 12  7  2  0
 13  4  1  0
 14  5  1  0
 15  6  1  0
 16 10  2  0
 17 11  2  0
 18  7  1  0
 19 11  1  0
 20 10  1  0
  2  6  1  0
M  END
> <chembl_id>
CHEMBL1201220

> <chembl_pref_name>
DIATRIZOIC ACID
