
     RDKit          2D

 21 22  0  0  0  0  0  0  0  0999 V2000
    4.4000   -4.1167    0.0000 C   0  0  0  0  0  0  0  0  0  0  0  0
    5.7292   -4.4667    0.0000 C   0  0  0  0  0  0  0  0  0  0  0  0
    5.1167   -4.1167    0.0000 C   0  0  0  0  0  0  0  0  0  0  0  0
    4.0542   -4.7292    0.0000 C   0  0  0  0  0  0  0  0  0  0  0  0
    6.3417   -4.1042    0.0000 C   0  0  0  0  0  0  0  0  0  0  0  0
    5.7292   -5.1750    0.0000 C   0  0  0  0  0  0  0  0  0  0  0  0
    4.0292   -3.5042    0.0000 C   0  0  0  0  0  0  0  0  0  0  0  0
    3.3375   -4.7375    0.0000 C   0  0  0  0  0  0  0  0  0  0  0  0
    6.9667   -4.4667    0.0000 C   0  0  0  0  0  0  0  0  0  0  0  0
    6.3500   -5.5292    0.0000 C   0  0  0  0  0  0  0  0  0  0  0  0
    3.3167   -3.5042    0.0000 C   0  0  0  0  0  0  0  0  0  0  0  0
    2.9750   -4.1250    0.0000 C   0  0  0  0  0  0  0  0  0  0  0  0
    6.9750   -5.1750    0.0000 C   0  0  0  0  0  0  0  0  0  0  0  0
    6.3417   -3.3917    0.0000 Cl  0  0  0  0  0  0  0  0  0  0  0  0
    4.4167   -5.3417    0.0000 Cl  0  0  0  0  0  0  0  0  0  0  0  0
    2.9792   -5.3667    0.0000 Cl  0  0  0  0  0  0  0  0  0  0  0  0
    6.3542   -6.2500    0.0000 Cl  0  0  0  0  0  0  0  0  0  0  0  0
    7.5917   -4.1042    0.0000 Cl  0  0  0  0  0  0  0  0  0  0  0  0
    2.9542   -2.8917    0.0000 Cl  0  0  0  0  0  0  0  0  0  0  0  0
    4.3875   -2.8750    0.0000 O   0  0  0  0  0  0  0  0  0  0  0  0
    5.1125   -5.5292    0.0000 O   0  0  0  0  0  0  0  0  0  0  0  0
  2  3  1  0
  3  1  1  0
  4  1  2  0
  5  2  1  0
  6  2  2  0
  7  1  1  0
  8  4  1  0
  9  5  2  0
 10  6  1  0
 11  7  2  0
 12 11  1  0
 13 10  2  0
 14  5  1  0
 15  4  1  0
 16  8  1  0
 17 10  1  0
 18  9  1  0
 19 11  1  0
 20  7  1  0
 21  6  1  0
 12  8  2  0
 13  9  1  0
M  END
> <chembl_id>
CHEMBL496

> <chembl_pref_name>
HEXACHLOROPHENE
