
     RDKit          2D

 21 22  0  0  1  0  0  0  0  0999 V2000
   -0.1407    0.5922    0.0000 C   0  0  0  0  0  0  0  0  0  0  0  0
   -0.8592    0.1748    0.0000 C   0  0  0  0  0  0  0  0  0  0  0  0
   -0.8592   -0.6553    0.0000 C   0  0  0  0  0  0  0  0  0  0  0  0
   -1.5679    0.5922    0.0000 C   0  0  0  0  0  0  0  0  0  0  0  0
    0.5680    0.1748    0.0000 C   0  0  0  0  0  0  0  0  0  0  0  0
    1.2719    0.5922    0.0000 N   0  0  0  0  0  0  0  0  0  0  0  0
   -2.2961   -0.6408    0.0000 C   0  0  0  0  0  0  0  0  0  0  0  0
    4.8641   -0.5583    0.0000 C   0  0  0  0  0  0  0  0  0  0  0  0
   -2.2913    0.1748    0.0000 C   0  0  0  0  0  0  0  0  0  0  0  0
   -1.5728   -1.0680    0.0000 C   0  0  0  0  0  0  0  0  0  0  0  0
   -0.1407    1.4126    0.0000 O   0  0  0  0  0  0  0  0  0  0  0  0
    3.4224    0.2330    0.0000 C   0  0  0  0  0  0  0  0  0  0  0  0
    4.1554   -0.9806    0.0000 C   0  0  0  0  0  0  0  0  0  0  0  0
    4.8399    0.2718    0.0000 C   0  0  0  0  0  0  0  0  0  0  0  0
    3.4272   -0.5874    0.0000 C   0  0  0  0  0  0  0  0  0  0  0  0
    4.1263    0.6650    0.0000 C   0  0  0  0  0  0  0  0  0  0  0  0
    1.9952    0.1990    0.0000 C   0  0  0  0  0  0  0  0  0  0  0  0
   -3.0243   -1.0243    0.0000 O   0  0  0  0  0  0  0  0  0  0  0  0
    5.5972   -0.9661    0.0000 O   0  0  0  0  0  0  0  0  0  0  0  0
    2.7039    0.6213    0.0000 C   0  0  0  0  0  0  0  0  0  0  0  0
    0.5680   -0.6457    0.0000 C   0  0  0  0  0  0  0  0  0  0  0  0
  2  1  1  0
  3  2  2  0
  4  2  1  0
  5  1  1  0
  6  5  1  0
  7  9  1  0
  8 14  1  0
  9  4  2  0
 10  3  1  0
  1 11  1  0
 12 20  1  0
 13 15  1  0
 14 16  2  0
 15 12  2  0
 16 12  1  0
 17  6  1  0
 18  7  1  0
 19  8  1  0
 20 17  1  0
  5 21  1  0
  7 10  2  0
  8 13  2  0
M  END
> <chembl_id>
CHEMBL83063

> <chembl_pref_name>
RITODRINE
