
     RDKit          2D

 19 21  0  0  0  0  0  0  0  0999 V2000
    6.2375   -4.3125    0.0000 C   0  0  0  0  0  0  0  0  0  0  0  0
    6.2375   -5.0167    0.0000 N   0  0  0  0  0  0  0  0  0  0  0  0
    5.0125   -4.3125    0.0000 C   0  0  0  0  0  0  0  0  0  0  0  0
    5.6167   -3.9542    0.0000 C   0  0  0  0  0  0  0  0  0  0  0  0
    5.6167   -5.3750    0.0000 N   0  0  0  0  0  0  0  0  0  0  0  0
    5.0125   -5.0167    0.0000 C   0  0  0  0  0  0  0  0  0  0  0  0
    4.3917   -5.3750    0.0000 C   0  0  0  0  0  0  0  0  0  0  0  0
    4.3917   -3.9542    0.0000 C   0  0  0  0  0  0  0  0  0  0  0  0
    6.8542   -3.9542    0.0000 C   0  0  0  0  0  0  0  0  0  0  0  0
    3.7792   -5.0167    0.0000 C   0  0  0  0  0  0  0  0  0  0  0  0
    3.7792   -4.3125    0.0000 C   0  0  0  0  0  0  0  0  0  0  0  0
    3.1000   -5.2417    0.0000 O   0  0  0  0  0  0  0  0  0  0  0  0
    3.1000   -4.1000    0.0000 O   0  0  0  0  0  0  0  0  0  0  0  0
    5.6167   -3.2417    0.0000 O   0  0  0  0  0  0  0  0  0  0  0  0
    2.6792   -4.6667    0.0000 C   0  0  0  0  0  0  0  0  0  0  0  0
    6.8625   -3.2500    0.0000 O   0  0  0  0  0  0  0  0  0  0  0  0
    7.4667   -4.3167    0.0000 O   0  0  0  0  0  0  0  0  0  0  0  0
    5.6167   -6.0875    0.0000 C   0  0  0  0  0  0  0  0  0  0  0  0
    6.2375   -6.4417    0.0000 C   0  0  0  0  0  0  0  0  0  0  0  0
  2  1  2  0
  3  4  1  0
  4  1  1  0
  5  2  1  0
  6  3  1  0
  7  6  2  0
  8  3  2  0
  9  1  1  0
 10 11  2  0
 11  8  1  0
 12 10  1  0
 13 11  1  0
 14  4  2  0
 15 13  1  0
 16  9  2  0
 17  9  1  0
 18  5  1  0
 19 18  1  0
  6  5  1  0
  7 10  1  0
 15 12  1  0
M  END
> <chembl_id>
CHEMBL1208

> <chembl_pref_name>
CINOXACIN
