
     RDKit          2D

 42 47  0  0  1  0  0  0  0  0999 V2000
    5.2042  -11.2292    0.0000 C   0  0  0  0  0  0  0  0  0  0  0  0
    7.3500   -9.9875    0.0000 C   0  0  0  0  0  0  0  0  0  0  0  0
    3.7750  -12.0542    0.0000 C   0  0  0  0  0  0  0  0  0  0  0  0
    5.2042  -12.0542    0.0000 C   0  0  0  0  0  0  0  0  0  0  0  0
    2.9917  -12.3125    0.0000 N   0  0  0  0  0  0  0  0  0  0  0  0
    7.3500  -10.8167    0.0000 C   0  0  0  0  0  0  0  0  0  0  0  0
    6.6292  -11.2292    0.0000 C   0  0  0  0  0  0  0  0  0  0  0  0
    3.7750  -11.2292    0.0000 C   0  0  0  0  0  0  0  0  0  0  0  0
    8.1292   -9.7292    0.0000 C   0  0  0  0  0  0  0  0  0  0  0  0
    2.5042  -11.6417    0.0000 N   0  0  0  0  0  0  0  0  0  0  0  0
    4.4917  -12.4667    0.0000 C   0  0  0  0  0  0  0  0  0  0  0  0
    5.9167  -10.8167    0.0000 C   0  0  0  0  0  0  0  0  0  0  0  0
    6.6292  -12.0542    0.0000 C   0  0  0  0  0  0  0  0  0  0  0  0
    5.9167  -12.4667    0.0000 C   0  0  0  0  0  0  0  0  0  0  0  0
    4.4917  -10.8167    0.0000 C   0  0  0  0  0  0  0  0  0  0  0  0
    6.6292   -9.5750    0.0000 C   0  0  0  0  0  0  0  0  0  0  0  0
    5.9167   -9.9875    0.0000 C   0  0  0  0  0  0  0  0  0  0  0  0
    8.6167  -10.4000    0.0000 C   0  0  0  0  0  0  0  0  0  0  0  0
    8.1292  -11.0667    0.0000 C   0  0  0  0  0  0  0  0  0  0  0  0
    2.9917  -10.9750    0.0000 C   0  0  0  0  0  0  0  0  0  0  0  0
    8.2625   -8.9167    0.0000 C   0  0  0  0  0  0  0  0  0  0  0  0
    2.8625  -13.1250    0.0000 C   0  0  0  0  0  0  0  0  0  0  0  0
    9.9167   -7.5000    0.0000 C   0  0  0  0  0  0  0  0  0  0  0  0
    9.0250   -8.6250    0.0000 C   0  0  0  0  0  0  0  0  0  0  0  0
    7.6167   -8.4000    0.0000 O   0  0  0  0  0  0  0  0  0  0  0  0
    9.1542   -7.8042    0.0000 O   0  0  0  0  0  0  0  0  0  0  0  0
   10.5667   -8.0167    0.0000 O   0  0  0  0  0  0  0  0  0  0  0  0
    8.9542   -9.6417    0.0000 O   0  0  0  0  0  0  0  0  0  0  0  0
    7.3500   -9.1542    0.0000 C   0  0  0  0  0  0  0  0  0  0  0  0
    4.9042  -10.3042    0.0000 C   0  0  0  0  0  0  0  0  0  0  0  0
    5.3042   -9.2417    0.0000 O   0  0  0  0  0  0  0  0  0  0  0  0
    5.9167  -13.2917    0.0000 C   0  0  0  0  0  0  0  0  0  0  0  0
    9.3042  -10.6167    0.0000 C   0  0  0  0  0  0  0  0  0  0  0  0
   10.0417   -6.6792    0.0000 C   0  0  0  0  0  0  0  0  0  0  0  0
    2.0917  -13.4250    0.0000 C   0  0  0  0  0  0  0  0  0  0  0  0
    3.5000  -13.6375    0.0000 C   0  0  0  0  0  0  0  0  0  0  0  0
    1.9667  -14.2417    0.0000 C   0  0  0  0  0  0  0  0  0  0  0  0
    3.3750  -14.4542    0.0000 C   0  0  0  0  0  0  0  0  0  0  0  0
    2.6042  -14.7542    0.0000 C   0  0  0  0  0  0  0  0  0  0  0  0
    6.4917  -10.1792    0.0000 H   0  0  0  0  0  0  0  0  0  0  0  0
    7.6500  -11.7042    0.0000 H   0  0  0  0  0  0  0  0  0  0  0  0
    6.0875  -11.5167    0.0000 H   0  0  0  0  0  0  0  0  0  0  0  0
  2 16  1  0
  3  8  2  0
  4  1  1  0
  5  3  1  0
  6  7  1  0
  7 12  1  0
  8 15  1  0
  9  2  1  0
 10 20  2  0
 11  4  2  0
 12  1  1  0
 13  7  1  0
 14  4  1  0
 15  1  1  0
 16 17  1  0
 17 12  1  0
 18 19  1  0
 19  6  1  0
 20  8  1  0
  9 21  1  1
 22  5  1  0
 23 26  1  0
 24 21  1  0
 25 21  2  0
 26 24  1  0
 27 23  2  0
  9 28  1  6
  2 29  1  1
  1 30  1  1
 17 31  1  1
 32 14  1  0
 18 33  1  6
 34 23  1  0
 35 22  2  0
 36 22  1  0
 37 35  1  0
 38 36  2  0
 39 38  1  0
  7 40  1  1
  6 41  1  6
 12 42  1  6
 14 13  2  0
 11  3  1  0
  6  2  1  0
  5 10  1  0
  9 18  1  0
 37 39  2  0
M  END
> <chembl_id>
CHEMBL2105842

> <chembl_pref_name>
CORTIVAZOL
