
     RDKit          2D

 23 24  0  0  1  0  0  0  0  0999 V2000
    4.6625   -5.0292    0.0000 C   0  0  0  0  0  0  0  0  0  0  0  0
    5.2667   -4.6875    0.0000 N   0  0  0  0  0  0  0  0  0  0  0  0
    5.8875   -5.0417    0.0000 C   0  0  0  0  0  0  0  0  0  0  0  0
    6.4917   -4.7000    0.0000 C   0  0  0  0  0  0  0  0  0  0  0  0
    4.0500   -4.6792    0.0000 C   0  0  0  0  0  0  0  0  0  0  0  0
    4.6625   -5.7500    0.0000 O   0  0  0  0  0  0  0  0  0  0  0  0
    5.8875   -5.7500    0.0000 C   0  0  0  0  0  0  0  0  0  0  0  0
    6.4917   -3.9917    0.0000 O   0  0  0  0  0  0  0  0  0  0  0  0
    2.8167   -3.9667    0.0000 C   0  0  0  0  0  0  0  0  0  0  0  0
    4.0500   -3.9667    0.0000 C   0  0  0  0  0  0  0  0  0  0  0  0
    3.4417   -5.0292    0.0000 C   0  0  0  0  0  0  0  0  0  0  0  0
    3.4417   -3.6125    0.0000 C   0  0  0  0  0  0  0  0  0  0  0  0
    2.8167   -4.6792    0.0000 C   0  0  0  0  0  0  0  0  0  0  0  0
    7.1292   -5.0417    0.0000 O   0  0  0  0  0  0  0  0  0  0  0  0
    2.2042   -3.6125    0.0000 C   0  0  0  0  0  0  0  0  0  0  0  0
    6.4792   -6.1042    0.0000 C   0  0  0  0  0  0  0  0  0  0  0  0
    1.5917   -3.9625    0.0000 C   0  0  0  0  0  0  0  0  0  0  0  0
    2.2042   -2.8917    0.0000 C   0  0  0  0  0  0  0  0  0  0  0  0
    6.4792   -6.8292    0.0000 C   0  0  0  0  0  0  0  0  0  0  0  0
    7.1042   -5.7500    0.0000 C   0  0  0  0  0  0  0  0  0  0  0  0
    7.1042   -7.1667    0.0000 C   0  0  0  0  0  0  0  0  0  0  0  0
    7.7167   -6.1042    0.0000 C   0  0  0  0  0  0  0  0  0  0  0  0
    7.7167   -6.8292    0.0000 C   0  0  0  0  0  0  0  0  0  0  0  0
  2  1  1  0
  3  2  1  0
  4  3  1  0
  5  1  1  1
  6  1  2  0
  3  7  1  1
  8  4  2  0
  9 13  1  0
 10  5  1  0
 11  5  1  0
 12 10  1  0
 13 11  1  0
 14  4  1  0
  9 15  1  6
 16  7  1  0
 17 15  1  0
 18 15  1  0
 19 16  1  0
 20 16  2  0
 21 19  2  0
 22 20  1  0
 23 22  2  0
  9 12  1  0
 23 21  1  0
M  END
> <chembl_id>
CHEMBL783

> <chembl_pref_name>
NATEGLINIDE
