
     RDKit          2D

 40 42  0  0  0  0  0  0  0  0999 V2000
    3.7420   -6.9536    0.0000 S   0  0  0  0  0  0  0  0  0  0  0  0
    2.9170   -6.9536    0.0000 C   0  0  0  0  0  0  0  0  0  0  0  0
    4.5670   -6.9536    0.0000 O   0  0  0  0  0  0  0  0  0  0  0  0
    3.7420   -6.1286    0.0000 O   0  0  0  0  0  0  0  0  0  0  0  0
    3.7420   -7.7786    0.0000 O   0  0  0  0  0  0  0  0  0  0  0  0
   -5.9812   -2.9759    0.0000 C   0  0  0  0  0  0  0  0  0  0  0  0
   -6.6957   -3.3884    0.0000 C   0  0  0  0  0  0  0  0  0  0  0  0
   -6.6957   -4.2134    0.0000 C   0  0  0  0  0  0  0  0  0  0  0  0
   -5.9812   -4.6259    0.0000 C   0  0  0  0  0  0  0  0  0  0  0  0
   -5.2668   -4.2134    0.0000 C   0  0  0  0  0  0  0  0  0  0  0  0
   -5.2668   -3.3884    0.0000 C   0  0  0  0  0  0  0  0  0  0  0  0
   -4.5523   -2.9759    0.0000 F   0  0  0  0  0  0  0  0  0  0  0  0
   -5.9812   -5.4509    0.0000 F   0  0  0  0  0  0  0  0  0  0  0  0
   -4.5523   -4.6259    0.0000 S   0  0  0  0  0  0  0  0  0  0  0  0
   -3.8378   -4.2134    0.0000 N   0  0  0  0  0  0  0  0  0  0  0  0
   -3.1234   -4.6259    0.0000 C   0  0  0  0  0  0  0  0  0  0  0  0
   -2.4089   -4.2134    0.0000 C   0  0  0  0  0  0  0  0  0  0  0  0
   -3.1234   -5.4509    0.0000 C   0  0  0  0  0  0  0  0  0  0  0  0
   -2.4089   -5.8634    0.0000 C   0  0  0  0  0  0  0  0  0  0  0  0
   -1.6944   -5.4509    0.0000 C   0  0  0  0  0  0  0  0  0  0  0  0
   -1.6944   -4.6259    0.0000 C   0  0  0  0  0  0  0  0  0  0  0  0
   -2.4089   -3.3884    0.0000 F   0  0  0  0  0  0  0  0  0  0  0  0
   -0.9800   -4.2134    0.0000 C   0  0  0  0  0  0  0  0  0  0  0  0
    0.0120   -3.3202    0.0000 S   0  0  0  0  0  0  0  0  0  0  0  0
   -0.8085   -3.4065    0.0000 C   0  0  0  0  0  0  0  0  0  0  0  0
   -0.2655   -4.6259    0.0000 N   0  0  0  0  0  0  0  0  0  0  0  0
    0.3476   -4.0739    0.0000 C   0  0  0  0  0  0  0  0  0  0  0  0
   -1.3918   -2.8231    0.0000 C   0  0  0  0  0  0  0  0  0  0  0  0
   -1.3918   -1.3941    0.0000 C   0  0  0  0  0  0  0  0  0  0  0  0
   -2.2168   -1.3942    0.0000 N   0  0  0  0  0  0  0  0  0  0  0  0
   -2.6293   -2.1086    0.0000 C   0  0  0  0  0  0  0  0  0  0  0  0
   -2.2168   -2.8231    0.0000 C   0  0  0  0  0  0  0  0  0  0  0  0
   -0.9793   -2.1086    0.0000 N   0  0  0  0  0  0  0  0  0  0  0  0
   -0.8084   -0.8108    0.0000 N   0  0  0  0  0  0  0  0  0  0  0  0
    1.0620   -4.4864    0.0000 C   0  0  0  0  0  0  0  0  0  0  0  0
    1.7765   -4.0739    0.0000 C   0  0  0  0  0  0  0  0  0  0  0  0
    1.4745   -5.2009    0.0000 C   0  0  0  0  0  0  0  0  0  0  0  0
    0.3476   -4.8989    0.0000 C   0  0  0  0  0  0  0  0  0  0  0  0
   -4.9648   -5.3404    0.0000 O   0  0  0  0  0  0  0  0  0  0  0  0
   -4.1398   -5.3404    0.0000 O   0  0  0  0  0  0  0  0  0  0  0  0
  1  2  1  0
  1  3  1  0
  1  4  2  0
  1  5  2  0
  6  7  1  0
  6 11  2  0
  7  8  2  0
  8  9  1  0
  9 10  2  0
 10 11  1  0
 11 12  1  0
  9 13  1  0
 10 14  1  0
 14 15  1  0
 15 16  1  0
 17 16  2  0
 16 18  1  0
 17 21  1  0
 18 19  2  0
 19 20  1  0
 20 21  2  0
 17 22  1  0
 21 23  1  0
 25 23  2  0
 23 26  1  0
 24 25  1  0
 24 27  1  0
 26 27  2  0
 25 28  1  0
 32 28  1  0
 28 33  2  0
 29 30  2  0
 29 33  1  0
 30 31  1  0
 31 32  2  0
 29 34  1  0
 27 35  1  0
 35 36  1  0
 35 37  1  0
 35 38  1  0
 14 39  2  0
 14 40  2  0
M  END
> <chembl_id>
CHEMBL2105729

> <chembl_pref_name>
DABRAFENIB MESYLATE
