
     RDKit          2D

 16 17  0  0  0  0  0  0  0  0999 V2000
   -2.6208    0.2458    0.0000 C   0  0  0  0  0  0  0  0  0  0  0  0
   -2.0708   -1.0167    0.0000 N   0  0  0  0  0  0  0  0  0  0  0  0
   -1.9250    1.4458    0.0000 N   0  0  0  0  0  0  0  0  0  0  0  0
   -4.0833    1.8833    0.0000 N   0  0  0  0  0  0  0  0  0  0  0  0
   -3.9458    0.5250    0.0000 C   0  0  0  0  0  0  0  0  0  0  0  0
   -2.8458    2.4583    0.0000 C   0  0  0  0  0  0  0  0  0  0  0  0
   -0.6958   -1.1917    0.0000 O   0  0  0  0  0  0  0  0  0  0  0  0
    1.4625    0.2458    0.0000 N   0  0  0  0  0  0  0  0  0  0  0  0
   -2.8750   -2.1167    0.0000 O   0  0  0  0  0  0  0  0  0  0  0  0
   -0.5750    1.4458    0.0000 C   0  0  0  0  0  0  0  0  0  0  0  0
    4.1917    0.2458    0.0000 O   0  0  0  0  0  0  0  0  0  0  0  0
    0.1125    0.2458    0.0000 C   0  0  0  0  0  0  0  0  0  0  0  0
    2.1542   -0.9375    0.0000 C   0  0  0  0  0  0  0  0  0  0  0  0
    2.1542    1.4458    0.0000 C   0  0  0  0  0  0  0  0  0  0  0  0
    3.5292   -0.9375    0.0000 C   0  0  0  0  0  0  0  0  0  0  0  0
    3.5292    1.4458    0.0000 C   0  0  0  0  0  0  0  0  0  0  0  0
  2  1  1  0
  3  1  1  0
  4  5  1  0
  5  1  2  0
  6  3  1  0
  7  2  1  0
  8 12  1  0
  9  2  2  0
 10  3  1  0
 11 16  1  0
 12 10  1  0
 13  8  1  0
 14  8  1  0
 15 13  1  0
 16 14  1  0
  6  4  2  0
 15 11  1  0
M  CHG  2   2   1   7  -1
M  END
> <chembl_id>
CHEMBL435966

> <chembl_pref_name>
NIMORAZOLE
