
     RDKit          2D

 30 31  0  0  0  0  0  0  0  0999 V2000
    4.2542   -0.5542    0.0000 Cl  0  0  0  0  0  0  0  0  0  0  0  0
    0.1167    0.0708    0.0000 C   0  0  0  0  0  0  0  0  0  0  0  0
    0.8292    0.4833    0.0000 C   0  0  0  0  0  0  0  0  0  0  0  0
    0.1167   -0.7542    0.0000 C   0  0  0  0  0  0  0  0  0  0  0  0
   -0.5958    0.4833    0.0000 C   0  0  0  0  0  0  0  0  0  0  0  0
    1.5417    0.0625    0.0000 N   0  0  0  0  0  0  0  0  0  0  0  0
   -0.5958   -1.1667    0.0000 C   0  0  0  0  0  0  0  0  0  0  0  0
    0.8375    1.3000    0.0000 N   0  0  0  0  0  0  0  0  0  0  0  0
   -1.3000    0.0708    0.0000 C   0  0  0  0  0  0  0  0  0  0  0  0
   -1.3000   -0.7542    0.0000 C   0  0  0  0  0  0  0  0  0  0  0  0
    3.6917    1.2958    0.0000 C   0  0  0  0  0  0  0  0  0  0  0  0
    0.8250   -1.1750    0.0000 N   0  0  0  0  0  0  0  0  0  0  0  0
    4.4042    0.8833    0.0000 C   0  0  0  0  0  0  0  0  0  0  0  0
    1.5417   -0.7625    0.0000 C   0  0  0  0  0  0  0  0  0  0  0  0
    1.5542    1.7125    0.0000 C   0  0  0  0  0  0  0  0  0  0  0  0
    2.9792    1.7083    0.0000 C   0  0  0  0  0  0  0  0  0  0  0  0
    2.2542    1.3000    0.0000 C   0  0  0  0  0  0  0  0  0  0  0  0
   -2.0208    0.4833    0.0000 O   0  0  0  0  0  0  0  0  0  0  0  0
   -2.0208   -1.1750    0.0000 O   0  0  0  0  0  0  0  0  0  0  0  0
    2.2542    2.9458    0.0000 C   0  0  0  0  0  0  0  0  0  0  0  0
   -2.7250   -3.2375    0.0000 O   0  0  0  0  0  0  0  0  0  0  0  0
   -4.1625    0.0708    0.0000 O   0  0  0  0  0  0  0  0  0  0  0  0
    1.5500    2.5375    0.0000 C   0  0  0  0  0  0  0  0  0  0  0  0
    2.9792    2.5333    0.0000 C   0  0  0  0  0  0  0  0  0  0  0  0
   -2.0208   -2.0000    0.0000 C   0  0  0  0  0  0  0  0  0  0  0  0
   -2.7375    0.0708    0.0000 C   0  0  0  0  0  0  0  0  0  0  0  0
   -2.7333   -2.4125    0.0000 C   0  0  0  0  0  0  0  0  0  0  0  0
   -3.4500    0.4833    0.0000 C   0  0  0  0  0  0  0  0  0  0  0  0
   -4.1625   -0.7542    0.0000 C   0  0  0  0  0  0  0  0  0  0  0  0
   -2.0125   -3.6417    0.0000 C   0  0  0  0  0  0  0  0  0  0  0  0
  3  2  1  0
  4  2  2  0
  5  2  1  0
  6  3  2  0
  7  4  1  0
  8  3  1  0
  9  5  2  0
 10  9  1  0
 11 16  1  0
 12  4  1  0
 13 11  3  0
 14 12  2  0
 15  8  1  0
 16 17  1  0
 17 15  2  0
 18  9  1  0
 19 10  1  0
 20 23  2  0
 21 27  1  0
 22 28  1  0
 23 15  1  0
 24 20  1  0
 25 19  1  0
 26 18  1  0
 27 25  1  0
 28 26  1  0
 29 22  1  0
 30 21  1  0
  7 10  2  0
  6 14  1  0
 16 24  2  0
M  END
> <chembl_id>
CHEMBL1079742

> <chembl_pref_name>
ERLOTINIB HYDROCHLORIDE
