
     RDKit          2D

 26 28  0  0  0  0  0  0  0  0999 V2000
   -0.9000   -0.3875    0.0000 C   0  0  0  0  0  0  0  0  0  0  0  0
   -1.8000   -0.9042    0.0000 C   0  0  0  0  0  0  0  0  0  0  0  0
   -0.9000   -1.4292    0.0000 C   0  0  0  0  0  0  0  0  0  0  0  0
   -0.0208   -1.9000    0.0000 C   0  0  0  0  0  0  0  0  0  0  0  0
   -2.8000   -0.9042    0.0000 C   0  0  0  0  0  0  0  0  0  0  0  0
    0.8542   -1.4167    0.0000 O   0  0  0  0  0  0  0  0  0  0  0  0
   -3.3000   -0.0042    0.0000 C   0  0  0  0  0  0  0  0  0  0  0  0
   -0.0333   -2.9292    0.0000 O   0  0  0  0  0  0  0  0  0  0  0  0
    3.4542    1.0958    0.0000 O   0  0  0  0  0  0  0  0  0  0  0  0
    3.4542    0.0583    0.0000 C   0  0  0  0  0  0  0  0  0  0  0  0
    0.0375   -0.0917    0.0000 C   0  0  0  0  0  0  0  0  0  0  0  0
   -1.2208    0.4875    0.0000 C   0  0  0  0  0  0  0  0  0  0  0  0
    2.5792   -0.4042    0.0000 C   0  0  0  0  0  0  0  0  0  0  0  0
    1.7000   -1.9000    0.0000 C   0  0  0  0  0  0  0  0  0  0  0  0
    2.5667   -1.4000    0.0000 C   0  0  0  0  0  0  0  0  0  0  0  0
    2.6500    1.6583    0.0000 C   0  0  0  0  0  0  0  0  0  0  0  0
    4.3417   -1.4375    0.0000 C   0  0  0  0  0  0  0  0  0  0  0  0
    4.3292   -0.4292    0.0000 C   0  0  0  0  0  0  0  0  0  0  0  0
   -2.8083    0.8750    0.0000 C   0  0  0  0  0  0  0  0  0  0  0  0
   -4.3458   -0.0042    0.0000 C   0  0  0  0  0  0  0  0  0  0  0  0
    3.4417   -1.9417    0.0000 C   0  0  0  0  0  0  0  0  0  0  0  0
    2.6500    2.6708    0.0000 C   0  0  0  0  0  0  0  0  0  0  0  0
    1.7542    1.1833    0.0000 C   0  0  0  0  0  0  0  0  0  0  0  0
    1.8000    3.1833    0.0000 C   0  0  0  0  0  0  0  0  0  0  0  0
    0.8667    1.6708    0.0000 C   0  0  0  0  0  0  0  0  0  0  0  0
    0.8667    2.6583    0.0000 C   0  0  0  0  0  0  0  0  0  0  0  0
  2  1  1  0
  3  1  1  0
  4  3  1  0
  5  2  1  0
  6  4  1  0
  7  5  2  0
  8  4  2  0
  9 10  1  0
 10 13  1  0
 11  1  1  0
 12  1  1  0
 13 15  2  0
 14  6  1  0
 15 14  1  0
 16  9  1  0
 17 21  2  0
 18 17  1  0
 19  7  1  0
 20  7  1  0
 21 15  1  0
 22 16  1  0
 23 16  2  0
 24 22  2  0
 25 23  1  0
 26 25  2  0
  2  3  1  0
 10 18  2  0
 24 26  1  0
M  END
> <chembl_id>
CHEMBL1322884

> <chembl_pref_name>
PHENOTHRIN
