
     RDKit          2D

 31 35  0  0  0  0  0  0  0  0999 V2000
   -2.9833    0.1375    0.0000 N   0  0  0  0  0  0  0  0  0  0  0  0
   -2.9750    0.8458    0.0000 C   0  0  0  0  0  0  0  0  0  0  0  0
   -2.3708   -0.2167    0.0000 C   0  0  0  0  0  0  0  0  0  0  0  0
   -1.7500    0.1208    0.0000 C   0  0  0  0  0  0  0  0  0  0  0  0
   -2.3583    1.1958    0.0000 N   0  0  0  0  0  0  0  0  0  0  0  0
    1.9417   -2.0667    0.0000 N   0  0  0  0  0  0  0  0  0  0  0  0
   -1.7375    0.8333    0.0000 C   0  0  0  0  0  0  0  0  0  0  0  0
    1.9042   -1.3542    0.0000 C   0  0  0  0  0  0  0  0  0  0  0  0
    2.5667   -1.1042    0.0000 C   0  0  0  0  0  0  0  0  0  0  0  0
    2.6167   -2.2500    0.0000 O   0  0  0  0  0  0  0  0  0  0  0  0
    3.0125   -1.6667    0.0000 C   0  0  0  0  0  0  0  0  0  0  0  0
   -1.1458   -0.2375    0.0000 C   0  0  0  0  0  0  0  0  0  0  0  0
    0.0792   -0.2625    0.0000 N   0  0  0  0  0  0  0  0  0  0  0  0
    2.8292   -0.4500    0.0000 C   0  0  0  0  0  0  0  0  0  0  0  0
    3.7042   -1.5542    0.0000 C   0  0  0  0  0  0  0  0  0  0  0  0
   -2.3708   -0.9417    0.0000 O   0  0  0  0  0  0  0  0  0  0  0  0
   -3.5875    1.2083    0.0000 C   0  0  0  0  0  0  0  0  0  0  0  0
    1.2917   -0.9875    0.0000 C   0  0  0  0  0  0  0  0  0  0  0  0
   -0.5333    0.1083    0.0000 C   0  0  0  0  0  0  0  0  0  0  0  0
   -3.6000   -0.2125    0.0000 C   0  0  0  0  0  0  0  0  0  0  0  0
    3.9667   -0.9042    0.0000 C   0  0  0  0  0  0  0  0  0  0  0  0
    0.6792   -1.3375    0.0000 C   0  0  0  0  0  0  0  0  0  0  0  0
    1.3042   -0.2792    0.0000 C   0  0  0  0  0  0  0  0  0  0  0  0
    0.0667   -0.9750    0.0000 C   0  0  0  0  0  0  0  0  0  0  0  0
    0.7000    0.0833    0.0000 C   0  0  0  0  0  0  0  0  0  0  0  0
    3.5292   -0.3417    0.0000 C   0  0  0  0  0  0  0  0  0  0  0  0
   -1.1083    1.1750    0.0000 C   0  0  0  0  0  0  0  0  0  0  0  0
    4.6750   -0.8042    0.0000 F   0  0  0  0  0  0  0  0  0  0  0  0
   -3.5875    1.9333    0.0000 O   0  0  0  0  0  0  0  0  0  0  0  0
   -4.2208    0.1583    0.0000 C   0  0  0  0  0  0  0  0  0  0  0  0
   -4.2083    0.8625    0.0000 C   0  0  0  0  0  0  0  0  0  0  0  0
  2  1  1  0
  3  1  1  0
  4  3  1  0
  5  2  2  0
  6  8  2  0
  7  4  2  0
  8 18  1  0
  9  8  1  0
 10  6  1  0
 11  9  1  0
 12  4  1  0
 13 19  1  0
 14  9  2  0
 15 11  2  0
 16  3  2  0
 17  2  1  0
 18 23  1  0
 19 12  1  0
 20  1  1  0
 21 26  2  0
 22 24  1  0
 23 25  1  0
 24 13  1  0
 25 13  1  0
 26 14  1  0
 27  7  1  0
 28 21  1  0
 29 17  1  0
 30 20  1  0
 31 30  1  0
 31 17  1  0
  7  5  1  0
 18 22  1  0
 11 10  1  0
 15 21  1  0
M  END
> <chembl_id>
CHEMBL1621

> <chembl_pref_name>
PALIPERIDONE
