
     RDKit          2D

 10 10  0  0  0  0  0  0  0  0999 V2000
   -0.0083    1.5000    0.0000 C   0  0  0  0  0  0  0  0  0  0  0  0
    1.2167    0.7833    0.0000 C   0  0  0  0  0  0  0  0  0  0  0  0
   -1.2458    0.7833    0.0000 C   0  0  0  0  0  0  0  0  0  0  0  0
    1.2167   -0.6375    0.0000 C   0  0  0  0  0  0  0  0  0  0  0  0
   -1.2458   -0.6375    0.0000 C   0  0  0  0  0  0  0  0  0  0  0  0
   -0.0083   -1.3667    0.0000 C   0  0  0  0  0  0  0  0  0  0  0  0
   -0.0083    2.9208    0.0000 Cl  0  0  0  0  0  0  0  0  0  0  0  0
   -0.0083   -2.7917    0.0000 O   0  0  0  0  0  0  0  0  0  0  0  0
    2.4792    1.5333    0.0000 C   0  0  0  0  0  0  0  0  0  0  0  0
   -2.4833    1.5208    0.0000 C   0  0  0  0  0  0  0  0  0  0  0  0
  2  1  1  0
  3  1  2  0
  4  2  2  0
  5  3  1  0
  6  5  2  0
  7  1  1  0
  8  6  1  0
  9  2  1  0
 10  3  1  0
  4  6  1  0
M  END
> <chembl_id>
CHEMBL398440

> <chembl_pref_name>
CHLOROXYLENOL
