
     RDKit          2D

 33 34  0  0  0  0  0  0  0  0999 V2000
   -1.2208    1.1208    0.0000 C   0  0  0  0  0  0  0  0  0  0  0  0
    0.3375    1.1208    0.0000 C   0  0  0  0  0  0  0  0  0  0  0  0
   -0.4458    0.6708    0.0000 C   0  0  0  0  0  0  0  0  0  0  0  0
   -1.2208    2.0208    0.0000 C   0  0  0  0  0  0  0  0  0  0  0  0
    0.3375    2.0208    0.0000 C   0  0  0  0  0  0  0  0  0  0  0  0
   -0.4458    2.4708    0.0000 N   0  0  0  0  0  0  0  0  0  0  0  0
    1.1250    0.6708    0.0000 C   0  0  0  0  0  0  0  0  0  0  0  0
   -2.0000    0.6708    0.0000 C   0  0  0  0  0  0  0  0  0  0  0  0
   -0.4458   -0.6375    0.0000 C   0  0  0  0  0  0  0  0  0  0  0  0
    1.1292   -0.6542    0.0000 C   0  0  0  0  0  0  0  0  0  0  0  0
    2.6917   -0.6792    0.0000 C   0  0  0  0  0  0  0  0  0  0  0  0
    1.9042   -1.1125    0.0000 C   0  0  0  0  0  0  0  0  0  0  0  0
    0.3375   -1.0875    0.0000 C   0  0  0  0  0  0  0  0  0  0  0  0
    3.4625   -1.1417    0.0000 O   0  0  0  0  0  0  0  0  0  0  0  0
    1.1250   -0.1667    0.0000 O   0  0  0  0  0  0  0  0  0  0  0  0
   -2.0000   -0.2375    0.0000 O   0  0  0  0  0  0  0  0  0  0  0  0
    2.7042    0.1958    0.0000 O   0  0  0  0  0  0  0  0  0  0  0  0
    3.4542   -2.0417    0.0000 C   0  0  0  0  0  0  0  0  0  0  0  0
   -2.7958    1.1208    0.0000 O   0  0  0  0  0  0  0  0  0  0  0  0
    1.9042    1.1208    0.0000 O   0  0  0  0  0  0  0  0  0  0  0  0
    1.1250    2.4708    0.0000 C   0  0  0  0  0  0  0  0  0  0  0  0
   -2.0000    2.4833    0.0000 C   0  0  0  0  0  0  0  0  0  0  0  0
   -1.2208   -1.0875    0.0000 C   0  0  0  0  0  0  0  0  0  0  0  0
    0.3375   -1.9917    0.0000 C   0  0  0  0  0  0  0  0  0  0  0  0
    2.6625   -2.4792    0.0000 C   0  0  0  0  0  0  0  0  0  0  0  0
    4.1792   -2.5667    0.0000 C   0  0  0  0  0  0  0  0  0  0  0  0
    4.3417   -2.1375    0.0000 C   0  0  0  0  0  0  0  0  0  0  0  0
    2.6792    0.6708    0.0000 C   0  0  0  0  0  0  0  0  0  0  0  0
   -3.5708    0.6708    0.0000 C   0  0  0  0  0  0  0  0  0  0  0  0
   -1.2208   -1.9917    0.0000 C   0  0  0  0  0  0  0  0  0  0  0  0
   -4.3458    1.1208    0.0000 C   0  0  0  0  0  0  0  0  0  0  0  0
    3.4667    1.1208    0.0000 C   0  0  0  0  0  0  0  0  0  0  0  0
   -0.4458   -2.4417    0.0000 C   0  0  0  0  0  0  0  0  0  0  0  0
  2  3  1  0
  3  1  1  0
  4  1  2  0
  5  6  1  0
  6  4  1  0
  7  2  1  0
  8  1  1  0
  9  3  1  0
 10 13  1  0
 11 12  1  0
 12 10  2  0
 13  9  1  0
 14 11  1  0
 15  7  2  0
 16  8  2  0
 17 11  2  0
 18 14  1  0
 19  8  1  0
 20  7  1  0
 21  5  1  0
 22  4  1  0
 23  9  2  0
 24 13  2  0
 25 18  1  0
 26 18  1  0
 27 18  1  0
 28 20  1  0
 29 19  1  0
 30 23  1  0
 31 29  1  0
 32 28  1  0
 33 30  2  0
  2  5  2  0
 24 33  1  0
M  END
> <chembl_id>
CHEMBL460291

> <chembl_pref_name>
LACIDIPINE
