
     RDKit          2D

 42 45  0  0  1  0  0  0  0  0999 V2000
    0.7430   -0.0386    0.0000 C   0  0  0  0  0  0  0  0  0  0  0  0
    0.0145   -1.2833    0.0000 C   0  0  0  0  0  0  0  0  0  0  0  0
   -2.2628   -3.1553    0.0000 C   0  0  0  0  0  0  0  0  0  0  0  0
    2.8851   -0.4825    0.0000 C   0  0  0  0  0  0  0  0  0  0  0  0
   -1.0711   -2.0697    0.0000 C   0  0  0  0  0  0  0  0  0  0  0  0
    1.4618    0.3570    0.0000 C   0  0  0  0  0  0  0  0  0  0  0  0
   -2.6728   -3.8645    0.0000 C   0  0  0  0  0  0  0  0  0  0  0  0
    3.3000   -1.1917    0.0000 C   0  0  0  0  0  0  0  0  0  0  0  0
   -0.2461   -2.0697    0.0000 C   0  0  0  0  0  0  0  0  0  0  0  0
    4.1250   -1.1917    0.0000 C   0  0  0  0  0  0  0  0  0  0  0  0
   -3.4978   -3.8645    0.0000 C   0  0  0  0  0  0  0  0  0  0  0  0
    0.7285   -0.8588    0.0000 O   0  0  0  0  0  0  0  0  0  0  0  0
   -0.6513   -0.7961    0.0000 O   0  0  0  0  0  0  0  0  0  0  0  0
   -2.6728   -2.4364    0.0000 O   0  0  0  0  0  0  0  0  0  0  0  0
    3.3000    0.2316    0.0000 O   0  0  0  0  0  0  0  0  0  0  0  0
   -1.5487   -2.7307    0.0000 O   0  0  0  0  0  0  0  0  0  0  0  0
    2.1614   -0.0628    0.0000 O   0  0  0  0  0  0  0  0  0  0  0  0
    0.0338    0.3859    0.0000 C   0  0  0  0  0  0  0  0  0  0  0  0
    4.5351   -0.4825    0.0000 C   0  0  0  0  0  0  0  0  0  0  0  0
   -3.9128   -3.1553    0.0000 C   0  0  0  0  0  0  0  0  0  0  0  0
   -1.3220   -1.2833    0.0000 C   0  0  0  0  0  0  0  0  0  0  0  0
   -3.4978   -2.4364    0.0000 C   0  0  0  0  0  0  0  0  0  0  0  0
    4.1250    0.2316    0.0000 C   0  0  0  0  0  0  0  0  0  0  0  0
    1.4763    1.1820    0.0000 C   0  0  0  0  0  0  0  0  0  0  0  0
    0.0483    1.2109    0.0000 C   0  0  0  0  0  0  0  0  0  0  0  0
    0.7720    1.6114    0.0000 C   0  0  0  0  0  0  0  0  0  0  0  0
   -2.2579   -4.5785    0.0000 N   0  0  0  0  0  0  0  0  0  0  0  0
    2.8851   -1.9057    0.0000 N   0  0  0  0  0  0  0  0  0  0  0  0
    0.2412   -2.7307    0.0000 O   0  0  0  0  0  0  0  0  0  0  0  0
   -3.9079   -4.5833    0.0000 O   0  0  0  0  0  0  0  0  0  0  0  0
    4.5303   -1.9057    0.0000 O   0  0  0  0  0  0  0  0  0  0  0  0
    2.2000    1.5825    0.0000 N   0  0  0  0  0  0  0  0  0  0  0  0
   -0.6562    1.6404    0.0000 N   0  0  0  0  0  0  0  0  0  0  0  0
   -0.6851   -0.0096    0.0000 O   0  0  0  0  0  0  0  0  0  0  0  0
   -4.7378   -3.1553    0.0000 O   0  0  0  0  0  0  0  0  0  0  0  0
    5.3601   -0.4825    0.0000 O   0  0  0  0  0  0  0  0  0  0  0  0
   -3.9079   -1.7224    0.0000 C   0  0  0  0  0  0  0  0  0  0  0  0
   -2.0408   -0.8684    0.0000 C   0  0  0  0  0  0  0  0  0  0  0  0
    4.5303    0.9504    0.0000 C   0  0  0  0  0  0  0  0  0  0  0  0
   -4.7329   -1.7224    0.0000 N   0  0  0  0  0  0  0  0  0  0  0  0
    5.3553    0.9504    0.0000 O   0  0  0  0  0  0  0  0  0  0  0  0
   -2.7596   -1.2785    0.0000 O   0  0  0  0  0  0  0  0  0  0  0  0
  2 12  1  1
  3 16  1  6
  4 17  1  1
  5  9  1  0
  6  1  1  0
  7  3  1  0
  8  4  1  0
  9  2  1  0
 10  8  1  0
 11  7  1  0
  1 12  1  6
 13  2  1  0
 14  3  1  0
 15  4  1  0
  5 16  1  6
  6 17  1  1
 18  1  1  0
 19 23  1  0
 20 22  1  0
 21 13  1  0
 22 14  1  0
 23 15  1  0
 24  6  1  0
 25 18  1  0
 26 24  1  0
  7 27  1  6
  8 28  1  1
  9 29  1  6
 11 30  1  1
 10 31  1  6
 24 32  1  6
 25 33  1  6
 18 34  1  1
 20 35  1  6
 19 36  1  1
 21 38  1  1
 23 39  1  6
 40 37  1  0
 41 39  1  0
 42 38  1  0
 25 26  1  0
  5 21  1  0
 19 10  1  0
 20 11  1  0
 22 37  1  6
M  END
> <chembl_id>
CHEMBL370143

> <chembl_pref_name>
PAROMOMYCIN
