
     RDKit          2D

112117  0  0  1  0  0  0  0  0999 V2000
   12.1125   -4.8417    0.0000 N   0  0  0  0  0  0  0  0  0  0  0  0
   11.3875   -4.4875    0.0000 C   0  0  0  0  0  0  0  0  0  0  0  0
   13.3667   -4.4875    0.0000 C   0  0  0  0  0  0  0  0  0  0  0  0
    3.6417   -4.4667    0.0000 C   0  0  0  0  0  0  0  0  0  0  0  0
   12.7792   -4.8417    0.0000 C   0  0  0  0  0  0  0  0  0  0  0  0
    1.6292   -4.8417    0.0000 C   0  0  0  0  0  0  0  0  0  0  0  0
    9.4542   -4.8417    0.0000 C   0  0  0  0  0  0  0  0  0  0  0  0
   -0.3458   -4.4875    0.0000 C   0  0  0  0  0  0  0  0  0  0  0  0
    5.5542   -4.8417    0.0000 C   0  0  0  0  0  0  0  0  0  0  0  0
   -2.2750   -4.8417    0.0000 C   0  0  0  0  0  0  0  0  0  0  0  0
    7.4292   -4.4667    0.0000 C   0  0  0  0  0  0  0  0  0  0  0  0
    2.2667   -4.4667    0.0000 N   0  0  0  0  0  0  0  0  0  0  0  0
    2.9542   -4.8417    0.0000 C   0  0  0  0  0  0  0  0  0  0  0  0
    4.2500   -4.8417    0.0000 N   0  0  0  0  0  0  0  0  0  0  0  0
   -1.6083   -4.4875    0.0000 N   0  0  0  0  0  0  0  0  0  0  0  0
    0.3250   -4.8417    0.0000 N   0  0  0  0  0  0  0  0  0  0  0  0
    8.1250   -4.8417    0.0000 N   0  0  0  0  0  0  0  0  0  0  0  0
   10.0667   -4.5167    0.0000 N   0  0  0  0  0  0  0  0  0  0  0  0
   14.0042   -4.8417    0.0000 N   0  0  0  0  0  0  0  0  0  0  0  0
    6.1625   -4.4667    0.0000 N   0  0  0  0  0  0  0  0  0  0  0  0
   -0.9333   -4.8417    0.0000 C   0  0  0  0  0  0  0  0  0  0  0  0
    4.8917   -4.4667    0.0000 C   0  0  0  0  0  0  0  0  0  0  0  0
    0.9667   -4.4875    0.0000 C   0  0  0  0  0  0  0  0  0  0  0  0
    8.7917   -4.4667    0.0000 C   0  0  0  0  0  0  0  0  0  0  0  0
   10.7042   -4.8625    0.0000 C   0  0  0  0  0  0  0  0  0  0  0  0
   -2.9458   -4.4875    0.0000 C   0  0  0  0  0  0  0  0  0  0  0  0
    8.5667   -7.8917    0.0000 C   0  0  0  0  0  0  0  0  0  0  0  0
   13.0417   -6.8667    0.0000 C   0  0  0  0  0  0  0  0  0  0  0  0
   15.3500   -4.8417    0.0000 C   0  0  0  0  0  0  0  0  0  0  0  0
   -3.5708   -4.8417    0.0000 N   0  0  0  0  0  0  0  0  0  0  0  0
    6.8042   -4.8417    0.0000 C   0  0  0  0  0  0  0  0  0  0  0  0
   -4.2375   -4.4875    0.0000 C   0  0  0  0  0  0  0  0  0  0  0  0
   14.6542   -4.4875    0.0000 C   0  0  0  0  0  0  0  0  0  0  0  0
   13.6917   -6.5292    0.0000 N   0  0  0  0  0  0  0  0  0  0  0  0
    8.5667   -8.6167    0.0000 N   0  0  0  0  0  0  0  0  0  0  0  0
   11.3875   -3.8292    0.0000 O   0  0  0  0  0  0  0  0  0  0  0  0
   13.3667   -3.8292    0.0000 O   0  0  0  0  0  0  0  0  0  0  0  0
   -2.9458   -3.7625    0.0000 C   0  0  0  0  0  0  0  0  0  0  0  0
    3.6417   -3.7625    0.0000 O   0  0  0  0  0  0  0  0  0  0  0  0
    1.6292   -5.6000    0.0000 O   0  0  0  0  0  0  0  0  0  0  0  0
   -2.2750   -5.5542    0.0000 O   0  0  0  0  0  0  0  0  0  0  0  0
   -0.3458   -3.8417    0.0000 O   0  0  0  0  0  0  0  0  0  0  0  0
    5.5542   -5.5417    0.0000 O   0  0  0  0  0  0  0  0  0  0  0  0
    9.4542   -5.5417    0.0000 O   0  0  0  0  0  0  0  0  0  0  0  0
    7.4292   -3.7625    0.0000 O   0  0  0  0  0  0  0  0  0  0  0  0
   -1.7708   -2.2625    0.0000 C   0  0  0  0  0  0  0  0  0  0  0  0
    4.8917   -3.5292    0.0000 C   0  0  0  0  0  0  0  0  0  0  0  0
   -0.9333   -5.5542    0.0000 C   0  0  0  0  0  0  0  0  0  0  0  0
   -2.3833   -3.3417    0.0000 C   0  0  0  0  0  0  0  0  0  0  0  0
    0.9667   -3.7292    0.0000 C   0  0  0  0  0  0  0  0  0  0  0  0
   -2.3833   -2.6167    0.0000 C   0  0  0  0  0  0  0  0  0  0  0  0
   15.3500   -5.5000    0.0000 O   0  0  0  0  0  0  0  0  0  0  0  0
    8.7917   -3.7625    0.0000 C   0  0  0  0  0  0  0  0  0  0  0  0
    2.8250   -3.3417    0.0000 N   0  0  0  0  0  0  0  0  0  0  0  0
   -4.2375   -3.7917    0.0000 O   0  0  0  0  0  0  0  0  0  0  0  0
   13.0417   -7.5792    0.0000 N   0  0  0  0  0  0  0  0  0  0  0  0
    9.1500   -7.6042    0.0000 N   0  0  0  0  0  0  0  0  0  0  0  0
    7.9625   -7.5625    0.0000 N   0  0  0  0  0  0  0  0  0  0  0  0
   12.4792   -6.5292    0.0000 N   0  0  0  0  0  0  0  0  0  0  0  0
   -1.1333   -2.6167    0.0000 C   0  0  0  0  0  0  0  0  0  0  0  0
   -1.1333   -3.3417    0.0000 C   0  0  0  0  0  0  0  0  0  0  0  0
   15.9917   -4.4875    0.0000 N   0  0  0  0  0  0  0  0  0  0  0  0
   11.8667   -5.4542    0.0000 C   0  0  0  0  0  0  0  0  0  0  0  0
    5.4292   -3.1625    0.0000 C   0  0  0  0  0  0  0  0  0  0  0  0
   -0.3958   -5.9542    0.0000 C   0  0  0  0  0  0  0  0  0  0  0  0
   -1.7708   -3.7292    0.0000 C   0  0  0  0  0  0  0  0  0  0  0  0
    0.8500   -6.6542    0.0000 C   0  0  0  0  0  0  0  0  0  0  0  0
    6.5667   -2.5250    0.0000 C   0  0  0  0  0  0  0  0  0  0  0  0
    1.6042   -3.3417    0.0000 C   0  0  0  0  0  0  0  0  0  0  0  0
    1.3750   -7.0375    0.0000 Cl  0  0  0  0  0  0  0  0  0  0  0  0
    2.9542   -5.5417    0.0000 C   0  0  0  0  0  0  0  0  0  0  0  0
    0.2250   -5.6167    0.0000 C   0  0  0  0  0  0  0  0  0  0  0  0
   -0.3958   -6.6542    0.0000 C   0  0  0  0  0  0  0  0  0  0  0  0
    5.4292   -2.5250    0.0000 C   0  0  0  0  0  0  0  0  0  0  0  0
    6.0042   -3.5292    0.0000 C   0  0  0  0  0  0  0  0  0  0  0  0
    0.8500   -5.9542    0.0000 C   0  0  0  0  0  0  0  0  0  0  0  0
    0.2250   -7.0375    0.0000 C   0  0  0  0  0  0  0  0  0  0  0  0
    6.5667   -3.2167    0.0000 C   0  0  0  0  0  0  0  0  0  0  0  0
    6.0042   -2.1625    0.0000 C   0  0  0  0  0  0  0  0  0  0  0  0
   12.9542   -5.5417    0.0000 C   0  0  0  0  0  0  0  0  0  0  0  0
    7.1750   -2.1625    0.0000 O   0  0  0  0  0  0  0  0  0  0  0  0
    3.6417   -5.8542    0.0000 O   0  0  0  0  0  0  0  0  0  0  0  0
    2.1792   -3.6375    0.0000 C   0  0  0  0  0  0  0  0  0  0  0  0
   12.4042   -5.8542    0.0000 C   0  0  0  0  0  0  0  0  0  0  0  0
   10.7042   -5.5417    0.0000 C   0  0  0  0  0  0  0  0  0  0  0  0
    9.3792   -3.4292    0.0000 C   0  0  0  0  0  0  0  0  0  0  0  0
    9.1500   -8.9000    0.0000 C   0  0  0  0  0  0  0  0  0  0  0  0
   14.2667   -6.8292    0.0000 C   0  0  0  0  0  0  0  0  0  0  0  0
   -4.8708   -4.8417    0.0000 C   0  0  0  0  0  0  0  0  0  0  0  0
    2.8250   -2.6167    0.0000 C   0  0  0  0  0  0  0  0  0  0  0  0
    6.8042   -5.6417    0.0000 C   0  0  0  0  0  0  0  0  0  0  0  0
   14.6542   -3.7292    0.0000 C   0  0  0  0  0  0  0  0  0  0  0  0
   -1.7708   -1.5375    0.0000 C   0  0  0  0  0  0  0  0  0  0  0  0
    9.7417   -7.8917    0.0000 C   0  0  0  0  0  0  0  0  0  0  0  0
   13.6292   -7.8917    0.0000 C   0  0  0  0  0  0  0  0  0  0  0  0
    7.9625   -6.9250    0.0000 C   0  0  0  0  0  0  0  0  0  0  0  0
   11.8667   -6.8667    0.0000 C   0  0  0  0  0  0  0  0  0  0  0  0
   -0.5208   -2.2625    0.0000 C   0  0  0  0  0  0  0  0  0  0  0  0
    1.6042   -2.6167    0.0000 C   0  0  0  0  0  0  0  0  0  0  0  0
   11.2917   -5.8542    0.0000 C   0  0  0  0  0  0  0  0  0  0  0  0
    7.3792   -5.8542    0.0000 C   0  0  0  0  0  0  0  0  0  0  0  0
   11.2917   -6.5292    0.0000 C   0  0  0  0  0  0  0  0  0  0  0  0
    7.3792   -6.5542    0.0000 C   0  0  0  0  0  0  0  0  0  0  0  0
    9.3792   -2.7417    0.0000 C   0  0  0  0  0  0  0  0  0  0  0  0
    9.9875   -3.7917    0.0000 C   0  0  0  0  0  0  0  0  0  0  0  0
    9.7417   -8.6167    0.0000 C   0  0  0  0  0  0  0  0  0  0  0  0
   14.8292   -6.5292    0.0000 C   0  0  0  0  0  0  0  0  0  0  0  0
   14.2667   -7.6042    0.0000 C   0  0  0  0  0  0  0  0  0  0  0  0
   10.2792   -7.6042    0.0000 C   0  0  0  0  0  0  0  0  0  0  0  0
    2.1792   -2.2625    0.0000 C   0  0  0  0  0  0  0  0  0  0  0  0
   -1.1333   -1.1792    0.0000 C   0  0  0  0  0  0  0  0  0  0  0  0
   -0.5208   -1.5375    0.0000 C   0  0  0  0  0  0  0  0  0  0  0  0
  2  1  1  0
  5  3  1  6
  4 14  1  0
  5  1  1  0
  6 12  1  0
  7 18  1  0
  8 16  1  0
  9 20  1  0
 10 15  1  0
 11 17  1  0
 12 13  1  0
 13  4  1  0
 14 22  1  0
 15 21  1  0
 16 23  1  0
 17 24  1  0
 18 25  1  0
 19  3  1  0
 20 31  1  0
 21  8  1  0
 22  9  1  0
 23  6  1  0
 24  7  1  0
 25  2  1  0
 26 10  1  0
 27 58  1  0
 28 59  1  0
 29 33  1  0
 30 26  1  0
 31 11  1  0
 32 30  1  0
 33 19  1  0
 34 28  2  0
 35 27  2  0
 36  2  2  0
 37  3  2  0
 26 38  1  6
 39  4  2  0
 40  6  2  0
 41 10  2  0
 42  8  2  0
 43  9  2  0
 44  7  2  0
 45 11  2  0
 46 51  2  0
 22 47  1  1
 21 48  1  1
 49 38  1  0
 23 50  1  6
 51 49  1  0
 52 29  2  0
 24 53  1  1
 54 83  1  0
 55 32  2  0
 56 28  1  0
 57 27  1  0
 58 96  1  0
 59 97  1  0
 60 61  2  0
 61 66  1  0
 62 29  1  0
 63  1  1  0
 64 47  1  0
 65 48  1  0
 66 49  2  0
 67 77  1  0
 68 78  2  0
 69 50  1  0
 70 67  1  0
 13 71  1  6
 72 65  2  0
 73 65  1  0
 74 64  1  0
 75 64  2  0
 76 72  1  0
 77 73  2  0
 78 75  1  0
 79 74  2  0
 80  5  1  0
 81 68  1  0
 82 71  1  0
 83 69  2  0
 84 63  1  0
 25 85  1  6
 86 53  1  0
 87 35  1  0
 88 34  1  0
 89 32  1  0
 90110  1  0
 31 91  1  1
 33 92  1  6
 93 46  1  0
 94 57  1  0
 95 56  1  0
 96103  1  0
 97102  1  0
 98 60  1  0
 99 69  1  0
100 85  1  0
101 91  1  0
102100  1  0
103101  1  0
104 86  1  0
105 86  1  0
106 87  1  0
107 88  1  0
108 95  1  0
109 94  1  0
110 99  2  0
111 93  2  0
112 98  2  0
 84 80  1  0
 68 79  1  0
 90 54  2  0
 67 76  2  0
 60 46  1  0
112111  1  0
M  END
> <chembl_id>
CHEMBL1251

> <chembl_pref_name>
GANIRELIX
