
     RDKit          2D

 34 37  0  0  0  0  0  0  0  0999 V2000
    0.5001    0.3250    0.0000 C   0  0  0  0  0  0  0  0  0  0  0  0
   -0.2875    0.0708    0.0000 C   0  0  0  0  0  0  0  0  0  0  0  0
    2.0877   -0.9501    0.0000 C   0  0  0  0  0  0  0  0  0  0  0  0
    2.8003   -1.3626    0.0000 C   0  0  0  0  0  0  0  0  0  0  0  0
    2.8003   -0.5376    0.0000 C   0  0  0  0  0  0  0  0  0  0  0  0
    1.1876   -0.1292    0.0000 C   0  0  0  0  0  0  0  0  0  0  0  0
    1.2626   -0.9501    0.0000 C   0  0  0  0  0  0  0  0  0  0  0  0
   -0.7709    0.7376    0.0000 C   0  0  0  0  0  0  0  0  0  0  0  0
    0.5001    1.1501    0.0000 C   0  0  0  0  0  0  0  0  0  0  0  0
    0.6626   -1.5210    0.0000 C   0  0  0  0  0  0  0  0  0  0  0  0
   -0.1542   -1.4085    0.0000 C   0  0  0  0  0  0  0  0  0  0  0  0
   -0.2875    1.4085    0.0000 C   0  0  0  0  0  0  0  0  0  0  0  0
   -0.5751   -0.7001    0.0000 C   0  0  0  0  0  0  0  0  0  0  0  0
    1.2126    0.7376    0.0000 C   0  0  0  0  0  0  0  0  0  0  0  0
   -1.4877    0.3250    0.0000 O   0  0  0  0  0  0  0  0  0  0  0  0
    2.0085    0.5251    0.0000 C   0  0  0  0  0  0  0  0  0  0  0  0
   -2.2002    0.7376    0.0000 C   0  0  0  0  0  0  0  0  0  0  0  0
   -2.9170    0.3250    0.0000 C   0  0  0  0  0  0  0  0  0  0  0  0
    1.9002    0.2833    0.0000 O   0  0  0  0  0  0  0  0  0  0  0  0
   -1.0001   -0.3417    0.0000 O   0  0  0  0  0  0  0  0  0  0  0  0
   -2.2002    1.5627    0.0000 O   0  0  0  0  0  0  0  0  0  0  0  0
   -3.6296    0.7376    0.0000 C   0  0  0  0  0  0  0  0  0  0  0  0
    2.8003   -2.1877    0.0000 C   0  0  0  0  0  0  0  0  0  0  0  0
    3.5171   -1.7752    0.0000 C   0  0  0  0  0  0  0  0  0  0  0  0
   -1.1584   -1.2834    0.0000 O   0  0  0  0  0  0  0  0  0  0  0  0
   -0.6084   -2.0960    0.0000 C   0  0  0  0  0  0  0  0  0  0  0  0
   -0.5418    2.1919    0.0000 C   0  0  0  0  0  0  0  0  0  0  0  0
    1.7960    1.3209    0.0000 C   0  0  0  0  0  0  0  0  0  0  0  0
   -1.4335   -2.0960    0.0000 O   0  0  0  0  0  0  0  0  0  0  0  0
   -2.9170   -0.5001    0.0000 C   0  0  0  0  0  0  0  0  0  0  0  0
   -3.6296    1.5627    0.0000 C   0  0  0  0  0  0  0  0  0  0  0  0
    1.6338   -1.8787    0.0000 H   0  0  0  0  0  0  0  0  0  0  0  0
    1.8511   -0.8523    0.0000 H   0  0  0  0  0  0  0  0  0  0  0  0
    1.8283   -1.9159    0.0000 H   0  0  0  0  0  0  0  0  0  0  0  0
  2  1  1  0
  3  7  1  0
  4  5  1  0
  5 16  1  0
  1  6  1  0
  7  6  1  0
  8  2  1  0
  1  9  1  6
 10  7  1  0
 11 13  1  0
 12  9  2  0
 13  2  1  0
 14  1  1  0
  8 15  1  1
 16 14  1  0
 17 15  1  0
 18 17  1  0
 19  6  2  0
  2 20  1  1
 21 17  2  0
 22 18  2  0
 23  4  1  0
 24  4  1  0
 13 25  1  1
 26 11  1  0
 27 12  1  0
 14 28  1  6
 29 26  1  0
 30 18  1  0
 31 22  1  0
  7 32  1  1
  8 12  1  0
  3  5  1  0
 10 11  2  0
  4  3  1  0
  5 33  1  6
  3 34  1  6
M  END
> <chembl_id>
CHEMBL1863513

> <chembl_pref_name>
INGENOL MEBUTATE
