
     RDKit          2D

 35 34  0  0  0  0  0  0  0  0999 V2000
    5.2561   -9.6317    0.0000 S   0  0  0  0  0  0  0  0  0  0  0  0
    4.5427  -10.0491    0.0000 C   0  0  0  0  0  0  0  0  0  0  0  0
    5.6638   -8.9134    0.0000 O   0  0  0  0  0  0  0  0  0  0  0  0
    4.8388   -8.9134    0.0000 O   0  0  0  0  0  0  0  0  0  0  0  0
    5.9695  -10.0491    0.0000 O   0  0  0  0  0  0  0  0  0  0  0  0
    3.1110  -10.0491    0.0000 O   0  0  0  0  0  0  0  0  0  0  0  0
    3.8244   -9.6317    0.0000 C   0  0  0  0  0  0  0  0  0  0  0  0
    1.4414   -8.7843    0.0000 S   0  0  0  0  0  0  0  0  0  0  0  0
    0.7280   -9.2016    0.0000 C   0  0  0  0  0  0  0  0  0  0  0  0
    1.8491   -8.0660    0.0000 O   0  0  0  0  0  0  0  0  0  0  0  0
    1.0241   -8.0660    0.0000 O   0  0  0  0  0  0  0  0  0  0  0  0
    2.1548   -9.2016    0.0000 O   0  0  0  0  0  0  0  0  0  0  0  0
   -0.7037   -9.2016    0.0000 O   0  0  0  0  0  0  0  0  0  0  0  0
    0.0097   -8.7843    0.0000 C   0  0  0  0  0  0  0  0  0  0  0  0
    2.1306   -5.4986    0.0000 C   0  0  0  0  0  0  0  0  0  0  0  0
    8.5610   -8.3766    0.0000 C   0  0  0  0  0  0  0  0  0  0  0  0
    2.8440   -5.9112    0.0000 C   0  0  0  0  0  0  0  0  0  0  0  0
    4.9890   -7.1536    0.0000 C   0  0  0  0  0  0  0  0  0  0  0  0
    2.8440   -6.7411    0.0000 C   0  0  0  0  0  0  0  0  0  0  0  0
    3.5574   -7.1536    0.0000 C   0  0  0  0  0  0  0  0  0  0  0  0
    4.2708   -6.7411    0.0000 C   0  0  0  0  0  0  0  0  0  0  0  0
    5.7024   -6.7362    0.0000 C   0  0  0  0  0  0  0  0  0  0  0  0
    7.8476   -7.9689    0.0000 C   0  0  0  0  0  0  0  0  0  0  0  0
    2.1306   -4.6736    0.0000 N   0  0  0  0  0  0  0  0  0  0  0  0
    8.5659   -9.2016    0.0000 N   0  0  0  0  0  0  0  0  0  0  0  0
    3.5574   -5.4986    0.0000 C   0  0  0  0  0  0  0  0  0  0  0  0
    4.2708   -5.9112    0.0000 C   0  0  0  0  0  0  0  0  0  0  0  0
    7.8427   -7.1391    0.0000 C   0  0  0  0  0  0  0  0  0  0  0  0
    7.1342   -8.3814    0.0000 C   0  0  0  0  0  0  0  0  0  0  0  0
    1.4172   -5.9112    0.0000 N   0  0  0  0  0  0  0  0  0  0  0  0
    9.2744   -7.9641    0.0000 N   0  0  0  0  0  0  0  0  0  0  0  0
    6.4159   -7.1487    0.0000 C   0  0  0  0  0  0  0  0  0  0  0  0
    3.5622   -7.9786    0.0000 O   0  0  0  0  0  0  0  0  0  0  0  0
    6.4159   -7.9737    0.0000 C   0  0  0  0  0  0  0  0  0  0  0  0
    7.1245   -6.7314    0.0000 C   0  0  0  0  0  0  0  0  0  0  0  0
  2  1  1  0
  3  1  2  0
  4  1  2  0
  5  1  1  0
  6  7  1  0
  7  2  1  0
  9  8  1  0
 10  8  2  0
 11  8  2  0
 12  8  1  0
 13 14  1  0
 14  9  1  0
 16 23  1  0
 17 15  1  0
 18 21  1  0
 19 17  2  0
 20 19  1  0
 21 27  1  0
 22 18  2  0
 23 28  1  0
 24 15  2  0
 25 16  2  0
 26 17  1  0
 27 26  2  0
 28 35  2  0
 29 34  1  0
 30 15  1  0
 31 16  1  0
 32 22  1  0
 33 20  1  0
 34 32  2  0
 35 32  1  0
 21 20  2  0
 23 29  2  0
M  END
> <chembl_id>
CHEMBL2023895

> <chembl_pref_name>
HYDROXYSTILBAMIDINE ISETHIONATE
