
     RDKit          2D

 36 40  0  0  1  0  0  0  0  0999 V2000
    0.5417   -3.3875    0.0000 C   0  0  0  0  0  0  0  0  0  0  0  0
    0.5417   -4.1042    0.0000 C   0  0  0  0  0  0  0  0  0  0  0  0
   -0.0833   -4.4417    0.0000 C   0  0  0  0  0  0  0  0  0  0  0  0
   -0.0833   -3.0250    0.0000 C   0  0  0  0  0  0  0  0  0  0  0  0
    1.7917   -4.1042    0.0000 C   0  0  0  0  0  0  0  0  0  0  0  0
    1.7917   -3.3875    0.0000 C   0  0  0  0  0  0  0  0  0  0  0  0
    1.1667   -3.0250    0.0000 C   0  0  0  0  0  0  0  0  0  0  0  0
    1.1667   -4.4417    0.0000 C   0  0  0  0  0  0  0  0  0  0  0  0
    3.0417   -3.3792    0.0000 C   0  0  0  0  0  0  0  0  0  0  0  0
   -0.7083   -4.1042    0.0000 C   0  0  0  0  0  0  0  0  0  0  0  0
   -0.7083   -3.3875    0.0000 C   0  0  0  0  0  0  0  0  0  0  0  0
    2.4167   -4.4542    0.0000 C   0  0  0  0  0  0  0  0  0  0  0  0
    2.4167   -3.0167    0.0000 C   0  0  0  0  0  0  0  0  0  0  0  0
    1.8667   -6.2417    0.0000 C   0  0  0  0  0  0  0  0  0  0  0  0
    1.5417   -5.6667    0.0000 O   0  0  0  0  0  0  0  0  0  0  0  0
    3.0417   -4.1042    0.0000 C   0  0  0  0  0  0  0  0  0  0  0  0
    1.5417   -6.8250    0.0000 C   0  0  0  0  0  0  0  0  0  0  0  0
    0.5292   -6.2417    0.0000 C   0  0  0  0  0  0  0  0  0  0  0  0
    0.8667   -6.8250    0.0000 C   0  0  0  0  0  0  0  0  0  0  0  0
    0.8667   -5.6667    0.0000 C   0  0  0  0  0  0  0  0  0  0  0  0
    2.4250   -5.1542    0.0000 O   0  0  0  0  0  0  0  0  0  0  0  0
    3.5917   -2.9292    0.0000 C   0  0  0  0  0  0  0  0  0  0  0  0
   -0.0708   -5.1500    0.0000 O   0  0  0  0  0  0  0  0  0  0  0  0
   -0.0708   -2.3167    0.0000 O   0  0  0  0  0  0  0  0  0  0  0  0
    3.5667   -2.1250    0.0000 O   0  0  0  0  0  0  0  0  0  0  0  0
    1.1667   -2.3167    0.0000 O   0  0  0  0  0  0  0  0  0  0  0  0
    1.1667   -5.1500    0.0000 O   0  0  0  0  0  0  0  0  0  0  0  0
    3.6375   -3.7667    0.0000 O   0  0  0  0  0  0  0  0  0  0  0  0
    0.5375   -7.4042    0.0000 N   0  0  0  0  0  0  0  0  0  0  0  0
   -0.1375   -6.2417    0.0000 O   0  0  0  0  0  0  0  0  0  0  0  0
   -1.3333   -3.0250    0.0000 C   0  0  0  0  0  0  0  0  0  0  0  0
   -1.3333   -4.4417    0.0000 C   0  0  0  0  0  0  0  0  0  0  0  0
    0.5375   -5.0875    0.0000 C   0  0  0  0  0  0  0  0  0  0  0  0
    4.2292   -3.2875    0.0000 C   0  0  0  0  0  0  0  0  0  0  0  0
   -1.9708   -3.3875    0.0000 C   0  0  0  0  0  0  0  0  0  0  0  0
   -1.9708   -4.1042    0.0000 C   0  0  0  0  0  0  0  0  0  0  0  0
  2  1  1  0
  3  2  1  0
  4  1  1  0
  5  6  2  0
  6  7  1  0
  7  1  2  0
  8  2  2  0
  9 13  1  0
 10 11  2  0
 11  4  1  0
 12  5  1  0
 13  6  1  0
 14 21  1  1
 15 14  1  0
 16  9  1  0
 17 14  1  0
 18 19  1  0
 19 17  1  0
 20 15  1  0
 12 21  1  6
  9 22  1  0
 23  3  2  0
 24  4  2  0
 25 22  2  0
 26  7  1  0
 27  8  1  0
  9 28  1  6
 19 29  1  6
 18 30  1  6
 31 11  1  0
 32 10  1  0
 20 33  1  6
 34 22  1  0
 35 31  2  0
 36 35  1  0
  5  8  1  0
 10  3  1  0
 12 16  1  0
 32 36  2  0
 18 20  1  0
M  END
> <chembl_id>
CHEMBL1117

> <chembl_pref_name>
IDARUBICIN
