
     RDKit          2D

 24 26  0  0  0  0  0  0  0  0999 V2000
    0.8542    0.7708    0.0000 C   0  0  0  0  0  0  0  0  0  0  0  0
    1.8000    0.3833    0.0000 C   0  0  0  0  0  0  0  0  0  0  0  0
    0.0542    0.1500    0.0000 O   0  0  0  0  0  0  0  0  0  0  0  0
   -2.6000    0.3083    0.0000 N   0  0  0  0  0  0  0  0  0  0  0  0
    0.7250    1.7708    0.0000 O   0  0  0  0  0  0  0  0  0  0  0  0
   -0.8625    0.5458    0.0000 C   0  0  0  0  0  0  0  0  0  0  0  0
    2.6000    1.0000    0.0000 C   0  0  0  0  0  0  0  0  0  0  0  0
    1.9292   -0.6042    0.0000 C   0  0  0  0  0  0  0  0  0  0  0  0
   -1.6708   -0.0542    0.0000 C   0  0  0  0  0  0  0  0  0  0  0  0
   -2.7333    1.3208    0.0000 C   0  0  0  0  0  0  0  0  0  0  0  0
   -3.4083   -0.2917    0.0000 C   0  0  0  0  0  0  0  0  0  0  0  0
   -1.9333    1.9333    0.0000 C   0  0  0  0  0  0  0  0  0  0  0  0
   -0.9958    1.5458    0.0000 C   0  0  0  0  0  0  0  0  0  0  0  0
    2.8625   -0.9917    0.0000 C   0  0  0  0  0  0  0  0  0  0  0  0
    3.5292    0.6125    0.0000 C   0  0  0  0  0  0  0  0  0  0  0  0
    2.4667    2.0000    0.0000 C   0  0  0  0  0  0  0  0  0  0  0  0
    1.1167   -1.2250    0.0000 C   0  0  0  0  0  0  0  0  0  0  0  0
   -4.3458    0.0833    0.0000 C   0  0  0  0  0  0  0  0  0  0  0  0
    1.2542   -2.2250    0.0000 C   0  0  0  0  0  0  0  0  0  0  0  0
    2.9917   -1.9917    0.0000 C   0  0  0  0  0  0  0  0  0  0  0  0
    4.3417    1.2333    0.0000 C   0  0  0  0  0  0  0  0  0  0  0  0
    3.2667    2.6208    0.0000 C   0  0  0  0  0  0  0  0  0  0  0  0
    4.2000    2.2333    0.0000 C   0  0  0  0  0  0  0  0  0  0  0  0
    2.1917   -2.6125    0.0000 C   0  0  0  0  0  0  0  0  0  0  0  0
  2  1  1  0
  3  1  1  0
  4  9  1  0
  5  1  2  0
  6  3  1  0
  7  2  1  0
  8  2  1  0
  9  6  1  0
 10 12  1  0
 11  4  1  0
 12 13  1  0
 13  6  1  0
 14  8  1  0
 15  7  2  0
 16  7  1  0
 17  8  2  0
 18 11  1  0
 19 17  1  0
 20 14  2  0
 21 15  1  0
 22 16  2  0
 23 22  1  0
 24 20  1  0
  4 10  1  0
 19 24  2  0
 21 23  2  0
M  END
> <chembl_id>
CHEMBL1623992

> <chembl_pref_name>
PIPERIDOLATE
