
     RDKit          2D

 12 11  0  0  0  0  0  0  0  0999 V2000
    2.0875    0.2208    0.0000 K   0  0  0  0  0 15  0  0  0  0  0  0
   -0.0292    0.3125    0.0000 C   0  0  0  0  0  0  0  0  0  0  0  0
    0.5833    0.6708    0.0000 C   0  0  0  0  0  0  0  0  0  0  0  0
   -0.0292   -0.4000    0.0000 C   0  0  0  0  0  0  0  0  0  0  0  0
   -0.6417    0.6667    0.0000 C   0  0  0  0  0  0  0  0  0  0  0  0
   -0.6417   -0.7542    0.0000 C   0  0  0  0  0  0  0  0  0  0  0  0
    1.1958    0.3167    0.0000 O   0  0  0  0  0  0  0  0  0  0  0  0
    0.5792    1.3792    0.0000 O   0  0  0  0  0  0  0  0  0  0  0  0
   -1.2542   -0.4000    0.0000 C   0  0  0  0  0  0  0  0  0  0  0  0
    0.5875   -0.7542    0.0000 O   0  0  0  0  0  0  0  0  0  0  0  0
   -1.2542    0.3125    0.0000 C   0  0  0  0  0  0  0  0  0  0  0  0
   -1.8667   -0.7542    0.0000 N   0  0  0  0  0  0  0  0  0  0  0  0
  3  2  1  0
  4  2  1  0
  5  2  2  0
  6  4  2  0
  7  3  1  0
  8  3  2  0
  9  6  1  0
 10  4  1  0
 11  5  1  0
 12  9  1  0
  9 11  2  0
M  CHG  2   1   1   7  -1
M  END
> <chembl_id>
CHEMBL1200584

> <chembl_pref_name>
AMINOSALICYLATE POTASSIUM
