
     RDKit          2D

 16 16  0  0  0  0  0  0  0  0999 V2000
    7.7042   -5.3417    0.0000 Cl  0  0  0  0  0  0  0  0  0  0  0  0
    4.5667   -4.8042    0.0000 C   0  0  0  0  0  0  0  0  0  0  0  0
    3.3667   -4.8667    0.0000 C   0  0  0  0  0  0  0  0  0  0  0  0
    3.9542   -4.4542    0.0000 N   0  0  0  0  0  0  0  0  0  0  0  0
    5.1875   -4.4542    0.0000 C   0  0  0  0  0  0  0  0  0  0  0  0
    4.5667   -5.5167    0.0000 C   0  0  0  0  0  0  0  0  0  0  0  0
    5.1875   -5.8917    0.0000 C   0  0  0  0  0  0  0  0  0  0  0  0
    5.7917   -4.8042    0.0000 C   0  0  0  0  0  0  0  0  0  0  0  0
    2.7875   -4.4875    0.0000 N   0  0  0  0  0  0  0  0  0  0  0  0
    3.1542   -5.5667    0.0000 N   0  0  0  0  0  0  0  0  0  0  0  0
    5.7917   -5.5167    0.0000 C   0  0  0  0  0  0  0  0  0  0  0  0
    5.1875   -3.7542    0.0000 Cl  0  0  0  0  0  0  0  0  0  0  0  0
    3.9542   -5.8917    0.0000 Cl  0  0  0  0  0  0  0  0  0  0  0  0
    6.4167   -5.8917    0.0000 N   0  0  0  0  0  0  0  0  0  0  0  0
    2.2167   -4.8667    0.0000 C   0  0  0  0  0  0  0  0  0  0  0  0
    2.4292   -5.5667    0.0000 C   0  0  0  0  0  0  0  0  0  0  0  0
  3  4  2  0
  4  2  1  0
  5  2  2  0
  6  2  1  0
  7  6  2  0
  8  5  1  0
  9  3  1  0
 10  3  1  0
 11  7  1  0
 12  5  1  0
 13  6  1  0
 14 11  1  0
 15  9  1  0
 16 10  1  0
 11  8  2  0
 16 15  1  0
M  END
> <chembl_id>
CHEMBL1200379

> <chembl_pref_name>
APRACLONIDINE HYDROCHLORIDE
