
     RDKit          2D

  5  3  0  0  0  0  0  0  0  0999 V2000
    1.2458    0.4667    0.0000 Cl  0  0  0  0  0  0  0  0  0  0  0  0
    1.3333    1.5042    0.0000 C   0  0  0  0  0  0  0  0  0  0  0  0
    1.3333    2.2042    0.0000 N   0  0  0  0  0  0  0  0  0  0  0  0
    1.9542    1.1542    0.0000 N   0  0  0  0  0  0  0  0  0  0  0  0
    0.7250    1.1375    0.0000 N   0  0  0  0  0  0  0  0  0  0  0  0
  3  2  2  0
  4  2  1  0
  5  2  1  0
M  END
> <chembl_id>
CHEMBL1200728

> <chembl_pref_name>
GUANIDINE HYDROCHLORIDE
