
     RDKit          2D

 90 91  0  0  0  0  0  0  0  0999 V2000
    9.5255   -8.1333    0.0000 C   0  0  0  0  0  0  0  0  0  0  0  0
   10.2399   -7.7208    0.0000 C   0  0  0  0  0  0  0  0  0  0  0  0
   10.9544   -8.1333    0.0000 O   0  0  0  0  0  0  0  0  0  0  0  0
   10.2399   -6.8958    0.0000 O   0  0  0  0  0  0  0  0  0  0  0  0
   -1.5870   -4.0606    0.0000 N   0  0  0  0  0  0  0  0  0  0  0  0
    4.2613   -4.8981    0.0000 N   0  0  0  0  0  0  0  0  0  0  0  0
   -0.6416   -4.6483    0.0000 C   0  0  0  0  0  0  0  0  0  0  0  0
    3.5119   -4.4818    0.0000 C   0  0  0  0  0  0  0  0  0  0  0  0
    1.7389   -6.1569    0.0000 C   0  0  0  0  0  0  0  0  0  0  0  0
   -1.5380   -2.5617    0.0000 C   0  0  0  0  0  0  0  0  0  0  0  0
   -0.6465   -5.6573    0.0000 C   0  0  0  0  0  0  0  0  0  0  0  0
    3.5266   -3.7177    0.0000 C   0  0  0  0  0  0  0  0  0  0  0  0
   -1.8906   -3.3552    0.0000 C   0  0  0  0  0  0  0  0  0  0  0  0
    2.5764   -5.7308    0.0000 N   0  0  0  0  0  0  0  0  0  0  0  0
    0.3870   -6.1471    0.0000 N   0  0  0  0  0  0  0  0  0  0  0  0
    2.7772   -3.3062    0.0000 N   0  0  0  0  0  0  0  0  0  0  0  0
    1.0727   -5.7651    0.0000 C   0  0  0  0  0  0  0  0  0  0  0  0
   -0.7592   -2.1062    0.0000 N   0  0  0  0  0  0  0  0  0  0  0  0
    3.3993   -6.1863    0.0000 C   0  0  0  0  0  0  0  0  0  0  0  0
    4.0850   -5.7798    0.0000 C   0  0  0  0  0  0  0  0  0  0  0  0
    2.7675   -2.4589    0.0000 C   0  0  0  0  0  0  0  0  0  0  0  0
    1.7389   -6.9357    0.0000 C   0  0  0  0  0  0  0  0  0  0  0  0
   -0.0832   -2.4736    0.0000 C   0  0  0  0  0  0  0  0  0  0  0  0
    2.0621   -2.0572    0.0000 C   0  0  0  0  0  0  0  0  0  0  0  0
   -2.1845   -4.5896    0.0000 C   0  0  0  0  0  0  0  0  0  0  0  0
    1.3274   -2.4736    0.0000 C   0  0  0  0  0  0  0  0  0  0  0  0
    1.0923   -7.2786    0.0000 C   0  0  0  0  0  0  0  0  0  0  0  0
    2.0425   -1.3421    0.0000 N   0  0  0  0  0  0  0  0  0  0  0  0
    5.3537   -4.8981    0.0000 C   0  0  0  0  0  0  0  0  0  0  0  0
    4.8540   -6.2598    0.0000 C   0  0  0  0  0  0  0  0  0  0  0  0
    0.5927   -2.0768    0.0000 C   0  0  0  0  0  0  0  0  0  0  0  0
   -2.6988   -3.3552    0.0000 C   0  0  0  0  0  0  0  0  0  0  0  0
    2.7968   -0.8523    0.0000 C   0  0  0  0  0  0  0  0  0  0  0  0
    0.0294   -4.1634    0.0000 O   0  0  0  0  0  0  0  0  0  0  0  0
    2.8262   -4.8981    0.0000 O   0  0  0  0  0  0  0  0  0  0  0  0
   -2.8948   -4.2173    0.0000 C   0  0  0  0  0  0  0  0  0  0  0  0
   -2.2286   -2.0278    0.0000 O   0  0  0  0  0  0  0  0  0  0  0  0
    1.0727   -5.0548    0.0000 O   0  0  0  0  0  0  0  0  0  0  0  0
    3.3993   -6.9847    0.0000 O   0  0  0  0  0  0  0  0  0  0  0  0
    1.0874   -7.9692    0.0000 C   0  0  0  0  0  0  0  0  0  0  0  0
   -1.3029   -6.0540    0.0000 C   0  0  0  0  0  0  0  0  0  0  0  0
    3.4287   -2.0719    0.0000 O   0  0  0  0  0  0  0  0  0  0  0  0
    4.2222   -3.2818    0.0000 C   0  0  0  0  0  0  0  0  0  0  0  0
    5.5691   -5.7602    0.0000 C   0  0  0  0  0  0  0  0  0  0  0  0
    2.8115    0.0098    0.0000 O   0  0  0  0  0  0  0  0  0  0  0  0
   -0.0685   -3.3111    0.0000 N   0  0  0  0  0  0  0  0  0  0  0  0
    0.4311   -8.3463    0.0000 C   0  0  0  0  0  0  0  0  0  0  0  0
    1.7389   -8.3660    0.0000 C   0  0  0  0  0  0  0  0  0  0  0  0
    2.4589   -7.3324    0.0000 O   0  0  0  0  0  0  0  0  0  0  0  0
    0.3821   -6.8378    0.0000 O   0  0  0  0  0  0  0  0  0  0  0  0
    1.0629   -9.5121    0.0000 C   0  0  0  0  0  0  0  0  0  0  0  0
    0.5780   -1.2980    0.0000 O   0  0  0  0  0  0  0  0  0  0  0  0
    0.4311   -9.1251    0.0000 C   0  0  0  0  0  0  0  0  0  0  0  0
    1.7389   -9.1301    0.0000 C   0  0  0  0  0  0  0  0  0  0  0  0
   -1.9837   -5.7063    0.0000 C   0  0  0  0  0  0  0  0  0  0  0  0
   -3.2327   -2.7184    0.0000 O   0  0  0  0  0  0  0  0  0  0  0  0
   -3.4335   -5.7748    0.0000 N   0  0  0  0  0  0  0  0  0  0  0  0
    6.4949   -6.0884    0.0000 O   0  0  0  0  0  0  0  0  0  0  0  0
    2.1062   -3.7079    0.0000 N   0  0  0  0  0  0  0  0  0  0  0  0
    9.7766   -0.7837    0.0000 C   0  0  0  0  0  0  0  0  0  0  0  0
   -1.2882   -6.8378    0.0000 O   0  0  0  0  0  0  0  0  0  0  0  0
    4.2516   -2.4539    0.0000 O   0  0  0  0  0  0  0  0  0  0  0  0
    1.0727  -10.3497    0.0000 O   0  0  0  0  0  0  0  0  0  0  0  0
    3.4581   -1.2196    0.0000 C   0  0  0  0  0  0  0  0  0  0  0  0
   -2.6841   -6.1569    0.0000 C   0  0  0  0  0  0  0  0  0  0  0  0
   10.5113   -1.1952    0.0000 C   0  0  0  0  0  0  0  0  0  0  0  0
    9.0517   -1.1952    0.0000 C   0  0  0  0  0  0  0  0  0  0  0  0
    0.6612   -3.7226    0.0000 C   0  0  0  0  0  0  0  0  0  0  0  0
    1.3715   -3.2965    0.0000 C   0  0  0  0  0  0  0  0  0  0  0  0
    4.8981   -3.7079    0.0000 C   0  0  0  0  0  0  0  0  0  0  0  0
   11.2264   -0.7837    0.0000 C   0  0  0  0  0  0  0  0  0  0  0  0
    8.3366   -0.7837    0.0000 C   0  0  0  0  0  0  0  0  0  0  0  0
    4.0753   -0.8523    0.0000 C   0  0  0  0  0  0  0  0  0  0  0  0
    7.6019   -1.1952    0.0000 C   0  0  0  0  0  0  0  0  0  0  0  0
    6.1471   -1.1952    0.0000 C   0  0  0  0  0  0  0  0  0  0  0  0
    6.8819   -0.7837    0.0000 C   0  0  0  0  0  0  0  0  0  0  0  0
    4.7022   -1.1952    0.0000 C   0  0  0  0  0  0  0  0  0  0  0  0
    5.4271   -0.7837    0.0000 C   0  0  0  0  0  0  0  0  0  0  0  0
    9.0419   -2.0327    0.0000 C   0  0  0  0  0  0  0  0  0  0  0  0
   10.5211   -2.0327    0.0000 C   0  0  0  0  0  0  0  0  0  0  0  0
   11.9611   -1.1952    0.0000 C   0  0  0  0  0  0  0  0  0  0  0  0
   -2.4784   -2.7234    0.0000 H   0  0  0  0  0  0  0  0  0  0  0  0
   -1.3666   -5.2214    0.0000 H   0  0  0  0  0  0  0  0  0  0  0  0
    2.4589   -6.5586    0.0000 H   0  0  0  0  0  0  0  0  0  0  0  0
    4.1438   -6.6418    0.0000 H   0  0  0  0  0  0  0  0  0  0  0  0
    4.3104   -4.1634    0.0000 H   0  0  0  0  0  0  0  0  0  0  0  0
    9.5529   -5.1690    0.0000 C   0  0  0  0  0  0  0  0  0  0  0  0
   10.2674   -4.7565    0.0000 C   0  0  0  0  0  0  0  0  0  0  0  0
   10.9818   -5.1690    0.0000 O   0  0  0  0  0  0  0  0  0  0  0  0
   10.2674   -3.9315    0.0000 O   0  0  0  0  0  0  0  0  0  0  0  0
  1  2  1  0
  2  3  1  0
  2  4  2  0
  6 20  1  0
  7  5  1  0
  8  6  1  0
  9 17  1  0
 10 13  1  0
 11  7  1  0
 12 16  1  0
 13  5  1  0
 14  9  1  0
 15 11  1  0
 16 21  1  0
 17 15  1  0
 18 10  1  0
 19 14  1  0
 20 19  1  0
 21 24  1  0
 22  9  1  0
 23 18  1  0
 24 26  1  0
 25  5  1  0
 26 31  1  0
 27 22  1  0
 24 28  1  6
 29  6  1  0
 30 20  1  0
 31 23  1  0
 32 13  1  0
 33 28  1  0
 34  7  2  0
 35  8  2  0
 36 25  1  0
 37 10  2  0
 38 17  2  0
 39 19  2  0
 40 27  1  0
 41 11  1  0
 42 21  2  0
 43 12  1  0
 44 30  1  0
 45 33  2  0
 23 46  1  1
 47 40  2  0
 48 40  1  0
 22 49  1  6
 27 50  1  6
 51 54  1  0
 31 52  1  6
 53 47  1  0
 54 48  2  0
 55 41  1  0
 32 56  1  6
 57 65  1  0
 44 58  1  6
 59 69  1  0
 60 67  1  0
 41 61  1  6
 43 62  1  6
 63 51  1  0
 64 33  1  0
 65 55  1  0
 66 60  1  0
 67 72  1  0
 68 46  1  0
 69 68  1  0
 70 43  1  0
 71 66  1  0
 72 74  1  0
 73 64  1  0
 74 76  1  0
 75 78  1  0
 76 75  1  0
 77 73  1  0
 78 77  1  0
 67 79  1  6
 66 80  1  6
 81 71  1  0
 13 82  1  6
 11 83  1  6
  9 84  1  6
 20 85  1  6
 12 86  1  6
 36 32  1  0
  8 12  1  0
 51 53  2  0
 44 29  1  0
 87 88  1  0
 88 89  1  0
 88 90  2  0
M  END
> <chembl_id>
CHEMBL5314378

> <chembl_pref_name>
CASPOFUNGIN ACETATE
