
     RDKit          2D

 16 18  0  0  0  0  0  0  0  0999 V2000
    3.6042   -4.3000    0.0000 C   0  0  0  0  0  0  0  0  0  0  0  0
    2.9917   -4.6542    0.0000 C   0  0  0  0  0  0  0  0  0  0  0  0
    3.6042   -3.5875    0.0000 C   0  0  0  0  0  0  0  0  0  0  0  0
    4.2917   -4.5042    0.0000 N   0  0  0  0  0  0  0  0  0  0  0  0
    4.6917   -3.9417    0.0000 S   0  0  0  0  0  0  0  0  0  0  0  0
    3.6000   -5.7167    0.0000 C   0  0  0  0  0  0  0  0  0  0  0  0
    4.2917   -3.3667    0.0000 N   0  0  0  0  0  0  0  0  0  0  0  0
    2.3750   -4.3000    0.0000 C   0  0  0  0  0  0  0  0  0  0  0  0
    2.9917   -5.3625    0.0000 N   0  0  0  0  0  0  0  0  0  0  0  0
    2.9917   -3.2292    0.0000 C   0  0  0  0  0  0  0  0  0  0  0  0
    3.8042   -6.4167    0.0000 N   0  0  0  0  0  0  0  0  0  0  0  0
    2.3750   -3.5875    0.0000 C   0  0  0  0  0  0  0  0  0  0  0  0
    4.1667   -5.3292    0.0000 N   0  0  0  0  0  0  0  0  0  0  0  0
    1.7542   -4.6542    0.0000 Cl  0  0  0  0  0  0  0  0  0  0  0  0
    4.5042   -6.4167    0.0000 C   0  0  0  0  0  0  0  0  0  0  0  0
    4.7250   -5.7167    0.0000 C   0  0  0  0  0  0  0  0  0  0  0  0
  2  1  1  0
  3  1  1  0
  4  1  2  0
  5  4  1  0
  6  9  1  0
  7  3  2  0
  8  2  2  0
  9  2  1  0
 10  3  1  0
 11  6  2  0
 12 10  2  0
 13  6  1  0
 14  8  1  0
 15 11  1  0
 16 13  1  0
  5  7  1  0
 12  8  1  0
 15 16  1  0
M  END
> <chembl_id>
CHEMBL1079

> <chembl_pref_name>
TIZANIDINE
