
     RDKit          2D

 16 16  0  0  0  0  0  0  0  0999 V2000
    3.5875   -6.1250    0.0000 Cl  0  0  0  0  0  0  0  0  0  0  0  0
    1.1292   -5.7542    0.0000 C   0  0  0  0  0  0  0  0  0  0  0  0
    1.7042   -6.1792    0.0000 N   0  0  0  0  0  0  0  0  0  0  0  0
   -1.0208   -5.0792    0.0000 C   0  0  0  0  0  0  0  0  0  0  0  0
    2.0625   -5.0875    0.0000 N   0  0  0  0  0  0  0  0  0  0  0  0
   -0.4458   -4.6667    0.0000 O   0  0  0  0  0  0  0  0  0  0  0  0
   -0.0875   -5.7542    0.0000 C   0  0  0  0  0  0  0  0  0  0  0  0
    0.5167   -6.1125    0.0000 C   0  0  0  0  0  0  0  0  0  0  0  0
    2.2792   -5.7542    0.0000 C   0  0  0  0  0  0  0  0  0  0  0  0
   -0.8000   -5.7542    0.0000 C   0  0  0  0  0  0  0  0  0  0  0  0
    1.3542   -5.0875    0.0000 C   0  0  0  0  0  0  0  0  0  0  0  0
    0.1292   -5.0792    0.0000 C   0  0  0  0  0  0  0  0  0  0  0  0
   -1.6958   -4.8667    0.0000 O   0  0  0  0  0  0  0  0  0  0  0  0
    1.7042   -6.8875    0.0000 C   0  0  0  0  0  0  0  0  0  0  0  0
   -1.4208   -6.1042    0.0000 C   0  0  0  0  0  0  0  0  0  0  0  0
   -2.0333   -5.7417    0.0000 C   0  0  0  0  0  0  0  0  0  0  0  0
  3  2  1  0
  4 10  1  0
  5 11  1  0
  6 12  1  0
  7  8  1  6
  8  2  1  0
  9  3  1  0
 10  7  1  0
 11  2  2  0
 12  7  1  0
 13  4  2  0
 14  3  1  0
 10 15  1  6
 16 15  1  0
  9  5  2  0
  4  6  1  0
M  END
> <chembl_id>
CHEMBL1200330

> <chembl_pref_name>
PILOCARPINE HYDROCHLORIDE
