
     RDKit          2D

 22 23  0  0  0  0  0  0  0  0999 V2000
    6.0696   -3.6241    0.0000 Cl  0  0  0  0  0  0  0  0  0  0  0  0
    0.9797   -2.7107    0.0000 C   0  0  0  0  0  0  0  0  0  0  0  0
    0.2652   -2.2982    0.0000 C   0  0  0  0  0  0  0  0  0  0  0  0
   -0.4493   -2.7107    0.0000 C   0  0  0  0  0  0  0  0  0  0  0  0
   -0.4493   -3.5357    0.0000 C   0  0  0  0  0  0  0  0  0  0  0  0
    0.2652   -3.9482    0.0000 C   0  0  0  0  0  0  0  0  0  0  0  0
    0.9797   -3.5357    0.0000 C   0  0  0  0  0  0  0  0  0  0  0  0
    1.6942   -2.2982    0.0000 C   0  0  0  0  0  0  0  0  0  0  0  0
    2.4086   -2.7107    0.0000 C   0  0  0  0  0  0  0  0  0  0  0  0
    2.4086   -3.5357    0.0000 C   0  0  0  0  0  0  0  0  0  0  0  0
    1.6941   -3.9482    0.0000 C   0  0  0  0  0  0  0  0  0  0  0  0
    3.9188   -2.6518    0.0000 N   0  0  0  0  0  0  0  0  0  0  0  0
    4.6554   -3.9188    0.0000 C   0  0  0  0  0  0  0  0  0  0  0  0
    3.5063   -4.9205    0.0000 C   0  0  0  0  0  0  0  0  0  0  0  0
    3.1231   -3.9482    0.0000 C   0  0  0  0  0  0  0  0  0  0  0  0
    1.2928   -4.6690    0.0000 C   0  0  0  0  0  0  0  0  0  0  0  0
    4.3162   -1.9288    0.0000 C   0  0  0  0  0  0  0  0  0  0  0  0
    5.1412   -1.9288    0.0000 C   0  0  0  0  0  0  0  0  0  0  0  0
    5.5537   -1.2143    0.0000 C   0  0  0  0  0  0  0  0  0  0  0  0
    6.3787   -1.2143    0.0000 C   0  0  0  0  0  0  0  0  0  0  0  0
    5.1412   -0.4999    0.0000 C   0  0  0  0  0  0  0  0  0  0  0  0
   -1.1638   -3.9482    0.0000 O   0  0  0  0  0  0  0  0  0  0  0  0
  2  3  1  0
  3  4  2  0
  4  5  1  0
  5  6  2  0
  6  7  1  0
 11  7  1  0
  7  2  2  0
  2  8  1  0
  8  9  1  0
  9 10  1  0
 10 11  1  0
 11 14  1  0
 14 13  1  0
 13 12  1  0
  9 12  1  0
 10 15  1  0
 11 16  1  0
 12 17  1  0
 17 18  1  0
 18 19  2  0
 19 20  1  0
 19 21  1  0
  5 22  1  0
M  END
> <chembl_id>
CHEMBL3989510

> <chembl_pref_name>
PENTAZOCINE HYDROCHLORIDE
