
     RDKit          2D

 27 27  0  0  0  0  0  0  0  0999 V2000
   -7.2753    1.0312    0.0000 Cl  0  0  0  0  0  0  0  0  0  0  0  0
  -13.3178    1.1491    0.0000 C   0  0  0  0  0  0  0  0  0  0  0  0
  -13.7303    1.8636    0.0000 C   0  0  0  0  0  0  0  0  0  0  0  0
  -14.5554    1.8636    0.0000 C   0  0  0  0  0  0  0  0  0  0  0  0
  -14.9679    1.1491    0.0000 C   0  0  0  0  0  0  0  0  0  0  0  0
  -14.5554    0.4346    0.0000 C   0  0  0  0  0  0  0  0  0  0  0  0
  -13.7303    0.4346    0.0000 C   0  0  0  0  0  0  0  0  0  0  0  0
  -12.4928    1.1491    0.0000 C   0  0  0  0  0  0  0  0  0  0  0  0
  -12.0803    0.4346    0.0000 C   0  0  0  0  0  0  0  0  0  0  0  0
  -12.8772    0.2211    0.0000 O   0  0  0  0  0  0  0  0  0  0  0  0
  -12.8772   -0.6039    0.0000 C   0  0  0  0  0  0  0  0  0  0  0  0
  -13.5917   -1.0164    0.0000 C   0  0  0  0  0  0  0  0  0  0  0  0
  -12.1628   -1.0164    0.0000 O   0  0  0  0  0  0  0  0  0  0  0  0
  -14.3062   -0.6039    0.0000 C   0  0  0  0  0  0  0  0  0  0  0  0
  -11.3659    0.0221    0.0000 C   0  0  0  0  0  0  0  0  0  0  0  0
  -11.4970    1.0180    0.0000 C   0  0  0  0  0  0  0  0  0  0  0  0
  -10.7001    0.8045    0.0000 C   0  0  0  0  0  0  0  0  0  0  0  0
  -10.1167    1.3878    0.0000 C   0  0  0  0  0  0  0  0  0  0  0  0
  -10.3302    2.1847    0.0000 C   0  0  0  0  0  0  0  0  0  0  0  0
  -11.1272    2.3983    0.0000 C   0  0  0  0  0  0  0  0  0  0  0  0
  -11.7105    1.8149    0.0000 C   0  0  0  0  0  0  0  0  0  0  0  0
  -10.6514    0.4346    0.0000 C   0  0  0  0  0  0  0  0  0  0  0  0
   -9.9369    0.0221    0.0000 N   0  0  0  0  0  0  0  0  0  0  0  0
   -9.2225    0.4346    0.0000 C   0  0  0  0  0  0  0  0  0  0  0  0
   -9.9369   -0.8029    0.0000 C   0  0  0  0  0  0  0  0  0  0  0  0
  -10.9534   -0.6923    0.0000 C   0  0  0  0  0  0  0  0  0  0  0  0
  -11.7784   -0.6923    0.0000 H   0  0  0  0  0  0  0  0  0  0  0  0
  2  3  2  0
  3  4  1  0
  4  5  2  0
  5  6  1  0
  6  7  2  0
  7  2  1  0
  2  8  1  0
  9  8  1  1
  9 10  1  0
 10 11  1  0
 11 12  1  0
 11 13  2  0
 12 14  1  0
  9 15  1  0
  9 16  1  6
 16 17  1  0
 16 21  2  0
 17 18  2  0
 18 19  1  0
 19 20  2  0
 20 21  1  0
 15 22  1  0
 22 23  1  0
 23 24  1  0
 23 25  1  0
 15 26  1  1
 15 27  1  6
M  END
> <chembl_id>
CHEMBL1237104

> <chembl_pref_name>
PROPOXYPHENE HYDROCHLORIDE
