
     RDKit          2D

 62 63  0  0  0  0  0  0  0  0999 V2000
   11.5167   -2.3750    0.0000 Na  0  0  0  0  0 15  0  0  0  0  0  0
    9.2500   -2.4750    0.0000 C   0  0  0  0  0  0  0  0  0  0  0  0
   -1.8208   -6.0792    0.0000 C   0  0  0  0  0  0  0  0  0  0  0  0
    9.8625   -2.8375    0.0000 S   0  0  0  0  0  0  0  0  0  0  0  0
   -2.4500   -5.7292    0.0000 S   0  0  0  0  0  0  0  0  0  0  0  0
   -1.2208   -7.8417    0.0000 S   0  0  0  0  0  0  0  0  0  0  0  0
    8.6375   -0.7167    0.0000 S   0  0  0  0  0  0  0  0  0  0  0  0
   -0.5958   -6.0792    0.0000 C   0  0  0  0  0  0  0  0  0  0  0  0
    8.0125   -2.4917    0.0000 C   0  0  0  0  0  0  0  0  0  0  0  0
   -1.2250   -5.7167    0.0000 C   0  0  0  0  0  0  0  0  0  0  0  0
    8.6250   -2.8292    0.0000 C   0  0  0  0  0  0  0  0  0  0  0  0
   -1.2208   -7.1292    0.0000 C   0  0  0  0  0  0  0  0  0  0  0  0
    8.6417   -1.4292    0.0000 C   0  0  0  0  0  0  0  0  0  0  0  0
   -0.6125   -6.7750    0.0000 C   0  0  0  0  0  0  0  0  0  0  0  0
    8.0292   -1.8000    0.0000 C   0  0  0  0  0  0  0  0  0  0  0  0
    9.2625   -1.7792    0.0000 C   0  0  0  0  0  0  0  0  0  0  0  0
   -1.8458   -6.7917    0.0000 C   0  0  0  0  0  0  0  0  0  0  0  0
    7.3875   -2.8292    0.0000 C   0  0  0  0  0  0  0  0  0  0  0  0
    0.0167   -5.7042    0.0000 C   0  0  0  0  0  0  0  0  0  0  0  0
    1.2375   -5.6917    0.0000 N   0  0  0  0  0  0  0  0  0  0  0  0
    6.1667   -2.8542    0.0000 N   0  0  0  0  0  0  0  0  0  0  0  0
    6.1625   -3.5542    0.0000 N   0  0  0  0  0  0  0  0  0  0  0  0
    1.8667   -6.0542    0.0000 N   0  0  0  0  0  0  0  0  0  0  0  0
    0.6292   -6.0667    0.0000 C   0  0  0  0  0  0  0  0  0  0  0  0
    6.7792   -2.5042    0.0000 C   0  0  0  0  0  0  0  0  0  0  0  0
    0.0167   -7.1167    0.0000 C   0  0  0  0  0  0  0  0  0  0  0  0
    7.3875   -1.4250    0.0000 C   0  0  0  0  0  0  0  0  0  0  0  0
    3.7167   -4.9792    0.0000 C   0  0  0  0  0  0  0  0  0  0  0  0
    4.3042   -4.6292    0.0000 C   0  0  0  0  0  0  0  0  0  0  0  0
   -3.0583   -6.0917    0.0000 O   0  0  0  0  0  0  0  0  0  0  0  0
   10.4792   -2.4875    0.0000 O   0  0  0  0  0  0  0  0  0  0  0  0
   -0.6083   -8.2000    0.0000 O   0  0  0  0  0  0  0  0  0  0  0  0
    9.2458   -0.3625    0.0000 O   0  0  0  0  0  0  0  0  0  0  0  0
   -2.8083   -5.1125    0.0000 O   0  0  0  0  0  0  0  0  0  0  0  0
   10.2083   -3.4500    0.0000 O   0  0  0  0  0  0  0  0  0  0  0  0
    9.5042   -3.4500    0.0000 O   0  0  0  0  0  0  0  0  0  0  0  0
   -2.1000   -5.1125    0.0000 O   0  0  0  0  0  0  0  0  0  0  0  0
    3.7167   -5.6875    0.0000 C   0  0  0  0  0  0  0  0  0  0  0  0
    4.9292   -4.9875    0.0000 C   0  0  0  0  0  0  0  0  0  0  0  0
   -1.5833   -8.4542    0.0000 O   0  0  0  0  0  0  0  0  0  0  0  0
   -1.9333   -7.8417    0.0000 O   0  0  0  0  0  0  0  0  0  0  0  0
    8.2792   -0.1042    0.0000 O   0  0  0  0  0  0  0  0  0  0  0  0
    7.9292   -0.7167    0.0000 O   0  0  0  0  0  0  0  0  0  0  0  0
    2.4917   -5.6917    0.0000 C   0  0  0  0  0  0  0  0  0  0  0  0
    5.5500   -3.9042    0.0000 C   0  0  0  0  0  0  0  0  0  0  0  0
    5.5417   -4.6250    0.0000 C   0  0  0  0  0  0  0  0  0  0  0  0
    3.0917   -6.0500    0.0000 C   0  0  0  0  0  0  0  0  0  0  0  0
    0.6292   -6.7792    0.0000 C   0  0  0  0  0  0  0  0  0  0  0  0
    6.7875   -1.7792    0.0000 C   0  0  0  0  0  0  0  0  0  0  0  0
   -1.2250   -5.0125    0.0000 N   0  0  0  0  0  0  0  0  0  0  0  0
    8.6292   -3.5500    0.0000 N   0  0  0  0  0  0  0  0  0  0  0  0
    3.0917   -4.6167    0.0000 C   0  0  0  0  0  0  0  0  0  0  0  0
    4.3125   -3.9292    0.0000 C   0  0  0  0  0  0  0  0  0  0  0  0
    4.9292   -3.5750    0.0000 C   0  0  0  0  0  0  0  0  0  0  0  0
    2.4792   -4.9792    0.0000 C   0  0  0  0  0  0  0  0  0  0  0  0
    0.0125   -5.0167    0.0000 O   0  0  0  0  0  0  0  0  0  0  0  0
    7.4000   -3.5417    0.0000 O   0  0  0  0  0  0  0  0  0  0  0  0
    6.1542   -4.9667    0.0000 C   0  0  0  0  0  0  0  0  0  0  0  0
    3.1042   -6.7542    0.0000 C   0  0  0  0  0  0  0  0  0  0  0  0
    0.3375   -8.2792    0.0000 Na  0  0  0  0  0 15  0  0  0  0  0  0
   -3.9708   -6.1542    0.0000 Na  0  0  0  0  0 15  0  0  0  0  0  0
   10.0167   -0.2792    0.0000 Na  0  0  0  0  0 15  0  0  0  0  0  0
  3 10  1  0
  4  2  1  0
  5  3  1  0
  6 12  1  0
  7 13  1  0
  8 19  1  0
  9 11  2  0
 10  8  2  0
 11  2  1  0
 12 14  2  0
 13 16  1  0
 14 26  1  0
 15  9  1  0
 16  2  2  0
 17 12  1  0
 18  9  1  0
 19 24  2  0
 20 23  2  0
 21 25  1  0
 22 21  2  0
 23 44  1  0
 24 20  1  0
 25 18  2  0
 26 48  2  0
 27 15  1  0
 28 29  1  0
 29 53  1  0
 30  5  1  0
 31  4  1  0
 32  6  1  0
 33  7  1  0
 34  5  2  0
 35  4  2  0
 36  4  2  0
 37  5  2  0
 38 28  2  0
 39 46  1  0
 40  6  2  0
 41  6  2  0
 42  7  2  0
 43  7  2  0
 44 55  1  0
 45 22  1  0
 46 45  2  0
 47 38  1  0
 48 24  1  0
 49 27  2  0
 50 10  1  0
 51 11  1  0
 52 28  1  0
 53 54  2  0
 54 45  1  0
 55 52  2  0
 56 19  1  0
 57 18  1  0
 58 46  1  0
 59 47  1  0
 13 15  2  0
 25 49  1  0
 39 29  2  0
 47 44  2  0
  8 14  1  0
  3 17  2  0
M  CHG  8   1   1  30  -1  31  -1  32  -1  33  -1  60   1  61   1  62   1
M  END
> <chembl_id>
CHEMBL1200712

> <chembl_pref_name>
EVANS BLUE
