
     RDKit          2D

 33 34  0  0  0  0  0  0  0  0999 V2000
   20.9332    2.8660    0.0000 N   0  0  0  0  0  0  0  0  0  0  0  0
   20.2657    2.3811    0.0000 C   0  0  0  0  0  0  0  0  0  0  0  0
   20.5207    1.5965    0.0000 C   0  0  0  0  0  0  0  0  0  0  0  0
   21.3457    1.5965    0.0000 C   0  0  0  0  0  0  0  0  0  0  0  0
   21.6006    2.3811    0.0000 C   0  0  0  0  0  0  0  0  0  0  0  0
   22.3852    2.6360    0.0000 C   0  0  0  0  0  0  0  0  0  0  0  0
   22.5567    3.4430    0.0000 O   0  0  0  0  0  0  0  0  0  0  0  0
   22.9983    2.0840    0.0000 N   0  0  0  0  0  0  0  0  0  0  0  0
   23.7829    2.3389    0.0000 C   0  0  0  0  0  0  0  0  0  0  0  0
   24.3960    1.7869    0.0000 C   0  0  0  0  0  0  0  0  0  0  0  0
   23.9964    3.1358    0.0000 C   0  0  0  0  0  0  0  0  0  0  0  0
   24.7933    3.3493    0.0000 C   0  0  0  0  0  0  0  0  0  0  0  0
   23.4131    3.7192    0.0000 Cl  0  0  0  0  0  0  0  0  0  0  0  0
   24.2245    0.9799    0.0000 C   0  0  0  0  0  0  0  0  0  0  0  0
   24.8376    0.4279    0.0000 C   0  0  0  0  0  0  0  0  0  0  0  0
   25.6222    0.6828    0.0000 C   0  0  0  0  0  0  0  0  0  0  0  0
   25.7937    1.4897    0.0000 C   0  0  0  0  0  0  0  0  0  0  0  0
   25.1806    2.0418    0.0000 O   0  0  0  0  0  0  0  0  0  0  0  0
   26.5784    1.7447    0.0000 S   0  0  0  0  0  0  0  0  0  0  0  0
   26.7499    2.5516    0.0000 C   0  0  0  0  0  0  0  0  0  0  0  0
   26.2353    0.1307    0.0000 O   0  0  0  0  0  0  0  0  0  0  0  0
   24.6660   -0.3791    0.0000 O   0  0  0  0  0  0  0  0  0  0  0  0
   23.4399    0.7250    0.0000 O   0  0  0  0  0  0  0  0  0  0  0  0
   20.9332    3.6910    0.0000 C   0  0  0  0  0  0  0  0  0  0  0  0
   20.0357    0.9291    0.0000 C   0  0  0  0  0  0  0  0  0  0  0  0
   19.2107    0.9291    0.0000 C   0  0  0  0  0  0  0  0  0  0  0  0
   18.7982    0.2146    0.0000 C   0  0  0  0  0  0  0  0  0  0  0  0
   23.5991    1.5734    0.0000 H   0  0  0  0  0  0  0  0  0  0  0  0
   24.5798    2.5524    0.0000 H   0  0  0  0  0  0  0  0  0  0  0  0
   27.0322    0.3442    0.0000 P   0  0  0  0  0  0  0  0  0  0  0  0
   27.0322    1.1692    0.0000 O   0  0  0  0  0  0  0  0  0  0  0  0
   27.8572    0.3442    0.0000 O   0  0  0  0  0  0  0  0  0  0  0  0
   27.0322   -0.4808    0.0000 O   0  0  0  0  0  0  0  0  0  0  0  0
  1  2  1  0
  2  3  1  0
  3  4  1  0
  4  5  1  0
  1  5  1  0
  5  6  1  6
  6  7  2  0
  6  8  1  0
  8  9  1  0
 10  9  1  0
  9 11  1  0
 11 12  1  0
 11 13  1  1
 10 14  1  0
 18 10  1  0
 14 15  1  0
 15 16  1  0
 16 17  1  0
 17 18  1  0
 17 19  1  6
 19 20  1  0
 16 21  1  6
 15 22  1  1
 14 23  1  1
  1 24  1  0
  3 25  1  1
 25 26  1  0
 26 27  1  0
 10 28  1  6
  9 29  1  1
 21 30  1  0
 30 31  2  0
 30 32  1  0
 30 33  1  0
M  END
> <chembl_id>
CHEMBL3184512

> <chembl_pref_name>
CLINDAMYCIN PHOSPHATE
