
     RDKit          2D

 33 35  0  0  0  0  0  0  0  0999 V2000
   -2.7191    4.1671    0.0000 C   0  0  0  0  0  0  0  0  0  0  0  0
   -3.4238    3.7381    0.0000 C   0  0  0  0  0  0  0  0  0  0  0  0
   -3.4047    2.9133    0.0000 C   0  0  0  0  0  0  0  0  0  0  0  0
   -2.6808    2.5175    0.0000 C   0  0  0  0  0  0  0  0  0  0  0  0
   -1.9761    2.9464    0.0000 C   0  0  0  0  0  0  0  0  0  0  0  0
   -1.9953    3.7712    0.0000 N   0  0  0  0  0  0  0  0  0  0  0  0
   -4.1416    1.6864    0.0000 C   0  0  0  0  0  0  0  0  0  0  0  0
   -4.8635    1.2869    0.0000 N   0  0  0  0  0  0  0  0  0  0  0  0
   -4.8785    0.4621    0.0000 C   0  0  0  0  0  0  0  0  0  0  0  0
   -4.1716    0.0366    0.0000 N   0  0  0  0  0  0  0  0  0  0  0  0
   -3.4498    0.4361    0.0000 C   0  0  0  0  0  0  0  0  0  0  0  0
   -3.4348    1.2609    0.0000 N   0  0  0  0  0  0  0  0  0  0  0  0
   -2.0217    0.4091    0.0000 N   0  0  0  0  0  0  0  0  0  0  0  0
   -2.7435    0.0096    0.0000 C   0  0  0  0  0  0  0  0  0  0  0  0
   -2.7586   -0.8153    0.0000 C   0  0  0  0  0  0  0  0  0  0  0  0
   -2.0517   -1.2407    0.0000 C   0  0  0  0  0  0  0  0  0  0  0  0
   -1.3299   -0.8413    0.0000 C   0  0  0  0  0  0  0  0  0  0  0  0
   -1.3148   -0.0164    0.0000 C   0  0  0  0  0  0  0  0  0  0  0  0
   -1.2887    2.4904    0.0000 C   0  0  0  0  0  0  0  0  0  0  0  0
   -4.1265    2.5139    0.0000 N   0  0  0  0  0  0  0  0  0  0  0  0
   -0.5930    0.3830    0.0000 C   0  0  0  0  0  0  0  0  0  0  0  0
   -5.6003    0.0626    0.0000 N   0  0  0  0  0  0  0  0  0  0  0  0
   -6.3072    0.4881    0.0000 C   0  0  0  0  0  0  0  0  0  0  0  0
   -7.0290    0.0887    0.0000 C   0  0  0  0  0  0  0  0  0  0  0  0
   -7.7509   -0.3108    0.0000 O   0  0  0  0  0  0  0  0  0  0  0  0
   -6.9803   -0.7306    0.0000 C   0  0  0  0  0  0  0  0  0  0  0  0
   -7.6038    0.6352    0.0000 C   0  0  0  0  0  0  0  0  0  0  0  0
   -0.6183    2.8662    0.0000 F   0  0  0  0  0  0  0  0  0  0  0  0
   -0.6012    2.0343    0.0000 F   0  0  0  0  0  0  0  0  0  0  0  0
   -1.3356    1.7639    0.0000 F   0  0  0  0  0  0  0  0  0  0  0  0
   -0.6612    1.1828    0.0000 F   0  0  0  0  0  0  0  0  0  0  0  0
    0.1289    0.7825    0.0000 F   0  0  0  0  0  0  0  0  0  0  0  0
    0.1355   -0.0623    0.0000 F   0  0  0  0  0  0  0  0  0  0  0  0
  1  2  2  0
  2  3  1  0
  3  4  2  0
  4  5  1  0
  5  6  2  0
  1  6  1  0
  7  8  2  0
  8  9  1  0
  9 10  2  0
 10 11  1  0
 11 12  2  0
  7 12  1  0
 13 14  2  0
 14 15  1  0
 15 16  2  0
 16 17  1  0
 17 18  2  0
 13 18  1  0
  5 19  1  0
  3 20  1  0
 20  7  1  0
 11 14  1  0
 18 21  1  0
  9 22  1  0
 22 23  1  0
 23 24  1  0
 24 25  1  0
 24 27  1  0
 19 28  1  0
 19 29  1  0
 19 30  1  0
 21 31  1  0
 21 32  1  0
 21 33  1  0
 24 26  1  0
M  END
> <chembl_id>
CHEMBL3989908

> <chembl_pref_name>
ENASIDENIB
