
     RDKit          2D

 86 92  0  0  0  0  0  0  0  0999 V2000
    2.2393   -7.5058    0.0000 O   0  0  0  0  0  0  0  0  0  0  0  0
    5.1857   -7.5058    0.0000 S   0  0  0  0  0  0  0  0  0  0  0  0
    5.1857   -8.3308    0.0000 O   0  0  0  0  0  0  0  0  0  0  0  0
    5.1857   -6.6808    0.0000 O   0  0  0  0  0  0  0  0  0  0  0  0
    6.0107   -7.5058    0.0000 O   0  0  0  0  0  0  0  0  0  0  0  0
    4.3607   -7.5058    0.0000 O   0  0  0  0  0  0  0  0  0  0  0  0
   -0.1781    1.9481    0.0000 C   0  0  0  0  0  0  0  0  0  0  0  0
    0.4966    2.4230    0.0000 C   0  0  0  0  0  0  0  0  0  0  0  0
   -0.8666    2.4026    0.0000 C   0  0  0  0  0  0  0  0  0  0  0  0
   -0.7558    3.2201    0.0000 N   0  0  0  0  0  0  0  0  0  0  0  0
   -1.6512    2.1476    0.0000 C   0  0  0  0  0  0  0  0  0  0  0  0
   -1.9411    1.3752    0.0000 C   0  0  0  0  0  0  0  0  0  0  0  0
   -1.5179    0.6670    0.0000 C   0  0  0  0  0  0  0  0  0  0  0  0
   -0.4455   -0.2284    0.0000 O   0  0  0  0  0  0  0  0  0  0  0  0
   -0.7004    0.5563    0.0000 C   0  0  0  0  0  0  0  0  0  0  0  0
    0.6445    0.7796    0.0000 N   0  0  0  0  0  0  0  0  0  0  0  0
   -0.1041    1.1264    0.0000 C   0  0  0  0  0  0  0  0  0  0  0  0
    1.3191    1.2545    0.0000 C   0  0  0  0  0  0  0  0  0  0  0  0
    1.2451    2.0762    0.0000 C   0  0  0  0  0  0  0  0  0  0  0  0
    0.3615   -0.3999    0.0000 C   0  0  0  0  0  0  0  0  0  0  0  0
    0.6164   -1.1845    0.0000 N   0  0  0  0  0  0  0  0  0  0  0  0
    0.9135    0.2132    0.0000 O   0  0  0  0  0  0  0  0  0  0  0  0
    0.3193   -2.5822    0.0000 C   0  0  0  0  0  0  0  0  0  0  0  0
    1.1263   -2.7537    0.0000 C   0  0  0  0  0  0  0  0  0  0  0  0
    1.4234   -1.3560    0.0000 C   0  0  0  0  0  0  0  0  0  0  0  0
    1.6783   -2.1406    0.0000 C   0  0  0  0  0  0  0  0  0  0  0  0
    1.3813   -3.5384    0.0000 N   0  0  0  0  0  0  0  0  0  0  0  0
    0.0644   -1.7976    0.0000 C   0  0  0  0  0  0  0  0  0  0  0  0
    2.1659   -3.7933    0.0000 C   0  0  0  0  0  0  0  0  0  0  0  0
    2.8803   -3.3808    0.0000 C   0  0  0  0  0  0  0  0  0  0  0  0
    2.1659   -4.6183    0.0000 C   0  0  0  0  0  0  0  0  0  0  0  0
    1.3813   -4.8732    0.0000 N   0  0  0  0  0  0  0  0  0  0  0  0
    2.8803   -5.0308    0.0000 N   0  0  0  0  0  0  0  0  0  0  0  0
    3.5948   -4.6183    0.0000 C   0  0  0  0  0  0  0  0  0  0  0  0
    3.5948   -3.7933    0.0000 C   0  0  0  0  0  0  0  0  0  0  0  0
   -2.5601    4.1321    0.0000 C   0  0  0  0  0  0  0  0  0  0  0  0
   -1.9900    3.5358    0.0000 C   0  0  0  0  0  0  0  0  0  0  0  0
   -2.3288    4.9240    0.0000 F   0  0  0  0  0  0  0  0  0  0  0  0
   -3.3616    3.9365    0.0000 C   0  0  0  0  0  0  0  0  0  0  0  0
   -3.5929    3.1446    0.0000 C   0  0  0  0  0  0  0  0  0  0  0  0
   -3.0228    2.5483    0.0000 C   0  0  0  0  0  0  0  0  0  0  0  0
   -2.2213    2.7439    0.0000 C   0  0  0  0  0  0  0  0  0  0  0  0
   -1.1885    3.7314    0.0000 F   0  0  0  0  0  0  0  0  0  0  0  0
    0.8963   -4.2058    0.0000 C   0  0  0  0  0  0  0  0  0  0  0  0
    0.0713   -4.2058    0.0000 O   0  0  0  0  0  0  0  0  0  0  0  0
   -2.0360   -7.5325    0.0000 O   0  0  0  0  0  0  0  0  0  0  0  0
    6.7977    2.0779    0.0000 C   0  0  0  0  0  0  0  0  0  0  0  0
    7.4723    2.5528    0.0000 C   0  0  0  0  0  0  0  0  0  0  0  0
    6.1092    2.5324    0.0000 C   0  0  0  0  0  0  0  0  0  0  0  0
    6.2199    3.3500    0.0000 N   0  0  0  0  0  0  0  0  0  0  0  0
    5.3245    2.2775    0.0000 C   0  0  0  0  0  0  0  0  0  0  0  0
    5.0347    1.5051    0.0000 C   0  0  0  0  0  0  0  0  0  0  0  0
    5.4578    0.7969    0.0000 C   0  0  0  0  0  0  0  0  0  0  0  0
    6.5303   -0.0985    0.0000 O   0  0  0  0  0  0  0  0  0  0  0  0
    6.2753    0.6861    0.0000 C   0  0  0  0  0  0  0  0  0  0  0  0
    7.6202    0.9095    0.0000 N   0  0  0  0  0  0  0  0  0  0  0  0
    6.8716    1.2563    0.0000 C   0  0  0  0  0  0  0  0  0  0  0  0
    8.2948    1.3844    0.0000 C   0  0  0  0  0  0  0  0  0  0  0  0
    8.2209    2.2060    0.0000 C   0  0  0  0  0  0  0  0  0  0  0  0
    7.3372   -0.2700    0.0000 C   0  0  0  0  0  0  0  0  0  0  0  0
    7.5922   -1.0546    0.0000 N   0  0  0  0  0  0  0  0  0  0  0  0
    7.8893    0.3431    0.0000 O   0  0  0  0  0  0  0  0  0  0  0  0
    7.2951   -2.4523    0.0000 C   0  0  0  0  0  0  0  0  0  0  0  0
    8.1021   -2.6239    0.0000 C   0  0  0  0  0  0  0  0  0  0  0  0
    8.3992   -1.2262    0.0000 C   0  0  0  0  0  0  0  0  0  0  0  0
    8.6541   -2.0108    0.0000 C   0  0  0  0  0  0  0  0  0  0  0  0
    8.3570   -3.4085    0.0000 N   0  0  0  0  0  0  0  0  0  0  0  0
    7.0401   -1.6677    0.0000 C   0  0  0  0  0  0  0  0  0  0  0  0
    9.1416   -3.6634    0.0000 C   0  0  0  0  0  0  0  0  0  0  0  0
    9.8561   -3.2509    0.0000 C   0  0  0  0  0  0  0  0  0  0  0  0
    9.1416   -4.4884    0.0000 C   0  0  0  0  0  0  0  0  0  0  0  0
    8.3570   -4.7434    0.0000 N   0  0  0  0  0  0  0  0  0  0  0  0
    9.8561   -4.9009    0.0000 N   0  0  0  0  0  0  0  0  0  0  0  0
   10.5706   -4.4884    0.0000 C   0  0  0  0  0  0  0  0  0  0  0  0
   10.5706   -3.6634    0.0000 C   0  0  0  0  0  0  0  0  0  0  0  0
    4.4156    4.2620    0.0000 C   0  0  0  0  0  0  0  0  0  0  0  0
    4.9858    3.6657    0.0000 C   0  0  0  0  0  0  0  0  0  0  0  0
    4.6470    5.0539    0.0000 F   0  0  0  0  0  0  0  0  0  0  0  0
    3.6142    4.0664    0.0000 C   0  0  0  0  0  0  0  0  0  0  0  0
    3.3828    3.2745    0.0000 C   0  0  0  0  0  0  0  0  0  0  0  0
    3.9529    2.6782    0.0000 C   0  0  0  0  0  0  0  0  0  0  0  0
    4.7544    2.8738    0.0000 C   0  0  0  0  0  0  0  0  0  0  0  0
    5.7872    3.8613    0.0000 F   0  0  0  0  0  0  0  0  0  0  0  0
    7.8721   -4.0759    0.0000 C   0  0  0  0  0  0  0  0  0  0  0  0
    7.0471   -4.0759    0.0000 O   0  0  0  0  0  0  0  0  0  0  0  0
    0.0000   -7.5058    0.0000 O   0  0  0  0  0  0  0  0  0  0  0  0
  2  3  2  0
  2  4  2  0
  2  5  1  0
  2  6  1  0
  7  8  1  0
  7 17  2  0
  8 19  2  0
  9 10  1  6
  9  7  1  0
 11  9  1  0
 11 42  1  1
 12 13  1  0
 12 11  1  0
 15 14  1  6
 14 20  1  0
 15 13  1  0
 16 17  1  0
 17 15  1  0
 18 16  2  0
 19 18  1  0
 20 22  2  0
 21 20  1  0
 21 25  1  0
 23 24  1  0
 23 28  1  0
 25 26  1  0
 26 24  1  0
 27 24  1  0
 27 29  1  0
 28 21  1  0
 29 30  1  0
 29 31  2  0
 30 35  2  0
 31 32  1  0
 31 33  1  0
 33 34  2  0
 35 34  1  0
 36 37  1  0
 36 39  2  0
 37 42  2  0
 38 36  1  0
 39 40  1  0
 40 41  2  0
 42 41  1  0
 43 37  1  0
 44 32  1  0
 44 27  1  0
 44 45  2  0
 47 48  1  0
 47 57  2  0
 49 47  1  0
 48 59  2  0
 49 50  1  6
 51 49  1  0
 51 82  1  1
 52 51  1  0
 52 53  1  0
 55 53  1  0
 55 54  1  6
 54 60  1  0
 57 55  1  0
 56 57  1  0
 58 56  2  0
 59 58  1  0
 60 62  2  0
 61 60  1  0
 61 65  1  0
 68 61  1  0
 63 64  1  0
 63 68  1  0
 66 64  1  0
 67 64  1  0
 65 66  1  0
 67 69  1  0
 84 67  1  0
 69 70  1  0
 69 71  2  0
 70 75  2  0
 71 72  1  0
 71 73  1  0
 84 72  1  0
 73 74  2  0
 75 74  1  0
 76 77  1  0
 76 79  2  0
 78 76  1  0
 77 82  2  0
 83 77  1  0
 79 80  1  0
 80 81  2  0
 82 81  1  0
 84 85  2  0
M  END
> <chembl_id>
CHEMBL2364629

> <chembl_pref_name>
RIMEGEPANT SULFATE
