
     RDKit          2D

 52 55  0  0  0  0  0  0  0  0999 V2000
   -0.9708    0.0000    0.0000 C   0  0  0  0  0  0  0  0  0  0  0  0
   -0.9750   -0.6958    0.0000 C   0  0  0  0  0  0  0  0  0  0  0  0
   -1.5792   -1.0458    0.0000 C   0  0  0  0  0  0  0  0  0  0  0  0
   -1.5792    0.3542    0.0000 C   0  0  0  0  0  0  0  0  0  0  0  0
    0.2292   -0.7000    0.0000 C   0  0  0  0  0  0  0  0  0  0  0  0
    0.2292    0.0000    0.0000 C   0  0  0  0  0  0  0  0  0  0  0  0
   -2.1792   -0.7000    0.0000 C   0  0  0  0  0  0  0  0  0  0  0  0
   -0.3708    0.3458    0.0000 C   0  0  0  0  0  0  0  0  0  0  0  0
   -0.3750   -1.0458    0.0000 C   0  0  0  0  0  0  0  0  0  0  0  0
   -2.1792    0.0000    0.0000 C   0  0  0  0  0  0  0  0  0  0  0  0
    1.4333   -0.0042    0.0000 C   0  0  0  0  0  0  0  0  0  0  0  0
    0.8292   -1.0417    0.0000 C   0  0  0  0  0  0  0  0  0  0  0  0
    0.8292    0.3500    0.0000 C   0  0  0  0  0  0  0  0  0  0  0  0
    0.3417   -2.9250    0.0000 C   0  0  0  0  0  0  0  0  0  0  0  0
   -0.0042   -2.3250    0.0000 O   0  0  0  0  0  0  0  0  0  0  0  0
    1.4292   -0.7000    0.0000 C   0  0  0  0  0  0  0  0  0  0  0  0
   -0.0042   -3.5292    0.0000 C   0  0  0  0  0  0  0  0  0  0  0  0
   -1.0500   -2.9250    0.0000 C   0  0  0  0  0  0  0  0  0  0  0  0
   -0.7042   -3.5292    0.0000 C   0  0  0  0  0  0  0  0  0  0  0  0
   -0.7042   -2.3250    0.0000 C   0  0  0  0  0  0  0  0  0  0  0  0
    0.8208   -1.7333    0.0000 O   0  0  0  0  0  0  0  0  0  0  0  0
    2.0375    0.3542    0.0000 C   0  0  0  0  0  0  0  0  0  0  0  0
   -1.5792    1.0500    0.0000 O   0  0  0  0  0  0  0  0  0  0  0  0
   -1.5792   -1.7417    0.0000 O   0  0  0  0  0  0  0  0  0  0  0  0
   -2.7833   -1.0458    0.0000 C   0  0  0  0  0  0  0  0  0  0  0  0
    2.0292    1.0458    0.0000 O   0  0  0  0  0  0  0  0  0  0  0  0
   -0.3708    1.0417    0.0000 O   0  0  0  0  0  0  0  0  0  0  0  0
   -0.3792   -1.7417    0.0000 O   0  0  0  0  0  0  0  0  0  0  0  0
    2.0375   -0.3458    0.0000 O   0  0  0  0  0  0  0  0  0  0  0  0
   -1.0458   -4.1292    0.0000 N   0  0  0  0  0  0  0  0  0  0  0  0
   -1.7458   -2.9250    0.0000 O   0  0  0  0  0  0  0  0  0  0  0  0
   -2.7833    0.3500    0.0000 C   0  0  0  0  0  0  0  0  0  0  0  0
   -2.7792   -1.7417    0.0000 O   0  0  0  0  0  0  0  0  0  0  0  0
   -1.0458   -1.7167    0.0000 C   0  0  0  0  0  0  0  0  0  0  0  0
   -3.3833    0.0000    0.0000 C   0  0  0  0  0  0  0  0  0  0  0  0
   -3.3833   -0.7000    0.0000 C   0  0  0  0  0  0  0  0  0  0  0  0
    2.6375    0.0083    0.0000 C   0  0  0  0  0  0  0  0  0  0  0  0
   -3.3792   -2.0958    0.0000 C   0  0  0  0  0  0  0  0  0  0  0  0
    0.9417   -3.2708    0.0000 H   0  0  0  0  0  0  0  0  0  0  0  0
    4.4708   -1.4458    0.0000 C   0  0  0  0  0  0  0  0  0  0  0  0
    3.8500   -1.7958    0.0000 C   0  0  0  0  0  0  0  0  0  0  0  0
    5.0875   -1.7958    0.0000 C   0  0  0  0  0  0  0  0  0  0  0  0
    4.1125   -0.8292    0.0000 C   0  0  0  0  0  0  0  0  0  0  0  0
    5.7000   -1.4458    0.0000 C   0  0  0  0  0  0  0  0  0  0  0  0
    3.8625   -2.4958    0.0000 C   0  0  0  0  0  0  0  0  0  0  0  0
    4.4583   -0.2083    0.0000 O   0  0  0  0  0  0  0  0  0  0  0  0
    4.4958   -2.8333    0.0000 O   0  0  0  0  0  0  0  0  0  0  0  0
    5.7000   -0.7333    0.0000 O   0  0  0  0  0  0  0  0  0  0  0  0
    4.8208   -0.8292    0.0000 O   0  0  0  0  0  0  0  0  0  0  0  0
    3.4000   -0.8333    0.0000 O   0  0  0  0  0  0  0  0  0  0  0  0
    3.2625   -2.8708    0.0000 O   0  0  0  0  0  0  0  0  0  0  0  0
    6.3208   -1.7958    0.0000 O   0  0  0  0  0  0  0  0  0  0  0  0
  2  1  2  0
  3  2  1  0
  4  1  1  0
  5  6  1  0
  6  8  2  0
  7  3  1  0
  8  1  1  0
  9  2  1  0
 10  4  1  0
 11 13  1  0
 12  5  1  0
 13  6  1  0
 14 21  1  0
 15 14  1  0
 16 11  1  0
 17 14  1  0
 18 20  1  0
 19 17  1  0
 20 15  1  0
 12 21  1  6
 22 11  1  0
 23  4  2  0
 24  3  2  0
 25  7  2  0
 26 22  2  0
 27  8  1  0
 28  9  1  0
 11 29  1  6
 19 30  1  6
 18 31  1  6
 32 10  2  0
 33 25  1  0
 20 34  1  6
 35 32  1  0
 36 25  1  0
 37 22  1  0
 38 33  1  0
 14 39  1  6
  5  9  2  0
  7 10  1  0
 16 12  1  0
 36 35  2  0
 18 19  1  0
 50 43  1  0
 51 45  1  0
 52 44  1  0
 41 40  1  0
 42 40  1  0
 43 40  1  0
 44 42  1  0
 45 41  1  0
 46 43  2  0
 47 45  2  0
 48 44  2  0
 49 40  1  0
M  END
> <chembl_id>
CHEMBL1200475

> <chembl_pref_name>
DAUNORUBICIN CITRATE
