
     RDKit          2D

 35 35  0  0  0  0  0  0  0  0999 V2000
    3.5554   -0.3400    0.0000 C   0  0  0  0  0  0  0  0  0  0  0  0
    4.3823   -0.3400    0.0000 C   0  0  0  0  0  0  0  0  0  0  0  0
    4.3823    0.4868    0.0000 C   0  0  0  0  0  0  0  0  0  0  0  0
    3.5554    0.4868    0.0000 O   0  0  0  0  0  0  0  0  0  0  0  0
    2.8388   -0.7579    0.0000 C   0  0  0  0  0  0  0  0  0  0  0  0
    2.1228   -0.3445    0.0000 C   0  0  0  0  0  0  0  0  0  0  0  0
    4.9669    1.0716    0.0000 O   0  0  0  0  0  0  0  0  0  0  0  0
    5.0897   -0.7533    0.0000 C   0  0  0  0  0  0  0  0  0  0  0  0
    5.8063   -0.3445    0.0000 C   0  0  0  0  0  0  0  0  0  0  0  0
    6.5183   -0.7579    0.0000 C   0  0  0  0  0  0  0  0  0  0  0  0
    7.2349   -0.3491    0.0000 C   0  0  0  0  0  0  0  0  0  0  0  0
    7.9469   -0.7626    0.0000 C   0  0  0  0  0  0  0  0  0  0  0  0
    8.6635   -0.3537    0.0000 C   0  0  0  0  0  0  0  0  0  0  0  0
    1.4067   -0.7579    0.0000 C   0  0  0  0  0  0  0  0  0  0  0  0
    0.6937   -0.3445    0.0000 C   0  0  0  0  0  0  0  0  0  0  0  0
    2.1228    0.4823    0.0000 O   0  0  0  0  0  0  0  0  0  0  0  0
    1.4067    0.8957    0.0000 C   0  0  0  0  0  0  0  0  0  0  0  0
    1.4067    1.7226    0.0000 C   0  0  0  0  0  0  0  0  0  0  0  0
    0.6906    0.4823    0.0000 O   0  0  0  0  0  0  0  0  0  0  0  0
    2.1228    2.1360    0.0000 N   0  0  0  0  0  0  0  0  0  0  0  0
    0.6906    2.1360    0.0000 C   0  0  0  0  0  0  0  0  0  0  0  0
   -0.0255    1.7226    0.0000 C   0  0  0  0  0  0  0  0  0  0  0  0
   -0.7415    2.1360    0.0000 C   0  0  0  0  0  0  0  0  0  0  0  0
   -0.0255    0.8957    0.0000 C   0  0  0  0  0  0  0  0  0  0  0  0
    2.1228    2.9629    0.0000 C   0  0  0  0  0  0  0  0  0  0  0  0
    2.8388    3.3763    0.0000 O   0  0  0  0  0  0  0  0  0  0  0  0
   -0.0184   -0.7579    0.0000 C   0  0  0  0  0  0  0  0  0  0  0  0
   -0.7304   -0.3445    0.0000 C   0  0  0  0  0  0  0  0  0  0  0  0
   -1.4423   -0.7579    0.0000 C   0  0  0  0  0  0  0  0  0  0  0  0
   -2.1544   -0.3445    0.0000 C   0  0  0  0  0  0  0  0  0  0  0  0
   -2.8664   -0.7579    0.0000 C   0  0  0  0  0  0  0  0  0  0  0  0
   -3.5784   -0.3445    0.0000 C   0  0  0  0  0  0  0  0  0  0  0  0
   -4.2904   -0.7579    0.0000 C   0  0  0  0  0  0  0  0  0  0  0  0
   -5.0024   -0.3445    0.0000 C   0  0  0  0  0  0  0  0  0  0  0  0
   -5.7144   -0.7579    0.0000 C   0  0  0  0  0  0  0  0  0  0  0  0
  4  1  1  0
 17 18  1  0
  8  9  1  0
 17 19  2  0
 18 20  1  6
  9 10  1  0
 18 21  1  0
  1  5  1  6
 21 22  1  0
 10 11  1  0
 22 23  1  0
  1  2  1  0
 22 24  1  0
 11 12  1  0
 20 25  1  0
  5  6  1  0
 25 26  2  0
 12 13  1  0
 15 27  1  0
  2  3  1  0
 27 28  1  0
  6 14  1  0
 28 29  1  0
  3  7  2  0
 29 30  1  0
 14 15  1  0
 30 31  1  0
  3  4  1  0
 31 32  1  0
  6 16  1  6
 32 33  1  0
  2  8  1  1
 33 34  1  0
 16 17  1  0
 34 35  1  0
M  END
> <chembl_id>
CHEMBL175247

> <chembl_pref_name>
ORLISTAT
