
     RDKit          2D

 11 11  0  0  1  0  0  0  0  0999 V2000
    3.8292   -5.1792    0.0000 N   0  0  0  0  0  0  0  0  0  0  0  0
    3.2167   -4.1292    0.0000 C   0  0  0  0  0  0  0  0  0  0  0  0
    2.6000   -4.4917    0.0000 C   0  0  0  0  0  0  0  0  0  0  0  0
    3.8292   -4.4792    0.0000 C   0  0  0  0  0  0  0  0  0  0  0  0
    4.4292   -5.5292    0.0000 C   0  0  0  0  0  0  0  0  0  0  0  0
    1.9792   -4.1292    0.0000 C   0  0  0  0  0  0  0  0  0  0  0  0
    2.6000   -5.2042    0.0000 C   0  0  0  0  0  0  0  0  0  0  0  0
    4.4375   -4.1167    0.0000 C   0  0  0  0  0  0  0  0  0  0  0  0
    1.3667   -4.4917    0.0000 C   0  0  0  0  0  0  0  0  0  0  0  0
    1.9792   -5.5667    0.0000 C   0  0  0  0  0  0  0  0  0  0  0  0
    1.3667   -5.2042    0.0000 C   0  0  0  0  0  0  0  0  0  0  0  0
  2  4  1  0
  3  2  1  0
  4  1  1  6
  5  1  1  0
  6  3  1  0
  7  3  2  0
  8  4  1  0
  9  6  2  0
 10  7  1  0
 11  9  1  0
 11 10  2  0
M  END
> <chembl_id>
CHEMBL1201201

> <chembl_pref_name>
METHAMPHETAMINE
