
     RDKit          2D

 11  9  0  0  0  0  0  0  0  0999 V2000
   14.8194   -8.3510    0.0000 Na  0  0  0  0  0 15  0  0  0  0  0  0
   14.0080   -9.7414    0.0000 C   0  0  0  0  0  0  0  0  0  0  0  0
   14.7192   -9.3311    0.0000 O   0  0  0  0  0  0  0  0  0  0  0  0
   13.2923   -9.3311    0.0000 O   0  0  0  0  0  0  0  0  0  0  0  0
   14.0080  -10.5664    0.0000 C   0  0  0  0  0  0  0  0  0  0  0  0
   13.2923  -10.9812    0.0000 C   0  0  0  0  0  0  0  0  0  0  0  0
   14.7192  -10.9812    0.0000 C   0  0  0  0  0  0  0  0  0  0  0  0
   12.5766  -10.5664    0.0000 C   0  0  0  0  0  0  0  0  0  0  0  0
   15.4303  -10.5664    0.0000 C   0  0  0  0  0  0  0  0  0  0  0  0
   11.8655  -10.9812    0.0000 C   0  0  0  0  0  0  0  0  0  0  0  0
   15.4303   -9.7414    0.0000 C   0  0  0  0  0  0  0  0  0  0  0  0
  3  2  1  0
  4  2  2  0
  5  2  1  0
  6  5  1  0
  7  5  1  0
  8  6  1  0
  9  7  1  0
 10  8  1  0
 11  9  1  0
M  CHG  2   1   1   3  -1
M  END
> <chembl_id>
CHEMBL433

> <chembl_pref_name>
VALPROATE SODIUM
