
     RDKit          2D

 31 33  0  0  0  0  0  0  0  0999 V2000
   -1.2893   -3.8913    0.0000 C   0  0  0  0  0  0  0  0  0  0  0  0
   -1.2893   -4.7163    0.0000 C   0  0  0  0  0  0  0  0  0  0  0  0
   -0.4643   -3.8913    0.0000 C   0  0  0  0  0  0  0  0  0  0  0  0
   -0.4598   -4.7163    0.0000 N   0  0  0  0  0  0  0  0  0  0  0  0
    0.3262   -4.9670    0.0000 C   0  0  0  0  0  0  0  0  0  0  0  0
    0.8075   -4.2969    0.0000 C   0  0  0  0  0  0  0  0  0  0  0  0
    0.3189   -3.6322    0.0000 S   0  0  0  0  0  0  0  0  0  0  0  0
   -1.8727   -5.2997    0.0000 O   0  0  0  0  0  0  0  0  0  0  0  0
   -0.5956   -3.0768    0.0000 H   0  0  0  0  0  0  0  0  0  0  0  0
    0.5854   -5.7502    0.0000 C   0  0  0  0  0  0  0  0  0  0  0  0
    1.4175   -3.7414    0.0000 C   0  0  0  0  0  0  0  0  0  0  0  0
    1.4236   -4.8455    0.0000 C   0  0  0  0  0  0  0  0  0  0  0  0
   -1.8727   -3.3079    0.0000 N   0  0  0  0  0  0  0  0  0  0  0  0
   -2.6696   -3.5215    0.0000 C   0  0  0  0  0  0  0  0  0  0  0  0
   -3.2530   -2.9381    0.0000 N   0  0  0  0  0  0  0  0  0  0  0  0
   -4.0323   -3.2105    0.0000 C   0  0  0  0  0  0  0  0  0  0  0  0
   -4.7334   -2.7721    0.0000 C   0  0  0  0  0  0  0  0  0  0  0  0
   -2.9829   -2.1600    0.0000 C   0  0  0  0  0  0  0  0  0  0  0  0
   -4.8305   -1.9541    0.0000 C   0  0  0  0  0  0  0  0  0  0  0  0
   -3.4260   -1.4606    0.0000 C   0  0  0  0  0  0  0  0  0  0  0  0
   -4.2472   -1.3723    0.0000 C   0  0  0  0  0  0  0  0  0  0  0  0
    0.0020   -6.3336    0.0000 O   0  0  0  0  0  0  0  0  0  0  0  0
    1.3822   -5.9637    0.0000 O   0  0  0  0  0  0  0  0  0  0  0  0
    1.5958   -6.7606    0.0000 C   0  0  0  0  0  0  0  0  0  0  0  0
    2.3927   -6.9741    0.0000 O   0  0  0  0  0  0  0  0  0  0  0  0
    2.6062   -7.7710    0.0000 C   0  0  0  0  0  0  0  0  0  0  0  0
    3.4031   -7.9845    0.0000 C   0  0  0  0  0  0  0  0  0  0  0  0
    3.6166   -8.7814    0.0000 C   0  0  0  0  0  0  0  0  0  0  0  0
    3.4750   -7.1627    0.0000 C   0  0  0  0  0  0  0  0  0  0  0  0
    4.2249   -7.9126    0.0000 C   0  0  0  0  0  0  0  0  0  0  0  0
    2.0228   -8.3544    0.0000 O   0  0  0  0  0  0  0  0  0  0  0  0
  1  2  1  0
  2  4  1  0
  3  1  1  0
  3  4  1  0
  4  5  1  0
  5  6  1  0
  6  7  1  0
  7  3  1  0
  2  8  2  0
  3  9  1  6
  5 10  1  6
  6 11  1  0
  6 12  1  0
  1 13  1  1
 13 14  2  0
 14 15  1  0
 15 16  1  0
 16 17  1  0
 15 18  1  0
 17 19  1  0
 18 20  1  0
 19 21  1  0
 20 21  1  0
 10 22  2  0
 10 23  1  0
 23 24  1  0
 24 25  1  0
 25 26  1  0
 26 27  1  0
 27 28  1  0
 27 29  1  0
 27 30  1  0
 26 31  2  0
M  END
> <chembl_id>
CHEMBL1650818

> <chembl_pref_name>
AMDINOCILLIN PIVOXIL
