
     RDKit          2D

 12 11  0  0  0  0  0  0  0  0999 V2000
    6.4542   -6.1875    0.0000 Br  0  0  0  0  0  0  0  0  0  0  0  0
    4.1250   -5.5250    0.0000 C   0  0  0  0  0  0  0  0  0  0  0  0
    2.8917   -6.2417    0.0000 C   0  0  0  0  0  0  0  0  0  0  0  0
    4.7417   -5.1750    0.0000 C   0  0  0  0  0  0  0  0  0  0  0  0
    5.3542   -6.2292    0.0000 N   0  0  0  0  0  0  0  0  0  0  0  0
    3.5042   -5.1792    0.0000 C   0  0  0  0  0  0  0  0  0  0  0  0
    4.1292   -6.2417    0.0000 C   0  0  0  0  0  0  0  0  0  0  0  0
    3.5042   -6.6000    0.0000 C   0  0  0  0  0  0  0  0  0  0  0  0
    2.8917   -5.5292    0.0000 C   0  0  0  0  0  0  0  0  0  0  0  0
    2.2750   -6.6000    0.0000 O   0  0  0  0  0  0  0  0  0  0  0  0
    5.3542   -5.5250    0.0000 C   0  0  0  0  0  0  0  0  0  0  0  0
    5.9667   -5.1667    0.0000 C   0  0  0  0  0  0  0  0  0  0  0  0
  3  9  2  0
  4  2  1  0
  5 11  1  0
  6  2  2  0
  7  2  1  0
  8  7  2  0
  9  6  1  0
 10  3  1  0
 11  4  1  0
 12 11  1  0
  3  8  1  0
M  END
> <chembl_id>
CHEMBL1200705

> <chembl_pref_name>
HYDROXYAMPHETAMINE HYDROBROMIDE
