
     RDKit          2D

  5  5  0  0  0  0  0  0  0  0999 V2000
    4.9292   -6.2625    0.0000 C   0  0  0  0  0  0  0  0  0  0  0  0
    5.4292   -5.7667    0.0000 O   0  0  0  0  0  0  0  0  0  0  0  0
    5.4292   -6.7667    0.0000 C   0  0  0  0  0  0  0  0  0  0  0  0
    4.2167   -6.2625    0.0000 O   0  0  0  0  0  0  0  0  0  0  0  0
    5.9292   -6.2625    0.0000 C   0  0  0  0  0  0  0  0  0  0  0  0
  2  1  1  0
  3  1  1  0
  4  1  2  0
  5  3  1  0
  5  2  1  0
M  END
> <chembl_id>
CHEMBL1200627

> <chembl_pref_name>
PROPIOLACTONE
