
     RDKit          2D

 33 37  0  0  0  0  0  0  0  0999 V2000
    3.6219   -4.8335    0.0000 C   0  0  0  0  0  0  0  0  0  0  0  0
    3.3670   -4.0489    0.0000 C   0  0  0  0  0  0  0  0  0  0  0  0
    4.0344   -3.5640    0.0000 C   0  0  0  0  0  0  0  0  0  0  0  0
    4.0344   -2.7390    0.0000 N   0  0  0  0  0  0  0  0  0  0  0  0
    4.7019   -4.0489    0.0000 C   0  0  0  0  0  0  0  0  0  0  0  0
    4.4469   -4.8335    0.0000 C   0  0  0  0  0  0  0  0  0  0  0  0
    3.3200   -2.3265    0.0000 C   0  0  0  0  0  0  0  0  0  0  0  0
    3.3200   -1.5015    0.0000 C   0  0  0  0  0  0  0  0  0  0  0  0
    4.0344   -1.0890    0.0000 C   0  0  0  0  0  0  0  0  0  0  0  0
    4.7489   -1.5015    0.0000 C   0  0  0  0  0  0  0  0  0  0  0  0
    4.7489   -2.3265    0.0000 C   0  0  0  0  0  0  0  0  0  0  0  0
    5.4634   -2.7390    0.0000 N   0  0  0  0  0  0  0  0  0  0  0  0
    6.1778   -1.5015    0.0000 N   0  0  0  0  0  0  0  0  0  0  0  0
    5.4634   -1.0890    0.0000 C   0  0  0  0  0  0  0  0  0  0  0  0
    4.0344   -0.2640    0.0000 C   0  0  0  0  0  0  0  0  0  0  0  0
    2.6055   -1.0890    0.0000 C   0  0  0  0  0  0  0  0  0  0  0  0
    2.6055   -0.2640    0.0000 C   0  0  0  0  0  0  0  0  0  0  0  0
    1.8910   -1.5015    0.0000 O   0  0  0  0  0  0  0  0  0  0  0  0
    2.6055   -2.7390    0.0000 O   0  0  0  0  0  0  0  0  0  0  0  0
    6.8923   -6.0390    0.0000 N   0  0  0  0  0  0  0  0  0  0  0  0
    7.6068   -6.4515    0.0000 C   0  0  0  0  0  0  0  0  0  0  0  0
    7.6068   -7.2765    0.0000 C   0  0  0  0  0  0  0  0  0  0  0  0
    6.8923   -7.6890    0.0000 N   0  0  0  0  0  0  0  0  0  0  0  0
    6.1778   -7.2765    0.0000 C   0  0  0  0  0  0  0  0  0  0  0  0
    6.1778   -6.4515    0.0000 C   0  0  0  0  0  0  0  0  0  0  0  0
    6.8923   -5.2140    0.0000 C   0  0  0  0  0  0  0  0  0  0  0  0
    7.6068   -4.8015    0.0000 C   0  0  0  0  0  0  0  0  0  0  0  0
    7.6068   -3.9765    0.0000 N   0  0  0  0  0  0  0  0  0  0  0  0
    6.1778   -3.9765    0.0000 C   0  0  0  0  0  0  0  0  0  0  0  0
    6.8923   -3.5640    0.0000 C   0  0  0  0  0  0  0  0  0  0  0  0
    6.8923   -2.7390    0.0000 N   0  0  0  0  0  0  0  0  0  0  0  0
    6.1778   -4.8015    0.0000 C   0  0  0  0  0  0  0  0  0  0  0  0
    6.1778   -2.3265    0.0000 C   0  0  0  0  0  0  0  0  0  0  0  0
  1  2  1  0
  2  3  1  0
  3  4  1  0
  3  5  1  0
  4 11  1  0
  6  1  1  0
  6  5  1  0
  7  4  1  0
  7  8  1  0
  8 16  1  0
  9  8  2  0
 10  9  1  0
 11 10  2  0
 11 12  1  0
 12 33  2  0
 13 14  2  0
 14 10  1  0
 15  9  1  0
 16 18  2  0
 17 16  1  0
 19  7  2  0
 20 21  1  0
 21 22  1  0
 22 23  1  0
 23 24  1  0
 24 25  1  0
 25 20  1  0
 26 20  1  0
 26 32  1  0
 27 26  2  0
 27 28  1  0
 28 30  2  0
 29 30  1  0
 30 31  1  0
 32 29  2  0
 33 31  1  0
 33 13  1  0
M  END
> <chembl_id>
CHEMBL189963

> <chembl_pref_name>
PALBOCICLIB
