
     RDKit          2D

 14 15  0  0  0  0  0  0  0  0999 V2000
    4.9542   -5.3625    0.0000 N   0  0  0  0  0  0  0  0  0  0  0  0
    4.9542   -4.6667    0.0000 C   0  0  0  0  0  0  0  0  0  0  0  0
    4.2917   -4.4417    0.0000 C   0  0  0  0  0  0  0  0  0  0  0  0
    5.5667   -4.3042    0.0000 N   0  0  0  0  0  0  0  0  0  0  0  0
    5.5667   -5.7125    0.0000 C   0  0  0  0  0  0  0  0  0  0  0  0
    6.1750   -4.6667    0.0000 N   0  0  0  0  0  0  0  0  0  0  0  0
    6.1750   -5.3625    0.0000 N   0  0  0  0  0  0  0  0  0  0  0  0
    3.8792   -5.0167    0.0000 N   0  0  0  0  0  0  0  0  0  0  0  0
    4.3000   -5.5792    0.0000 C   0  0  0  0  0  0  0  0  0  0  0  0
    3.9167   -3.8250    0.0000 C   0  0  0  0  0  0  0  0  0  0  0  0
    5.5625   -6.4292    0.0000 O   0  0  0  0  0  0  0  0  0  0  0  0
    4.2792   -3.1917    0.0000 O   0  0  0  0  0  0  0  0  0  0  0  0
    3.1917   -3.8250    0.0000 N   0  0  0  0  0  0  0  0  0  0  0  0
    6.8000   -5.7250    0.0000 C   0  0  0  0  0  0  0  0  0  0  0  0
  2  1  1  0
  3  2  2  0
  4  2  1  0
  5  1  1  0
  6  7  1  0
  7  5  1  0
  8  9  2  0
  9  1  1  0
 10  3  1  0
 11  5  2  0
 12 10  2  0
 13 10  1  0
 14  7  1  0
  8  3  1  0
  6  4  2  0
M  END
> <chembl_id>
CHEMBL810

> <chembl_pref_name>
TEMOZOLOMIDE
