
     RDKit          2D

  6  3  0  0  0  0  0  0  0  0999 V2000
    6.5542   -6.7792    0.0000 Na  0  0  0  0  0 15  0  0  0  0  0  0
    5.2042   -6.4250    0.0000 C   0  0  0  0  0  0  0  0  0  0  0  0
    4.5792   -6.7750    0.0000 O   0  0  0  0  0  0  0  0  0  0  0  0
    5.8000   -6.7917    0.0000 O   0  0  0  0  0  0  0  0  0  0  0  0
    5.2042   -5.7042    0.0000 O   0  0  0  0  0  0  0  0  0  0  0  0
    3.7750   -6.7792    0.0000 Na  0  0  0  0  0 15  0  0  0  0  0  0
  3  2  1  0
  4  2  1  0
  5  2  2  0
M  CHG  4   1   1   3  -1   4  -1   6   1
M  END
> <chembl_id>
CHEMBL186314

> <chembl_pref_name>
SODIUM CARBONATE
