
     RDKit          2D

 32 33  0  0  0  0  0  0  0  0999 V2000
    0.6907   -7.0125    0.0000 S   0  0  0  0  0  0  0  0  0  0  0  0
    4.2630   -4.9500    0.0000 F   0  0  0  0  0  0  0  0  0  0  0  0
    3.1360   -4.6480    0.0000 F   0  0  0  0  0  0  0  0  0  0  0  0
    3.9610   -6.0770    0.0000 F   0  0  0  0  0  0  0  0  0  0  0  0
   -4.3106   -1.6500    0.0000 O   0  0  0  0  0  0  0  0  0  0  0  0
    0.6907   -5.3625    0.0000 N   0  0  0  0  0  0  0  0  0  0  0  0
   -1.4528   -4.1250    0.0000 N   0  0  0  0  0  0  0  0  0  0  0  0
   -2.8817   -3.3000    0.0000 N   0  0  0  0  0  0  0  0  0  0  0  0
    1.4051   -5.7750    0.0000 C   0  0  0  0  0  0  0  0  0  0  0  0
    1.4051   -6.6000    0.0000 C   0  0  0  0  0  0  0  0  0  0  0  0
   -0.0238   -5.7750    0.0000 C   0  0  0  0  0  0  0  0  0  0  0  0
   -0.0238   -6.6000    0.0000 C   0  0  0  0  0  0  0  0  0  0  0  0
    2.8341   -5.7750    0.0000 C   0  0  0  0  0  0  0  0  0  0  0  0
    2.1196   -5.3625    0.0000 C   0  0  0  0  0  0  0  0  0  0  0  0
    2.1196   -7.0125    0.0000 C   0  0  0  0  0  0  0  0  0  0  0  0
    3.5485   -5.3625    0.0000 C   0  0  0  0  0  0  0  0  0  0  0  0
    2.8341   -6.6000    0.0000 C   0  0  0  0  0  0  0  0  0  0  0  0
    0.6907   -4.5375    0.0000 C   0  0  0  0  0  0  0  0  0  0  0  0
   -0.7383   -5.3625    0.0000 C   0  0  0  0  0  0  0  0  0  0  0  0
   -0.7383   -7.0125    0.0000 C   0  0  0  0  0  0  0  0  0  0  0  0
   -1.4528   -5.7750    0.0000 C   0  0  0  0  0  0  0  0  0  0  0  0
   -1.4528   -6.6000    0.0000 C   0  0  0  0  0  0  0  0  0  0  0  0
   -0.0238   -4.1250    0.0000 C   0  0  0  0  0  0  0  0  0  0  0  0
   -0.7383   -4.5375    0.0000 C   0  0  0  0  0  0  0  0  0  0  0  0
   -2.1672   -4.5375    0.0000 C   0  0  0  0  0  0  0  0  0  0  0  0
   -1.4528   -3.3000    0.0000 C   0  0  0  0  0  0  0  0  0  0  0  0
   -2.8817   -4.1250    0.0000 C   0  0  0  0  0  0  0  0  0  0  0  0
   -2.1672   -2.8875    0.0000 C   0  0  0  0  0  0  0  0  0  0  0  0
   -3.5962   -2.8875    0.0000 C   0  0  0  0  0  0  0  0  0  0  0  0
   -3.5962   -2.0625    0.0000 C   0  0  0  0  0  0  0  0  0  0  0  0
    0.0000    0.0000    0.0000 Cl  0  0  0  0  0  0  0  0  0  0  0  0
    2.2393    0.0000    0.0000 Cl  0  0  0  0  0  0  0  0  0  0  0  0
  1 10  1  0
  1 12  1  0
  2 16  1  0
  3 16  1  0
  4 16  1  0
  5 30  1  0
  6  9  1  0
  6 11  1  0
  6 18  1  0
  7 24  1  0
  7 25  1  0
  7 26  1  0
  8 27  1  0
  8 28  1  0
  8 29  1  0
  9 10  1  0
  9 14  2  0
 10 15  2  0
 11 12  1  0
 11 19  2  0
 12 20  2  0
 13 14  1  0
 13 16  1  0
 13 17  2  0
 15 17  1  0
 18 23  1  0
 19 21  1  0
 20 22  1  0
 21 22  2  0
 23 24  1  0
 25 27  1  0
 26 28  1  0
 29 30  1  0
M  END
> <chembl_id>
CHEMBL1448187

> <chembl_pref_name>
FLUPHENAZINE HYDROCHLORIDE
