
     RDKit          2D

 17 18  0  0  0  0  0  0  0  0999 V2000
    5.6542   -4.6250    0.0000 N   0  0  0  0  0  0  0  0  0  0  0  0
    3.2292   -4.6250    0.0000 O   0  0  0  0  0  0  0  0  0  0  0  0
    2.6042   -4.9792    0.0000 C   0  0  0  0  0  0  0  0  0  0  0  0
    4.4292   -3.9167    0.0000 O   0  0  0  0  0  0  0  0  0  0  0  0
    4.4292   -4.6250    0.0000 C   0  0  0  0  0  0  0  0  0  0  0  0
    2.6042   -5.6792    0.0000 C   0  0  0  0  0  0  0  0  0  0  0  0
    3.8375   -4.9792    0.0000 C   0  0  0  0  0  0  0  0  0  0  0  0
    3.2292   -6.0500    0.0000 O   0  0  0  0  0  0  0  0  0  0  0  0
    5.0542   -4.9792    0.0000 C   0  0  0  0  0  0  0  0  0  0  0  0
    5.6542   -3.9167    0.0000 C   0  0  0  0  0  0  0  0  0  0  0  0
    5.0542   -3.5500    0.0000 C   0  0  0  0  0  0  0  0  0  0  0  0
    1.9750   -4.6250    0.0000 C   0  0  0  0  0  0  0  0  0  0  0  0
    1.9750   -6.0292    0.0000 C   0  0  0  0  0  0  0  0  0  0  0  0
    3.8375   -5.6917    0.0000 C   0  0  0  0  0  0  0  0  0  0  0  0
    4.4667   -6.0500    0.0000 C   0  0  0  0  0  0  0  0  0  0  0  0
    1.3667   -4.9792    0.0000 C   0  0  0  0  0  0  0  0  0  0  0  0
    1.3667   -5.6792    0.0000 C   0  0  0  0  0  0  0  0  0  0  0  0
  2  7  1  0
  3  2  1  0
  4 11  1  0
  5  9  1  0
  6  3  2  0
  7  5  1  0
  8  6  1  0
  9  1  1  0
 10  1  1  0
 11 10  1  0
 12  3  1  0
 13  6  1  0
 14  8  1  0
 15 14  1  0
 16 12  2  0
 17 16  1  0
  5  4  1  0
 13 17  2  0
M  END
> <chembl_id>
CHEMBL306700

> <chembl_pref_name>
VILOXAZINE
