
     RDKit          2D

 16 17  0  0  1  0  0  0  0  0999 V2000
    1.6667   -1.6542    0.0000 C   0  0  0  0  0  0  0  0  0  0  0  0
    1.6667   -0.9500    0.0000 C   0  0  0  0  0  0  0  0  0  0  0  0
    1.4250   -2.3250    0.0000 C   0  0  0  0  0  0  0  0  0  0  0  0
    1.0542   -0.5917    0.0000 C   0  0  0  0  0  0  0  0  0  0  0  0
    0.9667   -1.5375    0.0000 N   0  0  0  0  0  0  0  0  0  0  0  0
    0.7250   -2.4500    0.0000 O   0  0  0  0  0  0  0  0  0  0  0  0
    0.4375   -0.9500    0.0000 Cl  0  0  0  0  0  0  0  0  0  0  0  0
    2.3667   -1.5375    0.0000 C   0  0  0  0  0  0  0  0  0  0  0  0
    2.2792   -0.5917    0.0000 C   0  0  0  0  0  0  0  0  0  0  0  0
    1.8792   -2.8667    0.0000 C   0  0  0  0  0  0  0  0  0  0  0  0
    1.0542    0.1125    0.0000 C   0  0  0  0  0  0  0  0  0  0  0  0
    0.5125   -2.0792    0.0000 C   0  0  0  0  0  0  0  0  0  0  0  0
    2.8167   -2.0792    0.0000 C   0  0  0  0  0  0  0  0  0  0  0  0
    2.2792    0.1125    0.0000 C   0  0  0  0  0  0  0  0  0  0  0  0
    2.5792   -2.7417    0.0000 C   0  0  0  0  0  0  0  0  0  0  0  0
    1.6667    0.4708    0.0000 C   0  0  0  0  0  0  0  0  0  0  0  0
  1  2  1  1
  3  1  1  0
  4  2  1  0
  1  5  1  6
  6  3  2  0
  7  4  1  0
  8  1  1  0
  9  2  2  0
 10  3  1  0
 11  4  2  0
 12  5  1  0
 13  8  1  0
 14  9  1  0
 15 13  1  0
 16 14  2  0
 10 15  1  0
 16 11  1  0
M  END
> <chembl_id>
CHEMBL395091

> <chembl_pref_name>
ESKETAMINE
