
     RDKit          2D

 24 24  0  0  0  0  0  0  0  0999 V2000
    2.8000   -1.3167    0.0000 Br  0  0  0  0  0  0  0  0  0  0  0  0
   -0.5958    0.7125    0.0000 C   0  0  0  0  0  0  0  0  0  0  0  0
   -0.5958    1.9625    0.0000 C   0  0  0  0  0  0  0  0  0  0  0  0
    0.6500    0.7125    0.0000 C   0  0  0  0  0  0  0  0  0  0  0  0
    2.5375    1.7875    0.0000 N   0  0  0  0  0  0  0  0  0  0  0  0
   -1.8458    0.7125    0.0000 C   0  0  0  0  0  0  0  0  0  0  0  0
   -0.5958   -0.5292    0.0000 C   0  0  0  0  0  0  0  0  0  0  0  0
    0.5042    2.5708    0.0000 O   0  0  0  0  0  0  0  0  0  0  0  0
    1.2917    1.7875    0.0000 C   0  0  0  0  0  0  0  0  0  0  0  0
   -1.6708    2.6000    0.0000 N   0  0  0  0  0  0  0  0  0  0  0  0
    3.7292    1.8000    0.0000 C   0  0  0  0  0  0  0  0  0  0  0  0
    2.5250    0.5583    0.0000 C   0  0  0  0  0  0  0  0  0  0  0  0
    2.5375    3.0458    0.0000 C   0  0  0  0  0  0  0  0  0  0  0  0
   -2.4833   -0.3542    0.0000 C   0  0  0  0  0  0  0  0  0  0  0  0
    0.5042   -1.1417    0.0000 C   0  0  0  0  0  0  0  0  0  0  0  0
   -1.6708   -1.1750    0.0000 C   0  0  0  0  0  0  0  0  0  0  0  0
   -2.4583    1.8208    0.0000 C   0  0  0  0  0  0  0  0  0  0  0  0
    4.3417    0.7000    0.0000 C   0  0  0  0  0  0  0  0  0  0  0  0
   -1.6708   -2.4167    0.0000 C   0  0  0  0  0  0  0  0  0  0  0  0
   -3.7083    1.8208    0.0000 C   0  0  0  0  0  0  0  0  0  0  0  0
   -3.7375   -0.3542    0.0000 C   0  0  0  0  0  0  0  0  0  0  0  0
    0.5042   -2.3917    0.0000 C   0  0  0  0  0  0  0  0  0  0  0  0
   -0.5958   -3.0292    0.0000 C   0  0  0  0  0  0  0  0  0  0  0  0
   -4.3458    0.7458    0.0000 C   0  0  0  0  0  0  0  0  0  0  0  0
  3  2  1  0
  4  2  1  0
  5  9  1  0
  6  2  1  0
  7  2  1  0
  8  3  2  0
  9  4  1  0
 10  3  1  0
 11  5  1  0
 12  5  1  0
 13  5  1  0
 14  6  1  0
 15  7  1  0
 16  7  2  0
 17  6  2  0
 18 11  1  0
 19 16  1  0
 20 17  1  0
 21 14  2  0
 22 15  2  0
 23 19  2  0
 24 21  1  0
 22 23  1  0
 20 24  2  0
M  CHG  2   1  -1   5   1
M  END
> <chembl_id>
CHEMBL2105972

> <chembl_pref_name>
AMBUTONIUM BROMIDE
