
     RDKit          2D

 25 28  0  0  1  0  0  0  0  0999 V2000
    0.1667    0.3833    0.0000 C   0  0  0  0  0  0  0  0  0  0  0  0
   -1.0750   -0.3125    0.0000 C   0  0  0  0  0  0  0  0  0  0  0  0
    1.4167   -0.3125    0.0000 C   0  0  0  0  0  0  0  0  0  0  0  0
   -1.0750   -1.7750    0.0000 O   0  0  0  0  0  0  0  0  0  0  0  0
   -0.5250    1.6333    0.0000 O   0  0  0  0  0  0  0  0  0  0  0  0
   -2.4333    0.2083    0.0000 O   0  0  0  0  0  0  0  0  0  0  0  0
    0.1667   -2.5125    0.0000 C   0  0  0  0  0  0  0  0  0  0  0  0
    0.1667    1.8583    0.0000 C   0  0  0  0  0  0  0  0  0  0  0  0
   -2.8750    1.6000    0.0000 C   0  0  0  0  0  0  0  0  0  0  0  0
    1.4167   -1.7750    0.0000 C   0  0  0  0  0  0  0  0  0  0  0  0
   -1.7875    1.9708    0.0000 O   0  0  0  0  0  0  0  0  0  0  0  0
    2.6667    0.3833    0.0000 C   0  0  0  0  0  0  0  0  0  0  0  0
   -0.9625    2.7375    0.0000 C   0  0  0  0  0  0  0  0  0  0  0  0
    1.4167    2.5500    0.0000 C   0  0  0  0  0  0  0  0  0  0  0  0
    2.6667    1.8583    0.0000 C   0  0  0  0  0  0  0  0  0  0  0  0
   -2.3583    2.4458    0.0000 C   0  0  0  0  0  0  0  0  0  0  0  0
    0.1667   -3.9375    0.0000 O   0  0  0  0  0  0  0  0  0  0  0  0
   -4.1583    2.3375    0.0000 C   0  0  0  0  0  0  0  0  0  0  0  0
    2.6667   -2.5125    0.0000 C   0  0  0  0  0  0  0  0  0  0  0  0
    1.4167    4.0167    0.0000 C   0  0  0  0  0  0  0  0  0  0  0  0
    1.4167   -4.6792    0.0000 C   0  0  0  0  0  0  0  0  0  0  0  0
    1.4167   -6.1042    0.0000 C   0  0  0  0  0  0  0  0  0  0  0  0
   -2.4458   -1.0792    0.0000 H   0  0  0  0  0  0  0  0  0  0  0  0
    2.7542   -1.1167    0.0000 H   0  0  0  0  0  0  0  0  0  0  0  0
    0.3375    3.2708    0.0000 H   0  0  0  0  0  0  0  0  0  0  0  0
  2  1  1  0
  3  1  1  0
  4  2  1  0
  1  5  1  6
  6  2  1  0
  7 10  1  0
  8  1  1  0
  9 11  1  0
 10  3  1  0
 11  5  1  0
 12  3  1  0
 13  8  1  0
 14  8  1  0
 15 14  1  0
 16 13  1  0
  7 17  1  1
  9 18  1  6
 10 19  1  1
 14 20  1  6
 21 17  1  0
 22 21  1  0
  2 23  1  1
  3 24  1  6
  8 25  1  6
 12 15  1  0
  9 16  1  0
  6  9  1  0
  4  7  1  0
M  END
> <chembl_id>
CHEMBL301267

> <chembl_pref_name>
ARTEMOTIL
