
     RDKit          2D

  9  9  0  0  0  0  0  0  0  0999 V2000
   -4.6182    0.8282    0.0000 C   0  0  0  0  0  0  0  0  0  0  0  0
   -4.6195    0.0020    0.0000 C   0  0  0  0  0  0  0  0  0  0  0  0
   -3.9077   -0.4101    0.0000 C   0  0  0  0  0  0  0  0  0  0  0  0
   -3.1897    0.0025    0.0000 C   0  0  0  0  0  0  0  0  0  0  0  0
   -3.1928    0.8321    0.0000 C   0  0  0  0  0  0  0  0  0  0  0  0
   -3.9097    1.2403    0.0000 C   0  0  0  0  0  0  0  0  0  0  0  0
   -3.9135    2.0639    0.0000 O   0  0  0  0  0  0  0  0  0  0  0  0
   -2.4760   -0.4086    0.0000 O   0  0  0  0  0  0  0  0  0  0  0  0
   -5.3333   -0.4087    0.0000 O   0  0  0  0  0  0  0  0  0  0  0  0
  4  5  1  0
  2  3  1  0
  5  6  2  0
  6  1  1  0
  1  2  2  0
  6  7  1  0
  3  4  2  0
  4  8  1  0
  2  9  1  0
M  END
> <chembl_id>
CHEMBL473159

> <chembl_pref_name>
PHLOROGLUCINOL
