
     RDKit          2D

 47 48  0  0  0  0  0  0  0  0999 V2000
    6.5228    0.0000    0.0000 S   0  0  0  0  0  0  0  0  0  0  0  0
    6.5228   -0.8250    0.0000 O   0  0  0  0  0  0  0  0  0  0  0  0
    6.5228    0.8250    0.0000 O   0  0  0  0  0  0  0  0  0  0  0  0
    7.3478    0.0000    0.0000 O   0  0  0  0  0  0  0  0  0  0  0  0
    5.6978    0.0000    0.0000 O   0  0  0  0  0  0  0  0  0  0  0  0
    2.1474   -2.0602    0.0000 C   0  0  0  0  0  0  0  0  0  0  0  0
    2.8619   -1.6477    0.0000 C   0  0  0  0  0  0  0  0  0  0  0  0
    2.8619   -0.8227    0.0000 C   0  0  0  0  0  0  0  0  0  0  0  0
    2.8619    0.8273    0.0000 N   0  0  0  0  0  0  0  0  0  0  0  0
    2.1474    0.4148    0.0000 C   0  0  0  0  0  0  0  0  0  0  0  0
    2.1474   -0.4102    0.0000 C   0  0  0  0  0  0  0  0  0  0  0  0
    1.4329   -0.8227    0.0000 O   0  0  0  0  0  0  0  0  0  0  0  0
    1.4329   -1.6477    0.0000 C   0  0  0  0  0  0  0  0  0  0  0  0
    0.7185   -2.0602    0.0000 O   0  0  0  0  0  0  0  0  0  0  0  0
    2.1474   -2.8852    0.0000 N   0  0  0  0  0  0  0  0  0  0  0  0
    1.4329    0.8273    0.0000 C   0  0  0  0  0  0  0  0  0  0  0  0
    1.4329    1.6523    0.0000 C   0  0  0  0  0  0  0  0  0  0  0  0
    0.7185    2.0648    0.0000 C   0  0  0  0  0  0  0  0  0  0  0  0
    0.0040    1.6523    0.0000 C   0  0  0  0  0  0  0  0  0  0  0  0
    0.0040    0.8273    0.0000 C   0  0  0  0  0  0  0  0  0  0  0  0
    0.7185    0.4148    0.0000 O   0  0  0  0  0  0  0  0  0  0  0  0
    0.7185    2.8898    0.0000 N   0  0  0  0  0  0  0  0  0  0  0  0
   -0.7105   -2.0602    0.0000 C   0  0  0  0  0  0  0  0  0  0  0  0
   -0.7105   -2.8852    0.0000 N   0  0  0  0  0  0  0  0  0  0  0  0
   -1.4250   -1.6477    0.0000 C   0  0  0  0  0  0  0  0  0  0  0  0
   -1.4250   -0.8227    0.0000 C   0  0  0  0  0  0  0  0  0  0  0  0
   -0.7105   -0.4102    0.0000 C   0  0  0  0  0  0  0  0  0  0  0  0
   -0.7105    0.4148    0.0000 O   0  0  0  0  0  0  0  0  0  0  0  0
    0.0040   -0.8227    0.0000 C   0  0  0  0  0  0  0  0  0  0  0  0
    0.7185   -0.4102    0.0000 O   0  0  0  0  0  0  0  0  0  0  0  0
    0.0040   -1.6477    0.0000 C   0  0  0  0  0  0  0  0  0  0  0  0
    3.5763    2.8898    0.0000 O   0  0  0  0  0  0  0  0  0  0  0  0
    3.5763    2.0648    0.0000 C   0  0  0  0  0  0  0  0  0  0  0  0
    2.8619    1.6523    0.0000 C   0  0  0  0  0  0  0  0  0  0  0  0
   -2.8539   -1.6477    0.0000 O   0  0  0  0  0  0  0  0  0  0  0  0
   -2.8539   -0.8227    0.0000 C   0  0  0  0  0  0  0  0  0  0  0  0
   -3.5684   -0.4102    0.0000 C   0  0  0  0  0  0  0  0  0  0  0  0
   -4.9973   -0.4102    0.0000 C   0  0  0  0  0  0  0  0  0  0  0  0
   -5.7118   -0.8227    0.0000 N   0  0  0  0  0  0  0  0  0  0  0  0
   -4.2828   -0.8227    0.0000 C   0  0  0  0  0  0  0  0  0  0  0  0
    0.0040    3.3023    0.0000 C   0  0  0  0  0  0  0  0  0  0  0  0
   -2.1394   -0.4102    0.0000 N   0  0  0  0  0  0  0  0  0  0  0  0
   -0.7105    2.0648    0.0000 O   0  0  0  0  0  0  0  0  0  0  0  0
   -4.2828    0.0023    0.0000 H   0  0  0  0  0  0  0  0  0  0  0  0
   -3.5684    0.4148    0.0000 O   0  0  0  0  0  0  0  0  0  0  0  0
    2.2574    1.6811    0.0000 O   0  0  0  0  0  0  0  0  0  0  0  0
    1.8701    2.3519    0.0000 C   0  0  0  0  0  0  0  0  0  0  0  0
  1  2  1  0
  1  3  2  0
  1  4  2  0
  1  5  1  0
  6  7  1  0
  6 13  1  0
  6 15  1  1
  7  8  1  0
  8 11  2  0
  9 10  1  0
 11 10  1  0
 11 12  1  0
 12 13  1  0
 13 14  1  1
 31 14  1  6
 16 17  1  0
 16 21  1  0
 17 18  1  0
 18 19  1  0
 18 22  1  1
 20 21  1  0
 20 19  1  0
 20 28  1  6
 22 41  1  0
 23 24  1  1
 23 25  1  0
 23 31  1  0
 25 26  1  0
 26 27  1  0
 29 30  1  1
 29 27  1  0
 31 29  1  0
 32 33  1  0
 33 34  1  0
 34  9  1  0
 35 36  2  0
 36 37  1  0
 38 39  1  0
 38 40  1  0
 40 37  1  0
 27 28  1  6
 26 42  1  1
 42 36  1  0
 19 43  1  6
 37 44  1  1
 37 45  1  6
 17 46  1  1
 17 47  1  6
M  END
> <chembl_id>
CHEMBL2364623

> <chembl_pref_name>
PLAZOMICIN SULFATE
