
     RDKit          2D

 18 18  0  0  0  0  0  0  0  0999 V2000
    5.9917   -5.1542    0.0000 S   0  0  0  0  0  0  0  0  0  0  0  0
    5.3792   -4.8042    0.0000 N   0  0  0  0  0  0  0  0  0  0  0  0
    4.7667   -5.1542    0.0000 C   0  0  0  0  0  0  0  0  0  0  0  0
    6.6042   -4.8042    0.0000 C   0  0  0  0  0  0  0  0  0  0  0  0
    6.3417   -5.7667    0.0000 O   0  0  0  0  0  0  0  0  0  0  0  0
    5.6375   -5.7667    0.0000 O   0  0  0  0  0  0  0  0  0  0  0  0
    4.7667   -5.8667    0.0000 O   0  0  0  0  0  0  0  0  0  0  0  0
    4.1542   -4.8042    0.0000 N   0  0  0  0  0  0  0  0  0  0  0  0
    7.2167   -5.1542    0.0000 C   0  0  0  0  0  0  0  0  0  0  0  0
    6.6042   -4.0917    0.0000 C   0  0  0  0  0  0  0  0  0  0  0  0
    7.2167   -3.7375    0.0000 C   0  0  0  0  0  0  0  0  0  0  0  0
    7.8292   -4.8042    0.0000 C   0  0  0  0  0  0  0  0  0  0  0  0
    7.8292   -4.0917    0.0000 C   0  0  0  0  0  0  0  0  0  0  0  0
    3.5417   -5.1542    0.0000 C   0  0  0  0  0  0  0  0  0  0  0  0
    8.4417   -3.7292    0.0000 C   0  0  0  0  0  0  0  0  0  0  0  0
    2.9292   -4.8042    0.0000 C   0  0  0  0  0  0  0  0  0  0  0  0
    2.3125   -5.1542    0.0000 C   0  0  0  0  0  0  0  0  0  0  0  0
    1.7000   -4.8000    0.0000 C   0  0  0  0  0  0  0  0  0  0  0  0
  2  1  1  0
  3  2  1  0
  4  1  1  0
  5  1  2  0
  6  1  2  0
  7  3  2  0
  8  3  1  0
  9  4  1  0
 10  4  2  0
 11 10  1  0
 12  9  2  0
 13 11  2  0
 14  8  1  0
 15 13  1  0
 16 14  1  0
 17 16  1  0
 18 17  1  0
 12 13  1  0
M  END
> <chembl_id>
CHEMBL782

> <chembl_pref_name>
TOLBUTAMIDE
