
     RDKit          2D

 53 55  0  0  0  0  0  0  0  0999 V2000
    7.0020   -2.0148    0.0000 C   0  0  0  0  0  0  0  0  0  0  0  0
    6.2875   -2.4273    0.0000 C   0  0  0  0  0  0  0  0  0  0  0  0
    6.2875   -3.2523    0.0000 C   0  0  0  0  0  0  0  0  0  0  0  0
    7.0020   -3.6648    0.0000 C   0  0  0  0  0  0  0  0  0  0  0  0
    7.7165   -3.2523    0.0000 C   0  0  0  0  0  0  0  0  0  0  0  0
    7.7165   -2.4273    0.0000 C   0  0  0  0  0  0  0  0  0  0  0  0
    8.4310   -2.0148    0.0000 S   0  0  0  0  0  0  0  0  0  0  0  0
    9.1455   -2.4273    0.0000 O   0  0  0  0  0  0  0  0  0  0  0  0
    7.8476   -1.4314    0.0000 O   0  0  0  0  0  0  0  0  0  0  0  0
    9.0144   -1.4314    0.0000 O   0  0  0  0  0  0  0  0  0  0  0  0
    5.5731   -3.6648    0.0000 C   0  0  0  0  0  0  0  0  0  0  0  0
    5.6553    3.0193    0.0000 C   0  0  0  0  0  0  0  0  0  0  0  0
    4.9408    3.4318    0.0000 C   0  0  0  0  0  0  0  0  0  0  0  0
    4.2264    3.0193    0.0000 C   0  0  0  0  0  0  0  0  0  0  0  0
    4.2263    2.1943    0.0000 C   0  0  0  0  0  0  0  0  0  0  0  0
    4.9408    1.7818    0.0000 N   0  0  0  0  0  0  0  0  0  0  0  0
    5.6553    2.1943    0.0000 C   0  0  0  0  0  0  0  0  0  0  0  0
    3.5119    1.7818    0.0000 C   0  0  0  0  0  0  0  0  0  0  0  0
    3.5118    0.9568    0.0000 C   0  0  0  0  0  0  0  0  0  0  0  0
    4.2263    0.5443    0.0000 C   0  0  0  0  0  0  0  0  0  0  0  0
    4.9408    0.9568    0.0000 C   0  0  0  0  0  0  0  0  0  0  0  0
    2.7974    2.1943    0.0000 C   0  0  0  0  0  0  0  0  0  0  0  0
    2.0829    1.7819    0.0000 C   0  0  0  0  0  0  0  0  0  0  0  0
    2.0829    0.9569    0.0000 C   0  0  0  0  0  0  0  0  0  0  0  0
    2.7974    0.5443    0.0000 C   0  0  0  0  0  0  0  0  0  0  0  0
    4.9408    4.2568    0.0000 O   0  0  0  0  0  0  0  0  0  0  0  0
    6.3698    3.4318    0.0000 C   0  0  0  0  0  0  0  0  0  0  0  0
    7.0843    3.0193    0.0000 C   0  0  0  0  0  0  0  0  0  0  0  0
    7.7987    3.4318    0.0000 C   0  0  0  0  0  0  0  0  0  0  0  0
    7.0843    2.1943    0.0000 C   0  0  0  0  0  0  0  0  0  0  0  0
    3.5119    2.6068    0.0000 H   0  0  0  0  0  0  0  0  0  0  0  0
    4.2264    4.6693    0.0000 C   0  0  0  0  0  0  0  0  0  0  0  0
    4.2264    5.4943    0.0000 O   0  0  0  0  0  0  0  0  0  0  0  0
    3.5119    4.2568    0.0000 C   0  0  0  0  0  0  0  0  0  0  0  0
    2.7974    4.6693    0.0000 C   0  0  0  0  0  0  0  0  0  0  0  0
    3.5119    3.4318    0.0000 N   0  0  0  0  0  0  0  0  0  0  0  0
    2.0830    4.2568    0.0000 C   0  0  0  0  0  0  0  0  0  0  0  0
    2.7974    5.4943    0.0000 C   0  0  0  0  0  0  0  0  0  0  0  0
    1.3684    2.1944    0.0000 O   0  0  0  0  0  0  0  0  0  0  0  0
    0.6540    1.7819    0.0000 C   0  0  0  0  0  0  0  0  0  0  0  0
    1.3684    0.5444    0.0000 O   0  0  0  0  0  0  0  0  0  0  0  0
    1.3684   -0.2806    0.0000 C   0  0  0  0  0  0  0  0  0  0  0  0
    3.3343   -1.6606    0.0000 C   0  0  0  0  0  0  0  0  0  0  0  0
    2.6198   -2.0731    0.0000 C   0  0  0  0  0  0  0  0  0  0  0  0
    2.6198   -2.8981    0.0000 C   0  0  0  0  0  0  0  0  0  0  0  0
    3.3343   -3.3106    0.0000 C   0  0  0  0  0  0  0  0  0  0  0  0
    4.0488   -2.8981    0.0000 C   0  0  0  0  0  0  0  0  0  0  0  0
    4.0488   -2.0731    0.0000 C   0  0  0  0  0  0  0  0  0  0  0  0
    4.7633   -1.6606    0.0000 S   0  0  0  0  0  0  0  0  0  0  0  0
    5.4777   -2.0731    0.0000 O   0  0  0  0  0  0  0  0  0  0  0  0
    4.1799   -1.0772    0.0000 O   0  0  0  0  0  0  0  0  0  0  0  0
    5.3466   -1.0772    0.0000 O   0  0  0  0  0  0  0  0  0  0  0  0
    1.9053   -3.3106    0.0000 C   0  0  0  0  0  0  0  0  0  0  0  0
  1  2  1  0
  1  6  2  0
  2  3  2  0
  3  4  1  0
  4  5  2  0
  5  6  1  0
  6  7  1  0
  7  8  2  0
  7  9  2  0
  7 10  1  0
  3 11  1  0
 12 13  1  0
 13 14  1  0
 14 15  1  0
 16 17  1  0
 17 12  1  0
 15 18  1  0
 16 15  1  0
 21 16  1  0
 19 20  1  0
 20 21  1  0
 25 19  1  0
 19 18  2  0
 18 22  1  0
 22 23  2  0
 23 24  1  0
 24 25  2  0
 13 26  1  1
 12 27  1  6
 27 28  1  0
 28 29  1  0
 28 30  1  0
 15 31  1  6
 26 32  1  0
 32 33  2  0
 32 34  1  0
 34 35  1  0
 34 36  1  1
 35 37  1  0
 35 38  1  0
 23 39  1  0
 39 40  1  0
 24 41  1  0
 41 42  1  0
 43 44  1  0
 43 48  2  0
 44 45  2  0
 45 46  1  0
 46 47  2  0
 47 48  1  0
 48 49  1  0
 49 50  2  0
 49 51  2  0
 49 52  1  0
 45 53  1  0
M  END
> <chembl_id>
CHEMBL3707248

> <chembl_pref_name>
VALBENAZINE TOSYLATE
