
     RDKit          2D

 11 10  0  0  1  0  0  0  0  0999 V2000
    2.8167    0.5083    0.0000 C   0  0  0  0  0  0  0  0  0  0  0  0
    1.6125   -0.1667    0.0000 C   0  0  0  0  0  0  0  0  0  0  0  0
   -3.1333   -0.1750    0.0000 C   0  0  0  0  0  0  0  0  0  0  0  0
    2.8292    1.8958    0.0000 O   0  0  0  0  0  0  0  0  0  0  0  0
   -4.3125    0.5208    0.0000 O   0  0  0  0  0  0  0  0  0  0  0  0
   -0.7708   -0.3292    0.0000 S   0  0  0  0  0  0  0  0  0  0  0  0
    1.5917   -1.5500    0.0000 N   0  0  0  0  0  0  0  0  0  0  0  0
    4.0000   -0.1792    0.0000 O   0  0  0  0  0  0  0  0  0  0  0  0
   -3.1583   -1.5417    0.0000 O   0  0  0  0  0  0  0  0  0  0  0  0
    0.3875    0.5333    0.0000 C   0  0  0  0  0  0  0  0  0  0  0  0
   -1.9083    0.5083    0.0000 C   0  0  0  0  0  0  0  0  0  0  0  0
  2  1  1  0
  3 11  1  0
  4  1  2  0
  5  3  2  0
  6 10  1  0
  2  7  1  1
  8  1  1  0
  9  3  1  0
 10  2  1  0
 11  6  1  0
M  END
> <chembl_id>
CHEMBL396416

> <chembl_pref_name>
CARBOCYSTEINE
