
     RDKit          2D

 33 35  0  0  1  0  0  0  0  0999 V2000
    1.6417   -8.9000    0.0000 C   0  0  0  0  0  0  0  0  0  0  0  0
    2.2542   -7.8375    0.0000 C   0  0  0  0  0  0  0  0  0  0  0  0
    2.2542   -8.5417    0.0000 C   0  0  0  0  0  0  0  0  0  0  0  0
    0.6792  -10.5792    0.0000 C   0  0  0  0  0  0  0  0  0  0  0  0
    1.0333   -9.9667    0.0000 C   0  0  0  0  0  0  0  0  0  0  0  0
   -0.0292  -10.5792    0.0000 C   0  0  0  0  0  0  0  0  0  0  0  0
    1.6417   -9.6042    0.0000 O   0  0  0  0  0  0  0  0  0  0  0  0
    2.8708   -7.4833    0.0000 O   0  0  0  0  0  0  0  0  0  0  0  0
    3.4833   -7.8375    0.0000 C   0  0  0  0  0  0  0  0  0  0  0  0
   -0.3833   -9.9667    0.0000 C   0  0  0  0  0  0  0  0  0  0  0  0
    3.4833   -8.5417    0.0000 O   0  0  0  0  0  0  0  0  0  0  0  0
    1.0292   -8.5417    0.0000 C   0  0  0  0  0  0  0  0  0  0  0  0
    1.6417   -7.4792    0.0000 C   0  0  0  0  0  0  0  0  0  0  0  0
    0.6792   -9.3542    0.0000 O   0  0  0  0  0  0  0  0  0  0  0  0
    1.0292   -7.8375    0.0000 C   0  0  0  0  0  0  0  0  0  0  0  0
    4.0958   -8.9000    0.0000 C   0  0  0  0  0  0  0  0  0  0  0  0
   -0.0292   -9.3542    0.0000 C   0  0  0  0  0  0  0  0  0  0  0  0
    4.7083   -8.5417    0.0000 C   0  0  0  0  0  0  0  0  0  0  0  0
    4.0958   -7.4792    0.0000 C   0  0  0  0  0  0  0  0  0  0  0  0
    4.7083   -7.8375    0.0000 C   0  0  0  0  0  0  0  0  0  0  0  0
   -0.3792  -11.1917    0.0000 N   0  0  0  0  0  0  0  0  0  0  0  0
    1.0333  -11.1917    0.0000 O   0  0  0  0  0  0  0  0  0  0  0  0
    2.8708   -8.8958    0.0000 O   0  0  0  0  0  0  0  0  0  0  0  0
    0.4167   -8.8958    0.0000 N   0  0  0  0  0  0  0  0  0  0  0  0
    1.6417   -6.7750    0.0000 N   0  0  0  0  0  0  0  0  0  0  0  0
   -1.0042  -10.3167    0.0000 O   0  0  0  0  0  0  0  0  0  0  0  0
    4.0958   -6.7750    0.0000 N   0  0  0  0  0  0  0  0  0  0  0  0
    3.4792   -9.9625    0.0000 N   0  0  0  0  0  0  0  0  0  0  0  0
   -1.0042   -9.6125    0.0000 C   0  0  0  0  0  0  0  0  0  0  0  0
    4.0958   -9.6042    0.0000 C   0  0  0  0  0  0  0  0  0  0  0  0
   -0.1958   -8.5417    0.0000 C   0  0  0  0  0  0  0  0  0  0  0  0
   -1.0875  -11.1917    0.0000 C   0  0  0  0  0  0  0  0  0  0  0  0
   -0.8083   -8.8958    0.0000 C   0  0  0  0  0  0  0  0  0  0  0  0
  2  3  1  0
  3  1  1  0
  4  5  1  0
  5  7  1  6
  6  4  1  0
  1  7  1  1
  2  8  1  1
  9  8  1  6
 10 17  1  0
 11  9  1  0
 12  1  1  0
 13  2  1  0
 14  5  1  0
 15 12  1  0
 16 11  1  0
 17 14  1  0
 18 16  2  0
 19  9  1  0
 20 19  1  0
  6 21  1  1
  4 22  1  6
  3 23  1  6
 12 24  1  6
 13 25  1  6
 10 26  1  1
 19 27  1  6
 28 30  1  0
 29 10  1  0
 30 16  1  0
 31 24  1  0
 32 21  1  0
 33 31  1  0
 13 15  1  0
 10  6  1  0
 20 18  1  0
M  END
> <chembl_id>
CHEMBL1572

> <chembl_pref_name>
NETILMICIN
