
     RDKit          2D

 19 21  0  0  0  0  0  0  0  0999 V2000
    6.8134   -1.0577    0.0000 C   0  0  0  0  0  0  0  0  0  0  0  0
    6.8134   -1.8827    0.0000 C   0  0  0  0  0  0  0  0  0  0  0  0
    7.5279   -2.2952    0.0000 O   0  0  0  0  0  0  0  0  0  0  0  0
    5.3844   -1.8827    0.0000 C   0  0  0  0  0  0  0  0  0  0  0  0
    4.5998   -2.1376    0.0000 S   0  0  0  0  0  0  0  0  0  0  0  0
    5.3844   -1.0577    0.0000 C   0  0  0  0  0  0  0  0  0  0  0  0
    4.5998   -0.8027    0.0000 N   0  0  0  0  0  0  0  0  0  0  0  0
    6.0989   -0.6452    0.0000 C   0  0  0  0  0  0  0  0  0  0  0  0
    6.0989   -2.2952    0.0000 C   0  0  0  0  0  0  0  0  0  0  0  0
    4.1149   -1.4702    0.0000 C   0  0  0  0  0  0  0  0  0  0  0  0
    3.2899   -1.4702    0.0000 C   0  0  0  0  0  0  0  0  0  0  0  0
    2.8774   -0.7557    0.0000 C   0  0  0  0  0  0  0  0  0  0  0  0
    2.0524   -0.7557    0.0000 C   0  0  0  0  0  0  0  0  0  0  0  0
    1.6399   -1.4702    0.0000 C   0  0  0  0  0  0  0  0  0  0  0  0
    0.8149   -1.4702    0.0000 N   0  0  0  0  0  0  0  0  0  0  0  0
    2.0524   -2.1846    0.0000 C   0  0  0  0  0  0  0  0  0  0  0  0
    2.8774   -2.1846    0.0000 C   0  0  0  0  0  0  0  0  0  0  0  0
    0.4024   -2.1846    0.0000 C   0  0  0  0  0  0  0  0  0  0  0  0
    1.6399   -0.0412    0.0000 F   0  0  0  0  0  0  0  0  0  0  0  0
  1  2  2  0
  1  8  1  0
  2  3  1  0
  2  9  1  0
  4  5  1  0
  6  7  1  0
  6  4  1  0
  7 10  2  0
  8  6  2  0
  9  4  2  0
 10 11  1  0
 10  5  1  0
 11 17  2  0
 12 11  1  0
 12 13  2  0
 14 13  1  0
 14 15  1  0
 16 14  2  0
 17 16  1  0
 18 15  1  0
 13 19  1  0
M  ISO  1  19  18
M  END
> <chembl_id>
CHEMBL2042122

> <chembl_pref_name>
FLUTEMETAMOL F 18
