
     RDKit          2D

 46 49  0  0  1  0  0  0  0  0999 V2000
    8.3500   -4.9000    0.0000 N   0  0  0  0  0  0  0  0  0  0  0  0
    7.1417   -4.9000    0.0000 C   0  0  0  0  0  0  0  0  0  0  0  0
    8.9542   -5.2625    0.0000 C   0  0  0  0  0  0  0  0  0  0  0  0
    7.7375   -5.2625    0.0000 C   0  0  0  0  0  0  0  0  0  0  0  0
    6.5292   -5.2625    0.0000 N   0  0  0  0  0  0  0  0  0  0  0  0
    3.4417   -4.9000    0.0000 N   0  0  0  0  0  0  0  0  0  0  0  0
    0.9542   -4.9000    0.0000 C   0  0  0  0  0  0  0  0  0  0  0  0
    4.0542   -5.2625    0.0000 C   0  0  0  0  0  0  0  0  0  0  0  0
    1.5917   -5.2625    0.0000 O   0  0  0  0  0  0  0  0  0  0  0  0
    9.5542   -4.9000    0.0000 N   0  0  0  0  0  0  0  0  0  0  0  0
    2.8292   -5.2625    0.0000 C   0  0  0  0  0  0  0  0  0  0  0  0
    5.9042   -4.9000    0.0000 C   0  0  0  0  0  0  0  0  0  0  0  0
    5.2917   -5.2625    0.0000 C   0  0  0  0  0  0  0  0  0  0  0  0
    4.6750   -4.9000    0.0000 C   0  0  0  0  0  0  0  0  0  0  0  0
    7.1417   -4.2042    0.0000 O   0  0  0  0  0  0  0  0  0  0  0  0
    8.9542   -5.9750    0.0000 O   0  0  0  0  0  0  0  0  0  0  0  0
    4.0542   -5.9750    0.0000 C   0  0  0  0  0  0  0  0  0  0  0  0
    0.9542   -4.1875    0.0000 C   0  0  0  0  0  0  0  0  0  0  0  0
    0.3417   -5.2792    0.0000 C   0  0  0  0  0  0  0  0  0  0  0  0
    2.8292   -5.9750    0.0000 O   0  0  0  0  0  0  0  0  0  0  0  0
    2.2167   -4.9000    0.0000 C   0  0  0  0  0  0  0  0  0  0  0  0
    7.7375   -5.9750    0.0000 C   0  0  0  0  0  0  0  0  0  0  0  0
    5.9042   -4.1792    0.0000 C   0  0  0  0  0  0  0  0  0  0  0  0
    8.3500   -4.2042    0.0000 C   0  0  0  0  0  0  0  0  0  0  0  0
    4.6750   -6.3042    0.0000 C   0  0  0  0  0  0  0  0  0  0  0  0
    4.6750   -4.2042    0.0000 O   0  0  0  0  0  0  0  0  0  0  0  0
    6.2417   -3.5917    0.0000 C   0  0  0  0  0  0  0  0  0  0  0  0
    8.9542   -3.8292    0.0000 C   0  0  0  0  0  0  0  0  0  0  0  0
    9.5542   -4.1875    0.0000 C   0  0  0  0  0  0  0  0  0  0  0  0
   -0.2958   -4.1875    0.0000 C   0  0  0  0  0  0  0  0  0  0  0  0
   -0.2958   -4.9000    0.0000 C   0  0  0  0  0  0  0  0  0  0  0  0
    0.3417   -3.8125    0.0000 C   0  0  0  0  0  0  0  0  0  0  0  0
    0.3417   -5.9875    0.0000 C   0  0  0  0  0  0  0  0  0  0  0  0
    1.5917   -3.8292    0.0000 C   0  0  0  0  0  0  0  0  0  0  0  0
    8.3125   -6.3250    0.0000 C   0  0  0  0  0  0  0  0  0  0  0  0
    7.1125   -6.3042    0.0000 C   0  0  0  0  0  0  0  0  0  0  0  0
    4.6750   -7.0042    0.0000 C   0  0  0  0  0  0  0  0  0  0  0  0
    5.2917   -5.9542    0.0000 C   0  0  0  0  0  0  0  0  0  0  0  0
    6.9625   -3.6042    0.0000 C   0  0  0  0  0  0  0  0  0  0  0  0
    5.9042   -3.0042    0.0000 C   0  0  0  0  0  0  0  0  0  0  0  0
    7.3042   -3.0000    0.0000 C   0  0  0  0  0  0  0  0  0  0  0  0
    5.9042   -6.3042    0.0000 C   0  0  0  0  0  0  0  0  0  0  0  0
    5.2917   -7.3750    0.0000 C   0  0  0  0  0  0  0  0  0  0  0  0
    6.2542   -2.3792    0.0000 C   0  0  0  0  0  0  0  0  0  0  0  0
    6.9542   -2.3917    0.0000 C   0  0  0  0  0  0  0  0  0  0  0  0
    5.9042   -7.0042    0.0000 C   0  0  0  0  0  0  0  0  0  0  0  0
  2  4  1  0
  3  1  1  0
  4  1  1  0
  5  2  1  0
  6  8  1  0
  7  9  1  0
  8 14  1  0
  9 21  1  0
 10  3  1  0
 11  6  1  0
 12  5  1  0
 13 12  1  0
 14 13  1  0
 15  2  2  0
 16  3  2  0
  8 17  1  6
 18  7  2  0
 19  7  1  0
 20 11  2  0
 21 11  1  0
  4 22  1  1
 12 23  1  6
 24  1  1  0
 25 17  1  0
 14 26  1  1
 27 23  1  0
 28 24  1  0
 29 28  1  0
 30 31  1  0
 31 19  2  0
 32 18  1  0
 33 19  1  0
 34 18  1  0
 35 22  1  0
 36 22  1  0
 37 25  1  0
 38 25  2  0
 39 27  2  0
 40 27  1  0
 41 39  1  0
 42 38  1  0
 43 37  2  0
 44 40  2  0
 45 44  1  0
 46 42  2  0
 29 10  1  0
 45 41  2  0
 46 43  1  0
 30 32  2  0
M  END
> <chembl_id>
CHEMBL729

> <chembl_pref_name>
LOPINAVIR
