
     RDKit          2D

 12 12  0  0  1  0  0  0  0  0999 V2000
   -0.6083   -0.2375    0.0000 C   0  0  0  0  0  0  0  0  0  0  0  0
    0.0042    0.1125    0.0000 C   0  0  0  0  0  0  0  0  0  0  0  0
   -1.2083    0.1208    0.0000 C   0  0  0  0  0  0  0  0  0  0  0  0
    0.6292   -0.2500    0.0000 C   0  0  0  0  0  0  0  0  0  0  0  0
   -1.8333   -0.2292    0.0000 C   0  0  0  0  0  0  0  0  0  0  0  0
    0.6042   -0.9542    0.0000 N   0  0  0  0  0  0  0  0  0  0  0  0
    0.0125    0.8208    0.0000 O   0  0  0  0  0  0  0  0  0  0  0  0
   -2.4375    0.1333    0.0000 O   0  0  0  0  0  0  0  0  0  0  0  0
   -0.6083   -0.9417    0.0000 C   0  0  0  0  0  0  0  0  0  0  0  0
   -1.2250   -1.3000    0.0000 C   0  0  0  0  0  0  0  0  0  0  0  0
   -1.8333   -0.9375    0.0000 C   0  0  0  0  0  0  0  0  0  0  0  0
    1.2375    0.1083    0.0000 C   0  0  0  0  0  0  0  0  0  0  0  0
  2  1  1  0
  3  1  1  0
  4  2  1  0
  5  3  2  0
  4  6  1  6
  2  7  1  1
  8  5  1  0
  9  1  2  0
 10  9  1  0
 11 10  2  0
 12  4  1  0
 11  5  1  0
M  END
> <chembl_id>
CHEMBL1201319

> <chembl_pref_name>
METARAMINOL
