
     RDKit          2D

 23 24  0  0  0  0  0  0  0  0999 V2000
    4.7542   -5.7708    0.0000 C   0  0  0  0  0  0  0  0  0  0  0  0
    4.7500   -5.0625    0.0000 C   0  0  0  0  0  0  0  0  0  0  0  0
    4.1375   -6.1292    0.0000 C   0  0  0  0  0  0  0  0  0  0  0  0
    3.5250   -5.7750    0.0000 C   0  0  0  0  0  0  0  0  0  0  0  0
    3.5250   -5.0625    0.0000 C   0  0  0  0  0  0  0  0  0  0  0  0
    4.1375   -4.7083    0.0000 C   0  0  0  0  0  0  0  0  0  0  0  0
    5.4292   -5.9875    0.0000 C   0  0  0  0  0  0  0  0  0  0  0  0
    5.8458   -5.4083    0.0000 O   0  0  0  0  0  0  0  0  0  0  0  0
    5.4250   -4.8375    0.0000 C   0  0  0  0  0  0  0  0  0  0  0  0
    2.9125   -6.1292    0.0000 C   0  0  0  0  0  0  0  0  0  0  0  0
    2.2958   -5.7750    0.0000 C   0  0  0  0  0  0  0  0  0  0  0  0
   -0.1542   -5.7750    0.0000 C   0  0  0  0  0  0  0  0  0  0  0  0
    5.6542   -6.6583    0.0000 O   0  0  0  0  0  0  0  0  0  0  0  0
    1.6833   -6.1292    0.0000 C   0  0  0  0  0  0  0  0  0  0  0  0
   -0.1542   -5.0667    0.0000 O   0  0  0  0  0  0  0  0  0  0  0  0
    4.1417   -6.8375    0.0000 O   0  0  0  0  0  0  0  0  0  0  0  0
    2.9125   -4.7083    0.0000 O   0  0  0  0  0  0  0  0  0  0  0  0
    0.4583   -6.1292    0.0000 C   0  0  0  0  0  0  0  0  0  0  0  0
    1.0708   -5.7750    0.0000 C   0  0  0  0  0  0  0  0  0  0  0  0
   -0.7708   -6.1250    0.0000 O   0  0  0  0  0  0  0  0  0  0  0  0
    4.1375   -4.0000    0.0000 C   0  0  0  0  0  0  0  0  0  0  0  0
    1.6833   -6.8375    0.0000 C   0  0  0  0  0  0  0  0  0  0  0  0
    2.3000   -5.0625    0.0000 C   0  0  0  0  0  0  0  0  0  0  0  0
  2  1  1  0
  3  1  2  0
  4  3  1  0
  5  6  1  0
  6  2  2  0
  7  1  1  0
  8  7  1  0
  9  2  1  0
 10  4  1  0
 11 10  1  0
 12 18  1  0
 13  7  2  0
 14 11  2  0
 15 12  2  0
 16  3  1  0
 17  5  1  0
 18 19  1  0
 19 14  1  0
 20 12  1  0
 21  6  1  0
 22 14  1  0
 23 17  1  0
  9  8  1  0
  4  5  2  0
M  END
> <chembl_id>
CHEMBL866

> <chembl_pref_name>
MYCOPHENOLIC ACID
