
     RDKit          2D

 22 22  0  0  0  0  0  0  0  0999 V2000
    4.1417   -3.6625    0.0000 C   0  0  0  0  0  0  0  0  0  0  0  0
    3.5375   -4.0250    0.0000 C   0  0  0  0  0  0  0  0  0  0  0  0
    3.5375   -4.7417    0.0000 C   0  0  0  0  0  0  0  0  0  0  0  0
    2.9292   -5.1042    0.0000 C   0  0  0  0  0  0  0  0  0  0  0  0
    2.3042   -4.7417    0.0000 C   0  0  0  0  0  0  0  0  0  0  0  0
    4.1292   -2.9625    0.0000 O   0  0  0  0  0  0  0  0  0  0  0  0
    2.9167   -3.6750    0.0000 C   0  0  0  0  0  0  0  0  0  0  0  0
    2.3042   -4.0375    0.0000 C   0  0  0  0  0  0  0  0  0  0  0  0
    4.7542   -4.0167    0.0000 O   0  0  0  0  0  0  0  0  0  0  0  0
    1.6917   -5.1125    0.0000 N   0  0  0  0  0  0  0  0  0  0  0  0
    6.5917   -3.6417    0.0000 N   0  0  0  0  0  0  0  0  0  0  0  0
    2.9375   -5.8042    0.0000 O   0  0  0  0  0  0  0  0  0  0  0  0
    5.3667   -3.6625    0.0000 C   0  0  0  0  0  0  0  0  0  0  0  0
    5.9792   -4.0042    0.0000 C   0  0  0  0  0  0  0  0  0  0  0  0
    7.2167   -3.9792    0.0000 C   0  0  0  0  0  0  0  0  0  0  0  0
    6.6000   -2.9292    0.0000 C   0  0  0  0  0  0  0  0  0  0  0  0
    3.5500   -6.1542    0.0000 C   0  0  0  0  0  0  0  0  0  0  0  0
    4.1625   -5.8042    0.0000 C   0  0  0  0  0  0  0  0  0  0  0  0
    4.7667   -6.1542    0.0000 C   0  0  0  0  0  0  0  0  0  0  0  0
    7.8292   -3.6250    0.0000 C   0  0  0  0  0  0  0  0  0  0  0  0
    7.2000   -2.5750    0.0000 C   0  0  0  0  0  0  0  0  0  0  0  0
    5.3917   -5.8167    0.0000 C   0  0  0  0  0  0  0  0  0  0  0  0
  2  1  1  0
  3  2  1  0
  4  3  2  0
  5  8  2  0
  6  1  2  0
  7  2  2  0
  8  7  1  0
  9  1  1  0
 10  5  1  0
 11 14  1  0
 12  4  1  0
 13  9  1  0
 14 13  1  0
 15 11  1  0
 16 11  1  0
 17 12  1  0
 18 17  1  0
 19 18  1  0
 20 15  1  0
 21 16  1  0
 22 19  1  0
  5  4  1  0
M  END
> <chembl_id>
CHEMBL1200

> <chembl_pref_name>
BENOXINATE
