
     RDKit          2D

 46 53  0  0  1  0  0  0  0  0999 V2000
    8.1792   -7.9042    0.0000 C   0  0  0  0  0  0  0  0  0  0  0  0
    7.9667   -8.5625    0.0000 N   0  0  0  0  0  0  0  0  0  0  0  0
    7.6000   -7.4750    0.0000 O   0  0  0  0  0  0  0  0  0  0  0  0
    7.0250   -7.9000    0.0000 C   0  0  0  0  0  0  0  0  0  0  0  0
    7.2542   -8.5625    0.0000 C   0  0  0  0  0  0  0  0  0  0  0  0
    9.1125   -8.9375    0.0000 C   0  0  0  0  0  0  0  0  0  0  0  0
    8.4292   -9.0750    0.0000 C   0  0  0  0  0  0  0  0  0  0  0  0
    9.3250   -8.2750    0.0000 N   0  0  0  0  0  0  0  0  0  0  0  0
    5.1875   -9.7000    0.0000 C   0  0  0  0  0  0  0  0  0  0  0  0
    5.1875  -11.1250    0.0000 C   0  0  0  0  0  0  0  0  0  0  0  0
    8.8625   -7.7625    0.0000 C   0  0  0  0  0  0  0  0  0  0  0  0
    5.8042  -10.0542    0.0000 C   0  0  0  0  0  0  0  0  0  0  0  0
    4.5750  -10.0625    0.0000 C   0  0  0  0  0  0  0  0  0  0  0  0
    6.4167   -7.5750    0.0000 N   0  0  0  0  0  0  0  0  0  0  0  0
    6.4167   -9.7000    0.0000 N   0  0  0  0  0  0  0  0  0  0  0  0
    5.8042   -8.6375    0.0000 C   0  0  0  0  0  0  0  0  0  0  0  0
    4.5750  -10.7625    0.0000 C   0  0  0  0  0  0  0  0  0  0  0  0
    5.8042   -7.9292    0.0000 C   0  0  0  0  0  0  0  0  0  0  0  0
    5.8042  -10.7625    0.0000 C   0  0  0  0  0  0  0  0  0  0  0  0
    5.1875   -8.9917    0.0000 C   0  0  0  0  0  0  0  0  0  0  0  0
    4.8917  -11.8375    0.0000 C   0  0  0  0  0  0  0  0  0  0  0  0
    4.1875  -11.8375    0.0000 N   0  0  0  0  0  0  0  0  0  0  0  0
    6.4167   -8.9917    0.0000 C   0  0  0  0  0  0  0  0  0  0  0  0
    3.9542  -11.1250    0.0000 C   0  0  0  0  0  0  0  0  0  0  0  0
    8.0750   -9.7000    0.0000 C   0  0  0  0  0  0  0  0  0  0  0  0
    9.5875   -9.4625    0.0000 O   0  0  0  0  0  0  0  0  0  0  0  0
    8.3625   -7.2167    0.0000 O   0  0  0  0  0  0  0  0  0  0  0  0
    6.8417   -9.1375    0.0000 O   0  0  0  0  0  0  0  0  0  0  0  0
    5.1875   -7.5750    0.0000 O   0  0  0  0  0  0  0  0  0  0  0  0
    9.9500   -7.9917    0.0000 C   0  0  0  0  0  0  0  0  0  0  0  0
    7.0250   -7.1000    0.0000 C   0  0  0  0  0  0  0  0  0  0  0  0
    3.9542   -9.7000    0.0000 C   0  0  0  0  0  0  0  0  0  0  0  0
    7.0292  -10.0542    0.0000 C   0  0  0  0  0  0  0  0  0  0  0  0
    8.4250  -10.3125    0.0000 C   0  0  0  0  0  0  0  0  0  0  0  0
    9.2000   -7.1625    0.0000 C   0  0  0  0  0  0  0  0  0  0  0  0
    9.8792   -7.3042    0.0000 C   0  0  0  0  0  0  0  0  0  0  0  0
    3.3417  -10.0625    0.0000 C   0  0  0  0  0  0  0  0  0  0  0  0
    3.3417  -10.7625    0.0000 C   0  0  0  0  0  0  0  0  0  0  0  0
    8.0750  -10.9250    0.0000 C   0  0  0  0  0  0  0  0  0  0  0  0
    9.1375  -10.3125    0.0000 C   0  0  0  0  0  0  0  0  0  0  0  0
    9.4875  -10.9250    0.0000 C   0  0  0  0  0  0  0  0  0  0  0  0
    8.4250  -11.5375    0.0000 C   0  0  0  0  0  0  0  0  0  0  0  0
    9.1375  -11.5375    0.0000 C   0  0  0  0  0  0  0  0  0  0  0  0
    8.6750   -8.4417    0.0000 H   0  0  0  0  0  0  0  0  0  0  0  0
    6.4167  -10.4125    0.0000 H   0  0  0  0  0  0  0  0  0  0  0  0
    4.5667   -9.3500    0.0000 H   0  0  0  0  0  0  0  0  0  0  0  0
  2  1  1  0
  3  1  1  0
  4  3  1  0
  5  2  1  0
  6  8  1  0
  7  2  1  0
  8 11  1  0
  9 20  1  0
 10 19  1  0
 11  1  1  0
 12 15  1  0
 13  9  1  0
 14  4  1  0
 15 23  1  0
 16 18  1  1
 17 13  2  0
 18 14  1  0
 19 12  1  0
 20 16  1  0
 21 10  2  0
 22 24  1  0
 23 16  1  0
 24 17  1  0
  7 25  1  6
 26  6  2  0
  1 27  1  6
 28  5  2  0
 29 18  2  0
 30  8  1  0
  4 31  1  1
 32 13  1  0
 33 15  1  0
 34 25  1  0
 35 11  1  0
 36 35  1  0
 37 32  2  0
 38 37  1  0
 39 34  1  0
 40 34  2  0
 41 40  1  0
 42 39  2  0
 43 41  2  0
 11 44  1  1
 12 45  1  1
  9 46  1  6
  6  7  1  0
  5  4  1  0
 36 30  1  0
 43 42  1  0
 12  9  1  0
 10 17  1  0
 38 24  2  0
 21 22  1  0
M  END
> <chembl_id>
CHEMBL1732

> <chembl_pref_name>
DIHYDROERGOTAMINE
