
     RDKit          2D

 31 34  0  0  0  0  0  0  0  0999 V2000
    2.2643    2.1428    0.0000 O   0  0  0  0  0  0  0  0  0  0  0  0
    1.5385    1.7505    0.0000 C   0  0  0  0  0  0  0  0  0  0  0  0
    1.5154    0.9258    0.0000 O   0  0  0  0  0  0  0  0  0  0  0  0
    2.9669    1.7105    0.0000 C   0  0  0  0  0  0  0  0  0  0  0  0
    0.8359    2.1829    0.0000 N   0  0  0  0  0  0  0  0  0  0  0  0
    0.1101    1.7905    0.0000 C   0  0  0  0  0  0  0  0  0  0  0  0
    0.0870    0.9658    0.0000 C   0  0  0  0  0  0  0  0  0  0  0  0
    0.7897    0.5335    0.0000 N   0  0  0  0  0  0  0  0  0  0  0  0
   -0.5925    2.2229    0.0000 C   0  0  0  0  0  0  0  0  0  0  0  0
   -1.3182    1.8305    0.0000 N   0  0  0  0  0  0  0  0  0  0  0  0
   -1.3413    1.0058    0.0000 C   0  0  0  0  0  0  0  0  0  0  0  0
   -0.6387    0.5735    0.0000 N   0  0  0  0  0  0  0  0  0  0  0  0
   -0.5694    3.0476    0.0000 N   0  0  0  0  0  0  0  0  0  0  0  0
   -2.8095    0.9289    0.0000 N   0  0  0  0  0  0  0  0  0  0  0  0
   -3.3615    0.3158    0.0000 N   0  0  0  0  0  0  0  0  0  0  0  0
   -2.9490   -0.3986    0.0000 C   0  0  0  0  0  0  0  0  0  0  0  0
   -2.1420   -0.2271    0.0000 C   0  0  0  0  0  0  0  0  0  0  0  0
   -2.0558    0.5933    0.0000 C   0  0  0  0  0  0  0  0  0  0  0  0
   -3.2040   -1.1833    0.0000 N   0  0  0  0  0  0  0  0  0  0  0  0
   -2.6520   -1.7964    0.0000 C   0  0  0  0  0  0  0  0  0  0  0  0
   -1.8450   -1.6248    0.0000 C   0  0  0  0  0  0  0  0  0  0  0  0
   -1.5900   -0.8402    0.0000 C   0  0  0  0  0  0  0  0  0  0  0  0
   -4.1685    0.4873    0.0000 C   0  0  0  0  0  0  0  0  0  0  0  0
   -4.4235    1.2719    0.0000 C   0  0  0  0  0  0  0  0  0  0  0  0
   -3.8714    1.8850    0.0000 C   0  0  0  0  0  0  0  0  0  0  0  0
   -5.2305    1.4434    0.0000 C   0  0  0  0  0  0  0  0  0  0  0  0
   -5.4854    2.2280    0.0000 C   0  0  0  0  0  0  0  0  0  0  0  0
   -4.9334    2.8411    0.0000 C   0  0  0  0  0  0  0  0  0  0  0  0
   -4.1264    2.6696    0.0000 C   0  0  0  0  0  0  0  0  0  0  0  0
   -5.7497    0.8023    0.0000 F   0  0  0  0  0  0  0  0  0  0  0  0
   -1.3258   -2.2660    0.0000 F   0  0  0  0  0  0  0  0  0  0  0  0
  1  2  1  0
  2  3  2  0
  1  4  1  0
  5  6  1  0
  6  7  2  0
  7  8  1  0
  5  2  1  0
  9 10  2  0
 10 11  1  0
 11 12  2  0
  9  6  1  0
 12  7  1  0
 13  9  1  0
 14 15  1  0
 15 16  1  0
 16 17  2  0
 17 18  1  0
 14 18  2  0
 19 20  2  0
 20 21  1  0
 21 22  2  0
 16 19  1  0
 17 22  1  0
 23 24  1  0
 24 25  1  0
 15 23  1  0
 26 27  1  0
 27 28  2  0
 28 29  1  0
 24 26  2  0
 25 29  2  0
 26 30  1  0
 18 11  1  0
 21 31  1  0
M  END
> <chembl_id>
CHEMBL4066936

> <chembl_pref_name>
VERICIGUAT
