
     RDKit          2D

 31 33  0  0  0  0  0  0  0  0999 V2000
    4.0583   -4.1792    0.0000 C   0  0  0  0  0  0  0  0  0  0  0  0
    4.7708   -4.9042    0.0000 N   0  0  0  0  0  0  0  0  0  0  0  0
    4.0583   -4.9042    0.0000 C   0  0  0  0  0  0  0  0  0  0  0  0
    4.7833   -4.1708    0.0000 C   0  0  0  0  0  0  0  0  0  0  0  0
    7.8458   -5.2833    0.0000 C   0  0  0  0  0  0  0  0  0  0  0  0
    5.3958   -5.2583    0.0000 C   0  0  0  0  0  0  0  0  0  0  0  0
    8.0833   -5.9833    0.0000 N   0  0  0  0  0  0  0  0  0  0  0  0
    8.4208   -4.8792    0.0000 N   0  0  0  0  0  0  0  0  0  0  0  0
    9.0167   -5.2958    0.0000 N   0  0  0  0  0  0  0  0  0  0  0  0
    8.7958   -5.9833    0.0000 N   0  0  0  0  0  0  0  0  0  0  0  0
    5.3958   -3.8208    0.0000 S   0  0  0  0  0  0  0  0  0  0  0  0
    6.0167   -4.9042    0.0000 C   0  0  0  0  0  0  0  0  0  0  0  0
    3.4458   -3.8333    0.0000 N   0  0  0  0  0  0  0  0  0  0  0  0
    5.3958   -5.9583    0.0000 C   0  0  0  0  0  0  0  0  0  0  0  0
    7.2458   -4.9208    0.0000 S   0  0  0  0  0  0  0  0  0  0  0  0
   -0.1667   -4.6792    0.0000 N   0  0  0  0  0  0  0  0  0  0  0  0
    6.0167   -4.1792    0.0000 C   0  0  0  0  0  0  0  0  0  0  0  0
    2.8292   -4.1958    0.0000 C   0  0  0  0  0  0  0  0  0  0  0  0
    3.5667   -5.3958    0.0000 O   0  0  0  0  0  0  0  0  0  0  0  0
    6.6167   -5.2667    0.0000 C   0  0  0  0  0  0  0  0  0  0  0  0
    0.4208   -4.2917    0.0000 C   0  0  0  0  0  0  0  0  0  0  0  0
    4.0458   -3.4708    0.0000 O   0  0  0  0  0  0  0  0  0  0  0  0
    5.9958   -6.2792    0.0000 O   0  0  0  0  0  0  0  0  0  0  0  0
    4.7958   -6.3583    0.0000 O   0  0  0  0  0  0  0  0  0  0  0  0
    2.8667   -4.8958    0.0000 O   0  0  0  0  0  0  0  0  0  0  0  0
    7.6792   -6.5583    0.0000 C   0  0  0  0  0  0  0  0  0  0  0  0
    1.6292   -4.2333    0.0000 S   0  0  0  0  0  0  0  0  0  0  0  0
    0.9958   -3.9083    0.0000 C   0  0  0  0  0  0  0  0  0  0  0  0
    2.2167   -3.8583    0.0000 C   0  0  0  0  0  0  0  0  0  0  0  0
    3.4167   -3.1333    0.0000 C   0  0  0  0  0  0  0  0  0  0  0  0
    4.7833   -3.4667    0.0000 H   0  0  0  0  0  0  0  0  0  0  0  0
  2  4  1  0
  3  1  1  0
  4  1  1  0
  5 15  1  0
  6  2  1  0
  7  5  1  0
  8  5  2  0
  9  8  1  0
 10  7  1  0
 11  4  1  0
 12 17  1  0
 13  1  1  0
 14  6  1  0
 15 20  1  0
 16 21  3  0
 17 11  1  0
 18 13  1  0
 19  3  2  0
 20 12  1  0
 21 28  1  0
  1 22  1  6
 23 14  1  0
 24 14  2  0
 25 18  2  0
 26  7  1  0
 27 29  1  0
 28 27  1  0
 29 18  1  0
 30 22  1  0
  4 31  1  6
  2  3  1  0
  6 12  2  0
  9 10  2  0
M  END
> <chembl_id>
CHEMBL1201195

> <chembl_pref_name>
CEFMETAZOLE
