
     RDKit          2D

 27 27  0  0  0  0  0  0  0  0999 V2000
    1.7679   -9.3402    0.0000 S   0  0  0  0  0  0  0  0  0  0  0  0
    2.5929   -9.3402    0.0000 O   0  0  0  0  0  0  0  0  0  0  0  0
    1.7679   -8.5152    0.0000 O   0  0  0  0  0  0  0  0  0  0  0  0
    0.9429   -9.3402    0.0000 O   0  0  0  0  0  0  0  0  0  0  0  0
    1.7679  -10.1652    0.0000 C   0  0  0  0  0  0  0  0  0  0  0  0
    1.5616   -5.2741    0.0000 C   0  0  0  0  0  0  0  0  0  0  0  0
    0.8471   -5.6866    0.0000 C   0  0  0  0  0  0  0  0  0  0  0  0
    0.8471   -6.5116    0.0000 C   0  0  0  0  0  0  0  0  0  0  0  0
    1.5616   -6.9241    0.0000 C   0  0  0  0  0  0  0  0  0  0  0  0
    2.2761   -6.5116    0.0000 C   0  0  0  0  0  0  0  0  0  0  0  0
    2.2761   -5.6866    0.0000 C   0  0  0  0  0  0  0  0  0  0  0  0
    0.1327   -6.9241    0.0000 F   0  0  0  0  0  0  0  0  0  0  0  0
    2.9905   -6.9241    0.0000 C   0  0  0  0  0  0  0  0  0  0  0  0
    3.7050   -6.5116    0.0000 O   0  0  0  0  0  0  0  0  0  0  0  0
    4.4195   -6.9241    0.0000 C   0  0  0  0  0  0  0  0  0  0  0  0
    5.1340   -6.5116    0.0000 C   0  0  0  0  0  0  0  0  0  0  0  0
    4.4195   -7.7491    0.0000 C   0  0  0  0  0  0  0  0  0  0  0  0
    5.1340   -8.1616    0.0000 C   0  0  0  0  0  0  0  0  0  0  0  0
    5.8484   -7.7491    0.0000 C   0  0  0  0  0  0  0  0  0  0  0  0
    5.8484   -6.9241    0.0000 C   0  0  0  0  0  0  0  0  0  0  0  0
    6.5629   -8.1616    0.0000 C   0  0  0  0  0  0  0  0  0  0  0  0
    7.2774   -7.7491    0.0000 N   0  0  0  0  0  0  0  0  0  0  0  0
    7.9918   -8.1616    0.0000 C   0  0  0  0  0  0  0  0  0  0  0  0
    8.7063   -7.7491    0.0000 C   0  0  0  0  0  0  0  0  0  0  0  0
    7.9918   -8.9866    0.0000 C   0  0  0  0  0  0  0  0  0  0  0  0
    9.4208   -8.1616    0.0000 N   0  0  0  0  0  0  0  0  0  0  0  0
    8.7063   -6.9241    0.0000 O   0  0  0  0  0  0  0  0  0  0  0  0
  1  2  2  0
  1  3  1  0
  1  4  2  0
  1  5  1  0
  6  7  2  0
  7  8  1  0
  8  9  2  0
  9 10  1  0
 10 11  2  0
  6 11  1  0
  8 12  1  0
 10 13  1  0
 13 14  1  0
 14 15  1  0
 16 15  2  0
 15 17  1  0
 17 18  2  0
 18 19  1  0
 19 20  2  0
 16 20  1  0
 19 21  1  0
 21 22  1  0
 22 23  1  0
 23 24  1  0
 23 25  1  6
 24 26  1  0
 24 27  2  0
M  END
> <chembl_id>
CHEMBL48582

> <chembl_pref_name>
SAFINAMIDE MESYLATE
