
     RDKit          2D

 37 36  0  0  0  0  0  0  0  0999 V2000
   10.6951   -0.1941    0.0000 C   0  0  0  0  0  0  0  0  0  0  0  0
    9.2661   -0.1941    0.0000 C   0  0  0  0  0  0  0  0  0  0  0  0
    5.6938    0.2184    0.0000 C   0  0  0  0  0  0  0  0  0  0  0  0
    8.5517    0.2184    0.0000 C   0  0  0  0  0  0  0  0  0  0  0  0
    6.4083   -0.1941    0.0000 C   0  0  0  0  0  0  0  0  0  0  0  0
    7.8372   -0.1941    0.0000 C   0  0  0  0  0  0  0  0  0  0  0  0
    7.1227    0.2184    0.0000 C   0  0  0  0  0  0  0  0  0  0  0  0
    9.9806    0.2184    0.0000 N   0  0  0  0  0  0  0  0  0  0  0  0
    4.9793   -0.1941    0.0000 O   0  0  0  0  0  0  0  0  0  0  0  0
    8.5517    1.0434    0.0000 O   0  0  0  0  0  0  0  0  0  0  0  0
    6.4083   -1.0191    0.0000 O   0  0  0  0  0  0  0  0  0  0  0  0
    7.8372   -1.0191    0.0000 O   0  0  0  0  0  0  0  0  0  0  0  0
    7.1227    1.0434    0.0000 O   0  0  0  0  0  0  0  0  0  0  0  0
    8.5517   -0.6066    0.0000 H   0  0  0  0  0  0  0  0  0  0  0  0
    6.4083    0.6309    0.0000 H   0  0  0  0  0  0  0  0  0  0  0  0
    7.8372    0.6309    0.0000 H   0  0  0  0  0  0  0  0  0  0  0  0
    7.1227   -0.6066    0.0000 H   0  0  0  0  0  0  0  0  0  0  0  0
    1.4289    0.9075    0.0000 C   0  0  0  0  0  0  0  0  0  0  0  0
    1.4289    1.7325    0.0000 O   0  0  0  0  0  0  0  0  0  0  0  0
    2.1434    0.4950    0.0000 N   0  0  0  0  0  0  0  0  0  0  0  0
    0.7145    0.4950    0.0000 C   0  0  0  0  0  0  0  0  0  0  0  0
    0.7145   -0.3300    0.0000 C   0  0  0  0  0  0  0  0  0  0  0  0
    0.0000    0.9075    0.0000 C   0  0  0  0  0  0  0  0  0  0  0  0
    0.0000   -0.7425    0.0000 C   0  0  0  0  0  0  0  0  0  0  0  0
    1.4289   -0.7425    0.0000 I   0  0  0  0  0  0  0  0  0  0  0  0
   -0.7145    0.4950    0.0000 C   0  0  0  0  0  0  0  0  0  0  0  0
    0.0000    1.7325    0.0000 I   0  0  0  0  0  0  0  0  0  0  0  0
    0.0000   -1.5675    0.0000 N   0  0  0  0  0  0  0  0  0  0  0  0
   -0.7145   -0.3300    0.0000 C   0  0  0  0  0  0  0  0  0  0  0  0
   -1.4289    0.9075    0.0000 C   0  0  0  0  0  0  0  0  0  0  0  0
   -0.7145   -1.9800    0.0000 C   0  0  0  0  0  0  0  0  0  0  0  0
   -1.4289   -0.7425    0.0000 I   0  0  0  0  0  0  0  0  0  0  0  0
   -2.1434    0.4950    0.0000 O   0  0  0  0  0  0  0  0  0  0  0  0
   -1.4289    1.7325    0.0000 O   0  0  0  0  0  0  0  0  0  0  0  0
   -1.4289   -1.5675    0.0000 O   0  0  0  0  0  0  0  0  0  0  0  0
   -0.7145   -2.8050    0.0000 C   0  0  0  0  0  0  0  0  0  0  0  0
    2.8579    0.9075    0.0000 C   0  0  0  0  0  0  0  0  0  0  0  0
  4  2  1  0
  5  3  1  0
  6  4  1  0
  7  5  1  0
  7  6  1  0
  8  1  1  0
  8  2  1  0
  9  3  1  0
  4 10  1  6
  5 11  1  1
  6 12  1  6
  7 13  1  6
  4 14  1  6
  5 15  1  1
  6 16  1  6
  7 17  1  6
 18 19  2  0
 18 20  1  0
 18 21  1  0
 22 21  1  0
 23 21  2  0
 24 22  2  0
 25 22  1  0
 23 26  1  0
 27 23  1  0
 28 24  1  0
 24 29  1  0
 29 26  2  0
 30 26  1  0
 31 28  1  0
 32 29  1  0
 33 30  2  0
 34 30  1  0
 31 35  2  0
 31 36  1  0
 20 37  1  0
M  END
> <chembl_id>
CHEMBL1201125

> <chembl_pref_name>
IOTHALAMATE MEGLUMINE
