
     RDKit          2D

 28 32  0  0  0  0  0  0  0  0999 V2000
    3.6692  -10.2232    0.0000 C   0  0  0  0  0  0  0  0  0  0  0  0
    5.8230   -8.9952    0.0000 C   0  0  0  0  0  0  0  0  0  0  0  0
    4.3855   -9.8138    0.0000 C   0  0  0  0  0  0  0  0  0  0  0  0
    2.2366  -10.2232    0.0000 C   0  0  0  0  0  0  0  0  0  0  0  0
    5.8181   -9.8236    0.0000 C   0  0  0  0  0  0  0  0  0  0  0  0
    5.1018  -10.2329    0.0000 C   0  0  0  0  0  0  0  0  0  0  0  0
    2.2415  -11.0564    0.0000 C   0  0  0  0  0  0  0  0  0  0  0  0
    2.9529   -9.8138    0.0000 C   0  0  0  0  0  0  0  0  0  0  0  0
    3.6692  -11.0564    0.0000 C   0  0  0  0  0  0  0  0  0  0  0  0
    0.9551  -10.6471    0.0000 N   0  0  0  0  0  0  0  0  0  0  0  0
    6.6124   -8.7467    0.0000 C   0  0  0  0  0  0  0  0  0  0  0  0
    1.4521  -11.3146    0.0000 N   0  0  0  0  0  0  0  0  0  0  0  0
    5.1067   -8.5713    0.0000 C   0  0  0  0  0  0  0  0  0  0  0  0
    2.9529  -11.4657    0.0000 C   0  0  0  0  0  0  0  0  0  0  0  0
    4.3904   -8.9806    0.0000 C   0  0  0  0  0  0  0  0  0  0  0  0
    6.5978  -10.0916    0.0000 C   0  0  0  0  0  0  0  0  0  0  0  0
    5.0921  -11.0564    0.0000 C   0  0  0  0  0  0  0  0  0  0  0  0
    1.4472   -9.9746    0.0000 C   0  0  0  0  0  0  0  0  0  0  0  0
    4.3758  -11.4657    0.0000 C   0  0  0  0  0  0  0  0  0  0  0  0
    7.0948   -9.4191    0.0000 C   0  0  0  0  0  0  0  0  0  0  0  0
    3.6595   -9.3996    0.0000 C   0  0  0  0  0  0  0  0  0  0  0  0
    6.6124   -7.9232    0.0000 O   0  0  0  0  0  0  0  0  0  0  0  0
    5.8230   -8.1717    0.0000 C   0  0  0  0  0  0  0  0  0  0  0  0
    7.3287   -8.3325    0.0000 C   0  0  0  0  0  0  0  0  0  0  0  0
    5.8084  -10.6471    0.0000 H   0  0  0  0  0  0  0  0  0  0  0  0
    5.0921   -9.4045    0.0000 H   0  0  0  0  0  0  0  0  0  0  0  0
    4.3758  -10.6422    0.0000 H   0  0  0  0  0  0  0  0  0  0  0  0
    3.6692  -11.8814    0.0000 H   0  0  0  0  0  0  0  0  0  0  0  0
  2 13  1  0
  3  1  1  0
  4  8  1  0
  5  6  1  0
  6  3  1  0
  7 14  1  0
  8  1  1  0
  9  1  1  0
 10 18  1  0
 11  2  1  0
 12  7  2  0
 13 15  1  0
 14  9  1  0
 15  3  1  0
 16  5  1  0
 17 19  1  0
 18  4  2  0
 19  9  1  0
 20 16  1  0
  1 21  1  1
 22 11  1  0
  2 23  1  1
 11 24  1  6
  5 25  1  6
  6 26  1  1
  3 27  1  6
  6 17  1  0
  4  7  1  0
  5  2  1  0
 12 10  1  0
 11 20  1  0
  9 28  1  6
M  END
> <chembl_id>
CHEMBL2079587

> <chembl_pref_name>
STANOZOLOL
