
     RDKit          2D

 30 31  0  0  0  0  0  0  0  0999 V2000
    3.0500   -4.0167    0.0000 C   0  0  0  0  0  0  0  0  0  0  0  0
    3.0875   -2.6000    0.0000 C   0  0  0  0  0  0  0  0  0  0  0  0
    2.4417   -3.6542    0.0000 C   0  0  0  0  0  0  0  0  0  0  0  0
    2.4667   -2.9417    0.0000 C   0  0  0  0  0  0  0  0  0  0  0  0
    3.0625   -4.7167    0.0000 O   0  0  0  0  0  0  0  0  0  0  0  0
    3.1167   -1.8625    0.0000 O   0  0  0  0  0  0  0  0  0  0  0  0
    3.6792   -2.9500    0.0000 O   0  0  0  0  0  0  0  0  0  0  0  0
    3.6792   -3.6875    0.0000 O   0  0  0  0  0  0  0  0  0  0  0  0
   -0.4625   -3.5875    0.0000 N   0  0  0  0  0  0  0  0  0  0  0  0
    0.1792   -3.8917    0.0000 C   0  0  0  0  0  0  0  0  0  0  0  0
   -1.1000   -3.8917    0.0000 C   0  0  0  0  0  0  0  0  0  0  0  0
   -0.4625   -2.8792    0.0000 C   0  0  0  0  0  0  0  0  0  0  0  0
    0.3417   -4.5792    0.0000 C   0  0  0  0  0  0  0  0  0  0  0  0
   -1.2583   -4.5792    0.0000 C   0  0  0  0  0  0  0  0  0  0  0  0
   -1.0875   -2.5250    0.0000 C   0  0  0  0  0  0  0  0  0  0  0  0
   -0.0958   -5.1375    0.0000 C   0  0  0  0  0  0  0  0  0  0  0  0
   -0.8083   -5.1375    0.0000 C   0  0  0  0  0  0  0  0  0  0  0  0
   -1.0833   -1.8125    0.0000 C   0  0  0  0  0  0  0  0  0  0  0  0
   -1.7000   -1.4542    0.0000 N   0  0  0  0  0  0  0  0  0  0  0  0
   -1.6208   -3.4167    0.0000 C   0  0  0  0  0  0  0  0  0  0  0  0
    0.6917   -3.4042    0.0000 C   0  0  0  0  0  0  0  0  0  0  0  0
    1.0250   -4.7917    0.0000 C   0  0  0  0  0  0  0  0  0  0  0  0
   -1.9333   -4.8000    0.0000 C   0  0  0  0  0  0  0  0  0  0  0  0
   -1.6958   -2.8792    0.0000 C   0  0  0  0  0  0  0  0  0  0  0  0
   -2.3208   -1.8167    0.0000 C   0  0  0  0  0  0  0  0  0  0  0  0
   -1.7083   -0.7417    0.0000 C   0  0  0  0  0  0  0  0  0  0  0  0
   -2.2958   -3.6250    0.0000 C   0  0  0  0  0  0  0  0  0  0  0  0
    1.3792   -3.6125    0.0000 C   0  0  0  0  0  0  0  0  0  0  0  0
   -2.4500   -4.3167    0.0000 C   0  0  0  0  0  0  0  0  0  0  0  0
    1.5500   -4.3042    0.0000 C   0  0  0  0  0  0  0  0  0  0  0  0
  2  4  1  0
  3  1  1  0
  4  3  2  0
  5  1  2  0
  6  2  2  0
  7  2  1  0
  8  1  1  0
 10  9  1  0
 11  9  1  0
 12  9  1  0
 13 10  2  0
 14 11  1  0
 15 12  1  0
 16 13  1  0
 17 14  1  0
 18 15  1  0
 19 18  1  0
 20 11  2  0
 21 10  1  0
 22 13  1  0
 23 14  2  0
 24 15  1  0
 25 19  1  0
 26 19  1  0
 27 20  1  0
 28 21  2  0
 29 23  1  0
 30 22  2  0
 17 16  1  0
 27 29  2  0
 28 30  1  0
M  END
> <chembl_id>
CHEMBL1200948

> <chembl_pref_name>
TRIMIPRAMINE MALEATE
