
     RDKit          2D

 14 14  0  0  1  0  0  0  0  0999 V2000
    9.0290   -1.0608    0.0000 C   0  0  0  0  0  0  0  0  0  0  0  0
    8.3115   -0.6585    0.0000 C   0  0  0  0  0  0  0  0  0  0  0  0
   10.4542   -1.0366    0.0000 N   0  0  0  0  0  0  0  0  0  0  0  0
   11.1765   -1.4293    0.0000 C   0  0  0  0  0  0  0  0  0  0  0  0
   11.8746   -1.0075    0.0000 C   0  0  0  0  0  0  0  0  0  0  0  0
    9.7513   -1.4584    0.0000 C   0  0  0  0  0  0  0  0  0  0  0  0
   12.5921   -1.4147    0.0000 C   0  0  0  0  0  0  0  0  0  0  0  0
   10.4542   -0.2173    0.0000 C   0  0  0  0  0  0  0  0  0  0  0  0
   11.1765   -2.2582    0.0000 C   0  0  0  0  0  0  0  0  0  0  0  0
   13.3047   -1.0075    0.0000 C   0  0  0  0  0  0  0  0  0  0  0  0
   12.5872   -2.2437    0.0000 C   0  0  0  0  0  0  0  0  0  0  0  0
   13.3192   -2.6363    0.0000 C   0  0  0  0  0  0  0  0  0  0  0  0
   14.0173   -1.3856    0.0000 C   0  0  0  0  0  0  0  0  0  0  0  0
   14.0415   -2.2146    0.0000 C   0  0  0  0  0  0  0  0  0  0  0  0
  2  1  3  0
  3  6  1  0
  4  3  1  0
  5  4  1  0
  6  1  1  0
  7  5  1  0
  8  3  1  0
  4  9  1  1
 10  7  1  0
 11  7  2  0
 12 11  1  0
 13 10  2  0
 14 13  1  0
 14 12  2  0
M  END
> <chembl_id>
CHEMBL972

> <chembl_pref_name>
SELEGILINE
