
     RDKit          2D

 15 16  0  0  1  0  0  0  0  0999 V2000
    5.5125   -6.0042    0.0000 N   0  0  0  0  0  0  0  0  0  0  0  0
    4.1875   -4.7750    0.0000 C   0  0  0  0  0  0  0  0  0  0  0  0
    4.1875   -4.0500    0.0000 C   0  0  0  0  0  0  0  0  0  0  0  0
    4.8625   -4.9750    0.0000 C   0  0  0  0  0  0  0  0  0  0  0  0
    4.8625   -3.8167    0.0000 O   0  0  0  0  0  0  0  0  0  0  0  0
    3.5125   -4.9875    0.0000 O   0  0  0  0  0  0  0  0  0  0  0  0
    4.8875   -5.6792    0.0000 O   0  0  0  0  0  0  0  0  0  0  0  0
    3.5167   -3.8417    0.0000 C   0  0  0  0  0  0  0  0  0  0  0  0
    5.2917   -4.4167    0.0000 C   0  0  0  0  0  0  0  0  0  0  0  0
    5.5375   -6.7167    0.0000 O   0  0  0  0  0  0  0  0  0  0  0  0
    6.0917   -5.6125    0.0000 O   0  0  0  0  0  0  0  0  0  0  0  0
    3.0917   -4.4000    0.0000 C   0  0  0  0  0  0  0  0  0  0  0  0
    3.3042   -3.1667    0.0000 O   0  0  0  0  0  0  0  0  0  0  0  0
    4.1875   -5.4667    0.0000 H   0  0  0  0  0  0  0  0  0  0  0  0
    4.1625   -3.3375    0.0000 H   0  0  0  0  0  0  0  0  0  0  0  0
  2  4  1  0
  3  2  1  0
  4  7  1  1
  5  9  1  0
  6  2  1  0
  7  1  1  0
  8  3  1  0
  9  4  1  0
 10  1  1  0
 11  1  2  0
 12  6  1  0
  8 13  1  6
  2 14  1  6
  3 15  1  6
  5  3  1  0
 12  8  1  0
M  CHG  2   1   1  10  -1
M  END
> <chembl_id>
CHEMBL1311

> <chembl_pref_name>
ISOSORBIDE MONONITRATE
