
     RDKit          2D

 26 28  0  0  0  0  0  0  0  0999 V2000
   -0.9000    0.2083    0.0000 C   0  0  0  0  0  0  0  0  0  0  0  0
   -1.7708   -0.2792    0.0000 C   0  0  0  0  0  0  0  0  0  0  0  0
   -0.9000    1.2208    0.0000 C   0  0  0  0  0  0  0  0  0  0  0  0
   -0.0333   -0.2792    0.0000 C   0  0  0  0  0  0  0  0  0  0  0  0
    3.4292    1.6833    0.0000 N   0  0  0  0  0  0  0  0  0  0  0  0
   -1.7708    1.7125    0.0000 O   0  0  0  0  0  0  0  0  0  0  0  0
   -2.6083    0.2083    0.0000 C   0  0  0  0  0  0  0  0  0  0  0  0
   -2.6083    1.2208    0.0000 C   0  0  0  0  0  0  0  0  0  0  0  0
    2.5667    1.1958    0.0000 C   0  0  0  0  0  0  0  0  0  0  0  0
    0.8292    0.2083    0.0000 C   0  0  0  0  0  0  0  0  0  0  0  0
    3.4292    2.6708    0.0000 O   0  0  0  0  0  0  0  0  0  0  0  0
   -0.0333    1.7458    0.0000 O   0  0  0  0  0  0  0  0  0  0  0  0
   -0.0333   -1.2542    0.0000 C   0  0  0  0  0  0  0  0  0  0  0  0
    4.2667    1.1958    0.0000 O   0  0  0  0  0  0  0  0  0  0  0  0
   -1.7708   -1.2917    0.0000 O   0  0  0  0  0  0  0  0  0  0  0  0
    2.5667    0.2083    0.0000 C   0  0  0  0  0  0  0  0  0  0  0  0
    1.6917    1.6833    0.0000 C   0  0  0  0  0  0  0  0  0  0  0  0
    0.8292    1.1958    0.0000 C   0  0  0  0  0  0  0  0  0  0  0  0
    1.6917   -0.2792    0.0000 C   0  0  0  0  0  0  0  0  0  0  0  0
    0.8292   -1.7542    0.0000 C   0  0  0  0  0  0  0  0  0  0  0  0
    0.8167   -2.7500    0.0000 O   0  0  0  0  0  0  0  0  0  0  0  0
   -3.4833   -0.2792    0.0000 C   0  0  0  0  0  0  0  0  0  0  0  0
   -3.4833    1.7125    0.0000 C   0  0  0  0  0  0  0  0  0  0  0  0
    1.6917   -1.2542    0.0000 C   0  0  0  0  0  0  0  0  0  0  0  0
   -4.3458    0.2083    0.0000 C   0  0  0  0  0  0  0  0  0  0  0  0
   -4.3458    1.2208    0.0000 C   0  0  0  0  0  0  0  0  0  0  0  0
  2  1  2  0
  3  1  1  0
  4  1  1  0
  5  9  1  0
  6  3  1  0
  7  2  1  0
  8  6  1  0
  9 16  1  0
 10  4  1  0
 11  5  1  0
 12  3  2  0
 13  4  1  0
 14  5  2  0
 15  2  1  0
 16 19  2  0
 17 18  1  0
 18 10  2  0
 19 10  1  0
 20 13  1  0
 21 20  2  0
 22  7  1  0
 23  8  1  0
 24 20  1  0
 25 22  2  0
 26 23  2  0
  7  8  2  0
 17  9  2  0
 25 26  1  0
M  CHG  2   5   1  11  -1
M  END
> <chembl_id>
CHEMBL397420

> <chembl_pref_name>
ACENOCOUMAROL
