
     RDKit          2D

 27 27  0  0  0  0  0  0  0  0999 V2000
    2.8375   -1.6750    0.0000 C   0  0  0  0  0  0  0  0  0  0  0  0
    3.4542   -2.0292    0.0000 C   0  0  0  0  0  0  0  0  0  0  0  0
    2.2167   -2.0250    0.0000 C   0  0  0  0  0  0  0  0  0  0  0  0
    2.4792   -1.0542    0.0000 C   0  0  0  0  0  0  0  0  0  0  0  0
    4.0667   -1.6750    0.0000 C   0  0  0  0  0  0  0  0  0  0  0  0
    2.2250   -2.7292    0.0000 C   0  0  0  0  0  0  0  0  0  0  0  0
    2.8292   -0.4417    0.0000 O   0  0  0  0  0  0  0  0  0  0  0  0
    2.8417   -3.0792    0.0000 O   0  0  0  0  0  0  0  0  0  0  0  0
    4.0667   -0.9667    0.0000 O   0  0  0  0  0  0  0  0  0  0  0  0
    3.1875   -1.0542    0.0000 O   0  0  0  0  0  0  0  0  0  0  0  0
    1.7667   -1.0542    0.0000 O   0  0  0  0  0  0  0  0  0  0  0  0
    1.6125   -3.0917    0.0000 O   0  0  0  0  0  0  0  0  0  0  0  0
    4.6792   -2.0292    0.0000 O   0  0  0  0  0  0  0  0  0  0  0  0
   -0.2458   -2.1292    0.0000 C   0  0  0  0  0  0  0  0  0  0  0  0
   -0.2458   -1.4375    0.0000 C   0  0  0  0  0  0  0  0  0  0  0  0
   -0.8708   -2.5042    0.0000 N   0  0  0  0  0  0  0  0  0  0  0  0
   -1.4750   -1.4375    0.0000 N   0  0  0  0  0  0  0  0  0  0  0  0
   -1.4750   -2.1292    0.0000 C   0  0  0  0  0  0  0  0  0  0  0  0
   -0.8708   -1.0750    0.0000 C   0  0  0  0  0  0  0  0  0  0  0  0
    0.4417   -2.3667    0.0000 N   0  0  0  0  0  0  0  0  0  0  0  0
    0.4417   -1.2375    0.0000 N   0  0  0  0  0  0  0  0  0  0  0  0
    0.8292   -1.7792    0.0000 C   0  0  0  0  0  0  0  0  0  0  0  0
   -2.0833   -2.5125    0.0000 O   0  0  0  0  0  0  0  0  0  0  0  0
   -0.8708   -0.3667    0.0000 O   0  0  0  0  0  0  0  0  0  0  0  0
   -0.8708   -3.2167    0.0000 C   0  0  0  0  0  0  0  0  0  0  0  0
   -2.0833   -1.0750    0.0000 C   0  0  0  0  0  0  0  0  0  0  0  0
    0.6500   -0.5500    0.0000 C   0  0  0  0  0  0  0  0  0  0  0  0
  2  1  1  0
  3  1  1  0
  4  1  1  0
  5  2  1  0
  6  3  1  0
  7  4  2  0
  8  6  2  0
  9  5  2  0
 10  1  1  0
 11  4  1  0
 12  6  1  0
 13  5  1  0
 15 14  2  0
 16 14  1  0
 17 18  1  0
 18 16  1  0
 19 15  1  0
 20 14  1  0
 21 15  1  0
 22 20  2  0
 23 18  2  0
 24 19  2  0
 25 16  1  0
 26 17  1  0
 27 21  1  0
 22 21  1  0
 17 19  1  0
M  END
> <chembl_id>
CHEMBL1200569

> <chembl_pref_name>
CAFFEINE CITRATE
