
     RDKit          2D

 44 49  0  0  1  0  0  0  0  0999 V2000
    2.3125   -5.7917    0.0000 C   0  0  0  0  0  0  0  0  0  0  0  0
    0.4667   -6.8417    0.0000 C   0  0  0  0  0  0  0  0  0  0  0  0
    2.3042   -6.4958    0.0000 C   0  0  0  0  0  0  0  0  0  0  0  0
    2.9875   -5.5792    0.0000 C   0  0  0  0  0  0  0  0  0  0  0  0
    3.3958   -6.1542    0.0000 C   0  0  0  0  0  0  0  0  0  0  0  0
    1.0792   -6.4875    0.0000 C   0  0  0  0  0  0  0  0  0  0  0  0
    1.6917   -6.8458    0.0000 C   0  0  0  0  0  0  0  0  0  0  0  0
    4.1000   -6.1625    0.0000 N   0  0  0  0  0  0  0  0  0  0  0  0
   -0.7583   -6.8417    0.0000 C   0  0  0  0  0  0  0  0  0  0  0  0
   -0.7583   -7.5500    0.0000 C   0  0  0  0  0  0  0  0  0  0  0  0
    2.9750   -6.7250    0.0000 C   0  0  0  0  0  0  0  0  0  0  0  0
   -0.1458   -6.4875    0.0000 C   0  0  0  0  0  0  0  0  0  0  0  0
    0.4667   -7.5500    0.0000 C   0  0  0  0  0  0  0  0  0  0  0  0
   -1.3708   -6.4875    0.0000 N   0  0  0  0  0  0  0  0  0  0  0  0
    1.7000   -5.4292    0.0000 C   0  0  0  0  0  0  0  0  0  0  0  0
    2.9792   -4.8667    0.0000 O   0  0  0  0  0  0  0  0  0  0  0  0
   -0.1458   -7.9042    0.0000 C   0  0  0  0  0  0  0  0  0  0  0  0
    1.0833   -5.7792    0.0000 C   0  0  0  0  0  0  0  0  0  0  0  0
   -1.3708   -7.9000    0.0000 O   0  0  0  0  0  0  0  0  0  0  0  0
    1.6875   -7.5542    0.0000 C   0  0  0  0  0  0  0  0  0  0  0  0
    3.5917   -4.5083    0.0000 C   0  0  0  0  0  0  0  0  0  0  0  0
   -1.3708   -8.6083    0.0000 C   0  0  0  0  0  0  0  0  0  0  0  0
    1.0750   -7.9042    0.0000 C   0  0  0  0  0  0  0  0  0  0  0  0
   -0.7583   -8.9667    0.0000 O   0  0  0  0  0  0  0  0  0  0  0  0
    3.5875   -3.8000    0.0000 O   0  0  0  0  0  0  0  0  0  0  0  0
    2.3042   -5.0792    0.0000 C   0  0  0  0  0  0  0  0  0  0  0  0
    0.4625   -6.1292    0.0000 C   0  0  0  0  0  0  0  0  0  0  0  0
    3.7417   -5.5417    0.0000 C   0  0  0  0  0  0  0  0  0  0  0  0
    4.4583   -5.5542    0.0000 C   0  0  0  0  0  0  0  0  0  0  0  0
    4.4500   -6.7792    0.0000 C   0  0  0  0  0  0  0  0  0  0  0  0
   -1.3708   -5.7750    0.0000 C   0  0  0  0  0  0  0  0  0  0  0  0
   -1.9833   -6.8417    0.0000 C   0  0  0  0  0  0  0  0  0  0  0  0
    4.2083   -4.8583    0.0000 C   0  0  0  0  0  0  0  0  0  0  0  0
   -1.9833   -8.9625    0.0000 C   0  0  0  0  0  0  0  0  0  0  0  0
    5.1542   -6.7875    0.0000 C   0  0  0  0  0  0  0  0  0  0  0  0
    5.1708   -5.5625    0.0000 C   0  0  0  0  0  0  0  0  0  0  0  0
   -1.9792   -5.4250    0.0000 C   0  0  0  0  0  0  0  0  0  0  0  0
   -2.5958   -6.4833    0.0000 C   0  0  0  0  0  0  0  0  0  0  0  0
   -2.5958   -5.7750    0.0000 C   0  0  0  0  0  0  0  0  0  0  0  0
    5.5167   -6.1792    0.0000 C   0  0  0  0  0  0  0  0  0  0  0  0
    1.6875   -6.1375    0.0000 H   0  0  0  0  0  0  0  0  0  0  0  0
    0.4625   -8.2542    0.0000 H   0  0  0  0  0  0  0  0  0  0  0  0
    1.0750   -7.1917    0.0000 H   0  0  0  0  0  0  0  0  0  0  0  0
    2.3000   -7.2042    0.0000 H   0  0  0  0  0  0  0  0  0  0  0  0
  2  6  1  0
  3  1  1  0
  4  1  1  0
  5  4  1  0
  6  7  1  0
  7  3  1  0
  5  8  1  1
  9 12  1  0
 10 17  1  0
 11  3  1  0
 12  2  1  0
 13  2  1  0
  9 14  1  1
 15  1  1  0
  4 16  1  1
 17 13  1  0
 18 15  1  0
 10 19  1  6
 20  7  1  0
 21 16  1  0
 22 19  1  0
 23 20  1  0
 24 22  2  0
 25 21  2  0
  1 26  1  1
  2 27  1  1
 28  8  1  0
 29  8  1  0
 30  8  1  0
 31 14  1  0
 32 14  1  0
 33 21  1  0
 34 22  1  0
 35 30  1  0
 36 29  1  0
 37 31  1  0
 38 32  1  0
 39 38  1  0
 40 35  1  0
  7 41  1  1
 13 42  1  6
  6 43  1  6
  3 44  1  6
  5 11  1  0
 18  6  1  0
 23 13  1  0
 36 40  1  0
 10  9  1  0
 39 37  1  0
M  CHG  1   8   1
M  END
> <chembl_id>
CHEMBL1201219

> <chembl_pref_name>
VECURONIUM
