
     RDKit          2D

 25 26  0  0  0  0  0  0  0  0999 V2000
   -2.6895  -18.4111    0.0000 N   0  0  0  0  0  0  0  0  0  0  0  0
   -1.9829  -17.1598    0.0000 N   0  0  0  0  0  0  0  0  0  0  0  0
   -3.4003  -18.8309    0.0000 C   0  0  0  0  0  0  0  0  0  0  0  0
   -2.6979  -17.5838    0.0000 C   0  0  0  0  0  0  0  0  0  0  0  0
   -1.2637  -17.5714    0.0000 C   0  0  0  0  0  0  0  0  0  0  0  0
   -1.9704  -18.8143    0.0000 C   0  0  0  0  0  0  0  0  0  0  0  0
   -1.2554  -18.3944    0.0000 C   0  0  0  0  0  0  0  0  0  0  0  0
   -3.6622  -19.6166    0.0000 C   0  0  0  0  0  0  0  0  0  0  0  0
   -4.0738  -18.3404    0.0000 O   0  0  0  0  0  0  0  0  0  0  0  0
   -0.5487  -17.1556    0.0000 N   0  0  0  0  0  0  0  0  0  0  0  0
   -4.4853  -19.6166    0.0000 C   0  0  0  0  0  0  0  0  0  0  0  0
   -4.7431  -18.8309    0.0000 C   0  0  0  0  0  0  0  0  0  0  0  0
    0.1663  -17.5672    0.0000 C   0  0  0  0  0  0  0  0  0  0  0  0
   -3.4253  -17.1723    0.0000 O   0  0  0  0  0  0  0  0  0  0  0  0
    0.1663  -18.3944    0.0000 O   0  0  0  0  0  0  0  0  0  0  0  0
   -0.5445  -18.8060    0.0000 F   0  0  0  0  0  0  0  0  0  0  0  0
   -3.2507  -20.3316    0.0000 O   0  0  0  0  0  0  0  0  0  0  0  0
   -4.9052  -20.3316    0.0000 O   0  0  0  0  0  0  0  0  0  0  0  0
    0.8812  -17.1474    0.0000 O   0  0  0  0  0  0  0  0  0  0  0  0
   -5.4539  -18.4194    0.0000 C   0  0  0  0  0  0  0  0  0  0  0  0
    1.5963  -17.5589    0.0000 C   0  0  0  0  0  0  0  0  0  0  0  0
    2.3113  -17.1474    0.0000 C   0  0  0  0  0  0  0  0  0  0  0  0
    3.7371  -17.1432    0.0000 C   0  0  0  0  0  0  0  0  0  0  0  0
    3.0221  -17.5589    0.0000 C   0  0  0  0  0  0  0  0  0  0  0  0
    4.4479  -17.5547    0.0000 C   0  0  0  0  0  0  0  0  0  0  0  0
  2  4  1  0
  3  1  1  1
  4  1  1  0
  5  7  1  0
  6  1  1  0
  7  6  2  0
  8  3  1  0
  9  3  1  0
 10  5  1  0
 11  8  1  0
 12  9  1  0
 13 10  1  0
 14  4  2  0
 15 13  2  0
 16  7  1  0
  8 17  1  6
 11 18  1  6
 19 13  1  0
 12 20  1  1
 21 19  1  0
 22 21  1  0
 23 24  1  0
 24 22  1  0
 25 23  1  0
  5  2  2  0
 12 11  1  0
M  END
> <chembl_id>
CHEMBL1773

> <chembl_pref_name>
CAPECITABINE
