
     RDKit          2D

 20 22  0  0  0  0  0  0  0  0999 V2000
   -2.1223   -2.6190    0.0000 O   0  0  0  0  0  0  0  0  0  0  0  0
   -2.2085   -1.7985    0.0000 C   0  0  0  0  0  0  0  0  0  0  0  0
   -1.5411   -1.3136    0.0000 C   0  0  0  0  0  0  0  0  0  0  0  0
   -1.5411   -0.4886    0.0000 O   0  0  0  0  0  0  0  0  0  0  0  0
   -0.7564   -1.5686    0.0000 C   0  0  0  0  0  0  0  0  0  0  0  0
   -0.5015   -2.3532    0.0000 O   0  0  0  0  0  0  0  0  0  0  0  0
   -0.2715   -0.9011    0.0000 C   0  0  0  0  0  0  0  0  0  0  0  0
    0.5535   -0.9011    0.0000 F   0  0  0  0  0  0  0  0  0  0  0  0
   -0.7564   -0.2337    0.0000 C   0  0  0  0  0  0  0  0  0  0  0  0
   -0.5015    0.5509    0.0000 N   0  0  0  0  0  0  0  0  0  0  0  0
   -0.9864    1.2184    0.0000 C   0  0  0  0  0  0  0  0  0  0  0  0
   -0.5015    1.8858    0.0000 N   0  0  0  0  0  0  0  0  0  0  0  0
    0.2831    1.6309    0.0000 C   0  0  0  0  0  0  0  0  0  0  0  0
    0.2831    0.8059    0.0000 C   0  0  0  0  0  0  0  0  0  0  0  0
    0.9976    0.3934    0.0000 N   0  0  0  0  0  0  0  0  0  0  0  0
    1.7121    0.8059    0.0000 C   0  0  0  0  0  0  0  0  0  0  0  0
    2.4265    0.3934    0.0000 Cl  0  0  0  0  0  0  0  0  0  0  0  0
    1.7121    1.6309    0.0000 N   0  0  0  0  0  0  0  0  0  0  0  0
    0.9976    2.0434    0.0000 C   0  0  0  0  0  0  0  0  0  0  0  0
    0.9976    2.8684    0.0000 N   0  0  0  0  0  0  0  0  0  0  0  0
  2  1  1  0
  3  2  1  1
  3  4  1  0
  5  3  1  0
  9  4  1  0
  5  6  1  6
  7  5  1  0
  7  8  1  1
  9  7  1  0
  9 10  1  1
 11 10  1  0
 14 10  1  0
 11 12  2  0
 13 12  1  0
 14 13  2  0
 13 19  1  0
 14 15  1  0
 16 15  2  0
 16 17  1  0
 16 18  1  0
 19 18  2  0
 19 20  1  0
M  END
> <chembl_id>
CHEMBL1750

> <chembl_pref_name>
CLOFARABINE
