
     RDKit          2D

 32 34  0  0  1  0  0  0  0  0999 V2000
    2.1417  -11.0875    0.0000 C   0  0  0  0  0  0  0  0  0  0  0  0
    0.9042  -13.9417    0.0000 C   0  0  0  0  0  0  0  0  0  0  0  0
    1.5250  -14.2917    0.0000 C   0  0  0  0  0  0  0  0  0  0  0  0
    2.1417  -11.8000    0.0000 C   0  0  0  0  0  0  0  0  0  0  0  0
    2.8167  -10.8667    0.0000 C   0  0  0  0  0  0  0  0  0  0  0  0
    0.9042  -13.2292    0.0000 C   0  0  0  0  0  0  0  0  0  0  0  0
    1.5250  -15.0000    0.0000 C   0  0  0  0  0  0  0  0  0  0  0  0
    1.5250  -12.1542    0.0000 C   0  0  0  0  0  0  0  0  0  0  0  0
    1.5250  -12.8667    0.0000 C   0  0  0  0  0  0  0  0  0  0  0  0
    2.8167  -12.0125    0.0000 C   0  0  0  0  0  0  0  0  0  0  0  0
    3.2375  -11.4375    0.0000 C   0  0  0  0  0  0  0  0  0  0  0  0
    0.9125  -15.3625    0.0000 C   0  0  0  0  0  0  0  0  0  0  0  0
    0.2917  -14.2875    0.0000 C   0  0  0  0  0  0  0  0  0  0  0  0
    0.2917  -15.0042    0.0000 C   0  0  0  0  0  0  0  0  0  0  0  0
    2.1333  -13.9292    0.0000 C   0  0  0  0  0  0  0  0  0  0  0  0
    5.2792  -10.1250    0.0000 C   0  0  0  0  0  0  0  0  0  0  0  0
    2.8125  -10.1542    0.0000 C   0  0  0  0  0  0  0  0  0  0  0  0
    1.5250  -10.7292    0.0000 C   0  0  0  0  0  0  0  0  0  0  0  0
    2.1417  -15.3542    0.0000 O   0  0  0  0  0  0  0  0  0  0  0  0
    2.1292  -10.3792    0.0000 C   0  0  0  0  0  0  0  0  0  0  0  0
    5.8917   -9.7667    0.0000 O   0  0  0  0  0  0  0  0  0  0  0  0
   -0.3250  -15.3625    0.0000 O   0  0  0  0  0  0  0  0  0  0  0  0
    0.9125  -11.8042    0.0000 C   0  0  0  0  0  0  0  0  0  0  0  0
    0.9125  -11.0875    0.0000 C   0  0  0  0  0  0  0  0  0  0  0  0
    4.0417  -10.1375    0.0000 C   0  0  0  0  0  0  0  0  0  0  0  0
    4.6542   -9.7792    0.0000 C   0  0  0  0  0  0  0  0  0  0  0  0
    3.4250   -9.7875    0.0000 C   0  0  0  0  0  0  0  0  0  0  0  0
    5.6292  -10.7417    0.0000 C   0  0  0  0  0  0  0  0  0  0  0  0
    4.9167  -10.7375    0.0000 C   0  0  0  0  0  0  0  0  0  0  0  0
    2.1917   -9.8000    0.0000 C   0  0  0  0  0  0  0  0  0  0  0  0
    2.1417  -12.5042    0.0000 H   0  0  0  0  0  0  0  0  0  0  0  0
    3.4292  -10.5042    0.0000 H   0  0  0  0  0  0  0  0  0  0  0  0
  2  6  2  0
  3  2  1  0
  4  1  1  0
  5  1  1  0
  6  9  1  0
  7  3  1  0
  8  4  1  0
  9  8  2  0
 10  4  1  0
 11  5  1  0
 12 14  1  0
 13  2  1  0
 14 13  1  0
 15  3  2  0
 16 26  1  0
 17  5  1  0
 18  1  1  0
  7 19  1  1
  1 20  1  1
 21 16  1  0
 14 22  1  6
 23 24  1  0
 24 18  1  0
 25 27  1  0
 26 25  1  0
 27 17  1  0
 28 16  1  0
 29 16  1  0
 17 30  1  6
  4 31  1  6
  5 32  1  6
 10 11  1  0
 23  8  1  0
  7 12  1  0
M  END
> <chembl_id>
CHEMBL846

> <chembl_pref_name>
CALCITRIOL
