
     RDKit          2D

 18 17  0  0  0  0  0  0  0  0999 V2000
   -1.2208   -2.7792    0.0000 Cl  0  0  0  0  0  0  0  0  0  0  0  0
   -0.5333   -1.7917    0.0000 C   0  0  0  0  0  0  0  0  0  0  0  0
   -1.7500   -1.7917    0.0000 C   0  0  0  0  0  0  0  0  0  0  0  0
   -1.1375   -2.1542    0.0000 N   0  0  0  0  0  0  0  0  0  0  0  0
    0.0750   -2.1542    0.0000 N   0  0  0  0  0  0  0  0  0  0  0  0
   -0.5333   -1.0917    0.0000 N   0  0  0  0  0  0  0  0  0  0  0  0
   -1.7500   -1.0917    0.0000 N   0  0  0  0  0  0  0  0  0  0  0  0
   -2.3750   -2.1542    0.0000 N   0  0  0  0  0  0  0  0  0  0  0  0
    0.7042   -1.7917    0.0000 C   0  0  0  0  0  0  0  0  0  0  0  0
    1.9292   -1.0917    0.0000 C   0  0  0  0  0  0  0  0  0  0  0  0
    2.5542   -0.7292    0.0000 Cl  0  0  0  0  0  0  0  0  0  0  0  0
    1.3167   -2.1417    0.0000 C   0  0  0  0  0  0  0  0  0  0  0  0
    0.7042   -1.0917    0.0000 C   0  0  0  0  0  0  0  0  0  0  0  0
    1.3167   -0.7375    0.0000 C   0  0  0  0  0  0  0  0  0  0  0  0
    1.9292   -1.7917    0.0000 C   0  0  0  0  0  0  0  0  0  0  0  0
   -2.9875   -1.7917    0.0000 C   0  0  0  0  0  0  0  0  0  0  0  0
   -3.6083   -2.1542    0.0000 C   0  0  0  0  0  0  0  0  0  0  0  0
   -2.9875   -1.0917    0.0000 C   0  0  0  0  0  0  0  0  0  0  0  0
  3  4  1  0
  4  2  1  0
  5  2  1  0
  6  2  2  0
  7  3  2  0
  8  3  1  0
  9  5  1  0
 10 15  2  0
 11 10  1  0
 12  9  2  0
 13  9  1  0
 14 13  2  0
 15 12  1  0
 16  8  1  0
 17 16  1  0
 18 16  1  0
 10 14  1  0
M  END
> <chembl_id>
CHEMBL1201059

> <chembl_pref_name>
PROGUANIL HYDROCHLORIDE
