
     RDKit          2D

 43 47  0  0  1  0  0  0  0  0999 V2000
    0.6792   -0.6625    0.0000 C   0  0  0  0  0  0  0  0  0  0  0  0
   -1.7083   -1.3625    0.0000 C   0  0  0  0  0  0  0  0  0  0  0  0
    1.2542   -0.3250    0.0000 C   0  0  0  0  0  0  0  0  0  0  0  0
   -2.3000   -1.7042    0.0000 C   0  0  0  0  0  0  0  0  0  0  0  0
    1.8542   -1.3667    0.0000 C   0  0  0  0  0  0  0  0  0  0  0  0
   -3.6333    1.6708    0.0000 C   0  0  0  0  0  0  0  0  0  0  0  0
    1.8542   -0.6542    0.0000 C   0  0  0  0  0  0  0  0  0  0  0  0
    0.6917   -1.3667    0.0000 C   0  0  0  0  0  0  0  0  0  0  0  0
   -2.9125   -1.3667    0.0000 C   0  0  0  0  0  0  0  0  0  0  0  0
   -3.6333    2.3958    0.0000 C   0  0  0  0  0  0  0  0  0  0  0  0
    1.2542   -1.7167    0.0000 O   0  0  0  0  0  0  0  0  0  0  0  0
   -2.9875    1.3208    0.0000 C   0  0  0  0  0  0  0  0  0  0  0  0
   -1.7083   -0.6750    0.0000 O   0  0  0  0  0  0  0  0  0  0  0  0
   -2.8833   -0.6542    0.0000 C   0  0  0  0  0  0  0  0  0  0  0  0
   -2.3833    1.6458    0.0000 O   0  0  0  0  0  0  0  0  0  0  0  0
   -2.2750   -0.3250    0.0000 C   0  0  0  0  0  0  0  0  0  0  0  0
    0.0792   -0.3167    0.0000 C   0  0  0  0  0  0  0  0  0  0  0  0
   -2.9875    2.7208    0.0000 C   0  0  0  0  0  0  0  0  0  0  0  0
   -2.3708    2.3750    0.0000 C   0  0  0  0  0  0  0  0  0  0  0  0
   -0.5333   -1.3792    0.0000 C   0  0  0  0  0  0  0  0  0  0  0  0
    2.4625   -1.7042    0.0000 C   0  0  0  0  0  0  0  0  0  0  0  0
    0.0792   -1.7167    0.0000 C   0  0  0  0  0  0  0  0  0  0  0  0
   -1.1333   -1.7167    0.0000 O   0  0  0  0  0  0  0  0  0  0  0  0
   -0.5208   -0.6625    0.0000 C   0  0  0  0  0  0  0  0  0  0  0  0
    2.4625   -2.4167    0.0000 C   0  0  0  0  0  0  0  0  0  0  0  0
    3.0667   -2.7542    0.0000 C   0  0  0  0  0  0  0  0  0  0  0  0
   -2.9833    0.6208    0.0000 O   0  0  0  0  0  0  0  0  0  0  0  0
    1.2542    0.3875    0.0000 O   0  0  0  0  0  0  0  0  0  0  0  0
   -2.2625    0.3708    0.0000 C   0  0  0  0  0  0  0  0  0  0  0  0
    3.6917   -2.4167    0.0000 C   0  0  0  0  0  0  0  0  0  0  0  0
    3.0667   -1.3667    0.0000 C   0  0  0  0  0  0  0  0  0  0  0  0
    3.6917   -1.7042    0.0000 C   0  0  0  0  0  0  0  0  0  0  0  0
   -2.3250   -2.3542    0.0000 O   0  0  0  0  0  0  0  0  0  0  0  0
   -4.2500    1.3250    0.0000 O   0  0  0  0  0  0  0  0  0  0  0  0
   -3.5083   -1.6792    0.0000 O   0  0  0  0  0  0  0  0  0  0  0  0
   -4.2583    2.7208    0.0000 O   0  0  0  0  0  0  0  0  0  0  0  0
   -3.4708   -0.2542    0.0000 O   0  0  0  0  0  0  0  0  0  0  0  0
    0.0792    0.3833    0.0000 O   0  0  0  0  0  0  0  0  0  0  0  0
   -2.9833    3.4708    0.0000 O   0  0  0  0  0  0  0  0  0  0  0  0
    3.0667   -3.4167    0.0000 O   0  0  0  0  0  0  0  0  0  0  0  0
    4.2917   -2.7542    0.0000 O   0  0  0  0  0  0  0  0  0  0  0  0
   -1.8083    2.7583    0.0000 C   0  0  0  0  0  0  0  0  0  0  0  0
    4.2792   -3.4917    0.0000 C   0  0  0  0  0  0  0  0  0  0  0  0
  2 23  1  1
  3  1  1  0
  4  2  1  0
  5 11  1  0
  6 12  1  0
  7  3  1  0
  8  1  2  0
  9  4  1  0
 10  6  1  0
 11  8  1  0
 12 27  1  1
 13  2  1  0
 14 16  1  0
 15 12  1  0
 16 13  1  0
 17  1  1  0
 18 19  1  0
 19 15  1  0
 20 24  1  0
 21  5  1  0
 22  8  1  0
 23 20  1  0
 24 17  2  0
 25 21  1  0
 26 25  2  0
 27 29  1  0
 28  3  2  0
 16 29  1  1
 30 32  2  0
 31 21  2  0
 32 31  1  0
  4 33  1  6
  6 34  1  6
  9 35  1  1
 10 36  1  6
 14 37  1  6
 38 17  1  0
 18 39  1  1
 40 26  1  0
 41 30  1  0
 19 42  1  6
 43 41  1  0
 22 20  2  0
  7  5  2  0
 26 30  1  0
  9 14  1  0
 10 18  1  0
M  END
> <chembl_id>
CHEMBL231884

> <chembl_pref_name>
DIOSMIN
