
     RDKit          2D

 25 27  0  0  1  0  0  0  0  0999 V2000
    3.5500   -3.5292    0.0000 N   0  0  0  0  0  0  0  0  0  0  0  0
    3.5500   -2.8250    0.0000 C   0  0  0  0  0  0  0  0  0  0  0  0
    2.8375   -3.5375    0.0000 C   0  0  0  0  0  0  0  0  0  0  0  0
    2.8375   -2.8250    0.0000 C   0  0  0  0  0  0  0  0  0  0  0  0
    4.2250   -3.7500    0.0000 C   0  0  0  0  0  0  0  0  0  0  0  0
    4.2167   -2.6042    0.0000 S   0  0  0  0  0  0  0  0  0  0  0  0
    4.6417   -3.1750    0.0000 C   0  0  0  0  0  0  0  0  0  0  0  0
    2.2167   -2.4667    0.0000 N   0  0  0  0  0  0  0  0  0  0  0  0
    4.2167   -4.4542    0.0000 C   0  0  0  0  0  0  0  0  0  0  0  0
    1.6042   -2.8250    0.0000 C   0  0  0  0  0  0  0  0  0  0  0  0
    2.3375   -4.0375    0.0000 O   0  0  0  0  0  0  0  0  0  0  0  0
    3.6000   -4.8042    0.0000 O   0  0  0  0  0  0  0  0  0  0  0  0
    1.6042   -3.5292    0.0000 O   0  0  0  0  0  0  0  0  0  0  0  0
    0.3792   -2.8250    0.0000 O   0  0  0  0  0  0  0  0  0  0  0  0
    0.9917   -2.4667    0.0000 C   0  0  0  0  0  0  0  0  0  0  0  0
    4.8292   -4.8167    0.0000 O   0  0  0  0  0  0  0  0  0  0  0  0
    5.2542   -2.8167    0.0000 C   0  0  0  0  0  0  0  0  0  0  0  0
    5.2542   -3.5292    0.0000 C   0  0  0  0  0  0  0  0  0  0  0  0
   -0.2333   -2.4667    0.0000 C   0  0  0  0  0  0  0  0  0  0  0  0
   -0.2333   -1.7542    0.0000 C   0  0  0  0  0  0  0  0  0  0  0  0
   -0.8458   -2.8250    0.0000 C   0  0  0  0  0  0  0  0  0  0  0  0
   -1.4583   -2.4667    0.0000 C   0  0  0  0  0  0  0  0  0  0  0  0
   -0.8458   -1.4042    0.0000 C   0  0  0  0  0  0  0  0  0  0  0  0
   -1.4583   -1.7625    0.0000 C   0  0  0  0  0  0  0  0  0  0  0  0
    3.5417   -2.1167    0.0000 H   0  0  0  0  0  0  0  0  0  0  0  0
  2  1  1  0
  3  1  1  0
  4  3  1  0
  5  1  1  0
  6  2  1  0
  7  5  1  0
  4  8  1  1
  5  9  1  6
 10  8  1  0
 11  3  2  0
 12  9  2  0
 13 10  2  0
 14 15  1  0
 15 10  1  0
 16  9  1  0
 17  7  1  0
 18  7  1  0
 19 14  1  0
 20 19  2  0
 21 19  1  0
 22 21  2  0
 23 20  1  0
 24 22  1  0
  2 25  1  6
  6  7  1  0
  4  2  1  0
 24 23  2  0
M  END
> <chembl_id>
CHEMBL615

> <chembl_pref_name>
PENICILLIN V
