
     RDKit          2D

 23 24  0  0  1  0  0  0  0  0999 V2000
    0.7292   -4.4667    0.0000 C   0  0  0  0  0  0  0  0  0  0  0  0
    0.1167   -4.8292    0.0000 C   0  0  0  0  0  0  0  0  0  0  0  0
    1.3375   -4.8292    0.0000 C   0  0  0  0  0  0  0  0  0  0  0  0
    0.1167   -5.5292    0.0000 C   0  0  0  0  0  0  0  0  0  0  0  0
    1.3375   -5.5292    0.0000 C   0  0  0  0  0  0  0  0  0  0  0  0
    0.7292   -5.8917    0.0000 C   0  0  0  0  0  0  0  0  0  0  0  0
    1.9375   -4.4875    0.0000 C   0  0  0  0  0  0  0  0  0  0  0  0
    7.5125   -5.5250    0.0000 C   0  0  0  0  0  0  0  0  0  0  0  0
   -0.4833   -4.4875    0.0000 O   0  0  0  0  0  0  0  0  0  0  0  0
    3.1500   -4.4542    0.0000 N   0  0  0  0  0  0  0  0  0  0  0  0
    6.2750   -4.8167    0.0000 C   0  0  0  0  0  0  0  0  0  0  0  0
   -0.4833   -5.8625    0.0000 O   0  0  0  0  0  0  0  0  0  0  0  0
    6.8917   -5.9042    0.0000 C   0  0  0  0  0  0  0  0  0  0  0  0
    7.5125   -4.8125    0.0000 C   0  0  0  0  0  0  0  0  0  0  0  0
    6.2750   -5.5250    0.0000 C   0  0  0  0  0  0  0  0  0  0  0  0
    6.8917   -4.4542    0.0000 C   0  0  0  0  0  0  0  0  0  0  0  0
    1.9375   -3.7917    0.0000 O   0  0  0  0  0  0  0  0  0  0  0  0
    8.1125   -5.8667    0.0000 O   0  0  0  0  0  0  0  0  0  0  0  0
    2.5375   -4.8292    0.0000 C   0  0  0  0  0  0  0  0  0  0  0  0
    3.7750   -4.8167    0.0000 C   0  0  0  0  0  0  0  0  0  0  0  0
    5.6417   -4.4542    0.0000 C   0  0  0  0  0  0  0  0  0  0  0  0
    4.4042   -4.4542    0.0000 C   0  0  0  0  0  0  0  0  0  0  0  0
    5.0125   -4.8167    0.0000 C   0  0  0  0  0  0  0  0  0  0  0  0
  2  1  1  0
  3  1  2  0
  4  2  2  0
  5  3  1  0
  6  5  2  0
  7  3  1  0
  8 13  2  0
  9  2  1  0
 10 19  1  0
 11 21  1  0
 12  4  1  0
 13 15  1  0
 14 16  2  0
 15 11  2  0
 16 11  1  0
  7 17  1  1
 18  8  1  0
 19  7  1  0
 20 10  1  0
 21 23  1  0
 22 20  1  0
 23 22  1  0
  6  4  1  0
  8 14  1  0
M  END
> <chembl_id>
CHEMBL1201251

> <chembl_pref_name>
ARBUTAMINE
