
     RDKit          2D

 27 32  0  0  1  0  0  0  0  0999 V2000
    0.5625   -1.4042    0.0000 C   0  0  0  0  0  0  0  0  0  0  0  0
    1.1000   -0.4917    0.0000 C   0  0  0  0  0  0  0  0  0  0  0  0
   -0.5208   -1.4042    0.0000 C   0  0  0  0  0  0  0  0  0  0  0  0
    1.0667   -2.4292    0.0000 C   0  0  0  0  0  0  0  0  0  0  0  0
   -1.0958   -2.4042    0.0000 C   0  0  0  0  0  0  0  0  0  0  0  0
    0.1000   -3.1542    0.0000 O   0  0  0  0  0  0  0  0  0  0  0  0
    0.5625    0.4833    0.0000 C   0  0  0  0  0  0  0  0  0  0  0  0
    1.0417    1.3208    0.0000 N   0  0  0  0  0  0  0  0  0  0  0  0
   -1.0458   -0.5250    0.0000 C   0  0  0  0  0  0  0  0  0  0  0  0
   -0.4625    0.4708    0.0000 C   0  0  0  0  0  0  0  0  0  0  0  0
   -0.1208   -0.7167    0.0000 C   0  0  0  0  0  0  0  0  0  0  0  0
    2.2667   -0.4917    0.0000 C   0  0  0  0  0  0  0  0  0  0  0  0
    2.2792   -2.4292    0.0000 C   0  0  0  0  0  0  0  0  0  0  0  0
    1.8875    1.7875    0.0000 C   0  0  0  0  0  0  0  0  0  0  0  0
   -2.2458   -2.4042    0.0000 C   0  0  0  0  0  0  0  0  0  0  0  0
   -0.0833    1.6000    0.0000 C   0  0  0  0  0  0  0  0  0  0  0  0
    1.9000    2.7583    0.0000 C   0  0  0  0  0  0  0  0  0  0  0  0
    2.3917    3.5833    0.0000 C   0  0  0  0  0  0  0  0  0  0  0  0
    1.4250    3.5958    0.0000 C   0  0  0  0  0  0  0  0  0  0  0  0
   -2.1333   -0.5250    0.0000 C   0  0  0  0  0  0  0  0  0  0  0  0
    2.8750   -1.4375    0.0000 C   0  0  0  0  0  0  0  0  0  0  0  0
    1.6000    0.4125    0.0000 O   0  0  0  0  0  0  0  0  0  0  0  0
    2.8417   -3.3792    0.0000 O   0  0  0  0  0  0  0  0  0  0  0  0
   -2.7833   -1.4375    0.0000 C   0  0  0  0  0  0  0  0  0  0  0  0
   -2.7833   -3.2542    0.0000 O   0  0  0  0  0  0  0  0  0  0  0  0
    0.0556    1.3453    0.0000 H   0  0  0  0  0  0  0  0  0  0  0  0
    1.3829   -3.3779    0.0000 H   0  0  0  0  0  0  0  0  0  0  0  0
  2  1  1  0
  3  1  1  0
  4  1  1  0
  5  3  1  0
  4  6  1  0
  7  2  1  0
  8 16  1  0
  9  3  2  0
 10  9  1  0
  1 11  1  1
 12  2  1  0
 13  4  1  0
 14  8  1  0
 15  5  2  0
 16 11  1  0
 17 14  1  0
 18 17  1  0
 19 17  1  0
 20  9  1  0
 21 13  1  0
  2 22  1  1
 23 13  2  0
 24 20  2  0
 25 15  1  0
  5  6  1  0
  7  8  1  0
 12 21  1  0
  7 10  1  0
 15 24  1  0
 18 19  1  0
  7 26  1  6
  4 27  1  1
M  END
> <chembl_id>
CHEMBL19019

> <chembl_pref_name>
NALTREXONE
