
     RDKit          2D

 26 28  0  0  0  0  0  0  0  0999 V2000
    1.5750   -4.5875    0.0000 S   0  0  0  0  0  0  0  0  0  0  0  0
    0.9500   -4.9500    0.0000 C   0  0  0  0  0  0  0  0  0  0  0  0
    2.1958   -4.9500    0.0000 N   0  0  0  0  0  0  0  0  0  0  0  0
   -0.9250   -4.5917    0.0000 S   0  0  0  0  0  0  0  0  0  0  0  0
   -0.3125   -4.9500    0.0000 C   0  0  0  0  0  0  0  0  0  0  0  0
    0.9500   -5.6542    0.0000 C   0  0  0  0  0  0  0  0  0  0  0  0
    1.5750   -6.0125    0.0000 N   0  0  0  0  0  0  0  0  0  0  0  0
    2.1958   -5.6542    0.0000 C   0  0  0  0  0  0  0  0  0  0  0  0
    0.3125   -4.5875    0.0000 C   0  0  0  0  0  0  0  0  0  0  0  0
   -0.3125   -5.6542    0.0000 C   0  0  0  0  0  0  0  0  0  0  0  0
    0.3125   -6.0125    0.0000 C   0  0  0  0  0  0  0  0  0  0  0  0
    1.9250   -3.9667    0.0000 O   0  0  0  0  0  0  0  0  0  0  0  0
    1.2167   -3.9667    0.0000 O   0  0  0  0  0  0  0  0  0  0  0  0
   -0.5750   -3.9792    0.0000 O   0  0  0  0  0  0  0  0  0  0  0  0
   -1.2833   -3.9792    0.0000 O   0  0  0  0  0  0  0  0  0  0  0  0
   -1.5417   -4.9458    0.0000 N   0  0  0  0  0  0  0  0  0  0  0  0
    3.4250   -5.6542    0.0000 S   0  0  0  0  0  0  0  0  0  0  0  0
   -0.9250   -6.0042    0.0000 Cl  0  0  0  0  0  0  0  0  0  0  0  0
    2.8125   -6.0042    0.0000 C   0  0  0  0  0  0  0  0  0  0  0  0
    4.6417   -5.6750    0.0000 C   0  0  0  0  0  0  0  0  0  0  0  0
    4.0250   -6.0125    0.0000 C   0  0  0  0  0  0  0  0  0  0  0  0
    4.6417   -4.9750    0.0000 C   0  0  0  0  0  0  0  0  0  0  0  0
    5.2542   -6.0292    0.0000 C   0  0  0  0  0  0  0  0  0  0  0  0
    5.2417   -4.6125    0.0000 C   0  0  0  0  0  0  0  0  0  0  0  0
    5.8750   -5.6667    0.0000 C   0  0  0  0  0  0  0  0  0  0  0  0
    5.8625   -4.9750    0.0000 C   0  0  0  0  0  0  0  0  0  0  0  0
  2  1  1  0
  3  1  1  0
  4  5  1  0
  5  9  2  0
  6  2  2  0
  7  8  2  0
  8  3  1  0
  9  2  1  0
 10  5  1  0
 11  6  1  0
 12  1  2  0
 13  1  2  0
 14  4  2  0
 15  4  2  0
 16  4  1  0
 17 19  1  0
 18 10  1  0
 19  8  1  0
 20 21  1  0
 21 17  1  0
 22 20  1  0
 23 20  2  0
 24 22  2  0
 25 23  1  0
 26 24  1  0
  6  7  1  0
 11 10  2  0
 25 26  2  0
M  END
> <chembl_id>
CHEMBL1201039

> <chembl_pref_name>
BENZTHIAZIDE
