
     RDKit          2D

 26 29  0  0  1  0  0  0  0  0999 V2000
    4.1417   -5.1792    0.0000 C   0  0  0  0  0  0  0  0  0  0  0  0
    4.1417   -5.8917    0.0000 C   0  0  0  0  0  0  0  0  0  0  0  0
    3.5250   -4.8292    0.0000 C   0  0  0  0  0  0  0  0  0  0  0  0
    3.5250   -6.2500    0.0000 C   0  0  0  0  0  0  0  0  0  0  0  0
    2.9042   -5.1792    0.0000 C   0  0  0  0  0  0  0  0  0  0  0  0
    2.9042   -5.8917    0.0000 C   0  0  0  0  0  0  0  0  0  0  0  0
    4.7542   -4.8375    0.0000 C   0  0  0  0  0  0  0  0  0  0  0  0
    3.5250   -4.1125    0.0000 O   0  0  0  0  0  0  0  0  0  0  0  0
    3.5250   -6.9625    0.0000 O   0  0  0  0  0  0  0  0  0  0  0  0
    6.6000   -3.7542    0.0000 C   0  0  0  0  0  0  0  0  0  0  0  0
    4.7625   -6.2500    0.0000 O   0  0  0  0  0  0  0  0  0  0  0  0
    5.9792   -4.1125    0.0000 C   0  0  0  0  0  0  0  0  0  0  0  0
    4.7542   -4.1125    0.0000 C   0  0  0  0  0  0  0  0  0  0  0  0
    5.3667   -5.1792    0.0000 C   0  0  0  0  0  0  0  0  0  0  0  0
    5.3667   -3.7542    0.0000 C   0  0  0  0  0  0  0  0  0  0  0  0
    5.9792   -4.8292    0.0000 C   0  0  0  0  0  0  0  0  0  0  0  0
    7.2042   -4.1125    0.0000 C   0  0  0  0  0  0  0  0  0  0  0  0
    6.6000   -3.0417    0.0000 C   0  0  0  0  0  0  0  0  0  0  0  0
    7.8250   -3.0417    0.0000 C   0  0  0  0  0  0  0  0  0  0  0  0
    7.2042   -2.6917    0.0000 C   0  0  0  0  0  0  0  0  0  0  0  0
    7.8250   -3.7625    0.0000 C   0  0  0  0  0  0  0  0  0  0  0  0
    8.4375   -2.6917    0.0000 Cl  0  0  0  0  0  0  0  0  0  0  0  0
    2.3000   -4.8292    0.0000 C   0  0  0  0  0  0  0  0  0  0  0  0
    2.3000   -6.2500    0.0000 C   0  0  0  0  0  0  0  0  0  0  0  0
    1.6792   -5.1792    0.0000 C   0  0  0  0  0  0  0  0  0  0  0  0
    1.6792   -5.8917    0.0000 C   0  0  0  0  0  0  0  0  0  0  0  0
  2  1  2  0
  3  1  1  0
  4  2  1  0
  5  3  1  0
  6  5  2  0
  7  1  1  1
  8  3  2  0
  9  4  2  0
 12 10  1  6
 11  2  1  0
 12 16  1  0
 13  7  1  0
 14  7  1  0
 15 13  1  0
 16 14  1  0
 17 10  2  0
 18 10  1  0
 19 20  1  0
 20 18  2  0
 21 17  1  0
 22 19  1  0
 23  5  1  0
 24  6  1  0
 25 23  2  0
 26 25  1  0
 12 15  1  0
  6  4  1  0
 24 26  2  0
 19 21  2  0
M  END
> <chembl_id>
CHEMBL1450

> <chembl_pref_name>
ATOVAQUONE
