
     RDKit          2D

 22 24  0  0  0  0  0  0  0  0999 V2000
   -1.8374    0.6226    0.0000 N   0  0  0  0  0  0  0  0  0  0  0  0
   -2.2088    1.6738    0.0000 N   0  0  0  0  0  0  0  0  0  0  0  0
   -1.2903    0.9832    0.0000 N   0  0  0  0  0  0  0  0  0  0  0  0
   -2.4237    0.9745    0.0000 C   0  0  0  0  0  0  0  0  0  0  0  0
    1.2421   -1.9383    0.0000 N   0  0  0  0  0  0  0  0  0  0  0  0
   -4.8873   -1.9069    0.0000 N   0  0  0  0  0  0  0  0  0  0  0  0
   -1.5380    1.6715    0.0000 C   0  0  0  0  0  0  0  0  0  0  0  0
   -1.8399   -0.1232    0.0000 C   0  0  0  0  0  0  0  0  0  0  0  0
   -4.2822   -1.5442    0.0000 C   0  0  0  0  0  0  0  0  0  0  0  0
    0.6302   -1.5608    0.0000 C   0  0  0  0  0  0  0  0  0  0  0  0
   -2.4328   -0.4629    0.0000 C   0  0  0  0  0  0  0  0  0  0  0  0
   -1.2286   -0.4670    0.0000 C   0  0  0  0  0  0  0  0  0  0  0  0
   -1.2310   -1.1920    0.0000 C   0  0  0  0  0  0  0  0  0  0  0  0
   -0.6023   -0.1066    0.0000 C   0  0  0  0  0  0  0  0  0  0  0  0
   -3.0566   -0.1233    0.0000 C   0  0  0  0  0  0  0  0  0  0  0  0
   -2.4352   -1.1712    0.0000 C   0  0  0  0  0  0  0  0  0  0  0  0
    0.0190   -1.1838    0.0000 C   0  0  0  0  0  0  0  0  0  0  0  0
   -3.6602   -1.1713    0.0000 C   0  0  0  0  0  0  0  0  0  0  0  0
   -0.6073   -1.5566    0.0000 C   0  0  0  0  0  0  0  0  0  0  0  0
    0.0214   -0.4713    0.0000 C   0  0  0  0  0  0  0  0  0  0  0  0
   -3.6661   -0.4670    0.0000 C   0  0  0  0  0  0  0  0  0  0  0  0
   -3.0572   -1.5316    0.0000 C   0  0  0  0  0  0  0  0  0  0  0  0
  2  4  2  0
  3  1  1  0
  4  1  1  0
  5 10  3  0
  6  9  3  0
  7  3  2  0
  8  1  1  0
  9 18  1  0
 10 17  1  0
 11  8  1  0
 12  8  1  0
 13 12  1  0
 14 12  2  0
 15 11  1  0
 16 11  2  0
 17 20  2  0
 18 22  2  0
 19 13  2  0
 20 14  1  0
 21 15  2  0
 22 16  1  0
  7  2  1  0
 17 19  1  0
 18 21  1  0
M  END
> <chembl_id>
CHEMBL1444

> <chembl_pref_name>
LETROZOLE
