
     RDKit          2D

 38 39  0  0  0  0  0  0  0  0999 V2000
    7.6167   -0.8917    0.0000 C   0  0  0  0  0  0  0  0  0  0  0  0
    8.3311   -0.4792    0.0000 C   0  0  0  0  0  0  0  0  0  0  0  0
    9.0456   -0.8917    0.0000 C   0  0  0  0  0  0  0  0  0  0  0  0
    8.3311    0.3458    0.0000 O   0  0  0  0  0  0  0  0  0  0  0  0
    9.0456   -1.7167    0.0000 C   0  0  0  0  0  0  0  0  0  0  0  0
    8.3316   -2.1332    0.0000 O   0  0  0  0  0  0  0  0  0  0  0  0
    9.7605   -2.1332    0.0000 O   0  0  0  0  0  0  0  0  0  0  0  0
    6.9022   -0.4817    0.0000 O   0  0  0  0  0  0  0  0  0  0  0  0
    7.6167   -1.7192    0.0000 O   0  0  0  0  0  0  0  0  0  0  0  0
   -0.1306   -0.2541    0.0000 C   0  0  0  0  0  0  0  0  0  0  0  0
   -0.1318   -1.0815    0.0000 C   0  0  0  0  0  0  0  0  0  0  0  0
    0.5831   -1.4944    0.0000 C   0  0  0  0  0  0  0  0  0  0  0  0
    0.5813    0.1586    0.0000 C   0  0  0  0  0  0  0  0  0  0  0  0
    1.2966   -0.2505    0.0000 C   0  0  0  0  0  0  0  0  0  0  0  0
    1.2969   -1.0769    0.0000 C   0  0  0  0  0  0  0  0  0  0  0  0
    2.0830   -1.3321    0.0000 N   0  0  0  0  0  0  0  0  0  0  0  0
    2.5686   -0.6633    0.0000 C   0  0  0  0  0  0  0  0  0  0  0  0
    2.0826    0.0051    0.0000 C   0  0  0  0  0  0  0  0  0  0  0  0
    3.3936   -0.6630    0.0000 O   0  0  0  0  0  0  0  0  0  0  0  0
   -0.8452    0.1582    0.0000 F   0  0  0  0  0  0  0  0  0  0  0  0
    2.4875    0.7250    0.0000 C   0  0  0  0  0  0  0  0  0  0  0  0
    3.3124    0.7343    0.0000 C   0  0  0  0  0  0  0  0  0  0  0  0
    3.8013    0.0754    0.0000 N   0  0  0  0  0  0  0  0  0  0  0  0
    4.5830    0.3391    0.0000 C   0  0  0  0  0  0  0  0  0  0  0  0
    4.5737    1.1641    0.0000 C   0  0  0  0  0  0  0  0  0  0  0  0
    3.7863    1.4101    0.0000 C   0  0  0  0  0  0  0  0  0  0  0  0
    3.5203    2.1910    0.0000 C   0  0  0  0  0  0  0  0  0  0  0  0
    5.2558   -0.1383    0.0000 C   0  0  0  0  0  0  0  0  0  0  0  0
    5.2356    1.6566    0.0000 C   0  0  0  0  0  0  0  0  0  0  0  0
    5.9931    1.3296    0.0000 N   0  0  0  0  0  0  0  0  0  0  0  0
    5.1401    2.4760    0.0000 O   0  0  0  0  0  0  0  0  0  0  0  0
    6.6550    1.8220    0.0000 C   0  0  0  0  0  0  0  0  0  0  0  0
    7.4124    1.4950    0.0000 C   0  0  0  0  0  0  0  0  0  0  0  0
    8.0743    1.9874    0.0000 N   0  0  0  0  0  0  0  0  0  0  0  0
    8.8317    1.6604    0.0000 C   0  0  0  0  0  0  0  0  0  0  0  0
    7.9788    2.8069    0.0000 C   0  0  0  0  0  0  0  0  0  0  0  0
    8.6407    3.2993    0.0000 C   0  0  0  0  0  0  0  0  0  0  0  0
    9.4936    2.1529    0.0000 C   0  0  0  0  0  0  0  0  0  0  0  0
  1  2  1  0
  2  3  1  0
  2  4  1  1
  3  5  1  0
  5  6  1  0
  5  7  2  0
  1  8  1  0
  1  9  2  0
 15 16  1  0
 26 27  1  0
 16 17  1  0
 24 28  1  0
 17 18  1  0
 25 29  1  0
 18 14  1  0
 29 30  1  0
 14 13  2  0
 29 31  2  0
 17 19  2  0
 30 32  1  0
 13 10  1  0
 32 33  1  0
 10 20  1  0
 33 34  1  0
 14 15  1  0
 34 35  1  0
 18 21  2  0
 34 36  1  0
 10 11  2  0
 36 37  1  0
 21 22  1  0
 35 38  1  0
 22 23  1  0
 11 12  1  0
 12 15  2  0
 23 24  1  0
 24 25  2  0
 25 26  1  0
 26 22  2  0
M  END
> <chembl_id>
CHEMBL1567

> <chembl_pref_name>
SUNITINIB MALATE
