
     RDKit          2D

 73 83  0  0  0  0  0  0  0  0999 V2000
    6.1667   -0.4625    0.0000 C   0  0  0  0  0  0  0  0  0  0  0  0
    6.7875   -0.8167    0.0000 C   0  0  0  0  0  0  0  0  0  0  0  0
    5.5375   -0.8167    0.0000 C   0  0  0  0  0  0  0  0  0  0  0  0
    6.1667    0.2500    0.0000 C   0  0  0  0  0  0  0  0  0  0  0  0
    4.9125   -0.4625    0.0000 C   0  0  0  0  0  0  0  0  0  0  0  0
    4.9125    0.2500    0.0000 C   0  0  0  0  0  0  0  0  0  0  0  0
    5.5375    0.6125    0.0000 C   0  0  0  0  0  0  0  0  0  0  0  0
    7.4042   -0.4625    0.0000 N   0  0  0  0  0  0  0  0  0  0  0  0
    6.2875   -3.1542    0.0000 C   0  0  0  0  0  0  0  0  0  0  0  0
    6.7750   -1.4250    0.0000 C   0  0  0  0  0  0  0  0  0  0  0  0
    5.6375   -3.1542    0.0000 C   0  0  0  0  0  0  0  0  0  0  0  0
    6.6500   -2.5292    0.0000 C   0  0  0  0  0  0  0  0  0  0  0  0
    6.3042   -1.9167    0.0000 C   0  0  0  0  0  0  0  0  0  0  0  0
    5.2167   -2.5500    0.0000 C   0  0  0  0  0  0  0  0  0  0  0  0
    5.5917   -1.9125    0.0000 C   0  0  0  0  0  0  0  0  0  0  0  0
    7.4042    0.2500    0.0000 C   0  0  0  0  0  0  0  0  0  0  0  0
    4.2667   -0.8000    0.0000 O   0  0  0  0  0  0  0  0  0  0  0  0
    4.2667    0.5875    0.0000 O   0  0  0  0  0  0  0  0  0  0  0  0
    6.6792   -3.7750    0.0000 O   0  0  0  0  0  0  0  0  0  0  0  0
    5.3250   -3.8042    0.0000 O   0  0  0  0  0  0  0  0  0  0  0  0
    6.7875    0.6125    0.0000 C   0  0  0  0  0  0  0  0  0  0  0  0
    3.6667   -0.4167    0.0000 C   0  0  0  0  0  0  0  0  0  0  0  0
    6.3542   -4.4042    0.0000 C   0  0  0  0  0  0  0  0  0  0  0  0
    3.6667    0.2083    0.0000 C   0  0  0  0  0  0  0  0  0  0  0  0
    4.6250   -3.9292    0.0000 C   0  0  0  0  0  0  0  0  0  0  0  0
   -1.5208   -1.9042    0.0000 C   0  0  0  0  0  0  0  0  0  0  0  0
   -2.1958   -1.9125    0.0000 C   0  0  0  0  0  0  0  0  0  0  0  0
   -1.1833   -1.3000    0.0000 C   0  0  0  0  0  0  0  0  0  0  0  0
   -2.5333   -2.5042    0.0000 C   0  0  0  0  0  0  0  0  0  0  0  0
   -1.1625   -2.4917    0.0000 C   0  0  0  0  0  0  0  0  0  0  0  0
   -1.8000   -2.8000    0.0000 O   0  0  0  0  0  0  0  0  0  0  0  0
   -1.5375   -0.7042    0.0000 C   0  0  0  0  0  0  0  0  0  0  0  0
   -2.5500   -1.3250    0.0000 C   0  0  0  0  0  0  0  0  0  0  0  0
   -0.4958   -1.2875    0.0000 C   0  0  0  0  0  0  0  0  0  0  0  0
   -2.2250   -0.7250    0.0000 C   0  0  0  0  0  0  0  0  0  0  0  0
   -1.2000   -0.1167    0.0000 N   0  0  0  0  0  0  0  0  0  0  0  0
   -1.8625   -1.3042    0.0000 C   0  0  0  0  0  0  0  0  0  0  0  0
   -0.1375   -1.8792    0.0000 C   0  0  0  0  0  0  0  0  0  0  0  0
   -0.4708   -2.4792    0.0000 C   0  0  0  0  0  0  0  0  0  0  0  0
   -3.2208   -2.5250    0.0000 C   0  0  0  0  0  0  0  0  0  0  0  0
   -1.8833   -0.1167    0.0000 C   0  0  0  0  0  0  0  0  0  0  0  0
   -3.2375   -1.3375    0.0000 C   0  0  0  0  0  0  0  0  0  0  0  0
   -3.5708   -1.9375    0.0000 C   0  0  0  0  0  0  0  0  0  0  0  0
   -3.5625   -3.1125    0.0000 O   0  0  0  0  0  0  0  0  0  0  0  0
   -0.1333   -3.0750    0.0000 O   0  0  0  0  0  0  0  0  0  0  0  0
   -0.6083    0.2333    0.0000 C   0  0  0  0  0  0  0  0  0  0  0  0
   -2.0515    0.1536    0.0000 H   0  0  0  0  0  0  0  0  0  0  0  0
   -0.9304   -3.4644    0.0000 H   0  0  0  0  0  0  0  0  0  0  0  0
   -0.6968   -0.4263    0.0000 H   0  0  0  0  0  0  0  0  0  0  0  0
   12.1792   -1.8792    0.0000 C   0  0  0  0  0  0  0  0  0  0  0  0
   11.5042   -1.8792    0.0000 C   0  0  0  0  0  0  0  0  0  0  0  0
   12.5167   -1.3042    0.0000 C   0  0  0  0  0  0  0  0  0  0  0  0
   11.1667   -2.4667    0.0000 C   0  0  0  0  0  0  0  0  0  0  0  0
   12.5167   -2.4667    0.0000 C   0  0  0  0  0  0  0  0  0  0  0  0
   11.7875   -3.0917    0.0000 O   0  0  0  0  0  0  0  0  0  0  0  0
   12.1792   -0.7250    0.0000 C   0  0  0  0  0  0  0  0  0  0  0  0
   12.4917   -0.1875    0.0000 N   0  0  0  0  0  0  0  0  0  0  0  0
   11.1667   -1.3042    0.0000 C   0  0  0  0  0  0  0  0  0  0  0  0
   13.1875   -1.3042    0.0000 C   0  0  0  0  0  0  0  0  0  0  0  0
   11.5000   -0.7250    0.0000 C   0  0  0  0  0  0  0  0  0  0  0  0
   12.8417   -1.8917    0.0000 C   0  0  0  0  0  0  0  0  0  0  0  0
   13.5250   -1.8792    0.0000 C   0  0  0  0  0  0  0  0  0  0  0  0
   13.1792   -2.4667    0.0000 C   0  0  0  0  0  0  0  0  0  0  0  0
   10.4917   -2.4667    0.0000 C   0  0  0  0  0  0  0  0  0  0  0  0
   12.8500   -0.3375    0.0000 C   0  0  0  0  0  0  0  0  0  0  0  0
   10.4917   -1.3042    0.0000 C   0  0  0  0  0  0  0  0  0  0  0  0
   10.1625   -1.8792    0.0000 C   0  0  0  0  0  0  0  0  0  0  0  0
   12.8667    0.3125    0.0000 C   0  0  0  0  0  0  0  0  0  0  0  0
   13.4667   -3.0667    0.0000 O   0  0  0  0  0  0  0  0  0  0  0  0
   10.1292   -3.1042    0.0000 O   0  0  0  0  0  0  0  0  0  0  0  0
   10.4292   -3.7292    0.0000 C   0  0  0  0  0  0  0  0  0  0  0  0
   11.6805    0.1418    0.0000 H   0  0  0  0  0  0  0  0  0  0  0  0
   13.0150   -0.4372    0.0000 H   0  0  0  0  0  0  0  0  0  0  0  0
  2  1  2  0
  3  1  1  0
  4  1  1  0
  5  3  2  0
  6  7  2  0
  7  4  1  0
  8  2  1  0
  9 12  2  0
 10  2  1  0
 11 14  2  0
 12 13  1  0
 13 10  1  0
 14 15  1  0
 15 13  2  0
 16 21  1  0
 17  5  1  0
 18  6  1  0
 19  9  1  0
 20 11  1  0
 21  4  2  0
 22 17  1  0
 23 19  1  0
 24 18  1  0
 25 20  1  0
 16  8  2  0
  6  5  1  0
 11  9  1  0
 27 26  1  0
 28 26  1  0
 29 27  1  0
 30 26  1  0
 31 30  1  0
 32 28  1  0
 33 27  2  0
 34 28  1  0
 35 32  1  0
 36 41  1  0
 26 37  1  1
 38 39  1  0
 39 30  1  0
 40 29  2  0
 41 37  1  0
 42 33  1  0
 43 42  2  0
 44 40  1  0
 39 45  1  6
 46 36  1  0
 29 31  1  0
 32 36  1  0
 38 34  2  0
 35 33  1  0
 43 40  1  0
 32 47  1  6
 30 48  1  1
 28 49  1  1
 51 50  1  0
 52 50  1  0
 53 51  2  0
 54 50  1  0
 55 54  1  0
 56 52  1  0
 57 65  1  0
 58 51  1  0
 59 52  1  0
 60 56  1  0
 50 61  1  1
 62 63  1  0
 63 54  1  0
 64 53  1  0
 65 61  1  0
 66 58  2  0
 67 66  1  0
 68 57  1  0
 63 69  1  6
 70 64  1  0
 71 70  1  0
 55 53  1  0
 56 57  1  0
 62 59  2  0
 60 58  1  0
 67 64  2  0
 56 72  1  6
 52 73  1  1
M  END
> <chembl_id>
CHEMBL3833406

> <chembl_pref_name>
PAPAVERETUM
