
     RDKit          2D

 41 46  0  0  0  0  0  0  0  0999 V2000
   -5.2013    2.0718    0.0000 C   0  0  0  0  0  0  0  0  0  0  0  0
   -5.9158    1.6593    0.0000 C   0  0  0  0  0  0  0  0  0  0  0  0
   -5.9158    0.8342    0.0000 C   0  0  0  0  0  0  0  0  0  0  0  0
   -5.2013    0.4217    0.0000 C   0  0  0  0  0  0  0  0  0  0  0  0
   -4.4868    0.8342    0.0000 N   0  0  0  0  0  0  0  0  0  0  0  0
   -4.4868    1.6593    0.0000 C   0  0  0  0  0  0  0  0  0  0  0  0
   -5.2013   -0.4033    0.0000 C   0  0  0  0  0  0  0  0  0  0  0  0
   -4.4868   -0.8158    0.0000 N   0  0  0  0  0  0  0  0  0  0  0  0
   -3.7724   -0.4033    0.0000 C   0  0  0  0  0  0  0  0  0  0  0  0
   -3.7724    0.4217    0.0000 N   0  0  0  0  0  0  0  0  0  0  0  0
   -4.4868   -1.6408    0.0000 C   0  0  0  0  0  0  0  0  0  0  0  0
   -3.7724   -2.0533    0.0000 C   0  0  0  0  0  0  0  0  0  0  0  0
   -3.0579   -1.6408    0.0000 O   0  0  0  0  0  0  0  0  0  0  0  0
   -3.0579   -0.8158    0.0000 C   0  0  0  0  0  0  0  0  0  0  0  0
   -2.3374    2.0797    0.0000 C   0  0  0  0  0  0  0  0  0  0  0  0
   -2.9965    1.5834    0.0000 C   0  0  0  0  0  0  0  0  0  0  0  0
   -3.0194    0.7589    0.0000 C   0  0  0  0  0  0  0  0  0  0  0  0
   -2.3889    0.2267    0.0000 C   0  0  0  0  0  0  0  0  0  0  0  0
   -1.5799    0.3878    0.0000 C   0  0  0  0  0  0  0  0  0  0  0  0
   -1.2014    1.1209    0.0000 C   0  0  0  0  0  0  0  0  0  0  0  0
   -1.5384    1.8738    0.0000 S   0  0  0  0  0  0  0  0  0  0  0  0
   -3.2336    3.2164    0.0000 C   0  0  0  0  0  0  0  0  0  0  0  0
   -3.8814    2.7054    0.0000 C   0  0  0  0  0  0  0  0  0  0  0  0
   -3.7628    1.8890    0.0000 C   0  0  0  0  0  0  0  0  0  0  0  0
   -2.4673    2.9109    0.0000 C   0  0  0  0  0  0  0  0  0  0  0  0
   -2.6540   -0.5545    0.0000 C   0  0  0  0  0  0  0  0  0  0  0  0
   -2.1099   -1.1747    0.0000 C   0  0  0  0  0  0  0  0  0  0  0  0
   -1.3008   -1.0136    0.0000 C   0  0  0  0  0  0  0  0  0  0  0  0
   -1.0357   -0.2323    0.0000 C   0  0  0  0  0  0  0  0  0  0  0  0
   -6.6302    0.4217    0.0000 O   0  0  0  0  0  0  0  0  0  0  0  0
   -6.6302    2.0718    0.0000 O   0  0  0  0  0  0  0  0  0  0  0  0
   -5.9364   -0.7777    0.0000 O   0  0  0  0  0  0  0  0  0  0  0  0
   -0.2193   -0.1137    0.0000 F   0  0  0  0  0  0  0  0  0  0  0  0
   -0.7567   -1.6337    0.0000 F   0  0  0  0  0  0  0  0  0  0  0  0
   -3.0579    0.0092    0.0000 H   0  0  0  0  0  0  0  0  0  0  0  0
   -7.3221    0.8711    0.0000 C   0  0  0  0  0  0  0  0  0  0  0  0
   -8.0572    0.4965    0.0000 O   0  0  0  0  0  0  0  0  0  0  0  0
   -8.7491    0.9459    0.0000 C   0  0  0  0  0  0  0  0  0  0  0  0
   -9.4636    0.5334    0.0000 O   0  0  0  0  0  0  0  0  0  0  0  0
  -10.1987    0.9079    0.0000 C   0  0  0  0  0  0  0  0  0  0  0  0
   -8.7491    1.7709    0.0000 O   0  0  0  0  0  0  0  0  0  0  0  0
  1  2  1  0
  2  3  1  0
  3  4  2  0
  4  5  1  0
  5  6  1  0
  1  6  2  0
  7  8  1  0
  8  9  1  0
  9 10  1  0
  4  7  1  0
  5 10  1  0
 11 12  1  0
 12 13  1  0
 13 14  1  0
  8 11  1  0
  9 14  1  0
 16 17  1  0
 17 18  1  0
 19 20  1  0
 20 21  1  0
 21 15  1  0
 22 23  1  0
 23 24  2  0
 22 25  2  0
 26 27  2  0
 27 28  1  0
 28 29  2  0
 15 25  1  0
 16 15  2  0
 18 26  1  0
 19 29  1  0
 19 18  2  0
 17 10  1  6
  3 30  1  0
  2 31  2  0
  7 32  2  0
 29 33  1  0
 28 34  1  0
  9 35  1  1
 24 16  1  0
 30 36  1  0
 36 37  1  0
 37 38  1  0
 38 39  1  0
 39 40  1  0
 38 41  2  0
M  END
> <chembl_id>
CHEMBL4297503

> <chembl_pref_name>
BALOXAVIR MARBOXIL
