
     RDKit          2D

 13 13  0  0  0  0  0  0  0  0999 V2000
   -0.0833    0.2458    0.0000 O   0  0  0  0  0  0  0  0  0  0  0  0
   -1.3208   -0.4792    0.0000 C   0  0  0  0  0  0  0  0  0  0  0  0
   -2.5625    0.2250    0.0000 C   0  0  0  0  0  0  0  0  0  0  0  0
    1.1792   -0.4625    0.0000 C   0  0  0  0  0  0  0  0  0  0  0  0
    2.4000    0.2458    0.0000 C   0  0  0  0  0  0  0  0  0  0  0  0
    3.6417   -0.4625    0.0000 O   0  0  0  0  0  0  0  0  0  0  0  0
    1.1792    2.4000    0.0000 O   0  0  0  0  0  0  0  0  0  0  0  0
    2.4000    1.6958    0.0000 C   0  0  0  0  0  0  0  0  0  0  0  0
   -1.3208   -1.9042    0.0000 C   0  0  0  0  0  0  0  0  0  0  0  0
   -2.5625    1.6708    0.0000 C   0  0  0  0  0  0  0  0  0  0  0  0
   -3.8000   -0.4792    0.0000 C   0  0  0  0  0  0  0  0  0  0  0  0
   -2.5625   -2.6167    0.0000 C   0  0  0  0  0  0  0  0  0  0  0  0
   -3.8000   -1.9042    0.0000 C   0  0  0  0  0  0  0  0  0  0  0  0
  2  1  1  0
  3  2  2  0
  4  1  1  0
  5  4  1  0
  6  5  1  0
  7  8  1  0
  8  5  1  0
  9  2  1  0
 10  3  1  0
 11  3  1  0
 12  9  2  0
 13 12  1  0
 11 13  2  0
M  END
> <chembl_id>
CHEMBL229128

> <chembl_pref_name>
MEPHENESIN
