
     RDKit          2D

 26 27  0  0  0  0  0  0  0  0999 V2000
    0.5625   -6.7417    0.0000 O   0  0  0  0  0  0  0  0  0  0  0  0
    3.0500   -5.2958    0.0000 N   0  0  0  0  0  0  0  0  0  0  0  0
    2.3417   -5.3000    0.0000 C   0  0  0  0  0  0  0  0  0  0  0  0
    2.3417   -4.5875    0.0000 C   0  0  0  0  0  0  0  0  0  0  0  0
    3.6542   -5.6458    0.0000 C   0  0  0  0  0  0  0  0  0  0  0  0
    3.0500   -4.5875    0.0000 C   0  0  0  0  0  0  0  0  0  0  0  0
    1.7250   -4.2292    0.0000 N   0  0  0  0  0  0  0  0  0  0  0  0
    1.1083   -4.5875    0.0000 C   0  0  0  0  0  0  0  0  0  0  0  0
    3.6500   -6.3542    0.0000 C   0  0  0  0  0  0  0  0  0  0  0  0
    4.2667   -5.3000    0.0000 C   0  0  0  0  0  0  0  0  0  0  0  0
    3.6625   -4.2375    0.0000 C   0  0  0  0  0  0  0  0  0  0  0  0
    0.4958   -4.2333    0.0000 C   0  0  0  0  0  0  0  0  0  0  0  0
    1.8458   -5.8000    0.0000 O   0  0  0  0  0  0  0  0  0  0  0  0
    1.1083   -5.2958    0.0000 O   0  0  0  0  0  0  0  0  0  0  0  0
    4.2708   -4.5958    0.0000 C   0  0  0  0  0  0  0  0  0  0  0  0
    3.0333   -6.7042    0.0000 O   0  0  0  0  0  0  0  0  0  0  0  0
   -0.1167   -4.5875    0.0000 C   0  0  0  0  0  0  0  0  0  0  0  0
    4.8750   -5.6583    0.0000 Cl  0  0  0  0  0  0  0  0  0  0  0  0
    0.4958   -3.5250    0.0000 N   0  0  0  0  0  0  0  0  0  0  0  0
    4.2583   -6.7125    0.0000 O   0  0  0  0  0  0  0  0  0  0  0  0
   -0.1167   -5.2875    0.0000 C   0  0  0  0  0  0  0  0  0  0  0  0
   -0.7292   -4.2292    0.0000 C   0  0  0  0  0  0  0  0  0  0  0  0
   -1.3417   -4.5833    0.0000 C   0  0  0  0  0  0  0  0  0  0  0  0
   -0.7250   -5.6458    0.0000 C   0  0  0  0  0  0  0  0  0  0  0  0
   -1.3417   -5.2917    0.0000 C   0  0  0  0  0  0  0  0  0  0  0  0
    3.0417   -3.8792    0.0000 H   0  0  0  0  0  0  0  0  0  0  0  0
  3  2  1  0
  4  6  1  0
  5  2  1  0
  6  2  1  0
  4  7  1  1
  8  7  1  0
  9  5  1  0
 10  5  2  0
 11  6  1  0
 12  8  1  0
 13  3  2  0
 14  8  2  0
 15 10  1  0
 16  9  2  0
 17 12  1  0
 18 10  1  0
 12 19  1  1
 20  9  1  0
 21 17  1  0
 22 17  2  0
 23 22  1  0
 24 21  2  0
 25 24  1  0
  6 26  1  6
  3  4  1  0
 11 15  1  0
 25 23  2  0
M  END
> <chembl_id>
CHEMBL1200610

> <chembl_pref_name>
LORACARBEF
