
     RDKit          2D

 33 37  0  0  0  0  0  0  0  0999 V2000
    5.8364    0.6713    0.0000 C   0  0  0  0  0  0  0  0  0  0  0  0
    5.8364   -0.1537    0.0000 C   0  0  0  0  0  0  0  0  0  0  0  0
    6.5509   -0.5662    0.0000 C   0  0  0  0  0  0  0  0  0  0  0  0
    7.2653   -0.1537    0.0000 C   0  0  0  0  0  0  0  0  0  0  0  0
    7.2653    0.6713    0.0000 C   0  0  0  0  0  0  0  0  0  0  0  0
    6.5509    1.0838    0.0000 C   0  0  0  0  0  0  0  0  0  0  0  0
    6.7224   -1.3732    0.0000 C   0  0  0  0  0  0  0  0  0  0  0  0
    7.5429   -1.4594    0.0000 C   0  0  0  0  0  0  0  0  0  0  0  0
    7.8784   -0.7057    0.0000 O   0  0  0  0  0  0  0  0  0  0  0  0
    7.9554   -2.1739    0.0000 C   0  0  0  0  0  0  0  0  0  0  0  0
    8.7804   -2.1739    0.0000 N   0  0  0  0  0  0  0  0  0  0  0  0
    7.5429   -2.8883    0.0000 O   0  0  0  0  0  0  0  0  0  0  0  0
    5.1219    1.0838    0.0000 N   0  0  0  0  0  0  0  0  0  0  0  0
    5.1219    1.9088    0.0000 C   0  0  0  0  0  0  0  0  0  0  0  0
    4.4075    2.3213    0.0000 C   0  0  0  0  0  0  0  0  0  0  0  0
    3.6930    1.9088    0.0000 N   0  0  0  0  0  0  0  0  0  0  0  0
    3.6930    1.0838    0.0000 C   0  0  0  0  0  0  0  0  0  0  0  0
    4.4075    0.6713    0.0000 C   0  0  0  0  0  0  0  0  0  0  0  0
    2.9785    2.3213    0.0000 C   0  0  0  0  0  0  0  0  0  0  0  0
    2.2640    1.9088    0.0000 C   0  0  0  0  0  0  0  0  0  0  0  0
    1.5496    2.3213    0.0000 C   0  0  0  0  0  0  0  0  0  0  0  0
    0.8351    1.9088    0.0000 C   0  0  0  0  0  0  0  0  0  0  0  0
    0.1206    2.3213    0.0000 C   0  0  0  0  0  0  0  0  0  0  0  0
    0.0344    3.1418    0.0000 C   0  0  0  0  0  0  0  0  0  0  0  0
   -0.7726    3.3133    0.0000 N   0  0  0  0  0  0  0  0  0  0  0  0
   -1.1851    2.5989    0.0000 C   0  0  0  0  0  0  0  0  0  0  0  0
   -0.6330    1.9858    0.0000 C   0  0  0  0  0  0  0  0  0  0  0  0
   -1.9920    2.4273    0.0000 C   0  0  0  0  0  0  0  0  0  0  0  0
   -2.2470    1.6427    0.0000 C   0  0  0  0  0  0  0  0  0  0  0  0
   -1.6949    1.0296    0.0000 C   0  0  0  0  0  0  0  0  0  0  0  0
   -0.8880    1.2011    0.0000 C   0  0  0  0  0  0  0  0  0  0  0  0
   -2.1125    0.3208    0.0000 C   0  0  0  0  0  0  0  0  0  0  0  0
   -2.5292   -0.3917    0.0000 N   0  0  0  0  0  0  0  0  0  0  0  0
  3  4  2  0
  4  5  1  0
  5  6  2  0
  6  1  1  0
  3  7  1  0
  7  8  2  0
  8  9  1  0
  9  4  1  0
  8 10  1  0
 10 11  1  0
 10 12  2  0
  1 13  1  0
 13 14  1  0
 14 15  1  0
 15 16  1  0
 16 17  1  0
 17 18  1  0
 18 13  1  0
 16 19  1  0
 19 20  1  0
 20 21  1  0
 21 22  1  0
 22 23  1  0
 23 24  2  0
 24 25  1  0
 25 26  1  0
 26 27  2  0
 27 23  1  0
 26 28  1  0
 28 29  2  0
 29 30  1  0
 30 31  2  0
 31 27  1  0
  1  2  2  0
 30 32  1  0
  2  3  1  0
 32 33  3  0
M  END
> <chembl_id>
CHEMBL439849

> <chembl_pref_name>
VILAZODONE
