
     RDKit          2D

 22 24  0  0  0  0  0  0  0  0999 V2000
    0.6667   -1.9292    0.0000 C   0  0  0  0  0  0  0  0  0  0  0  0
    1.0917   -1.3625    0.0000 N   0  0  0  0  0  0  0  0  0  0  0  0
    3.1208   -1.9583    0.0000 S   0  0  0  0  0  0  0  0  0  0  0  0
    2.5000   -2.3042    0.0000 C   0  0  0  0  0  0  0  0  0  0  0  0
    0.7000   -0.7917    0.0000 C   0  0  0  0  0  0  0  0  0  0  0  0
    0.0167   -1.7042    0.0000 C   0  0  0  0  0  0  0  0  0  0  0  0
    1.2750   -2.2875    0.0000 C   0  0  0  0  0  0  0  0  0  0  0  0
    0.0292   -1.0000    0.0000 C   0  0  0  0  0  0  0  0  0  0  0  0
    1.8875   -1.9417    0.0000 C   0  0  0  0  0  0  0  0  0  0  0  0
    2.4958   -3.0125    0.0000 C   0  0  0  0  0  0  0  0  0  0  0  0
    3.4833   -1.3458    0.0000 O   0  0  0  0  0  0  0  0  0  0  0  0
    2.7750   -1.3375    0.0000 O   0  0  0  0  0  0  0  0  0  0  0  0
    0.9167   -0.1167    0.0000 O   0  0  0  0  0  0  0  0  0  0  0  0
    3.7208   -2.3125    0.0000 N   0  0  0  0  0  0  0  0  0  0  0  0
    1.2667   -2.9958    0.0000 C   0  0  0  0  0  0  0  0  0  0  0  0
    0.6625   -2.6375    0.0000 O   0  0  0  0  0  0  0  0  0  0  0  0
    1.8792   -3.3583    0.0000 C   0  0  0  0  0  0  0  0  0  0  0  0
    3.1083   -3.3792    0.0000 Cl  0  0  0  0  0  0  0  0  0  0  0  0
   -0.6125   -2.0625    0.0000 C   0  0  0  0  0  0  0  0  0  0  0  0
   -0.5833   -0.6250    0.0000 C   0  0  0  0  0  0  0  0  0  0  0  0
   -1.2333   -1.7125    0.0000 C   0  0  0  0  0  0  0  0  0  0  0  0
   -1.2208   -0.9792    0.0000 C   0  0  0  0  0  0  0  0  0  0  0  0
  2  1  1  0
  3  4  1  0
  4  9  2  0
  5  2  1  0
  6  1  1  0
  7  1  1  0
  8  6  2  0
  9  7  1  0
 10 17  2  0
 11  3  2  0
 12  3  2  0
 13  5  2  0
 14  3  1  0
 15  7  2  0
 16  1  1  0
 17 15  1  0
 18 10  1  0
 19  6  1  0
 20  8  1  0
 21 19  2  0
 22 21  1  0
  8  5  1  0
  4 10  1  0
 20 22  2  0
M  END
> <chembl_id>
CHEMBL1055

> <chembl_pref_name>
CHLORTHALIDONE
