
     RDKit          2D

 47 53  0  0  0  0  0  0  0  0999 V2000
   -4.3442    3.2211    0.0000 C   0  0  0  0  0  0  0  0  0  0  0  0
   -5.0586    2.8086    0.0000 C   0  0  0  0  0  0  0  0  0  0  0  0
   -5.0586    1.9836    0.0000 C   0  0  0  0  0  0  0  0  0  0  0  0
   -4.3442    1.5711    0.0000 C   0  0  0  0  0  0  0  0  0  0  0  0
   -3.6297    1.9836    0.0000 C   0  0  0  0  0  0  0  0  0  0  0  0
   -3.6297    2.8086    0.0000 C   0  0  0  0  0  0  0  0  0  0  0  0
   -2.9152    1.5711    0.0000 C   0  0  0  0  0  0  0  0  0  0  0  0
   -2.2007    1.9836    0.0000 C   0  0  0  0  0  0  0  0  0  0  0  0
   -2.2007    2.8086    0.0000 C   0  0  0  0  0  0  0  0  0  0  0  0
   -2.9152    3.2211    0.0000 N   0  0  0  0  0  0  0  0  0  0  0  0
   -1.4862    1.5710    0.0000 C   0  0  0  0  0  0  0  0  0  0  0  0
   -0.7718    1.9835    0.0000 C   0  0  0  0  0  0  0  0  0  0  0  0
   -1.4862    3.2210    0.0000 O   0  0  0  0  0  0  0  0  0  0  0  0
   -1.4862    0.7460    0.0000 C   0  0  0  0  0  0  0  0  0  0  0  0
   -0.7718    0.3335    0.0000 C   0  0  0  0  0  0  0  0  0  0  0  0
   -0.0573    0.7460    0.0000 N   0  0  0  0  0  0  0  0  0  0  0  0
   -0.0573    1.5710    0.0000 C   0  0  0  0  0  0  0  0  0  0  0  0
    0.6572    0.3335    0.0000 C   0  0  0  0  0  0  0  0  0  0  0  0
    1.3716    0.7460    0.0000 O   0  0  0  0  0  0  0  0  0  0  0  0
    0.6572   -0.4915    0.0000 N   0  0  0  0  0  0  0  0  0  0  0  0
    1.3716   -0.9040    0.0000 C   0  0  0  0  0  0  0  0  0  0  0  0
    2.0861   -0.4915    0.0000 C   0  0  0  0  0  0  0  0  0  0  0  0
    1.3716   -1.7290    0.0000 C   0  0  0  0  0  0  0  0  0  0  0  0
    2.0861   -2.1415    0.0000 O   0  0  0  0  0  0  0  0  0  0  0  0
    2.8005   -1.7290    0.0000 C   0  0  0  0  0  0  0  0  0  0  0  0
    2.8005   -0.9040    0.0000 C   0  0  0  0  0  0  0  0  0  0  0  0
    3.5150   -0.4915    0.0000 C   0  0  0  0  0  0  0  0  0  0  0  0
    3.5150   -2.1415    0.0000 C   0  0  0  0  0  0  0  0  0  0  0  0
    4.2295   -1.7290    0.0000 C   0  0  0  0  0  0  0  0  0  0  0  0
    4.2295   -0.9040    0.0000 C   0  0  0  0  0  0  0  0  0  0  0  0
   -0.0573   -1.7290    0.0000 C   0  0  0  0  0  0  0  0  0  0  0  0
    0.6572   -2.1415    0.0000 N   0  0  0  0  0  0  0  0  0  0  0  0
   -0.7718   -2.1415    0.0000 C   0  0  0  0  0  0  0  0  0  0  0  0
   -0.7718   -2.9666    0.0000 N   0  0  0  0  0  0  0  0  0  0  0  0
   -0.0573   -3.3791    0.0000 C   0  0  0  0  0  0  0  0  0  0  0  0
    0.6572   -2.9666    0.0000 C   0  0  0  0  0  0  0  0  0  0  0  0
   -2.2007   -2.9666    0.0000 C   0  0  0  0  0  0  0  0  0  0  0  0
   -1.4862   -3.3791    0.0000 C   0  0  0  0  0  0  0  0  0  0  0  0
   -2.9152   -3.3791    0.0000 C   0  0  0  0  0  0  0  0  0  0  0  0
   -2.9152   -4.2041    0.0000 N   0  0  0  0  0  0  0  0  0  0  0  0
   -2.2007   -4.6166    0.0000 C   0  0  0  0  0  0  0  0  0  0  0  0
   -1.4862   -4.2041    0.0000 C   0  0  0  0  0  0  0  0  0  0  0  0
    4.9440   -0.4915    0.0000 C   0  0  0  0  0  0  0  0  0  0  0  0
    3.6865   -2.9485    0.0000 C   0  0  0  0  0  0  0  0  0  0  0  0
    4.5070   -3.0347    0.0000 N   0  0  0  0  0  0  0  0  0  0  0  0
    4.8426   -2.2811    0.0000 N   0  0  0  0  0  0  0  0  0  0  0  0
   -3.6071   -4.6534    0.0000 C   0  0  0  0  0  0  0  0  0  0  0  0
  1  2  2  0
  2  3  1  0
  3  4  2  0
  4  5  1  0
  5  6  2  0
  1  6  1  0
  7  8  2  0
  8  9  1  0
  9 10  1  0
  5  7  1  0
  6 10  1  0
 11 12  1  0
  8 11  1  0
  9 13  2  0
 14 15  1  0
 15 16  1  0
 16 17  1  0
 11 14  1  0
 12 17  1  0
 18 19  2  0
 16 18  1  0
 20 21  1  0
 21 22  1  6
 18 20  1  0
 23 24  2  0
 25 26  2  0
 21 23  1  0
 22 26  1  0
 28 29  2  0
 29 30  1  0
 27 30  2  0
 25 28  1  0
 27 26  1  0
 31 32  1  0
 32 23  1  0
 33 34  1  0
 34 35  1  0
 35 36  1  0
 31 33  1  0
 36 32  1  0
 37 38  1  0
 38 34  1  0
 39 40  1  0
 40 41  1  0
 41 42  1  0
 37 39  1  0
 42 38  1  0
 30 43  1  0
 44 45  2  0
 45 46  1  0
 28 44  1  0
 29 46  1  0
 40 47  1  0
M  END
> <chembl_id>
CHEMBL2397415

> <chembl_pref_name>
ZAVEGEPANT
