
     RDKit          2D

 47 53  0  0  1  0  0  0  0  0999 V2000
   -0.7875   -0.1292    0.0000 C   0  0  0  0  0  0  0  0  0  0  0  0
   -1.4708   -0.1292    0.0000 C   0  0  0  0  0  0  0  0  0  0  0  0
   -0.4458   -0.7125    0.0000 C   0  0  0  0  0  0  0  0  0  0  0  0
    0.2292   -0.7167    0.0000 N   0  0  0  0  0  0  0  0  0  0  0  0
   -0.6000   -4.4458    0.0000 C   0  0  0  0  0  0  0  0  0  0  0  0
   -1.8083    0.4583    0.0000 C   0  0  0  0  0  0  0  0  0  0  0  0
   -0.4458    0.4625    0.0000 C   0  0  0  0  0  0  0  0  0  0  0  0
   -1.1958   -4.1042    0.0000 C   0  0  0  0  0  0  0  0  0  0  0  0
    1.1542   -4.1042    0.0000 O   0  0  0  0  0  0  0  0  0  0  0  0
    0.5667   -4.4417    0.0000 C   0  0  0  0  0  0  0  0  0  0  0  0
   -1.7792   -4.4458    0.0000 N   0  0  0  0  0  0  0  0  0  0  0  0
   -2.2083   -1.1667    0.0000 O   0  0  0  0  0  0  0  0  0  0  0  0
   -0.0208   -4.1042    0.0000 C   0  0  0  0  0  0  0  0  0  0  0  0
   -0.6000   -5.1292    0.0000 C   0  0  0  0  0  0  0  0  0  0  0  0
    1.1542   -3.4167    0.0000 C   0  0  0  0  0  0  0  0  0  0  0  0
   -1.4708    1.0500    0.0000 C   0  0  0  0  0  0  0  0  0  0  0  0
   -0.7833    1.0500    0.0000 C   0  0  0  0  0  0  0  0  0  0  0  0
    0.5667   -5.1292    0.0000 C   0  0  0  0  0  0  0  0  0  0  0  0
   -0.0208   -5.4667    0.0000 C   0  0  0  0  0  0  0  0  0  0  0  0
   -0.4250   -1.8417    0.0000 C   0  0  0  0  0  0  0  0  0  0  0  0
    0.5750   -0.1292    0.0000 C   0  0  0  0  0  0  0  0  0  0  0  0
    1.7417   -3.0792    0.0000 C   0  0  0  0  0  0  0  0  0  0  0  0
   -0.8500   -3.5167    0.0000 C   0  0  0  0  0  0  0  0  0  0  0  0
    0.5667   -3.0875    0.0000 C   0  0  0  0  0  0  0  0  0  0  0  0
    0.2292    0.4625    0.0000 C   0  0  0  0  0  0  0  0  0  0  0  0
   -1.7792   -5.1292    0.0000 C   0  0  0  0  0  0  0  0  0  0  0  0
    0.5542   -2.4042    0.0000 C   0  0  0  0  0  0  0  0  0  0  0  0
   -1.1958   -5.4667    0.0000 C   0  0  0  0  0  0  0  0  0  0  0  0
   -1.8708   -1.7542    0.0000 C   0  0  0  0  0  0  0  0  0  0  0  0
    1.7375   -2.4042    0.0000 C   0  0  0  0  0  0  0  0  0  0  0  0
   -2.4875    0.4583    0.0000 O   0  0  0  0  0  0  0  0  0  0  0  0
   -1.1875   -2.9375    0.0000 C   0  0  0  0  0  0  0  0  0  0  0  0
    1.1500   -2.0667    0.0000 C   0  0  0  0  0  0  0  0  0  0  0  0
   -1.8083    1.6458    0.0000 O   0  0  0  0  0  0  0  0  0  0  0  0
    0.8250   -1.0500    0.0000 C   0  0  0  0  0  0  0  0  0  0  0  0
    0.2292   -1.4000    0.0000 C   0  0  0  0  0  0  0  0  0  0  0  0
    1.1625   -5.4667    0.0000 O   0  0  0  0  0  0  0  0  0  0  0  0
    2.3292   -3.4167    0.0000 O   0  0  0  0  0  0  0  0  0  0  0  0
   -1.1875   -1.7542    0.0000 C   0  0  0  0  0  0  0  0  0  0  0  0
   -2.2083   -2.3417    0.0000 C   0  0  0  0  0  0  0  0  0  0  0  0
   -0.8458   -2.3417    0.0000 C   0  0  0  0  0  0  0  0  0  0  0  0
   -1.8708   -2.9292    0.0000 C   0  0  0  0  0  0  0  0  0  0  0  0
   -2.3875   -4.1000    0.0000 C   0  0  0  0  0  0  0  0  0  0  0  0
   -2.4875    1.6458    0.0000 C   0  0  0  0  0  0  0  0  0  0  0  0
    1.7500   -5.1292    0.0000 C   0  0  0  0  0  0  0  0  0  0  0  0
   -1.5333   -3.5167    0.0000 H   0  0  0  0  0  0  0  0  0  0  0  0
   -1.0375   -1.0500    0.0000 H   0  0  0  0  0  0  0  0  0  0  0  0
  2  1  1  0
  3  1  1  0
  4  3  1  0
  5 13  1  0
  6  2  2  0
  7  1  2  0
  8 23  1  0
  9 15  1  0
 10  9  1  0
 11  8  1  0
 12  2  1  0
 13 10  2  0
 14 19  1  0
 15 24  1  0
 16 17  2  0
 17  7  1  0
 18 10  1  0
 19 18  2  0
 20  3  1  0
 21 25  1  0
 22 30  1  0
 23 32  1  0
 24 27  2  0
 25  7  1  0
 26 11  1  0
 27 20  1  0
 28 14  1  0
 29 12  1  0
 30 33  2  0
 31  6  1  0
 32 41  2  0
 33 27  1  0
 34 16  1  0
 35  4  1  0
 36  4  1  0
 37 18  1  0
 38 22  1  0
 39 29  2  0
 40 29  1  0
 41 39  1  0
 42 40  2  0
 43 11  1  0
 44 34  1  0
 45 37  1  0
  8 46  1  6
  3 47  1  1
  4 21  1  0
  6 16  1  0
 42 32  1  0
 15 22  2  0
  8  5  1  0
  5 14  2  0
 26 28  1  0
M  CHG  1   4   1
M  END
> <chembl_id>
CHEMBL339427

> <chembl_pref_name>
TUBOCURARINE
