
     RDKit          2D

 19 20  0  0  0  0  0  0  0  0999 V2000
   -1.8000    0.3750    0.0000 C   0  0  0  0  0  0  0  0  0  0  0  0
   -1.7708    1.6708    0.0000 C   0  0  0  0  0  0  0  0  0  0  0  0
   -2.9583   -0.2792    0.0000 C   0  0  0  0  0  0  0  0  0  0  0  0
   -2.9583   -1.5500    0.0000 C   0  0  0  0  0  0  0  0  0  0  0  0
   -0.6333    2.2708    0.0000 N   0  0  0  0  0  0  0  0  0  0  0  0
   -1.8500   -2.1917    0.0000 C   0  0  0  0  0  0  0  0  0  0  0  0
   -0.7083   -0.2542    0.0000 C   0  0  0  0  0  0  0  0  0  0  0  0
   -0.7083   -1.5500    0.0000 C   0  0  0  0  0  0  0  0  0  0  0  0
   -2.8625    2.3125    0.0000 O   0  0  0  0  0  0  0  0  0  0  0  0
    0.4542    1.5875    0.0000 C   0  0  0  0  0  0  0  0  0  0  0  0
   -4.0958   -2.1917    0.0000 Br  0  0  0  0  0  0  0  0  0  0  0  0
   -4.0083    0.3750    0.0000 O   0  0  0  0  0  0  0  0  0  0  0  0
    2.7500    0.2500    0.0000 C   0  0  0  0  0  0  0  0  0  0  0  0
    0.4125   -2.1917    0.0000 Br  0  0  0  0  0  0  0  0  0  0  0  0
    3.8125   -0.4250    0.0000 Br  0  0  0  0  0  0  0  0  0  0  0  0
    0.4417    0.3125    0.0000 C   0  0  0  0  0  0  0  0  0  0  0  0
    1.6000    2.2375    0.0000 C   0  0  0  0  0  0  0  0  0  0  0  0
    1.5667   -0.3792    0.0000 C   0  0  0  0  0  0  0  0  0  0  0  0
    2.7375    1.5458    0.0000 C   0  0  0  0  0  0  0  0  0  0  0  0
  2  1  1  0
  3  1  2  0
  4  3  1  0
  5  2  1  0
  6  8  1  0
  7  1  1  0
  8  7  2  0
  9  2  2  0
 10  5  1  0
 11  4  1  0
 12  3  1  0
 13 19  1  0
 14  8  1  0
 15 13  1  0
 16 10  2  0
 17 10  1  0
 18 16  1  0
 19 17  2  0
  4  6  2  0
 18 13  2  0
M  END
> <chembl_id>
CHEMBL24944

> <chembl_pref_name>
TRIBROMSALAN
