
     RDKit          2D

 32 31  0  0  0  0  0  0  0  0999 V2000
    3.4179   -1.0018    0.0000 O   0  0  0  0  0  0  0  0  0  0  0  0
   -3.6914   -0.4538    0.0000 S   0  0  0  0  0  0  0  0  0  0  0  0
   -2.2625   -0.4538    0.0000 C   0  0  0  0  0  0  0  0  0  0  0  0
   -2.9770   -0.8663    0.0000 N   0  0  0  0  0  0  0  0  0  0  0  0
   -2.2625    0.3712    0.0000 C   0  0  0  0  0  0  0  0  0  0  0  0
   -3.2789    0.2607    0.0000 O   0  0  0  0  0  0  0  0  0  0  0  0
   -4.1039   -1.1682    0.0000 O   0  0  0  0  0  0  0  0  0  0  0  0
   -1.5480   -0.8663    0.0000 C   0  0  0  0  0  0  0  0  0  0  0  0
    6.3112   -0.4537    0.0000 N   0  0  0  0  0  0  0  0  0  0  0  0
   -1.5480    0.7837    0.0000 O   0  0  0  0  0  0  0  0  0  0  0  0
   -0.8335   -0.4538    0.0000 C   0  0  0  0  0  0  0  0  0  0  0  0
   -4.4059   -0.0413    0.0000 C   0  0  0  0  0  0  0  0  0  0  0  0
   -2.9770    0.7837    0.0000 O   0  0  0  0  0  0  0  0  0  0  0  0
    0.5954    0.3713    0.0000 C   0  0  0  0  0  0  0  0  0  0  0  0
   -0.8335    0.3713    0.0000 C   0  0  0  0  0  0  0  0  0  0  0  0
   -0.1191   -0.8662    0.0000 C   0  0  0  0  0  0  0  0  0  0  0  0
   -0.1191    0.7838    0.0000 C   0  0  0  0  0  0  0  0  0  0  0  0
    0.5954   -0.4537    0.0000 C   0  0  0  0  0  0  0  0  0  0  0  0
    1.3099    0.7838    0.0000 O   0  0  0  0  0  0  0  0  0  0  0  0
    5.5967   -0.8662    0.0000 C   0  0  0  0  0  0  0  0  0  0  0  0
    6.3112    0.3713    0.0000 C   0  0  0  0  0  0  0  0  0  0  0  0
    4.8822    0.3713    0.0000 C   0  0  0  0  0  0  0  0  0  0  0  0
    2.0243    0.3713    0.0000 C   0  0  0  0  0  0  0  0  0  0  0  0
    4.1677    0.7838    0.0000 C   0  0  0  0  0  0  0  0  0  0  0  0
   -5.1204   -0.4538    0.0000 C   0  0  0  0  0  0  0  0  0  0  0  0
    5.5967    0.7838    0.0000 C   0  0  0  0  0  0  0  0  0  0  0  0
    4.8822   -0.4537    0.0000 C   0  0  0  0  0  0  0  0  0  0  0  0
    2.7388    0.7838    0.0000 C   0  0  0  0  0  0  0  0  0  0  0  0
    3.4533    0.3713    0.0000 C   0  0  0  0  0  0  0  0  0  0  0  0
   -5.8348   -0.0413    0.0000 C   0  0  0  0  0  0  0  0  0  0  0  0
   -6.5493   -0.4538    0.0000 C   0  0  0  0  0  0  0  0  0  0  0  0
    1.9210   -1.0312    0.0000 Cl  0  0  0  0  0  0  0  0  0  0  0  0
  2  4  1  0
  3  4  1  6
  3  5  1  0
  2  6  2  0
  2  7  2  0
  3  8  1  0
  5 10  2  0
  8 11  1  0
  2 12  1  0
  5 13  1  0
 11 15  2  0
 11 16  1  0
 14 17  2  0
 15 17  1  0
 14 18  1  0
 16 18  2  0
 14 19  1  0
  9 20  1  0
  9 21  1  0
 19 23  1  0
 22 24  1  0
 12 25  1  0
 21 26  1  0
 22 26  1  0
 20 27  1  0
 22 27  1  0
 23 28  1  0
 24 29  1  0
 28 29  1  0
 25 30  1  0
 30 31  1  0
M  END
> <chembl_id>
CHEMBL3189072

> <chembl_pref_name>
TIROFIBAN HYDROCHLORIDE
