
     RDKit          2D

 23 24  0  0  0  0  0  0  0  0999 V2000
    1.0792   -0.0292    0.0000 N   0  0  0  0  0  0  0  0  0  0  0  0
    1.0792   -1.2375    0.0000 C   0  0  0  0  0  0  0  0  0  0  0  0
    2.1042    0.5583    0.0000 C   0  0  0  0  0  0  0  0  0  0  0  0
    0.0500    1.7125    0.0000 C   0  0  0  0  0  0  0  0  0  0  0  0
    2.1167    1.7125    0.0000 C   0  0  0  0  0  0  0  0  0  0  0  0
   -3.0000    2.2833    0.0000 C   0  0  0  0  0  0  0  0  0  0  0  0
    0.0542   -1.8375    0.0000 C   0  0  0  0  0  0  0  0  0  0  0  0
    2.1042   -1.8250    0.0000 C   0  0  0  0  0  0  0  0  0  0  0  0
    1.0917    2.3000    0.0000 C   0  0  0  0  0  0  0  0  0  0  0  0
    0.0375    0.5833    0.0000 O   0  0  0  0  0  0  0  0  0  0  0  0
   -3.0000    3.4583    0.0000 O   0  0  0  0  0  0  0  0  0  0  0  0
   -0.9708    2.3000    0.0000 O   0  0  0  0  0  0  0  0  0  0  0  0
   -1.9833    1.7000    0.0000 C   0  0  0  0  0  0  0  0  0  0  0  0
   -0.9833   -1.2375    0.0000 Cl  0  0  0  0  0  0  0  0  0  0  0  0
    3.1375   -1.2542    0.0000 Cl  0  0  0  0  0  0  0  0  0  0  0  0
   -4.0208    1.6958    0.0000 O   0  0  0  0  0  0  0  0  0  0  0  0
    1.0667   -3.5917    0.0000 C   0  0  0  0  0  0  0  0  0  0  0  0
    3.1292   -0.0292    0.0000 C   0  0  0  0  0  0  0  0  0  0  0  0
    2.1000   -3.0042    0.0000 C   0  0  0  0  0  0  0  0  0  0  0  0
    0.0667   -3.0167    0.0000 C   0  0  0  0  0  0  0  0  0  0  0  0
    3.1542    2.3000    0.0000 C   0  0  0  0  0  0  0  0  0  0  0  0
    4.1417    1.6958    0.0000 C   0  0  0  0  0  0  0  0  0  0  0  0
    4.1542    0.5458    0.0000 C   0  0  0  0  0  0  0  0  0  0  0  0
  2  1  1  0
  3  1  1  0
  4  9  1  0
  5  3  2  0
  6 13  1  0
  7  2  1  0
  8  2  2  0
  9  5  1  0
 10  4  2  0
 11  6  2  0
 12  4  1  0
 13 12  1  0
 14  7  1  0
 15  8  1  0
 16  6  1  0
 17 19  2  0
 18  3  1  0
 19  8  1  0
 20  7  2  0
 21  5  1  0
 22 23  1  0
 23 18  2  0
 20 17  1  0
 21 22  2  0
M  END
> <chembl_id>
CHEMBL93645

> <chembl_pref_name>
ACECLOFENAC
