
     RDKit          2D

 51 53  0  0  1  0  0  0  0  0999 V2000
    0.2250   -1.7083    0.0000 C   0  0  0  0  0  0  0  0  0  0  0  0
   -2.0375   -0.6125    0.0000 C   0  0  0  0  0  0  0  0  0  0  0  0
   -3.2583   -0.6167    0.0000 C   0  0  0  0  0  0  0  0  0  0  0  0
   -3.8708    1.1458    0.0000 C   0  0  0  0  0  0  0  0  0  0  0  0
   -2.6458   -0.9667    0.0000 C   0  0  0  0  0  0  0  0  0  0  0  0
   -0.1250   -2.3167    0.0000 C   0  0  0  0  0  0  0  0  0  0  0  0
   -1.4250    0.4458    0.0000 C   0  0  0  0  0  0  0  0  0  0  0  0
   -2.0375    0.0958    0.0000 C   0  0  0  0  0  0  0  0  0  0  0  0
   -3.2583    2.1958    0.0000 C   0  0  0  0  0  0  0  0  0  0  0  0
   -3.2583    0.0875    0.0000 O   0  0  0  0  0  0  0  0  0  0  0  0
   -3.2583    1.4958    0.0000 C   0  0  0  0  0  0  0  0  0  0  0  0
   -2.6500    2.5500    0.0000 C   0  0  0  0  0  0  0  0  0  0  0  0
    0.2167   -0.7667    0.0000 O   0  0  0  0  0  0  0  0  0  0  0  0
   -3.4250   -3.6917    0.0000 C   0  0  0  0  0  0  0  0  0  0  0  0
   -0.8333   -2.3167    0.0000 C   0  0  0  0  0  0  0  0  0  0  0  0
   -1.4250    1.1458    0.0000 C   0  0  0  0  0  0  0  0  0  0  0  0
   -2.3667   -3.0833    0.0000 C   0  0  0  0  0  0  0  0  0  0  0  0
   -2.7208   -3.6917    0.0000 C   0  0  0  0  0  0  0  0  0  0  0  0
   -0.1250   -1.0958    0.0000 O   0  0  0  0  0  0  0  0  0  0  0  0
   -2.7208   -2.4708    0.0000 O   0  0  0  0  0  0  0  0  0  0  0  0
   -3.8708    0.4375    0.0000 C   0  0  0  0  0  0  0  0  0  0  0  0
   -3.7833   -3.0833    0.0000 C   0  0  0  0  0  0  0  0  0  0  0  0
   -1.4250   -0.9625    0.0000 O   0  0  0  0  0  0  0  0  0  0  0  0
   -3.4250   -2.4708    0.0000 C   0  0  0  0  0  0  0  0  0  0  0  0
   -2.0375    2.2042    0.0000 C   0  0  0  0  0  0  0  0  0  0  0  0
   -2.0375    1.4958    0.0000 C   0  0  0  0  0  0  0  0  0  0  0  0
   -1.1917   -1.7083    0.0000 C   0  0  0  0  0  0  0  0  0  0  0  0
   -1.1875   -2.9333    0.0000 N   0  0  0  0  0  0  0  0  0  0  0  0
   -3.8750   -0.9708    0.0000 O   0  0  0  0  0  0  0  0  0  0  0  0
   -0.8333   -1.0958    0.0000 C   0  0  0  0  0  0  0  0  0  0  0  0
   -2.6542    3.2583    0.0000 O   0  0  0  0  0  0  0  0  0  0  0  0
   -4.2333    1.7625    0.0000 O   0  0  0  0  0  0  0  0  0  0  0  0
    0.2292   -2.9333    0.0000 O   0  0  0  0  0  0  0  0  0  0  0  0
   -1.0750    1.7625    0.0000 O   0  0  0  0  0  0  0  0  0  0  0  0
   -2.6500    1.1375    0.0000 O   0  0  0  0  0  0  0  0  0  0  0  0
   -4.0458   -4.0417    0.0000 O   0  0  0  0  0  0  0  0  0  0  0  0
   -4.4917   -3.0833    0.0000 O   0  0  0  0  0  0  0  0  0  0  0  0
   -4.5833    1.1458    0.0000 C   0  0  0  0  0  0  0  0  0  0  0  0
   -2.6458   -1.6750    0.0000 C   0  0  0  0  0  0  0  0  0  0  0  0
   -2.6542    0.4500    0.0000 C   0  0  0  0  0  0  0  0  0  0  0  0
   -3.8750    2.5500    0.0000 C   0  0  0  0  0  0  0  0  0  0  0  0
   -3.4333   -4.4042    0.0000 C   0  0  0  0  0  0  0  0  0  0  0  0
   -0.7208    1.1458    0.0000 C   0  0  0  0  0  0  0  0  0  0  0  0
   -4.4875    0.0833    0.0000 C   0  0  0  0  0  0  0  0  0  0  0  0
   -3.7792   -1.8542    0.0000 C   0  0  0  0  0  0  0  0  0  0  0  0
   -1.4250    2.5583    0.0000 C   0  0  0  0  0  0  0  0  0  0  0  0
   -0.8333   -3.5458    0.0000 C   0  0  0  0  0  0  0  0  0  0  0  0
   -1.8958   -2.9333    0.0000 C   0  0  0  0  0  0  0  0  0  0  0  0
   -1.1875   -0.4792    0.0000 C   0  0  0  0  0  0  0  0  0  0  0  0
   -4.6542   -3.6833    0.0000 C   0  0  0  0  0  0  0  0  0  0  0  0
   -5.1000    0.4375    0.0000 C   0  0  0  0  0  0  0  0  0  0  0  0
  2  8  1  0
  3  5  1  0
  4 11  1  0
  5  2  1  0
  6  1  1  0
  7 13  1  6
  8  7  1  0
  9 12  1  0
 10  3  1  0
 11  9  1  0
 12 25  1  0
  1 13  1  1
 14 18  1  0
 15  6  1  0
 16  7  1  0
 17 23  1  1
 18 17  1  0
 19  1  1  0
 20 17  1  0
 21 10  1  0
 22 24  1  0
  2 23  1  6
 24 20  1  0
 25 26  1  0
 26 16  1  0
 27 30  1  0
 15 28  1  1
 29  3  2  0
 30 19  1  0
 31 12  2  0
  4 32  1  1
  6 33  1  6
 16 34  1  1
 11 35  1  1
 14 36  1  0
 22 37  1  1
 38  4  1  0
  5 39  1  1
  8 40  1  6
  9 41  1  1
 14 42  1  6
 43 16  1  0
 21 44  1  6
 24 45  1  6
 25 46  1  6
 47 28  1  0
 48 28  1  0
 30 49  1  1
 50 36  1  0
 51 44  1  0
 27 15  1  0
 21  4  1  0
 22 14  1  0
M  END
> <chembl_id>
CHEMBL532

> <chembl_pref_name>
ERYTHROMYCIN
