
     RDKit          2D

 41 38  0  0  0  0  0  0  0  0999 V2000
    5.8634    0.2062    0.0000 Zn  0  0  0  0  0 15  0  0  0  0  0  0
    4.5524   -1.4930    0.0000 C   0  0  0  0  0  0  0  0  0  0  0  0
    4.9441   -0.7771    0.0000 O   0  0  0  0  0  0  0  0  0  0  0  0
    4.9441   -2.2089    0.0000 O   0  0  0  0  0  0  0  0  0  0  0  0
   -0.3855   -4.3750    0.0000 C   0  0  0  0  0  0  0  0  0  0  0  0
   -1.2054   -4.3750    0.0000 C   0  0  0  0  0  0  0  0  0  0  0  0
    3.7142   -1.5052    0.0000 C   0  0  0  0  0  0  0  0  0  0  0  0
   -1.6154   -3.6591    0.0000 C   0  0  0  0  0  0  0  0  0  0  0  0
    0.0245   -3.6591    0.0000 C   0  0  0  0  0  0  0  0  0  0  0  0
    3.3103   -2.2211    0.0000 C   0  0  0  0  0  0  0  0  0  0  0  0
   -2.4352   -3.6591    0.0000 C   0  0  0  0  0  0  0  0  0  0  0  0
    0.8628   -3.6591    0.0000 C   0  0  0  0  0  0  0  0  0  0  0  0
   -5.3172   -1.5052    0.0000 C   0  0  0  0  0  0  0  0  0  0  0  0
   -4.8828   -2.2211    0.0000 C   0  0  0  0  0  0  0  0  0  0  0  0
   -2.8574   -2.9370    0.0000 C   0  0  0  0  0  0  0  0  0  0  0  0
    2.0804   -2.9370    0.0000 C   0  0  0  0  0  0  0  0  0  0  0  0
   -3.6468   -2.9370    0.0000 C   0  0  0  0  0  0  0  0  0  0  0  0
   -4.0873   -2.2211    0.0000 C   0  0  0  0  0  0  0  0  0  0  0  0
    2.4965   -2.2211    0.0000 C   0  0  0  0  0  0  0  0  0  0  0  0
    1.2544   -2.9370    0.0000 C   0  0  0  0  0  0  0  0  0  0  0  0
   -6.1127   -1.5052    0.0000 C   0  0  0  0  0  0  0  0  0  0  0  0
    4.4301    1.5787    0.0000 C   0  0  0  0  0  0  0  0  0  0  0  0
    4.8156    0.8628    0.0000 O   0  0  0  0  0  0  0  0  0  0  0  0
    4.8156    2.2946    0.0000 O   0  0  0  0  0  0  0  0  0  0  0  0
   -0.5078    4.4545    0.0000 C   0  0  0  0  0  0  0  0  0  0  0  0
   -1.3217    4.4545    0.0000 C   0  0  0  0  0  0  0  0  0  0  0  0
    3.5857    1.5787    0.0000 C   0  0  0  0  0  0  0  0  0  0  0  0
   -0.0918    3.7386    0.0000 C   0  0  0  0  0  0  0  0  0  0  0  0
   -1.7377    3.7386    0.0000 C   0  0  0  0  0  0  0  0  0  0  0  0
    3.2002    2.2946    0.0000 C   0  0  0  0  0  0  0  0  0  0  0  0
    0.7404    3.7386    0.0000 C   0  0  0  0  0  0  0  0  0  0  0  0
   -2.5454    3.7386    0.0000 C   0  0  0  0  0  0  0  0  0  0  0  0
   -5.4335    1.5787    0.0000 C   0  0  0  0  0  0  0  0  0  0  0  0
   -5.0113    2.2946    0.0000 C   0  0  0  0  0  0  0  0  0  0  0  0
    1.9703    3.0043    0.0000 C   0  0  0  0  0  0  0  0  0  0  0  0
   -2.9676    3.0043    0.0000 C   0  0  0  0  0  0  0  0  0  0  0  0
   -3.7753    3.0043    0.0000 C   0  0  0  0  0  0  0  0  0  0  0  0
    1.1443    3.0043    0.0000 C   0  0  0  0  0  0  0  0  0  0  0  0
   -4.2036    2.2946    0.0000 C   0  0  0  0  0  0  0  0  0  0  0  0
    2.3742    2.2946    0.0000 C   0  0  0  0  0  0  0  0  0  0  0  0
   -6.2350    1.5725    0.0000 C   0  0  0  0  0  0  0  0  0  0  0  0
  2  3  1  0
  4  2  2  0
  5  9  1  0
  6  5  2  0
  7  2  1  0
  8  6  1  0
  9 12  1  0
 10  7  1  0
 11  8  1  0
 12 20  1  0
 13 14  1  0
 14 18  1  0
 15 11  1  0
 16 19  1  0
 17 15  1  0
 18 17  1  0
 19 10  1  0
 20 16  1  0
 21 13  1  0
 22 23  1  0
 24 22  2  0
 25 28  1  0
 26 25  2  0
 27 22  1  0
 28 31  1  0
 29 26  1  0
 30 27  1  0
 31 38  1  0
 32 29  1  0
 33 34  1  0
 34 39  1  0
 35 40  1  0
 36 32  1  0
 37 36  1  0
 38 35  1  0
 39 37  1  0
 40 30  1  0
 41 33  1  0
M  CHG  3   1   2   3  -1  23  -1
M  END
> <chembl_id>
CHEMBL3833362

> <chembl_pref_name>
ZINC OLEATE
