
     RDKit          2D

 55 57  0  0  0  0  0  0  0  0999 V2000
    4.9895    5.8014    0.0000 C   0  0  0  0  0  0  0  0  0  0  0  0
    2.3514    7.0791    0.0000 C   0  0  0  0  0  0  0  0  0  0  0  0
    0.9231    7.0742    0.0000 C   0  0  0  0  0  0  0  0  0  0  0  0
    0.2089    9.1293    0.0000 C   0  0  0  0  0  0  0  0  0  0  0  0
    1.6373    6.6661    0.0000 C   0  0  0  0  0  0  0  0  0  0  0  0
    4.5814    5.0920    0.0000 C   0  0  0  0  0  0  0  0  0  0  0  0
    3.0656    8.3131    0.0000 C   0  0  0  0  0  0  0  0  0  0  0  0
    2.3514    7.9050    0.0000 C   0  0  0  0  0  0  0  0  0  0  0  0
    0.9231   10.3536    0.0000 C   0  0  0  0  0  0  0  0  0  0  0  0
    0.9231    7.8953    0.0000 O   0  0  0  0  0  0  0  0  0  0  0  0
    0.9231    9.5374    0.0000 C   0  0  0  0  0  0  0  0  0  0  0  0
    1.6373   10.7667    0.0000 C   0  0  0  0  0  0  0  0  0  0  0  0
    4.9846    6.8993    0.0000 O   0  0  0  0  0  0  0  0  0  0  0  0
    0.7336    3.4888    0.0000 C   0  0  0  0  0  0  0  0  0  0  0  0
    3.7507    5.0920    0.0000 C   0  0  0  0  0  0  0  0  0  0  0  0
    3.0656    9.1293    0.0000 C   0  0  0  0  0  0  0  0  0  0  0  0
    1.9676    4.1982    0.0000 C   0  0  0  0  0  0  0  0  0  0  0  0
    1.5595    3.4888    0.0000 C   0  0  0  0  0  0  0  0  0  0  0  0
    4.5814    6.5156    0.0000 O   0  0  0  0  0  0  0  0  0  0  0  0
    1.5595    4.9123    0.0000 O   0  0  0  0  0  0  0  0  0  0  0  0
    0.2089    8.3084    0.0000 C   0  0  0  0  0  0  0  0  0  0  0  0
    0.3157    4.1982    0.0000 C   0  0  0  0  0  0  0  0  0  0  0  0
    3.0656    6.6710    0.0000 O   0  0  0  0  0  0  0  0  0  0  0  0
    0.7336    4.9123    0.0000 C   0  0  0  0  0  0  0  0  0  0  0  0
    2.3514   10.3585    0.0000 C   0  0  0  0  0  0  0  0  0  0  0  0
    2.3514    9.5374    0.0000 C   0  0  0  0  0  0  0  0  0  0  0  0
    3.3377    5.8014    0.0000 C   0  0  0  0  0  0  0  0  0  0  0  0
    3.3426    4.3731    0.0000 N   0  0  0  0  0  0  0  0  0  0  0  0
    0.2089    6.6614    0.0000 O   0  0  0  0  0  0  0  0  0  0  0  0
    3.7507    6.5156    0.0000 C   0  0  0  0  0  0  0  0  0  0  0  0
    1.6324   11.5925    0.0000 O   0  0  0  0  0  0  0  0  0  0  0  0
   -0.2041    9.8484    0.0000 O   0  0  0  0  0  0  0  0  0  0  0  0
    4.9895    4.3731    0.0000 O   0  0  0  0  0  0  0  0  0  0  0  0
    3.4737    9.8484    0.0000 O   0  0  0  0  0  0  0  0  0  0  0  0
    1.6373    9.1197    0.0000 O   0  0  0  0  0  0  0  0  0  0  0  0
    0.0145    3.0807    0.0000 O   0  0  0  0  0  0  0  0  0  0  0  0
   -0.5102    4.1982    0.0000 O   0  0  0  0  0  0  0  0  0  0  0  0
   -0.6122    9.1293    0.0000 C   0  0  0  0  0  0  0  0  0  0  0  0
    1.6420    5.8403    0.0000 C   0  0  0  0  0  0  0  0  0  0  0  0
    1.6324    8.3180    0.0000 C   0  0  0  0  0  0  0  0  0  0  0  0
    0.2089   10.7667    0.0000 C   0  0  0  0  0  0  0  0  0  0  0  0
    0.7287    2.6580    0.0000 C   0  0  0  0  0  0  0  0  0  0  0  0
    3.8915    9.1293    0.0000 C   0  0  0  0  0  0  0  0  0  0  0  0
   -0.5053    7.8905    0.0000 C   0  0  0  0  0  0  0  0  0  0  0  0
    0.3206    5.6313    0.0000 C   0  0  0  0  0  0  0  0  0  0  0  0
    3.0656   10.7763    0.0000 C   0  0  0  0  0  0  0  0  0  0  0  0
    3.7554    3.6589    0.0000 C   0  0  0  0  0  0  0  0  0  0  0  0
    2.5165    4.3731    0.0000 C   0  0  0  0  0  0  0  0  0  0  0  0
    3.3426    7.2346    0.0000 C   0  0  0  0  0  0  0  0  0  0  0  0
   -0.6997    3.4986    0.0000 C   0  0  0  0  0  0  0  0  0  0  0  0
   -1.2195    8.3035    0.0000 C   0  0  0  0  0  0  0  0  0  0  0  0
    5.8145    4.3731    0.0000 C   0  0  0  0  0  0  0  0  0  0  0  0
    6.2270    3.6586    0.0000 C   0  0  0  0  0  0  0  0  0  0  0  0
    6.2270    5.0875    0.0000 O   0  0  0  0  0  0  0  0  0  0  0  0
    7.0520    3.6586    0.0000 C   0  0  0  0  0  0  0  0  0  0  0  0
  2  8  1  0
  3  5  1  0
  4 11  1  0
  5  2  1  0
  6  1  1  0
  7 13  1  6
  8  7  1  0
  9 12  1  0
 10  3  1  0
 11  9  1  0
 12 25  1  0
  1 13  1  1
 14 18  1  0
 15  6  1  0
 16  7  1  0
 17 23  1  1
 18 17  1  0
 19  1  1  0
 20 17  1  0
 21 10  1  0
 22 24  1  0
  2 23  1  6
 24 20  1  0
 25 26  1  0
 26 16  1  0
 27 30  1  0
 15 28  1  1
 29  3  2  0
 30 19  1  0
 31 12  2  0
  4 32  1  1
  6 33  1  6
 16 34  1  1
 11 35  1  1
 14 36  1  0
 22 37  1  1
 38  4  1  0
  5 39  1  1
  8 40  1  6
  9 41  1  1
 14 42  1  6
 43 16  1  0
 21 44  1  6
 24 45  1  6
 25 46  1  6
 47 28  1  0
 48 28  1  0
 30 49  1  1
 50 36  1  0
 51 44  1  0
 27 15  1  0
 21  4  1  0
 22 14  1  0
 33 52  1  0
 52 53  1  0
 52 54  2  0
 53 55  1  0
M  END
> <chembl_id>
CHEMBL2220427

> <chembl_pref_name>
ERYTHROMYCIN PROPIONATE
