
     RDKit          2D

 28 27  0  0  0  0  0  0  0  0999 V2000
    8.2964  -10.2968    0.0000 O   0  0  0  0  0  0  0  0  0  0  0  0
    9.0125  -11.5335    0.0000 O   0  0  0  0  0  0  0  0  0  0  0  0
   11.8720  -10.7073    0.0000 O   0  0  0  0  0  0  0  0  0  0  0  0
   11.1559   -9.4706    0.0000 O   0  0  0  0  0  0  0  0  0  0  0  0
    9.7285   -9.4706    0.0000 O   0  0  0  0  0  0  0  0  0  0  0  0
   10.4399  -11.5335    0.0000 O   0  0  0  0  0  0  0  0  0  0  0  0
    9.0125  -10.7083    0.0000 C   0  0  0  0  0  0  0  0  0  0  0  0
    9.7270  -10.2958    0.0000 C   0  0  0  0  0  0  0  0  0  0  0  0
   10.4414  -10.7083    0.0000 C   0  0  0  0  0  0  0  0  0  0  0  0
   11.1559  -10.2958    0.0000 C   0  0  0  0  0  0  0  0  0  0  0  0
   18.1720  -10.5571    0.0000 C   0  0  0  0  0  0  0  0  0  0  0  0
   17.4522  -10.9727    0.0000 O   0  0  0  0  0  0  0  0  0  0  0  0
   15.3073  -10.5476    0.0000 C   0  0  0  0  0  0  0  0  0  0  0  0
   18.8725  -10.9581    0.0000 N   0  0  0  0  0  0  0  0  0  0  0  0
   14.5875  -10.9535    0.0000 C   0  0  0  0  0  0  0  0  0  0  0  0
   18.1575   -9.7310    0.0000 O   0  0  0  0  0  0  0  0  0  0  0  0
   16.0223  -10.9728    0.0000 C   0  0  0  0  0  0  0  0  0  0  0  0
   13.8725  -10.5332    0.0000 N   0  0  0  0  0  0  0  0  0  0  0  0
   16.7421  -10.5620    0.0000 C   0  0  0  0  0  0  0  0  0  0  0  0
   15.3168   -9.7167    0.0000 C   0  0  0  0  0  0  0  0  0  0  0  0
   16.0367   -9.3157    0.0000 C   0  0  0  0  0  0  0  0  0  0  0  0
   19.5923  -10.5425    0.0000 C   0  0  0  0  0  0  0  0  0  0  0  0
   18.8871  -11.7889    0.0000 C   0  0  0  0  0  0  0  0  0  0  0  0
   16.7469   -9.7359    0.0000 C   0  0  0  0  0  0  0  0  0  0  0  0
   13.8820   -9.7120    0.0000 C   0  0  0  0  0  0  0  0  0  0  0  0
   13.1623  -10.9391    0.0000 C   0  0  0  0  0  0  0  0  0  0  0  0
   14.5778  -11.7747    0.0000 C   0  0  0  0  0  0  0  0  0  0  0  0
   20.3073  -10.9386    0.0000 C   0  0  0  0  0  0  0  0  0  0  0  0
  7  2  2  0
  8  5  1  0
  9  6  1  0
  7  1  1  0
  9 10  1  0
  8  9  1  0
 10  3  1  0
  7  8  1  0
 10  4  2  0
 20 21  1  0
 21 24  2  0
 22 14  1  0
 23 14  1  0
 24 19  1  0
 25 18  1  0
 26 18  1  0
 15 27  1  6
 28 22  1  0
 13 20  2  0
 12 11  1  0
 13 17  1  0
 14 11  1  0
 15 13  1  0
 16 11  2  0
 17 19  2  0
 18 15  1  0
 19 12  1  0
M  END
> <chembl_id>
CHEMBL215645

> <chembl_pref_name>
RIVASTIGMINE TARTRATE
