
     RDKit          2D

 95102  0  0  0  0  0  0  0  0999 V2000
   11.6833   -2.7417    0.0000 N   0  0  0  0  0  0  0  0  0  0  0  0
   11.0708   -3.0833    0.0000 C   0  0  0  0  0  0  0  0  0  0  0  0
    7.1542   -1.5167    0.0000 C   0  0  0  0  0  0  0  0  0  0  0  0
    1.4917   -3.9208    0.0000 C   0  0  0  0  0  0  0  0  0  0  0  0
    3.4167   -2.8708    0.0000 C   0  0  0  0  0  0  0  0  0  0  0  0
    1.5917   -2.4833    0.0000 C   0  0  0  0  0  0  0  0  0  0  0  0
   -0.2583   -2.8208    0.0000 C   0  0  0  0  0  0  0  0  0  0  0  0
    7.1083   -2.9208    0.0000 C   0  0  0  0  0  0  0  0  0  0  0  0
    5.2667   -2.5458    0.0000 C   0  0  0  0  0  0  0  0  0  0  0  0
    9.2292   -2.7333    0.0000 C   0  0  0  0  0  0  0  0  0  0  0  0
   -2.0917   -2.4458    0.0000 C   0  0  0  0  0  0  0  0  0  0  0  0
   -3.2667   -2.4208    0.0000 N   0  0  0  0  0  0  0  0  0  0  0  0
   12.2583   -3.1583    0.0000 C   0  0  0  0  0  0  0  0  0  0  0  0
    2.1958   -2.8542    0.0000 N   0  0  0  0  0  0  0  0  0  0  0  0
    2.8167   -2.4958    0.0000 C   0  0  0  0  0  0  0  0  0  0  0  0
    2.6208   -3.9417    0.0000 N   0  0  0  0  0  0  0  0  0  0  0  0
    8.3042   -1.5417    0.0000 N   0  0  0  0  0  0  0  0  0  0  0  0
    4.0458   -2.5208    0.0000 N   0  0  0  0  0  0  0  0  0  0  0  0
    5.8792   -2.9042    0.0000 N   0  0  0  0  0  0  0  0  0  0  0  0
    0.3667   -2.4708    0.0000 N   0  0  0  0  0  0  0  0  0  0  0  0
   -1.4833   -2.7958    0.0000 N   0  0  0  0  0  0  0  0  0  0  0  0
    7.7292   -2.5792    0.0000 N   0  0  0  0  0  0  0  0  0  0  0  0
    9.8458   -3.0833    0.0000 N   0  0  0  0  0  0  0  0  0  0  0  0
    7.7167   -1.9458    0.0000 C   0  0  0  0  0  0  0  0  0  0  0  0
    2.0583   -3.5208    0.0000 C   0  0  0  0  0  0  0  0  0  0  0  0
   -0.8667   -2.4583    0.0000 C   0  0  0  0  0  0  0  0  0  0  0  0
    6.4958   -2.5583    0.0000 C   0  0  0  0  0  0  0  0  0  0  0  0
    0.9667   -2.8417    0.0000 C   0  0  0  0  0  0  0  0  0  0  0  0
   12.2583   -3.7917    0.0000 C   0  0  0  0  0  0  0  0  0  0  0  0
    0.3167   -1.7208    0.0000 N   0  0  0  0  0  0  0  0  0  0  0  0
    4.6292   -2.8792    0.0000 C   0  0  0  0  0  0  0  0  0  0  0  0
    8.6167   -3.0833    0.0000 C   0  0  0  0  0  0  0  0  0  0  0  0
   10.4583   -2.7333    0.0000 C   0  0  0  0  0  0  0  0  0  0  0  0
   -2.7083   -2.8333    0.0000 C   0  0  0  0  0  0  0  0  0  0  0  0
   12.3042   -0.9583    0.0000 C   0  0  0  0  0  0  0  0  0  0  0  0
   -3.8458   -2.8167    0.0000 C   0  0  0  0  0  0  0  0  0  0  0  0
    1.6958   -4.5958    0.0000 C   0  0  0  0  0  0  0  0  0  0  0  0
    7.3917   -0.8542    0.0000 C   0  0  0  0  0  0  0  0  0  0  0  0
    0.9667   -3.5333    0.0000 C   0  0  0  0  0  0  0  0  0  0  0  0
    6.4708   -1.8542    0.0000 C   0  0  0  0  0  0  0  0  0  0  0  0
   -0.2708   -1.3208    0.0000 C   0  0  0  0  0  0  0  0  0  0  0  0
   -0.8708   -1.6833    0.0000 C   0  0  0  0  0  0  0  0  0  0  0  0
   12.8708   -4.1458    0.0000 N   0  0  0  0  0  0  0  0  0  0  0  0
    0.6417   -0.6542    0.0000 N   0  0  0  0  0  0  0  0  0  0  0  0
    0.8708   -1.2917    0.0000 C   0  0  0  0  0  0  0  0  0  0  0  0
    8.0917   -0.8333    0.0000 C   0  0  0  0  0  0  0  0  0  0  0  0
    2.4000   -4.5958    0.0000 C   0  0  0  0  0  0  0  0  0  0  0  0
   14.1042   -4.1458    0.0000 C   0  0  0  0  0  0  0  0  0  0  0  0
   12.3042   -1.6667    0.0000 N   0  0  0  0  0  0  0  0  0  0  0  0
   11.0708   -3.7917    0.0000 O   0  0  0  0  0  0  0  0  0  0  0  0
   -0.0667   -0.6542    0.0000 C   0  0  0  0  0  0  0  0  0  0  0  0
    3.4167   -3.5667    0.0000 O   0  0  0  0  0  0  0  0  0  0  0  0
    9.2292   -2.0292    0.0000 O   0  0  0  0  0  0  0  0  0  0  0  0
   -0.2667   -3.5250    0.0000 O   0  0  0  0  0  0  0  0  0  0  0  0
    1.5958   -1.7792    0.0000 O   0  0  0  0  0  0  0  0  0  0  0  0
    7.1167   -3.6417    0.0000 O   0  0  0  0  0  0  0  0  0  0  0  0
    5.2833   -1.8333    0.0000 O   0  0  0  0  0  0  0  0  0  0  0  0
   -2.0958   -1.7333    0.0000 O   0  0  0  0  0  0  0  0  0  0  0  0
    4.6042   -3.6917    0.0000 C   0  0  0  0  0  0  0  0  0  0  0  0
   11.6333   -4.1208    0.0000 O   0  0  0  0  0  0  0  0  0  0  0  0
    8.6167   -3.7958    0.0000 C   0  0  0  0  0  0  0  0  0  0  0  0
   -4.5167   -2.5792    0.0000 O   0  0  0  0  0  0  0  0  0  0  0  0
   14.1042   -4.8583    0.0000 O   0  0  0  0  0  0  0  0  0  0  0  0
   -2.9292   -3.4833    0.0000 C   0  0  0  0  0  0  0  0  0  0  0  0
   11.6792   -0.6042    0.0000 N   0  0  0  0  0  0  0  0  0  0  0  0
   13.4833   -3.7917    0.0000 C   0  0  0  0  0  0  0  0  0  0  0  0
   12.9167   -0.5958    0.0000 N   0  0  0  0  0  0  0  0  0  0  0  0
   11.9083   -2.0708    0.0000 C   0  0  0  0  0  0  0  0  0  0  0  0
   -3.6458   -3.4917    0.0000 C   0  0  0  0  0  0  0  0  0  0  0  0
   14.6833   -3.8167    0.0000 N   0  0  0  0  0  0  0  0  0  0  0  0
    5.2042   -4.0583    0.0000 C   0  0  0  0  0  0  0  0  0  0  0  0
    6.4542   -4.7917    0.0000 C   0  0  0  0  0  0  0  0  0  0  0  0
    2.8167   -1.8208    0.0000 C   0  0  0  0  0  0  0  0  0  0  0  0
    5.8292   -3.6917    0.0000 C   0  0  0  0  0  0  0  0  0  0  0  0
    5.2042   -4.7708    0.0000 C   0  0  0  0  0  0  0  0  0  0  0  0
    5.8083   -5.1333    0.0000 C   0  0  0  0  0  0  0  0  0  0  0  0
    6.4417   -4.0792    0.0000 C   0  0  0  0  0  0  0  0  0  0  0  0
   12.8292   -2.7417    0.0000 C   0  0  0  0  0  0  0  0  0  0  0  0
    7.0417   -5.1458    0.0000 O   0  0  0  0  0  0  0  0  0  0  0  0
    3.4333   -1.4667    0.0000 O   0  0  0  0  0  0  0  0  0  0  0  0
   12.6167   -2.0708    0.0000 C   0  0  0  0  0  0  0  0  0  0  0  0
   10.4542   -2.0208    0.0000 C   0  0  0  0  0  0  0  0  0  0  0  0
    1.3167   -5.1958    0.0000 C   0  0  0  0  0  0  0  0  0  0  0  0
    7.0417   -0.2208    0.0000 C   0  0  0  0  0  0  0  0  0  0  0  0
    9.2333   -4.1583    0.0000 C   0  0  0  0  0  0  0  0  0  0  0  0
    8.4542   -0.2583    0.0000 C   0  0  0  0  0  0  0  0  0  0  0  0
    2.7417   -5.2333    0.0000 C   0  0  0  0  0  0  0  0  0  0  0  0
   11.0667   -0.9583    0.0000 C   0  0  0  0  0  0  0  0  0  0  0  0
   11.0667   -1.6667    0.0000 C   0  0  0  0  0  0  0  0  0  0  0  0
    9.8458   -3.7958    0.0000 C   0  0  0  0  0  0  0  0  0  0  0  0
    9.2417   -4.8667    0.0000 C   0  0  0  0  0  0  0  0  0  0  0  0
    1.6583   -5.8208    0.0000 C   0  0  0  0  0  0  0  0  0  0  0  0
    7.4083    0.3667    0.0000 C   0  0  0  0  0  0  0  0  0  0  0  0
    2.3792   -5.8083    0.0000 C   0  0  0  0  0  0  0  0  0  0  0  0
    8.1208    0.3667    0.0000 C   0  0  0  0  0  0  0  0  0  0  0  0
  2  1  1  0
  3 40  1  0
  4 39  1  0
  5 18  1  0
  6 14  1  0
  7 20  1  0
  8 22  1  0
  9 19  1  0
 10 23  1  0
 11 21  1  0
 12 34  1  0
 13  1  1  0
 15 14  1  1
 15  5  1  0
 16 25  1  0
 17 24  1  0
 31 18  1  6
 27 19  1  6
 28 20  1  6
 26 21  1  1
 32 22  1  6
 33 23  1  1
 24  3  2  0
 25  4  2  0
 26  7  1  0
 27  8  1  0
 28  6  1  0
 13 29  1  1
 30 41  1  0
 31  9  1  0
 32 10  1  0
 33  2  1  0
 34 11  1  6
 35 65  1  0
 36 12  1  0
 37  4  1  0
 38  3  1  0
 28 39  1  0
 27 40  1  0
 41 42  1  0
 26 42  1  0
 43 29  1  0
 44 51  1  0
 45 30  2  0
 46 38  2  0
 47 37  2  0
 48 66  1  0
 49 35  2  0
 50  2  2  0
 51 41  2  0
 52  5  2  0
 53 10  2  0
 54  7  2  0
 55  6  2  0
 56  8  2  0
 57  9  2  0
 58 11  2  0
 31 59  1  0
 60 29  2  0
 32 61  1  0
 62 36  2  0
 63 48  2  0
 64 34  1  0
 65 88  1  0
 66 43  1  0
 67 35  1  0
 68  1  1  0
 69 64  1  0
 70 48  1  0
 71 59  1  0
 72 76  1  0
 15 73  1  0
 74 71  2  0
 75 71  1  0
 76 75  2  0
 77 74  1  0
 78 13  1  0
 79 72  1  0
 80 73  1  0
 81 68  1  0
 33 82  1  0
 83 37  1  0
 84 38  1  0
 85 61  1  0
 86 46  1  0
 87 47  1  0
 88 89  1  0
 89 82  1  0
 90 85  1  0
 91 85  1  0
 92 83  2  0
 93 84  2  0
 94 92  1  0
 95 93  1  0
 78 81  1  0
 17 46  1  0
 86 95  2  0
 72 77  2  0
 16 47  1  0
 87 94  2  0
 44 45  1  0
 36 69  1  0
M  END
> <chembl_id>
CHEMBL1201334

> <chembl_pref_name>
TRIPTORELIN
