
     RDKit          2D

 23 25  0  0  1  0  0  0  0  0999 V2000
   -1.5290   -4.1726    0.0000 O   0  0  0  0  0  0  0  0  0  0  0  0
   -2.6608   -3.7738    0.0000 S   0  0  0  0  0  0  0  0  0  0  0  0
   -3.5718   -4.5549    0.0000 O   0  0  0  0  0  0  0  0  0  0  0  0
   -2.4400   -4.9533    0.0000 O   0  0  0  0  0  0  0  0  0  0  0  0
   -2.9361   -2.2985    0.0000 O   0  0  0  0  0  0  0  0  0  0  0  0
   -1.8063   -1.3319    0.0000 N   0  0  0  0  0  0  0  0  0  0  0  0
   -0.8393    0.0000    0.0000 C   0  0  0  0  0  0  0  0  0  0  0  0
    0.9488    0.0000    0.0000 C   0  0  0  0  0  0  0  0  0  0  0  0
    1.8975   -0.8028    0.0000 C   0  0  0  0  0  0  0  0  0  0  0  0
    1.6421    0.6933    0.0000 C   0  0  0  0  0  0  0  0  0  0  0  0
    0.0000    0.6568    0.0000 N   0  0  0  0  0  0  0  0  0  0  0  0
   -1.0947    1.4779    0.0000 C   0  0  0  0  0  0  0  0  0  0  0  0
   -0.6568   -0.6386    0.0000 C   0  0  0  0  0  0  0  0  0  0  0  0
    0.2223   -1.4554    0.0000 O   0  0  0  0  0  0  0  0  0  0  0  0
    2.6055    1.8369    0.0000 C   0  0  0  0  0  0  0  0  0  0  0  0
    3.7867    1.6253    0.0000 O   0  0  0  0  0  0  0  0  0  0  0  0
    2.0965    3.2488    0.0000 N   0  0  0  0  0  0  0  0  0  0  0  0
    3.0640    4.3961    0.0000 C   0  0  0  0  0  0  0  0  0  0  0  0
    2.5574    5.8080    0.0000 C   0  0  0  0  0  0  0  0  0  0  0  0
    3.5267    6.9527    0.0000 C   0  0  0  0  0  0  0  0  0  0  0  0
    5.0027    6.6857    0.0000 N   0  0  0  0  0  0  0  0  0  0  0  0
    5.5094    5.2739    0.0000 C   0  0  0  0  0  0  0  0  0  0  0  0
    4.5401    4.1291    0.0000 C   0  0  0  0  0  0  0  0  0  0  0  0
  1  2  1  0
  2  3  2  0
  2  4  2  0
  2  5  1  0
  5  6  1  0
  6  7  1  0
  7  8  1  1
  8  9  1  0
  9 10  1  0
 10 11  1  0
 11 12  1  0
 12  7  1  0
 11 13  1  0
 13  6  1  0
 13 14  2  0
 10 15  1  6
 15 16  2  0
 15 17  1  0
 17 18  1  0
 18 19  1  0
 19 20  1  0
 20 21  1  0
 21 22  1  0
 22 23  1  0
 23 18  1  0
M  END
> <chembl_id>
CHEMBL3112741

> <chembl_pref_name>
RELEBACTAM ANHYDROUS
