
     RDKit          2D

 56 57  0  0  0  0  0  0  0  0999 V2000
    3.7625   -9.4417    0.0000 C   0  0  0  0  0  0  0  0  0  0  0  0
   -0.5250   -9.8042    0.0000 C   0  0  0  0  0  0  0  0  0  0  0  0
    0.0875   -9.4542    0.0000 N   0  0  0  0  0  0  0  0  0  0  0  0
    4.3750   -9.7917    0.0000 C   0  0  0  0  0  0  0  0  0  0  0  0
   -1.1375   -9.4542    0.0000 C   0  0  0  0  0  0  0  0  0  0  0  0
    3.1500   -9.7917    0.0000 N   0  0  0  0  0  0  0  0  0  0  0  0
    2.5375   -9.4417    0.0000 N   0  0  0  0  0  0  0  0  0  0  0  0
    5.6000   -9.7875    0.0000 C   0  0  0  0  0  0  0  0  0  0  0  0
   -2.3625   -9.4625    0.0000 C   0  0  0  0  0  0  0  0  0  0  0  0
    4.9875   -9.4375    0.0000 N   0  0  0  0  0  0  0  0  0  0  0  0
   -1.7500   -9.8125    0.0000 N   0  0  0  0  0  0  0  0  0  0  0  0
    0.7000   -9.8042    0.0000 C   0  0  0  0  0  0  0  0  0  0  0  0
    1.9250   -9.8000    0.0000 C   0  0  0  0  0  0  0  0  0  0  0  0
    1.3125   -9.4500    0.0000 C   0  0  0  0  0  0  0  0  0  0  0  0
    4.3750  -10.5000    0.0000 C   0  0  0  0  0  0  0  0  0  0  0  0
   -1.1417   -8.7500    0.0000 C   0  0  0  0  0  0  0  0  0  0  0  0
    3.7583   -8.7292    0.0000 O   0  0  0  0  0  0  0  0  0  0  0  0
   -0.5250  -10.5167    0.0000 O   0  0  0  0  0  0  0  0  0  0  0  0
    4.6333   -6.2667    0.0000 N   0  0  0  0  0  0  0  0  0  0  0  0
    3.5792   -6.8875    0.0000 C   0  0  0  0  0  0  0  0  0  0  0  0
    3.9250   -6.2708    0.0000 C   0  0  0  0  0  0  0  0  0  0  0  0
    0.7000  -10.5125    0.0000 C   0  0  0  0  0  0  0  0  0  0  0  0
    5.6000  -10.4917    0.0000 O   0  0  0  0  0  0  0  0  0  0  0  0
   -2.3667   -8.7542    0.0000 O   0  0  0  0  0  0  0  0  0  0  0  0
    2.5333   -8.7375    0.0000 C   0  0  0  0  0  0  0  0  0  0  0  0
    3.9375   -7.5000    0.0000 C   0  0  0  0  0  0  0  0  0  0  0  0
    2.8667   -6.8958    0.0000 C   0  0  0  0  0  0  0  0  0  0  0  0
   -2.9750   -9.8167    0.0000 O   0  0  0  0  0  0  0  0  0  0  0  0
    6.2125   -9.4292    0.0000 O   0  0  0  0  0  0  0  0  0  0  0  0
    2.8792   -8.1167    0.0000 C   0  0  0  0  0  0  0  0  0  0  0  0
    1.3083   -8.7417    0.0000 O   0  0  0  0  0  0  0  0  0  0  0  0
    1.3125  -10.8625    0.0000 C   0  0  0  0  0  0  0  0  0  0  0  0
    3.5917   -8.1125    0.0000 C   0  0  0  0  0  0  0  0  0  0  0  0
    2.5208   -7.5125    0.0000 C   0  0  0  0  0  0  0  0  0  0  0  0
    5.0792  -10.4917    0.0000 C   0  0  0  0  0  0  0  0  0  0  0  0
   -1.5000   -8.1292    0.0000 C   0  0  0  0  0  0  0  0  0  0  0  0
   -1.8500   -8.7500    0.0000 C   0  0  0  0  0  0  0  0  0  0  0  0
   -0.5292   -8.3917    0.0000 C   0  0  0  0  0  0  0  0  0  0  0  0
    3.7625  -10.8542    0.0000 C   0  0  0  0  0  0  0  0  0  0  0  0
    4.7250  -11.1042    0.0000 C   0  0  0  0  0  0  0  0  0  0  0  0
    4.9792   -5.6500    0.0000 C   0  0  0  0  0  0  0  0  0  0  0  0
    3.5625   -5.6667    0.0000 C   0  0  0  0  0  0  0  0  0  0  0  0
    6.8250   -9.7792    0.0000 C   0  0  0  0  0  0  0  0  0  0  0  0
   -3.5875   -9.4667    0.0000 C   0  0  0  0  0  0  0  0  0  0  0  0
    1.9208  -10.5042    0.0000 C   0  0  0  0  0  0  0  0  0  0  0  0
    1.3125  -11.5708    0.0000 C   0  0  0  0  0  0  0  0  0  0  0  0
    4.6167   -5.0375    0.0000 C   0  0  0  0  0  0  0  0  0  0  0  0
    3.9042   -5.0500    0.0000 C   0  0  0  0  0  0  0  0  0  0  0  0
    1.9292  -11.9208    0.0000 C   0  0  0  0  0  0  0  0  0  0  0  0
    2.5375  -10.8542    0.0000 C   0  0  0  0  0  0  0  0  0  0  0  0
    2.5417  -11.5667    0.0000 C   0  0  0  0  0  0  0  0  0  0  0  0
    9.1625   -9.6125    0.0000 S   0  0  0  0  0  0  0  0  0  0  0  0
    9.5125   -8.9917    0.0000 O   0  0  0  0  0  0  0  0  0  0  0  0
    8.8042   -8.9917    0.0000 O   0  0  0  0  0  0  0  0  0  0  0  0
    8.5500   -9.9667    0.0000 O   0  0  0  0  0  0  0  0  0  0  0  0
    9.7750   -9.9667    0.0000 O   0  0  0  0  0  0  0  0  0  0  0  0
  2  3  1  0
  3 12  1  0
  4  1  1  0
  5  2  1  0
  6  1  1  0
  7  6  1  0
  8 10  1  0
  9 11  1  0
 10  4  1  0
 11  5  1  0
 12 14  1  0
 13  7  1  0
 14 13  1  0
  4 15  1  1
  5 16  1  1
 17  1  2  0
 18  2  2  0
 19 21  2  0
 20 27  1  0
 21 20  1  0
 12 22  1  6
 23  8  2  0
 24  9  2  0
 25  7  1  0
 26 33  1  0
 27 34  2  0
 28  9  1  0
 29  8  1  0
 30 25  1  0
 14 31  1  1
 32 22  1  0
 33 30  2  0
 34 30  1  0
 35 15  1  0
 36 16  1  0
 37 16  1  0
 38 16  1  0
 39 15  1  0
 40 15  1  0
 41 19  1  0
 42 21  1  0
 43 29  1  0
 44 28  1  0
 45 32  1  0
 46 32  2  0
 47 48  1  0
 48 42  2  0
 49 46  1  0
 50 45  2  0
 51 50  1  0
 20 26  2  0
 51 49  2  0
 47 41  2  0
 53 52  2  0
 54 52  2  0
 55 52  1  0
 56 52  1  0
M  END
> <chembl_id>
CHEMBL1200678

> <chembl_pref_name>
ATAZANAVIR SULFATE
