
     RDKit          2D

 31 32  0  0  0  0  0  0  0  0999 V2000
   11.4430   -8.1236    0.0000 Na  0  0  0  0  0 15  0  0  0  0  0  0
    5.5710   -6.7357    0.0000 C   0  0  0  0  0  0  0  0  0  0  0  0
    5.0809   -6.0709    0.0000 N   0  0  0  0  0  0  0  0  0  0  0  0
    5.0858   -7.4103    0.0000 C   0  0  0  0  0  0  0  0  0  0  0  0
    4.2948   -6.3329    0.0000 C   0  0  0  0  0  0  0  0  0  0  0  0
    4.2996   -7.1579    0.0000 C   0  0  0  0  0  0  0  0  0  0  0  0
    6.3961   -6.7309    0.0000 C   0  0  0  0  0  0  0  0  0  0  0  0
   10.1133   -7.4199    0.0000 C   0  0  0  0  0  0  0  0  0  0  0  0
    5.0809   -8.2304    0.0000 C   0  0  0  0  0  0  0  0  0  0  0  0
    9.2883   -7.4248    0.0000 C   0  0  0  0  0  0  0  0  0  0  0  0
    6.8037   -6.0127    0.0000 C   0  0  0  0  0  0  0  0  0  0  0  0
    5.4789   -5.3479    0.0000 C   0  0  0  0  0  0  0  0  0  0  0  0
   10.5258   -8.1333    0.0000 O   0  0  0  0  0  0  0  0  0  0  0  0
   10.5209   -6.7066    0.0000 O   0  0  0  0  0  0  0  0  0  0  0  0
    8.8710   -6.7164    0.0000 C   0  0  0  0  0  0  0  0  0  0  0  0
    8.0460   -6.7211    0.0000 C   0  0  0  0  0  0  0  0  0  0  0  0
    4.3579   -8.6332    0.0000 C   0  0  0  0  0  0  0  0  0  0  0  0
    5.7846   -8.6477    0.0000 C   0  0  0  0  0  0  0  0  0  0  0  0
    5.0615   -9.8803    0.0000 C   0  0  0  0  0  0  0  0  0  0  0  0
    7.6286   -6.0078    0.0000 C   0  0  0  0  0  0  0  0  0  0  0  0
    3.5814   -5.9204    0.0000 C   0  0  0  0  0  0  0  0  0  0  0  0
    3.5814   -7.5753    0.0000 C   0  0  0  0  0  0  0  0  0  0  0  0
    4.3481   -9.4581    0.0000 C   0  0  0  0  0  0  0  0  0  0  0  0
    5.7797   -9.4679    0.0000 C   0  0  0  0  0  0  0  0  0  0  0  0
    5.0518  -10.7054    0.0000 F   0  0  0  0  0  0  0  0  0  0  0  0
    9.2786   -5.9981    0.0000 O   0  0  0  0  0  0  0  0  0  0  0  0
    8.0363   -5.2896    0.0000 O   0  0  0  0  0  0  0  0  0  0  0  0
    5.0567   -4.6393    0.0000 C   0  0  0  0  0  0  0  0  0  0  0  0
    6.3038   -5.3381    0.0000 C   0  0  0  0  0  0  0  0  0  0  0  0
    2.8680   -7.1628    0.0000 C   0  0  0  0  0  0  0  0  0  0  0  0
    2.8680   -6.3329    0.0000 C   0  0  0  0  0  0  0  0  0  0  0  0
  3  2  1  0
  4  2  2  0
  5  3  1  0
  6  4  1  0
  7  2  1  0
  8 10  1  0
  9  4  1  0
 10 15  1  0
 11  7  2  0
 12  3  1  0
 13  8  1  0
 14  8  2  0
 15 16  1  0
 16 20  1  0
 17  9  2  0
 18  9  1  0
 19 23  2  0
 20 11  1  0
 21  5  2  0
 22  6  2  0
 23 17  1  0
 24 18  2  0
 25 19  1  0
 15 26  1  0
 20 27  1  0
 28 12  1  0
 29 12  1  0
 30 22  1  0
 31 21  1  0
  6  5  1  0
 30 31  2  0
 24 19  1  0
M  CHG  2   1   1  13  -1
M  END
> <chembl_id>
CHEMBL2218894

> <chembl_pref_name>
FLUVASTATIN SODIUM
