
     RDKit          2D

 35 38  0  0  0  0  0  0  0  0999 V2000
   -4.3302    2.7302    0.0000 Cl  0  0  0  0  0  0  0  0  0  0  0  0
    0.5781    1.4230    0.0000 C   0  0  0  0  0  0  0  0  0  0  0  0
   -0.1353    1.0089    0.0000 C   0  0  0  0  0  0  0  0  0  0  0  0
   -0.1335    0.1839    0.0000 C   0  0  0  0  0  0  0  0  0  0  0  0
    0.5818   -0.2269    0.0000 C   0  0  0  0  0  0  0  0  0  0  0  0
    1.2953    0.1871    0.0000 C   0  0  0  0  0  0  0  0  0  0  0  0
    1.2935    1.0121    0.0000 C   0  0  0  0  0  0  0  0  0  0  0  0
    0.5744    3.0730    0.0000 C   0  0  0  0  0  0  0  0  0  0  0  0
   -0.1390    2.6589    0.0000 C   0  0  0  0  0  0  0  0  0  0  0  0
   -0.1372    1.8339    0.0000 N   0  0  0  0  0  0  0  0  0  0  0  0
    1.2917    1.8371    0.0000 C   0  0  0  0  0  0  0  0  0  0  0  0
    1.2898    2.6621    0.0000 N   0  0  0  0  0  0  0  0  0  0  0  0
   -2.2279    2.1555    0.0000 C   0  0  0  0  0  0  0  0  0  0  0  0
   -2.5618    1.4011    0.0000 N   0  0  0  0  0  0  0  0  0  0  0  0
   -2.0754    0.7347    0.0000 C   0  0  0  0  0  0  0  0  0  0  0  0
   -1.2551    0.8228    0.0000 N   0  0  0  0  0  0  0  0  0  0  0  0
   -4.8843   -0.0251    0.0000 C   0  0  0  0  0  0  0  0  0  0  0  0
   -4.4702   -0.7386    0.0000 C   0  0  0  0  0  0  0  0  0  0  0  0
   -3.6452   -0.7368    0.0000 C   0  0  0  0  0  0  0  0  0  0  0  0
   -3.2343   -0.0214    0.0000 C   0  0  0  0  0  0  0  0  0  0  0  0
   -3.6484    0.6920    0.0000 N   0  0  0  0  0  0  0  0  0  0  0  0
   -4.4734    0.6902    0.0000 C   0  0  0  0  0  0  0  0  0  0  0  0
   -5.7093   -0.0269    0.0000 N   0  0  0  0  0  0  0  0  0  0  0  0
   -6.1234    0.6865    0.0000 C   0  0  0  0  0  0  0  0  0  0  0  0
   -6.9484    0.6847    0.0000 C   0  0  0  0  0  0  0  0  0  0  0  0
   -7.3593   -0.0306    0.0000 N   0  0  0  0  0  0  0  0  0  0  0  0
   -6.9452   -0.7441    0.0000 C   0  0  0  0  0  0  0  0  0  0  0  0
   -6.1202   -0.7423    0.0000 C   0  0  0  0  0  0  0  0  0  0  0  0
   -0.9242    2.9121    0.0000 C   0  0  0  0  0  0  0  0  0  0  0  0
   -1.4076    2.2436    0.0000 C   0  0  0  0  0  0  0  0  0  0  0  0
   -0.9212    1.5772    0.0000 C   0  0  0  0  0  0  0  0  0  0  0  0
   -8.1843   -0.0324    0.0000 C   0  0  0  0  0  0  0  0  0  0  0  0
   -2.4093   -0.0196    0.0000 N   0  0  0  0  0  0  0  0  0  0  0  0
    0.5726    3.8980    0.0000 O   0  0  0  0  0  0  0  0  0  0  0  0
   -5.7052    2.7302    0.0000 Cl  0  0  0  0  0  0  0  0  0  0  0  0
  2  3  1  0
  3  4  1  0
  4  5  1  0
  5  6  1  0
  6  7  1  0
  2  7  1  0
  8  9  1  0
  9 10  1  0
 11 12  1  0
  8 12  1  0
 10  2  1  0
  2 11  1  0
 13 14  2  0
 14 15  1  0
 15 16  2  0
 17 18  1  0
 18 19  2  0
 19 20  1  0
 20 21  2  0
 21 22  1  0
 17 22  2  0
 23 24  1  0
 24 25  1  0
 25 26  1  0
 26 27  1  0
 27 28  1  0
 23 28  1  0
 29 30  1  0
 30 31  2  0
 29  9  2  0
 31 10  1  0
 16 31  1  0
 30 13  1  0
 26 32  1  0
 23 17  1  0
 20 33  1  0
 33 15  1  0
  8 34  2  0
M  END
> <chembl_id>
CHEMBL4650272

> <chembl_pref_name>
TRILACICLIB DIHYDROCHLORIDE
