
     RDKit          2D

 23 25  0  0  0  0  0  0  0  0999 V2000
   -1.9750   -3.1042    0.0000 S   0  0  0  0  0  0  0  0  0  0  0  0
   -1.3583   -3.4625    0.0000 N   0  0  0  0  0  0  0  0  0  0  0  0
   -1.3583   -4.1750    0.0000 C   0  0  0  0  0  0  0  0  0  0  0  0
   -1.9750   -4.5292    0.0000 C   0  0  0  0  0  0  0  0  0  0  0  0
   -0.7458   -4.5292    0.0000 C   0  0  0  0  0  0  0  0  0  0  0  0
   -2.5875   -3.4625    0.0000 C   0  0  0  0  0  0  0  0  0  0  0  0
   -2.5875   -4.1750    0.0000 C   0  0  0  0  0  0  0  0  0  0  0  0
    0.4792   -4.5333    0.0000 C   0  0  0  0  0  0  0  0  0  0  0  0
   -0.1333   -4.1750    0.0000 N   0  0  0  0  0  0  0  0  0  0  0  0
    0.7000   -5.2083    0.0000 N   0  0  0  0  0  0  0  0  0  0  0  0
    1.0500   -4.1167    0.0000 S   0  0  0  0  0  0  0  0  0  0  0  0
   -1.6250   -2.4875    0.0000 O   0  0  0  0  0  0  0  0  0  0  0  0
   -2.3333   -2.4875    0.0000 O   0  0  0  0  0  0  0  0  0  0  0  0
    1.4042   -5.2083    0.0000 C   0  0  0  0  0  0  0  0  0  0  0  0
    1.6250   -4.5333    0.0000 C   0  0  0  0  0  0  0  0  0  0  0  0
   -0.7458   -5.2375    0.0000 O   0  0  0  0  0  0  0  0  0  0  0  0
   -1.9792   -5.2375    0.0000 O   0  0  0  0  0  0  0  0  0  0  0  0
   -0.7458   -3.1083    0.0000 C   0  0  0  0  0  0  0  0  0  0  0  0
   -3.2000   -4.5292    0.0000 C   0  0  0  0  0  0  0  0  0  0  0  0
   -3.2000   -3.1083    0.0000 C   0  0  0  0  0  0  0  0  0  0  0  0
    2.2375   -4.1750    0.0000 C   0  0  0  0  0  0  0  0  0  0  0  0
   -3.8125   -4.1750    0.0000 C   0  0  0  0  0  0  0  0  0  0  0  0
   -3.8125   -3.4625    0.0000 C   0  0  0  0  0  0  0  0  0  0  0  0
  2  1  1  0
  3  2  1  0
  4  3  2  0
  5  3  1  0
  6  1  1  0
  7  6  1  0
  8  9  1  0
  9  5  1  0
 10  8  2  0
 11  8  1  0
 12  1  2  0
 13  1  2  0
 14 10  1  0
 15 11  1  0
 16  5  2  0
 17  4  1  0
 18  2  1  0
 19  7  2  0
 20  6  2  0
 21 15  1  0
 22 19  1  0
 23 20  1  0
  4  7  1  0
 22 23  2  0
 15 14  2  0
M  END
> <chembl_id>
CHEMBL599

> <chembl_pref_name>
MELOXICAM
