
     RDKit          2D

 34 34  0  0  0  0  0  0  0  0999 V2000
    2.5250   -7.5000    0.0000 Cl  0  0  0  0  0  0  0  0  0  0  0  0
    0.7167   -6.0750    0.0000 C   0  0  0  0  0  0  0  0  0  0  0  0
    0.1042   -6.4292    0.0000 C   0  0  0  0  0  0  0  0  0  0  0  0
    0.3625   -5.4542    0.0000 C   0  0  0  0  0  0  0  0  0  0  0  0
    0.0042   -4.8417    0.0000 N   0  0  0  0  0  0  0  0  0  0  0  0
   -0.5083   -6.0792    0.0000 C   0  0  0  0  0  0  0  0  0  0  0  0
   -1.1208   -6.4375    0.0000 C   0  0  0  0  0  0  0  0  0  0  0  0
    6.2375   -6.4042    0.0000 C   0  0  0  0  0  0  0  0  0  0  0  0
   -1.1208   -7.1417    0.0000 C   0  0  0  0  0  0  0  0  0  0  0  0
    6.2417   -7.1167    0.0000 C   0  0  0  0  0  0  0  0  0  0  0  0
    0.1042   -7.1417    0.0000 C   0  0  0  0  0  0  0  0  0  0  0  0
    5.6167   -6.0542    0.0000 C   0  0  0  0  0  0  0  0  0  0  0  0
   -0.5083   -7.5000    0.0000 C   0  0  0  0  0  0  0  0  0  0  0  0
    5.6292   -7.4750    0.0000 C   0  0  0  0  0  0  0  0  0  0  0  0
    1.0667   -5.4542    0.0000 C   0  0  0  0  0  0  0  0  0  0  0  0
    5.0125   -6.4167    0.0000 C   0  0  0  0  0  0  0  0  0  0  0  0
    3.1750   -6.0667    0.0000 N   0  0  0  0  0  0  0  0  0  0  0  0
    5.0125   -7.1250    0.0000 C   0  0  0  0  0  0  0  0  0  0  0  0
   -1.7333   -6.0792    0.0000 O   0  0  0  0  0  0  0  0  0  0  0  0
    3.7875   -6.4167    0.0000 C   0  0  0  0  0  0  0  0  0  0  0  0
    6.8500   -6.0500    0.0000 O   0  0  0  0  0  0  0  0  0  0  0  0
    4.4000   -6.0625    0.0000 C   0  0  0  0  0  0  0  0  0  0  0  0
    1.3292   -6.4292    0.0000 C   0  0  0  0  0  0  0  0  0  0  0  0
   -1.7333   -7.5000    0.0000 O   0  0  0  0  0  0  0  0  0  0  0  0
    6.8542   -7.4667    0.0000 O   0  0  0  0  0  0  0  0  0  0  0  0
    1.9417   -6.0667    0.0000 C   0  0  0  0  0  0  0  0  0  0  0  0
    2.5625   -6.4250    0.0000 C   0  0  0  0  0  0  0  0  0  0  0  0
    3.1667   -5.3542    0.0000 C   0  0  0  0  0  0  0  0  0  0  0  0
    0.7042   -4.8417    0.0000 C   0  0  0  0  0  0  0  0  0  0  0  0
    1.7750   -5.4500    0.0000 C   0  0  0  0  0  0  0  0  0  0  0  0
    7.4625   -6.4000    0.0000 C   0  0  0  0  0  0  0  0  0  0  0  0
   -2.3458   -6.4292    0.0000 C   0  0  0  0  0  0  0  0  0  0  0  0
    7.4667   -7.1125    0.0000 C   0  0  0  0  0  0  0  0  0  0  0  0
   -2.3458   -7.1417    0.0000 C   0  0  0  0  0  0  0  0  0  0  0  0
  3  2  1  0
  4  2  1  0
  5  4  3  0
  6  3  2  0
  7  6  1  0
  8 12  2  0
  9 13  1  0
 10 14  2  0
 11  3  1  0
 12 16  1  0
 13 11  2  0
 14 18  1  0
 15  2  1  0
 16 22  1  0
 17 27  1  0
 18 16  2  0
 19  7  1  0
 20 17  1  0
 21  8  1  0
 22 20  1  0
 23  2  1  0
 24  9  1  0
 25 10  1  0
 26 23  1  0
 27 26  1  0
 28 17  1  0
 29 15  1  0
 30 15  1  0
 31 21  1  0
 32 19  1  0
 33 25  1  0
 34 24  1  0
  9  7  2  0
 10  8  1  0
M  END
> <chembl_id>
CHEMBL1280

> <chembl_pref_name>
VERAPAMIL HYDROCHLORIDE
