
     RDKit          2D

  5  3  0  0  0  0  0  0  0  0999 V2000
    0.0167    1.0625    0.0000 Cl  0  0  0  0  0  0  0  0  0  0  0  0
    1.9292   -0.9250    0.0000 S   0  0  0  0  0  0  0  0  0  0  0  0
   -1.8583   -0.6625    0.0000 N   0  0  0  0  0  0  0  0  0  0  0  0
    0.6042   -0.3667    0.0000 C   0  0  0  0  0  0  0  0  0  0  0  0
   -0.5333   -1.2250    0.0000 C   0  0  0  0  0  0  0  0  0  0  0  0
  3  5  1  0
  4  2  1  0
  5  4  1  0
M  END
> <chembl_id>
CHEMBL1256137

> <chembl_pref_name>
CYSTEAMINE HYDROCHLORIDE
