
     RDKit          2D

 11  9  0  0  0  0  0  0  0  0999 V2000
    3.7667   -2.2250    0.0000 Na  0  0  0  0  0 15  0  0  0  0  0  0
    2.4042   -1.8667    0.0000 P   0  0  0  0  0  0  0  0  0  0  0  0
    0.5542   -2.2167    0.0000 C   0  0  0  0  0  0  0  0  0  0  0  0
    1.1750   -1.8667    0.0000 C   0  0  0  0  0  0  0  0  0  0  0  0
    1.7875   -2.2167    0.0000 O   0  0  0  0  0  0  0  0  0  0  0  0
    3.0167   -2.2167    0.0000 O   0  0  0  0  0  0  0  0  0  0  0  0
    2.7542   -1.2417    0.0000 O   0  0  0  0  0  0  0  0  0  0  0  0
    2.0417   -1.2417    0.0000 O   0  0  0  0  0  0  0  0  0  0  0  0
    0.9042   -2.8375    0.0000 Cl  0  0  0  0  0  0  0  0  0  0  0  0
    0.2000   -2.8375    0.0000 Cl  0  0  0  0  0  0  0  0  0  0  0  0
   -0.0583   -1.8667    0.0000 Cl  0  0  0  0  0  0  0  0  0  0  0  0
  3  4  1  0
  4  5  1  0
  5  2  1  0
  6  2  1  0
  7  2  2  0
  8  2  1  0
  9  3  1  0
 10  3  1  0
 11  3  1  0
M  CHG  2   1   1   6  -1
M  END
> <chembl_id>
CHEMBL1200789

> <chembl_pref_name>
TRICLOFOS SODIUM
