
     RDKit          2D

 23 25  0  0  0  0  0  0  0  0999 V2000
   -1.7458    1.3833    0.0000 S   0  0  0  0  0  0  0  0  0  0  0  0
   -0.8833    0.8875    0.0000 N   0  0  0  0  0  0  0  0  0  0  0  0
   -0.8833   -0.1167    0.0000 C   0  0  0  0  0  0  0  0  0  0  0  0
   -1.7458   -0.6417    0.0000 C   0  0  0  0  0  0  0  0  0  0  0  0
    0.0042   -0.6750    0.0000 C   0  0  0  0  0  0  0  0  0  0  0  0
   -2.6333    0.8875    0.0000 C   0  0  0  0  0  0  0  0  0  0  0  0
   -2.6333   -0.1167    0.0000 C   0  0  0  0  0  0  0  0  0  0  0  0
    1.7500   -0.7000    0.0000 C   0  0  0  0  0  0  0  0  0  0  0  0
    0.8917   -0.1792    0.0000 N   0  0  0  0  0  0  0  0  0  0  0  0
    1.7500   -1.6667    0.0000 N   0  0  0  0  0  0  0  0  0  0  0  0
    2.6375   -0.2542    0.0000 C   0  0  0  0  0  0  0  0  0  0  0  0
   -2.3208    2.0375    0.0000 O   0  0  0  0  0  0  0  0  0  0  0  0
   -1.0083    2.0583    0.0000 O   0  0  0  0  0  0  0  0  0  0  0  0
    2.9417   -1.9542    0.0000 O   0  0  0  0  0  0  0  0  0  0  0  0
    3.3417   -0.9167    0.0000 C   0  0  0  0  0  0  0  0  0  0  0  0
    0.0042   -1.6667    0.0000 O   0  0  0  0  0  0  0  0  0  0  0  0
   -1.7458   -1.4792    0.0000 O   0  0  0  0  0  0  0  0  0  0  0  0
    0.0375    1.4083    0.0000 C   0  0  0  0  0  0  0  0  0  0  0  0
   -3.4875   -0.6417    0.0000 C   0  0  0  0  0  0  0  0  0  0  0  0
   -3.4875    1.3833    0.0000 C   0  0  0  0  0  0  0  0  0  0  0  0
    4.3417   -0.7625    0.0000 C   0  0  0  0  0  0  0  0  0  0  0  0
   -4.3458   -0.1167    0.0000 C   0  0  0  0  0  0  0  0  0  0  0  0
   -4.3458    0.8875    0.0000 C   0  0  0  0  0  0  0  0  0  0  0  0
  2  1  1  0
  3  2  1  0
  4  7  1  0
  5  3  1  0
  6  1  1  0
  7  6  2  0
  8  9  1  0
  9  5  1  0
 10  8  2  0
 11  8  1  0
 12  1  2  0
 13  1  2  0
 14 10  1  0
 15 11  2  0
 16  5  2  0
 17  4  1  0
 18  2  1  0
 19  7  1  0
 20  6  1  0
 21 15  1  0
 22 23  1  0
 23 20  2  0
  3  4  2  0
 19 22  2  0
 14 15  1  0
M  END
> <chembl_id>
CHEMBL53292

> <chembl_pref_name>
ISOXICAM
