
     RDKit          2D

 33 36  0  0  1  0  0  0  0  0999 V2000
    0.8847   -0.6573    0.0000 O   0  0  0  0  0  0  0  0  0  0  0  0
    2.4785   -0.2302    0.0000 O   0  0  0  0  0  0  0  0  0  0  0  0
   -3.6671   -5.0291    0.0000 O   0  0  0  0  0  0  0  0  0  0  0  0
    3.8587   -0.6001    0.0000 O   0  0  0  0  0  0  0  0  0  0  0  0
    0.4844   -2.3332    0.0000 C   0  0  0  0  0  0  0  0  0  0  0  0
    0.5276   -3.1571    0.0000 C   0  0  0  0  0  0  0  0  0  0  0  0
   -0.8995   -3.2319    0.0000 C   0  0  0  0  0  0  0  0  0  0  0  0
   -0.1644   -3.6064    0.0000 C   0  0  0  0  0  0  0  0  0  0  0  0
   -1.5913   -3.6812    0.0000 C   0  0  0  0  0  0  0  0  0  0  0  0
    1.2545   -2.0375    0.0000 C   0  0  0  0  0  0  0  0  0  0  0  0
   -1.5482   -4.5051    0.0000 C   0  0  0  0  0  0  0  0  0  0  0  0
   -0.2507   -1.9586    0.0000 C   0  0  0  0  0  0  0  0  0  0  0  0
   -0.9426   -2.4080    0.0000 C   0  0  0  0  0  0  0  0  0  0  0  0
    1.3244   -3.3706    0.0000 C   0  0  0  0  0  0  0  0  0  0  0  0
   -0.1212   -4.4302    0.0000 C   0  0  0  0  0  0  0  0  0  0  0  0
    1.7737   -2.6787    0.0000 C   0  0  0  0  0  0  0  0  0  0  0  0
   -2.3265   -3.3067    0.0000 C   0  0  0  0  0  0  0  0  0  0  0  0
   -0.8131   -4.8796    0.0000 C   0  0  0  0  0  0  0  0  0  0  0  0
    1.4680   -1.2407    0.0000 C   0  0  0  0  0  0  0  0  0  0  0  0
    0.5275   -1.5093    0.0000 C   0  0  0  0  0  0  0  0  0  0  0  0
   -2.2401   -4.9543    0.0000 C   0  0  0  0  0  0  0  0  0  0  0  0
   -1.7515   -2.8573    0.0000 C   0  0  0  0  0  0  0  0  0  0  0  0
   -2.9752   -4.5799    0.0000 C   0  0  0  0  0  0  0  0  0  0  0  0
   -3.0184   -3.7559    0.0000 C   0  0  0  0  0  0  0  0  0  0  0  0
    2.2649   -1.0271    0.0000 C   0  0  0  0  0  0  0  0  0  0  0  0
    3.2753   -0.0168    0.0000 C   0  0  0  0  0  0  0  0  0  0  0  0
    3.4889    0.7802    0.0000 C   0  0  0  0  0  0  0  0  0  0  0  0
    3.7024    1.5771    0.0000 C   0  0  0  0  0  0  0  0  0  0  0  0
    4.2858    1.0082    0.0000 C   0  0  0  0  0  0  0  0  0  0  0  0
    2.9517    1.3833    0.0000 C   0  0  0  0  0  0  0  0  0  0  0  0
    0.4395   -4.1645    0.0000 H   0  0  0  0  0  0  0  0  0  0  0  0
    0.7540   -3.9524    0.0000 H   0  0  0  0  0  0  0  0  0  0  0  0
   -1.4644   -2.6153    0.0000 H   0  0  0  0  0  0  0  0  0  0  0  0
  1 19  2  0
  2 25  1  0
  2 26  1  0
  3 23  2  0
  4 26  2  0
  5  6  1  0
  5 10  1  0
  5 12  1  0
  5 20  1  1
  6  8  1  0
  6 14  1  0
  7  8  1  0
  7  9  1  0
  7 13  1  0
  8 15  1  0
  9 11  1  0
  9 17  1  0
  9 22  1  1
 10 16  1  0
 10 19  1  1
 11 18  1  0
 11 21  2  0
 12 13  1  0
 14 16  1  0
 15 18  1  0
 17 24  1  0
 19 25  1  0
 21 23  1  0
 23 24  1  0
 26 27  1  0
 27 28  1  0
 27 29  1  0
 27 30  1  0
  8 31  1  1
  6 32  1  6
  7 33  1  6
M  END
> <chembl_id>
CHEMBL1200592

> <chembl_pref_name>
DESOXYCORTICOSTERONE PIVALATE
