
     RDKit          2D

 24 25  0  0  0  0  0  0  0  0999 V2000
    3.3667   -7.1542    0.0000 O   0  0  0  0  0  0  0  0  0  0  0  0
    2.8042   -5.1792    0.0000 C   0  0  0  0  0  0  0  0  0  0  0  0
    2.8042   -6.6042    0.0000 S   0  0  0  0  0  0  0  0  0  0  0  0
    2.1917   -5.5375    0.0000 C   0  0  0  0  0  0  0  0  0  0  0  0
    3.4167   -5.5375    0.0000 C   0  0  0  0  0  0  0  0  0  0  0  0
    2.1917   -6.2417    0.0000 C   0  0  0  0  0  0  0  0  0  0  0  0
    3.4167   -6.2417    0.0000 C   0  0  0  0  0  0  0  0  0  0  0  0
    4.6375   -4.1167    0.0000 N   0  0  0  0  0  0  0  0  0  0  0  0
    2.8042   -4.4750    0.0000 C   0  0  0  0  0  0  0  0  0  0  0  0
    4.0167   -4.4750    0.0000 C   0  0  0  0  0  0  0  0  0  0  0  0
    3.4167   -4.1167    0.0000 C   0  0  0  0  0  0  0  0  0  0  0  0
    4.6375   -3.4042    0.0000 C   0  0  0  0  0  0  0  0  0  0  0  0
    4.0292   -5.1792    0.0000 C   0  0  0  0  0  0  0  0  0  0  0  0
    1.5792   -5.1792    0.0000 C   0  0  0  0  0  0  0  0  0  0  0  0
    4.0292   -6.6042    0.0000 C   0  0  0  0  0  0  0  0  0  0  0  0
    1.5792   -6.6042    0.0000 C   0  0  0  0  0  0  0  0  0  0  0  0
    5.2500   -4.4750    0.0000 C   0  0  0  0  0  0  0  0  0  0  0  0
    4.0167   -3.0417    0.0000 C   0  0  0  0  0  0  0  0  0  0  0  0
    3.4167   -3.4042    0.0000 C   0  0  0  0  0  0  0  0  0  0  0  0
    4.6417   -5.5375    0.0000 C   0  0  0  0  0  0  0  0  0  0  0  0
    0.9667   -5.5375    0.0000 C   0  0  0  0  0  0  0  0  0  0  0  0
    4.6417   -6.2417    0.0000 C   0  0  0  0  0  0  0  0  0  0  0  0
    0.9667   -6.2417    0.0000 C   0  0  0  0  0  0  0  0  0  0  0  0
    2.2667   -7.1667    0.0000 Cl  0  0  0  0  0  0  0  0  0  0  0  0
  3  7  1  0
  4  2  1  0
  5  2  1  0
  6  4  2  0
  7  5  2  0
  8 10  1  0
  9  2  1  0
 10 11  1  0
 11  9  1  0
 12 18  1  0
 13  5  1  0
 14  4  1  0
 15  7  1  0
 16  6  1  0
 17  8  1  0
 18 19  1  0
 19 11  1  0
 20 13  2  0
 21 14  2  0
 22 20  1  0
 23 21  1  0
  3  6  1  0
 22 15  2  0
 23 16  2  0
 12  8  1  0
M  END
> <chembl_id>
CHEMBL1200426

> <chembl_pref_name>
METHIXENE HYDROCHLORIDE
