
     RDKit          2D

 26 25  0  0  0  0  0  0  0  0999 V2000
    6.2500   -2.3667    0.0000 O   0  0  0  0  0  0  0  0  0  0  0  0
    1.6125   -1.9792    0.0000 C   0  0  0  0  0  0  0  0  0  0  0  0
   -0.8500   -1.2917    0.0000 C   0  0  0  0  0  0  0  0  0  0  0  0
   -0.8583   -2.0042    0.0000 C   0  0  0  0  0  0  0  0  0  0  0  0
   -0.2333   -0.9292    0.0000 C   0  0  0  0  0  0  0  0  0  0  0  0
    2.2125   -2.3375    0.0000 C   0  0  0  0  0  0  0  0  0  0  0  0
    1.6125   -1.2917    0.0000 C   0  0  0  0  0  0  0  0  0  0  0  0
    0.3667   -1.9792    0.0000 C   0  0  0  0  0  0  0  0  0  0  0  0
    4.6667   -0.9417    0.0000 C   0  0  0  0  0  0  0  0  0  0  0  0
    1.0000   -2.3375    0.0000 O   0  0  0  0  0  0  0  0  0  0  0  0
   -0.2458   -2.3375    0.0000 C   0  0  0  0  0  0  0  0  0  0  0  0
    0.3792   -1.2792    0.0000 C   0  0  0  0  0  0  0  0  0  0  0  0
    2.8292   -1.2667    0.0000 C   0  0  0  0  0  0  0  0  0  0  0  0
    4.0417   -1.2792    0.0000 C   0  0  0  0  0  0  0  0  0  0  0  0
    2.8375   -1.9750    0.0000 C   0  0  0  0  0  0  0  0  0  0  0  0
    2.2167   -0.9292    0.0000 C   0  0  0  0  0  0  0  0  0  0  0  0
    3.4417   -0.9167    0.0000 C   0  0  0  0  0  0  0  0  0  0  0  0
    5.2792   -1.3167    0.0000 O   0  0  0  0  0  0  0  0  0  0  0  0
    4.6875   -0.2292    0.0000 O   0  0  0  0  0  0  0  0  0  0  0  0
   -0.2375   -0.2167    0.0000 I   0  0  0  0  0  0  0  0  0  0  0  0
   -1.4750   -2.3542    0.0000 I   0  0  0  0  0  0  0  0  0  0  0  0
    0.9917   -0.9292    0.0000 I   0  0  0  0  0  0  0  0  0  0  0  0
    2.2167   -3.0542    0.0000 I   0  0  0  0  0  0  0  0  0  0  0  0
   -1.4708   -0.9292    0.0000 O   0  0  0  0  0  0  0  0  0  0  0  0
    4.0167   -1.9917    0.0000 N   0  0  0  0  0  0  0  0  0  0  0  0
    6.1167   -1.3917    0.0000 Na  0  0  0  0  0 15  0  0  0  0  0  0
  3  5  1  0
  4 11  1  0
  5 12  2  0
  6  2  2  0
  7  2  1  0
  8 10  1  0
  9 14  1  0
 10  2  1  0
 11  8  2  0
 12  8  1  0
 13 16  1  0
 14 17  1  0
 15  6  1  0
 16  7  2  0
 17 13  1  0
 18  9  1  0
 19  9  2  0
 20  5  1  0
 21  4  1  0
 22  7  1  0
 23  6  1  0
 24  3  1  0
 14 25  1  1
 13 15  2  0
  3  4  2  0
M  CHG  2  18  -1  26   1
M  END
> <chembl_id>
CHEMBL2103741

> <chembl_pref_name>
LEVOTHYROXINE SODIUM
