
     RDKit          2D

 19 20  0  0  0  0  0  0  0  0999 V2000
   -1.1458   -0.5000    0.0000 C   0  0  0  0  0  0  0  0  0  0  0  0
    0.8917   -0.4750    0.0000 C   0  0  0  0  0  0  0  0  0  0  0  0
   -0.1000   -1.0542    0.0000 S   0  0  0  0  0  0  0  0  0  0  0  0
   -2.1375   -1.0875    0.0000 C   0  0  0  0  0  0  0  0  0  0  0  0
    1.8792   -1.0375    0.0000 C   0  0  0  0  0  0  0  0  0  0  0  0
   -3.1333   -0.5250    0.0000 C   0  0  0  0  0  0  0  0  0  0  0  0
    2.8792   -0.4500    0.0000 C   0  0  0  0  0  0  0  0  0  0  0  0
    0.8917    0.6333    0.0000 C   0  0  0  0  0  0  0  0  0  0  0  0
   -1.1458    0.6458    0.0000 C   0  0  0  0  0  0  0  0  0  0  0  0
   -3.1333    0.6208    0.0000 C   0  0  0  0  0  0  0  0  0  0  0  0
    2.8917    0.6833    0.0000 C   0  0  0  0  0  0  0  0  0  0  0  0
    1.8542    1.2583    0.0000 C   0  0  0  0  0  0  0  0  0  0  0  0
   -2.1375    1.2083    0.0000 C   0  0  0  0  0  0  0  0  0  0  0  0
   -4.1250   -1.1375    0.0000 Cl  0  0  0  0  0  0  0  0  0  0  0  0
    3.8750   -1.0042    0.0000 Cl  0  0  0  0  0  0  0  0  0  0  0  0
    1.8792   -2.1542    0.0000 O   0  0  0  0  0  0  0  0  0  0  0  0
   -2.1625   -2.2542    0.0000 O   0  0  0  0  0  0  0  0  0  0  0  0
   -2.1375    2.3500    0.0000 Cl  0  0  0  0  0  0  0  0  0  0  0  0
    1.8542    2.3625    0.0000 Cl  0  0  0  0  0  0  0  0  0  0  0  0
  2  3  1  0
  3  1  1  0
  4  1  1  0
  5  2  2  0
  6  4  2  0
  7  5  1  0
  8  2  1  0
  9  1  2  0
 10 13  2  0
 11 12  1  0
 12  8  2  0
 13  9  1  0
 14  6  1  0
 15  7  1  0
 16  5  1  0
 17  4  1  0
 18 13  1  0
 19 12  1  0
  6 10  1  0
  7 11  2  0
M  END
> <chembl_id>
CHEMBL290106

> <chembl_pref_name>
BITHIONOL
