
     RDKit          2D

 29 32  0  0  0  0  0  0  0  0999 V2000
   -8.4934    3.1237    0.0000 N   0  0  0  0  0  0  0  0  0  0  0  0
   -9.2080    2.7112    0.0000 C   0  0  0  0  0  0  0  0  0  0  0  0
   -9.2080    1.8862    0.0000 C   0  0  0  0  0  0  0  0  0  0  0  0
   -8.4934    1.4737    0.0000 C   0  0  0  0  0  0  0  0  0  0  0  0
   -7.7790    1.8862    0.0000 C   0  0  0  0  0  0  0  0  0  0  0  0
   -7.7790    2.7112    0.0000 C   0  0  0  0  0  0  0  0  0  0  0  0
   -5.3804    1.2882    0.0000 C   0  0  0  0  0  0  0  0  0  0  0  0
   -5.9325    0.6751    0.0000 C   0  0  0  0  0  0  0  0  0  0  0  0
   -5.6776   -0.1095    0.0000 C   0  0  0  0  0  0  0  0  0  0  0  0
   -4.8705   -0.2811    0.0000 C   0  0  0  0  0  0  0  0  0  0  0  0
   -4.3186    0.3320    0.0000 C   0  0  0  0  0  0  0  0  0  0  0  0
   -4.5735    1.1167    0.0000 N   0  0  0  0  0  0  0  0  0  0  0  0
   -1.6006    1.2152    0.0000 C   0  0  0  0  0  0  0  0  0  0  0  0
   -2.1526    0.6021    0.0000 C   0  0  0  0  0  0  0  0  0  0  0  0
   -1.8977   -0.1826    0.0000 C   0  0  0  0  0  0  0  0  0  0  0  0
   -1.0907   -0.3541    0.0000 N   0  0  0  0  0  0  0  0  0  0  0  0
   -0.5387    0.2590    0.0000 C   0  0  0  0  0  0  0  0  0  0  0  0
   -0.7936    1.0436    0.0000 C   0  0  0  0  0  0  0  0  0  0  0  0
   -6.5095    2.2987    0.0000 C   0  0  0  0  0  0  0  0  0  0  0  0
   -6.9944    2.9661    0.0000 N   0  0  0  0  0  0  0  0  0  0  0  0
   -6.9944    1.6313    0.0000 C   0  0  0  0  0  0  0  0  0  0  0  0
   -9.9224    1.4737    0.0000 Cl  0  0  0  0  0  0  0  0  0  0  0  0
   -6.7395    0.8466    0.0000 C   0  0  0  0  0  0  0  0  0  0  0  0
   -3.5115    0.1605    0.0000 N   0  0  0  0  0  0  0  0  0  0  0  0
   -2.9596    0.7735    0.0000 C   0  0  0  0  0  0  0  0  0  0  0  0
    0.2683    0.0874    0.0000 C   0  0  0  0  0  0  0  0  0  0  0  0
    0.9073    0.6606    0.0000 F   0  0  0  0  0  0  0  0  0  0  0  0
    1.0753   -0.0840    0.0000 F   0  0  0  0  0  0  0  0  0  0  0  0
    0.6228   -0.6611    0.0000 F   0  0  0  0  0  0  0  0  0  0  0  0
  1  2  2  0
  2  3  1  0
  3  4  2  0
  4  5  1  0
  5  6  2  0
  1  6  1  0
  7  8  1  0
  8  9  2  0
  9 10  1  0
 10 11  2  0
 11 12  1  0
  7 12  2  0
 13 14  1  0
 14 15  2  0
 15 16  1  0
 16 17  2  0
 17 18  1  0
 13 18  2  0
 19 20  1  0
 19 21  2  0
 20  6  1  0
  5 21  1  0
  3 22  1  0
 21 23  1  0
 23  8  1  0
 11 24  1  0
 24 25  1  0
 25 14  1  0
 17 26  1  0
 26 27  1  0
 26 28  1  0
 26 29  1  0
M  END
> <chembl_id>
CHEMBL3813873

> <chembl_pref_name>
PEXIDARTINIB
