
     RDKit          2D

 67 68  0  0  0  0  0  0  0  0999 V2000
    0.2375   -1.2375    0.0000 C   0  0  0  0  0  0  0  0  0  0  0  0
    5.1125   -1.1917    0.0000 C   0  0  0  0  0  0  0  0  0  0  0  0
    5.7167   -2.2500    0.0000 C   0  0  0  0  0  0  0  0  0  0  0  0
   -0.3958   -2.3125    0.0000 C   0  0  0  0  0  0  0  0  0  0  0  0
    4.5417   -2.2542    0.0000 C   0  0  0  0  0  0  0  0  0  0  0  0
    0.8250   -2.2750    0.0000 C   0  0  0  0  0  0  0  0  0  0  0  0
    5.7167   -1.5167    0.0000 C   0  0  0  0  0  0  0  0  0  0  0  0
   -0.3958   -1.5667    0.0000 C   0  0  0  0  0  0  0  0  0  0  0  0
    0.8250   -1.5792    0.0000 C   0  0  0  0  0  0  0  0  0  0  0  0
    4.5417   -1.5167    0.0000 C   0  0  0  0  0  0  0  0  0  0  0  0
    5.1125   -2.6042    0.0000 C   0  0  0  0  0  0  0  0  0  0  0  0
    0.2375   -2.6292    0.0000 C   0  0  0  0  0  0  0  0  0  0  0  0
    0.2292   -0.5167    0.0000 C   0  0  0  0  0  0  0  0  0  0  0  0
    5.1167   -0.4750    0.0000 C   0  0  0  0  0  0  0  0  0  0  0  0
    6.3292   -2.6042    0.0000 C   0  0  0  0  0  0  0  0  0  0  0  0
   -1.0083   -2.6667    0.0000 C   0  0  0  0  0  0  0  0  0  0  0  0
    3.2625   -2.2750    0.0000 C   0  0  0  0  0  0  0  0  0  0  0  0
    2.0417   -2.2750    0.0000 C   0  0  0  0  0  0  0  0  0  0  0  0
    3.8542   -2.6500    0.0000 N   0  0  0  0  0  0  0  0  0  0  0  0
    1.4500   -2.6500    0.0000 N   0  0  0  0  0  0  0  0  0  0  0  0
    2.6667   -2.6500    0.0000 C   0  0  0  0  0  0  0  0  0  0  0  0
    5.7417   -0.1125    0.0000 N   0  0  0  0  0  0  0  0  0  0  0  0
   -0.3958   -0.1542    0.0000 N   0  0  0  0  0  0  0  0  0  0  0  0
    6.9292   -2.2500    0.0000 N   0  0  0  0  0  0  0  0  0  0  0  0
   -1.5875   -2.3125    0.0000 N   0  0  0  0  0  0  0  0  0  0  0  0
    5.7417    0.6083    0.0000 C   0  0  0  0  0  0  0  0  0  0  0  0
   -0.4000    0.5708    0.0000 C   0  0  0  0  0  0  0  0  0  0  0  0
    7.5417   -2.6042    0.0000 C   0  0  0  0  0  0  0  0  0  0  0  0
   -2.2000   -2.6667    0.0000 C   0  0  0  0  0  0  0  0  0  0  0  0
    4.4917   -0.1042    0.0000 O   0  0  0  0  0  0  0  0  0  0  0  0
    0.8500   -0.1500    0.0000 O   0  0  0  0  0  0  0  0  0  0  0  0
    6.3417   -3.3167    0.0000 O   0  0  0  0  0  0  0  0  0  0  0  0
   -1.0083   -3.3875    0.0000 O   0  0  0  0  0  0  0  0  0  0  0  0
    3.2625   -1.5792    0.0000 O   0  0  0  0  0  0  0  0  0  0  0  0
    2.0417   -1.5542    0.0000 O   0  0  0  0  0  0  0  0  0  0  0  0
    6.3750    0.9625    0.0000 C   0  0  0  0  0  0  0  0  0  0  0  0
   -1.0333    0.9208    0.0000 C   0  0  0  0  0  0  0  0  0  0  0  0
    8.1417   -2.2500    0.0000 C   0  0  0  0  0  0  0  0  0  0  0  0
   -2.8083   -2.3167    0.0000 C   0  0  0  0  0  0  0  0  0  0  0  0
    5.1250   -3.3042    0.0000 I   0  0  0  0  0  0  0  0  0  0  0  0
    6.3042   -1.1917    0.0000 I   0  0  0  0  0  0  0  0  0  0  0  0
    0.2500   -3.3417    0.0000 I   0  0  0  0  0  0  0  0  0  0  0  0
   -0.9875   -1.1917    0.0000 I   0  0  0  0  0  0  0  0  0  0  0  0
    3.9792   -1.1042    0.0000 I   0  0  0  0  0  0  0  0  0  0  0  0
    1.4375   -1.2375    0.0000 I   0  0  0  0  0  0  0  0  0  0  0  0
    6.3792    1.6875    0.0000 O   0  0  0  0  0  0  0  0  0  0  0  0
   -1.0333    1.6458    0.0000 O   0  0  0  0  0  0  0  0  0  0  0  0
    8.1417   -1.5167    0.0000 O   0  0  0  0  0  0  0  0  0  0  0  0
   -2.8083   -1.6042    0.0000 O   0  0  0  0  0  0  0  0  0  0  0  0
    3.8542   -3.3417    0.0000 C   0  0  0  0  0  0  0  0  0  0  0  0
    1.4500   -3.3417    0.0000 C   0  0  0  0  0  0  0  0  0  0  0  0
    0.2250    0.9250    0.0000 C   0  0  0  0  0  0  0  0  0  0  0  0
    5.1250    0.9708    0.0000 C   0  0  0  0  0  0  0  0  0  0  0  0
    7.5542   -3.3167    0.0000 C   0  0  0  0  0  0  0  0  0  0  0  0
   -2.2000   -3.3875    0.0000 C   0  0  0  0  0  0  0  0  0  0  0  0
    0.8417    0.5708    0.0000 O   0  0  0  0  0  0  0  0  0  0  0  0
    4.5000    0.6125    0.0000 O   0  0  0  0  0  0  0  0  0  0  0  0
   -1.5500   -3.7042    0.0000 O   0  0  0  0  0  0  0  0  0  0  0  0
    8.1792   -3.6667    0.0000 O   0  0  0  0  0  0  0  0  0  0  0  0
    7.6167    0.9583    0.0000 O   0  0  0  0  0  0  0  0  0  0  0  0
   -2.2750    0.9125    0.0000 O   0  0  0  0  0  0  0  0  0  0  0  0
    9.3917   -2.2542    0.0000 O   0  0  0  0  0  0  0  0  0  0  0  0
   -4.0208   -2.3500    0.0000 O   0  0  0  0  0  0  0  0  0  0  0  0
   -1.6500    0.5583    0.0000 C   0  0  0  0  0  0  0  0  0  0  0  0
    6.9917    0.6000    0.0000 C   0  0  0  0  0  0  0  0  0  0  0  0
   -3.3958   -2.6667    0.0000 C   0  0  0  0  0  0  0  0  0  0  0  0
    8.7542   -2.6042    0.0000 C   0  0  0  0  0  0  0  0  0  0  0  0
  2 10  2  0
  3 11  1  0
  4  8  1  0
  5 19  1  0
  6  9  2  0
  7  3  2  0
  8  1  2  0
  9  1  1  0
 10  5  1  0
 11  5  2  0
 12  6  1  0
 13  1  1  0
 14  2  1  0
 15  3  1  0
 16  4  1  0
 17 21  1  0
 18 20  1  0
 19 17  1  0
 20  6  1  0
 21 18  1  0
 22 14  1  0
 23 13  1  0
 24 15  1  0
 25 16  1  0
 26 22  1  0
 27 23  1  0
 28 24  1  0
 29 25  1  0
 30 14  2  0
 31 13  2  0
 32 15  2  0
 33 16  2  0
 34 17  2  0
 35 18  2  0
 36 26  1  0
 37 27  1  0
 38 28  1  0
 39 29  1  0
 40 11  1  0
 41  7  1  0
 42 12  1  0
 43  8  1  0
 44 10  1  0
 45  9  1  0
 46 36  1  0
 47 37  1  0
 48 38  1  0
 49 39  1  0
 50 19  1  0
 51 20  1  0
 52 27  1  0
 53 26  1  0
 54 28  1  0
 55 29  1  0
 56 52  1  0
 57 53  1  0
 58 55  1  0
 59 54  1  0
 60 65  1  0
 61 64  1  0
 62 67  1  0
 63 66  1  0
 64 37  1  0
 65 36  1  0
 66 39  1  0
 67 38  1  0
 12  4  2  0
  2  7  1  0
M  END
> <chembl_id>
CHEMBL1200555

> <chembl_pref_name>
IOTROLAN
