
     RDKit          2D

 20 20  0  0  0  0  0  0  0  0999 V2000
   -0.4000   -0.2167    0.0000 C   0  0  0  0  0  0  0  0  0  0  0  0
   -2.2958   -0.2417    0.0000 C   0  0  0  0  0  0  0  0  0  0  0  0
   -1.3458    0.3083    0.0000 C   0  0  0  0  0  0  0  0  0  0  0  0
   -0.4000   -1.3167    0.0000 C   0  0  0  0  0  0  0  0  0  0  0  0
   -2.2833   -1.3292    0.0000 C   0  0  0  0  0  0  0  0  0  0  0  0
   -1.3458   -1.8542    0.0000 C   0  0  0  0  0  0  0  0  0  0  0  0
   -3.2458    0.3083    0.0000 O   0  0  0  0  0  0  0  0  0  0  0  0
   -3.2583    1.4125    0.0000 C   0  0  0  0  0  0  0  0  0  0  0  0
   -4.2083    1.9458    0.0000 O   0  0  0  0  0  0  0  0  0  0  0  0
    0.5292    0.3208    0.0000 C   0  0  0  0  0  0  0  0  0  0  0  0
    0.5792   -1.8667    0.0000 O   0  0  0  0  0  0  0  0  0  0  0  0
    3.4042   -1.3042    0.0000 N   0  0  0  0  0  0  0  0  0  0  0  0
    1.5167   -1.3167    0.0000 C   0  0  0  0  0  0  0  0  0  0  0  0
   -3.2208   -1.8750    0.0000 C   0  0  0  0  0  0  0  0  0  0  0  0
   -2.3208    1.9583    0.0000 C   0  0  0  0  0  0  0  0  0  0  0  0
    2.4542   -1.8542    0.0000 C   0  0  0  0  0  0  0  0  0  0  0  0
    3.3917   -0.2292    0.0000 C   0  0  0  0  0  0  0  0  0  0  0  0
    4.3417   -1.8417    0.0000 C   0  0  0  0  0  0  0  0  0  0  0  0
    0.5250    1.3958    0.0000 C   0  0  0  0  0  0  0  0  0  0  0  0
    1.4625   -0.2125    0.0000 C   0  0  0  0  0  0  0  0  0  0  0  0
  2  3  1  0
  3  1  2  0
  4  1  1  0
  5  6  1  0
  6  4  2  0
  7  2  1  0
  8  7  1  0
  9  8  2  0
 10  1  1  0
 11  4  1  0
 12 16  1  0
 13 11  1  0
 14  5  1  0
 15  8  1  0
 16 13  1  0
 17 12  1  0
 18 12  1  0
 19 10  1  0
 20 10  1  0
  2  5  2  0
M  END
> <chembl_id>
CHEMBL159226

> <chembl_pref_name>
MOXISYLYTE
