
     RDKit          2D

 23 25  0  0  0  0  0  0  0  0999 V2000
   -0.8208    0.2125    0.0000 N   0  0  0  0  0  0  0  0  0  0  0  0
   -0.2500   -0.5625    0.0000 N   0  0  0  0  0  0  0  0  0  0  0  0
   -0.8208   -1.3792    0.0000 C   0  0  0  0  0  0  0  0  0  0  0  0
   -1.7625   -1.0792    0.0000 C   0  0  0  0  0  0  0  0  0  0  0  0
   -1.7625   -0.0792    0.0000 C   0  0  0  0  0  0  0  0  0  0  0  0
   -0.4958    1.1458    0.0000 C   0  0  0  0  0  0  0  0  0  0  0  0
   -0.5083   -2.3167    0.0000 O   0  0  0  0  0  0  0  0  0  0  0  0
    2.3542   -2.8417    0.0000 N   0  0  0  0  0  0  0  0  0  0  0  0
   -2.6250   -1.5792    0.0000 C   0  0  0  0  0  0  0  0  0  0  0  0
   -1.1458    1.8958    0.0000 C   0  0  0  0  0  0  0  0  0  0  0  0
   -2.6250    0.4083    0.0000 C   0  0  0  0  0  0  0  0  0  0  0  0
    0.7792   -3.4167    0.0000 C   0  0  0  0  0  0  0  0  0  0  0  0
    1.7292   -3.5917    0.0000 C   0  0  0  0  0  0  0  0  0  0  0  0
    0.4542   -2.5042    0.0000 C   0  0  0  0  0  0  0  0  0  0  0  0
    1.9792   -1.9542    0.0000 C   0  0  0  0  0  0  0  0  0  0  0  0
    3.3000   -3.0250    0.0000 C   0  0  0  0  0  0  0  0  0  0  0  0
   -2.1000    1.7000    0.0000 C   0  0  0  0  0  0  0  0  0  0  0  0
   -0.8208    2.8458    0.0000 C   0  0  0  0  0  0  0  0  0  0  0  0
   -3.5000   -1.0792    0.0000 C   0  0  0  0  0  0  0  0  0  0  0  0
   -3.5000   -0.0792    0.0000 C   0  0  0  0  0  0  0  0  0  0  0  0
   -1.4958    3.5958    0.0000 C   0  0  0  0  0  0  0  0  0  0  0  0
   -2.7833    2.4208    0.0000 C   0  0  0  0  0  0  0  0  0  0  0  0
   -2.4583    3.4000    0.0000 C   0  0  0  0  0  0  0  0  0  0  0  0
  2  1  1  0
  3  2  2  0
  4  5  2  0
  5  1  1  0
  6  1  1  0
  7  3  1  0
  8 13  1  0
  9  4  1  0
 10  6  1  0
 11  5  1  0
 12 14  1  0
 13 12  1  0
 14  7  1  0
 15  8  1  0
 16  8  1  0
 17 10  1  0
 18 10  2  0
 19 20  1  0
 20 11  2  0
 21 18  1  0
 22 17  2  0
 23 22  1  0
  4  3  1  0
  9 19  2  0
 21 23  2  0
M  END
> <chembl_id>
CHEMBL12610

> <chembl_pref_name>
BENZYDAMINE
