
     RDKit          2D

  6  4  0  0  0  0  0  0  0  0999 V2000
    6.0792   -5.9750    0.0000 Ca  0  0  0  0  0 15  0  0  0  0  0  0
    4.2542   -4.3667    0.0000 P   0  0  0  0  0  0  0  0  0  0  0  0
    4.2542   -5.0625    0.0000 O   0  0  0  0  0  0  0  0  0  0  0  0
    4.9667   -4.3625    0.0000 O   0  0  0  0  0  0  0  0  0  0  0  0
    3.5417   -4.3667    0.0000 O   0  0  0  0  0  0  0  0  0  0  0  0
    4.2542   -3.6542    0.0000 O   0  0  0  0  0  0  0  0  0  0  0  0
  3  2  1  0
  4  2  1  0
  5  2  2  0
  6  2  1  0
M  CHG  3   1   2   3  -1   4  -1
M  END
> <chembl_id>
CHEMBL2107567

> <chembl_pref_name>
CALCIUM PHOSPHATE, DIBASIC
