
     RDKit          2D

 23 25  0  0  0  0  0  0  0  0999 V2000
    1.5697   -7.7711    0.0000 C   0  0  0  0  0  0  0  0  0  0  0  0
    0.8452   -7.3799    0.0000 C   0  0  0  0  0  0  0  0  0  0  0  0
    4.3033   -7.7711    0.0000 N   0  0  0  0  0  0  0  0  0  0  0  0
    2.2893   -7.3799    0.0000 O   0  0  0  0  0  0  0  0  0  0  0  0
    1.5697   -8.5825    0.0000 O   0  0  0  0  0  0  0  0  0  0  0  0
    2.9752   -7.7856    0.0000 C   0  0  0  0  0  0  0  0  0  0  0  0
    0.1353   -7.7711    0.0000 C   0  0  0  0  0  0  0  0  0  0  0  0
    3.6417   -7.2930    0.0000 C   0  0  0  0  0  0  0  0  0  0  0  0
    4.0184   -8.5536    0.0000 C   0  0  0  0  0  0  0  0  0  0  0  0
    0.4251   -6.6651    0.0000 C   0  0  0  0  0  0  0  0  0  0  0  0
    3.2215   -8.5536    0.0000 C   0  0  0  0  0  0  0  0  0  0  0  0
    1.2509   -6.6651    0.0000 O   0  0  0  0  0  0  0  0  0  0  0  0
    5.0133   -7.3606    0.0000 C   0  0  0  0  0  0  0  0  0  0  0  0
    5.0133   -8.1865    0.0000 C   0  0  0  0  0  0  0  0  0  0  0  0
   -0.5747   -7.3509    0.0000 C   0  0  0  0  0  0  0  0  0  0  0  0
    0.1353   -8.5825    0.0000 C   0  0  0  0  0  0  0  0  0  0  0  0
   -0.3671   -6.4236    0.0000 C   0  0  0  0  0  0  0  0  0  0  0  0
    0.8935   -5.9792    0.0000 C   0  0  0  0  0  0  0  0  0  0  0  0
   -1.2847   -7.7711    0.0000 C   0  0  0  0  0  0  0  0  0  0  0  0
   -0.5747   -9.0027    0.0000 C   0  0  0  0  0  0  0  0  0  0  0  0
    0.3961   -5.3224    0.0000 C   0  0  0  0  0  0  0  0  0  0  0  0
   -0.3863   -5.5977    0.0000 C   0  0  0  0  0  0  0  0  0  0  0  0
   -1.2847   -8.5825    0.0000 C   0  0  0  0  0  0  0  0  0  0  0  0
  2  1  1  0
  3  8  1  0
  4  1  1  0
  5  1  2  0
  6  4  1  0
  7  2  1  0
  8  6  1  0
  9 11  1  0
 10  2  1  0
 11  6  1  0
 12  2  1  0
 13  3  1  0
 14  3  1  0
 15  7  1  0
 16  7  2  0
 17 10  1  0
 18 10  1  0
 19 15  2  0
 20 16  1  0
 21 18  1  0
 22 17  1  0
 23 19  1  0
  3  9  1  0
 22 21  1  0
 20 23  2  0
M  CHG  1   3   1
M  END
> <chembl_id>
CHEMBL1201335

> <chembl_pref_name>
GLYCOPYRRONIUM
