
     RDKit          2D

 25 27  0  0  0  0  0  0  0  0999 V2000
   -2.9833   -0.0125    0.0000 C   0  0  0  0  0  0  0  0  0  0  0  0
   -2.9833   -1.2167    0.0000 C   0  0  0  0  0  0  0  0  0  0  0  0
   -2.9833    1.2083    0.0000 C   0  0  0  0  0  0  0  0  0  0  0  0
   -0.0708   -1.0375    0.0000 N   0  0  0  0  0  0  0  0  0  0  0  0
    1.6792   -0.0250    0.0000 C   0  0  0  0  0  0  0  0  0  0  0  0
    2.2667    0.9833    0.0000 C   0  0  0  0  0  0  0  0  0  0  0  0
   -1.2458   -1.0167    0.0000 C   0  0  0  0  0  0  0  0  0  0  0  0
    0.5167   -0.0250    0.0000 C   0  0  0  0  0  0  0  0  0  0  0  0
   -1.8083   -0.0125    0.0000 C   0  0  0  0  0  0  0  0  0  0  0  0
   -1.9583   -1.8042    0.0000 C   0  0  0  0  0  0  0  0  0  0  0  0
   -4.0458    1.8125    0.0000 C   0  0  0  0  0  0  0  0  0  0  0  0
   -1.9833    1.7958    0.0000 C   0  0  0  0  0  0  0  0  0  0  0  0
   -4.0083   -1.7917    0.0000 C   0  0  0  0  0  0  0  0  0  0  0  0
    1.6792    1.9958    0.0000 C   0  0  0  0  0  0  0  0  0  0  0  0
    3.4417    0.9833    0.0000 C   0  0  0  0  0  0  0  0  0  0  0  0
   -0.0583    0.9833    0.0000 C   0  0  0  0  0  0  0  0  0  0  0  0
   -1.9833    2.9833    0.0000 C   0  0  0  0  0  0  0  0  0  0  0  0
   -4.0083   -2.9792    0.0000 C   0  0  0  0  0  0  0  0  0  0  0  0
   -1.9583   -2.9667    0.0000 C   0  0  0  0  0  0  0  0  0  0  0  0
   -4.0208    2.9875    0.0000 C   0  0  0  0  0  0  0  0  0  0  0  0
    2.2667    3.0208    0.0000 C   0  0  0  0  0  0  0  0  0  0  0  0
    4.0375    1.9833    0.0000 C   0  0  0  0  0  0  0  0  0  0  0  0
   -3.0000   -3.5875    0.0000 C   0  0  0  0  0  0  0  0  0  0  0  0
   -3.0458    3.5958    0.0000 C   0  0  0  0  0  0  0  0  0  0  0  0
    3.4417    3.0083    0.0000 C   0  0  0  0  0  0  0  0  0  0  0  0
  2  1  1  0
  3  1  1  0
  4  7  1  0
  5  8  1  0
  6  5  1  0
  7  9  1  0
  8  4  1  0
  9  1  1  0
 10  2  1  0
 11  3  1  0
 12  3  2  0
 13  2  2  0
 14  6  1  0
 15  6  2  0
 16  8  1  0
 17 12  1  0
 18 13  1  0
 19 10  2  0
 20 11  2  0
 21 14  2  0
 22 15  1  0
 23 18  2  0
 24 17  2  0
 25 22  2  0
 20 24  1  0
 19 23  1  0
 21 25  1  0
M  END
> <chembl_id>
CHEMBL24072

> <chembl_pref_name>
PRENYLAMINE
