
     RDKit          2D

 31 33  0  0  0  0  0  0  0  0999 V2000
    3.4042   -7.1625    0.0000 S   0  0  0  0  0  0  0  0  0  0  0  0
    4.0208   -7.5042    0.0000 N   0  0  0  0  0  0  0  0  0  0  0  0
    4.6292   -7.1417    0.0000 C   0  0  0  0  0  0  0  0  0  0  0  0
   -1.4958   -8.6042    0.0000 C   0  0  0  0  0  0  0  0  0  0  0  0
   -2.0958   -8.2667    0.0000 N   0  0  0  0  0  0  0  0  0  0  0  0
   -0.8583   -8.2417    0.0000 C   0  0  0  0  0  0  0  0  0  0  0  0
    2.7917   -7.5292    0.0000 C   0  0  0  0  0  0  0  0  0  0  0  0
    3.7542   -6.5417    0.0000 O   0  0  0  0  0  0  0  0  0  0  0  0
    3.0417   -6.5417    0.0000 O   0  0  0  0  0  0  0  0  0  0  0  0
   -2.0958   -9.6750    0.0000 N   0  0  0  0  0  0  0  0  0  0  0  0
    5.2458   -7.4875    0.0000 N   0  0  0  0  0  0  0  0  0  0  0  0
   -1.4958   -9.3417    0.0000 C   0  0  0  0  0  0  0  0  0  0  0  0
    4.6167   -6.4333    0.0000 O   0  0  0  0  0  0  0  0  0  0  0  0
   -0.8583   -7.5417    0.0000 O   0  0  0  0  0  0  0  0  0  0  0  0
   -0.2583   -8.6000    0.0000 N   0  0  0  0  0  0  0  0  0  0  0  0
    2.7917   -8.2417    0.0000 C   0  0  0  0  0  0  0  0  0  0  0  0
    2.1917   -7.1875    0.0000 C   0  0  0  0  0  0  0  0  0  0  0  0
   -2.7208   -8.6042    0.0000 C   0  0  0  0  0  0  0  0  0  0  0  0
   -2.7208   -9.3417    0.0000 C   0  0  0  0  0  0  0  0  0  0  0  0
    1.5667   -7.5417    0.0000 C   0  0  0  0  0  0  0  0  0  0  0  0
    2.1917   -8.6000    0.0000 C   0  0  0  0  0  0  0  0  0  0  0  0
    1.5667   -8.2417    0.0000 C   0  0  0  0  0  0  0  0  0  0  0  0
    5.8542   -7.1208    0.0000 C   0  0  0  0  0  0  0  0  0  0  0  0
    0.3500   -8.2500    0.0000 C   0  0  0  0  0  0  0  0  0  0  0  0
    0.9792   -8.6000    0.0000 C   0  0  0  0  0  0  0  0  0  0  0  0
   -3.3458   -9.7042    0.0000 C   0  0  0  0  0  0  0  0  0  0  0  0
    6.4708   -7.4708    0.0000 C   0  0  0  0  0  0  0  0  0  0  0  0
    5.8375   -6.4167    0.0000 C   0  0  0  0  0  0  0  0  0  0  0  0
    6.4500   -6.0542    0.0000 C   0  0  0  0  0  0  0  0  0  0  0  0
    7.0750   -7.1083    0.0000 C   0  0  0  0  0  0  0  0  0  0  0  0
    7.0708   -6.4000    0.0000 C   0  0  0  0  0  0  0  0  0  0  0  0
  2  1  1  0
  3  2  1  0
  4  6  1  0
  5  4  2  0
  6 15  1  0
  7  1  1  0
  8  1  2  0
  9  1  2  0
 10 12  2  0
 11  3  1  0
 12  4  1  0
 13  3  2  0
 14  6  2  0
 15 24  1  0
 16  7  2  0
 17  7  1  0
 18  5  1  0
 19 10  1  0
 20 17  2  0
 21 16  1  0
 22 20  1  0
 23 11  1  0
 24 25  1  0
 25 22  1  0
 26 19  1  0
 27 23  1  0
 28 23  1  0
 29 28  1  0
 30 27  1  0
 31 29  1  0
 21 22  2  0
 31 30  1  0
 18 19  2  0
M  END
> <chembl_id>
CHEMBL1073

> <chembl_pref_name>
GLIPIZIDE
