
     RDKit          2D

  9  6  0  0  0  0  0  0  0  0999 V2000
   -0.1458   -1.1542    0.0000 Ca  0  0  0  0  0 15  0  0  0  0  0  0
   -1.4542   -0.9000    0.0000 C   0  0  0  0  0  0  0  0  0  0  0  0
   -0.8417   -1.2542    0.0000 O   0  0  0  0  0  0  0  0  0  0  0  0
   -1.4542   -0.1917    0.0000 O   0  0  0  0  0  0  0  0  0  0  0  0
   -2.0708   -1.2542    0.0000 C   0  0  0  0  0  0  0  0  0  0  0  0
    1.6917   -1.0167    0.0000 C   0  0  0  0  0  0  0  0  0  0  0  0
    1.0792   -1.3750    0.0000 O   0  0  0  0  0  0  0  0  0  0  0  0
    1.6917   -0.3125    0.0000 O   0  0  0  0  0  0  0  0  0  0  0  0
    2.3042   -1.3750    0.0000 C   0  0  0  0  0  0  0  0  0  0  0  0
  3  2  1  0
  4  2  2  0
  5  2  1  0
  7  6  1  0
  8  6  2  0
  9  6  1  0
M  CHG  3   1   2   3  -1   7  -1
M  END
> <chembl_id>
CHEMBL1200800

> <chembl_pref_name>
CALCIUM ACETATE
