
     RDKit          2D

 36 40  0  0  0  0  0  0  0  0999 V2000
  -13.2100    9.5687    0.0000 C   0  0  0  0  0  0  0  0  0  0  0  0
  -12.9550    8.7840    0.0000 C   0  0  0  0  0  0  0  0  0  0  0  0
  -13.5071    8.1709    0.0000 C   0  0  0  0  0  0  0  0  0  0  0  0
  -14.3140    8.3425    0.0000 C   0  0  0  0  0  0  0  0  0  0  0  0
  -14.5690    9.1271    0.0000 C   0  0  0  0  0  0  0  0  0  0  0  0
  -14.0169    9.7402    0.0000 C   0  0  0  0  0  0  0  0  0  0  0  0
  -13.2521    7.3863    0.0000 C   0  0  0  0  0  0  0  0  0  0  0  0
  -12.4675    7.1314    0.0000 C   0  0  0  0  0  0  0  0  0  0  0  0
  -12.4675    6.3064    0.0000 N   0  0  0  0  0  0  0  0  0  0  0  0
  -13.2521    6.0514    0.0000 C   0  0  0  0  0  0  0  0  0  0  0  0
  -13.7370    6.7189    0.0000 N   0  0  0  0  0  0  0  0  0  0  0  0
  -11.7530    7.5439    0.0000 C   0  0  0  0  0  0  0  0  0  0  0  0
  -11.0386    7.1314    0.0000 N   0  0  0  0  0  0  0  0  0  0  0  0
  -11.0386    6.3064    0.0000 C   0  0  0  0  0  0  0  0  0  0  0  0
  -11.7530    5.8939    0.0000 C   0  0  0  0  0  0  0  0  0  0  0  0
  -13.5071    5.2668    0.0000 C   0  0  0  0  0  0  0  0  0  0  0  0
  -13.0221    4.5994    0.0000 N   0  0  0  0  0  0  0  0  0  0  0  0
  -13.5071    3.9319    0.0000 C   0  0  0  0  0  0  0  0  0  0  0  0
  -14.2917    4.1869    0.0000 C   0  0  0  0  0  0  0  0  0  0  0  0
  -14.2917    5.0119    0.0000 C   0  0  0  0  0  0  0  0  0  0  0  0
  -14.2719   10.5248    0.0000 C   0  0  0  0  0  0  0  0  0  0  0  0
  -13.7198   11.1379    0.0000 N   0  0  0  0  0  0  0  0  0  0  0  0
  -15.0788   10.6963    0.0000 O   0  0  0  0  0  0  0  0  0  0  0  0
  -12.9129   10.9664    0.0000 C   0  0  0  0  0  0  0  0  0  0  0  0
  -12.3608   11.5795    0.0000 N   0  0  0  0  0  0  0  0  0  0  0  0
  -11.5539   11.4079    0.0000 C   0  0  0  0  0  0  0  0  0  0  0  0
  -11.2989   10.6233    0.0000 C   0  0  0  0  0  0  0  0  0  0  0  0
  -11.8510   10.0102    0.0000 C   0  0  0  0  0  0  0  0  0  0  0  0
  -12.6579   10.1817    0.0000 C   0  0  0  0  0  0  0  0  0  0  0  0
  -11.7530    8.3689    0.0000 N   0  0  0  0  0  0  0  0  0  0  0  0
  -12.1971    4.5994    0.0000 C   0  0  0  0  0  0  0  0  0  0  0  0
  -11.7846    3.8849    0.0000 C   0  0  0  0  0  0  0  0  0  0  0  0
  -11.7846    5.3138    0.0000 O   0  0  0  0  0  0  0  0  0  0  0  0
  -11.3721    3.1704    0.0000 C   0  0  0  0  0  0  0  0  0  0  0  0
  -10.9596    2.4560    0.0000 C   0  0  0  0  0  0  0  0  0  0  0  0
  -12.6922    5.3959    0.0000 H   0  0  0  0  0  0  0  0  0  0  0  0
  1  2  2  0
  1  6  1  0
  2  3  1  0
  3  4  2  0
  4  5  1  0
  5  6  2  0
  3  7  1  0
  7  8  2  0
  7 11  1  0
  9 10  1  0
 10 11  2  0
  8 12  1  0
  9  8  1  0
 15  9  1  0
 12 13  2  0
 13 14  1  0
 14 15  2  0
 16 10  1  0
 16 17  1  0
 16 20  1  0
 17 18  1  0
 18 19  1  0
 19 20  1  0
  6 21  1  0
 21 22  1  0
 21 23  2  0
 22 24  1  0
 24 25  1  0
 24 29  2  0
 25 26  2  0
 26 27  1  0
 27 28  2  0
 28 29  1  0
 12 30  1  0
 17 31  1  0
 31 32  1  0
 31 33  2  0
 32 34  3  0
 34 35  1  0
 16 36  1  6
M  END
> <chembl_id>
CHEMBL3707348

> <chembl_pref_name>
ACALABRUTINIB
