
     RDKit          2D

 29 30  0  0  0  0  0  0  0  0999 V2000
    7.4625   -1.9042    0.0000 Cl  0  0  0  0  0  0  0  0  0  0  0  0
    1.7958   -1.4292    0.0000 N   0  0  0  0  0  0  0  0  0  0  0  0
    1.7958   -0.7417    0.0000 C   0  0  0  0  0  0  0  0  0  0  0  0
    0.6000   -1.4292    0.0000 C   0  0  0  0  0  0  0  0  0  0  0  0
    1.1958   -1.7792    0.0000 C   0  0  0  0  0  0  0  0  0  0  0  0
    1.1958   -0.3917    0.0000 N   0  0  0  0  0  0  0  0  0  0  0  0
    0.6000   -0.7417    0.0000 C   0  0  0  0  0  0  0  0  0  0  0  0
    0.0042   -1.7792    0.0000 C   0  0  0  0  0  0  0  0  0  0  0  0
    0.0042   -0.3917    0.0000 C   0  0  0  0  0  0  0  0  0  0  0  0
    4.7792   -1.7792    0.0000 C   0  0  0  0  0  0  0  0  0  0  0  0
   -0.5958   -1.4375    0.0000 C   0  0  0  0  0  0  0  0  0  0  0  0
   -0.5958   -0.7458    0.0000 C   0  0  0  0  0  0  0  0  0  0  0  0
    2.4000   -0.3958    0.0000 N   0  0  0  0  0  0  0  0  0  0  0  0
    5.3792   -1.4250    0.0000 C   0  0  0  0  0  0  0  0  0  0  0  0
    4.7792   -2.4667    0.0000 O   0  0  0  0  0  0  0  0  0  0  0  0
    5.9542   -1.8458    0.0000 O   0  0  0  0  0  0  0  0  0  0  0  0
    1.1958   -2.4708    0.0000 N   0  0  0  0  0  0  0  0  0  0  0  0
    4.1875   -1.4292    0.0000 N   0  0  0  0  0  0  0  0  0  0  0  0
   -1.2000   -1.7833    0.0000 O   0  0  0  0  0  0  0  0  0  0  0  0
   -1.2000   -0.3958    0.0000 O   0  0  0  0  0  0  0  0  0  0  0  0
    2.9917   -1.4375    0.0000 C   0  0  0  0  0  0  0  0  0  0  0  0
    2.9958   -0.7458    0.0000 C   0  0  0  0  0  0  0  0  0  0  0  0
    3.5875   -1.7792    0.0000 C   0  0  0  0  0  0  0  0  0  0  0  0
    2.4042    0.2958    0.0000 C   0  0  0  0  0  0  0  0  0  0  0  0
    6.5292   -1.4250    0.0000 C   0  0  0  0  0  0  0  0  0  0  0  0
    5.6000   -0.7542    0.0000 C   0  0  0  0  0  0  0  0  0  0  0  0
   -1.8042   -1.4375    0.0000 C   0  0  0  0  0  0  0  0  0  0  0  0
   -1.7958   -0.7458    0.0000 C   0  0  0  0  0  0  0  0  0  0  0  0
    6.3083   -0.7542    0.0000 C   0  0  0  0  0  0  0  0  0  0  0  0
  3  2  1  0
  4  5  1  0
  5  2  2  0
  6  3  2  0
  7  4  2  0
  8  4  1  0
  9  7  1  0
 10 18  1  0
 11  8  2  0
 12  9  2  0
 13  3  1  0
 14 10  1  0
 15 10  2  0
 16 14  1  0
 17  5  1  0
 18 23  1  0
 19 11  1  0
 20 12  1  0
 21 22  1  0
 22 13  1  0
 23 21  1  0
 24 13  1  0
 25 16  1  0
 26 14  1  0
 27 19  1  0
 28 20  1  0
 29 26  1  0
  6  7  1  0
 12 11  1  0
 25 29  1  0
M  END
> <chembl_id>
CHEMBL1723

> <chembl_pref_name>
ALFUZOSIN HYDROCHLORIDE
