
     RDKit          2D

 20 21  0  0  0  0  0  0  0  0999 V2000
    5.0542   -0.9083    0.0000 Na  0  0  0  0  0 15  0  0  0  0  0  0
    2.4667    0.2625    0.0000 C   0  0  0  0  0  0  0  0  0  0  0  0
    2.6833   -0.4083    0.0000 C   0  0  0  0  0  0  0  0  0  0  0  0
    1.7583    0.2625    0.0000 N   0  0  0  0  0  0  0  0  0  0  0  0
    3.0792    0.6250    0.0000 N   0  0  0  0  0  0  0  0  0  0  0  0
    3.3000   -0.7583    0.0000 S   0  0  0  0  0  0  0  0  0  0  0  0
    2.1125   -0.8292    0.0000 N   0  0  0  0  0  0  0  0  0  0  0  0
    3.3000   -1.4667    0.0000 C   0  0  0  0  0  0  0  0  0  0  0  0
    3.9125   -1.8208    0.0000 C   0  0  0  0  0  0  0  0  0  0  0  0
    1.5375   -0.4083    0.0000 C   0  0  0  0  0  0  0  0  0  0  0  0
    3.9167   -2.5292    0.0000 C   0  0  0  0  0  0  0  0  0  0  0  0
    4.5917   -2.7458    0.0000 N   0  0  0  0  0  0  0  0  0  0  0  0
    2.6875   -1.8208    0.0000 N   0  0  0  0  0  0  0  0  0  0  0  0
    4.5875   -1.5958    0.0000 N   0  0  0  0  0  0  0  0  0  0  0  0
    3.3000   -2.8875    0.0000 N   0  0  0  0  0  0  0  0  0  0  0  0
    5.0083   -2.1667    0.0000 C   0  0  0  0  0  0  0  0  0  0  0  0
    3.6917    0.2708    0.0000 O   0  0  0  0  0  0  0  0  0  0  0  0
    2.6875   -2.5333    0.0000 C   0  0  0  0  0  0  0  0  0  0  0  0
    3.0708    1.3292    0.0000 O   0  0  0  0  0  0  0  0  0  0  0  0
    2.1125   -1.5375    0.0000 C   0  0  0  0  0  0  0  0  0  0  0  0
  3  2  2  0
  4  2  1  0
  5  2  1  0
  6  3  1  0
  7  3  1  0
  8  6  1  0
  9  8  2  0
 10  4  2  0
 11  9  1  0
 12 11  1  0
 13  8  1  0
 14  9  1  0
 15 18  1  0
 16 14  1  0
 17  5  1  0
 18 13  2  0
 19  5  2  0
 20  7  1  0
 10  7  1  0
 11 15  2  0
 16 12  2  0
M  CHG  4   1   1   5   1  14  -1  17  -1
M  END
> <chembl_id>
CHEMBL1200400

> <chembl_pref_name>
AZATHIOPRINE SODIUM
