
     RDKit          2D

 19 21  0  0  0  0  0  0  0  0999 V2000
   -3.4473    8.3973    0.0000 C   0  0  0  0  0  0  0  0  0  0  0  0
   -4.1618    7.9848    0.0000 C   0  0  0  0  0  0  0  0  0  0  0  0
   -4.1618    7.1598    0.0000 C   0  0  0  0  0  0  0  0  0  0  0  0
   -3.4473    6.7473    0.0000 C   0  0  0  0  0  0  0  0  0  0  0  0
   -2.7328    7.1598    0.0000 C   0  0  0  0  0  0  0  0  0  0  0  0
   -2.7328    7.9848    0.0000 C   0  0  0  0  0  0  0  0  0  0  0  0
   -4.8763    8.3973    0.0000 C   0  0  0  0  0  0  0  0  0  0  0  0
   -5.5908    8.8098    0.0000 N   0  0  0  0  0  0  0  0  0  0  0  0
   -2.0184    6.7473    0.0000 O   0  0  0  0  0  0  0  0  0  0  0  0
   -1.3039    7.1598    0.0000 C   0  0  0  0  0  0  0  0  0  0  0  0
   -0.5894    6.7473    0.0000 C   0  0  0  0  0  0  0  0  0  0  0  0
    0.1251    7.1598    0.0000 C   0  0  0  0  0  0  0  0  0  0  0  0
    0.1251    7.9848    0.0000 C   0  0  0  0  0  0  0  0  0  0  0  0
   -0.5894    8.3973    0.0000 C   0  0  0  0  0  0  0  0  0  0  0  0
   -1.3039    7.9848    0.0000 C   0  0  0  0  0  0  0  0  0  0  0  0
    0.9097    6.9049    0.0000 C   0  0  0  0  0  0  0  0  0  0  0  0
    1.3946    7.5723    0.0000 O   0  0  0  0  0  0  0  0  0  0  0  0
    0.9097    8.2397    0.0000 B   0  0  0  0  0  0  0  0  0  0  0  0
    1.1647    9.0243    0.0000 O   0  0  0  0  0  0  0  0  0  0  0  0
  1  2  2  0
  1  6  1  0
  2  3  1  0
  3  4  2  0
  4  5  1  0
  5  6  2  0
  2  7  1  0
  7  8  3  0
  5  9  1  0
  9 10  1  0
 10 11  2  0
 10 15  1  0
 11 12  1  0
 13 14  1  0
 14 15  2  0
 12 16  1  0
 12 13  2  0
 13 18  1  0
 16 17  1  0
 17 18  1  0
 18 19  1  0
M  END
> <chembl_id>
CHEMBL484785

> <chembl_pref_name>
CRISABOROLE
