
     RDKit          2D

 54 56  0  0  1  0  0  0  0  0999 V2000
    2.2496   -7.9081    0.0000 C   0  0  0  0  0  0  0  0  0  0  0  0
    7.9662   -7.0891    0.0000 C   0  0  0  0  0  0  0  0  0  0  0  0
    3.6794   -7.0846    0.0000 C   0  0  0  0  0  0  0  0  0  0  0  0
    5.8232   -6.6743    0.0000 C   0  0  0  0  0  0  0  0  0  0  0  0
    2.6607   -9.1780    0.0000 N   0  0  0  0  0  0  0  0  0  0  0  0
    6.5373   -7.0876    0.0000 N   0  0  0  0  0  0  0  0  0  0  0  0
    8.6811   -6.6773    0.0000 N   0  0  0  0  0  0  0  0  0  0  0  0
    7.2522   -6.6758    0.0000 C   0  0  0  0  0  0  0  0  0  0  0  0
    2.9165   -8.3937    0.0000 C   0  0  0  0  0  0  0  0  0  0  0  0
    4.3943   -6.6728    0.0000 N   0  0  0  0  0  0  0  0  0  0  0  0
    7.2531   -5.8508    0.0000 C   0  0  0  0  0  0  0  0  0  0  0  0
    2.9654   -6.6713    0.0000 C   0  0  0  0  0  0  0  0  0  0  0  0
    3.6837   -2.9596    0.0000 C   0  0  0  0  0  0  0  0  0  0  0  0
    9.3952   -7.0906    0.0000 C   0  0  0  0  0  0  0  0  0  0  0  0
    9.3943   -7.9156    0.0000 C   0  0  0  0  0  0  0  0  0  0  0  0
    1.5816   -8.3923    0.0000 C   0  0  0  0  0  0  0  0  0  0  0  0
    2.2505   -7.0831    0.0000 C   0  0  0  0  0  0  0  0  0  0  0  0
    2.9662   -5.8463    0.0000 N   0  0  0  0  0  0  0  0  0  0  0  0
    3.6811   -5.4346    0.0000 C   0  0  0  0  0  0  0  0  0  0  0  0
    5.1083   -7.0861    0.0000 C   0  0  0  0  0  0  0  0  0  0  0  0
    7.9680   -5.4391    0.0000 C   0  0  0  0  0  0  0  0  0  0  0  0
    1.8357   -9.1772    0.0000 C   0  0  0  0  0  0  0  0  0  0  0  0
    2.9688   -3.3713    0.0000 O   0  0  0  0  0  0  0  0  0  0  0  0
    3.6785   -7.9096    0.0000 O   0  0  0  0  0  0  0  0  0  0  0  0
    7.9653   -7.9141    0.0000 O   0  0  0  0  0  0  0  0  0  0  0  0
    5.8241   -5.8493    0.0000 O   0  0  0  0  0  0  0  0  0  0  0  0
    3.6820   -4.6096    0.0000 C   0  0  0  0  0  0  0  0  0  0  0  0
   10.1101   -6.6789    0.0000 C   0  0  0  0  0  0  0  0  0  0  0  0
    3.6846   -2.1346    0.0000 O   0  0  0  0  0  0  0  0  0  0  0  0
   10.1083   -8.3289    0.0000 O   0  0  0  0  0  0  0  0  0  0  0  0
    4.3952   -5.8478    0.0000 O   0  0  0  0  0  0  0  0  0  0  0  0
    8.6820   -5.8523    0.0000 O   0  0  0  0  0  0  0  0  0  0  0  0
    4.3978   -3.3728    0.0000 N   0  0  0  0  0  0  0  0  0  0  0  0
    2.2548   -2.9581    0.0000 C   0  0  0  0  0  0  0  0  0  0  0  0
    8.6794   -8.3273    0.0000 N   0  0  0  0  0  0  0  0  0  0  0  0
    4.3969   -4.1978    0.0000 C   0  0  0  0  0  0  0  0  0  0  0  0
    5.1075   -7.9111    0.0000 C   0  0  0  0  0  0  0  0  0  0  0  0
    7.9688   -4.6141    0.0000 O   0  0  0  0  0  0  0  0  0  0  0  0
   10.8241   -7.0921    0.0000 C   0  0  0  0  0  0  0  0  0  0  0  0
    5.8206   -9.1493    0.0000 S   0  0  0  0  0  0  0  0  0  0  0  0
    0.7748   -8.2199    0.0000 C   0  0  0  0  0  0  0  0  0  0  0  0
    5.8215   -8.3243    0.0000 C   0  0  0  0  0  0  0  0  0  0  0  0
    1.2831   -9.7897    0.0000 C   0  0  0  0  0  0  0  0  0  0  0  0
    1.5408   -2.5448    0.0000 C   0  0  0  0  0  0  0  0  0  0  0  0
    2.3945   -2.0617    0.0000 C   0  0  0  0  0  0  0  0  0  0  0  0
    1.6288   -3.4593    0.0000 C   0  0  0  0  0  0  0  0  0  0  0  0
    6.5347   -9.5626    0.0000 C   0  0  0  0  0  0  0  0  0  0  0  0
   11.5390   -6.6804    0.0000 C   0  0  0  0  0  0  0  0  0  0  0  0
   10.8232   -7.9171    0.0000 C   0  0  0  0  0  0  0  0  0  0  0  0
    0.2222   -8.8324    0.0000 C   0  0  0  0  0  0  0  0  0  0  0  0
    0.4763   -9.6173    0.0000 C   0  0  0  0  0  0  0  0  0  0  0  0
   11.5373   -8.3304    0.0000 C   0  0  0  0  0  0  0  0  0  0  0  0
   12.2530   -7.0936    0.0000 C   0  0  0  0  0  0  0  0  0  0  0  0
   12.2522   -7.9186    0.0000 C   0  0  0  0  0  0  0  0  0  0  0  0
  2  8  1  0
  3 12  1  0
  4 20  1  0
  5  9  1  0
  6  4  1  0
  7  2  1  0
  8  6  1  0
  9  1  2  0
 10  3  1  0
  8 11  1  1
 12 17  1  6
 13 33  1  0
 14  7  1  0
 15 14  1  0
 16  1  1  0
 17  1  1  0
 18 12  1  0
 19 18  1  0
 20 10  1  0
 21 11  1  0
 22 16  2  0
 23 13  1  0
 24  3  2  0
 25  2  2  0
 26  4  2  0
 27 19  1  0
 14 28  1  1
 29 13  2  0
 30 15  2  0
 31 19  2  0
 32 21  2  0
 33 36  1  0
 34 23  1  0
 35 15  1  0
 36 27  1  0
 20 37  1  6
 38 21  1  0
 39 28  1  0
 40 42  1  0
 41 16  1  0
 42 37  1  0
 43 22  1  0
 44 34  1  0
 45 34  1  0
 46 34  1  0
 47 40  1  0
 48 39  1  0
 49 39  2  0
 50 41  2  0
 51 50  1  0
 52 49  1  0
 53 48  2  0
 54 52  2  0
  5 22  1  0
 51 43  2  0
 54 53  1  0
M  END
> <chembl_id>
CHEMBL1328

> <chembl_pref_name>
PENTAGASTRIN
