
     RDKit          2D

 29 29  0  0  0  0  0  0  0  0999 V2000
    6.3917   -4.2125    0.0000 N   0  0  0  0  0  0  0  0  0  0  0  0
    6.3875   -3.3875    0.0000 C   0  0  0  0  0  0  0  0  0  0  0  0
    5.5667   -4.2083    0.0000 C   0  0  0  0  0  0  0  0  0  0  0  0
    5.9750   -4.9250    0.0000 C   0  0  0  0  0  0  0  0  0  0  0  0
    7.1042   -4.6250    0.0000 C   0  0  0  0  0  0  0  0  0  0  0  0
    7.1032   -5.4500    0.0000 C   0  0  0  0  0  0  0  0  0  0  0  0
    7.8172   -5.8634    0.0000 O   0  0  0  0  0  0  0  0  0  0  0  0
    2.2111    1.0292    0.0000 C   0  0  0  0  0  0  0  0  0  0  0  0
    2.2099    0.2018    0.0000 C   0  0  0  0  0  0  0  0  0  0  0  0
    2.9247   -0.2110    0.0000 C   0  0  0  0  0  0  0  0  0  0  0  0
    3.6412    0.2023    0.0000 C   0  0  0  0  0  0  0  0  0  0  0  0
    3.6383    1.0328    0.0000 C   0  0  0  0  0  0  0  0  0  0  0  0
    2.9229    1.4420    0.0000 C   0  0  0  0  0  0  0  0  0  0  0  0
    4.3512    1.4480    0.0000 Cl  0  0  0  0  0  0  0  0  0  0  0  0
    1.4951   -0.2101    0.0000 C   0  0  0  0  0  0  0  0  0  0  0  0
    0.7810    0.2030    0.0000 O   0  0  0  0  0  0  0  0  0  0  0  0
    1.4945   -1.0351    0.0000 C   0  0  0  0  0  0  0  0  0  0  0  0
    0.7796   -1.4455    0.0000 C   0  0  0  0  0  0  0  0  0  0  0  0
    0.7786   -2.2697    0.0000 C   0  0  0  0  0  0  0  0  0  0  0  0
    1.4932   -2.6836    0.0000 C   0  0  0  0  0  0  0  0  0  0  0  0
    2.2104   -2.2672    0.0000 C   0  0  0  0  0  0  0  0  0  0  0  0
    2.2079   -1.4444    0.0000 C   0  0  0  0  0  0  0  0  0  0  0  0
    1.4937   -3.5086    0.0000 O   0  0  0  0  0  0  0  0  0  0  0  0
    0.7794   -3.9215    0.0000 C   0  0  0  0  0  0  0  0  0  0  0  0
    0.7799   -4.7465    0.0000 C   0  0  0  0  0  0  0  0  0  0  0  0
    0.0625   -3.5083    0.0000 C   0  0  0  0  0  0  0  0  0  0  0  0
    1.4917   -4.3333    0.0000 C   0  0  0  0  0  0  0  0  0  0  0  0
    0.0656   -5.1594    0.0000 O   0  0  0  0  0  0  0  0  0  0  0  0
    1.4946   -5.1586    0.0000 O   0  0  0  0  0  0  0  0  0  0  0  0
  1  2  1  0
  1  3  1  0
  1  4  1  0
  1  5  1  0
  5  6  1  0
  6  7  1  0
 20 21  1  0
  9 10  1  0
 21 22  2  0
 22 17  1  0
 12 14  1  0
 20 23  1  0
 23 24  1  0
  9 15  1  0
 24 25  1  0
 10 11  2  0
 24 26  1  0
 15 16  2  0
 24 27  1  0
  8  9  2  0
 25 28  2  0
 15 17  1  0
 25 29  1  0
 11 12  1  0
 17 18  2  0
 18 19  1  0
 12 13  2  0
 19 20  2  0
 13  8  1  0
M  CHG  2   1   1  29  -1
M  END
> <chembl_id>
CHEMBL1201745

> <chembl_pref_name>
CHOLINE FENOFIBRATE
