
     RDKit          2D

 29 32  0  0  0  0  0  0  0  0999 V2000
    6.6162   -1.8724    0.0000 N   0  0  0  0  0  0  0  0  0  0  0  0
   10.8087   -1.8578    0.0000 N   0  0  0  0  0  0  0  0  0  0  0  0
   10.5516   -2.6342    0.0000 C   0  0  0  0  0  0  0  0  0  0  0  0
    9.4743   -1.8578    0.0000 C   0  0  0  0  0  0  0  0  0  0  0  0
   10.1440   -1.3677    0.0000 C   0  0  0  0  0  0  0  0  0  0  0  0
    9.7315   -2.6342    0.0000 C   0  0  0  0  0  0  0  0  0  0  0  0
    5.8932   -1.4550    0.0000 C   0  0  0  0  0  0  0  0  0  0  0  0
    8.7561   -1.4502    0.0000 C   0  0  0  0  0  0  0  0  0  0  0  0
    7.3295   -1.4550    0.0000 C   0  0  0  0  0  0  0  0  0  0  0  0
    5.8932   -0.6350    0.0000 C   0  0  0  0  0  0  0  0  0  0  0  0
    8.0477   -1.8626    0.0000 C   0  0  0  0  0  0  0  0  0  0  0  0
    4.4666   -0.6350    0.0000 C   0  0  0  0  0  0  0  0  0  0  0  0
    5.1799   -0.2176    0.0000 C   0  0  0  0  0  0  0  0  0  0  0  0
    5.1799   -1.8772    0.0000 C   0  0  0  0  0  0  0  0  0  0  0  0
   11.5124   -1.4357    0.0000 C   0  0  0  0  0  0  0  0  0  0  0  0
    3.7532   -0.2176    0.0000 N   0  0  0  0  0  0  0  0  0  0  0  0
    4.4666   -1.4648    0.0000 C   0  0  0  0  0  0  0  0  0  0  0  0
    6.6065   -0.2176    0.0000 C   0  0  0  0  0  0  0  0  0  0  0  0
    7.3198   -0.6252    0.0000 C   0  0  0  0  0  0  0  0  0  0  0  0
    6.6162   -2.6924    0.0000 C   0  0  0  0  0  0  0  0  0  0  0  0
   11.2649   -3.0418    0.0000 C   0  0  0  0  0  0  0  0  0  0  0  0
   10.1440   -0.5379    0.0000 C   0  0  0  0  0  0  0  0  0  0  0  0
    3.0399   -0.6350    0.0000 C   0  0  0  0  0  0  0  0  0  0  0  0
    3.7532    0.6024    0.0000 C   0  0  0  0  0  0  0  0  0  0  0  0
   11.5075   -0.6107    0.0000 C   0  0  0  0  0  0  0  0  0  0  0  0
   12.2402   -1.8433    0.0000 C   0  0  0  0  0  0  0  0  0  0  0  0
   12.2111   -0.1885    0.0000 C   0  0  0  0  0  0  0  0  0  0  0  0
   12.9487   -1.4259    0.0000 C   0  0  0  0  0  0  0  0  0  0  0  0
   12.9390   -0.5961    0.0000 C   0  0  0  0  0  0  0  0  0  0  0  0
 29 27  1  0
 18 10  1  0
 13 12  1  0
  3  2  1  0
 28 29  2  0
  2  5  1  0
  3  6  2  0
  4  8  1  0
  5  4  2  0
  6  4  1  0
  7  1  1  0
  8 11  2  0
  9  1  2  0
 10  7  1  0
 11  9  1  0
 12 17  2  0
 13 10  2  0
 14  7  2  0
 15  2  1  0
 16 12  1  0
 17 14  1  0
 18 19  2  0
 19  9  1  0
 20  1  1  0
 21  3  1  0
 22  5  1  0
 23 16  1  0
 24 16  1  0
 25 15  1  0
 26 15  2  0
 27 25  2  0
 28 26  1  0
M  CHG  1   1   1
M  END
> <chembl_id>
CHEMBL1201303

> <chembl_pref_name>
PYRVINIUM
