
     RDKit          2D

 18 19  0  0  0  0  0  0  0  0999 V2000
    5.0042  -19.6667    0.0000 C   0  0  0  0  0  0  0  0  0  0  0  0
    5.0125  -18.9542    0.0000 C   0  0  0  0  0  0  0  0  0  0  0  0
    4.3917  -20.0167    0.0000 N   0  0  0  0  0  0  0  0  0  0  0  0
    3.7875  -18.9542    0.0000 N   0  0  0  0  0  0  0  0  0  0  0  0
    3.7792  -19.6667    0.0000 C   0  0  0  0  0  0  0  0  0  0  0  0
    4.4125  -18.6042    0.0000 C   0  0  0  0  0  0  0  0  0  0  0  0
    5.6792  -19.8917    0.0000 N   0  0  0  0  0  0  0  0  0  0  0  0
    5.6875  -18.7417    0.0000 N   0  0  0  0  0  0  0  0  0  0  0  0
    6.1000  -19.3250    0.0000 C   0  0  0  0  0  0  0  0  0  0  0  0
    5.7125  -18.0417    0.0000 C   0  0  0  0  0  0  0  0  0  0  0  0
    3.1667  -20.0125    0.0000 O   0  0  0  0  0  0  0  0  0  0  0  0
    4.4125  -17.8917    0.0000 O   0  0  0  0  0  0  0  0  0  0  0  0
    4.3917  -20.7292    0.0000 C   0  0  0  0  0  0  0  0  0  0  0  0
    3.1750  -18.5917    0.0000 C   0  0  0  0  0  0  0  0  0  0  0  0
    6.3292  -17.7000    0.0000 C   0  0  0  0  0  0  0  0  0  0  0  0
    6.3500  -16.9917    0.0000 O   0  0  0  0  0  0  0  0  0  0  0  0
    7.5750  -17.7125    0.0000 O   0  0  0  0  0  0  0  0  0  0  0  0
    6.9417  -18.0583    0.0000 C   0  0  0  0  0  0  0  0  0  0  0  0
  2  1  2  0
  3  1  1  0
  4  5  1  0
  5  3  1  0
  6  2  1  0
  7  1  1  0
  8  2  1  0
  9  7  2  0
 10  8  1  0
 11  5  2  0
 12  6  2  0
 13  3  1  0
 14  4  1  0
 15 10  1  0
 16 15  1  0
 17 18  1  0
 18 15  1  0
  8  9  1  0
  6  4  1  0
M  END
> <chembl_id>
CHEMBL1752

> <chembl_pref_name>
DYPHYLLINE
