
     RDKit          2D

 12 11  0  0  1  0  0  0  0  0999 V2000
    4.9750   -4.6542    0.0000 C   0  0  0  0  0  0  0  0  0  0  0  0
    4.3792   -4.9792    0.0000 C   0  0  0  0  0  0  0  0  0  0  0  0
    5.6000   -4.9792    0.0000 C   0  0  0  0  0  0  0  0  0  0  0  0
    3.7542   -4.6625    0.0000 C   0  0  0  0  0  0  0  0  0  0  0  0
    4.9667   -3.9417    0.0000 O   0  0  0  0  0  0  0  0  0  0  0  0
    4.3875   -5.7000    0.0000 O   0  0  0  0  0  0  0  0  0  0  0  0
    5.6042   -5.6917    0.0000 O   0  0  0  0  0  0  0  0  0  0  0  0
    3.7417   -3.9417    0.0000 O   0  0  0  0  0  0  0  0  0  0  0  0
    6.8542   -4.9917    0.0000 O   0  0  0  0  0  0  0  0  0  0  0  0
    2.5042   -4.6500    0.0000 O   0  0  0  0  0  0  0  0  0  0  0  0
    3.1375   -4.9917    0.0000 C   0  0  0  0  0  0  0  0  0  0  0  0
    6.2167   -4.6417    0.0000 C   0  0  0  0  0  0  0  0  0  0  0  0
  2  1  1  0
  3  1  1  0
  4  2  1  0
  1  5  1  6
  2  6  1  6
  3  7  1  1
  4  8  1  1
  9 12  1  0
 10 11  1  0
 11  4  1  0
 12  3  1  0
M  END
> <chembl_id>
CHEMBL689

> <chembl_pref_name>
MANNITOL
