
     RDKit          2D

 34 35  0  0  0  0  0  0  0  0999 V2000
    5.0089    0.3830    0.0000 C   0  0  0  0  0  0  0  0  0  0  0  0
    5.7234    0.7955    0.0000 C   0  0  0  0  0  0  0  0  0  0  0  0
    6.4379    0.3830    0.0000 C   0  0  0  0  0  0  0  0  0  0  0  0
    7.1523    0.7955    0.0000 C   0  0  0  0  0  0  0  0  0  0  0  0
    7.3658    1.5924    0.0000 O   0  0  0  0  0  0  0  0  0  0  0  0
    7.8668    0.3830    0.0000 O   0  0  0  0  0  0  0  0  0  0  0  0
    4.2944    0.7955    0.0000 O   0  0  0  0  0  0  0  0  0  0  0  0
    5.0089   -0.4420    0.0000 O   0  0  0  0  0  0  0  0  0  0  0  0
    0.1768    2.8581    0.0000 C   0  0  0  0  0  0  0  0  0  0  0  0
   -0.5377    2.4455    0.0000 C   0  0  0  0  0  0  0  0  0  0  0  0
   -0.5377    1.6205    0.0000 C   0  0  0  0  0  0  0  0  0  0  0  0
    0.1768    1.2080    0.0000 N   0  0  0  0  0  0  0  0  0  0  0  0
    0.8913    1.6205    0.0000 C   0  0  0  0  0  0  0  0  0  0  0  0
    0.8913    2.4455    0.0000 C   0  0  0  0  0  0  0  0  0  0  0  0
    0.1768    0.3830    0.0000 C   0  0  0  0  0  0  0  0  0  0  0  0
   -0.5377   -0.0295    0.0000 C   0  0  0  0  0  0  0  0  0  0  0  0
   -0.5377   -0.8545    0.0000 C   0  0  0  0  0  0  0  0  0  0  0  0
    0.1768   -1.2670    0.0000 N   0  0  0  0  0  0  0  0  0  0  0  0
    0.8913   -0.8545    0.0000 C   0  0  0  0  0  0  0  0  0  0  0  0
    0.8913   -0.0295    0.0000 N   0  0  0  0  0  0  0  0  0  0  0  0
    1.6057    0.3830    0.0000 C   0  0  0  0  0  0  0  0  0  0  0  0
    2.3202   -0.0295    0.0000 C   0  0  0  0  0  0  0  0  0  0  0  0
    3.0347    0.3830    0.0000 C   0  0  0  0  0  0  0  0  0  0  0  0
    2.3202   -0.8545    0.0000 C   0  0  0  0  0  0  0  0  0  0  0  0
    3.0347   -1.2670    0.0000 C   0  0  0  0  0  0  0  0  0  0  0  0
    3.7491   -0.8545    0.0000 C   0  0  0  0  0  0  0  0  0  0  0  0
    3.7491   -0.0295    0.0000 C   0  0  0  0  0  0  0  0  0  0  0  0
    3.0347    1.2080    0.0000 C   0  0  0  0  0  0  0  0  0  0  0  0
    3.0347   -2.0920    0.0000 F   0  0  0  0  0  0  0  0  0  0  0  0
    1.6057   -1.2670    0.0000 O   0  0  0  0  0  0  0  0  0  0  0  0
    0.1768   -2.0920    0.0000 C   0  0  0  0  0  0  0  0  0  0  0  0
   -1.3627    2.4455    0.0000 N   0  0  0  0  0  0  0  0  0  0  0  0
    3.0347    2.0330    0.0000 N   0  0  0  0  0  0  0  0  0  0  0  0
   -1.2522   -1.2670    0.0000 O   0  0  0  0  0  0  0  0  0  0  0  0
  1  2  1  0
  2  3  1  0
  3  4  1  0
  4  5  2  0
  4  6  1  0
  1  7  2  0
  1  8  1  0
  9 10  1  0
  9 14  1  0
 10 11  1  0
 11 12  1  0
 12 13  1  0
 13 14  1  0
 12 15  1  0
 15 16  2  0
 15 20  1  0
 16 17  1  0
 17 18  1  0
 18 19  1  0
 19 20  1  0
 20 21  1  0
 21 22  1  0
 23 22  2  0
 22 24  1  0
 23 27  1  0
 24 25  2  0
 25 26  1  0
 26 27  2  0
 23 28  1  0
 25 29  1  0
 19 30  2  0
 18 31  1  0
 10 32  1  6
 28 33  3  0
 17 34  2  0
M  END
> <chembl_id>
CHEMBL2105754

> <chembl_pref_name>
TRELAGLIPTIN SUCCINATE
