
     RDKit          2D

 38 40  0  0  0  0  0  0  0  0999 V2000
    7.6470    0.0000    0.0000 Na  0  0  0  0  0 15  0  0  0  0  0  0
    0.4064    0.0451    0.0000 S   0  0  0  0  0  0  0  0  0  0  0  0
   -1.8727    2.3931    0.0000 S   0  0  0  0  0  0  0  0  0  0  0  0
   -1.7164   -1.7757    0.0000 O   0  0  0  0  0  0  0  0  0  0  0  0
    1.1209   -2.8424    0.0000 O   0  0  0  0  0  0  0  0  0  0  0  0
   -0.3081   -2.8424    0.0000 O   0  0  0  0  0  0  0  0  0  0  0  0
   -0.7060    1.2264    0.0000 O   0  0  0  0  0  0  0  0  0  0  0  0
   -1.0758    2.1796    0.0000 O   0  0  0  0  0  0  0  0  0  0  0  0
   -2.6696    2.6067    0.0000 O   0  0  0  0  0  0  0  0  0  0  0  0
   -1.6592    3.1900    0.0000 O   0  0  0  0  0  0  0  0  0  0  0  0
    5.4077   -0.3674    0.0000 O   0  0  0  0  0  0  0  0  0  0  0  0
   -0.3081   -1.1924    0.0000 N   0  0  0  0  0  0  0  0  0  0  0  0
   -1.7164    0.2160    0.0000 N   0  0  0  0  0  0  0  0  0  0  0  0
    2.5498   -1.1924    0.0000 N   0  0  0  0  0  0  0  0  0  0  0  0
    4.6932    0.8701    0.0000 N   0  0  0  0  0  0  0  0  0  0  0  0
   -0.3081   -0.3674    0.0000 C   0  0  0  0  0  0  0  0  0  0  0  0
   -1.1331   -0.3674    0.0000 C   0  0  0  0  0  0  0  0  0  0  0  0
   -1.1331   -1.1924    0.0000 C   0  0  0  0  0  0  0  0  0  0  0  0
    0.4064   -1.6049    0.0000 C   0  0  0  0  0  0  0  0  0  0  0  0
    1.1209   -1.1924    0.0000 C   0  0  0  0  0  0  0  0  0  0  0  0
    1.1209   -0.3674    0.0000 C   0  0  0  0  0  0  0  0  0  0  0  0
    0.4064   -2.4299    0.0000 C   0  0  0  0  0  0  0  0  0  0  0  0
   -1.5029    1.0129    0.0000 C   0  0  0  0  0  0  0  0  0  0  0  0
   -2.0863    1.5962    0.0000 C   0  0  0  0  0  0  0  0  0  0  0  0
    1.8354   -1.6049    0.0000 C   0  0  0  0  0  0  0  0  0  0  0  0
   -2.8831    1.3827    0.0000 C   0  0  0  0  0  0  0  0  0  0  0  0
   -3.0967    0.5858    0.0000 C   0  0  0  0  0  0  0  0  0  0  0  0
   -3.4665    1.9661    0.0000 C   0  0  0  0  0  0  0  0  0  0  0  0
    2.5498   -0.3674    0.0000 C   0  0  0  0  0  0  0  0  0  0  0  0
    3.2643   -1.6049    0.0000 C   0  0  0  0  0  0  0  0  0  0  0  0
    3.9788   -0.3674    0.0000 C   0  0  0  0  0  0  0  0  0  0  0  0
    3.2643    0.0451    0.0000 C   0  0  0  0  0  0  0  0  0  0  0  0
    3.9788   -1.1924    0.0000 C   0  0  0  0  0  0  0  0  0  0  0  0
   -3.8936    0.3723    0.0000 C   0  0  0  0  0  0  0  0  0  0  0  0
   -4.2634    1.7526    0.0000 C   0  0  0  0  0  0  0  0  0  0  0  0
   -4.4769    0.9557    0.0000 C   0  0  0  0  0  0  0  0  0  0  0  0
    4.6932    0.0451    0.0000 C   0  0  0  0  0  0  0  0  0  0  0  0
   -0.5216    0.4295    0.0000 H   0  0  0  0  0  0  0  0  0  0  0  0
 16  2  1  0
  2 21  1  0
  3  8  1  0
  3  9  2  0
  3 10  2  0
  3 24  1  0
  4 18  2  0
  5 22  1  0
  6 22  2  0
  7 23  2  0
 11 37  2  0
 12 16  1  0
 12 18  1  0
 12 19  1  0
 17 13  1  1
 13 23  1  0
 14 25  1  0
 14 29  2  0
 14 30  1  0
 15 37  1  0
 16 17  1  0
 17 18  1  0
 19 20  2  0
 19 22  1  0
 20 21  1  0
 20 25  1  0
 23 24  1  0
 24 26  1  1
 26 27  2  0
 26 28  1  0
 27 34  1  0
 28 35  2  0
 29 32  1  0
 30 33  2  0
 31 32  2  0
 31 33  1  0
 31 37  1  0
 34 36  2  0
 35 36  1  0
 16 38  1  6
M  CHG  4   1   1   5  -1   8  -1  14   1
M  END
> <chembl_id>
CHEMBL1590946

> <chembl_pref_name>
CEFSULODIN SODIUM
