
     RDKit          2D

 27 26  0  0  0  0  0  0  0  0999 V2000
    8.7125   -6.7667    0.0000 C   0  0  0  0  0  0  0  0  0  0  0  0
    9.3292   -7.1167    0.0000 C   0  0  0  0  0  0  0  0  0  0  0  0
    8.1000   -7.1167    0.0000 C   0  0  0  0  0  0  0  0  0  0  0  0
    8.3542   -6.1500    0.0000 C   0  0  0  0  0  0  0  0  0  0  0  0
    9.9417   -6.7667    0.0000 C   0  0  0  0  0  0  0  0  0  0  0  0
    8.1000   -7.8292    0.0000 C   0  0  0  0  0  0  0  0  0  0  0  0
    7.6417   -6.1542    0.0000 O   0  0  0  0  0  0  0  0  0  0  0  0
    9.9417   -6.0542    0.0000 O   0  0  0  0  0  0  0  0  0  0  0  0
    8.7125   -8.1792    0.0000 O   0  0  0  0  0  0  0  0  0  0  0  0
    9.0625   -6.1500    0.0000 O   0  0  0  0  0  0  0  0  0  0  0  0
    8.7042   -5.5292    0.0000 O   0  0  0  0  0  0  0  0  0  0  0  0
    7.4875   -8.1792    0.0000 O   0  0  0  0  0  0  0  0  0  0  0  0
   10.5542   -7.1167    0.0000 O   0  0  0  0  0  0  0  0  0  0  0  0
    4.7042   -6.3250    0.0000 C   0  0  0  0  0  0  0  0  0  0  0  0
    5.3042   -6.6792    0.0000 N   0  0  0  0  0  0  0  0  0  0  0  0
    6.5375   -7.4042    0.0000 N   0  0  0  0  0  0  0  0  0  0  0  0
    4.0917   -6.6792    0.0000 N   0  0  0  0  0  0  0  0  0  0  0  0
    4.7167   -5.6167    0.0000 O   0  0  0  0  0  0  0  0  0  0  0  0
    5.9292   -6.3292    0.0000 C   0  0  0  0  0  0  0  0  0  0  0  0
    5.3167   -7.3917    0.0000 C   0  0  0  0  0  0  0  0  0  0  0  0
    5.9250   -7.7542    0.0000 C   0  0  0  0  0  0  0  0  0  0  0  0
    6.5500   -6.6917    0.0000 C   0  0  0  0  0  0  0  0  0  0  0  0
    7.1542   -7.7667    0.0000 C   0  0  0  0  0  0  0  0  0  0  0  0
    3.4750   -6.3167    0.0000 C   0  0  0  0  0  0  0  0  0  0  0  0
    4.0875   -7.3917    0.0000 C   0  0  0  0  0  0  0  0  0  0  0  0
    3.4667   -7.7417    0.0000 C   0  0  0  0  0  0  0  0  0  0  0  0
    2.8542   -6.6667    0.0000 C   0  0  0  0  0  0  0  0  0  0  0  0
  2  1  1  0
  3  1  1  0
  4  1  1  0
  5  2  1  0
  6  3  1  0
  7  4  2  0
  8  5  2  0
  9  6  2  0
 10  1  1  0
 11  4  1  0
 12  6  1  0
 13  5  1  0
 15 14  1  0
 16 21  1  0
 17 14  1  0
 18 14  2  0
 19 15  1  0
 20 15  1  0
 21 20  1  0
 22 19  1  0
 23 16  1  0
 24 17  1  0
 25 17  1  0
 26 25  1  0
 27 24  1  0
 16 22  1  0
M  END
> <chembl_id>
CHEMBL937

> <chembl_pref_name>
DIETHYLCARBAMAZINE CITRATE
