
     RDKit          2D

 31 32  0  0  0  0  0  0  0  0999 V2000
   -9.7585   -8.5776    0.0000 Na  0  0  0  0  0 15  0  0  0  0  0  0
  -12.0115   -6.9373    0.0000 N   0  0  0  0  0  0  0  0  0  0  0  0
  -12.8365   -6.9373    0.0000 C   0  0  0  0  0  0  0  0  0  0  0  0
  -12.8365   -6.0882    0.0000 C   0  0  0  0  0  0  0  0  0  0  0  0
  -12.0115   -6.1026    0.0000 C   0  0  0  0  0  0  0  0  0  0  0  0
  -11.2879   -7.3619    0.0000 C   0  0  0  0  0  0  0  0  0  0  0  0
  -13.5458   -5.6829    0.0000 N   0  0  0  0  0  0  0  0  0  0  0  0
  -14.2550   -6.0978    0.0000 C   0  0  0  0  0  0  0  0  0  0  0  0
  -14.9546   -5.6684    0.0000 C   0  0  0  0  0  0  0  0  0  0  0  0
  -11.2879   -5.6829    0.0000 S   0  0  0  0  0  0  0  0  0  0  0  0
  -10.5642   -6.9373    0.0000 C   0  0  0  0  0  0  0  0  0  0  0  0
  -11.2879   -8.1869    0.0000 C   0  0  0  0  0  0  0  0  0  0  0  0
  -15.6734   -6.0688    0.0000 C   0  0  0  0  0  0  0  0  0  0  0  0
   -8.4221   -7.3329    0.0000 C   0  0  0  0  0  0  0  0  0  0  0  0
  -10.5642   -6.1026    0.0000 C   0  0  0  0  0  0  0  0  0  0  0  0
  -14.9401   -4.8579    0.0000 N   0  0  0  0  0  0  0  0  0  0  0  0
  -13.4010   -7.5211    0.0000 O   0  0  0  0  0  0  0  0  0  0  0  0
  -15.9098   -6.8408    0.0000 O   0  0  0  0  0  0  0  0  0  0  0  0
   -9.8405   -7.3474    0.0000 C   0  0  0  0  0  0  0  0  0  0  0  0
  -14.2405   -6.9083    0.0000 O   0  0  0  0  0  0  0  0  0  0  0  0
  -10.5690   -8.5776    0.0000 O   0  0  0  0  0  0  0  0  0  0  0  0
  -16.3151   -5.5816    0.0000 C   0  0  0  0  0  0  0  0  0  0  0  0
   -9.1361   -6.9373    0.0000 O   0  0  0  0  0  0  0  0  0  0  0  0
   -8.4269   -8.1530    0.0000 O   0  0  0  0  0  0  0  0  0  0  0  0
  -11.9971   -8.5921    0.0000 O   0  0  0  0  0  0  0  0  0  0  0  0
  -16.7589   -6.8359    0.0000 C   0  0  0  0  0  0  0  0  0  0  0  0
  -17.0050   -6.0592    0.0000 C   0  0  0  0  0  0  0  0  0  0  0  0
   -7.7418   -6.8987    0.0000 N   0  0  0  0  0  0  0  0  0  0  0  0
  -12.0454   -5.3066    0.0000 H   0  0  0  0  0  0  0  0  0  0  0  0
  -14.2256   -4.4454    0.0000 O   0  0  0  0  0  0  0  0  0  0  0  0
  -14.2256   -3.6204    0.0000 C   0  0  0  0  0  0  0  0  0  0  0  0
  3  2  1  0
  4  5  1  0
  5  2  1  0
  6  2  1  0
  4  7  1  1
  8  7  1  0
  9  8  1  0
 10  5  1  0
 11  6  2  0
 12  6  1  0
 13  9  1  0
 14 23  1  0
 15 11  1  0
 16  9  2  0
 17  3  2  0
 18 13  1  0
 19 11  1  0
 20  8  2  0
 21 12  1  0
 22 13  2  0
 23 19  1  0
 24 14  2  0
 25 12  2  0
 26 18  1  0
 27 22  1  0
 28 14  1  0
  5 29  1  6
  4  3  1  0
 15 10  1  0
 26 27  2  0
 16 30  1  0
 30 31  1  0
M  CHG  2   1   1  21  -1
M  END
> <chembl_id>
CHEMBL2146124

> <chembl_pref_name>
CEFUROXIME SODIUM
