
     RDKit          2D

 12 12  0  0  1  0  0  0  0  0999 V2000
    4.5292   -7.4917    0.0000 C   0  0  0  0  0  0  0  0  0  0  0  0
    3.9167   -7.1500    0.0000 C   0  0  0  0  0  0  0  0  0  0  0  0
    5.1375   -7.1417    0.0000 C   0  0  0  0  0  0  0  0  0  0  0  0
    3.3042   -7.5000    0.0000 C   0  0  0  0  0  0  0  0  0  0  0  0
    6.3750   -7.1292    0.0000 N   0  0  0  0  0  0  0  0  0  0  0  0
    5.1375   -6.4375    0.0000 O   0  0  0  0  0  0  0  0  0  0  0  0
    2.6792   -7.1542    0.0000 O   0  0  0  0  0  0  0  0  0  0  0  0
    4.5375   -8.2125    0.0000 C   0  0  0  0  0  0  0  0  0  0  0  0
    3.9167   -8.5625    0.0000 C   0  0  0  0  0  0  0  0  0  0  0  0
    5.7625   -7.4917    0.0000 C   0  0  0  0  0  0  0  0  0  0  0  0
    3.3042   -8.2125    0.0000 C   0  0  0  0  0  0  0  0  0  0  0  0
    6.9917   -7.4792    0.0000 C   0  0  0  0  0  0  0  0  0  0  0  0
  2  1  2  0
  3  1  1  0
  4  2  1  0
  5 10  1  0
  3  6  1  1
  7  4  1  0
  8  1  1  0
  9  8  2  0
 10  3  1  0
 11  9  1  0
 12  5  1  0
 11  4  2  0
M  END
> <chembl_id>
CHEMBL1215

> <chembl_pref_name>
PHENYLEPHRINE
