
     RDKit          2D

 33 34  0  0  0  0  0  0  0  0999 V2000
   16.7781   -5.6079    0.0000 Cl  0  0  0  0  0  0  0  0  0  0  0  0
   14.3873   -2.6485    0.0000 N   0  0  0  0  0  0  0  0  0  0  0  0
   15.8266   -1.8178    0.0000 N   0  0  0  0  0  0  0  0  0  0  0  0
   13.6822   -3.0494    0.0000 C   0  0  0  0  0  0  0  0  0  0  0  0
   19.4006   -3.0349    0.0000 C   0  0  0  0  0  0  0  0  0  0  0  0
   18.6906   -2.6147    0.0000 C   0  0  0  0  0  0  0  0  0  0  0  0
   12.9673   -2.6437    0.0000 C   0  0  0  0  0  0  0  0  0  0  0  0
   14.3873   -1.8178    0.0000 C   0  0  0  0  0  0  0  0  0  0  0  0
   15.1263   -3.0639    0.0000 C   0  0  0  0  0  0  0  0  0  0  0  0
   13.6773   -3.8753    0.0000 C   0  0  0  0  0  0  0  0  0  0  0  0
   16.5317   -1.3880    0.0000 C   0  0  0  0  0  0  0  0  0  0  0  0
   18.6906   -1.7743    0.0000 C   0  0  0  0  0  0  0  0  0  0  0  0
   17.9806   -3.0349    0.0000 C   0  0  0  0  0  0  0  0  0  0  0  0
   12.2622   -3.0494    0.0000 C   0  0  0  0  0  0  0  0  0  0  0  0
   12.9673   -1.7937    0.0000 C   0  0  0  0  0  0  0  0  0  0  0  0
   15.8266   -2.6485    0.0000 C   0  0  0  0  0  0  0  0  0  0  0  0
   15.1263   -1.3976    0.0000 C   0  0  0  0  0  0  0  0  0  0  0  0
   17.2707   -1.7743    0.0000 C   0  0  0  0  0  0  0  0  0  0  0  0
   11.5329   -1.7937    0.0000 C   0  0  0  0  0  0  0  0  0  0  0  0
   11.5329   -2.6437    0.0000 C   0  0  0  0  0  0  0  0  0  0  0  0
   12.2622   -1.3831    0.0000 C   0  0  0  0  0  0  0  0  0  0  0  0
   17.9806   -1.3590    0.0000 C   0  0  0  0  0  0  0  0  0  0  0  0
   17.2707   -2.6147    0.0000 C   0  0  0  0  0  0  0  0  0  0  0  0
   10.8229   -1.3880    0.0000 Cl  0  0  0  0  0  0  0  0  0  0  0  0
   18.9853   -3.7449    0.0000 C   0  0  0  0  0  0  0  0  0  0  0  0
   19.8063   -3.7449    0.0000 C   0  0  0  0  0  0  0  0  0  0  0  0
   20.1106   -2.6437    0.0000 C   0  0  0  0  0  0  0  0  0  0  0  0
   14.3873   -4.2858    0.0000 C   0  0  0  0  0  0  0  0  0  0  0  0
   12.9673   -4.2858    0.0000 C   0  0  0  0  0  0  0  0  0  0  0  0
   14.3873   -5.1117    0.0000 C   0  0  0  0  0  0  0  0  0  0  0  0
   12.9673   -5.1117    0.0000 C   0  0  0  0  0  0  0  0  0  0  0  0
   13.6773   -5.5270    0.0000 C   0  0  0  0  0  0  0  0  0  0  0  0
   16.7201   -4.8509    0.0000 Cl  0  0  0  0  0  0  0  0  0  0  0  0
  3 16  1  0
  4  2  1  0
  5  6  1  0
  6 13  1  0
  7  4  1  0
  8  2  1  0
  9  2  1  0
 10  4  1  0
 11  3  1  0
 12 22  1  0
 13 23  2  0
 14  7  1  0
 15  7  2  0
 16  9  1  0
 17  8  1  0
 18 11  1  0
 19 21  2  0
 20 14  2  0
 21 15  1  0
 22 18  2  0
 23 18  1  0
 24 19  1  0
 25  5  1  0
 26  5  1  0
 27  5  1  0
 28 10  1  0
 29 10  2  0
 30 28  2  0
 31 29  1  0
 32 30  1  0
 17  3  1  0
 20 19  1  0
 31 32  2  0
 12  6  2  0
M  END
> <chembl_id>
CHEMBL2360580

> <chembl_pref_name>
BUCLIZINE HYDROCHLORIDE
