
     RDKit          2D

 16 16  0  0  0  0  0  0  0  0999 V2000
    2.1417   -8.4500    0.0000 C   0  0  0  0  0  0  0  0  0  0  0  0
    2.1458   -9.1542    0.0000 S   0  0  0  0  0  0  0  0  0  0  0  0
    3.3667   -7.0375    0.0000 S   0  0  0  0  0  0  0  0  0  0  0  0
    1.5250   -8.0917    0.0000 C   0  0  0  0  0  0  0  0  0  0  0  0
    2.7542   -7.3875    0.0000 C   0  0  0  0  0  0  0  0  0  0  0  0
    2.7417   -8.1000    0.0000 C   0  0  0  0  0  0  0  0  0  0  0  0
    1.5167   -7.3792    0.0000 C   0  0  0  0  0  0  0  0  0  0  0  0
    2.1333   -7.0292    0.0000 C   0  0  0  0  0  0  0  0  0  0  0  0
    2.4917   -9.7667    0.0000 O   0  0  0  0  0  0  0  0  0  0  0  0
    2.8542   -9.1542    0.0000 O   0  0  0  0  0  0  0  0  0  0  0  0
    3.0042   -6.4167    0.0000 O   0  0  0  0  0  0  0  0  0  0  0  0
    3.7167   -6.4167    0.0000 O   0  0  0  0  0  0  0  0  0  0  0  0
    1.5333   -9.5125    0.0000 N   0  0  0  0  0  0  0  0  0  0  0  0
    3.9792   -7.3958    0.0000 N   0  0  0  0  0  0  0  0  0  0  0  0
    0.9042   -8.4417    0.0000 Cl  0  0  0  0  0  0  0  0  0  0  0  0
    0.9042   -7.0292    0.0000 Cl  0  0  0  0  0  0  0  0  0  0  0  0
  2  1  1  0
  3  5  1  0
  4  1  1  0
  5  6  1  0
  6  1  2  0
  7  4  2  0
  8  5  2  0
  9  2  2  0
 10  2  2  0
 11  3  2  0
 12  3  2  0
 13  2  1  0
 14  3  1  0
 15  4  1  0
 16  7  1  0
  7  8  1  0
M  END
> <chembl_id>
CHEMBL17

> <chembl_pref_name>
DICHLORPHENAMIDE
