
     RDKit          2D

 34 38  0  0  0  0  0  0  0  0999 V2000
   -4.9041    0.3800    0.0000 C   0  0  0  0  0  0  0  0  0  0  0  0
   -5.4659   -0.2241    0.0000 C   0  0  0  0  0  0  0  0  0  0  0  0
   -5.2236   -1.0127    0.0000 C   0  0  0  0  0  0  0  0  0  0  0  0
   -4.4195   -1.1972    0.0000 C   0  0  0  0  0  0  0  0  0  0  0  0
   -3.8577   -0.5931    0.0000 C   0  0  0  0  0  0  0  0  0  0  0  0
   -4.1000    0.1956    0.0000 C   0  0  0  0  0  0  0  0  0  0  0  0
   -2.4918   -0.1734    0.0000 C   0  0  0  0  0  0  0  0  0  0  0  0
   -2.7341    0.6152    0.0000 C   0  0  0  0  0  0  0  0  0  0  0  0
   -3.5382    0.7997    0.0000 O   0  0  0  0  0  0  0  0  0  0  0  0
   -1.6876   -0.3579    0.0000 C   0  0  0  0  0  0  0  0  0  0  0  0
   -1.1258    0.2463    0.0000 C   0  0  0  0  0  0  0  0  0  0  0  0
   -1.3681    1.0349    0.0000 C   0  0  0  0  0  0  0  0  0  0  0  0
   -2.1722    1.2194    0.0000 C   0  0  0  0  0  0  0  0  0  0  0  0
    0.3220    0.5015    0.0000 C   0  0  0  0  0  0  0  0  0  0  0  0
    0.3939    1.3233    0.0000 O   0  0  0  0  0  0  0  0  0  0  0  0
    0.9978    0.0283    0.0000 N   0  0  0  0  0  0  0  0  0  0  0  0
    1.7455    0.3769    0.0000 C   0  0  0  0  0  0  0  0  0  0  0  0
    1.8174    1.1988    0.0000 C   0  0  0  0  0  0  0  0  0  0  0  0
    2.5049    0.0545    0.0000 C   0  0  0  0  0  0  0  0  0  0  0  0
    3.0462    0.6772    0.0000 N   0  0  0  0  0  0  0  0  0  0  0  0
    2.6213    1.3843    0.0000 C   0  0  0  0  0  0  0  0  0  0  0  0
   -0.3369    0.0050    0.0000 N   0  0  0  0  0  0  0  0  0  0  0  0
   -0.0683   -0.7750    0.0000 C   0  0  0  0  0  0  0  0  0  0  0  0
    0.7565   -0.7607    0.0000 C   0  0  0  0  0  0  0  0  0  0  0  0
   -0.4683   -1.4966    0.0000 C   0  0  0  0  0  0  0  0  0  0  0  0
   -0.0434   -2.2038    0.0000 N   0  0  0  0  0  0  0  0  0  0  0  0
    0.7814   -2.1894    0.0000 C   0  0  0  0  0  0  0  0  0  0  0  0
    1.1814   -1.4679    0.0000 N   0  0  0  0  0  0  0  0  0  0  0  0
    3.8680    0.6053    0.0000 C   0  0  0  0  0  0  0  0  0  0  0  0
    4.3412    1.2810    0.0000 C   0  0  0  0  0  0  0  0  0  0  0  0
    4.2167   -0.1425    0.0000 O   0  0  0  0  0  0  0  0  0  0  0  0
    4.8144    1.9568    0.0000 C   0  0  0  0  0  0  0  0  0  0  0  0
    5.2876    2.6326    0.0000 C   0  0  0  0  0  0  0  0  0  0  0  0
   -1.2932   -1.5109    0.0000 N   0  0  0  0  0  0  0  0  0  0  0  0
  1  2  1  0
  2  3  2  0
  3  4  1  0
  4  5  2  0
  5  6  1  0
  1  6  2  0
  7  8  2  0
  8  9  1  0
  6  9  1  0
 10 11  2  0
 11 12  1  0
 12 13  2  0
  7 10  1  0
  8 13  1  0
 14 15  2  0
 17 16  1  6
 17 18  1  0
 14 16  1  0
 19 20  1  0
 20 21  1  0
 17 19  1  0
 18 21  1  0
 22 23  1  0
 23 24  2  0
 14 22  1  0
 16 24  1  0
 11 22  1  0
 25 26  2  0
 26 27  1  0
 27 28  2  0
 23 25  1  0
 24 28  1  0
 20 29  1  0
 29 30  1  0
 29 31  2  0
 30 32  3  0
 32 33  1  0
 25 34  1  0
M  END
> <chembl_id>
CHEMBL4071161

> <chembl_pref_name>
TIRABRUTINIB
