
     RDKit          2D

 67 72  0  0  1  0  0  0  0  0999 V2000
    9.1875   -3.1917    0.0000 N   0  0  0  0  0  0  0  0  0  0  0  0
    0.8042   -3.2792    0.0000 N   0  0  0  0  0  0  0  0  0  0  0  0
   10.3917   -3.1917    0.0000 C   0  0  0  0  0  0  0  0  0  0  0  0
   -0.4083   -3.2792    0.0000 C   0  0  0  0  0  0  0  0  0  0  0  0
    0.2000   -3.6125    0.0000 C   0  0  0  0  0  0  0  0  0  0  0  0
    9.7750   -3.5500    0.0000 C   0  0  0  0  0  0  0  0  0  0  0  0
   10.3917   -2.4792    0.0000 C   0  0  0  0  0  0  0  0  0  0  0  0
   -0.4083   -2.5417    0.0000 C   0  0  0  0  0  0  0  0  0  0  0  0
   11.0000   -3.5500    0.0000 C   0  0  0  0  0  0  0  0  0  0  0  0
   -1.0208   -3.6125    0.0000 C   0  0  0  0  0  0  0  0  0  0  0  0
   11.6250   -3.1917    0.0000 C   0  0  0  0  0  0  0  0  0  0  0  0
   -1.6458   -3.2792    0.0000 C   0  0  0  0  0  0  0  0  0  0  0  0
   -1.0208   -2.2125    0.0000 C   0  0  0  0  0  0  0  0  0  0  0  0
   11.0000   -2.1292    0.0000 C   0  0  0  0  0  0  0  0  0  0  0  0
   11.6250   -2.4792    0.0000 C   0  0  0  0  0  0  0  0  0  0  0  0
   -1.6458   -2.5417    0.0000 C   0  0  0  0  0  0  0  0  0  0  0  0
    8.0167   -3.2625    0.0000 C   0  0  0  0  0  0  0  0  0  0  0  0
    2.0167   -3.2792    0.0000 C   0  0  0  0  0  0  0  0  0  0  0  0
    8.5875   -3.5500    0.0000 C   0  0  0  0  0  0  0  0  0  0  0  0
    1.3917   -3.6125    0.0000 C   0  0  0  0  0  0  0  0  0  0  0  0
    7.4500   -3.5500    0.0000 C   0  0  0  0  0  0  0  0  0  0  0  0
    2.6167   -3.6125    0.0000 C   0  0  0  0  0  0  0  0  0  0  0  0
   11.6667   -4.6292    0.0000 C   0  0  0  0  0  0  0  0  0  0  0  0
   -1.6333   -4.6625    0.0000 C   0  0  0  0  0  0  0  0  0  0  0  0
    0.8042   -2.5417    0.0000 C   0  0  0  0  0  0  0  0  0  0  0  0
    9.1875   -2.4792    0.0000 C   0  0  0  0  0  0  0  0  0  0  0  0
    9.7750   -4.3417    0.0000 C   0  0  0  0  0  0  0  0  0  0  0  0
    0.2000   -4.3292    0.0000 C   0  0  0  0  0  0  0  0  0  0  0  0
   11.6667   -5.3500    0.0000 C   0  0  0  0  0  0  0  0  0  0  0  0
   -1.6333   -5.3917    0.0000 C   0  0  0  0  0  0  0  0  0  0  0  0
   -1.0208   -4.3417    0.0000 C   0  0  0  0  0  0  0  0  0  0  0  0
   11.0792   -4.2750    0.0000 C   0  0  0  0  0  0  0  0  0  0  0  0
    0.2000   -2.2125    0.0000 C   0  0  0  0  0  0  0  0  0  0  0  0
    9.7750   -2.1292    0.0000 C   0  0  0  0  0  0  0  0  0  0  0  0
   10.4542   -4.6292    0.0000 C   0  0  0  0  0  0  0  0  0  0  0  0
   -0.3958   -4.6625    0.0000 C   0  0  0  0  0  0  0  0  0  0  0  0
    7.4500   -4.2167    0.0000 O   0  0  0  0  0  0  0  0  0  0  0  0
    2.6167   -4.2750    0.0000 O   0  0  0  0  0  0  0  0  0  0  0  0
   -1.0208   -5.7667    0.0000 C   0  0  0  0  0  0  0  0  0  0  0  0
   11.0792   -5.7167    0.0000 C   0  0  0  0  0  0  0  0  0  0  0  0
   10.4542   -5.3500    0.0000 C   0  0  0  0  0  0  0  0  0  0  0  0
   -0.3958   -5.3917    0.0000 C   0  0  0  0  0  0  0  0  0  0  0  0
    8.5667   -2.6000    0.0000 C   0  0  0  0  0  0  0  0  0  0  0  0
    1.6167   -2.5292    0.0000 C   0  0  0  0  0  0  0  0  0  0  0  0
   -2.2375   -3.6125    0.0000 O   0  0  0  0  0  0  0  0  0  0  0  0
   12.3292   -3.5792    0.0000 O   0  0  0  0  0  0  0  0  0  0  0  0
   -2.2375   -2.2125    0.0000 O   0  0  0  0  0  0  0  0  0  0  0  0
   12.2042   -2.1292    0.0000 O   0  0  0  0  0  0  0  0  0  0  0  0
   12.2667   -4.2542    0.0000 O   0  0  0  0  0  0  0  0  0  0  0  0
   -2.2208   -4.2750    0.0000 O   0  0  0  0  0  0  0  0  0  0  0  0
    3.2042   -3.2792    0.0000 O   0  0  0  0  0  0  0  0  0  0  0  0
    6.9125   -3.2042    0.0000 O   0  0  0  0  0  0  0  0  0  0  0  0
   12.3667   -5.7375    0.0000 O   0  0  0  0  0  0  0  0  0  0  0  0
   -2.2208   -5.7167    0.0000 O   0  0  0  0  0  0  0  0  0  0  0  0
    3.8292   -3.5500    0.0000 C   0  0  0  0  0  0  0  0  0  0  0  0
    6.3167   -3.5500    0.0000 C   0  0  0  0  0  0  0  0  0  0  0  0
   12.8750   -4.6042    0.0000 C   0  0  0  0  0  0  0  0  0  0  0  0
   -2.8458   -2.5292    0.0000 C   0  0  0  0  0  0  0  0  0  0  0  0
   12.8917   -3.2792    0.0000 C   0  0  0  0  0  0  0  0  0  0  0  0
   -2.8458   -4.6042    0.0000 C   0  0  0  0  0  0  0  0  0  0  0  0
   -2.8708   -3.2917    0.0000 C   0  0  0  0  0  0  0  0  0  0  0  0
   12.8000   -2.4792    0.0000 C   0  0  0  0  0  0  0  0  0  0  0  0
   13.0167   -5.3500    0.0000 C   0  0  0  0  0  0  0  0  0  0  0  0
   -2.8375   -5.3917    0.0000 C   0  0  0  0  0  0  0  0  0  0  0  0
    5.6792   -3.2792    0.0000 C   0  0  0  0  0  0  0  0  0  0  0  0
    4.4292   -3.2792    0.0000 C   0  0  0  0  0  0  0  0  0  0  0  0
    5.0917   -3.5500    0.0000 C   0  0  0  0  0  0  0  0  0  0  0  0
  2 20  1  6
  3  6  1  0
  4  5  1  0
  5  2  1  0
  6  1  1  0
  7 34  1  0
  8 33  1  0
  9  3  1  0
 10  4  1  0
 11  9  2  0
 12 10  2  0
 13  8  1  0
 14  7  1  0
 15 14  2  0
 16 13  2  0
 17 19  1  0
 18 22  1  0
  1 19  1  1
 20 18  1  0
 21 17  1  0
 22 51  1  0
 23 32  1  0
 24 31  1  0
 25  2  1  0
 26  1  1  0
  6 27  1  1
  5 28  1  6
 29 40  1  0
 30 39  1  0
 31 36  2  0
 32 35  2  0
 33 25  1  0
 34 26  1  0
 35 27  1  0
 36 28  1  0
 37 21  2  0
 38 22  2  0
 39 42  2  0
 40 41  2  0
 41 35  1  0
 42 36  1  0
 43  1  1  0
 44  2  1  0
 45 12  1  0
 46 11  1  0
 47 16  1  0
 48 15  1  0
 49 23  1  0
 50 24  1  0
 51 55  1  0
 52 21  1  0
 53 29  1  0
 54 30  1  0
 55 66  1  0
 56 52  1  0
 57 49  1  0
 58 47  1  0
 59 46  1  0
 60 50  1  0
 61 45  1  0
 62 48  1  0
 63 53  1  0
 64 54  1  0
 65 56  1  0
 66 67  1  0
 67 65  1  0
  7  3  2  0
 15 11  1  0
 29 23  2  0
  8  4  2  0
 16 12  1  0
 30 24  2  0
M  CHG  2   1   1   2   1
M  END
> <chembl_id>
CHEMBL1201248

> <chembl_pref_name>
CISATRACURIUM
