
     RDKit          2D

 21 22  0  0  0  0  0  0  0  0999 V2000
   -2.0458   -0.5042    0.0000 S   0  0  0  0  0  0  0  0  0  0  0  0
   -1.4333   -0.1500    0.0000 C   0  0  0  0  0  0  0  0  0  0  0  0
   -0.8208    0.9000    0.0000 C   0  0  0  0  0  0  0  0  0  0  0  0
   -1.4333    0.5500    0.0000 C   0  0  0  0  0  0  0  0  0  0  0  0
   -0.1958    0.5500    0.0000 C   0  0  0  0  0  0  0  0  0  0  0  0
   -0.8208   -0.5042    0.0000 C   0  0  0  0  0  0  0  0  0  0  0  0
   -0.8208    1.6208    0.0000 C   0  0  0  0  0  0  0  0  0  0  0  0
   -0.1958   -0.1500    0.0000 C   0  0  0  0  0  0  0  0  0  0  0  0
    0.4042    0.9000    0.0000 N   0  0  0  0  0  0  0  0  0  0  0  0
   -1.6958   -1.1167    0.0000 O   0  0  0  0  0  0  0  0  0  0  0  0
   -2.4083   -1.1167    0.0000 O   0  0  0  0  0  0  0  0  0  0  0  0
    1.6917    0.8750    0.0000 C   0  0  0  0  0  0  0  0  0  0  0  0
    1.9167    1.5333    0.0000 O   0  0  0  0  0  0  0  0  0  0  0  0
   -2.6625   -0.1542    0.0000 N   0  0  0  0  0  0  0  0  0  0  0  0
   -1.4458    2.0000    0.0000 O   0  0  0  0  0  0  0  0  0  0  0  0
    2.2417    0.4583    0.0000 C   0  0  0  0  0  0  0  0  0  0  0  0
    2.6167    1.5333    0.0000 C   0  0  0  0  0  0  0  0  0  0  0  0
    2.8250    0.8750    0.0000 C   0  0  0  0  0  0  0  0  0  0  0  0
    1.0625    0.5208    0.0000 C   0  0  0  0  0  0  0  0  0  0  0  0
   -0.8208   -1.2250    0.0000 Cl  0  0  0  0  0  0  0  0  0  0  0  0
   -0.2208    1.9750    0.0000 O   0  0  0  0  0  0  0  0  0  0  0  0
  2  1  1  0
  3  4  2  0
  4  2  1  0
  5  8  2  0
  6  2  2  0
  7  3  1  0
  8  6  1  0
  9  5  1  0
 10  1  2  0
 11  1  2  0
 12 19  1  0
 13 12  1  0
 14  1  1  0
 15  7  2  0
 16 12  2  0
 17 13  1  0
 18 16  1  0
 19  9  1  0
 20  6  1  0
 21  7  1  0
  3  5  1  0
 18 17  2  0
M  END
> <chembl_id>
CHEMBL35

> <chembl_pref_name>
FUROSEMIDE
