
     RDKit          2D

 42 46  0  0  0  0  0  0  0  0999 V2000
    4.7292   -0.3875    0.0000 C   0  0  0  0  0  0  0  0  0  0  0  0
    5.3417   -0.7292    0.0000 N   0  0  0  0  0  0  0  0  0  0  0  0
    1.7167   -0.7167    0.0000 C   0  0  0  0  0  0  0  0  0  0  0  0
    1.9375   -1.4042    0.0000 C   0  0  0  0  0  0  0  0  0  0  0  0
    1.1917   -1.2917    0.0000 C   0  0  0  0  0  0  0  0  0  0  0  0
    4.7292    0.3458    0.0000 C   0  0  0  0  0  0  0  0  0  0  0  0
    5.9667    0.3458    0.0000 C   0  0  0  0  0  0  0  0  0  0  0  0
    4.1042   -0.7292    0.0000 N   0  0  0  0  0  0  0  0  0  0  0  0
    2.8417   -0.7292    0.0000 N   0  0  0  0  0  0  0  0  0  0  0  0
    5.3417    0.7000    0.0000 C   0  0  0  0  0  0  0  0  0  0  0  0
    5.9667   -0.3875    0.0000 C   0  0  0  0  0  0  0  0  0  0  0  0
    3.4542   -0.3875    0.0000 C   0  0  0  0  0  0  0  0  0  0  0  0
    0.5542   -1.6500    0.0000 N   0  0  0  0  0  0  0  0  0  0  0  0
    2.2792   -0.3167    0.0000 C   0  0  0  0  0  0  0  0  0  0  0  0
    2.6375   -1.4042    0.0000 C   0  0  0  0  0  0  0  0  0  0  0  0
    5.3417   -1.4667    0.0000 C   0  0  0  0  0  0  0  0  0  0  0  0
    4.1042    0.7000    0.0000 C   0  0  0  0  0  0  0  0  0  0  0  0
   -0.0500   -1.2917    0.0000 C   0  0  0  0  0  0  0  0  0  0  0  0
    6.5917    0.7000    0.0000 C   0  0  0  0  0  0  0  0  0  0  0  0
    3.4542    0.3458    0.0000 C   0  0  0  0  0  0  0  0  0  0  0  0
   -1.9083   -1.6500    0.0000 C   0  0  0  0  0  0  0  0  0  0  0  0
   -1.2958   -1.2917    0.0000 N   0  0  0  0  0  0  0  0  0  0  0  0
    5.9167   -1.8167    0.0000 C   0  0  0  0  0  0  0  0  0  0  0  0
   -0.6625   -1.6500    0.0000 C   0  0  0  0  0  0  0  0  0  0  0  0
    5.9167   -2.5250    0.0000 C   0  0  0  0  0  0  0  0  0  0  0  0
    4.7292   -1.8167    0.0000 C   0  0  0  0  0  0  0  0  0  0  0  0
    5.3417    1.4375    0.0000 O   0  0  0  0  0  0  0  0  0  0  0  0
   -0.0500   -0.5875    0.0000 O   0  0  0  0  0  0  0  0  0  0  0  0
   -1.9083   -2.3417    0.0000 O   0  0  0  0  0  0  0  0  0  0  0  0
    6.5917    1.4125    0.0000 O   0  0  0  0  0  0  0  0  0  0  0  0
   -2.4833   -1.2917    0.0000 C   0  0  0  0  0  0  0  0  0  0  0  0
    5.3417   -2.8625    0.0000 C   0  0  0  0  0  0  0  0  0  0  0  0
    2.8417    0.7000    0.0000 F   0  0  0  0  0  0  0  0  0  0  0  0
    6.5292   -1.4667    0.0000 F   0  0  0  0  0  0  0  0  0  0  0  0
    7.2000    0.3458    0.0000 O   0  0  0  0  0  0  0  0  0  0  0  0
    4.7292   -2.5250    0.0000 C   0  0  0  0  0  0  0  0  0  0  0  0
   -3.1083   -1.6500    0.0000 N   0  0  0  0  0  0  0  0  0  0  0  0
    5.3417   -3.5667    0.0000 F   0  0  0  0  0  0  0  0  0  0  0  0
   -0.6625   -2.3417    0.0000 C   0  0  0  0  0  0  0  0  0  0  0  0
   -2.4833   -0.5875    0.0000 C   0  0  0  0  0  0  0  0  0  0  0  0
    1.5042   -0.0542    0.0000 H   0  0  0  0  0  0  0  0  0  0  0  0
    2.1250   -2.0542    0.0000 H   0  0  0  0  0  0  0  0  0  0  0  0
  2  1  1  0
  3 14  1  0
  4 15  1  0
  5  3  1  0
  6  1  2  0
  7 10  1  0
  8  1  1  0
  9 12  1  0
 10  6  1  0
 11  2  1  0
 12  8  2  0
  5 13  1  6
 14  9  1  0
 15  9  1  0
 16  2  1  0
 17  6  1  0
 18 13  1  0
 19  7  1  0
 20 12  1  0
 21 22  1  0
 22 24  1  0
 23 16  1  0
 24 18  1  0
 25 23  2  0
 26 16  2  0
 27 10  2  0
 28 18  2  0
 29 21  2  0
 30 19  2  0
 31 21  1  0
 32 36  2  0
 33 20  1  0
 34 23  1  0
 35 19  1  0
 36 26  1  0
 37 31  1  0
 38 32  1  0
 24 39  1  6
 31 40  1  1
  3 41  1  6
  4 42  1  6
 11  7  2  0
 17 20  2  0
  3  4  1  0
 25 32  1  0
  4  5  1  0
M  END
> <chembl_id>
CHEMBL1201197

> <chembl_pref_name>
ALATROFLOXACIN
