
     RDKit          2D

 50 53  0  0  0  0  0  0  0  0999 V2000
    7.0833   -8.9042    0.0000 S   0  0  0  0  0  0  0  0  0  0  0  0
    6.7250   -8.2875    0.0000 O   0  0  0  0  0  0  0  0  0  0  0  0
    7.4292   -8.2875    0.0000 O   0  0  0  0  0  0  0  0  0  0  0  0
    7.6958   -9.2625    0.0000 O   0  0  0  0  0  0  0  0  0  0  0  0
    6.4667   -9.2625    0.0000 O   0  0  0  0  0  0  0  0  0  0  0  0
   -0.6250   -7.8542    0.0000 C   0  0  0  0  0  0  0  0  0  0  0  0
   -0.0542   -7.5333    0.0000 N   0  0  0  0  0  0  0  0  0  0  0  0
   -0.6292   -8.5625    0.0000 C   0  0  0  0  0  0  0  0  0  0  0  0
    3.6708   -7.5250    0.0000 N   0  0  0  0  0  0  0  0  0  0  0  0
    4.2917   -7.8833    0.0000 C   0  0  0  0  0  0  0  0  0  0  0  0
    3.0542   -7.8750    0.0000 C   0  0  0  0  0  0  0  0  0  0  0  0
    4.5125   -8.5542    0.0000 C   0  0  0  0  0  0  0  0  0  0  0  0
   -1.2292   -6.7917    0.0000 N   0  0  0  0  0  0  0  0  0  0  0  0
    5.2208   -8.5500    0.0000 C   0  0  0  0  0  0  0  0  0  0  0  0
    4.8625   -7.4625    0.0000 C   0  0  0  0  0  0  0  0  0  0  0  0
   -0.0167   -8.9208    0.0000 N   0  0  0  0  0  0  0  0  0  0  0  0
    2.4458   -7.5208    0.0000 C   0  0  0  0  0  0  0  0  0  0  0  0
   -1.2333   -7.5000    0.0000 C   0  0  0  0  0  0  0  0  0  0  0  0
    5.4375   -7.8750    0.0000 C   0  0  0  0  0  0  0  0  0  0  0  0
    0.6042   -7.8625    0.0000 C   0  0  0  0  0  0  0  0  0  0  0  0
   -0.0042   -6.7958    0.0000 C   0  0  0  0  0  0  0  0  0  0  0  0
   -1.2458   -8.9125    0.0000 O   0  0  0  0  0  0  0  0  0  0  0  0
    3.0500   -8.5833    0.0000 O   0  0  0  0  0  0  0  0  0  0  0  0
    1.8292   -7.8708    0.0000 C   0  0  0  0  0  0  0  0  0  0  0  0
    2.4500   -6.8125    0.0000 C   0  0  0  0  0  0  0  0  0  0  0  0
   -0.0208   -9.6292    0.0000 C   0  0  0  0  0  0  0  0  0  0  0  0
   -1.8417   -6.4375    0.0000 C   0  0  0  0  0  0  0  0  0  0  0  0
   -3.0708   -7.8500    0.0000 N   0  0  0  0  0  0  0  0  0  0  0  0
   -0.6167   -6.4375    0.0000 C   0  0  0  0  0  0  0  0  0  0  0  0
   -2.4542   -6.7875    0.0000 C   0  0  0  0  0  0  0  0  0  0  0  0
    1.2167   -7.5125    0.0000 C   0  0  0  0  0  0  0  0  0  0  0  0
    4.8583   -6.7542    0.0000 O   0  0  0  0  0  0  0  0  0  0  0  0
    3.0625   -6.4583    0.0000 C   0  0  0  0  0  0  0  0  0  0  0  0
   -2.4583   -7.5000    0.0000 C   0  0  0  0  0  0  0  0  0  0  0  0
    1.2208   -6.8042    0.0000 O   0  0  0  0  0  0  0  0  0  0  0  0
    4.1625   -9.1667    0.0000 C   0  0  0  0  0  0  0  0  0  0  0  0
    5.5750   -9.1625    0.0000 C   0  0  0  0  0  0  0  0  0  0  0  0
   -3.6792   -7.4917    0.0000 C   0  0  0  0  0  0  0  0  0  0  0  0
    0.5875   -9.9875    0.0000 C   0  0  0  0  0  0  0  0  0  0  0  0
   -0.3833  -10.2417    0.0000 C   0  0  0  0  0  0  0  0  0  0  0  0
   -0.7333   -9.6250    0.0000 C   0  0  0  0  0  0  0  0  0  0  0  0
   -3.0625   -6.4375    0.0000 C   0  0  0  0  0  0  0  0  0  0  0  0
    3.6708   -6.8167    0.0000 C   0  0  0  0  0  0  0  0  0  0  0  0
    3.0625   -5.7542    0.0000 C   0  0  0  0  0  0  0  0  0  0  0  0
   -3.6750   -6.7833    0.0000 C   0  0  0  0  0  0  0  0  0  0  0  0
    4.5167   -9.7750    0.0000 C   0  0  0  0  0  0  0  0  0  0  0  0
    5.2250   -9.7750    0.0000 C   0  0  0  0  0  0  0  0  0  0  0  0
    3.6750   -5.4000    0.0000 C   0  0  0  0  0  0  0  0  0  0  0  0
    4.2875   -6.4667    0.0000 C   0  0  0  0  0  0  0  0  0  0  0  0
    4.2917   -5.7583    0.0000 C   0  0  0  0  0  0  0  0  0  0  0  0
  2  1  2  0
  3  1  2  0
  4  1  1  0
  5  1  1  0
  7  6  1  0
  6  8  1  6
  9 11  1  0
 10  9  1  6
 11 17  1  0
 12 10  1  0
 13 18  1  0
 14 12  1  0
 15 10  1  0
 16  8  1  0
 17 24  1  0
 18  6  1  0
 19 15  1  0
 20  7  1  0
 21  7  1  0
 22  8  2  0
 23 11  2  0
 24 31  1  0
 17 25  1  1
 26 16  1  0
 27 13  1  0
 28 34  2  0
 29 21  1  0
 30 27  1  0
 31 20  1  0
 15 32  1  6
 33 25  1  0
 34 30  1  0
 31 35  1  1
 36 12  2  0
 37 14  2  0
 38 45  2  0
 39 26  1  0
 40 26  1  0
 41 26  1  0
 42 30  2  0
 43 33  2  0
 44 33  1  0
 45 42  1  0
 46 36  1  0
 47 37  1  0
 48 44  2  0
 49 43  1  0
 50 48  1  0
 29 13  1  0
 28 38  1  0
 50 49  2  0
 19 14  1  0
 47 46  2  0
M  END
> <chembl_id>
CHEMBL1735

> <chembl_pref_name>
INDINAVIR SULFATE
