
     RDKit          2D

 12 13  0  0  0  0  0  0  0  0999 V2000
    0.7947    1.3313    0.0000 Cl  0  0  0  0  0  0  0  0  0  0  0  0
   -3.3444   -0.5918    0.0000 C   0  0  0  0  0  0  0  0  0  0  0  0
   -2.6984    0.0969    0.0000 C   0  0  0  0  0  0  0  0  0  0  0  0
   -2.5340   -0.3651    0.0000 C   0  0  0  0  0  0  0  0  0  0  0  0
   -1.9818   -0.1635    0.0000 C   0  0  0  0  0  0  0  0  0  0  0  0
   -1.7757   -0.6659    0.0000 C   0  0  0  0  0  0  0  0  0  0  0  0
   -1.2284    0.0234    0.0000 C   0  0  0  0  0  0  0  0  0  0  0  0
   -2.5367    0.4937    0.0000 C   0  0  0  0  0  0  0  0  0  0  0  0
   -1.9760    1.1565    0.0000 C   0  0  0  0  0  0  0  0  0  0  0  0
   -2.7029    0.9025    0.0000 C   0  0  0  0  0  0  0  0  0  0  0  0
   -1.2225    0.8484    0.0000 C   0  0  0  0  0  0  0  0  0  0  0  0
   -1.6438    1.9183    0.0000 N   0  0  0  0  0  0  0  0  0  0  0  0
  2  3  1  0
  2  4  1  0
  3  5  1  0
  4  6  1  0
  5  7  1  0
  6  7  1  0
  8  9  1  0
  4  8  1  0
  3 10  1  0
  7 11  1  0
 11  9  1  0
  9 10  1  0
  9 12  1  0
M  END
> <chembl_id>
CHEMBL1569

> <chembl_pref_name>
AMANTADINE HYDROCHLORIDE
