
     RDKit          2D

 17 18  0  0  0  0  0  0  0  0999 V2000
   -1.4208    0.0375    0.0000 C   0  0  0  0  0  0  0  0  0  0  0  0
   -2.3250   -0.6250    0.0000 N   0  0  0  0  0  0  0  0  0  0  0  0
   -3.2375    0.0208    0.0000 C   0  0  0  0  0  0  0  0  0  0  0  0
   -1.7375    1.1000    0.0000 C   0  0  0  0  0  0  0  0  0  0  0  0
   -2.8833    1.1083    0.0000 N   0  0  0  0  0  0  0  0  0  0  0  0
   -0.5208   -0.5875    0.0000 C   0  0  0  0  0  0  0  0  0  0  0  0
    0.4625    0.0083    0.0000 C   0  0  0  0  0  0  0  0  0  0  0  0
   -4.2083   -0.5500    0.0000 O   0  0  0  0  0  0  0  0  0  0  0  0
   -0.5458   -1.7917    0.0000 O   0  0  0  0  0  0  0  0  0  0  0  0
    0.4375    1.1708    0.0000 C   0  0  0  0  0  0  0  0  0  0  0  0
    1.4125   -0.5542    0.0000 C   0  0  0  0  0  0  0  0  0  0  0  0
    2.4125    1.1958    0.0000 C   0  0  0  0  0  0  0  0  0  0  0  0
    3.3542    1.7875    0.0000 S   0  0  0  0  0  0  0  0  0  0  0  0
    2.4167    0.0500    0.0000 C   0  0  0  0  0  0  0  0  0  0  0  0
    1.4000    1.7500    0.0000 C   0  0  0  0  0  0  0  0  0  0  0  0
   -1.0625    2.0083    0.0000 C   0  0  0  0  0  0  0  0  0  0  0  0
    4.3417    1.2583    0.0000 C   0  0  0  0  0  0  0  0  0  0  0  0
  2  1  1  0
  3  2  1  0
  4  1  2  0
  5  4  1  0
  6  1  1  0
  7  6  1  0
  8  3  2  0
  9  6  2  0
 10  7  2  0
 11  7  1  0
 12 14  1  0
 13 12  1  0
 14 11  2  0
 15 10  1  0
 16  4  1  0
 17 13  1  0
  5  3  1  0
 15 12  2  0
M  END
> <chembl_id>
CHEMBL249856

> <chembl_pref_name>
ENOXIMONE
