
     RDKit          2D

 39 40  0  0  0  0  0  0  0  0999 V2000
    0.6250   -4.0542    0.0000 Na  0  0  0  0  0 15  0  0  0  0  0  0
    1.1542   -5.4625    0.0000 C   0  0  0  0  0  0  0  0  0  0  0  0
    1.8625   -6.1708    0.0000 N   0  0  0  0  0  0  0  0  0  0  0  0
    1.1542   -6.1750    0.0000 C   0  0  0  0  0  0  0  0  0  0  0  0
    1.8625   -5.4625    0.0000 C   0  0  0  0  0  0  0  0  0  0  0  0
    0.5375   -5.1042    0.0000 N   0  0  0  0  0  0  0  0  0  0  0  0
    4.9167   -6.5417    0.0000 C   0  0  0  0  0  0  0  0  0  0  0  0
    2.4667   -6.5208    0.0000 C   0  0  0  0  0  0  0  0  0  0  0  0
    5.1333   -7.2125    0.0000 N   0  0  0  0  0  0  0  0  0  0  0  0
    5.4875   -6.1208    0.0000 N   0  0  0  0  0  0  0  0  0  0  0  0
   -0.0792   -5.4625    0.0000 C   0  0  0  0  0  0  0  0  0  0  0  0
    6.0625   -6.5417    0.0000 N   0  0  0  0  0  0  0  0  0  0  0  0
    5.8125   -7.1792    0.0000 N   0  0  0  0  0  0  0  0  0  0  0  0
    3.0792   -6.1750    0.0000 C   0  0  0  0  0  0  0  0  0  0  0  0
    2.4750   -5.1125    0.0000 O   0  0  0  0  0  0  0  0  0  0  0  0
   -0.6917   -5.1083    0.0000 C   0  0  0  0  0  0  0  0  0  0  0  0
    2.4625   -7.2292    0.0000 C   0  0  0  0  0  0  0  0  0  0  0  0
   -0.6917   -4.4000    0.0000 C   0  0  0  0  0  0  0  0  0  0  0  0
    4.3042   -6.1833    0.0000 S   0  0  0  0  0  0  0  0  0  0  0  0
    3.0833   -5.4708    0.0000 C   0  0  0  0  0  0  0  0  0  0  0  0
    0.6583   -6.6750    0.0000 O   0  0  0  0  0  0  0  0  0  0  0  0
    3.6875   -6.5333    0.0000 C   0  0  0  0  0  0  0  0  0  0  0  0
   -1.3042   -5.4625    0.0000 C   0  0  0  0  0  0  0  0  0  0  0  0
    1.1500   -4.7542    0.0000 O   0  0  0  0  0  0  0  0  0  0  0  0
   -0.0792   -6.1708    0.0000 O   0  0  0  0  0  0  0  0  0  0  0  0
    3.0708   -7.5875    0.0000 O   0  0  0  0  0  0  0  0  0  0  0  0
   -0.0792   -4.0458    0.0000 O   0  0  0  0  0  0  0  0  0  0  0  0
    1.8458   -7.5792    0.0000 O   0  0  0  0  0  0  0  0  0  0  0  0
   -1.3042   -4.0458    0.0000 O   0  0  0  0  0  0  0  0  0  0  0  0
   -1.3042   -6.1625    0.0000 C   0  0  0  0  0  0  0  0  0  0  0  0
   -1.9167   -5.1042    0.0000 C   0  0  0  0  0  0  0  0  0  0  0  0
    4.7208   -7.7875    0.0000 C   0  0  0  0  0  0  0  0  0  0  0  0
   -2.5292   -6.1667    0.0000 C   0  0  0  0  0  0  0  0  0  0  0  0
   -1.9125   -6.5208    0.0000 C   0  0  0  0  0  0  0  0  0  0  0  0
   -2.5292   -5.4583    0.0000 C   0  0  0  0  0  0  0  0  0  0  0  0
   -3.1417   -6.5208    0.0000 O   0  0  0  0  0  0  0  0  0  0  0  0
    1.7583   -4.3917    0.0000 C   0  0  0  0  0  0  0  0  0  0  0  0
    1.8542   -4.7542    0.0000 H   0  0  0  0  0  0  0  0  0  0  0  0
    3.7792   -7.6167    0.0000 Na  0  0  0  0  0 15  0  0  0  0  0  0
  3  4  1  0
  4  2  1  0
  5  2  1  0
  2  6  1  1
  7 19  1  0
  8  3  1  0
  9  7  1  0
 10  7  2  0
 11  6  1  0
 12 10  1  0
 13  9  1  0
 14  8  2  0
 15  5  1  0
 16 11  1  0
 17  8  1  0
 18 16  1  0
 19 22  1  0
 20 15  1  0
 21  4  2  0
 22 14  1  0
 23 16  1  0
 24  2  1  0
 25 11  2  0
 26 17  1  0
 27 18  1  0
 28 17  2  0
 29 18  2  0
 30 23  1  0
 31 23  2  0
 32  9  1  0
 33 34  1  0
 34 30  2  0
 35 31  1  0
 36 33  1  0
 37 24  1  0
  5 38  1  6
  3  5  1  0
 20 14  1  0
 33 35  2  0
 12 13  2  0
M  CHG  4   1   1  26  -1  27  -1  39   1
M  END
> <chembl_id>
CHEMBL1200357

> <chembl_pref_name>
MOXALACTAM DISODIUM
