
     RDKit          2D

 30 31  0  0  0  0  0  0  0  0999 V2000
    5.3042   -9.2500    0.0000 Na  0  0  0  0  0 15  0  0  0  0  0  0
    2.6542   -7.0000    0.0000 C   0  0  0  0  0  0  0  0  0  0  0  0
    3.3625   -7.7292    0.0000 N   0  0  0  0  0  0  0  0  0  0  0  0
    2.6542   -7.7292    0.0000 C   0  0  0  0  0  0  0  0  0  0  0  0
    3.3625   -7.0042    0.0000 C   0  0  0  0  0  0  0  0  0  0  0  0
    3.9917   -8.0917    0.0000 C   0  0  0  0  0  0  0  0  0  0  0  0
    3.9917   -6.6417    0.0000 S   0  0  0  0  0  0  0  0  0  0  0  0
    2.0375   -6.6417    0.0000 N   0  0  0  0  0  0  0  0  0  0  0  0
    4.6167   -7.7292    0.0000 C   0  0  0  0  0  0  0  0  0  0  0  0
    3.9917   -8.8167    0.0000 C   0  0  0  0  0  0  0  0  0  0  0  0
    1.4167   -7.0000    0.0000 C   0  0  0  0  0  0  0  0  0  0  0  0
    6.4625   -8.0792    0.0000 C   0  0  0  0  0  0  0  0  0  0  0  0
    0.8042   -6.6417    0.0000 C   0  0  0  0  0  0  0  0  0  0  0  0
    0.1917   -7.0042    0.0000 C   0  0  0  0  0  0  0  0  0  0  0  0
    4.6167   -7.0042    0.0000 C   0  0  0  0  0  0  0  0  0  0  0  0
    2.1667   -8.2292    0.0000 O   0  0  0  0  0  0  0  0  0  0  0  0
   -0.3833   -6.5792    0.0000 S   0  0  0  0  0  0  0  0  0  0  0  0
    2.6500   -6.2917    0.0000 O   0  0  0  0  0  0  0  0  0  0  0  0
    5.2375   -8.0875    0.0000 C   0  0  0  0  0  0  0  0  0  0  0  0
    4.6042   -9.1542    0.0000 O   0  0  0  0  0  0  0  0  0  0  0  0
    5.8417   -7.7292    0.0000 O   0  0  0  0  0  0  0  0  0  0  0  0
   -0.9500   -7.0042    0.0000 C   0  0  0  0  0  0  0  0  0  0  0  0
    6.4542   -8.7875    0.0000 O   0  0  0  0  0  0  0  0  0  0  0  0
    3.3667   -9.1625    0.0000 O   0  0  0  0  0  0  0  0  0  0  0  0
    1.4250   -7.7042    0.0000 O   0  0  0  0  0  0  0  0  0  0  0  0
   -0.0250   -7.6750    0.0000 C   0  0  0  0  0  0  0  0  0  0  0  0
   -0.7333   -7.6750    0.0000 C   0  0  0  0  0  0  0  0  0  0  0  0
    7.0625   -7.7125    0.0000 N   0  0  0  0  0  0  0  0  0  0  0  0
    2.0292   -5.9375    0.0000 C   0  0  0  0  0  0  0  0  0  0  0  0
    3.3292   -6.3167    0.0000 H   0  0  0  0  0  0  0  0  0  0  0  0
  3  5  1  0
  4  2  1  0
  5  2  1  0
  6  3  1  0
  7  5  1  0
  2  8  1  1
  9 15  1  0
 10  6  1  0
 11  8  1  0
 12 21  1  0
 13 11  1  0
 14 13  1  0
 15  7  1  0
 16  4  2  0
 17 14  1  0
 18  2  1  0
 19  9  1  0
 20 10  1  0
 21 19  1  0
 22 17  1  0
 23 12  2  0
 24 10  2  0
 25 11  2  0
 26 14  2  0
 27 26  1  0
 28 12  1  0
 29 18  1  0
  5 30  1  6
  3  4  1  0
  6  9  2  0
 27 22  2  0
M  CHG  2   1   1  20  -1
M  END
> <chembl_id>
CHEMBL1200530

> <chembl_pref_name>
CEFOXITIN SODIUM
