
     RDKit          2D

 26 27  0  0  0  0  0  0  0  0999 V2000
    2.3750   -0.8083    0.0000 Cl  0  0  0  0  0  0  0  0  0  0  0  0
   -1.0667   -0.1792    0.0000 N   0  0  0  0  0  0  0  0  0  0  0  0
   -0.4667    0.1791    0.0000 C   0  0  0  0  0  0  0  0  0  0  0  0
   -1.0792   -2.2834    0.0000 N   0  0  0  0  0  0  0  0  0  0  0  0
   -1.0667   -0.8834    0.0000 C   0  0  0  0  0  0  0  0  0  0  0  0
   -1.6875   -1.2209    0.0000 C   0  0  0  0  0  0  0  0  0  0  0  0
   -0.4667   -1.2209    0.0000 C   0  0  0  0  0  0  0  0  0  0  0  0
   -0.4667    0.8916    0.0000 O   0  0  0  0  0  0  0  0  0  0  0  0
   -1.7000    0.1791    0.0000 C   0  0  0  0  0  0  0  0  0  0  0  0
   -1.6875   -1.9209    0.0000 C   0  0  0  0  0  0  0  0  0  0  0  0
   -0.4667   -1.9334    0.0000 C   0  0  0  0  0  0  0  0  0  0  0  0
   -1.0792   -2.9959    0.0000 C   0  0  0  0  0  0  0  0  0  0  0  0
   -0.5292   -3.3709    0.0000 C   0  0  0  0  0  0  0  0  0  0  0  0
    0.1000   -3.0667    0.0000 C   0  0  0  0  0  0  0  0  0  0  0  0
    0.1375   -0.1792    0.0000 C   0  0  0  0  0  0  0  0  0  0  0  0
   -2.3000   -0.1834    0.0000 C   0  0  0  0  0  0  0  0  0  0  0  0
   -1.7000    0.9041    0.0000 C   0  0  0  0  0  0  0  0  0  0  0  0
    0.1000   -2.3834    0.0000 C   0  0  0  0  0  0  0  0  0  0  0  0
    0.6833   -3.4584    0.0000 C   0  0  0  0  0  0  0  0  0  0  0  0
    0.7500    0.1666    0.0000 C   0  0  0  0  0  0  0  0  0  0  0  0
   -2.3500    1.2416    0.0000 C   0  0  0  0  0  0  0  0  0  0  0  0
   -2.9417    0.1541    0.0000 C   0  0  0  0  0  0  0  0  0  0  0  0
    0.7625   -2.0459    0.0000 C   0  0  0  0  0  0  0  0  0  0  0  0
    1.3875   -3.1459    0.0000 C   0  0  0  0  0  0  0  0  0  0  0  0
   -2.9500    0.8833    0.0000 C   0  0  0  0  0  0  0  0  0  0  0  0
    1.3750   -2.4459    0.0000 C   0  0  0  0  0  0  0  0  0  0  0  0
  3  2  1  0
  4 11  1  0
  5  2  1  0
  6  5  1  0
  7  5  1  0
  8  3  2  0
  9  2  1  0
 10  6  1  0
 11  7  1  0
 12  4  1  0
 13 12  1  0
 14 13  1  0
 15  3  1  0
 16  9  1  0
 17  9  2  0
 18 14  1  0
 19 14  2  0
 20 15  1  0
 21 17  1  0
 22 16  2  0
 23 18  2  0
 24 19  1  0
 25 21  2  0
 26 24  2  0
  4 10  1  0
 25 22  1  0
 26 23  1  0
M  END
> <chembl_id>
CHEMBL1201159

> <chembl_pref_name>
FENTANYL HYDROCHLORIDE
