
     RDKit          2D

 25 26  0  0  0  0  0  0  0  0999 V2000
    9.7917   -5.6917    0.0000 C   0  0  0  0  0  0  0  0  0  0  0  0
   10.4167   -5.3375    0.0000 C   0  0  0  0  0  0  0  0  0  0  0  0
   12.8667   -5.3375    0.0000 N   0  0  0  0  0  0  0  0  0  0  0  0
   10.4250   -4.6292    0.0000 O   0  0  0  0  0  0  0  0  0  0  0  0
    9.1792   -5.3292    0.0000 C   0  0  0  0  0  0  0  0  0  0  0  0
    9.4292   -6.3042    0.0000 C   0  0  0  0  0  0  0  0  0  0  0  0
   10.1417   -6.3042    0.0000 O   0  0  0  0  0  0  0  0  0  0  0  0
   11.0292   -5.6917    0.0000 O   0  0  0  0  0  0  0  0  0  0  0  0
   11.6417   -5.3375    0.0000 C   0  0  0  0  0  0  0  0  0  0  0  0
   12.2542   -5.6917    0.0000 C   0  0  0  0  0  0  0  0  0  0  0  0
   13.2167   -4.7167    0.0000 C   0  0  0  0  0  0  0  0  0  0  0  0
   12.5042   -4.7167    0.0000 C   0  0  0  0  0  0  0  0  0  0  0  0
   13.4792   -5.6917    0.0000 C   0  0  0  0  0  0  0  0  0  0  0  0
    9.1875   -4.6250    0.0000 C   0  0  0  0  0  0  0  0  0  0  0  0
    8.5667   -5.6833    0.0000 C   0  0  0  0  0  0  0  0  0  0  0  0
    8.7208   -6.2958    0.0000 C   0  0  0  0  0  0  0  0  0  0  0  0
    9.7833   -6.9167    0.0000 C   0  0  0  0  0  0  0  0  0  0  0  0
   11.8000   -4.7208    0.0000 C   0  0  0  0  0  0  0  0  0  0  0  0
   13.9250   -4.7125    0.0000 C   0  0  0  0  0  0  0  0  0  0  0  0
    7.9583   -5.3250    0.0000 C   0  0  0  0  0  0  0  0  0  0  0  0
    8.5792   -4.2667    0.0000 C   0  0  0  0  0  0  0  0  0  0  0  0
    9.4208   -7.5292    0.0000 C   0  0  0  0  0  0  0  0  0  0  0  0
    8.3625   -6.9042    0.0000 C   0  0  0  0  0  0  0  0  0  0  0  0
    7.9625   -4.6125    0.0000 C   0  0  0  0  0  0  0  0  0  0  0  0
    8.7125   -7.5250    0.0000 C   0  0  0  0  0  0  0  0  0  0  0  0
  2  1  1  0
  3 10  1  0
  4  2  2  0
  5  1  1  0
  6  1  1  0
  7  1  1  0
  8  2  1  0
  9  8  1  0
 10  9  1  0
 11  3  1  0
 12  3  1  0
 13  3  1  0
 14  5  2  0
 15  5  1  0
 16  6  1  0
 17  6  1  0
 18 12  1  0
 19 11  1  0
 20 15  2  0
 21 14  1  0
 22 17  1  0
 23 16  1  0
 24 20  1  0
 25 22  1  0
 25 23  1  0
 24 21  2  0
M  CHG  1   3   1
M  END
> <chembl_id>
CHEMBL1201286

> <chembl_pref_name>
OXYPHENONIUM
