
     RDKit          2D

  7  5  0  0  0  0  0  0  0  0999 V2000
    2.9792   -1.2917    0.0000 Na  0  0  0  0  0 15  0  0  0  0  0  0
   -1.2833    0.1333    0.0000 C   0  0  0  0  0  0  0  0  0  0  0  0
   -2.7083    0.1333    0.0000 C   0  0  0  0  0  0  0  0  0  0  0  0
   -0.5500   -1.1042    0.0000 O   0  0  0  0  0  0  0  0  0  0  0  0
   -0.6083    1.3958    0.0000 O   0  0  0  0  0  0  0  0  0  0  0  0
   -3.4208   -1.1167    0.0000 Cl  0  0  0  0  0  0  0  0  0  0  0  0
   -3.4833    1.3333    0.0000 Cl  0  0  0  0  0  0  0  0  0  0  0  0
  3  2  1  0
  4  2  1  0
  5  2  2  0
  6  3  1  0
  7  3  1  0
M  CHG  2   1   1   4  -1
M  END
> <chembl_id>
CHEMBL306823

> <chembl_pref_name>
SODIUM DICHLOROACETATE
