
     RDKit          2D

 31 36  0  0  0  0  0  0  0  0999 V2000
    3.5417   -5.8292    0.0000 C   0  0  0  0  0  0  0  0  0  0  0  0
    3.5417   -5.1250    0.0000 C   0  0  0  0  0  0  0  0  0  0  0  0
    4.1667   -4.8042    0.0000 C   0  0  0  0  0  0  0  0  0  0  0  0
    7.8167   -2.7917    0.0000 C   0  0  0  0  0  0  0  0  0  0  0  0
    4.1667   -4.1167    0.0000 C   0  0  0  0  0  0  0  0  0  0  0  0
    7.2042   -3.1125    0.0000 C   0  0  0  0  0  0  0  0  0  0  0  0
    4.7792   -3.7917    0.0000 C   0  0  0  0  0  0  0  0  0  0  0  0
    3.1542   -6.4250    0.0000 C   0  0  0  0  0  0  0  0  0  0  0  0
    2.9292   -6.1750    0.0000 C   0  0  0  0  0  0  0  0  0  0  0  0
    4.1292   -6.2042    0.0000 C   0  0  0  0  0  0  0  0  0  0  0  0
    6.6042   -2.7500    0.0000 C   0  0  0  0  0  0  0  0  0  0  0  0
    5.3667   -4.1292    0.0000 C   0  0  0  0  0  0  0  0  0  0  0  0
    5.9750   -3.1125    0.0000 C   0  0  0  0  0  0  0  0  0  0  0  0
    5.9750   -3.8167    0.0000 C   0  0  0  0  0  0  0  0  0  0  0  0
    3.1542   -7.2625    0.0000 C   0  0  0  0  0  0  0  0  0  0  0  0
    2.9292   -6.8667    0.0000 C   0  0  0  0  0  0  0  0  0  0  0  0
    4.1292   -6.8917    0.0000 C   0  0  0  0  0  0  0  0  0  0  0  0
    2.9750   -4.7792    0.0000 C   0  0  0  0  0  0  0  0  0  0  0  0
    7.8167   -2.0792    0.0000 O   0  0  0  0  0  0  0  0  0  0  0  0
    7.2042   -3.8375    0.0000 C   0  0  0  0  0  0  0  0  0  0  0  0
    3.5792   -3.7625    0.0000 C   0  0  0  0  0  0  0  0  0  0  0  0
    4.7792   -3.0792    0.0000 C   0  0  0  0  0  0  0  0  0  0  0  0
    6.5792   -4.1625    0.0000 C   0  0  0  0  0  0  0  0  0  0  0  0
    5.3917   -2.7500    0.0000 C   0  0  0  0  0  0  0  0  0  0  0  0
    2.9542   -4.1042    0.0000 C   0  0  0  0  0  0  0  0  0  0  0  0
    2.3375   -7.4292    0.0000 C   0  0  0  0  0  0  0  0  0  0  0  0
    3.6792   -7.6417    0.0000 C   0  0  0  0  0  0  0  0  0  0  0  0
    3.4917   -7.0792    0.0000 C   0  0  0  0  0  0  0  0  0  0  0  0
    8.4125   -3.1625    0.0000 O   0  0  0  0  0  0  0  0  0  0  0  0
    2.3375   -5.1167    0.0000 O   0  0  0  0  0  0  0  0  0  0  0  0
    1.7292   -4.7667    0.0000 C   0  0  0  0  0  0  0  0  0  0  0  0
  2  1  1  0
  3  2  1  0
  4  6  1  0
  5  3  2  0
  6 11  2  0
  7  5  1  0
  8  1  1  0
  9  1  1  0
 10  1  1  0
 11 13  1  0
 12  7  1  0
 13 24  2  0
 14 12  2  0
 15  8  1  0
 16  9  1  0
 17 10  1  0
 18  2  2  0
 19  4  2  0
 20 23  2  0
 21 25  2  0
 22  7  2  0
 23 14  1  0
 24 22  1  0
 25 18  1  0
 26 16  1  0
 27 17  1  0
 28 17  1  0
 29  4  1  0
 30 18  1  0
 31 30  1  0
 28 16  1  0
 27 15  1  0
 26 15  1  0
 21  5  1  0
 13 14  1  0
  6 20  1  0
M  END
> <chembl_id>
CHEMBL1265

> <chembl_pref_name>
ADAPALENE
