
     RDKit          2D

 17 18  0  0  0  0  0  0  0  0999 V2000
   -0.7708    0.0583    0.0000 C   0  0  0  0  0  0  0  0  0  0  0  0
    0.0167    1.4375    0.0000 C   0  0  0  0  0  0  0  0  0  0  0  0
    0.0292   -1.3042    0.0000 C   0  0  0  0  0  0  0  0  0  0  0  0
    1.5792    1.4375    0.0000 N   0  0  0  0  0  0  0  0  0  0  0  0
    1.5917   -1.3042    0.0000 N   0  0  0  0  0  0  0  0  0  0  0  0
    2.3792    0.0750    0.0000 C   0  0  0  0  0  0  0  0  0  0  0  0
   -2.0583   -0.8542    0.0000 C   0  0  0  0  0  0  0  0  0  0  0  0
   -0.7208   -2.6792    0.0000 O   0  0  0  0  0  0  0  0  0  0  0  0
   -0.7250    2.8083    0.0000 O   0  0  0  0  0  0  0  0  0  0  0  0
    3.9542    0.0833    0.0000 O   0  0  0  0  0  0  0  0  0  0  0  0
   -3.0083   -0.2292    0.0000 C   0  0  0  0  0  0  0  0  0  0  0  0
   -2.0458    1.3000    0.0000 C   0  0  0  0  0  0  0  0  0  0  0  0
   -2.1625   -2.0042    0.0000 C   0  0  0  0  0  0  0  0  0  0  0  0
   -4.0000   -0.6875    0.0000 C   0  0  0  0  0  0  0  0  0  0  0  0
   -3.5208    1.1583    0.0000 C   0  0  0  0  0  0  0  0  0  0  0  0
   -3.1833   -2.4667    0.0000 C   0  0  0  0  0  0  0  0  0  0  0  0
   -4.1083   -1.8125    0.0000 C   0  0  0  0  0  0  0  0  0  0  0  0
  2  1  1  0
  3  1  1  0
  4  2  1  0
  5  3  1  0
  6  5  1  0
  7  1  1  0
  8  3  2  0
  9  2  2  0
 10  6  2  0
 11  7  2  0
 12  1  1  0
 13  7  1  0
 14 11  1  0
 15 12  1  0
 16 13  1  0
 17 16  1  0
  4  6  1  0
 14 17  1  0
M  END
> <chembl_id>
CHEMBL268164

> <chembl_pref_name>
CYCLOBARBITAL
