
     RDKit          2D

 17 17  0  0  0  0  0  0  0  0999 V2000
    4.7750   -4.0000    0.0000 Cl  0  0  0  0  0  0  0  0  0  0  0  0
    3.7042   -5.3292    0.0000 C   0  0  0  0  0  0  0  0  0  0  0  0
    4.4167   -5.3417    0.0000 C   0  0  0  0  0  0  0  0  0  0  0  0
    3.0917   -5.0042    0.0000 C   0  0  0  0  0  0  0  0  0  0  0  0
    4.7625   -5.9625    0.0000 C   0  0  0  0  0  0  0  0  0  0  0  0
    4.0042   -4.6917    0.0000 N   0  0  0  0  0  0  0  0  0  0  0  0
    3.0917   -4.2917    0.0000 O   0  0  0  0  0  0  0  0  0  0  0  0
    4.4042   -6.5667    0.0000 Cl  0  0  0  0  0  0  0  0  0  0  0  0
    3.7167   -6.0667    0.0000 C   0  0  0  0  0  0  0  0  0  0  0  0
    4.7667   -4.7292    0.0000 C   0  0  0  0  0  0  0  0  0  0  0  0
    2.4792   -5.3542    0.0000 C   0  0  0  0  0  0  0  0  0  0  0  0
    5.4792   -5.9542    0.0000 C   0  0  0  0  0  0  0  0  0  0  0  0
    3.6042   -4.1125    0.0000 C   0  0  0  0  0  0  0  0  0  0  0  0
    3.0917   -6.4250    0.0000 C   0  0  0  0  0  0  0  0  0  0  0  0
    5.4750   -4.7250    0.0000 C   0  0  0  0  0  0  0  0  0  0  0  0
    2.4792   -6.0667    0.0000 C   0  0  0  0  0  0  0  0  0  0  0  0
    5.8292   -5.3500    0.0000 C   0  0  0  0  0  0  0  0  0  0  0  0
  3  2  1  0
  4  2  1  0
  5  3  2  0
  6  2  1  0
  7  4  2  0
  8  5  1  0
  9  2  1  0
 10  3  1  0
 11  4  1  0
 12  5  1  0
 13  6  1  0
 14  9  1  0
 15 10  2  0
 16 14  1  0
 17 15  1  0
 16 11  1  0
 17 12  2  0
M  END
> <chembl_id>
CHEMBL1714

> <chembl_pref_name>
KETAMINE HYDROCHLORIDE
