
     RDKit          2D

 37 40  0  0  0  0  0  0  0  0999 V2000
    3.6424   -6.3970    0.0000 N   0  0  0  0  0  0  0  0  0  0  0  0
    2.8628   -6.6670    0.0000 C   0  0  0  0  0  0  0  0  0  0  0  0
    2.3651   -6.0091    0.0000 C   0  0  0  0  0  0  0  0  0  0  0  0
    2.8371   -5.3324    0.0000 C   0  0  0  0  0  0  0  0  0  0  0  0
    3.6265   -5.5721    0.0000 C   0  0  0  0  0  0  0  0  0  0  0  0
    2.5670   -4.5528    0.0000 C   0  0  0  0  0  0  0  0  0  0  0  0
    3.1071   -3.9292    0.0000 C   0  0  0  0  0  0  0  0  0  0  0  0
    2.8371   -3.1496    0.0000 N   0  0  0  0  0  0  0  0  0  0  0  0
    4.1873   -4.8646    0.0000 O   0  0  0  0  0  0  0  0  0  0  0  0
    3.9172   -4.0851    0.0000 C   0  0  0  0  0  0  0  0  0  0  0  0
    4.4573   -3.4614    0.0000 N   0  0  0  0  0  0  0  0  0  0  0  0
    1.5465   -6.1111    0.0000 C   0  0  0  0  0  0  0  0  0  0  0  0
    1.2255   -6.8711    0.0000 C   0  0  0  0  0  0  0  0  0  0  0  0
    1.7232   -7.5291    0.0000 C   0  0  0  0  0  0  0  0  0  0  0  0
    2.5419   -7.4270    0.0000 C   0  0  0  0  0  0  0  0  0  0  0  0
    2.0269   -2.9937    0.0000 C   0  0  0  0  0  0  0  0  0  0  0  0
    1.4868   -3.6174    0.0000 C   0  0  0  0  0  0  0  0  0  0  0  0
    0.8632   -3.0773    0.0000 N   0  0  0  0  0  0  0  0  0  0  0  0
    2.1105   -4.1574    0.0000 C   0  0  0  0  0  0  0  0  0  0  0  0
    5.2675   -3.6174    0.0000 C   0  0  0  0  0  0  0  0  0  0  0  0
    5.5375   -4.3969    0.0000 N   0  0  0  0  0  0  0  0  0  0  0  0
    6.6177   -5.3324    0.0000 O   0  0  0  0  0  0  0  0  0  0  0  0
    6.3476   -4.5528    0.0000 C   0  0  0  0  0  0  0  0  0  0  0  0
    6.6177   -3.1496    0.0000 C   0  0  0  0  0  0  0  0  0  0  0  0
    5.8075   -2.9937    0.0000 C   0  0  0  0  0  0  0  0  0  0  0  0
    6.9677   -3.8967    0.0000 C   0  0  0  0  0  0  0  0  0  0  0  0
    7.7864   -3.7946    0.0000 N   0  0  0  0  0  0  0  0  0  0  0  0
    7.9423   -2.9845    0.0000 C   0  0  0  0  0  0  0  0  0  0  0  0
    7.2200   -2.5859    0.0000 C   0  0  0  0  0  0  0  0  0  0  0  0
    8.6487   -2.5583    0.0000 C   0  0  0  0  0  0  0  0  0  0  0  0
    8.6327   -1.7334    0.0000 C   0  0  0  0  0  0  0  0  0  0  0  0
    7.9104   -1.3348    0.0000 C   0  0  0  0  0  0  0  0  0  0  0  0
    7.2041   -1.7610    0.0000 C   0  0  0  0  0  0  0  0  0  0  0  0
    0.9467   -4.2410    0.0000 C   0  0  0  0  0  0  0  0  0  0  0  0
    3.3771   -4.7087    0.0000 H   0  0  0  0  0  0  0  0  0  0  0  0
    1.7569   -2.2142    0.0000 O   0  0  0  0  0  0  0  0  0  0  0  0
    6.0776   -3.7733    0.0000 H   0  0  0  0  0  0  0  0  0  0  0  0
  1  2  1  0
  1  5  1  0
  2  3  2  0
  2 15  1  0
  3 12  1  0
  4  3  1  0
  4  6  1  0
  5  4  2  0
  7  8  1  0
  7 10  1  0
  7 35  1  6
  9 10  2  0
 10 11  1  0
 12 13  2  0
 14 13  1  0
 15 14  2  0
 16 17  1  0
 16  8  1  0
 17 18  1  0
 17 19  1  0
 17 34  1  0
 20 11  1  0
 21 20  1  0
 22 23  2  0
 23 21  1  0
 24 25  1  0
 26 24  2  0
 27 26  1  0
 27 28  1  0
 28 29  2  0
 28 30  1  0
 29 33  1  0
 29 24  1  0
 30 31  2  0
 32 31  1  0
 33 32  2  0
 16 36  2  0
  7  6  1  1
 20 37  1  1
 20 25  1  6
M  END
> <chembl_id>
CHEMBL278623

> <chembl_pref_name>
MACIMORELIN
