
     RDKit          2D

 24 25  0  0  0  0  0  0  0  0999 V2000
    3.7667   -5.1250    0.0000 Cl  0  0  0  0  0  0  0  0  0  0  0  0
    2.9542   -3.0542    0.0000 C   0  0  0  0  0  0  0  0  0  0  0  0
    0.5292   -4.5042    0.0000 C   0  0  0  0  0  0  0  0  0  0  0  0
    2.9542   -2.3292    0.0000 N   0  0  0  0  0  0  0  0  0  0  0  0
    1.1375   -4.1625    0.0000 C   0  0  0  0  0  0  0  0  0  0  0  0
    3.5792   -3.3875    0.0000 C   0  0  0  0  0  0  0  0  0  0  0  0
    0.5292   -5.2417    0.0000 C   0  0  0  0  0  0  0  0  0  0  0  0
    2.3542   -3.4167    0.0000 C   0  0  0  0  0  0  0  0  0  0  0  0
    1.1417   -3.4292    0.0000 O   0  0  0  0  0  0  0  0  0  0  0  0
    1.7375   -3.0917    0.0000 C   0  0  0  0  0  0  0  0  0  0  0  0
    1.7542   -5.2417    0.0000 C   0  0  0  0  0  0  0  0  0  0  0  0
    1.7542   -4.5042    0.0000 C   0  0  0  0  0  0  0  0  0  0  0  0
   -0.0958   -4.1625    0.0000 C   0  0  0  0  0  0  0  0  0  0  0  0
    3.5750   -1.9667    0.0000 C   0  0  0  0  0  0  0  0  0  0  0  0
    2.3167   -1.9917    0.0000 C   0  0  0  0  0  0  0  0  0  0  0  0
    1.1375   -5.5917    0.0000 C   0  0  0  0  0  0  0  0  0  0  0  0
    4.1917   -3.0167    0.0000 C   0  0  0  0  0  0  0  0  0  0  0  0
    3.5792   -4.0792    0.0000 C   0  0  0  0  0  0  0  0  0  0  0  0
   -0.0958   -5.5917    0.0000 C   0  0  0  0  0  0  0  0  0  0  0  0
   -0.7125   -4.5042    0.0000 C   0  0  0  0  0  0  0  0  0  0  0  0
    4.8000   -3.3875    0.0000 C   0  0  0  0  0  0  0  0  0  0  0  0
    4.1917   -4.4417    0.0000 C   0  0  0  0  0  0  0  0  0  0  0  0
   -0.7125   -5.2417    0.0000 C   0  0  0  0  0  0  0  0  0  0  0  0
    4.8000   -4.0792    0.0000 C   0  0  0  0  0  0  0  0  0  0  0  0
  3  5  1  0
  2  4  1  0
  5  9  1  0
  6  2  1  0
  7  3  1  0
  2  8  1  6
  9 10  1  0
 10  8  1  0
 11 12  1  0
 12  5  2  0
 13  3  2  0
 14  4  1  0
 15  4  1  0
 16 11  2  0
 17  6  2  0
 18  6  1  0
 19  7  2  0
 20 13  1  0
 21 17  1  0
 22 18  2  0
 23 20  2  0
 24 21  2  0
 22 24  1  0
  7 16  1  0
 19 23  1  0
M  END
> <chembl_id>
CHEMBL2106574

> <chembl_pref_name>
DAPOXETINE HYDROCHLORIDE
