
     RDKit          2D

 28 30  0  0  0  0  0  0  0  0999 V2000
    0.5917    0.7604    0.0000 C   0  0  0  0  0  0  0  0  0  0  0  0
    0.5917   -0.0646    0.0000 C   0  0  0  0  0  0  0  0  0  0  0  0
    1.3062   -0.4771    0.0000 C   0  0  0  0  0  0  0  0  0  0  0  0
    2.0206   -0.0646    0.0000 C   0  0  0  0  0  0  0  0  0  0  0  0
    2.0206    0.7604    0.0000 C   0  0  0  0  0  0  0  0  0  0  0  0
    1.3062    1.1729    0.0000 C   0  0  0  0  0  0  0  0  0  0  0  0
   -0.1228    1.1729    0.0000 C   0  0  0  0  0  0  0  0  0  0  0  0
   -0.8372    0.7604    0.0000 C   0  0  0  0  0  0  0  0  0  0  0  0
   -1.5517    1.1729    0.0000 C   0  0  0  0  0  0  0  0  0  0  0  0
   -2.2653    1.5854    0.0000 N   0  0  0  0  0  0  0  0  0  0  0  0
    2.7351    1.1730    0.0000 C   0  0  0  0  0  0  0  0  0  0  0  0
    2.7351   -0.4771    0.0000 N   0  0  0  0  0  0  0  0  0  0  0  0
    3.4496   -0.0646    0.0000 C   0  0  0  0  0  0  0  0  0  0  0  0
    1.3062   -1.3021    0.0000 C   0  0  0  0  0  0  0  0  0  0  0  0
    4.1640   -0.4770    0.0000 N   0  0  0  0  0  0  0  0  0  0  0  0
    4.8785   -0.0646    0.0000 C   0  0  0  0  0  0  0  0  0  0  0  0
    4.8785    0.7604    0.0000 N   0  0  0  0  0  0  0  0  0  0  0  0
    4.1640    1.1729    0.0000 C   0  0  0  0  0  0  0  0  0  0  0  0
    3.4496    0.7604    0.0000 C   0  0  0  0  0  0  0  0  0  0  0  0
    5.5930   -0.4771    0.0000 N   0  0  0  0  0  0  0  0  0  0  0  0
    6.3075   -0.0646    0.0000 C   0  0  0  0  0  0  0  0  0  0  0  0
    7.0219   -0.4770    0.0000 C   0  0  0  0  0  0  0  0  0  0  0  0
    7.7364   -0.0646    0.0000 C   0  0  0  0  0  0  0  0  0  0  0  0
    7.7364    0.7604    0.0000 C   0  0  0  0  0  0  0  0  0  0  0  0
    7.0219    1.1729    0.0000 C   0  0  0  0  0  0  0  0  0  0  0  0
    6.3075    0.7604    0.0000 C   0  0  0  0  0  0  0  0  0  0  0  0
    8.4509    1.1729    0.0000 C   0  0  0  0  0  0  0  0  0  0  0  0
    9.1625    1.5917    0.0000 N   0  0  0  0  0  0  0  0  0  0  0  0
  3  4  2  0
  4  5  1  0
  5  6  2  0
  6  1  1  0
  1  7  1  0
  7  8  2  0
  8  9  1  0
  9 10  3  0
  5 11  1  0
  4 12  1  0
 12 13  1  0
  3 14  1  0
 13 15  2  0
 15 16  1  0
 16 17  2  0
 17 18  1  0
 18 19  2  0
 19 13  1  0
 16 20  1  0
 20 21  1  0
 21 22  2  0
 22 23  1  0
 23 24  2  0
 24 25  1  0
 25 26  2  0
 26 21  1  0
  1  2  2  0
 24 27  1  0
  2  3  1  0
 27 28  3  0
M  END
> <chembl_id>
CHEMBL175691

> <chembl_pref_name>
RILPIVIRINE
