
     RDKit          2D

 33 35  0  0  0  0  0  0  0  0999 V2000
    4.8519    4.2011    0.0000 C   0  0  0  0  0  0  0  0  0  0  0  0
    0.0000    0.0000    0.0000 N   0  0  0  0  0  0  0  0  0  0  0  0
   19.4002    2.8008    0.0000 O   0  0  0  0  0  0  0  0  0  0  0  0
   17.8654    6.1107    0.0000 O   0  0  0  0  0  0  0  0  0  0  0  0
   13.3391    6.3017    0.0000 O   0  0  0  0  0  0  0  0  0  0  0  0
    2.4260    4.2011    0.0000 O   0  0  0  0  0  0  0  0  0  0  0  0
   18.1908    0.7002    0.0000 O   0  0  0  0  0  0  0  0  0  0  0  0
   15.7649    7.3202    0.0000 O   0  0  0  0  0  0  0  0  0  0  0  0
   10.9131    2.1006    0.0000 C   0  0  0  0  0  0  0  0  0  0  0  0
    9.7037    4.2011    0.0000 C   0  0  0  0  0  0  0  0  0  0  0  0
   12.1225    2.8008    0.0000 C   0  0  0  0  0  0  0  0  0  0  0  0
   10.9131    4.9013    0.0000 C   0  0  0  0  0  0  0  0  0  0  0  0
   16.9743    2.8008    0.0000 C   0  0  0  0  0  0  0  0  0  0  0  0
   16.9743    4.2011    0.0000 C   0  0  0  0  0  0  0  0  0  0  0  0
    7.2777    2.8008    0.0000 C   0  0  0  0  0  0  0  0  0  0  0  0
    6.0613    0.7002    0.0000 C   0  0  0  0  0  0  0  0  0  0  0  0
    1.2094    2.1006    0.0000 N   0  0  0  0  0  0  0  0  0  0  0  0
    8.4871    2.1006    0.0000 N   0  0  0  0  0  0  0  0  0  0  0  0
    4.8519    0.0000    0.0000 N   0  0  0  0  0  0  0  0  0  0  0  0
   14.5485    4.2011    0.0000 N   0  0  0  0  0  0  0  0  0  0  0  0
    2.4260    0.0000    0.0000 N   0  0  0  0  0  0  0  0  0  0  0  0
   18.1908    2.1006    0.0000 C   0  0  0  0  0  0  0  0  0  0  0  0
   16.4651    6.1107    0.0000 C   0  0  0  0  0  0  0  0  0  0  0  0
   13.3391    4.9013    0.0000 C   0  0  0  0  0  0  0  0  0  0  0  0
    1.2094    0.7002    0.0000 C   0  0  0  0  0  0  0  0  0  0  0  0
    9.7037    2.8008    0.0000 C   0  0  0  0  0  0  0  0  0  0  0  0
   12.1225    4.2011    0.0000 C   0  0  0  0  0  0  0  0  0  0  0  0
    3.6354    0.7002    0.0000 C   0  0  0  0  0  0  0  0  0  0  0  0
    3.6354    2.1006    0.0000 C   0  0  0  0  0  0  0  0  0  0  0  0
    2.4260    2.8008    0.0000 C   0  0  0  0  0  0  0  0  0  0  0  0
    4.8519    2.8008    0.0000 N   0  0  0  0  0  0  0  0  0  0  0  0
   15.7649    4.9013    0.0000 C   0  0  0  0  0  0  0  0  0  0  0  0
    6.0613    2.1006    0.0000 C   0  0  0  0  0  0  0  0  0  0  0  0
  1 31  1  0
  2 25  1  0
  3 22  2  0
  4 23  2  0
  5 24  2  0
  6 30  2  0
  7 22  1  0
  8 23  1  0
  9 11  1  0
  9 26  2  0
 10 12  2  0
 10 26  1  0
 11 27  2  0
 12 27  1  0
 13 14  1  0
 13 22  1  0
 32 14  1  6
 15 18  1  0
 33 15  1  1
 16 19  1  0
 16 33  1  0
 17 25  2  0
 17 30  1  0
 18 26  1  0
 19 28  1  0
 20 24  1  0
 20 32  1  0
 21 25  1  0
 21 28  1  0
 32 23  1  0
 24 27  1  0
 28 29  2  0
 29 30  1  0
 29 31  1  0
 31 33  1  0
M  END
> <chembl_id>
CHEMBL1231574

> <chembl_pref_name>
LEVOMEFOLIC ACID
