
     RDKit          2D

 30 32  0  0  1  0  0  0  0  0999 V2000
    2.5042   -3.4667    0.0000 C   0  0  0  0  0  0  0  0  0  0  0  0
    1.2792   -4.8917    0.0000 C   0  0  0  0  0  0  0  0  0  0  0  0
    1.8917   -4.5375    0.0000 N   0  0  0  0  0  0  0  0  0  0  0  0
    1.8917   -3.8250    0.0000 C   0  0  0  0  0  0  0  0  0  0  0  0
    3.1292   -3.8250    0.0000 N   0  0  0  0  0  0  0  0  0  0  0  0
    5.5917   -2.3917    0.0000 C   0  0  0  0  0  0  0  0  0  0  0  0
    4.9792   -2.7542    0.0000 C   0  0  0  0  0  0  0  0  0  0  0  0
    2.5083   -2.7542    0.0000 O   0  0  0  0  0  0  0  0  0  0  0  0
    1.2833   -5.6083    0.0000 O   0  0  0  0  0  0  0  0  0  0  0  0
    1.2792   -3.4667    0.0000 C   0  0  0  0  0  0  0  0  0  0  0  0
    0.6583   -4.5417    0.0000 C   0  0  0  0  0  0  0  0  0  0  0  0
    5.5917   -1.6792    0.0000 O   0  0  0  0  0  0  0  0  0  0  0  0
    3.7417   -3.4667    0.0000 C   0  0  0  0  0  0  0  0  0  0  0  0
    4.3625   -2.3917    0.0000 C   0  0  0  0  0  0  0  0  0  0  0  0
    4.9792   -3.4667    0.0000 C   0  0  0  0  0  0  0  0  0  0  0  0
    1.2792   -2.7542    0.0000 C   0  0  0  0  0  0  0  0  0  0  0  0
    6.2125   -2.7500    0.0000 O   0  0  0  0  0  0  0  0  0  0  0  0
    1.2792   -1.3375    0.0000 C   0  0  0  0  0  0  0  0  0  0  0  0
    4.3625   -3.8250    0.0000 C   0  0  0  0  0  0  0  0  0  0  0  0
    3.7417   -2.7542    0.0000 C   0  0  0  0  0  0  0  0  0  0  0  0
    0.6667   -2.4042    0.0000 C   0  0  0  0  0  0  0  0  0  0  0  0
    1.9000   -2.4042    0.0000 C   0  0  0  0  0  0  0  0  0  0  0  0
    1.9000   -1.6917    0.0000 C   0  0  0  0  0  0  0  0  0  0  0  0
    0.6625   -1.6917    0.0000 C   0  0  0  0  0  0  0  0  0  0  0  0
    1.2792   -0.6250    0.0000 O   0  0  0  0  0  0  0  0  0  0  0  0
    0.6583   -3.8375    0.0000 C   0  0  0  0  0  0  0  0  0  0  0  0
    0.0458   -4.9083    0.0000 C   0  0  0  0  0  0  0  0  0  0  0  0
   -0.5708   -4.5542    0.0000 C   0  0  0  0  0  0  0  0  0  0  0  0
    0.0458   -3.4792    0.0000 C   0  0  0  0  0  0  0  0  0  0  0  0
   -0.5792   -3.8417    0.0000 C   0  0  0  0  0  0  0  0  0  0  0  0
  2  3  1  0
  4  3  1  1
  4  1  1  0
  5  1  1  0
  6  7  1  0
  7 14  2  0
  8  1  2  0
  9  2  2  0
 10  4  1  0
 11  2  1  0
 12  6  2  0
 13  5  1  0
 14 20  1  0
 15 19  2  0
 16 10  1  0
 17  6  1  0
 18 23  2  0
 19 13  1  0
 20 13  2  0
 21 16  1  0
 22 16  2  0
 23 22  1  0
 24 21  2  0
 25 18  1  0
 26 11  1  0
 27 11  2  0
 28 27  1  0
 29 26  2  0
 30 28  2  0
 15  7  1  0
 24 18  1  0
 29 30  1  0
M  END
> <chembl_id>
CHEMBL1200368

> <chembl_pref_name>
BENTIROMIDE
