
     RDKit          2D

 30 33  0  0  0  0  0  0  0  0999 V2000
    3.7875   -1.7542    0.0000 N   0  0  0  0  0  0  0  0  0  0  0  0
    3.1792   -1.3917    0.0000 C   0  0  0  0  0  0  0  0  0  0  0  0
    3.7875   -0.3250    0.0000 S   0  0  0  0  0  0  0  0  0  0  0  0
    1.3375   -1.7500    0.0000 C   0  0  0  0  0  0  0  0  0  0  0  0
    3.1750   -0.6792    0.0000 C   0  0  0  0  0  0  0  0  0  0  0  0
    4.4167   -1.4000    0.0000 C   0  0  0  0  0  0  0  0  0  0  0  0
    4.4125   -0.6875    0.0000 C   0  0  0  0  0  0  0  0  0  0  0  0
    2.5542   -1.7500    0.0000 C   0  0  0  0  0  0  0  0  0  0  0  0
    1.9417   -1.3917    0.0000 C   0  0  0  0  0  0  0  0  0  0  0  0
    2.5667   -3.8750    0.0000 N   0  0  0  0  0  0  0  0  0  0  0  0
    1.3292   -4.5875    0.0000 N   0  0  0  0  0  0  0  0  0  0  0  0
    2.5750   -0.3292    0.0000 C   0  0  0  0  0  0  0  0  0  0  0  0
    1.9375   -0.6875    0.0000 C   0  0  0  0  0  0  0  0  0  0  0  0
    0.7208   -1.3958    0.0000 F   0  0  0  0  0  0  0  0  0  0  0  0
    1.6875   -2.3625    0.0000 F   0  0  0  0  0  0  0  0  0  0  0  0
    0.9792   -2.3625    0.0000 F   0  0  0  0  0  0  0  0  0  0  0  0
    3.7875   -2.4667    0.0000 C   0  0  0  0  0  0  0  0  0  0  0  0
    1.9500   -3.5167    0.0000 C   0  0  0  0  0  0  0  0  0  0  0  0
    2.5542   -4.5917    0.0000 C   0  0  0  0  0  0  0  0  0  0  0  0
    1.3292   -3.8667    0.0000 C   0  0  0  0  0  0  0  0  0  0  0  0
    1.9417   -4.9417    0.0000 C   0  0  0  0  0  0  0  0  0  0  0  0
    3.1667   -2.8250    0.0000 C   0  0  0  0  0  0  0  0  0  0  0  0
    3.1667   -3.5250    0.0000 C   0  0  0  0  0  0  0  0  0  0  0  0
    5.0292   -1.7542    0.0000 C   0  0  0  0  0  0  0  0  0  0  0  0
    0.7042   -4.9542    0.0000 C   0  0  0  0  0  0  0  0  0  0  0  0
    5.0250   -0.3250    0.0000 C   0  0  0  0  0  0  0  0  0  0  0  0
   -0.5333   -4.9417    0.0000 O   0  0  0  0  0  0  0  0  0  0  0  0
    0.0917   -4.5917    0.0000 C   0  0  0  0  0  0  0  0  0  0  0  0
    5.6500   -1.3917    0.0000 C   0  0  0  0  0  0  0  0  0  0  0  0
    5.6500   -0.6792    0.0000 C   0  0  0  0  0  0  0  0  0  0  0  0
  2  1  1  0
  3  5  1  0
  4  9  1  0
  5  2  1  0
  6  1  1  0
  7  6  2  0
  8  2  2  0
  9  8  1  0
 10 23  1  0
 11 20  1  0
 12  5  2  0
 13  9  2  0
 14  4  1  0
 15  4  1  0
 16  4  1  0
 17  1  1  0
 18 10  1  0
 19 10  1  0
 20 18  1  0
 21 19  1  0
 22 17  1  0
 23 22  1  0
 24  6  1  0
 25 11  1  0
 26  7  1  0
 27 28  1  0
 28 25  1  0
 29 24  2  0
 30 29  1  0
  7  3  1  0
 12 13  1  0
 26 30  2  0
 21 11  1  0
M  END
> <chembl_id>
CHEMBL726

> <chembl_pref_name>
FLUPHENAZINE
