
     RDKit          2D

  6  3  0  0  0  0  0  0  0  0999 V2000
    6.6417   -5.3542    0.0000 Li  0  0  0  0  0 15  0  0  0  0  0  0
    5.3667   -5.0000    0.0000 C   0  0  0  0  0  0  0  0  0  0  0  0
    5.9792   -5.3500    0.0000 O   0  0  0  0  0  0  0  0  0  0  0  0
    4.7500   -5.3542    0.0000 O   0  0  0  0  0  0  0  0  0  0  0  0
    5.3667   -4.2917    0.0000 O   0  0  0  0  0  0  0  0  0  0  0  0
    4.0875   -5.3542    0.0000 Li  0  0  0  0  0 15  0  0  0  0  0  0
  3  2  1  0
  4  2  1  0
  5  2  2  0
M  CHG  4   1   1   3  -1   4  -1   6   1
M  END
> <chembl_id>
CHEMBL1200826

> <chembl_pref_name>
LITHIUM CARBONATE
