
     RDKit          2D

 22 23  0  0  0  0  0  0  0  0999 V2000
    2.3361   -6.6541    0.0000 C   0  0  0  0  0  0  0  0  0  0  0  0
    2.3349   -7.4815    0.0000 C   0  0  0  0  0  0  0  0  0  0  0  0
    3.0497   -7.8944    0.0000 C   0  0  0  0  0  0  0  0  0  0  0  0
    3.7662   -7.4810    0.0000 C   0  0  0  0  0  0  0  0  0  0  0  0
    3.7633   -6.6505    0.0000 C   0  0  0  0  0  0  0  0  0  0  0  0
    3.0479   -6.2414    0.0000 C   0  0  0  0  0  0  0  0  0  0  0  0
    4.4762   -6.2353    0.0000 N   0  0  0  0  0  0  0  0  0  0  0  0
    5.1922   -6.6451    0.0000 S   0  0  0  0  0  0  0  0  0  0  0  0
    5.9052   -6.2299    0.0000 C   0  0  0  0  0  0  0  0  0  0  0  0
    6.6196   -6.6432    0.0000 C   0  0  0  0  0  0  0  0  0  0  0  0
    7.3320   -6.2287    0.0000 C   0  0  0  0  0  0  0  0  0  0  0  0
    7.3293   -5.4028    0.0000 C   0  0  0  0  0  0  0  0  0  0  0  0
    6.6083   -4.9932    0.0000 C   0  0  0  0  0  0  0  0  0  0  0  0
    5.8988   -5.4100    0.0000 C   0  0  0  0  0  0  0  0  0  0  0  0
    4.7750   -7.3542    0.0000 O   0  0  0  0  0  0  0  0  0  0  0  0
    5.6000   -7.3542    0.0000 O   0  0  0  0  0  0  0  0  0  0  0  0
    8.0478   -6.6388    0.0000 C   0  0  0  0  0  0  0  0  0  0  0  0
    8.7609   -6.2240    0.0000 C   0  0  0  0  0  0  0  0  0  0  0  0
    9.4768   -6.6341    0.0000 C   0  0  0  0  0  0  0  0  0  0  0  0
    9.4795   -7.4591    0.0000 O   0  0  0  0  0  0  0  0  0  0  0  0
   10.1899   -6.2193    0.0000 N   0  0  0  0  0  0  0  0  0  0  0  0
   10.9057   -6.6294    0.0000 O   0  0  0  0  0  0  0  0  0  0  0  0
 10 11  1  0
  5  6  2  0
 11 12  2  0
  6  1  1  0
 12 13  1  0
  1  2  2  0
 13 14  2  0
 14  9  1  0
  5  7  1  0
  8 15  2  0
  3  4  2  0
  8 16  2  0
  7  8  1  0
 11 17  1  0
 17 18  2  0
  8  9  1  0
 18 19  1  0
  4  5  1  0
 19 20  2  0
  9 10  2  0
 19 21  1  0
  2  3  1  0
 21 22  1  0
M  END
> <chembl_id>
CHEMBL408513

> <chembl_pref_name>
BELINOSTAT
