
     RDKit          2D

 19 18  0  0  0  0  0  0  0  0999 V2000
    4.0875   -1.5125    0.0000 O   0  0  0  0  0  0  0  0  0  0  0  0
    1.0167   -0.5875    0.0000 C   0  0  0  0  0  0  0  0  0  0  0  0
    1.0167   -1.2917    0.0000 N   0  0  0  0  0  0  0  0  0  0  0  0
    1.6000   -1.6292    0.0000 C   0  0  0  0  0  0  0  0  0  0  0  0
    1.6167   -0.2375    0.0000 N   0  0  0  0  0  0  0  0  0  0  0  0
    2.1792   -1.9667    0.0000 N   0  0  0  0  0  0  0  0  0  0  0  0
    0.4000   -0.2417    0.0000 N   0  0  0  0  0  0  0  0  0  0  0  0
    2.2167   -0.5667    0.0000 C   0  0  0  0  0  0  0  0  0  0  0  0
    2.8250   -0.2167    0.0000 C   0  0  0  0  0  0  0  0  0  0  0  0
   -1.4250   -1.3042    0.0000 N   0  0  0  0  0  0  0  0  0  0  0  0
   -0.2083   -0.6000    0.0000 C   0  0  0  0  0  0  0  0  0  0  0  0
   -0.2083   -1.3042    0.0000 C   0  0  0  0  0  0  0  0  0  0  0  0
   -0.8208   -0.2417    0.0000 C   0  0  0  0  0  0  0  0  0  0  0  0
   -1.4250   -0.6000    0.0000 C   0  0  0  0  0  0  0  0  0  0  0  0
   -0.8208   -1.6542    0.0000 C   0  0  0  0  0  0  0  0  0  0  0  0
    3.1750    0.4000    0.0000 C   0  0  0  0  0  0  0  0  0  0  0  0
    2.4667    0.4000    0.0000 C   0  0  0  0  0  0  0  0  0  0  0  0
    3.4417   -0.5542    0.0000 C   0  0  0  0  0  0  0  0  0  0  0  0
    2.2167   -1.2667    0.0000 C   0  0  0  0  0  0  0  0  0  0  0  0
  3  2  2  0
  4  3  1  0
  5  2  1  0
  6  4  3  0
  7  2  1  0
  8  5  1  0
  9  8  1  0
 10 14  1  0
 11  7  1  0
 12 11  2  0
 13 11  1  0
 14 13  2  0
 15 12  1  0
 16  9  1  0
 17  9  1  0
 18  9  1  0
 19  8  1  0
 10 15  2  0
M  END
> <chembl_id>
CHEMBL1200338

> <chembl_pref_name>
PINACIDIL
