
     RDKit          2D

 96101  0  0  0  0  0  0  0  0999 V2000
   -2.9009   -4.0708    0.0000 N   0  0  0  0  0  0  0  0  0  0  0  0
   -2.1266   -3.7877    0.0000 C   0  0  0  0  0  0  0  0  0  0  0  0
   -5.1369   -3.2589    0.0000 N   0  0  0  0  0  0  0  0  0  0  0  0
   -4.5040   -3.7877    0.0000 C   0  0  0  0  0  0  0  0  0  0  0  0
   -3.7254   -4.0708    0.0000 C   0  0  0  0  0  0  0  0  0  0  0  0
   -5.6989   -1.7267    0.0000 C   0  0  0  0  0  0  0  0  0  0  0  0
   -1.0774   -2.5387    0.0000 N   0  0  0  0  0  0  0  0  0  0  0  0
   -5.5532   -0.9149    0.0000 N   0  0  0  0  0  0  0  0  0  0  0  0
   -1.4938   -0.1987    0.0000 N   0  0  0  0  0  0  0  0  0  0  0  0
   -1.4938   -3.2589    0.0000 C   0  0  0  0  0  0  0  0  0  0  0  0
   -3.7254    0.6215    0.0000 N   0  0  0  0  0  0  0  0  0  0  0  0
   -0.9399   -1.7267    0.0000 C   0  0  0  0  0  0  0  0  0  0  0  0
   -4.5040    0.3342    0.0000 C   0  0  0  0  0  0  0  0  0  0  0  0
   -6.1861    1.0504    0.0000 C   0  0  0  0  0  0  0  0  0  0  0  0
   -2.1266    0.3342    0.0000 C   0  0  0  0  0  0  0  0  0  0  0  0
   -5.5532   -2.5387    0.0000 C   0  0  0  0  0  0  0  0  0  0  0  0
   -5.1369   -0.1987    0.0000 C   0  0  0  0  0  0  0  0  0  0  0  0
   -1.0774   -0.9149    0.0000 C   0  0  0  0  0  0  0  0  0  0  0  0
   -7.3602    1.6957    0.0000 N   0  0  0  0  0  0  0  0  0  0  0  0
   -7.0104    0.9462    0.0000 C   0  0  0  0  0  0  0  0  0  0  0  0
   -4.0294   -6.5731    0.0000 C   0  0  0  0  0  0  0  0  0  0  0  0
   -2.9009    0.6215    0.0000 C   0  0  0  0  0  0  0  0  0  0  0  0
   -5.7738    0.3342    0.0000 C   0  0  0  0  0  0  0  0  0  0  0  0
   -6.0362    1.8581    0.0000 C   0  0  0  0  0  0  0  0  0  0  0  0
   -2.6430   -4.8578    0.0000 C   0  0  0  0  0  0  0  0  0  0  0  0
   -3.9878   -4.8578    0.0000 C   0  0  0  0  0  0  0  0  0  0  0  0
   -3.3132   -5.3448    0.0000 C   0  0  0  0  0  0  0  0  0  0  0  0
   -6.7606    2.2578    0.0000 C   0  0  0  0  0  0  0  0  0  0  0  0
   -1.7143   -4.4997    0.0000 O   0  0  0  0  0  0  0  0  0  0  0  0
   -3.3132   -6.1610    0.0000 O   0  0  0  0  0  0  0  0  0  0  0  0
   -4.9245   -4.4997    0.0000 O   0  0  0  0  0  0  0  0  0  0  0  0
   -6.5234   -1.7267    0.0000 O   0  0  0  0  0  0  0  0  0  0  0  0
   -0.8650   -3.7877    0.0000 C   0  0  0  0  0  0  0  0  0  0  0  0
   -0.1073   -1.7267    0.0000 O   0  0  0  0  0  0  0  0  0  0  0  0
   -4.9245    1.0504    0.0000 O   0  0  0  0  0  0  0  0  0  0  0  0
   -1.7143    1.0504    0.0000 O   0  0  0  0  0  0  0  0  0  0  0  0
   -0.3030   -0.6276    0.0000 C   0  0  0  0  0  0  0  0  0  0  0  0
   -4.7413   -6.1610    0.0000 O   0  0  0  0  0  0  0  0  0  0  0  0
   -6.3277   -2.8259    0.0000 C   0  0  0  0  0  0  0  0  0  0  0  0
   -4.0294   -7.3975    0.0000 N   0  0  0  0  0  0  0  0  0  0  0  0
    2.8573   -1.4770    0.0000 O   0  0  0  0  0  0  0  0  0  0  0  0
    0.4923   -0.8399    0.0000 C   0  0  0  0  0  0  0  0  0  0  0  0
    2.0704   -1.2646    0.0000 C   0  0  0  0  0  0  0  0  0  0  0  0
   -1.0024   -4.5997    0.0000 C   0  0  0  0  0  0  0  0  0  0  0  0
    3.4442   -0.8982    0.0000 C   0  0  0  0  0  0  0  0  0  0  0  0
    1.0668   -0.2654    0.0000 C   0  0  0  0  0  0  0  0  0  0  0  0
    0.6964   -1.6351    0.0000 C   0  0  0  0  0  0  0  0  0  0  0  0
    1.4916   -1.8475    0.0000 C   0  0  0  0  0  0  0  0  0  0  0  0
    1.8538   -0.4735    0.0000 C   0  0  0  0  0  0  0  0  0  0  0  0
   -2.6055   -9.0588    0.0000 N   0  0  0  0  0  0  0  0  0  0  0  0
   -0.9191    3.6318    0.0000 N   0  0  0  0  0  0  0  0  0  0  0  0
    4.2438   -1.1106    0.0000 C   0  0  0  0  0  0  0  0  0  0  0  0
   -5.3284    2.2869    0.0000 C   0  0  0  0  0  0  0  0  0  0  0  0
   -2.7554    1.4333    0.0000 C   0  0  0  0  0  0  0  0  0  0  0  0
   -6.7731    3.0864    0.0000 C   0  0  0  0  0  0  0  0  0  0  0  0
   -3.3132   -7.8097    0.0000 C   0  0  0  0  0  0  0  0  0  0  0  0
   -6.9604   -2.2889    0.0000 C   0  0  0  0  0  0  0  0  0  0  0  0
   -6.4651   -3.6378    0.0000 C   0  0  0  0  0  0  0  0  0  0  0  0
   -3.3132   -8.6341    0.0000 C   0  0  0  0  0  0  0  0  0  0  0  0
   -1.0649    2.8073    0.0000 C   0  0  0  0  0  0  0  0  0  0  0  0
   -0.3696   -5.1326    0.0000 C   0  0  0  0  0  0  0  0  0  0  0  0
   -1.7810   -4.8827    0.0000 C   0  0  0  0  0  0  0  0  0  0  0  0
    4.4519   -1.9016    0.0000 C   0  0  0  0  0  0  0  0  0  0  0  0
    4.8182   -0.5276    0.0000 C   0  0  0  0  0  0  0  0  0  0  0  0
   -1.9808    1.7124    0.0000 C   0  0  0  0  0  0  0  0  0  0  0  0
   -1.8392    2.5243    0.0000 C   0  0  0  0  0  0  0  0  0  0  0  0
   -5.3408    3.1114    0.0000 C   0  0  0  0  0  0  0  0  0  0  0  0
   -6.0612    3.5110    0.0000 C   0  0  0  0  0  0  0  0  0  0  0  0
   -7.2395   -3.9252    0.0000 C   0  0  0  0  0  0  0  0  0  0  0  0
   -7.7392   -2.5761    0.0000 C   0  0  0  0  0  0  0  0  0  0  0  0
   -1.9267   -5.6988    0.0000 C   0  0  0  0  0  0  0  0  0  0  0  0
    5.2430   -2.1140    0.0000 C   0  0  0  0  0  0  0  0  0  0  0  0
    5.6136   -0.7358    0.0000 C   0  0  0  0  0  0  0  0  0  0  0  0
   -0.5152   -5.9445    0.0000 C   0  0  0  0  0  0  0  0  0  0  0  0
   -7.8847   -3.3881    0.0000 C   0  0  0  0  0  0  0  0  0  0  0  0
   -1.2897   -6.2317    0.0000 C   0  0  0  0  0  0  0  0  0  0  0  0
    5.8300   -1.5352    0.0000 C   0  0  0  0  0  0  0  0  0  0  0  0
   -4.6256   -4.5059    0.0000 H   0  0  0  0  0  0  0  0  0  0  0  0
    7.5467   -0.0917    0.0000 O   0  0  0  0  0  0  0  0  0  0  0  0
    8.2611    0.3208    0.0000 C   0  0  0  0  0  0  0  0  0  0  0  0
    8.2611    1.1458    0.0000 O   0  0  0  0  0  0  0  0  0  0  0  0
    8.9756   -0.0917    0.0000 C   0  0  0  0  0  0  0  0  0  0  0  0
    8.9756   -0.9167    0.0000 N   0  0  0  0  0  0  0  0  0  0  0  0
    9.6901    0.3208    0.0000 C   0  0  0  0  0  0  0  0  0  0  0  0
   10.4045   -0.0917    0.0000 C   0  0  0  0  0  0  0  0  0  0  0  0
   11.1190    0.3208    0.0000 O   0  0  0  0  0  0  0  0  0  0  0  0
   10.4045   -0.9167    0.0000 O   0  0  0  0  0  0  0  0  0  0  0  0
    7.4733   -3.2255    0.0000 O   0  0  0  0  0  0  0  0  0  0  0  0
    8.1878   -2.8130    0.0000 C   0  0  0  0  0  0  0  0  0  0  0  0
    8.1878   -1.9880    0.0000 O   0  0  0  0  0  0  0  0  0  0  0  0
    8.9023   -3.2255    0.0000 C   0  0  0  0  0  0  0  0  0  0  0  0
    8.9023   -4.0505    0.0000 N   0  0  0  0  0  0  0  0  0  0  0  0
    9.6167   -2.8130    0.0000 C   0  0  0  0  0  0  0  0  0  0  0  0
   10.3312   -3.2255    0.0000 C   0  0  0  0  0  0  0  0  0  0  0  0
   11.0457   -2.8130    0.0000 O   0  0  0  0  0  0  0  0  0  0  0  0
   10.3312   -4.0505    0.0000 O   0  0  0  0  0  0  0  0  0  0  0  0
  2  1  1  0
  3  4  1  0
  4  5  1  0
  5  1  1  0
  6 16  1  0
  7 10  1  0
  8  6  1  0
  9 18  1  0
 10  2  1  0
 11 13  1  0
 12  7  1  0
 13 17  1  0
 14 23  1  0
 15  9  1  0
 16  3  1  0
 17  8  1  0
 18 12  1  0
 19 20  1  0
 20 14  2  0
 21 30  1  0
 22 15  1  0
 17 23  1  6
 24 14  1  0
 25  1  1  0
  5 26  1  0
 27 25  1  0
 28 24  2  0
 29  2  2  0
 27 30  1  6
 31  4  2  0
 32  6  2  0
 10 33  1  1
 34 12  2  0
 35 13  2  0
 36 15  2  0
 18 37  1  1
 38 21  2  0
 16 39  1  1
 40 21  1  0
 41 43  1  0
 42 37  1  0
 43 48  2  0
 44 33  1  0
 45 41  1  0
 46 42  1  0
 47 42  2  0
 48 47  1  0
 49 46  2  0
 50 59  1  0
 51 60  1  0
 52 45  1  0
 53 24  1  0
 22 54  1  1
 55 28  1  0
 56 40  1  0
 57 39  2  0
 58 39  1  0
 59 56  1  0
 60 66  1  0
 61 44  1  0
 62 44  2  0
 63 52  2  0
 64 52  1  0
 65 54  1  0
 66 65  1  0
 67 53  2  0
 68 67  1  0
 69 58  2  0
 70 57  1  0
 71 62  1  0
 72 63  1  0
 73 64  2  0
 74 61  2  0
 75 69  1  0
 76 71  2  0
 77 73  1  0
 27 26  1  0
 74 76  1  0
 70 75  2  0
 11 22  1  0
 49 43  1  0
 28 19  1  0
 55 68  2  0
 72 77  2  0
  5 78  1  6
 79 80  1  0
 80 81  2  0
 82 80  1  0
 82 83  1  6
 82 84  1  0
 84 85  1  0
 85 86  2  0
 85 87  1  0
 88 89  1  0
 89 90  2  0
 91 89  1  0
 91 92  1  6
 91 93  1  0
 93 94  1  0
 94 95  2  0
 94 96  1  0
M  END
> <chembl_id>
CHEMBL5314380

> <chembl_pref_name>
PASIREOTIDE DIASPARTATE
