
     RDKit          2D

 31 35  0  0  1  0  0  0  0  0999 V2000
    1.8375   -0.5292    0.0000 N   0  0  0  0  0  0  0  0  0  0  0  0
    2.6542    0.8958    0.0000 C   0  0  0  0  0  0  0  0  0  0  0  0
    1.0167   -0.0542    0.0000 C   0  0  0  0  0  0  0  0  0  0  0  0
    1.0167    0.8958    0.0000 C   0  0  0  0  0  0  0  0  0  0  0  0
   -1.4458   -0.5667    0.0000 N   0  0  0  0  0  0  0  0  0  0  0  0
    2.6542   -0.0542    0.0000 C   0  0  0  0  0  0  0  0  0  0  0  0
    1.8375    1.3708    0.0000 C   0  0  0  0  0  0  0  0  0  0  0  0
    0.2000   -0.5292    0.0000 C   0  0  0  0  0  0  0  0  0  0  0  0
   -0.6208   -0.0542    0.0000 C   0  0  0  0  0  0  0  0  0  0  0  0
   -0.6208    0.8958    0.0000 C   0  0  0  0  0  0  0  0  0  0  0  0
    1.8375   -1.5125    0.0000 C   0  0  0  0  0  0  0  0  0  0  0  0
    0.2000    1.3708    0.0000 C   0  0  0  0  0  0  0  0  0  0  0  0
    3.4792    1.3708    0.0000 C   0  0  0  0  0  0  0  0  0  0  0  0
   -1.5458   -1.4667    0.0000 C   0  0  0  0  0  0  0  0  0  0  0  0
   -2.2708   -0.1417    0.0000 C   0  0  0  0  0  0  0  0  0  0  0  0
   -2.4958   -1.6542    0.0000 C   0  0  0  0  0  0  0  0  0  0  0  0
   -2.9583   -0.7750    0.0000 C   0  0  0  0  0  0  0  0  0  0  0  0
    1.3625   -2.2917    0.0000 C   0  0  0  0  0  0  0  0  0  0  0  0
    2.3125   -2.2917    0.0000 C   0  0  0  0  0  0  0  0  0  0  0  0
   -3.9208   -0.8792    0.0000 N   0  0  0  0  0  0  0  0  0  0  0  0
    1.8375    2.3125    0.0000 O   0  0  0  0  0  0  0  0  0  0  0  0
    3.4542    2.3083    0.0000 O   0  0  0  0  0  0  0  0  0  0  0  0
    0.2000   -1.4750    0.0000 O   0  0  0  0  0  0  0  0  0  0  0  0
   -1.4458    1.3708    0.0000 F   0  0  0  0  0  0  0  0  0  0  0  0
    4.3125    0.9208    0.0000 O   0  0  0  0  0  0  0  0  0  0  0  0
   -3.0000   -2.4542    0.0000 C   0  0  0  0  0  0  0  0  0  0  0  0
   -4.3458   -1.7167    0.0000 C   0  0  0  0  0  0  0  0  0  0  0  0
    1.0917   -1.7917    0.0000 C   0  0  0  0  0  0  0  0  0  0  0  0
   -3.8958   -2.4500    0.0000 C   0  0  0  0  0  0  0  0  0  0  0  0
   -1.9458   -2.4250    0.0000 H   0  0  0  0  0  0  0  0  0  0  0  0
   -3.3333    0.0958    0.0000 H   0  0  0  0  0  0  0  0  0  0  0  0
  2  6  2  0
  3  1  1  0
  4  3  1  0
  5  9  1  0
  6  1  1  0
  7  2  1  0
  8  3  2  0
  9  8  1  0
 10  9  2  0
 11  1  1  0
 12  4  2  0
 13  2  1  0
 14  5  1  0
 15  5  1  0
 16 14  1  0
 17 15  1  0
 18 11  1  0
 19 11  1  0
 20 17  1  0
 21  7  2  0
 22 13  2  0
 23  8  1  0
 24 10  1  0
 25 13  1  0
 26 16  1  0
 27 20  1  0
 28 23  1  0
 29 26  1  0
 16 30  1  1
 17 31  1  1
 18 19  1  0
  4  7  1  0
 12 10  1  0
 16 17  1  0
 29 27  1  0
M  END
> <chembl_id>
CHEMBL32

> <chembl_pref_name>
MOXIFLOXACIN
