
     RDKit          2D

 17 16  0  0  0  0  0  0  0  0999 V2000
    5.6111   -4.1011    0.0000 Na  0  0  0  0  0 15  0  0  0  0  0  0
    7.1094   -3.0218    0.0000 N   0  0  0  0  0  0  0  0  0  0  0  0
    7.8418   -2.6098    0.0000 C   0  0  0  0  0  0  0  0  0  0  0  0
    7.1171   -1.3716    0.0000 C   0  0  0  0  0  0  0  0  0  0  0  0
    7.8297   -1.7874    0.0000 C   0  0  0  0  0  0  0  0  0  0  0  0
    6.4132   -1.7761    0.0000 N   0  0  0  0  0  0  0  0  0  0  0  0
    6.3968   -2.6060    0.0000 C   0  0  0  0  0  0  0  0  0  0  0  0
    8.5435   -3.0193    0.0000 O   0  0  0  0  0  0  0  0  0  0  0  0
    7.1133   -0.5349    0.0000 O   0  0  0  0  0  0  0  0  0  0  0  0
    5.6708   -3.0072    0.0000 O   0  0  0  0  0  0  0  0  0  0  0  0
    8.6510   -1.8182    0.0000 C   0  0  0  0  0  0  0  0  0  0  0  0
    7.8096   -0.9702    0.0000 C   0  0  0  0  0  0  0  0  0  0  0  0
    9.0711   -1.0984    0.0000 C   0  0  0  0  0  0  0  0  0  0  0  0
    9.0627   -2.5263    0.0000 C   0  0  0  0  0  0  0  0  0  0  0  0
    8.5088   -0.5243    0.0000 C   0  0  0  0  0  0  0  0  0  0  0  0
    9.9051   -1.1075    0.0000 C   0  0  0  0  0  0  0  0  0  0  0  0
   10.3026   -1.8316    0.0000 C   0  0  0  0  0  0  0  0  0  0  0  0
  3  2  1  0
  4  6  1  0
  5  3  1  0
  6  7  2  0
  7  2  1  0
  8  3  2  0
  9  4  2  0
 10  7  1  0
 11  5  1  0
 12  5  1  0
 13 11  1  0
 14 11  1  0
 15 12  1  0
 16 13  1  0
 17 16  1  0
  5  4  1  0
M  CHG  2   1   1  10  -1
M  END
> <chembl_id>
CHEMBL971

> <chembl_pref_name>
PENTOBARBITAL SODIUM
