
     RDKit          2D

 34 35  0  0  0  0  0  0  0  0999 V2000
   -3.0150  -13.4557    0.0000 C   0  0  0  0  0  0  0  0  0  0  0  0
   -3.0150  -12.6307    0.0000 C   0  0  0  0  0  0  0  0  0  0  0  0
   -0.8716  -12.2182    0.0000 C   0  0  0  0  0  0  0  0  0  0  0  0
   -1.5861  -12.6307    0.0000 C   0  0  0  0  0  0  0  0  0  0  0  0
   -2.3005  -12.2182    0.0000 C   0  0  0  0  0  0  0  0  0  0  0  0
   -3.7295  -12.2182    0.0000 C   0  0  0  0  0  0  0  0  0  0  0  0
   -4.4439  -12.6307    0.0000 O   0  0  0  0  0  0  0  0  0  0  0  0
   -3.7295  -11.3932    0.0000 C   0  0  0  0  0  0  0  0  0  0  0  0
   -4.4439  -10.9807    0.0000 C   0  0  0  0  0  0  0  0  0  0  0  0
   -3.0150  -10.9807    0.0000 C   0  0  0  0  0  0  0  0  0  0  0  0
   -3.0150  -10.1557    0.0000 C   0  0  0  0  0  0  0  0  0  0  0  0
   -2.3005  -11.3932    0.0000 C   0  0  0  0  0  0  0  0  0  0  0  0
   -1.5861  -10.9807    0.0000 O   0  0  0  0  0  0  0  0  0  0  0  0
    7.7023  -12.2182    0.0000 C   0  0  0  0  0  0  0  0  0  0  0  0
    7.7023  -11.3932    0.0000 C   0  0  0  0  0  0  0  0  0  0  0  0
    8.4167  -10.9807    0.0000 C   0  0  0  0  0  0  0  0  0  0  0  0
    6.9878  -10.9807    0.0000 C   0  0  0  0  0  0  0  0  0  0  0  0
    6.2733  -11.3932    0.0000 C   0  0  0  0  0  0  0  0  0  0  0  0
    5.5588  -10.9807    0.0000 C   0  0  0  0  0  0  0  0  0  0  0  0
    4.8443  -11.3932    0.0000 C   0  0  0  0  0  0  0  0  0  0  0  0
    4.8443  -12.2182    0.0000 C   0  0  0  0  0  0  0  0  0  0  0  0
    4.1299  -10.9807    0.0000 C   0  0  0  0  0  0  0  0  0  0  0  0
    3.4153  -11.3932    0.0000 C   0  0  0  0  0  0  0  0  0  0  0  0
    2.7009  -10.9807    0.0000 C   0  0  0  0  0  0  0  0  0  0  0  0
    1.9864  -11.3932    0.0000 C   0  0  0  0  0  0  0  0  0  0  0  0
    1.9864  -12.2182    0.0000 C   0  0  0  0  0  0  0  0  0  0  0  0
    1.2719  -10.9807    0.0000 C   0  0  0  0  0  0  0  0  0  0  0  0
    0.5575  -11.3932    0.0000 C   0  0  0  0  0  0  0  0  0  0  0  0
   -0.1571  -10.9807    0.0000 C   0  0  0  0  0  0  0  0  0  0  0  0
   -0.8716  -11.3932    0.0000 C   0  0  0  0  0  0  0  0  0  0  0  0
   -0.1571  -11.8057    0.0000 C   0  0  0  0  0  0  0  0  0  0  0  0
   -5.1583  -12.2182    0.0000 C   0  0  0  0  0  0  0  0  0  0  0  0
   -5.8728  -12.6307    0.0000 C   0  0  0  0  0  0  0  0  0  0  0  0
   -5.1583  -11.3932    0.0000 O   0  0  0  0  0  0  0  0  0  0  0  0
  2  1  1  0
 30 29  1  0
 30  3  1  0
  3  4  1  0
  5  2  2  0
  4  5  1  0
  2  6  1  0
  6  7  1  0
  8  6  2  0
  8  9  1  0
 10  8  1  0
 10 11  1  0
 12 10  2  0
 12  5  1  0
 30 13  1  0
 12 13  1  0
 14 15  1  0
 15 16  1  0
 15 17  1  0
 17 18  1  0
 18 19  1  0
 19 20  1  0
 20 21  1  1
 20 22  1  0
 22 23  1  0
 23 24  1  0
 24 25  1  0
 25 26  1  1
 25 27  1  0
 27 28  1  0
 28 29  1  0
 30 31  1  0
  7 32  1  0
 32 33  1  0
 32 34  2  0
M  END
> <chembl_id>
CHEMBL3989859

> <chembl_pref_name>
TOCOPHEROL ACETATE
