
     RDKit          2D

 42 45  0  0  0  0  0  0  0  0999 V2000
    6.7300   -5.5392    0.0000 C   0  0  0  0  0  0  0  0  0  0  0  0
    7.4444   -5.9517    0.0000 C   0  0  0  0  0  0  0  0  0  0  0  0
    7.4444   -6.7767    0.0000 C   0  0  0  0  0  0  0  0  0  0  0  0
    6.7300   -7.1892    0.0000 C   0  0  0  0  0  0  0  0  0  0  0  0
    6.0155   -6.7767    0.0000 C   0  0  0  0  0  0  0  0  0  0  0  0
    6.0155   -5.9517    0.0000 C   0  0  0  0  0  0  0  0  0  0  0  0
    8.1589   -7.1892    0.0000 O   0  0  0  0  0  0  0  0  0  0  0  0
    8.1589   -8.0142    0.0000 C   0  0  0  0  0  0  0  0  0  0  0  0
    8.1589   -5.5392    0.0000 C   0  0  0  0  0  0  0  0  0  0  0  0
    8.8734   -5.9517    0.0000 O   0  0  0  0  0  0  0  0  0  0  0  0
    8.1589   -4.7142    0.0000 O   0  0  0  0  0  0  0  0  0  0  0  0
    5.3010   -5.5392    0.0000 C   0  0  0  0  0  0  0  0  0  0  0  0
    5.3010   -4.7142    0.0000 N   0  0  0  0  0  0  0  0  0  0  0  0
    4.5866   -4.3017    0.0000 C   0  0  0  0  0  0  0  0  0  0  0  0
    6.0155   -4.3017    0.0000 C   0  0  0  0  0  0  0  0  0  0  0  0
    4.5866   -3.4767    0.0000 O   0  0  0  0  0  0  0  0  0  0  0  0
    3.8721   -4.7142    0.0000 C   0  0  0  0  0  0  0  0  0  0  0  0
    3.1576   -4.3017    0.0000 C   0  0  0  0  0  0  0  0  0  0  0  0
    3.8721   -5.5392    0.0000 N   0  0  0  0  0  0  0  0  0  0  0  0
    2.4431   -4.7142    0.0000 C   0  0  0  0  0  0  0  0  0  0  0  0
    6.7300   -4.7142    0.0000 C   0  0  0  0  0  0  0  0  0  0  0  0
    6.0155   -3.4767    0.0000 C   0  0  0  0  0  0  0  0  0  0  0  0
    5.6030   -2.2072    0.0000 C   0  0  0  0  0  0  0  0  0  0  0  0
    6.4280   -2.2072    0.0000 C   0  0  0  0  0  0  0  0  0  0  0  0
    6.6829   -2.9918    0.0000 N   0  0  0  0  0  0  0  0  0  0  0  0
    5.3481   -2.9918    0.0000 N   0  0  0  0  0  0  0  0  0  0  0  0
    5.1181   -1.5397    0.0000 C   0  0  0  0  0  0  0  0  0  0  0  0
    4.1482   -0.2048    0.0000 C   0  0  0  0  0  0  0  0  0  0  0  0
    4.9687   -0.1186    0.0000 C   0  0  0  0  0  0  0  0  0  0  0  0
    5.4536   -0.7860    0.0000 C   0  0  0  0  0  0  0  0  0  0  0  0
    4.2976   -1.6260    0.0000 C   0  0  0  0  0  0  0  0  0  0  0  0
    3.8127   -0.9585    0.0000 C   0  0  0  0  0  0  0  0  0  0  0  0
    1.0142   -5.5392    0.0000 C   0  0  0  0  0  0  0  0  0  0  0  0
    1.0142   -4.7142    0.0000 C   0  0  0  0  0  0  0  0  0  0  0  0
    1.7287   -4.3017    0.0000 C   0  0  0  0  0  0  0  0  0  0  0  0
    2.4431   -5.5392    0.0000 C   0  0  0  0  0  0  0  0  0  0  0  0
    1.7287   -5.9517    0.0000 C   0  0  0  0  0  0  0  0  0  0  0  0
    1.7287   -3.4767    0.0000 C   0  0  0  0  0  0  0  0  0  0  0  0
    3.1576   -5.9517    0.0000 C   0  0  0  0  0  0  0  0  0  0  0  0
    0.2997   -5.9517    0.0000 C   0  0  0  0  0  0  0  0  0  0  0  0
   -0.4147   -5.5392    0.0000 N   0  0  0  0  0  0  0  0  0  0  0  0
    0.2997   -6.7767    0.0000 O   0  0  0  0  0  0  0  0  0  0  0  0
  1  2  2  0
  2  3  1  0
  3  4  2  0
  4  5  1  0
  5  6  2  0
  1  6  1  0
  3  7  1  0
  7  8  1  0
  2  9  1  0
  9 10  1  0
  9 11  2  0
  6 12  1  0
 12 13  1  0
 13 14  1  0
 13 15  1  0
 14 16  2  0
 14 17  1  0
 17 18  1  0
 17 19  1  1
 18 20  1  0
 15 21  1  6
 15 22  1  0
 25 22  2  0
 22 26  1  0
 23 24  2  0
 24 25  1  0
 23 26  1  0
 23 27  1  0
 30 27  2  0
 27 31  1  0
 28 29  2  0
 29 30  1  0
 31 32  2  0
 28 32  1  0
 35 20  2  0
 20 36  1  0
 33 34  2  0
 34 35  1  0
 36 37  2  0
 33 37  1  0
 35 38  1  0
 36 39  1  0
 33 40  1  0
 40 41  1  0
 40 42  2  0
M  END
> <chembl_id>
CHEMBL2159122

> <chembl_pref_name>
ELUXADOLINE
