
     RDKit          2D

 12 12  0  0  0  0  0  0  0  0999 V2000
   -0.5333    2.6833    0.0000 C   0  0  0  0  0  0  0  0  0  0  0  0
   -0.5333    1.2958    0.0000 C   0  0  0  0  0  0  0  0  0  0  0  0
    0.6917    3.3833    0.0000 S   0  0  0  0  0  0  0  0  0  0  0  0
   -0.5333   -1.5042    0.0000 N   0  0  0  0  0  0  0  0  0  0  0  0
    0.6917    0.5708    0.0000 C   0  0  0  0  0  0  0  0  0  0  0  0
    0.6917   -0.7792    0.0000 C   0  0  0  0  0  0  0  0  0  0  0  0
   -1.7250    3.3833    0.0000 N   0  0  0  0  0  0  0  0  0  0  0  0
   -1.7250   -0.8167    0.0000 C   0  0  0  0  0  0  0  0  0  0  0  0
   -1.7250    0.5708    0.0000 C   0  0  0  0  0  0  0  0  0  0  0  0
    1.9167   -1.4000    0.0000 C   0  0  0  0  0  0  0  0  0  0  0  0
    1.9875   -2.7667    0.0000 C   0  0  0  0  0  0  0  0  0  0  0  0
    0.8667   -3.5875    0.0000 C   0  0  0  0  0  0  0  0  0  0  0  0
  2  1  1  0
  3  1  2  0
  4  8  2  0
  5  2  1  0
  6  5  2  0
  7  1  1  0
  8  9  1  0
  9  2  2  0
 10  6  1  0
 11 10  1  0
 12 11  1  0
  6  4  1  0
M  END
> <chembl_id>
CHEMBL1378024

> <chembl_pref_name>
PROTIONAMIDE
