
     RDKit          2D

 44 42  0  0  0  0  0  0  0  0999 V2000
    6.4667   -0.5125    0.0000 C   0  0  0  0  0  0  0  0  0  0  0  0
   -0.3333   -0.1167    0.0000 C   0  0  0  0  0  0  0  0  0  0  0  0
   13.2792   -0.1917    0.0000 C   0  0  0  0  0  0  0  0  0  0  0  0
    8.3292   -0.1750    0.0000 C   0  0  0  0  0  0  0  0  0  0  0  0
    1.5292   -0.4875    0.0000 C   0  0  0  0  0  0  0  0  0  0  0  0
    5.8417   -0.1542    0.0000 N   0  0  0  0  0  0  0  0  0  0  0  0
   -0.9583   -0.4750    0.0000 N   0  0  0  0  0  0  0  0  0  0  0  0
   12.6542   -0.5500    0.0000 N   0  0  0  0  0  0  0  0  0  0  0  0
    6.4542   -1.2375    0.0000 O   0  0  0  0  0  0  0  0  0  0  0  0
   -0.3208    0.5625    0.0000 O   0  0  0  0  0  0  0  0  0  0  0  0
   13.2750    0.5208    0.0000 O   0  0  0  0  0  0  0  0  0  0  0  0
    0.2917   -0.4750    0.0000 C   0  0  0  0  0  0  0  0  0  0  0  0
    7.0792   -0.1750    0.0000 C   0  0  0  0  0  0  0  0  0  0  0  0
    1.5292   -1.2042    0.0000 O   0  0  0  0  0  0  0  0  0  0  0  0
    8.3292    0.5083    0.0000 O   0  0  0  0  0  0  0  0  0  0  0  0
    2.1417   -0.1375    0.0000 N   0  0  0  0  0  0  0  0  0  0  0  0
    8.9417   -0.5292    0.0000 N   0  0  0  0  0  0  0  0  0  0  0  0
    7.7042   -0.5250    0.0000 C   0  0  0  0  0  0  0  0  0  0  0  0
    0.9167   -0.1375    0.0000 C   0  0  0  0  0  0  0  0  0  0  0  0
   12.6542   -1.2750    0.0000 O   0  0  0  0  0  0  0  0  0  0  0  0
   -0.9583   -1.1875    0.0000 O   0  0  0  0  0  0  0  0  0  0  0  0
    5.8417    0.5250    0.0000 O   0  0  0  0  0  0  0  0  0  0  0  0
   -4.6625   -0.4500    0.0000 N   0  0  0  0  0  0  0  0  0  0  0  0
   13.8750   -0.5292    0.0000 C   0  0  0  0  0  0  0  0  0  0  0  0
   12.0417   -0.1917    0.0000 C   0  0  0  0  0  0  0  0  0  0  0  0
    5.2292   -0.5125    0.0000 C   0  0  0  0  0  0  0  0  0  0  0  0
   -1.5708   -0.1125    0.0000 C   0  0  0  0  0  0  0  0  0  0  0  0
    2.7667   -0.5000    0.0000 C   0  0  0  0  0  0  0  0  0  0  0  0
    9.5667   -0.1750    0.0000 C   0  0  0  0  0  0  0  0  0  0  0  0
   -4.0458   -0.0958    0.0000 C   0  0  0  0  0  0  0  0  0  0  0  0
   11.4167   -0.5500    0.0000 C   0  0  0  0  0  0  0  0  0  0  0  0
    4.6042   -0.1500    0.0000 C   0  0  0  0  0  0  0  0  0  0  0  0
   -2.1833   -0.4625    0.0000 C   0  0  0  0  0  0  0  0  0  0  0  0
   10.1792   -0.5292    0.0000 C   0  0  0  0  0  0  0  0  0  0  0  0
    3.3917   -0.1500    0.0000 C   0  0  0  0  0  0  0  0  0  0  0  0
   -3.4208   -0.4500    0.0000 C   0  0  0  0  0  0  0  0  0  0  0  0
   10.7917   -0.1792    0.0000 C   0  0  0  0  0  0  0  0  0  0  0  0
   -2.8083   -0.1125    0.0000 C   0  0  0  0  0  0  0  0  0  0  0  0
    4.0042   -0.5000    0.0000 C   0  0  0  0  0  0  0  0  0  0  0  0
    4.0125    0.6708    0.0000 S   0  0  0  0  0  0  0  0  0  0  0  0
    4.3625    1.2875    0.0000 O   0  0  0  0  0  0  0  0  0  0  0  0
    3.6542    1.2875    0.0000 O   0  0  0  0  0  0  0  0  0  0  0  0
    4.6250    0.3125    0.0000 O   0  0  0  0  0  0  0  0  0  0  0  0
    3.4000    0.3125    0.0000 C   0  0  0  0  0  0  0  0  0  0  0  0
  2 12  1  0
  3  8  1  0
  4 18  1  0
  5 16  1  0
  6  1  1  0
  7  2  1  0
  8 25  1  0
  9  1  2  0
 10  2  2  0
 11  3  2  0
 12 19  1  0
 13  1  1  0
 14  5  2  0
 15  4  2  0
 16 28  1  0
 17  4  1  0
 18 13  1  0
 19  5  1  0
 20  8  1  0
 21  7  1  0
 22  6  1  0
 23 30  1  0
 24  3  1  0
 25 31  1  0
 26  6  1  0
 27  7  1  0
 28 35  1  0
 29 17  1  0
 30 36  1  0
 31 37  1  0
 32 26  1  0
 33 27  1  0
 34 29  1  0
 35 39  1  0
 36 38  1  0
 37 34  1  0
 38 33  1  0
 39 32  1  0
 41 40  2  0
 42 40  2  0
 43 40  1  0
 44 40  1  0
M  END
> <chembl_id>
CHEMBL1234

> <chembl_pref_name>
DEFEROXAMINE MESYLATE
