
     RDKit          2D

 24 25  0  0  0  0  0  0  0  0999 V2000
   -4.7143  -23.2473    0.0000 Cl  0  0  0  0  0  0  0  0  0  0  0  0
   -9.6275  -22.5107    0.0000 C   0  0  0  0  0  0  0  0  0  0  0  0
   -9.6275  -21.6857    0.0000 N   0  0  0  0  0  0  0  0  0  0  0  0
  -10.3420  -21.2732    0.0000 C   0  0  0  0  0  0  0  0  0  0  0  0
  -11.0565  -21.6857    0.0000 C   0  0  0  0  0  0  0  0  0  0  0  0
  -11.0564  -22.5107    0.0000 S   0  0  0  0  0  0  0  0  0  0  0  0
  -10.3420  -22.9232    0.0000 C   0  0  0  0  0  0  0  0  0  0  0  0
  -11.7709  -21.2732    0.0000 C   0  0  0  0  0  0  0  0  0  0  0  0
  -11.7709  -20.4482    0.0000 C   0  0  0  0  0  0  0  0  0  0  0  0
  -11.0565  -20.0357    0.0000 C   0  0  0  0  0  0  0  0  0  0  0  0
  -10.3420  -20.4482    0.0000 C   0  0  0  0  0  0  0  0  0  0  0  0
  -10.3420  -23.7482    0.0000 C   0  0  0  0  0  0  0  0  0  0  0  0
   -9.6275  -24.1608    0.0000 C   0  0  0  0  0  0  0  0  0  0  0  0
   -8.9130  -23.7483    0.0000 C   0  0  0  0  0  0  0  0  0  0  0  0
   -8.9130  -22.9233    0.0000 C   0  0  0  0  0  0  0  0  0  0  0  0
   -8.9130  -21.2732    0.0000 C   0  0  0  0  0  0  0  0  0  0  0  0
   -8.1985  -21.6857    0.0000 C   0  0  0  0  0  0  0  0  0  0  0  0
   -7.4841  -21.2732    0.0000 C   0  0  0  0  0  0  0  0  0  0  0  0
   -6.7696  -21.6857    0.0000 N   0  0  0  0  0  0  0  0  0  0  0  0
   -6.0551  -21.2732    0.0000 C   0  0  0  0  0  0  0  0  0  0  0  0
   -6.7696  -22.5107    0.0000 C   0  0  0  0  0  0  0  0  0  0  0  0
   -8.1985  -22.5107    0.0000 C   0  0  0  0  0  0  0  0  0  0  0  0
   -8.1986  -24.1608    0.0000 O   0  0  0  0  0  0  0  0  0  0  0  0
   -7.4841  -23.7483    0.0000 C   0  0  0  0  0  0  0  0  0  0  0  0
  2  3  1  0
  3  4  1  0
  5  6  1  0
  6  7  1  0
 11  4  1  0
  4  5  2  0
  5  8  1  0
  8  9  2  0
  9 10  1  0
 10 11  2  0
  7 12  1  0
  2  7  2  0
 15  2  1  0
 12 13  2  0
 13 14  1  0
 14 15  2  0
  3 16  1  0
 16 17  1  0
 17 18  1  0
 18 19  1  0
 19 20  1  0
 19 21  1  0
 17 22  1  1
 14 23  1  0
 23 24  1  0
M  END
> <chembl_id>
CHEMBL2104973

> <chembl_pref_name>
LEVOMEPROMAZINE HYDROCHLORIDE
