
     RDKit          2D

 13 13  0  0  0  0  0  0  0  0999 V2000
    0.1167   -0.5000    0.0000 C   0  0  0  0  0  0  0  0  0  0  0  0
   -1.1333   -1.2000    0.0000 C   0  0  0  0  0  0  0  0  0  0  0  0
    1.3375   -1.2167    0.0000 C   0  0  0  0  0  0  0  0  0  0  0  0
   -2.3833   -0.4917    0.0000 C   0  0  0  0  0  0  0  0  0  0  0  0
    2.5917    0.8750    0.0000 N   0  0  0  0  0  0  0  0  0  0  0  0
    1.3167   -2.6625    0.0000 O   0  0  0  0  0  0  0  0  0  0  0  0
   -3.6458   -1.2125    0.0000 O   0  0  0  0  0  0  0  0  0  0  0  0
    0.1167    0.9083    0.0000 C   0  0  0  0  0  0  0  0  0  0  0  0
   -1.1208    1.6375    0.0000 C   0  0  0  0  0  0  0  0  0  0  0  0
    2.5750   -0.5167    0.0000 C   0  0  0  0  0  0  0  0  0  0  0  0
   -2.3750    0.9375    0.0000 C   0  0  0  0  0  0  0  0  0  0  0  0
    3.8792    1.5833    0.0000 C   0  0  0  0  0  0  0  0  0  0  0  0
    3.9125    3.0208    0.0000 C   0  0  0  0  0  0  0  0  0  0  0  0
  2  1  2  0
  3  1  1  0
  4  2  1  0
  5 10  1  0
  6  3  1  0
  7  4  1  0
  8  1  1  0
  9  8  2  0
 10  3  1  0
 11  9  1  0
 12  5  1  0
 13 12  1  0
  4 11  2  0
M  END
> <chembl_id>
CHEMBL86882

> <chembl_pref_name>
ETILEFRINE
