
     RDKit          2D

 40 39  0  0  1  0  0  0  0  0999 V2000
    0.9042    1.7875    0.0000 C   0  0  0  0  0  0  0  0  0  0  0  0
    0.8792   -1.6042    0.0000 C   0  0  0  0  0  0  0  0  0  0  0  0
    1.6167    1.4625    0.0000 C   0  0  0  0  0  0  0  0  0  0  0  0
    1.5792   -1.9292    0.0000 C   0  0  0  0  0  0  0  0  0  0  0  0
    0.1375   -1.9500    0.0000 N   0  0  0  0  0  0  0  0  0  0  0  0
    0.1750    1.4458    0.0000 N   0  0  0  0  0  0  0  0  0  0  0  0
   -3.5958    1.9958    0.0000 C   0  0  0  0  0  0  0  0  0  0  0  0
   -3.6208   -1.4000    0.0000 C   0  0  0  0  0  0  0  0  0  0  0  0
   -0.5083   -1.5000    0.0000 C   0  0  0  0  0  0  0  0  0  0  0  0
   -0.4833    1.8958    0.0000 C   0  0  0  0  0  0  0  0  0  0  0  0
    2.1417   -1.5792    0.0000 N   0  0  0  0  0  0  0  0  0  0  0  0
    2.1667    1.8125    0.0000 N   0  0  0  0  0  0  0  0  0  0  0  0
    3.4417   -1.5375    0.0000 C   0  0  0  0  0  0  0  0  0  0  0  0
    3.4667    1.8458    0.0000 C   0  0  0  0  0  0  0  0  0  0  0  0
    1.6167    0.4958    0.0000 O   0  0  0  0  0  0  0  0  0  0  0  0
    1.5792   -2.8917    0.0000 O   0  0  0  0  0  0  0  0  0  0  0  0
   -3.6083    2.9583    0.0000 O   0  0  0  0  0  0  0  0  0  0  0  0
   -3.6333   -0.4292    0.0000 O   0  0  0  0  0  0  0  0  0  0  0  0
   -2.9250    1.5000    0.0000 C   0  0  0  0  0  0  0  0  0  0  0  0
   -2.9500   -1.9000    0.0000 C   0  0  0  0  0  0  0  0  0  0  0  0
   -0.4833    2.7833    0.0000 O   0  0  0  0  0  0  0  0  0  0  0  0
   -0.5083   -0.6167    0.0000 O   0  0  0  0  0  0  0  0  0  0  0  0
    4.2792    1.4833    0.0000 O   0  0  0  0  0  0  0  0  0  0  0  0
    4.2542   -1.9167    0.0000 O   0  0  0  0  0  0  0  0  0  0  0  0
    1.3000    2.5875    0.0000 C   0  0  0  0  0  0  0  0  0  0  0  0
    1.0917   -0.7000    0.0000 C   0  0  0  0  0  0  0  0  0  0  0  0
    2.7917   -1.9500    0.0000 C   0  0  0  0  0  0  0  0  0  0  0  0
    2.8250    1.4458    0.0000 C   0  0  0  0  0  0  0  0  0  0  0  0
   -2.0750   -1.4000    0.0000 C   0  0  0  0  0  0  0  0  0  0  0  0
   -2.0458    1.9958    0.0000 C   0  0  0  0  0  0  0  0  0  0  0  0
    0.4042   -0.1667    0.0000 S   0  0  0  0  0  0  0  0  0  0  0  0
    0.9500    0.3833    0.0000 S   0  0  0  0  0  0  0  0  0  0  0  0
   -1.1708    1.5000    0.0000 C   0  0  0  0  0  0  0  0  0  0  0  0
   -1.1958   -1.9000    0.0000 C   0  0  0  0  0  0  0  0  0  0  0  0
   -4.2333   -1.7250    0.0000 O   0  0  0  0  0  0  0  0  0  0  0  0
   -4.2083    1.6708    0.0000 O   0  0  0  0  0  0  0  0  0  0  0  0
   -3.7208    0.8750    0.0000 N   0  0  0  0  0  0  0  0  0  0  0  0
   -3.7500   -2.5167    0.0000 N   0  0  0  0  0  0  0  0  0  0  0  0
    3.4417   -0.7375    0.0000 O   0  0  0  0  0  0  0  0  0  0  0  0
    3.4667    2.6583    0.0000 O   0  0  0  0  0  0  0  0  0  0  0  0
  2 26  1  1
  3  1  1  0
  4  2  1  0
  5  2  1  0
  1  6  1  1
  7 19  1  0
  8 20  1  0
  9  5  1  0
 10  6  1  0
 11  4  1  0
 12  3  1  0
 13 27  1  0
 14 28  1  0
 15  3  2  0
 16  4  2  0
 17  7  2  0
 18  8  2  0
 19 30  1  0
 20 29  1  0
 21 10  2  0
 22  9  2  0
 23 14  2  0
 24 13  2  0
  1 25  1  0
 26 31  1  0
 27 11  1  0
 28 12  1  0
 29 34  1  0
 30 33  1  0
 31 32  1  0
 32 25  1  0
 33 10  1  0
 34  9  1  0
 35  8  1  0
 36  7  1  0
 19 37  1  6
 20 38  1  6
 39 13  1  0
 40 14  1  0
M  END
> <chembl_id>
CHEMBL1372

> <chembl_pref_name>
OXIGLUTATIONE
