
     RDKit          2D

 26 28  0  0  0  0  0  0  0  0999 V2000
   -1.8708    0.7000    0.0000 C   0  0  0  0  0  0  0  0  0  0  0  0
   -0.4958    0.6458    0.0000 N   0  0  0  0  0  0  0  0  0  0  0  0
   -1.5208    0.0958    0.0000 C   0  0  0  0  0  0  0  0  0  0  0  0
   -1.4958    1.2375    0.0000 C   0  0  0  0  0  0  0  0  0  0  0  0
   -2.4708    0.3750    0.0000 C   0  0  0  0  0  0  0  0  0  0  0  0
    1.5292   -0.6000    0.0000 C   0  0  0  0  0  0  0  0  0  0  0  0
    2.2167   -0.6000    0.0000 C   0  0  0  0  0  0  0  0  0  0  0  0
    1.1792   -1.1792    0.0000 O   0  0  0  0  0  0  0  0  0  0  0  0
   -0.8333    1.2375    0.0000 C   0  0  0  0  0  0  0  0  0  0  0  0
   -0.8333    0.1000    0.0000 C   0  0  0  0  0  0  0  0  0  0  0  0
   -3.0458    0.7333    0.0000 C   0  0  0  0  0  0  0  0  0  0  0  0
   -2.4833   -0.2875    0.0000 C   0  0  0  0  0  0  0  0  0  0  0  0
    2.5667   -0.0167    0.0000 C   0  0  0  0  0  0  0  0  0  0  0  0
    2.5500   -1.1917    0.0000 C   0  0  0  0  0  0  0  0  0  0  0  0
   -2.1833    1.2500    0.0000 O   0  0  0  0  0  0  0  0  0  0  0  0
   -3.6708   -0.2917    0.0000 C   0  0  0  0  0  0  0  0  0  0  0  0
    3.5917   -0.6042    0.0000 C   0  0  0  0  0  0  0  0  0  0  0  0
   -3.6583    0.3958    0.0000 C   0  0  0  0  0  0  0  0  0  0  0  0
    3.2542   -0.0167    0.0000 C   0  0  0  0  0  0  0  0  0  0  0  0
    3.2417   -1.1917    0.0000 C   0  0  0  0  0  0  0  0  0  0  0  0
   -3.0833   -0.6292    0.0000 C   0  0  0  0  0  0  0  0  0  0  0  0
   -4.2208   -0.6042    0.0000 Br  0  0  0  0  0  0  0  0  0  0  0  0
    4.2667   -0.6125    0.0000 F   0  0  0  0  0  0  0  0  0  0  0  0
    0.2000    0.6458    0.0000 C   0  0  0  0  0  0  0  0  0  0  0  0
    0.5167    0.0125    0.0000 C   0  0  0  0  0  0  0  0  0  0  0  0
    1.2042    0.0083    0.0000 C   0  0  0  0  0  0  0  0  0  0  0  0
  2  9  1  0
  3  1  1  0
  4  1  1  0
  5  1  1  0
  6 26  1  0
  7  6  1  0
  8  6  2  0
  9  4  1  0
 10  3  1  0
 11  5  2  0
 12  5  1  0
 13  7  2  0
 14  7  1  0
 15  1  1  0
 16 21  1  0
 17 20  1  0
 18 11  1  0
 19 13  1  0
 20 14  2  0
 21 12  2  0
 22 16  1  0
 23 17  1  0
 24  2  1  0
 25 24  1  0
 26 25  1  0
 10  2  1  0
 18 16  2  0
 19 17  2  0
M  END
> <chembl_id>
CHEMBL28218

> <chembl_pref_name>
BROMPERIDOL
