
     RDKit          2D

 14 15  0  0  0  0  0  0  0  0999 V2000
    3.3042   -3.4542    0.0000 C   0  0  0  0  0  0  0  0  0  0  0  0
    4.3667   -4.0667    0.0000 C   0  0  0  0  0  0  0  0  0  0  0  0
    3.6500   -4.0667    0.0000 N   0  0  0  0  0  0  0  0  0  0  0  0
    3.5167   -2.7875    0.0000 N   0  0  0  0  0  0  0  0  0  0  0  0
    2.5917   -3.4542    0.0000 N   0  0  0  0  0  0  0  0  0  0  0  0
    4.7250   -3.4542    0.0000 C   0  0  0  0  0  0  0  0  0  0  0  0
    4.7250   -4.6875    0.0000 C   0  0  0  0  0  0  0  0  0  0  0  0
    4.3542   -5.3042    0.0000 Cl  0  0  0  0  0  0  0  0  0  0  0  0
    4.3667   -2.8292    0.0000 Cl  0  0  0  0  0  0  0  0  0  0  0  0
    2.9417   -2.3750    0.0000 C   0  0  0  0  0  0  0  0  0  0  0  0
    2.3750   -2.7792    0.0000 C   0  0  0  0  0  0  0  0  0  0  0  0
    5.7792   -4.0667    0.0000 C   0  0  0  0  0  0  0  0  0  0  0  0
    5.4375   -4.6875    0.0000 C   0  0  0  0  0  0  0  0  0  0  0  0
    5.4375   -3.4542    0.0000 C   0  0  0  0  0  0  0  0  0  0  0  0
  2  3  1  0
  3  1  1  0
  4  1  2  0
  5  1  1  0
  6  2  1  0
  7  2  2  0
  8  7  1  0
  9  6  1  0
 10  4  1  0
 11  5  1  0
 12 13  2  0
 13  7  1  0
 14  6  2  0
 10 11  1  0
 12 14  1  0
M  END
> <chembl_id>
CHEMBL134

> <chembl_pref_name>
CLONIDINE
