
     RDKit          2D

 22 21  0  0  0  0  0  0  0  0999 V2000
    1.9292   -7.7375    0.0000 Cl  0  0  0  0  0  0  0  0  0  0  0  0
    3.8917   -7.5750    0.0000 C   0  0  0  0  0  0  0  0  0  0  0  0
    3.8917   -8.2792    0.0000 C   0  0  0  0  0  0  0  0  0  0  0  0
    4.5292   -7.2250    0.0000 C   0  0  0  0  0  0  0  0  0  0  0  0
    3.2792   -7.2250    0.0000 C   0  0  0  0  0  0  0  0  0  0  0  0
    3.2792   -8.6292    0.0000 C   0  0  0  0  0  0  0  0  0  0  0  0
    4.5292   -6.5167    0.0000 O   0  0  0  0  0  0  0  0  0  0  0  0
    2.6750   -8.3000    0.0000 C   0  0  0  0  0  0  0  0  0  0  0  0
    5.1292   -7.5750    0.0000 O   0  0  0  0  0  0  0  0  0  0  0  0
    2.6750   -7.5750    0.0000 C   0  0  0  0  0  0  0  0  0  0  0  0
    4.5167   -8.6542    0.0000 O   0  0  0  0  0  0  0  0  0  0  0  0
    6.9792   -7.2417    0.0000 N   0  0  0  0  0  0  0  0  0  0  0  0
    2.0542   -8.6667    0.0000 N   0  0  0  0  0  0  0  0  0  0  0  0
    5.7500   -7.2250    0.0000 C   0  0  0  0  0  0  0  0  0  0  0  0
    6.3542   -7.5917    0.0000 C   0  0  0  0  0  0  0  0  0  0  0  0
    6.9792   -6.5375    0.0000 C   0  0  0  0  0  0  0  0  0  0  0  0
    7.5875   -7.5917    0.0000 C   0  0  0  0  0  0  0  0  0  0  0  0
    5.1292   -8.3000    0.0000 C   0  0  0  0  0  0  0  0  0  0  0  0
    5.7375   -8.6667    0.0000 C   0  0  0  0  0  0  0  0  0  0  0  0
    7.5875   -6.1792    0.0000 C   0  0  0  0  0  0  0  0  0  0  0  0
    8.1917   -7.2417    0.0000 C   0  0  0  0  0  0  0  0  0  0  0  0
    6.3542   -8.3167    0.0000 C   0  0  0  0  0  0  0  0  0  0  0  0
  3  2  1  0
  4  2  1  0
  5  2  2  0
  6  3  2  0
  7  4  2  0
  8 10  2  0
  9  4  1  0
 10  5  1  0
 11  3  1  0
 12 15  1  0
 13  8  1  0
 14  9  1  0
 15 14  1  0
 16 12  1  0
 17 12  1  0
 18 11  1  0
 19 18  1  0
 20 16  1  0
 21 17  1  0
 22 19  1  0
  8  6  1  0
M  END
> <chembl_id>
CHEMBL1769

> <chembl_pref_name>
PROPOXYCAINE HYDROCHLORIDE
