
     RDKit          2D

 18 19  0  0  0  0  0  0  0  0999 V2000
    0.4625    0.0625    0.0000 C   0  0  0  0  0  0  0  0  0  0  0  0
   -0.5125    0.6250    0.0000 C   0  0  0  0  0  0  0  0  0  0  0  0
    0.4625   -1.0417    0.0000 C   0  0  0  0  0  0  0  0  0  0  0  0
    1.4167    0.6250    0.0000 C   0  0  0  0  0  0  0  0  0  0  0  0
    1.4167   -1.6125    0.0000 C   0  0  0  0  0  0  0  0  0  0  0  0
   -1.4708    0.0625    0.0000 C   0  0  0  0  0  0  0  0  0  0  0  0
   -0.5125    1.7375    0.0000 O   0  0  0  0  0  0  0  0  0  0  0  0
   -1.4708   -1.0542    0.0000 C   0  0  0  0  0  0  0  0  0  0  0  0
   -2.4500    0.6083    0.0000 C   0  0  0  0  0  0  0  0  0  0  0  0
    2.3792   -1.0417    0.0000 C   0  0  0  0  0  0  0  0  0  0  0  0
   -0.5125   -1.6375    0.0000 O   0  0  0  0  0  0  0  0  0  0  0  0
    2.3792    0.0625    0.0000 C   0  0  0  0  0  0  0  0  0  0  0  0
   -2.4333   -1.6125    0.0000 C   0  0  0  0  0  0  0  0  0  0  0  0
   -3.3875    0.0458    0.0000 C   0  0  0  0  0  0  0  0  0  0  0  0
   -3.3875   -1.0917    0.0000 C   0  0  0  0  0  0  0  0  0  0  0  0
    3.3542   -1.6125    0.0000 O   0  0  0  0  0  0  0  0  0  0  0  0
   -4.3458   -1.6792    0.0000 C   0  0  0  0  0  0  0  0  0  0  0  0
    4.3417   -1.0667    0.0000 C   0  0  0  0  0  0  0  0  0  0  0  0
  2  1  1  0
  3  1  2  0
  4  1  1  0
  5  3  1  0
  6  2  1  0
  7  2  2  0
  8  6  1  0
  9  6  2  0
 10 12  1  0
 11  3  1  0
 12  4  2  0
 13  8  2  0
 14  9  1  0
 15 14  2  0
 16 10  1  0
 17 15  1  0
 18 16  1  0
  5 10  2  0
 13 15  1  0
M  END
> <chembl_id>
CHEMBL1898387

> <chembl_pref_name>
MEXENONE
