
     RDKit          2D

 16 17  0  0  0  0  0  0  0  0999 V2000
    0.9083   -3.1583    0.0000 C   0  0  0  0  0  0  0  0  0  0  0  0
    1.6167   -3.1542    0.0000 S   0  0  0  0  0  0  0  0  0  0  0  0
    0.4917   -3.7375    0.0000 N   0  0  0  0  0  0  0  0  0  0  0  0
    0.4875   -2.5875    0.0000 S   0  0  0  0  0  0  0  0  0  0  0  0
   -0.1875   -2.8125    0.0000 C   0  0  0  0  0  0  0  0  0  0  0  0
   -0.1833   -3.5208    0.0000 C   0  0  0  0  0  0  0  0  0  0  0  0
   -0.8000   -2.4583    0.0000 C   0  0  0  0  0  0  0  0  0  0  0  0
    2.2292   -2.7917    0.0000 O   0  0  0  0  0  0  0  0  0  0  0  0
    1.6125   -2.4417    0.0000 O   0  0  0  0  0  0  0  0  0  0  0  0
    1.9750   -3.7667    0.0000 N   0  0  0  0  0  0  0  0  0  0  0  0
   -0.8000   -3.8792    0.0000 C   0  0  0  0  0  0  0  0  0  0  0  0
   -1.4125   -2.8125    0.0000 C   0  0  0  0  0  0  0  0  0  0  0  0
   -1.4125   -3.5250    0.0000 C   0  0  0  0  0  0  0  0  0  0  0  0
   -2.0250   -2.4583    0.0000 O   0  0  0  0  0  0  0  0  0  0  0  0
   -2.6375   -2.8125    0.0000 C   0  0  0  0  0  0  0  0  0  0  0  0
   -3.2500   -2.4583    0.0000 C   0  0  0  0  0  0  0  0  0  0  0  0
  2  1  1  0
  3  1  2  0
  4  1  1  0
  5  4  1  0
  6  3  1  0
  7  5  2  0
  8  2  2  0
  9  2  2  0
 10  2  1  0
 11  6  2  0
 12  7  1  0
 13 11  1  0
 14 12  1  0
 15 14  1  0
 16 15  1  0
  6  5  1  0
 13 12  2  0
M  END
> <chembl_id>
CHEMBL18

> <chembl_pref_name>
ETHOXZOLAMIDE
