
     RDKit          2D

 38 38  0  0  0  0  0  0  0  0999 V2000
    9.0290  -18.2426    0.0000 C   0  0  0  0  0  0  0  0  0  0  0  0
    7.5865  -19.8878    0.0000 C   0  0  0  0  0  0  0  0  0  0  0  0
    8.3101  -18.6479    0.0000 C   0  0  0  0  0  0  0  0  0  0  0  0
    8.3053  -19.4729    0.0000 C   0  0  0  0  0  0  0  0  0  0  0  0
    9.0338  -17.4177    0.0000 O   0  0  0  0  0  0  0  0  0  0  0  0
    7.5865  -20.7127    0.0000 O   0  0  0  0  0  0  0  0  0  0  0  0
    9.7430  -18.6575    0.0000 O   0  0  0  0  0  0  0  0  0  0  0  0
    6.8773  -19.4680    0.0000 O   0  0  0  0  0  0  0  0  0  0  0  0
    2.3061  -21.2519    0.0000 C   0  0  0  0  0  0  0  0  0  0  0  0
    1.8526  -20.5861    0.0000 N   0  0  0  0  0  0  0  0  0  0  0  0
    1.8526  -21.8404    0.0000 N   0  0  0  0  0  0  0  0  0  0  0  0
    3.1552  -21.2519    0.0000 N   0  0  0  0  0  0  0  0  0  0  0  0
    1.0470  -21.6426    0.0000 C   0  0  0  0  0  0  0  0  0  0  0  0
    1.0470  -20.8177    0.0000 C   0  0  0  0  0  0  0  0  0  0  0  0
    5.0078  -21.2229    0.0000 N   0  0  0  0  0  0  0  0  0  0  0  0
    3.6522  -20.6006    0.0000 C   0  0  0  0  0  0  0  0  0  0  0  0
    4.4916  -20.6006    0.0000 C   0  0  0  0  0  0  0  0  0  0  0  0
    1.8526  -22.7860    0.0000 C   0  0  0  0  0  0  0  0  0  0  0  0
    4.1105  -22.3229    0.0000 C   0  0  0  0  0  0  0  0  0  0  0  0
    3.4206  -22.0141    0.0000 C   0  0  0  0  0  0  0  0  0  0  0  0
    4.8679  -21.9321    0.0000 C   0  0  0  0  0  0  0  0  0  0  0  0
    0.2895  -22.0190    0.0000 C   0  0  0  0  0  0  0  0  0  0  0  0
    0.2895  -20.3931    0.0000 C   0  0  0  0  0  0  0  0  0  0  0  0
    5.8521  -21.2229    0.0000 C   0  0  0  0  0  0  0  0  0  0  0  0
    3.2565  -22.7716    0.0000 O   0  0  0  0  0  0  0  0  0  0  0  0
    2.5522  -23.1864    0.0000 C   0  0  0  0  0  0  0  0  0  0  0  0
    3.9706  -23.1864    0.0000 C   0  0  0  0  0  0  0  0  0  0  0  0
   -0.4293  -21.6426    0.0000 C   0  0  0  0  0  0  0  0  0  0  0  0
   -0.4293  -20.8177    0.0000 C   0  0  0  0  0  0  0  0  0  0  0  0
    4.6653  -22.7716    0.0000 C   0  0  0  0  0  0  0  0  0  0  0  0
    9.8513  -21.5574    0.0000 C   0  0  0  0  0  0  0  0  0  0  0  0
    8.4088  -23.2025    0.0000 C   0  0  0  0  0  0  0  0  0  0  0  0
    9.1325  -21.9626    0.0000 C   0  0  0  0  0  0  0  0  0  0  0  0
    9.1276  -22.7876    0.0000 C   0  0  0  0  0  0  0  0  0  0  0  0
    9.8561  -20.7324    0.0000 O   0  0  0  0  0  0  0  0  0  0  0  0
    8.4088  -24.0275    0.0000 O   0  0  0  0  0  0  0  0  0  0  0  0
   10.5653  -21.9722    0.0000 O   0  0  0  0  0  0  0  0  0  0  0  0
    7.6996  -22.7828    0.0000 O   0  0  0  0  0  0  0  0  0  0  0  0
  2  4  1  0
  3  1  1  0
  4  3  2  0
  5  1  2  0
  6  2  2  0
  7  1  1  0
  8  2  1  0
 10  9  2  0
 11  9  1  0
 12  9  1  0
 13 11  1  0
 14 10  1  0
 15 17  1  0
 16 12  1  0
 17 16  1  0
 18 11  1  0
 19 20  1  0
 20 12  1  0
 21 19  1  0
 22 13  1  0
 23 14  1  0
 24 15  1  0
 25 26  1  0
 26 18  1  0
 27 25  1  0
 28 22  2  0
 29 23  2  0
 30 27  1  0
 13 14  2  0
 21 15  1  0
 28 29  1  0
 32 34  1  0
 33 31  1  0
 34 33  2  0
 35 31  2  0
 36 32  2  0
 37 31  1  0
 38 32  1  0
M  END
> <chembl_id>
CHEMBL2103739

> <chembl_pref_name>
EMEDASTINE DIFUMARATE
