
     RDKit          2D

 19 20  0  0  0  0  0  0  0  0999 V2000
    0.4167    1.1000    0.0000 C   0  0  0  0  0  0  0  0  0  0  0  0
    0.4167   -0.9000    0.0000 C   0  0  0  0  0  0  0  0  0  0  0  0
   -0.4583    0.6083    0.0000 C   0  0  0  0  0  0  0  0  0  0  0  0
   -0.4583   -0.4042    0.0000 C   0  0  0  0  0  0  0  0  0  0  0  0
    1.2917    0.6083    0.0000 C   0  0  0  0  0  0  0  0  0  0  0  0
    1.2917   -0.4042    0.0000 C   0  0  0  0  0  0  0  0  0  0  0  0
    0.4167    2.1000    0.0000 O   0  0  0  0  0  0  0  0  0  0  0  0
    0.4167   -1.9000    0.0000 O   0  0  0  0  0  0  0  0  0  0  0  0
   -0.4583    2.6083    0.0000 C   0  0  0  0  0  0  0  0  0  0  0  0
   -0.4583   -2.4042    0.0000 C   0  0  0  0  0  0  0  0  0  0  0  0
   -0.4583   -3.4042    0.0000 O   0  0  0  0  0  0  0  0  0  0  0  0
   -1.3250    2.1000    0.0000 O   0  0  0  0  0  0  0  0  0  0  0  0
   -1.3208    1.1000    0.0000 C   0  0  0  0  0  0  0  0  0  0  0  0
    2.1792    1.1000    0.0000 C   0  0  0  0  0  0  0  0  0  0  0  0
   -1.3208   -0.9000    0.0000 C   0  0  0  0  0  0  0  0  0  0  0  0
   -0.4458    3.5958    0.0000 C   0  0  0  0  0  0  0  0  0  0  0  0
   -1.3208   -1.9000    0.0000 C   0  0  0  0  0  0  0  0  0  0  0  0
   -2.1833    0.6083    0.0000 C   0  0  0  0  0  0  0  0  0  0  0  0
   -2.1833   -0.4042    0.0000 C   0  0  0  0  0  0  0  0  0  0  0  0
  2  6  2  0
  3  1  1  0
  4  3  2  0
  5  1  2  0
  6  5  1  0
  7  1  1  0
  8  2  1  0
  9  7  1  0
 10  8  1  0
 11 10  2  0
 12  9  2  0
 13  3  1  0
 14  5  1  0
 15  4  1  0
 16  9  1  0
 17 10  1  0
 18 13  2  0
 19 18  1  0
  4  2  1  0
 15 19  2  0
M  END
> <chembl_id>
CHEMBL1479848

> <chembl_pref_name>
ACETOMENAPHTHONE
