
     RDKit          2D

 30 33  0  0  0  0  0  0  0  0999 V2000
    0.0875    3.4833    0.0000 Cl  0  0  0  0  0  0  0  0  0  0  0  0
   -0.4625    0.9375    0.0000 C   0  0  0  0  0  0  0  0  0  0  0  0
   -0.7958    1.8625    0.0000 C   0  0  0  0  0  0  0  0  0  0  0  0
   -1.2333    0.3625    0.0000 N   0  0  0  0  0  0  0  0  0  0  0  0
    0.4667    0.7625    0.0000 C   0  0  0  0  0  0  0  0  0  0  0  0
    1.7167   -0.3042    0.0000 C   0  0  0  0  0  0  0  0  0  0  0  0
    1.1000    1.5000    0.0000 N   0  0  0  0  0  0  0  0  0  0  0  0
    2.0417   -1.2250    0.0000 C   0  0  0  0  0  0  0  0  0  0  0  0
    0.7667   -0.1167    0.0000 C   0  0  0  0  0  0  0  0  0  0  0  0
   -1.7583    1.8333    0.0000 C   0  0  0  0  0  0  0  0  0  0  0  0
   -2.0333    0.9125    0.0000 C   0  0  0  0  0  0  0  0  0  0  0  0
    2.3542    0.4208    0.0000 C   0  0  0  0  0  0  0  0  0  0  0  0
    1.4167   -1.9500    0.0000 C   0  0  0  0  0  0  0  0  0  0  0  0
    2.0417    1.3375    0.0000 C   0  0  0  0  0  0  0  0  0  0  0  0
   -0.1500    2.5958    0.0000 C   0  0  0  0  0  0  0  0  0  0  0  0
    0.7875    2.4125    0.0000 C   0  0  0  0  0  0  0  0  0  0  0  0
    3.0042   -1.4042    0.0000 C   0  0  0  0  0  0  0  0  0  0  0  0
    0.4792   -1.7625    0.0000 O   0  0  0  0  0  0  0  0  0  0  0  0
    3.3042    0.2458    0.0000 C   0  0  0  0  0  0  0  0  0  0  0  0
    3.6375   -0.6667    0.0000 C   0  0  0  0  0  0  0  0  0  0  0  0
    1.7375   -2.8667    0.0000 O   0  0  0  0  0  0  0  0  0  0  0  0
    3.3250   -2.3292    0.0000 O   0  0  0  0  0  0  0  0  0  0  0  0
   -2.4208    2.5458    0.0000 C   0  0  0  0  0  0  0  0  0  0  0  0
   -2.9708    0.7000    0.0000 C   0  0  0  0  0  0  0  0  0  0  0  0
    1.1167   -3.5917    0.0000 C   0  0  0  0  0  0  0  0  0  0  0  0
   -3.3708    2.3333    0.0000 C   0  0  0  0  0  0  0  0  0  0  0  0
   -3.6458    1.4000    0.0000 C   0  0  0  0  0  0  0  0  0  0  0  0
    1.0500   -1.0917    0.0000 H   0  0  0  0  0  0  0  0  0  0  0  0
    3.0167    1.1458    0.0000 H   0  0  0  0  0  0  0  0  0  0  0  0
   -0.0708    0.1250    0.0000 H   0  0  0  0  0  0  0  0  0  0  0  0
  3  2  2  0
  4  2  1  0
  5  2  1  0
  6  9  1  0
  7  5  1  0
  8  6  1  0
  9  5  1  0
 10  3  1  0
 11  4  1  0
 12  6  1  0
  8 13  1  6
 14  7  1  0
 15  3  1  0
 16  7  1  0
 17  8  1  0
 18 13  2  0
 19 12  1  0
 20 19  1  0
 21 13  1  0
 17 22  1  6
 23 10  2  0
 24 11  2  0
 25 21  1  0
 26 23  1  0
 27 24  1  0
  6 28  1  6
 12 29  1  1
  5 30  1  6
 10 11  1  0
 15 16  1  0
 14 12  1  0
 26 27  2  0
 17 20  1  0
M  END
> <chembl_id>
CHEMBL537669

> <chembl_pref_name>
YOHIMBINE HYDROCHLORIDE
