
     RDKit          2D

 20 22  0  0  0  0  0  0  0  0999 V2000
    4.9042   -3.5667    0.0000 N   0  0  0  0  0  0  0  0  0  0  0  0
    4.4167   -4.2375    0.0000 C   0  0  0  0  0  0  0  0  0  0  0  0
    4.4167   -2.9042    0.0000 C   0  0  0  0  0  0  0  0  0  0  0  0
    3.6292   -3.9792    0.0000 C   0  0  0  0  0  0  0  0  0  0  0  0
    3.6375   -3.1542    0.0000 C   0  0  0  0  0  0  0  0  0  0  0  0
    6.1375   -2.8542    0.0000 C   0  0  0  0  0  0  0  0  0  0  0  0
    6.9667   -2.8667    0.0000 N   0  0  0  0  0  0  0  0  0  0  0  0
    5.7292   -3.5750    0.0000 C   0  0  0  0  0  0  0  0  0  0  0  0
    7.3750   -3.5792    0.0000 C   0  0  0  0  0  0  0  0  0  0  0  0
    4.6750   -5.0250    0.0000 O   0  0  0  0  0  0  0  0  0  0  0  0
    4.6750   -2.1167    0.0000 O   0  0  0  0  0  0  0  0  0  0  0  0
    2.9167   -4.3917    0.0000 C   0  0  0  0  0  0  0  0  0  0  0  0
    6.1375   -4.2917    0.0000 C   0  0  0  0  0  0  0  0  0  0  0  0
    5.7250   -2.1417    0.0000 O   0  0  0  0  0  0  0  0  0  0  0  0
    8.2000   -3.5792    0.0000 O   0  0  0  0  0  0  0  0  0  0  0  0
    6.9542   -4.2917    0.0000 C   0  0  0  0  0  0  0  0  0  0  0  0
    2.9250   -2.7417    0.0000 C   0  0  0  0  0  0  0  0  0  0  0  0
    2.9042   -5.2167    0.0000 N   0  0  0  0  0  0  0  0  0  0  0  0
    2.2125   -3.1542    0.0000 C   0  0  0  0  0  0  0  0  0  0  0  0
    2.2042   -3.9792    0.0000 C   0  0  0  0  0  0  0  0  0  0  0  0
  2  1  1  0
  3  1  1  0
  4  2  1  0
  5  3  1  0
  6  8  1  0
  7  6  1  0
  8  1  1  0
  9 16  1  0
 10  2  2  0
 11  3  2  0
 12  4  2  0
 13  8  1  0
 14  6  2  0
 15  9  2  0
 16 13  1  0
 17  5  2  0
 18 12  1  0
 19 17  1  0
 20 12  1  0
  5  4  1  0
  9  7  1  0
 19 20  2  0
M  END
> <chembl_id>
CHEMBL43452

> <chembl_pref_name>
POMALIDOMIDE
