
     RDKit          2D

 12 12  0  0  0  0  0  0  0  0999 V2000
    5.8958  -18.3792    0.0000 N   0  0  0  0  0  0  0  0  0  0  0  0
    5.2792  -18.0250    0.0000 C   0  0  0  0  0  0  0  0  0  0  0  0
    4.6667  -18.3792    0.0000 C   0  0  0  0  0  0  0  0  0  0  0  0
    4.0542  -18.0250    0.0000 C   0  0  0  0  0  0  0  0  0  0  0  0
    3.4417  -18.3792    0.0000 O   0  0  0  0  0  0  0  0  0  0  0  0
    6.5083  -18.0208    0.0000 C   0  0  0  0  0  0  0  0  0  0  0  0
    6.2417  -18.9917    0.0000 C   0  0  0  0  0  0  0  0  0  0  0  0
    5.5375  -18.9917    0.0000 C   0  0  0  0  0  0  0  0  0  0  0  0
    5.2792  -17.3125    0.0000 C   0  0  0  0  0  0  0  0  0  0  0  0
    4.6667  -16.9583    0.0000 C   0  0  0  0  0  0  0  0  0  0  0  0
    4.0542  -17.3125    0.0000 C   0  0  0  0  0  0  0  0  0  0  0  0
    7.1208  -18.3750    0.0000 C   0  0  0  0  0  0  0  0  0  0  0  0
  2  1  1  0
  3  2  2  0
  4  3  1  0
  5  4  1  0
  6  1  1  0
  7  1  1  0
  8  1  1  0
  9  2  1  0
 10  9  2  0
 11 10  1  0
 12  6  1  0
  4 11  2  0
M  CHG  1   1   1
M  END
> <chembl_id>
CHEMBL1104

> <chembl_pref_name>
EDROPHONIUM
