
     RDKit          2D

 37 40  0  0  1  0  0  0  0  0999 V2000
   -0.8625   -1.5917    0.0000 C   0  0  0  0  0  0  0  0  0  0  0  0
    1.2917   -0.3167    0.0000 C   0  0  0  0  0  0  0  0  0  0  0  0
   -0.8625   -2.4375    0.0000 C   0  0  0  0  0  0  0  0  0  0  0  0
    2.0792   -0.0542    0.0000 C   0  0  0  0  0  0  0  0  0  0  0  0
   -0.1375   -1.1667    0.0000 C   0  0  0  0  0  0  0  0  0  0  0  0
    0.6000   -1.5917    0.0000 C   0  0  0  0  0  0  0  0  0  0  0  0
    1.3042   -1.1667    0.0000 C   0  0  0  0  0  0  0  0  0  0  0  0
   -1.5708   -1.1667    0.0000 C   0  0  0  0  0  0  0  0  0  0  0  0
    0.5667    0.1083    0.0000 C   0  0  0  0  0  0  0  0  0  0  0  0
   -0.1375   -0.3167    0.0000 C   0  0  0  0  0  0  0  0  0  0  0  0
    0.6000   -2.4375    0.0000 C   0  0  0  0  0  0  0  0  0  0  0  0
   -1.5708   -2.8667    0.0000 C   0  0  0  0  0  0  0  0  0  0  0  0
   -0.1375   -2.8667    0.0000 C   0  0  0  0  0  0  0  0  0  0  0  0
    2.3292    0.7750    0.0000 C   0  0  0  0  0  0  0  0  0  0  0  0
    2.5792   -0.7417    0.0000 C   0  0  0  0  0  0  0  0  0  0  0  0
    2.1000   -1.4167    0.0000 C   0  0  0  0  0  0  0  0  0  0  0  0
   -2.3000   -1.5917    0.0000 C   0  0  0  0  0  0  0  0  0  0  0  0
   -2.2833   -2.4375    0.0000 C   0  0  0  0  0  0  0  0  0  0  0  0
    1.6375    2.6875    0.0000 C   0  0  0  0  0  0  0  0  0  0  0  0
   -0.4625    2.7708    0.0000 C   0  0  0  0  0  0  0  0  0  0  0  0
    1.7667    1.3750    0.0000 C   0  0  0  0  0  0  0  0  0  0  0  0
    3.0667    1.1833    0.0000 O   0  0  0  0  0  0  0  0  0  0  0  0
    2.1667    2.0458    0.0000 O   0  0  0  0  0  0  0  0  0  0  0  0
    1.8542    3.5000    0.0000 O   0  0  0  0  0  0  0  0  0  0  0  0
   -0.6875    1.9583    0.0000 O   0  0  0  0  0  0  0  0  0  0  0  0
   -3.0250   -2.8792    0.0000 O   0  0  0  0  0  0  0  0  0  0  0  0
    2.9292    0.1083    0.0000 O   0  0  0  0  0  0  0  0  0  0  0  0
   -0.8458   -0.7042    0.0000 C   0  0  0  0  0  0  0  0  0  0  0  0
    1.3042    0.5250    0.0000 C   0  0  0  0  0  0  0  0  0  0  0  0
   -0.8625    0.1083    0.0000 O   0  0  0  0  0  0  0  0  0  0  0  0
    0.8542    2.4083    0.0000 C   0  0  0  0  0  0  0  0  0  0  0  0
    0.3167    3.0500    0.0000 C   0  0  0  0  0  0  0  0  0  0  0  0
   -1.0000    3.4083    0.0000 O   0  0  0  0  0  0  0  0  0  0  0  0
   -0.1375   -3.5917    0.0000 C   0  0  0  0  0  0  0  0  0  0  0  0
    0.6125   -0.8625    0.0000 H   0  0  0  0  0  0  0  0  0  0  0  0
    1.3292   -1.9542    0.0000 H   0  0  0  0  0  0  0  0  0  0  0  0
   -0.1375   -1.9417    0.0000 H   0  0  0  0  0  0  0  0  0  0  0  0
  2  9  1  0
  3  1  1  0
  4  2  1  0
  5  1  1  0
  6  5  1  0
  7  6  1  0
  8  1  1  0
  9 10  1  0
 10  5  1  0
 11  6  1  0
 12  3  2  0
 13  3  1  0
 14  4  1  0
 15 16  1  0
 16  7  1  0
 17  8  2  0
 18 17  1  0
 19 23  1  0
 20 32  1  0
 21 14  1  0
 22 14  2  0
 23 21  1  0
 24 19  2  0
 25 20  2  0
 26 18  2  0
  4 27  1  6
  1 28  1  1
  2 29  1  1
 10 30  1  1
 31 19  1  0
 32 31  1  0
 33 20  1  0
 13 34  1  6
  6 35  1  1
  7 36  1  6
  5 37  1  6
 13 11  1  0
 12 18  1  0
  7  2  1  0
  4 15  1  0
M  END
> <chembl_id>
CHEMBL1201265

> <chembl_pref_name>
METHYLPREDNISOLONE HEMISUCCINATE
