
     RDKit          2D

 33 35  0  0  1  0  0  0  0  0999 V2000
    6.5167   -5.1792    0.0000 C   0  0  0  0  0  0  0  0  0  0  0  0
    2.1917   -6.2417    0.0000 C   0  0  0  0  0  0  0  0  0  0  0  0
    2.8167   -5.8917    0.0000 C   0  0  0  0  0  0  0  0  0  0  0  0
    2.1917   -6.9542    0.0000 C   0  0  0  0  0  0  0  0  0  0  0  0
    2.8292   -7.3500    0.0000 N   0  0  0  0  0  0  0  0  0  0  0  0
    7.1250   -4.8375    0.0000 C   0  0  0  0  0  0  0  0  0  0  0  0
    6.5167   -5.9000    0.0000 C   0  0  0  0  0  0  0  0  0  0  0  0
    3.4417   -6.2042    0.0000 N   0  0  0  0  0  0  0  0  0  0  0  0
    4.0542   -5.8917    0.0000 C   0  0  0  0  0  0  0  0  0  0  0  0
    5.8917   -4.8125    0.0000 C   0  0  0  0  0  0  0  0  0  0  0  0
    5.9042   -6.2542    0.0000 C   0  0  0  0  0  0  0  0  0  0  0  0
    2.8167   -5.1792    0.0000 C   0  0  0  0  0  0  0  0  0  0  0  0
    7.1167   -4.1292    0.0000 O   0  0  0  0  0  0  0  0  0  0  0  0
    4.0542   -5.1792    0.0000 O   0  0  0  0  0  0  0  0  0  0  0  0
    5.2750   -5.9000    0.0000 C   0  0  0  0  0  0  0  0  0  0  0  0
    4.6625   -6.2417    0.0000 C   0  0  0  0  0  0  0  0  0  0  0  0
    5.2750   -5.1792    0.0000 C   0  0  0  0  0  0  0  0  0  0  0  0
    7.7292   -5.1875    0.0000 O   0  0  0  0  0  0  0  0  0  0  0  0
    7.1167   -6.2417    0.0000 O   0  0  0  0  0  0  0  0  0  0  0  0
    1.5667   -5.8792    0.0000 C   0  0  0  0  0  0  0  0  0  0  0  0
    2.8292   -8.0542    0.0000 C   0  0  0  0  0  0  0  0  0  0  0  0
    3.4542   -6.9542    0.0000 C   0  0  0  0  0  0  0  0  0  0  0  0
    1.5667   -7.3250    0.0000 C   0  0  0  0  0  0  0  0  0  0  0  0
    2.2042   -4.8375    0.0000 C   0  0  0  0  0  0  0  0  0  0  0  0
    7.7292   -5.9000    0.0000 C   0  0  0  0  0  0  0  0  0  0  0  0
    2.2042   -4.1292    0.0000 C   0  0  0  0  0  0  0  0  0  0  0  0
    1.5917   -5.1917    0.0000 C   0  0  0  0  0  0  0  0  0  0  0  0
    0.9542   -6.2417    0.0000 C   0  0  0  0  0  0  0  0  0  0  0  0
    3.4542   -8.4000    0.0000 C   0  0  0  0  0  0  0  0  0  0  0  0
    4.0667   -7.3375    0.0000 C   0  0  0  0  0  0  0  0  0  0  0  0
    0.9542   -6.9542    0.0000 C   0  0  0  0  0  0  0  0  0  0  0  0
    8.3417   -6.2417    0.0000 C   0  0  0  0  0  0  0  0  0  0  0  0
    4.0667   -8.0542    0.0000 C   0  0  0  0  0  0  0  0  0  0  0  0
  2  3  1  0
  3  8  1  0
  4  2  2  0
  5  4  1  0
  6  1  1  0
  7  1  2  0
  8  9  1  0
  9 16  1  0
 10  1  1  0
 11  7  1  0
  3 12  1  6
 13  6  2  0
 14  9  2  0
 15 17  1  0
 16 15  1  0
 17 10  2  0
 18  6  1  0
 19  7  1  0
 20  2  1  0
 21  5  1  0
 22  5  1  0
 23  4  1  0
 24 12  1  0
 25 19  1  0
 26 24  1  0
 27 24  1  0
 28 20  2  0
 29 21  1  0
 30 22  1  0
 31 28  1  0
 32 25  1  0
 33 30  1  0
 11 15  2  0
 31 23  2  0
 33 29  1  0
M  END
> <chembl_id>
CHEMBL1272

> <chembl_pref_name>
REPAGLINIDE
