
     RDKit          2D

 31 34  0  0  1  0  0  0  0  0999 V2000
    2.1125    0.7208    0.0000 N   0  0  0  0  0  0  0  0  0  0  0  0
    2.1125   -0.2167    0.0000 C   0  0  0  0  0  0  0  0  0  0  0  0
    1.1667    0.7208    0.0000 C   0  0  0  0  0  0  0  0  0  0  0  0
    1.1667   -0.2167    0.0000 C   0  0  0  0  0  0  0  0  0  0  0  0
   -2.3833   -1.0542    0.0000 C   0  0  0  0  0  0  0  0  0  0  0  0
   -1.4708   -1.2042    0.0000 C   0  0  0  0  0  0  0  0  0  0  0  0
    3.0042    1.0000    0.0000 C   0  0  0  0  0  0  0  0  0  0  0  0
    3.0042   -0.5042    0.0000 S   0  0  0  0  0  0  0  0  0  0  0  0
   -0.7958   -0.5875    0.0000 C   0  0  0  0  0  0  0  0  0  0  0  0
   -2.7958   -1.8542    0.0000 N   0  0  0  0  0  0  0  0  0  0  0  0
    3.5417    0.2333    0.0000 C   0  0  0  0  0  0  0  0  0  0  0  0
    0.2000   -0.9125    0.0000 N   0  0  0  0  0  0  0  0  0  0  0  0
   -2.7958   -0.2292    0.0000 C   0  0  0  0  0  0  0  0  0  0  0  0
   -2.1583   -2.5125    0.0000 O   0  0  0  0  0  0  0  0  0  0  0  0
   -1.3458   -2.1042    0.0000 C   0  0  0  0  0  0  0  0  0  0  0  0
    3.2917    1.8708    0.0000 C   0  0  0  0  0  0  0  0  0  0  0  0
    0.5167    1.3458    0.0000 O   0  0  0  0  0  0  0  0  0  0  0  0
   -2.3000    0.5500    0.0000 C   0  0  0  0  0  0  0  0  0  0  0  0
   -3.7000   -0.2292    0.0000 C   0  0  0  0  0  0  0  0  0  0  0  0
   -0.9833    0.3000    0.0000 O   0  0  0  0  0  0  0  0  0  0  0  0
    2.6542    2.5833    0.0000 O   0  0  0  0  0  0  0  0  0  0  0  0
    4.2000    2.0333    0.0000 O   0  0  0  0  0  0  0  0  0  0  0  0
   -1.4875    0.5458    0.0000 F   0  0  0  0  0  0  0  0  0  0  0  0
   -4.2250   -1.0792    0.0000 Cl  0  0  0  0  0  0  0  0  0  0  0  0
    4.3417    0.7208    0.0000 C   0  0  0  0  0  0  0  0  0  0  0  0
    4.3042   -0.3167    0.0000 C   0  0  0  0  0  0  0  0  0  0  0  0
   -0.6750   -2.6042    0.0000 C   0  0  0  0  0  0  0  0  0  0  0  0
   -3.6458    1.3583    0.0000 C   0  0  0  0  0  0  0  0  0  0  0  0
   -2.7458    1.3333    0.0000 C   0  0  0  0  0  0  0  0  0  0  0  0
   -4.1250    0.5750    0.0000 C   0  0  0  0  0  0  0  0  0  0  0  0
    2.1250   -1.1292    0.0000 H   0  0  0  0  0  0  0  0  0  0  0  0
  2  1  1  0
  3  1  1  0
  4  3  1  0
  5  6  1  0
  6  9  1  0
  7  1  1  0
  8  2  1  0
  9 12  1  0
 10  5  2  0
 11  7  1  0
  4 12  1  6
 13  5  1  0
 14 15  1  0
 15  6  2  0
  7 16  1  1
 17  3  2  0
 18 13  2  0
 19 13  1  0
 20  9  2  0
 21 16  2  0
 22 16  1  0
 23 18  1  0
 24 19  1  0
 25 11  1  0
 26 11  1  0
 27 15  1  0
 28 30  1  0
 29 18  1  0
 30 19  2  0
  2 31  1  1
  8 11  1  0
  2  4  1  0
 10 14  1  0
 29 28  2  0
M  END
> <chembl_id>
CHEMBL222645

> <chembl_pref_name>
FLOXACILLIN
