
     RDKit          2D

 24 26  0  0  0  0  0  0  0  0999 V2000
    4.6167   -4.1542    0.0000 Cl  0  0  0  0  0  0  0  0  0  0  0  0
    1.0500   -3.0417    0.0000 C   0  0  0  0  0  0  0  0  0  0  0  0
    0.3417   -3.0417    0.0000 N   0  0  0  0  0  0  0  0  0  0  0  0
    1.4875   -3.6000    0.0000 C   0  0  0  0  0  0  0  0  0  0  0  0
    1.4125   -2.4375    0.0000 N   0  0  0  0  0  0  0  0  0  0  0  0
    1.3292   -4.2917    0.0000 C   0  0  0  0  0  0  0  0  0  0  0  0
    0.6917   -4.6042    0.0000 O   0  0  0  0  0  0  0  0  0  0  0  0
   -0.1083   -3.6000    0.0000 C   0  0  0  0  0  0  0  0  0  0  0  0
    0.0542   -4.2917    0.0000 C   0  0  0  0  0  0  0  0  0  0  0  0
    2.1333   -1.2250    0.0000 N   0  0  0  0  0  0  0  0  0  0  0  0
    2.1667   -3.3917    0.0000 C   0  0  0  0  0  0  0  0  0  0  0  0
    1.0667   -1.8167    0.0000 C   0  0  0  0  0  0  0  0  0  0  0  0
    2.1167   -2.4500    0.0000 C   0  0  0  0  0  0  0  0  0  0  0  0
    1.8500   -4.7792    0.0000 C   0  0  0  0  0  0  0  0  0  0  0  0
    1.4250   -1.2167    0.0000 C   0  0  0  0  0  0  0  0  0  0  0  0
    2.4875   -1.8375    0.0000 C   0  0  0  0  0  0  0  0  0  0  0  0
    2.6875   -3.8750    0.0000 C   0  0  0  0  0  0  0  0  0  0  0  0
    2.5292   -4.5667    0.0000 C   0  0  0  0  0  0  0  0  0  0  0  0
    3.3667   -3.6667    0.0000 Cl  0  0  0  0  0  0  0  0  0  0  0  0
    2.5000   -0.6167    0.0000 C   0  0  0  0  0  0  0  0  0  0  0  0
   -0.7875   -3.3917    0.0000 C   0  0  0  0  0  0  0  0  0  0  0  0
   -0.4708   -4.7792    0.0000 C   0  0  0  0  0  0  0  0  0  0  0  0
   -1.3083   -3.8750    0.0000 C   0  0  0  0  0  0  0  0  0  0  0  0
   -1.1458   -4.5667    0.0000 C   0  0  0  0  0  0  0  0  0  0  0  0
  3  2  2  0
  4  2  1  0
  5  2  1  0
  6  4  2  0
  7  6  1  0
  8  3  1  0
  9  8  2  0
 10 16  1  0
 11  4  1  0
 12  5  1  0
 13  5  1  0
 14  6  1  0
 15 12  1  0
 16 13  1  0
 17 11  2  0
 18 17  1  0
 19 17  1  0
 20 10  1  0
 21  8  1  0
 22  9  1  0
 23 21  2  0
 24 23  1  0
 10 15  1  0
  9  7  1  0
 18 14  2  0
 24 22  2  0
M  END
> <chembl_id>
CHEMBL1201060

> <chembl_pref_name>
LOXAPINE HYDROCHLORIDE
