
     RDKit          2D

 39 41  0  0  0  0  0  0  0  0999 V2000
    2.4625   -5.9375    0.0000 Na  0  0  0  0  0 15  0  0  0  0  0  0
    2.2542   -8.7167    0.0000 N   0  0  0  0  0  0  0  0  0  0  0  0
    1.5500   -8.7125    0.0000 C   0  0  0  0  0  0  0  0  0  0  0  0
    1.5500   -8.0042    0.0000 C   0  0  0  0  0  0  0  0  0  0  0  0
    2.2583   -8.0083    0.0000 C   0  0  0  0  0  0  0  0  0  0  0  0
    2.8667   -9.0667    0.0000 C   0  0  0  0  0  0  0  0  0  0  0  0
    3.4792   -8.7167    0.0000 C   0  0  0  0  0  0  0  0  0  0  0  0
   -0.9083   -8.0125    0.0000 C   0  0  0  0  0  0  0  0  0  0  0  0
   -0.2958   -7.6542    0.0000 C   0  0  0  0  0  0  0  0  0  0  0  0
   -1.4833   -7.5917    0.0000 N   0  0  0  0  0  0  0  0  0  0  0  0
    0.9292   -7.6542    0.0000 N   0  0  0  0  0  0  0  0  0  0  0  0
    0.3167   -8.0083    0.0000 C   0  0  0  0  0  0  0  0  0  0  0  0
    2.8667   -7.6542    0.0000 S   0  0  0  0  0  0  0  0  0  0  0  0
   -0.2958   -6.9458    0.0000 N   0  0  0  0  0  0  0  0  0  0  0  0
   -2.0542   -8.0125    0.0000 C   0  0  0  0  0  0  0  0  0  0  0  0
    0.3125   -5.8833    0.0000 C   0  0  0  0  0  0  0  0  0  0  0  0
    4.7083   -8.7125    0.0000 N   0  0  0  0  0  0  0  0  0  0  0  0
    2.8667   -9.7792    0.0000 C   0  0  0  0  0  0  0  0  0  0  0  0
   -1.1292   -8.6833    0.0000 C   0  0  0  0  0  0  0  0  0  0  0  0
   -1.8375   -8.6833    0.0000 S   0  0  0  0  0  0  0  0  0  0  0  0
    0.9250   -5.5292    0.0000 C   0  0  0  0  0  0  0  0  0  0  0  0
    4.0958   -9.0667    0.0000 C   0  0  0  0  0  0  0  0  0  0  0  0
    3.4792   -8.0042    0.0000 C   0  0  0  0  0  0  0  0  0  0  0  0
    0.3167   -6.5917    0.0000 O   0  0  0  0  0  0  0  0  0  0  0  0
    1.0458   -9.2167    0.0000 O   0  0  0  0  0  0  0  0  0  0  0  0
    0.3208   -8.7167    0.0000 O   0  0  0  0  0  0  0  0  0  0  0  0
    3.4833  -10.1292    0.0000 O   0  0  0  0  0  0  0  0  0  0  0  0
    1.5417   -5.8792    0.0000 O   0  0  0  0  0  0  0  0  0  0  0  0
    2.2542  -10.1292    0.0000 O   0  0  0  0  0  0  0  0  0  0  0  0
    0.9250   -4.8167    0.0000 O   0  0  0  0  0  0  0  0  0  0  0  0
   -2.6708   -7.6542    0.0000 N   0  0  0  0  0  0  0  0  0  0  0  0
    4.7000   -8.0083    0.0000 C   0  0  0  0  0  0  0  0  0  0  0  0
    5.3167   -9.0708    0.0000 C   0  0  0  0  0  0  0  0  0  0  0  0
   -0.3958   -5.8792    0.0000 C   0  0  0  0  0  0  0  0  0  0  0  0
   -0.0458   -5.2667    0.0000 C   0  0  0  0  0  0  0  0  0  0  0  0
    5.3125   -7.6542    0.0000 C   0  0  0  0  0  0  0  0  0  0  0  0
    5.9292   -8.7167    0.0000 C   0  0  0  0  0  0  0  0  0  0  0  0
    5.9292   -8.0083    0.0000 C   0  0  0  0  0  0  0  0  0  0  0  0
    2.2542   -7.3000    0.0000 H   0  0  0  0  0  0  0  0  0  0  0  0
  3  2  1  0
  4  3  1  0
  5  2  1  0
  6  2  1  0
  7  6  2  0
  8  9  1  0
  9 12  1  0
 10  8  1  0
  4 11  1  1
 12 11  1  0
 13  5  1  0
 14  9  2  0
 15 10  2  0
 16 24  1  0
 17 22  1  0
 18  6  1  0
 19  8  2  0
 20 19  1  0
 21 16  1  0
 22  7  1  0
 23  7  1  0
 24 14  1  0
 25  3  2  0
 26 12  2  0
 27 18  1  0
 28 21  1  0
 29 18  2  0
 30 21  2  0
 31 15  1  0
 32 17  1  0
 33 17  2  0
 34 16  1  0
 35 16  1  0
 36 32  2  0
 37 33  1  0
 38 36  1  0
  5 39  1  6
  4  5  1  0
 13 23  1  0
 38 37  2  0
 20 15  1  0
M  CHG  4   1   1  17   1  27  -1  28  -1
M  END
> <chembl_id>
CHEMBL1200768

> <chembl_pref_name>
CEFTAZIDIME SODIUM
