
     RDKit          2D

 41 44  0  0  0  0  0  0  0  0999 V2000
   16.9331  -17.6987    0.0000 Cl  0  0  0  0  0  0  0  0  0  0  0  0
    8.3899  -16.1251    0.0000 C   0  0  0  0  0  0  0  0  0  0  0  0
    8.3887  -16.9500    0.0000 C   0  0  0  0  0  0  0  0  0  0  0  0
    9.0947  -17.3615    0.0000 C   0  0  0  0  0  0  0  0  0  0  0  0
    9.0927  -15.7137    0.0000 C   0  0  0  0  0  0  0  0  0  0  0  0
    9.8084  -16.1212    0.0000 C   0  0  0  0  0  0  0  0  0  0  0  0
    9.8121  -16.9520    0.0000 C   0  0  0  0  0  0  0  0  0  0  0  0
   10.5227  -17.3660    0.0000 C   0  0  0  0  0  0  0  0  0  0  0  0
   10.5244  -15.7043    0.0000 C   0  0  0  0  0  0  0  0  0  0  0  0
   11.2442  -16.1227    0.0000 C   0  0  0  0  0  0  0  0  0  0  0  0
   11.2395  -16.9502    0.0000 C   0  0  0  0  0  0  0  0  0  0  0  0
   11.9572  -17.3663    0.0000 C   0  0  0  0  0  0  0  0  0  0  0  0
   11.9580  -15.7129    0.0000 C   0  0  0  0  0  0  0  0  0  0  0  0
   10.5242  -14.8820    0.0000 O   0  0  0  0  0  0  0  0  0  0  0  0
   10.5230  -18.1882    0.0000 O   0  0  0  0  0  0  0  0  0  0  0  0
    9.0932  -18.1837    0.0000 O   0  0  0  0  0  0  0  0  0  0  0  0
    8.3803  -18.5936    0.0000 C   0  0  0  0  0  0  0  0  0  0  0  0
   11.9590  -14.8907    0.0000 O   0  0  0  0  0  0  0  0  0  0  0  0
   11.9535  -18.1885    0.0000 O   0  0  0  0  0  0  0  0  0  0  0  0
   12.6763  -16.1251    0.0000 C   0  0  0  0  0  0  0  0  0  0  0  0
   12.6671  -16.9566    0.0000 C   0  0  0  0  0  0  0  0  0  0  0  0
   13.3808  -17.3785    0.0000 C   0  0  0  0  0  0  0  0  0  0  0  0
   14.1037  -16.9645    0.0000 C   0  0  0  0  0  0  0  0  0  0  0  0
   14.1083  -16.1331    0.0000 C   0  0  0  0  0  0  0  0  0  0  0  0
   13.3901  -15.7112    0.0000 C   0  0  0  0  0  0  0  0  0  0  0  0
   14.8141  -16.5409    0.0000 O   0  0  0  0  0  0  0  0  0  0  0  0
   14.1255  -15.3111    0.0000 C   0  0  0  0  0  0  0  0  0  0  0  0
   14.8461  -14.9149    0.0000 C   0  0  0  0  0  0  0  0  0  0  0  0
   13.4221  -14.8852    0.0000 O   0  0  0  0  0  0  0  0  0  0  0  0
   15.5493  -15.3408    0.0000 O   0  0  0  0  0  0  0  0  0  0  0  0
   14.0726  -17.8182    0.0000 O   0  0  0  0  0  0  0  0  0  0  0  0
   14.0717  -18.6406    0.0000 C   0  0  0  0  0  0  0  0  0  0  0  0
   13.3596  -19.0455    0.0000 O   0  0  0  0  0  0  0  0  0  0  0  0
   13.3568  -19.8643    0.0000 C   0  0  0  0  0  0  0  0  0  0  0  0
   14.0645  -20.2808    0.0000 C   0  0  0  0  0  0  0  0  0  0  0  0
   14.7813  -19.8722    0.0000 C   0  0  0  0  0  0  0  0  0  0  0  0
   14.7858  -19.0472    0.0000 C   0  0  0  0  0  0  0  0  0  0  0  0
   12.6403  -20.2713    0.0000 C   0  0  0  0  0  0  0  0  0  0  0  0
   14.0605  -21.1031    0.0000 O   0  0  0  0  0  0  0  0  0  0  0  0
   15.4939  -20.2870    0.0000 N   0  0  0  0  0  0  0  0  0  0  0  0
   12.6672  -17.7788    0.0000 H   0  0  0  0  0  0  0  0  0  0  0  0
  8 11  1  0
 10  9  1  0
  6  5  2  0
 10 11  2  0
  5  2  1  0
 20 25  1  0
 21 22  1  0
 22 23  1  0
 23 24  1  0
 24 25  1  0
 11 12  1  0
 24 26  1  6
 12 21  2  0
 24 27  1  0
  6  7  1  0
 27 28  1  0
 20 13  2  0
 27 29  2  0
 13 10  1  0
 28 30  1  0
  2  3  2  0
 22 31  1  0
  9 14  2  0
 32 31  1  1
 32 33  1  0
  8 15  2  0
  3  4  1  0
  4 16  1  0
  4  7  2  0
 32 37  1  0
 33 34  1  0
 34 35  1  0
 35 36  1  0
 36 37  1  0
 16 17  1  0
 34 38  1  6
  6  9  1  0
 35 39  1  6
 13 18  1  0
 36 40  1  6
  7  8  1  0
 22 41  1  1
 12 19  1  0
 20 21  1  0
M  END
> <chembl_id>
CHEMBL359744

> <chembl_pref_name>
DOXORUBICIN HYDROCHLORIDE
