
     RDKit          2D

 46 45  0  0  0  0  0  0  0  0999 V2000
    5.4175   -1.9391    0.0000 N   0  0  0  0  0  0  0  0  0  0  0  0
    2.5537   -1.9391    0.0000 O   0  0  0  0  0  0  0  0  0  0  0  0
    3.9808   -1.9391    0.0000 C   0  0  0  0  0  0  0  0  0  0  0  0
    1.8426   -2.3599    0.0000 C   0  0  0  0  0  0  0  0  0  0  0  0
    4.7015   -2.3550    0.0000 C   0  0  0  0  0  0  0  0  0  0  0  0
    3.2697   -2.3550    0.0000 C   0  0  0  0  0  0  0  0  0  0  0  0
    0.4059   -3.1871    0.0000 C   0  0  0  0  0  0  0  0  0  0  0  0
    1.8426   -3.1871    0.0000 C   0  0  0  0  0  0  0  0  0  0  0  0
    1.1219   -1.9632    0.0000 C   0  0  0  0  0  0  0  0  0  0  0  0
    1.1219   -3.5886    0.0000 C   0  0  0  0  0  0  0  0  0  0  0  0
    0.4108   -2.3599    0.0000 C   0  0  0  0  0  0  0  0  0  0  0  0
    3.9808   -1.1264    0.0000 O   0  0  0  0  0  0  0  0  0  0  0  0
    6.1382   -2.3550    0.0000 C   0  0  0  0  0  0  0  0  0  0  0  0
   -1.7515   -3.5789    0.0000 O   0  0  0  0  0  0  0  0  0  0  0  0
   -0.3148   -3.5789    0.0000 C   0  0  0  0  0  0  0  0  0  0  0  0
   -1.0404   -3.1822    0.0000 C   0  0  0  0  0  0  0  0  0  0  0  0
   -2.4626   -3.1581    0.0000 C   0  0  0  0  0  0  0  0  0  0  0  0
    6.8638   -1.9391    0.0000 C   0  0  0  0  0  0  0  0  0  0  0  0
    6.1431   -3.1726    0.0000 C   0  0  0  0  0  0  0  0  0  0  0  0
    8.5767    0.3193    0.0000 C   0  0  0  0  0  0  0  0  0  0  0  0
   10.7148   -0.0919    0.0000 C   0  0  0  0  0  0  0  0  0  0  0  0
    8.5670    1.1465    0.0000 O   0  0  0  0  0  0  0  0  0  0  0  0
   10.7148   -0.9143    0.0000 O   0  0  0  0  0  0  0  0  0  0  0  0
    9.2878   -0.0919    0.0000 C   0  0  0  0  0  0  0  0  0  0  0  0
   10.0037    0.3289    0.0000 C   0  0  0  0  0  0  0  0  0  0  0  0
   11.4259    0.3289    0.0000 O   0  0  0  0  0  0  0  0  0  0  0  0
    7.8656   -0.0919    0.0000 O   0  0  0  0  0  0  0  0  0  0  0  0
    5.1857    0.8659    0.0000 N   0  0  0  0  0  0  0  0  0  0  0  0
    2.3219    0.8659    0.0000 O   0  0  0  0  0  0  0  0  0  0  0  0
    3.7490    0.8659    0.0000 C   0  0  0  0  0  0  0  0  0  0  0  0
    1.6108    0.4450    0.0000 C   0  0  0  0  0  0  0  0  0  0  0  0
    4.4697    0.4499    0.0000 C   0  0  0  0  0  0  0  0  0  0  0  0
    3.0379    0.4499    0.0000 C   0  0  0  0  0  0  0  0  0  0  0  0
    0.1741   -0.3822    0.0000 C   0  0  0  0  0  0  0  0  0  0  0  0
    1.6108   -0.3822    0.0000 C   0  0  0  0  0  0  0  0  0  0  0  0
    0.8901    0.8417    0.0000 C   0  0  0  0  0  0  0  0  0  0  0  0
    0.8901   -0.7837    0.0000 C   0  0  0  0  0  0  0  0  0  0  0  0
    0.1790    0.4450    0.0000 C   0  0  0  0  0  0  0  0  0  0  0  0
    3.7490    1.6785    0.0000 O   0  0  0  0  0  0  0  0  0  0  0  0
    5.9064    0.4499    0.0000 C   0  0  0  0  0  0  0  0  0  0  0  0
   -1.9833   -0.7740    0.0000 O   0  0  0  0  0  0  0  0  0  0  0  0
   -0.5466   -0.7740    0.0000 C   0  0  0  0  0  0  0  0  0  0  0  0
   -1.2722   -0.3773    0.0000 C   0  0  0  0  0  0  0  0  0  0  0  0
   -2.6944   -0.3532    0.0000 C   0  0  0  0  0  0  0  0  0  0  0  0
    6.6320    0.8659    0.0000 C   0  0  0  0  0  0  0  0  0  0  0  0
    5.9113   -0.3677    0.0000 C   0  0  0  0  0  0  0  0  0  0  0  0
  2  6  1  0
  3  5  1  0
  4  2  1  0
  5  1  1  0
  6  3  1  0
  7 11  2  0
  8  4  1  0
  9  4  2  0
 10  8  2  0
 11  9  1  0
 12  3  1  0
 13  1  1  0
 14 16  1  0
 15  7  1  0
 16 15  1  0
 17 14  1  0
 18 13  1  0
 19 13  1  0
  7 10  1  0
 21 25  1  0
 22 20  2  0
 23 21  2  0
 24 20  1  0
 25 24  1  0
 26 21  1  0
 27 20  1  0
 29 33  1  0
 30 32  1  0
 31 29  1  0
 32 28  1  0
 33 30  1  0
 34 38  2  0
 35 31  1  0
 36 31  2  0
 37 35  2  0
 38 36  1  0
 39 30  1  0
 40 28  1  0
 41 43  1  0
 42 34  1  0
 43 42  1  0
 44 41  1  0
 45 40  1  0
 46 40  1  0
 34 37  1  0
M  END
> <chembl_id>
CHEMBL2356097

> <chembl_pref_name>
METOPROLOL SUCCINATE
