
     RDKit          2D

 21 22  0  0  0  0  0  0  0  0999 V2000
    7.2292   -4.3292    0.0000 N   0  0  0  0  0  0  0  0  0  0  0  0
    6.6167   -3.9750    0.0000 C   0  0  0  0  0  0  0  0  0  0  0  0
    5.9917   -4.3292    0.0000 C   0  0  0  0  0  0  0  0  0  0  0  0
    7.2292   -5.0292    0.0000 C   0  0  0  0  0  0  0  0  0  0  0  0
    3.5375   -5.0250    0.0000 C   0  0  0  0  0  0  0  0  0  0  0  0
    4.1542   -5.3792    0.0000 C   0  0  0  0  0  0  0  0  0  0  0  0
    3.5375   -4.3292    0.0000 C   0  0  0  0  0  0  0  0  0  0  0  0
    6.6042   -5.3875    0.0000 N   0  0  0  0  0  0  0  0  0  0  0  0
    4.7750   -4.3292    0.0000 C   0  0  0  0  0  0  0  0  0  0  0  0
    5.3792   -3.9667    0.0000 C   0  0  0  0  0  0  0  0  0  0  0  0
    5.9917   -5.0292    0.0000 C   0  0  0  0  0  0  0  0  0  0  0  0
    4.1625   -3.9667    0.0000 C   0  0  0  0  0  0  0  0  0  0  0  0
    4.7792   -5.0250    0.0000 C   0  0  0  0  0  0  0  0  0  0  0  0
    6.6167   -3.2625    0.0000 N   0  0  0  0  0  0  0  0  0  0  0  0
    7.8417   -5.3875    0.0000 N   0  0  0  0  0  0  0  0  0  0  0  0
    2.9167   -5.3792    0.0000 O   0  0  0  0  0  0  0  0  0  0  0  0
    4.1625   -6.1000    0.0000 O   0  0  0  0  0  0  0  0  0  0  0  0
    2.9292   -3.9750    0.0000 O   0  0  0  0  0  0  0  0  0  0  0  0
    2.3042   -5.0167    0.0000 C   0  0  0  0  0  0  0  0  0  0  0  0
    2.9250   -3.2583    0.0000 C   0  0  0  0  0  0  0  0  0  0  0  0
    3.5500   -6.4542    0.0000 C   0  0  0  0  0  0  0  0  0  0  0  0
  2  1  2  0
  3  2  1  0
  4  1  1  0
  5  6  1  0
  6 13  2  0
  7 12  1  0
  8  4  2  0
  9 10  1  0
 10  3  1  0
 11  8  1  0
 12  9  2  0
 13  9  1  0
 14  2  1  0
 15  4  1  0
 16  5  1  0
 17  6  1  0
 18  7  1  0
 19 16  1  0
 20 18  1  0
 21 17  1  0
  3 11  2  0
  7  5  2  0
M  END
> <chembl_id>
CHEMBL22

> <chembl_pref_name>
TRIMETHOPRIM
