
     RDKit          2D

 23 23  0  0  0  0  0  0  0  0999 V2000
    5.1167   -5.2500    0.0000 Cl  0  0  0  0  0  0  0  0  0  0  0  0
    3.2292   -4.3792    0.0000 C   0  0  0  0  0  0  0  0  0  0  0  0
    3.9417   -4.0792    0.0000 C   0  0  0  0  0  0  0  0  0  0  0  0
    3.9625   -3.3750    0.0000 O   0  0  0  0  0  0  0  0  0  0  0  0
    2.8625   -3.7667    0.0000 C   0  0  0  0  0  0  0  0  0  0  0  0
    4.4750   -4.4542    0.0000 O   0  0  0  0  0  0  0  0  0  0  0  0
    6.2917   -4.1167    0.0000 N   0  0  0  0  0  0  0  0  0  0  0  0
    2.6167   -4.7417    0.0000 C   0  0  0  0  0  0  0  0  0  0  0  0
    3.8625   -4.7417    0.0000 C   0  0  0  0  0  0  0  0  0  0  0  0
    5.0917   -4.1042    0.0000 C   0  0  0  0  0  0  0  0  0  0  0  0
    5.6917   -4.4542    0.0000 C   0  0  0  0  0  0  0  0  0  0  0  0
    6.9000   -4.4792    0.0000 C   0  0  0  0  0  0  0  0  0  0  0  0
    6.2917   -3.4167    0.0000 C   0  0  0  0  0  0  0  0  0  0  0  0
    2.1542   -3.7625    0.0000 C   0  0  0  0  0  0  0  0  0  0  0  0
    3.2167   -3.1417    0.0000 C   0  0  0  0  0  0  0  0  0  0  0  0
    2.6167   -5.4542    0.0000 C   0  0  0  0  0  0  0  0  0  0  0  0
    3.8542   -5.4542    0.0000 C   0  0  0  0  0  0  0  0  0  0  0  0
    7.5167   -4.1500    0.0000 C   0  0  0  0  0  0  0  0  0  0  0  0
    5.6792   -3.0667    0.0000 C   0  0  0  0  0  0  0  0  0  0  0  0
    1.7917   -3.1417    0.0000 C   0  0  0  0  0  0  0  0  0  0  0  0
    2.8667   -2.5250    0.0000 C   0  0  0  0  0  0  0  0  0  0  0  0
    2.1417   -2.5250    0.0000 C   0  0  0  0  0  0  0  0  0  0  0  0
    3.2292   -5.8167    0.0000 C   0  0  0  0  0  0  0  0  0  0  0  0
  3  2  1  0
  4  3  2  0
  5  2  1  0
  6  3  1  0
  7 11  1  0
  8  2  1  0
  9  2  1  0
 10  6  1  0
 11 10  1  0
 12  7  1  0
 13  7  1  0
 14  5  1  0
 15  5  1  0
 16  8  1  0
 17  9  1  0
 18 12  1  0
 19 13  1  0
 20 14  1  0
 21 15  1  0
 22 20  1  0
 23 16  1  0
 23 17  1  0
 22 21  1  0
M  END
> <chembl_id>
CHEMBL1200479

> <chembl_pref_name>
DICYCLOMINE HYDROCHLORIDE
