
     RDKit          2D

 32 35  0  0  0  0  0  0  0  0999 V2000
    5.7121  -23.0671    0.0000 N   0  0  0  0  0  0  0  0  0  0  0  0
    4.8949  -23.0795    0.0000 C   0  0  0  0  0  0  0  0  0  0  0  0
    4.9031  -23.8967    0.0000 C   0  0  0  0  0  0  0  0  0  0  0  0
    5.7203  -23.8925    0.0000 C   0  0  0  0  0  0  0  0  0  0  0  0
    9.2409  -22.6296    0.0000 C   0  0  0  0  0  0  0  0  0  0  0  0
    6.4178  -22.6585    0.0000 C   0  0  0  0  0  0  0  0  0  0  0  0
    9.4844  -21.8537    0.0000 N   0  0  0  0  0  0  0  0  0  0  0  0
    9.9095  -23.1001    0.0000 N   0  0  0  0  0  0  0  0  0  0  0  0
   10.5657  -22.6172    0.0000 N   0  0  0  0  0  0  0  0  0  0  0  0
   10.3016  -21.8413    0.0000 N   0  0  0  0  0  0  0  0  0  0  0  0
    4.2015  -24.3135    0.0000 N   0  0  0  0  0  0  0  0  0  0  0  0
    6.4302  -24.2929    0.0000 S   0  0  0  0  0  0  0  0  0  0  0  0
    7.1236  -23.0547    0.0000 C   0  0  0  0  0  0  0  0  0  0  0  0
    3.4834  -23.9173    0.0000 C   0  0  0  0  0  0  0  0  0  0  0  0
    6.4055  -21.8413    0.0000 C   0  0  0  0  0  0  0  0  0  0  0  0
    8.5475  -23.0506    0.0000 S   0  0  0  0  0  0  0  0  0  0  0  0
    7.1360  -23.8719    0.0000 C   0  0  0  0  0  0  0  0  0  0  0  0
    2.7859  -24.3383    0.0000 C   0  0  0  0  0  0  0  0  0  0  0  0
    4.3130  -22.5099    0.0000 O   0  0  0  0  0  0  0  0  0  0  0  0
    7.8294  -22.6461    0.0000 C   0  0  0  0  0  0  0  0  0  0  0  0
    3.4793  -23.1001    0.0000 O   0  0  0  0  0  0  0  0  0  0  0  0
    5.6997  -21.4410    0.0000 O   0  0  0  0  0  0  0  0  0  0  0  0
    2.8024  -25.1472    0.0000 C   0  0  0  0  0  0  0  0  0  0  0  0
    8.9932  -21.1974    0.0000 C   0  0  0  0  0  0  0  0  0  0  0  0
    7.1112  -21.4203    0.0000 O   0  0  0  0  0  0  0  0  0  0  0  0
    2.0719  -23.9421    0.0000 O   0  0  0  0  0  0  0  0  0  0  0  0
    2.0966  -25.5682    0.0000 C   0  0  0  0  0  0  0  0  0  0  0  0
    3.5081  -25.5517    0.0000 C   0  0  0  0  0  0  0  0  0  0  0  0
    3.5288  -26.3689    0.0000 C   0  0  0  0  0  0  0  0  0  0  0  0
    2.1090  -26.3854    0.0000 C   0  0  0  0  0  0  0  0  0  0  0  0
    2.8230  -26.7898    0.0000 C   0  0  0  0  0  0  0  0  0  0  0  0
    5.7245  -24.7015    0.0000 H   0  0  0  0  0  0  0  0  0  0  0  0
  2  1  1  0
  3  4  1  0
  4  1  1  0
  5 16  1  0
  6  1  1  0
  7  5  1  0
  8  5  2  0
  9  8  1  0
 10  7  1  0
  3 11  1  6
 12  4  1  0
 13  6  2  0
 14 11  1  0
 15  6  1  0
 16 20  1  0
 17 13  1  0
 18 14  1  0
 19  2  2  0
 20 13  1  0
 21 14  2  0
 22 15  2  0
 23 18  1  0
 24  7  1  0
 25 15  1  0
 18 26  1  1
 27 23  2  0
 28 23  1  0
 29 28  2  0
 30 27  1  0
 31 29  1  0
  4 32  1  1
  2  3  1  0
 17 12  1  0
  9 10  2  0
 31 30  2  0
M  END
> <chembl_id>
CHEMBL1146

> <chembl_pref_name>
CEFAMANDOLE
