
     RDKit          2D

 11 11  0  0  0  0  0  0  0  0999 V2000
    4.4625   -3.9417    0.0000 C   0  0  0  0  0  0  0  0  0  0  0  0
    4.4625   -4.6542    0.0000 C   0  0  0  0  0  0  0  0  0  0  0  0
    5.0667   -3.5792    0.0000 S   0  0  0  0  0  0  0  0  0  0  0  0
    4.4625   -6.0667    0.0000 N   0  0  0  0  0  0  0  0  0  0  0  0
    5.0667   -5.0042    0.0000 C   0  0  0  0  0  0  0  0  0  0  0  0
    5.0667   -5.7167    0.0000 C   0  0  0  0  0  0  0  0  0  0  0  0
    3.8417   -3.5792    0.0000 N   0  0  0  0  0  0  0  0  0  0  0  0
    3.8417   -5.7167    0.0000 C   0  0  0  0  0  0  0  0  0  0  0  0
    3.8417   -5.0042    0.0000 C   0  0  0  0  0  0  0  0  0  0  0  0
    5.6875   -6.0667    0.0000 C   0  0  0  0  0  0  0  0  0  0  0  0
    6.3042   -5.7167    0.0000 C   0  0  0  0  0  0  0  0  0  0  0  0
  2  1  1  0
  3  1  2  0
  4  8  1  0
  5  2  2  0
  6  5  1  0
  7  1  1  0
  8  9  2  0
  9  2  1  0
 10  6  1  0
 11 10  1  0
  4  6  2  0
M  END
> <chembl_id>
CHEMBL1441

> <chembl_pref_name>
ETHIONAMIDE
