
     RDKit          2D

 37 38  0  0  0  0  0  0  0  0999 V2000
    6.2977   -5.7415    0.0000 O   0  0  0  0  0  0  0  0  0  0  0  0
    7.4091   -5.7715    0.0000 Na  0  0  0  0  0 15  0  0  0  0  0  0
    2.0555   -5.4828    0.0000 N   0  0  0  0  0  0  0  0  0  0  0  0
    2.8408   -5.7349    0.0000 C   0  0  0  0  0  0  0  0  0  0  0  0
    1.2265   -5.4828    0.0000 C   0  0  0  0  0  0  0  0  0  0  0  0
    3.3255   -5.0659    0.0000 C   0  0  0  0  0  0  0  0  0  0  0  0
    2.0506   -4.6587    0.0000 C   0  0  0  0  0  0  0  0  0  0  0  0
    1.2265   -4.6587    0.0000 C   0  0  0  0  0  0  0  0  0  0  0  0
    2.8359   -4.4017    0.0000 C   0  0  0  0  0  0  0  0  0  0  0  0
    2.8359   -6.5590    0.0000 C   0  0  0  0  0  0  0  0  0  0  0  0
    6.3263   -3.1171    0.0000 C   0  0  0  0  0  0  0  0  0  0  0  0
    4.1497   -5.0610    0.0000 S   0  0  0  0  0  0  0  0  0  0  0  0
    4.9350   -3.0637    0.0000 N   0  0  0  0  0  0  0  0  0  0  0  0
    5.6137   -3.5340    0.0000 C   0  0  0  0  0  0  0  0  0  0  0  0
    7.0389   -3.5194    0.0000 N   0  0  0  0  0  0  0  0  0  0  0  0
    9.8942   -3.5000    0.0000 C   0  0  0  0  0  0  0  0  0  0  0  0
    0.6448   -6.0694    0.0000 O   0  0  0  0  0  0  0  0  0  0  0  0
    9.1767   -3.0928    0.0000 C   0  0  0  0  0  0  0  0  0  0  0  0
    5.3761   -4.3242    0.0000 C   0  0  0  0  0  0  0  0  0  0  0  0
    4.5569   -4.3435    0.0000 C   0  0  0  0  0  0  0  0  0  0  0  0
    0.5090   -4.2466    0.0000 C   0  0  0  0  0  0  0  0  0  0  0  0
    3.5436   -6.9758    0.0000 O   0  0  0  0  0  0  0  0  0  0  0  0
    7.7515   -3.1026    0.0000 C   0  0  0  0  0  0  0  0  0  0  0  0
    8.4641   -3.5098    0.0000 C   0  0  0  0  0  0  0  0  0  0  0  0
    6.3166   -2.2929    0.0000 O   0  0  0  0  0  0  0  0  0  0  0  0
    2.1136   -6.9613    0.0000 O   0  0  0  0  0  0  0  0  0  0  0  0
    9.8990   -4.3242    0.0000 O   0  0  0  0  0  0  0  0  0  0  0  0
    4.2806   -3.5631    0.0000 C   0  0  0  0  0  0  0  0  0  0  0  0
   10.6019   -3.0831    0.0000 O   0  0  0  0  0  0  0  0  0  0  0  0
    3.0880   -3.6164    0.0000 C   0  0  0  0  0  0  0  0  0  0  0  0
    0.5041   -3.4225    0.0000 O   0  0  0  0  0  0  0  0  0  0  0  0
    9.1671   -2.2687    0.0000 C   0  0  0  0  0  0  0  0  0  0  0  0
    8.4447   -1.8615    0.0000 C   0  0  0  0  0  0  0  0  0  0  0  0
    7.7418   -2.2833    0.0000 C   0  0  0  0  0  0  0  0  0  0  0  0
   -0.2085   -4.6587    0.0000 C   0  0  0  0  0  0  0  0  0  0  0  0
    2.0409   -3.8297    0.0000 H   0  0  0  0  0  0  0  0  0  0  0  0
    1.2216   -3.8297    0.0000 H   0  0  0  0  0  0  0  0  0  0  0  0
  4  3  1  0
  5  3  1  0
  6  4  2  0
  7  3  1  0
  8  5  1  0
  9  7  1  0
 10  4  1  0
 14 11  1  6
 12  6  1  0
 13 28  1  0
 14 19  1  0
 15 11  1  0
 16 18  1  0
 17  5  2  0
 18 24  1  0
 19 20  1  0
 20 12  1  6
 21  8  1  0
 22 10  1  0
 23 15  1  0
 24 23  2  0
 25 11  2  0
 26 10  2  0
 27 16  2  0
 28 20  1  0
 29 16  1  0
  9 30  1  1
 21 31  1  1
 32 33  1  0
 33 34  2  0
 34 23  1  0
 35 21  1  0
  7 36  1  6
  8 37  1  1
  8  7  1  0
  9  6  1  0
 13 14  1  0
 32 18  2  0
M  CHG  2   2   1  22  -1
M  END
> <chembl_id>
CHEMBL5314359

> <chembl_pref_name>
ERTAPENEM SODIUM
