
     RDKit          2D

 75 82  0  0  1  0  0  0  0  0999 V2000
    2.6917   -2.9292    0.0000 N   0  0  0  0  0  0  0  0  0  0  0  0
    2.0917   -2.5792    0.0000 C   0  0  0  0  0  0  0  0  0  0  0  0
    1.4917   -1.5375    0.0000 N   0  0  0  0  0  0  0  0  0  0  0  0
    0.8875   -1.8875    0.0000 C   0  0  0  0  0  0  0  0  0  0  0  0
   -0.4208   -1.5375    0.0000 N   0  0  0  0  0  0  0  0  0  0  0  0
    2.0917   -1.8875    0.0000 C   0  0  0  0  0  0  0  0  0  0  0  0
    2.6917   -3.6167    0.0000 C   0  0  0  0  0  0  0  0  0  0  0  0
    1.4917   -3.6167    0.0000 N   0  0  0  0  0  0  0  0  0  0  0  0
   -1.5250   -3.9667    0.0000 C   0  0  0  0  0  0  0  0  0  0  0  0
   -1.0333   -1.8792    0.0000 C   0  0  0  0  0  0  0  0  0  0  0  0
    2.0917   -3.9667    0.0000 C   0  0  0  0  0  0  0  0  0  0  0  0
   -2.2125   -3.5667    0.0000 C   0  0  0  0  0  0  0  0  0  0  0  0
    0.2875   -3.6167    0.0000 C   0  0  0  0  0  0  0  0  0  0  0  0
   -2.1250   -5.0125    0.0000 C   0  0  0  0  0  0  0  0  0  0  0  0
   -2.2333   -1.8625    0.0000 N   0  0  0  0  0  0  0  0  0  0  0  0
   -1.5250   -4.6667    0.0000 N   0  0  0  0  0  0  0  0  0  0  0  0
    0.2792   -1.5375    0.0000 C   0  0  0  0  0  0  0  0  0  0  0  0
   -2.1333   -5.7042    0.0000 C   0  0  0  0  0  0  0  0  0  0  0  0
   -0.3208   -3.9667    0.0000 O   0  0  0  0  0  0  0  0  0  0  0  0
    3.2917   -2.5792    0.0000 C   0  0  0  0  0  0  0  0  0  0  0  0
    0.8875   -3.9667    0.0000 C   0  0  0  0  0  0  0  0  0  0  0  0
    3.2917   -3.9750    0.0000 C   0  0  0  0  0  0  0  0  0  0  0  0
    3.8917   -2.9292    0.0000 C   0  0  0  0  0  0  0  0  0  0  0  0
    3.8917   -3.6167    0.0000 C   0  0  0  0  0  0  0  0  0  0  0  0
   -1.6208   -1.5167    0.0000 C   0  0  0  0  0  0  0  0  0  0  0  0
   -0.9208   -3.6167    0.0000 C   0  0  0  0  0  0  0  0  0  0  0  0
    5.5250   -0.7167    0.0000 N   0  0  0  0  0  0  0  0  0  0  0  0
   -2.7333   -6.0542    0.0000 N   0  0  0  0  0  0  0  0  0  0  0  0
    4.9417   -1.6292    0.0000 C   0  0  0  0  0  0  0  0  0  0  0  0
    4.9417   -2.3250    0.0000 S   0  0  0  0  0  0  0  0  0  0  0  0
    1.4917   -2.9292    0.0000 O   0  0  0  0  0  0  0  0  0  0  0  0
    2.6917   -1.5292    0.0000 C   0  0  0  0  0  0  0  0  0  0  0  0
    0.8875   -2.5792    0.0000 O   0  0  0  0  0  0  0  0  0  0  0  0
    4.5917   -2.9292    0.0000 C   0  0  0  0  0  0  0  0  0  0  0  0
   -1.0375   -2.5750    0.0000 O   0  0  0  0  0  0  0  0  0  0  0  0
    4.8542   -1.0042    0.0000 C   0  0  0  0  0  0  0  0  0  0  0  0
   -2.8208   -3.9125    0.0000 O   0  0  0  0  0  0  0  0  0  0  0  0
    2.0917   -4.6667    0.0000 O   0  0  0  0  0  0  0  0  0  0  0  0
    0.2875   -2.9250    0.0000 O   0  0  0  0  0  0  0  0  0  0  0  0
   -1.5333   -6.0542    0.0000 C   0  0  0  0  0  0  0  0  0  0  0  0
   -2.7333   -4.6667    0.0000 O   0  0  0  0  0  0  0  0  0  0  0  0
    2.6917    0.5500    0.0000 C   0  0  0  0  0  0  0  0  0  0  0  0
    5.6417   -1.3292    0.0000 C   0  0  0  0  0  0  0  0  0  0  0  0
    2.6917    1.2458    0.0000 N   0  0  0  0  0  0  0  0  0  0  0  0
    4.5042   -3.9667    0.0000 O   0  0  0  0  0  0  0  0  0  0  0  0
    0.8875   -4.6667    0.0000 C   0  0  0  0  0  0  0  0  0  0  0  0
    3.3000    0.2000    0.0000 C   0  0  0  0  0  0  0  0  0  0  0  0
    2.0917    0.2000    0.0000 C   0  0  0  0  0  0  0  0  0  0  0  0
    6.2542   -1.6167    0.0000 C   0  0  0  0  0  0  0  0  0  0  0  0
    5.7542   -0.4750    0.0000 C   0  0  0  0  0  0  0  0  0  0  0  0
    6.1292   -0.9875    0.0000 C   0  0  0  0  0  0  0  0  0  0  0  0
    5.5500    0.0250    0.0000 C   0  0  0  0  0  0  0  0  0  0  0  0
   -0.6250   -0.8750    0.0000 C   0  0  0  0  0  0  0  0  0  0  0  0
    1.4917   -0.8417    0.0000 C   0  0  0  0  0  0  0  0  0  0  0  0
    2.6917   -0.8417    0.0000 C   0  0  0  0  0  0  0  0  0  0  0  0
    2.0917   -0.4917    0.0000 C   0  0  0  0  0  0  0  0  0  0  0  0
    3.3000   -0.4917    0.0000 C   0  0  0  0  0  0  0  0  0  0  0  0
    0.5000   -0.8792    0.0000 C   0  0  0  0  0  0  0  0  0  0  0  0
   -0.9250   -5.7000    0.0000 O   0  0  0  0  0  0  0  0  0  0  0  0
   -1.6125   -0.8250    0.0000 C   0  0  0  0  0  0  0  0  0  0  0  0
   -0.0625   -0.4667    0.0000 C   0  0  0  0  0  0  0  0  0  0  0  0
   -0.9208   -2.9250    0.0000 C   0  0  0  0  0  0  0  0  0  0  0  0
   -2.7333   -6.7500    0.0000 C   0  0  0  0  0  0  0  0  0  0  0  0
    2.0917    1.5958    0.0000 C   0  0  0  0  0  0  0  0  0  0  0  0
    3.2917    1.6000    0.0000 C   0  0  0  0  0  0  0  0  0  0  0  0
   -1.5250   -6.7500    0.0000 C   0  0  0  0  0  0  0  0  0  0  0  0
    1.4917   -5.0042    0.0000 C   0  0  0  0  0  0  0  0  0  0  0  0
    0.2792   -5.0042    0.0000 C   0  0  0  0  0  0  0  0  0  0  0  0
   -1.0083   -0.4917    0.0000 C   0  0  0  0  0  0  0  0  0  0  0  0
   -2.1333   -7.1000    0.0000 C   0  0  0  0  0  0  0  0  0  0  0  0
    0.2792   -5.7042    0.0000 C   0  0  0  0  0  0  0  0  0  0  0  0
    1.4917   -5.7042    0.0000 C   0  0  0  0  0  0  0  0  0  0  0  0
    0.8875   -6.0542    0.0000 C   0  0  0  0  0  0  0  0  0  0  0  0
    4.2417   -2.3167    0.0000 H   0  0  0  0  0  0  0  0  0  0  0  0
    0.2750   -2.2292    0.0000 H   0  0  0  0  0  0  0  0  0  0  0  0
  2  1  1  0
  3  6  1  0
  4  3  1  0
  5 17  1  0
  6  2  1  0
  7  1  1  0
  8 11  1  0
  9 26  1  0
 10  5  1  0
  7 11  1  1
 12  9  1  0
 13 21  1  0
 14 16  1  0
 15 25  1  0
  9 16  1  6
 17  4  1  0
 18 14  1  0
 19 13  1  0
 20  1  1  0
 21  8  1  0
 22  7  1  0
 23 20  1  0
 24 23  1  0
 25 10  1  0
 26 19  1  0
 27 36  1  0
 28 18  2  0
 29 30  1  6
 30 34  1  0
 31  2  2  0
  6 32  1  1
 33  4  2  0
 34 23  1  0
 35 10  2  0
 36 29  1  0
 37 12  2  0
 38 11  2  0
 39 13  2  0
 40 18  1  0
 41 14  2  0
 42 47  2  0
 43 29  1  0
 44 42  1  0
 45 24  2  0
 21 46  1  1
 47 57  1  0
 48 56  2  0
 49 43  1  0
 50 43  1  0
 51 49  1  0
 52 50  1  0
 53  5  1  0
 54  3  1  0
 55 32  1  0
 56 55  1  0
 57 55  2  0
 58 17  1  0
 59 40  1  0
 25 60  1  6
 61 58  1  0
 26 62  1  1
 63 28  1  0
 64 44  1  0
 65 44  1  0
 66 40  2  0
 67 46  1  0
 68 46  2  0
 69 60  1  0
 70 66  1  0
 71 68  1  0
 72 67  2  0
 73 71  2  0
 23 74  1  6
 17 75  1  6
 24 22  1  0
 42 48  1  0
 61 53  1  0
 52 27  1  0
 51 27  1  0
 73 72  1  0
 12 15  1  0
 70 63  2  0
M  END
> <chembl_id>
CHEMBL1200649

> <chembl_pref_name>
QUINUPRISTIN
