
     RDKit          2D

 28 27  0  0  0  0  0  0  0  0999 V2000
    3.2962   -3.7751    0.0000 Cl  0  0  0  0  0  0  0  0  0  0  0  0
   -2.4851   -2.5144    0.0000 C   0  0  0  0  0  0  0  0  0  0  0  0
   -2.4851   -3.3184    0.0000 C   0  0  0  0  0  0  0  0  0  0  0  0
   -1.7639   -2.1100    0.0000 C   0  0  0  0  0  0  0  0  0  0  0  0
   -1.7639   -3.7277    0.0000 C   0  0  0  0  0  0  0  0  0  0  0  0
   -1.0768   -2.5144    0.0000 C   0  0  0  0  0  0  0  0  0  0  0  0
   -3.1965   -2.1489    0.0000 O   0  0  0  0  0  0  0  0  0  0  0  0
   -1.0768   -3.3184    0.0000 C   0  0  0  0  0  0  0  0  0  0  0  0
    1.1256   -2.1635    0.0000 N   0  0  0  0  0  0  0  0  0  0  0  0
    6.3151   -2.5582    0.0000 N   0  0  0  0  0  0  0  0  0  0  0  0
   -3.2160   -3.6838    0.0000 O   0  0  0  0  0  0  0  0  0  0  0  0
    8.6005   -2.1100    0.0000 C   0  0  0  0  0  0  0  0  0  0  0  0
    0.3996   -2.5582    0.0000 C   0  0  0  0  0  0  0  0  0  0  0  0
    7.1241   -2.0953    0.0000 C   0  0  0  0  0  0  0  0  0  0  0  0
    1.8761   -2.5582    0.0000 C   0  0  0  0  0  0  0  0  0  0  0  0
    5.5599   -2.1489    0.0000 C   0  0  0  0  0  0  0  0  0  0  0  0
   -0.3362   -2.1635    0.0000 C   0  0  0  0  0  0  0  0  0  0  0  0
    7.8793   -2.5144    0.0000 C   0  0  0  0  0  0  0  0  0  0  0  0
    8.6005   -1.2864    0.0000 C   0  0  0  0  0  0  0  0  0  0  0  0
    9.3314   -2.4900    0.0000 C   0  0  0  0  0  0  0  0  0  0  0  0
    2.6216   -2.1635    0.0000 C   0  0  0  0  0  0  0  0  0  0  0  0
    4.7997   -2.5582    0.0000 C   0  0  0  0  0  0  0  0  0  0  0  0
    4.0931   -2.1635    0.0000 C   0  0  0  0  0  0  0  0  0  0  0  0
    3.3525   -2.5582    0.0000 C   0  0  0  0  0  0  0  0  0  0  0  0
    9.3314   -0.8625    0.0000 C   0  0  0  0  0  0  0  0  0  0  0  0
   10.0477   -2.0953    0.0000 C   0  0  0  0  0  0  0  0  0  0  0  0
   10.0477   -1.2718    0.0000 C   0  0  0  0  0  0  0  0  0  0  0  0
    5.5696   -4.0542    0.0000 Cl  0  0  0  0  0  0  0  0  0  0  0  0
  3  2  1  0
  4  2  2  0
  5  3  2  0
  6  4  1  0
  7  2  1  0
  8  6  2  0
  9 13  1  0
 10 16  1  0
 11  3  1  0
 12 18  1  0
 13 17  1  0
 14 10  1  0
 15  9  1  0
 16 22  1  0
 17  6  1  0
 18 14  1  0
 19 12  1  0
 20 12  2  0
 21 15  1  0
 22 23  1  0
 23 24  1  0
 24 21  1  0
 25 19  2  0
 26 20  1  0
 27 25  1  0
  8  5  1  0
 26 27  2  0
M  END
> <chembl_id>
CHEMBL3989581

> <chembl_pref_name>
DOPEXAMINE HYDROCHLORIDE
