
     RDKit          2D

 15 15  0  0  1  0  0  0  0  0999 V2000
    6.1500   -5.0042    0.0000 C   0  0  0  0  0  0  0  0  0  0  0  0
    6.7667   -4.6625    0.0000 C   0  0  0  0  0  0  0  0  0  0  0  0
    4.3167   -6.0667    0.0000 C   0  0  0  0  0  0  0  0  0  0  0  0
    5.5500   -4.6500    0.0000 C   0  0  0  0  0  0  0  0  0  0  0  0
    3.7042   -5.7125    0.0000 C   0  0  0  0  0  0  0  0  0  0  0  0
    4.9292   -5.7125    0.0000 C   0  0  0  0  0  0  0  0  0  0  0  0
    4.9292   -5.0000    0.0000 C   0  0  0  0  0  0  0  0  0  0  0  0
    6.7875   -3.9542    0.0000 O   0  0  0  0  0  0  0  0  0  0  0  0
    3.7042   -5.0000    0.0000 C   0  0  0  0  0  0  0  0  0  0  0  0
    6.4917   -5.6292    0.0000 N   0  0  0  0  0  0  0  0  0  0  0  0
    7.3667   -5.0375    0.0000 O   0  0  0  0  0  0  0  0  0  0  0  0
    4.3167   -4.6500    0.0000 C   0  0  0  0  0  0  0  0  0  0  0  0
    4.3167   -6.7750    0.0000 O   0  0  0  0  0  0  0  0  0  0  0  0
    3.0917   -6.0667    0.0000 O   0  0  0  0  0  0  0  0  0  0  0  0
    5.7875   -5.6167    0.0000 C   0  0  0  0  0  0  0  0  0  0  0  0
  2  1  1  0
  3  6  1  0
  4  1  1  0
  5  9  1  0
  6  7  2  0
  7  4  1  0
  8  2  2  0
  9 12  2  0
  1 10  1  1
 11  2  1  0
 12  7  1  0
 13  3  1  0
 14  5  1  0
 15  1  1  0
  5  3  2  0
M  END
> <chembl_id>
CHEMBL459

> <chembl_pref_name>
METHYLDOPA
