
     RDKit          2D

 34 38  0  0  0  0  0  0  0  0999 V2000
   -1.2661    6.1433    0.0000 C   0  0  0  0  0  0  0  0  0  0  0  0
   -0.4591    5.9718    0.0000 C   0  0  0  0  0  0  0  0  0  0  0  0
   -0.2042    5.1871    0.0000 C   0  0  0  0  0  0  0  0  0  0  0  0
   -1.5211    6.9279    0.0000 O   0  0  0  0  0  0  0  0  0  0  0  0
   -0.9862    3.1220    0.0000 N   0  0  0  0  0  0  0  0  0  0  0  0
    2.4267    3.9470    0.0000 C   0  0  0  0  0  0  0  0  0  0  0  0
    0.9978    3.9470    0.0000 C   0  0  0  0  0  0  0  0  0  0  0  0
   -0.5013    2.4545    0.0000 C   0  0  0  0  0  0  0  0  0  0  0  0
   -0.7562    1.6699    0.0000 C   0  0  0  0  0  0  0  0  0  0  0  0
    0.2833    2.7095    0.0000 C   0  0  0  0  0  0  0  0  0  0  0  0
    0.2833    3.5345    0.0000 C   0  0  0  0  0  0  0  0  0  0  0  0
    3.8557    3.9470    0.0000 C   0  0  0  0  0  0  0  0  0  0  0  0
   -2.3280    7.0994    0.0000 C   0  0  0  0  0  0  0  0  0  0  0  0
    3.8557    4.7720    0.0000 C   0  0  0  0  0  0  0  0  0  0  0  0
    4.5701    6.0095    0.0000 C   0  0  0  0  0  0  0  0  0  0  0  0
    5.2846    4.7720    0.0000 C   0  0  0  0  0  0  0  0  0  0  0  0
    5.9991    5.1845    0.0000 C   0  0  0  0  0  0  0  0  0  0  0  0
    2.4267    4.7720    0.0000 C   0  0  0  0  0  0  0  0  0  0  0  0
    1.7123    2.7095    0.0000 C   0  0  0  0  0  0  0  0  0  0  0  0
   -0.7562    4.5740    0.0000 C   0  0  0  0  0  0  0  0  0  0  0  0
   -1.5632    4.7456    0.0000 C   0  0  0  0  0  0  0  0  0  0  0  0
   -1.8181    5.5302    0.0000 C   0  0  0  0  0  0  0  0  0  0  0  0
   -0.5013    3.7894    0.0000 N   0  0  0  0  0  0  0  0  0  0  0  0
    1.7123    3.5345    0.0000 N   0  0  0  0  0  0  0  0  0  0  0  0
    3.1412    3.5345    0.0000 C   0  0  0  0  0  0  0  0  0  0  0  0
    4.5701    5.1845    0.0000 N   0  0  0  0  0  0  0  0  0  0  0  0
    3.1412    5.1845    0.0000 C   0  0  0  0  0  0  0  0  0  0  0  0
    0.9978    4.7720    0.0000 O   0  0  0  0  0  0  0  0  0  0  0  0
    5.9991    6.0095    0.0000 C   0  0  0  0  0  0  0  0  0  0  0  0
    3.8557    6.4220    0.0000 O   0  0  0  0  0  0  0  0  0  0  0  0
    5.2846    6.4220    0.0000 C   0  0  0  0  0  0  0  0  0  0  0  0
   -0.2042    1.0568    0.0000 O   0  0  0  0  0  0  0  0  0  0  0  0
   -1.5632    1.4984    0.0000 N   0  0  0  0  0  0  0  0  0  0  0  0
    0.9978    2.2970    0.0000 C   0  0  0  0  0  0  0  0  0  0  0  0
  1  2  1  0
  1  4  1  0
  1 22  2  0
  2  3  2  0
  3 20  1  0
 13  4  1  0
 23  5  1  0
  8  5  2  0
 25  6  2  0
 18  6  1  0
  6 24  1  0
  7 24  1  0
  7 28  2  0
 11  7  1  0
  8 10  1  0
  8  9  1  0
  9 32  2  0
  9 33  1  0
 10 34  1  0
 10 11  2  0
 11 23  1  0
 12 14  2  0
 12 25  1  0
 14 26  1  0
 14 27  1  0
 15 31  1  0
 15 30  2  0
 15 26  1  0
 16 17  1  0
 16 26  1  0
 17 29  1  0
 27 18  2  0
 19 24  1  0
 34 19  1  0
 20 23  1  0
 20 21  2  0
 21 22  1  0
 31 29  1  0
M  END
> <chembl_id>
CHEMBL231779

> <chembl_pref_name>
APIXABAN
