
     RDKit          2D

 30 31  0  0  0  0  0  0  0  0999 V2000
   32.3676   -2.6732    0.0000 Cl  0  0  0  0  0  0  0  0  0  0  0  0
   29.2621   -3.8373    0.0000 C   0  0  0  0  0  0  0  0  0  0  0  0
   28.9041   -4.5806    0.0000 C   0  0  0  0  0  0  0  0  0  0  0  0
   28.0998   -4.7642    0.0000 N   0  0  0  0  0  0  0  0  0  0  0  0
   28.0998   -2.9105    0.0000 S   0  0  0  0  0  0  0  0  0  0  0  0
   28.9041   -3.0940    0.0000 C   0  0  0  0  0  0  0  0  0  0  0  0
   27.4548   -4.2498    0.0000 C   0  0  0  0  0  0  0  0  0  0  0  0
   27.4548   -3.4248    0.0000 C   0  0  0  0  0  0  0  0  0  0  0  0
   30.0871   -3.8373    0.0000 O   0  0  0  0  0  0  0  0  0  0  0  0
   27.9162   -5.5685    0.0000 C   0  0  0  0  0  0  0  0  0  0  0  0
   29.4185   -2.4490    0.0000 C   0  0  0  0  0  0  0  0  0  0  0  0
   30.4996   -4.5518    0.0000 C   0  0  0  0  0  0  0  0  0  0  0  0
   29.4185   -5.2256    0.0000 O   0  0  0  0  0  0  0  0  0  0  0  0
   31.3246   -4.5518    0.0000 O   0  0  0  0  0  0  0  0  0  0  0  0
   29.1171   -1.6811    0.0000 C   0  0  0  0  0  0  0  0  0  0  0  0
   30.2343   -2.5720    0.0000 C   0  0  0  0  0  0  0  0  0  0  0  0
   27.1279   -5.8117    0.0000 C   0  0  0  0  0  0  0  0  0  0  0  0
   26.9443   -6.6160    0.0000 N   0  0  0  0  0  0  0  0  0  0  0  0
   30.4473   -1.1590    0.0000 C   0  0  0  0  0  0  0  0  0  0  0  0
   30.7487   -1.9270    0.0000 C   0  0  0  0  0  0  0  0  0  0  0  0
   29.6315   -1.0360    0.0000 C   0  0  0  0  0  0  0  0  0  0  0  0
   26.7403   -4.6623    0.0000 C   0  0  0  0  0  0  0  0  0  0  0  0
   30.9616   -0.5140    0.0000 O   0  0  0  0  0  0  0  0  0  0  0  0
   26.7403   -3.0123    0.0000 C   0  0  0  0  0  0  0  0  0  0  0  0
   30.0871   -5.2663    0.0000 C   0  0  0  0  0  0  0  0  0  0  0  0
   26.1560   -6.8592    0.0000 C   0  0  0  0  0  0  0  0  0  0  0  0
   27.5491   -7.1772    0.0000 C   0  0  0  0  0  0  0  0  0  0  0  0
   31.7774   -0.6369    0.0000 C   0  0  0  0  0  0  0  0  0  0  0  0
   26.0259   -4.2498    0.0000 C   0  0  0  0  0  0  0  0  0  0  0  0
   26.0259   -3.4248    0.0000 C   0  0  0  0  0  0  0  0  0  0  0  0
  2  3  1  0
  3  4  1  0
  2  6  1  0
  5  6  1  0
  4  7  1  0
  5  8  1  0
  7  8  2  0
  2  9  1  1
  4 10  1  0
  6 11  1  1
  9 12  1  0
  3 13  2  0
 12 14  2  0
 11 15  1  0
 11 16  2  0
 10 17  1  0
 17 18  1  0
 16 20  1  0
 19 20  2  0
 15 21  2  0
 19 21  1  0
  7 22  1  0
 19 23  1  0
  8 24  1  0
 12 25  1  0
 18 26  1  0
 18 27  1  0
 23 28  1  0
 22 29  2  0
 24 30  2  0
 29 30  1  0
M  END
> <chembl_id>
CHEMBL1697

> <chembl_pref_name>
DILTIAZEM HYDROCHLORIDE
