
     RDKit          2D

 17 18  0  0  0  0  0  0  0  0999 V2000
   -1.1625   -0.6667    0.0000 N   0  0  0  0  0  0  0  0  0  0  0  0
   -2.1333   -1.3625    0.0000 N   0  0  0  0  0  0  0  0  0  0  0  0
   -1.5083    0.4833    0.0000 C   0  0  0  0  0  0  0  0  0  0  0  0
   -3.1000   -0.6125    0.0000 C   0  0  0  0  0  0  0  0  0  0  0  0
   -2.7125    0.4958    0.0000 C   0  0  0  0  0  0  0  0  0  0  0  0
   -0.0375   -1.0542    0.0000 C   0  0  0  0  0  0  0  0  0  0  0  0
    0.8667   -0.2667    0.0000 C   0  0  0  0  0  0  0  0  0  0  0  0
    1.9792   -0.6542    0.0000 C   0  0  0  0  0  0  0  0  0  0  0  0
    2.8792    0.1250    0.0000 C   0  0  0  0  0  0  0  0  0  0  0  0
   -0.7958    1.4458    0.0000 O   0  0  0  0  0  0  0  0  0  0  0  0
    2.6542    1.3000    0.0000 C   0  0  0  0  0  0  0  0  0  0  0  0
    0.6250    0.9000    0.0000 C   0  0  0  0  0  0  0  0  0  0  0  0
    1.5250    1.6875    0.0000 C   0  0  0  0  0  0  0  0  0  0  0  0
   -4.1958   -0.9750    0.0000 N   0  0  0  0  0  0  0  0  0  0  0  0
    4.0167   -0.2667    0.0000 Cl  0  0  0  0  0  0  0  0  0  0  0  0
    3.5542    2.0875    0.0000 Cl  0  0  0  0  0  0  0  0  0  0  0  0
    0.1917   -2.2167    0.0000 C   0  0  0  0  0  0  0  0  0  0  0  0
  2  1  1  0
  3  1  1  0
  4  2  2  0
  5  3  1  0
  6  1  1  0
  7  6  1  0
  8  7  1  0
  9  8  2  0
 10  3  2  0
 11 13  2  0
 12  7  2  0
 13 12  1  0
 14  4  1  0
 15  9  1  0
 16 11  1  0
 17  6  1  0
  5  4  1  0
  9 11  1  0
M  END
> <chembl_id>
CHEMBL1697760

> <chembl_pref_name>
MUZOLIMINE
