
     RDKit          2D

 21 20  0  0  0  0  0  0  0  0999 V2000
    9.6125   -5.2500    0.0000 Na  0  0  0  0  0 15  0  0  0  0  0  0
    7.6625   -5.1792    0.0000 C   0  0  0  0  0  0  0  0  0  0  0  0
    7.0750   -4.1167    0.0000 C   0  0  0  0  0  0  0  0  0  0  0  0
    6.4500   -5.1750    0.0000 C   0  0  0  0  0  0  0  0  0  0  0  0
    7.6750   -4.4750    0.0000 C   0  0  0  0  0  0  0  0  0  0  0  0
    7.0500   -5.5292    0.0000 C   0  0  0  0  0  0  0  0  0  0  0  0
    6.4542   -4.4667    0.0000 C   0  0  0  0  0  0  0  0  0  0  0  0
    8.2792   -5.5500    0.0000 C   0  0  0  0  0  0  0  0  0  0  0  0
    7.0792   -3.4042    0.0000 N   0  0  0  0  0  0  0  0  0  0  0  0
    5.8292   -5.5167    0.0000 N   0  0  0  0  0  0  0  0  0  0  0  0
    6.4667   -3.0417    0.0000 C   0  0  0  0  0  0  0  0  0  0  0  0
    5.2125   -5.1542    0.0000 C   0  0  0  0  0  0  0  0  0  0  0  0
    8.9000   -5.2000    0.0000 O   0  0  0  0  0  0  0  0  0  0  0  0
    8.2750   -6.2542    0.0000 O   0  0  0  0  0  0  0  0  0  0  0  0
    7.0417   -6.2375    0.0000 I   0  0  0  0  0  0  0  0  0  0  0  0
    8.2917   -4.1250    0.0000 I   0  0  0  0  0  0  0  0  0  0  0  0
    5.8375   -4.1000    0.0000 I   0  0  0  0  0  0  0  0  0  0  0  0
    6.4667   -2.3292    0.0000 O   0  0  0  0  0  0  0  0  0  0  0  0
    4.5917   -5.5042    0.0000 O   0  0  0  0  0  0  0  0  0  0  0  0
    5.8417   -3.3917    0.0000 C   0  0  0  0  0  0  0  0  0  0  0  0
    5.2167   -4.4417    0.0000 C   0  0  0  0  0  0  0  0  0  0  0  0
  3  5  2  0
  4  6  1  0
  5  2  1  0
  6  2  2  0
  7  4  2  0
  8  2  1  0
  9  3  1  0
 10  4  1  0
 11  9  1  0
 12 10  1  0
 13  8  1  0
 14  8  2  0
 15  6  1  0
 16  5  1  0
 17  7  1  0
 18 11  2  0
 19 12  2  0
 20 11  1  0
 21 12  1  0
  7  3  1  0
M  CHG  2   1   1  13  -1
M  END
> <chembl_id>
CHEMBL1200581

> <chembl_pref_name>
DIATRIZOATE SODIUM
