
     RDKit          2D

 19 19  0  0  0  0  0  0  0  0999 V2000
    5.4544    0.0000    0.0000 Cl  0  0  0  0  0  0  0  0  0  0  0  0
    0.3572   -0.2063    0.0000 N   0  0  0  0  0  0  0  0  0  0  0  0
   -0.3572    0.2062    0.0000 C   0  0  0  0  0  0  0  0  0  0  0  0
    1.0717    0.2062    0.0000 C   0  0  0  0  0  0  0  0  0  0  0  0
   -1.0717   -0.2063    0.0000 C   0  0  0  0  0  0  0  0  0  0  0  0
    1.7862   -0.2063    0.0000 C   0  0  0  0  0  0  0  0  0  0  0  0
   -1.7862    0.2062    0.0000 C   0  0  0  0  0  0  0  0  0  0  0  0
    0.3572   -1.0313    0.0000 C   0  0  0  0  0  0  0  0  0  0  0  0
   -0.3572    1.0312    0.0000 C   0  0  0  0  0  0  0  0  0  0  0  0
    1.7862   -1.0313    0.0000 C   0  0  0  0  0  0  0  0  0  0  0  0
   -1.7862    1.0313    0.0000 C   0  0  0  0  0  0  0  0  0  0  0  0
   -2.5006   -0.2063    0.0000 C   0  0  0  0  0  0  0  0  0  0  0  0
    2.5006    0.2063    0.0000 C   0  0  0  0  0  0  0  0  0  0  0  0
    2.5006   -1.4438    0.0000 C   0  0  0  0  0  0  0  0  0  0  0  0
   -3.2151    0.2062    0.0000 C   0  0  0  0  0  0  0  0  0  0  0  0
   -2.5006    1.4438    0.0000 C   0  0  0  0  0  0  0  0  0  0  0  0
    3.2151   -0.2062    0.0000 C   0  0  0  0  0  0  0  0  0  0  0  0
    3.2151   -1.0312    0.0000 C   0  0  0  0  0  0  0  0  0  0  0  0
   -3.2151    1.0312    0.0000 C   0  0  0  0  0  0  0  0  0  0  0  0
  3  2  1  0
  4  2  1  0
  5  3  1  0
  6  4  1  0
  7  5  1  0
  8  2  1  0
  3  9  1  6
 10  6  2  0
 11  7  2  0
 12  7  1  0
 13  6  1  0
 14 10  1  0
 15 12  2  0
 16 11  1  0
 17 13  2  0
 18 14  2  0
 19 15  1  0
 17 18  1  0
 16 19  2  0
M  END
> <chembl_id>
CHEMBL3544906

> <chembl_pref_name>
BENZPHETAMINE HYDROCHLORIDE
