
     RDKit          2D

 23 24  0  0  0  0  0  0  0  0999 V2000
   -2.0833   -2.0292    0.0000 S   0  0  0  0  0  0  0  0  0  0  0  0
   -2.0625   -0.7792    0.0000 C   0  0  0  0  0  0  0  0  0  0  0  0
   -0.9958    1.0583    0.0000 C   0  0  0  0  0  0  0  0  0  0  0  0
    0.0667    1.6625    0.0000 C   0  0  0  0  0  0  0  0  0  0  0  0
    1.1417    1.0458    0.0000 N   0  0  0  0  0  0  0  0  0  0  0  0
   -1.0000   -0.1667    0.0000 C   0  0  0  0  0  0  0  0  0  0  0  0
   -3.1208   -0.1667    0.0000 C   0  0  0  0  0  0  0  0  0  0  0  0
   -2.0583    1.6750    0.0000 C   0  0  0  0  0  0  0  0  0  0  0  0
    2.1917    1.6583    0.0000 C   0  0  0  0  0  0  0  0  0  0  0  0
   -3.1250    1.0625    0.0000 C   0  0  0  0  0  0  0  0  0  0  0  0
   -3.3333   -2.0125    0.0000 O   0  0  0  0  0  0  0  0  0  0  0  0
   -0.8375   -2.0417    0.0000 O   0  0  0  0  0  0  0  0  0  0  0  0
   -2.1000   -3.2750    0.0000 N   0  0  0  0  0  0  0  0  0  0  0  0
    0.0792    2.8833    0.0000 O   0  0  0  0  0  0  0  0  0  0  0  0
    2.2125    2.8833    0.0000 C   0  0  0  0  0  0  0  0  0  0  0  0
    3.2625    1.0375    0.0000 C   0  0  0  0  0  0  0  0  0  0  0  0
   -4.1875   -0.7792    0.0000 Cl  0  0  0  0  0  0  0  0  0  0  0  0
   -2.0458    2.9208    0.0000 O   0  0  0  0  0  0  0  0  0  0  0  0
    4.3417    2.8750    0.0000 C   0  0  0  0  0  0  0  0  0  0  0  0
    4.3375    1.6500    0.0000 C   0  0  0  0  0  0  0  0  0  0  0  0
    3.2792    3.4958    0.0000 C   0  0  0  0  0  0  0  0  0  0  0  0
    3.2500   -0.2042    0.0000 C   0  0  0  0  0  0  0  0  0  0  0  0
    1.1292    3.5000    0.0000 C   0  0  0  0  0  0  0  0  0  0  0  0
  2  1  1  0
  3  6  2  0
  4  3  1  0
  5  4  1  0
  6  2  1  0
  7  2  2  0
  8 10  2  0
  9  5  1  0
 10  7  1  0
 11  1  2  0
 12  1  2  0
 13  1  1  0
 14  4  2  0
 15  9  2  0
 16  9  1  0
 17  7  1  0
 18  8  1  0
 19 20  1  0
 20 16  2  0
 21 15  1  0
 22 16  1  0
 23 15  1  0
  3  8  1  0
 21 19  2  0
M  END
> <chembl_id>
CHEMBL517199

> <chembl_pref_name>
XIPAMIDE
