
     RDKit          2D

 16 16  0  0  0  0  0  0  0  0999 V2000
    3.0417    0.9833    0.0000 C   0  0  0  0  0  0  0  0  0  0  0  0
    4.2167    0.9833    0.0000 O   0  0  0  0  0  0  0  0  0  0  0  0
    2.4167    1.8333    0.0000 N   0  0  0  0  0  0  0  0  0  0  0  0
    2.4875    0.0000    0.0000 C   0  0  0  0  0  0  0  0  0  0  0  0
    1.3000    0.0000    0.0000 C   0  0  0  0  0  0  0  0  0  0  0  0
   -0.9583    0.0000    0.0000 C   0  0  0  0  0  0  0  0  0  0  0  0
    0.7125    0.9833    0.0000 C   0  0  0  0  0  0  0  0  0  0  0  0
    0.7417   -0.9917    0.0000 C   0  0  0  0  0  0  0  0  0  0  0  0
    2.8792    2.7333    0.0000 O   0  0  0  0  0  0  0  0  0  0  0  0
   -0.4000    0.9833    0.0000 C   0  0  0  0  0  0  0  0  0  0  0  0
   -0.4000   -0.9917    0.0000 C   0  0  0  0  0  0  0  0  0  0  0  0
   -2.3083    0.0000    0.0000 O   0  0  0  0  0  0  0  0  0  0  0  0
   -2.6583   -0.9500    0.0000 C   0  0  0  0  0  0  0  0  0  0  0  0
   -3.7750   -0.9500    0.0000 C   0  0  0  0  0  0  0  0  0  0  0  0
   -4.3458   -1.9167    0.0000 C   0  0  0  0  0  0  0  0  0  0  0  0
   -3.8000   -2.9000    0.0000 C   0  0  0  0  0  0  0  0  0  0  0  0
  2  1  2  0
  3  1  1  0
  4  1  1  0
  5  4  1  0
  6 11  1  0
  7  5  2  0
  8  5  1  0
  9  3  1  0
 10  7  1  0
 11  8  2  0
 12  6  1  0
 13 12  1  0
 14 13  1  0
 15 14  1  0
 16 15  1  0
 10  6  2  0
M  END
> <chembl_id>
CHEMBL94394

> <chembl_pref_name>
BUFEXAMAC
