
     RDKit          2D

 15 14  0  0  0  0  0  0  0  0999 V2000
    1.6667   -2.1042    0.0000 C   0  0  0  0  0  0  0  0  0  0  0  0
    1.6667   -1.3917    0.0000 O   0  0  0  0  0  0  0  0  0  0  0  0
   -0.1708   -3.1667    0.0000 O   0  0  0  0  0  0  0  0  0  0  0  0
   -0.1708   -2.4625    0.0000 C   0  0  0  0  0  0  0  0  0  0  0  0
    1.0542   -2.4625    0.0000 C   0  0  0  0  0  0  0  0  0  0  0  0
    0.4417   -2.1042    0.0000 C   0  0  0  0  0  0  0  0  0  0  0  0
    2.2792   -2.4625    0.0000 O   0  0  0  0  0  0  0  0  0  0  0  0
   -1.4000   -2.4542    0.0000 N   0  0  0  0  0  0  0  0  0  0  0  0
   -0.7875   -2.1042    0.0000 C   0  0  0  0  0  0  0  0  0  0  0  0
    2.8917   -2.1042    0.0000 C   0  0  0  0  0  0  0  0  0  0  0  0
    3.5042   -2.4625    0.0000 C   0  0  0  0  0  0  0  0  0  0  0  0
    2.2667   -3.1417    0.0000 C   0  0  0  0  0  0  0  0  0  0  0  0
    2.8667   -3.5125    0.0000 C   0  0  0  0  0  0  0  0  0  0  0  0
    3.4917   -3.1667    0.0000 C   0  0  0  0  0  0  0  0  0  0  0  0
    1.6417   -3.4917    0.0000 C   0  0  0  0  0  0  0  0  0  0  0  0
  2  1  2  0
  3  4  2  0
  4  6  1  0
  5  1  1  0
  6  5  1  0
  7  1  1  0
  8  9  1  0
  9  4  1  0
 10  7  1  0
 11 10  1  0
 12 13  1  0
 13 14  1  0
 14 11  1  0
 15 12  1  0
M  END
> <chembl_id>
CHEMBL1201784

> <chembl_pref_name>
HEXAMINOLEVULINATE
