
     RDKit          2D

 34 34  0  0  0  0  0  0  0  0999 V2000
    2.2042   -1.9625    0.0000 C   0  0  0  0  0  0  0  0  0  0  0  0
    3.4292   -1.9625    0.0000 C   0  0  0  0  0  0  0  0  0  0  0  0
    2.8167   -0.8917    0.0000 C   0  0  0  0  0  0  0  0  0  0  0  0
    2.2042   -1.2500    0.0000 C   0  0  0  0  0  0  0  0  0  0  0  0
    2.8167   -2.3167    0.0000 C   0  0  0  0  0  0  0  0  0  0  0  0
    3.4292   -1.2500    0.0000 C   0  0  0  0  0  0  0  0  0  0  0  0
    1.5917   -2.3167    0.0000 N   0  0  0  0  0  0  0  0  0  0  0  0
    4.0500   -2.3167    0.0000 C   0  0  0  0  0  0  0  0  0  0  0  0
    2.8167   -0.1875    0.0000 C   0  0  0  0  0  0  0  0  0  0  0  0
    1.5917   -3.0250    0.0000 C   0  0  0  0  0  0  0  0  0  0  0  0
    3.4292    0.1708    0.0000 N   0  0  0  0  0  0  0  0  0  0  0  0
    4.6625   -1.9542    0.0000 N   0  0  0  0  0  0  0  0  0  0  0  0
    0.9792   -1.9625    0.0000 C   0  0  0  0  0  0  0  0  0  0  0  0
    2.2042    0.1625    0.0000 O   0  0  0  0  0  0  0  0  0  0  0  0
    4.0500   -3.0250    0.0000 O   0  0  0  0  0  0  0  0  0  0  0  0
    2.2042   -3.3792    0.0000 O   0  0  0  0  0  0  0  0  0  0  0  0
    4.0417   -0.8917    0.0000 I   0  0  0  0  0  0  0  0  0  0  0  0
    2.8250   -3.0250    0.0000 I   0  0  0  0  0  0  0  0  0  0  0  0
    1.5917   -0.8917    0.0000 I   0  0  0  0  0  0  0  0  0  0  0  0
    0.3667   -2.3167    0.0000 C   0  0  0  0  0  0  0  0  0  0  0  0
    5.2750   -2.3125    0.0000 C   0  0  0  0  0  0  0  0  0  0  0  0
    4.0417   -0.1875    0.0000 C   0  0  0  0  0  0  0  0  0  0  0  0
    5.8875   -1.9542    0.0000 C   0  0  0  0  0  0  0  0  0  0  0  0
    4.6542    0.1708    0.0000 C   0  0  0  0  0  0  0  0  0  0  0  0
    0.3667   -3.0250    0.0000 O   0  0  0  0  0  0  0  0  0  0  0  0
    4.6542    0.8750    0.0000 O   0  0  0  0  0  0  0  0  0  0  0  0
    5.8875   -1.2417    0.0000 O   0  0  0  0  0  0  0  0  0  0  0  0
    0.9792   -3.3792    0.0000 C   0  0  0  0  0  0  0  0  0  0  0  0
    5.8875    0.1708    0.0000 O   0  0  0  0  0  0  0  0  0  0  0  0
    7.1167   -1.9500    0.0000 O   0  0  0  0  0  0  0  0  0  0  0  0
   -0.8583   -2.3167    0.0000 O   0  0  0  0  0  0  0  0  0  0  0  0
   -0.2458   -1.9625    0.0000 C   0  0  0  0  0  0  0  0  0  0  0  0
    6.5042   -2.3042    0.0000 C   0  0  0  0  0  0  0  0  0  0  0  0
    5.2750   -0.1792    0.0000 C   0  0  0  0  0  0  0  0  0  0  0  0
  2  5  2  0
  3  4  1  0
  4  1  2  0
  5  1  1  0
  6  2  1  0
  7  1  1  0
  8  2  1  0
  9  3  1  0
 10  7  1  0
 11  9  1  0
 12  8  1  0
 13  7  1  0
 14  9  2  0
 15  8  2  0
 16 10  2  0
 17  6  1  0
 18  5  1  0
 19  4  1  0
 20 13  1  0
 21 12  1  0
 22 11  1  0
 23 21  1  0
 24 22  1  0
 25 20  1  0
 26 24  1  0
 27 23  1  0
 28 10  1  0
 29 34  1  0
 30 33  1  0
 31 32  1  0
 32 20  1  0
 33 23  1  0
 34 24  1  0
  6  3  2  0
M  END
> <chembl_id>
CHEMBL1200455

> <chembl_pref_name>
IOHEXOL
