
     RDKit          2D

 19 17  0  0  0  0  0  0  0  0999 V2000
    1.1250   -1.6792    0.0000 O   0  0  0  0  0  0  0  0  0  0  0  0
   -1.0208    0.4875    0.0000 C   0  0  0  0  0  0  0  0  0  0  0  0
   -0.4083    0.8458    0.0000 N   0  0  0  0  0  0  0  0  0  0  0  0
    0.2000    0.5000    0.0000 C   0  0  0  0  0  0  0  0  0  0  0  0
   -1.6458    0.8375    0.0000 C   0  0  0  0  0  0  0  0  0  0  0  0
   -1.0208   -0.2167    0.0000 C   0  0  0  0  0  0  0  0  0  0  0  0
    0.2042   -0.2125    0.0000 O   0  0  0  0  0  0  0  0  0  0  0  0
    0.8167    0.8458    0.0000 C   0  0  0  0  0  0  0  0  0  0  0  0
    1.4375    0.5000    0.0000 N   0  0  0  0  0  0  0  0  0  0  0  0
   -2.2583   -0.2167    0.0000 C   0  0  0  0  0  0  0  0  0  0  0  0
   -1.6375   -0.5750    0.0000 C   0  0  0  0  0  0  0  0  0  0  0  0
   -2.2583    0.4833    0.0000 C   0  0  0  0  0  0  0  0  0  0  0  0
   -0.4000   -0.5667    0.0000 C   0  0  0  0  0  0  0  0  0  0  0  0
   -1.6458    1.5583    0.0000 C   0  0  0  0  0  0  0  0  0  0  0  0
    2.0542    0.8458    0.0000 C   0  0  0  0  0  0  0  0  0  0  0  0
    1.4417   -0.2167    0.0000 C   0  0  0  0  0  0  0  0  0  0  0  0
    2.6667    0.4875    0.0000 C   0  0  0  0  0  0  0  0  0  0  0  0
    2.0542   -0.5750    0.0000 C   0  0  0  0  0  0  0  0  0  0  0  0
    0.0292   -1.6792    0.0000 Cl  0  0  0  0  0  0  0  0  0  0  0  0
  3  2  1  0
  4  3  1  0
  5  2  2  0
  6  2  1  0
  7  4  2  0
  8  4  1  0
  9  8  1  0
 10 11  1  0
 11  6  2  0
 12  5  1  0
 13  6  1  0
 14  5  1  0
 15  9  1  0
 16  9  1  0
 17 15  1  0
 18 16  1  0
 10 12  2  0
M  END
> <chembl_id>
CHEMBL1200409

> <chembl_pref_name>
LIDOCAINE HYDROCHLORIDE
