
     RDKit          2D

 29 28  0  0  0  0  0  0  0  0999 V2000
    6.3000   -7.6304    0.0000 C   0  0  0  0  0  0  0  0  0  0  0  0
    6.3000   -6.8037    0.0000 N   0  0  0  0  0  0  0  0  0  0  0  0
    5.5860   -8.0438    0.0000 N   0  0  0  0  0  0  0  0  0  0  0  0
    2.0036   -7.6304    0.0000 I   0  0  0  0  0  0  0  0  0  0  0  0
    7.0140   -8.0438    0.0000 N   0  0  0  0  0  0  0  0  0  0  0  0
    2.7218   -8.0438    0.0000 C   0  0  0  0  0  0  0  0  0  0  0  0
    4.8637   -7.6304    0.0000 C   0  0  0  0  0  0  0  0  0  0  0  0
    3.4358   -7.6304    0.0000 C   0  0  0  0  0  0  0  0  0  0  0  0
    4.1498   -8.0438    0.0000 C   0  0  0  0  0  0  0  0  0  0  0  0
    3.4358   -9.2838    0.0000 C   0  0  0  0  0  0  0  0  0  0  0  0
    2.7218   -8.8705    0.0000 C   0  0  0  0  0  0  0  0  0  0  0  0
    4.1498   -8.8705    0.0000 C   0  0  0  0  0  0  0  0  0  0  0  0
    8.9978   -6.8809    0.0000 S   0  0  0  0  0  0  0  0  0  0  0  0
    9.8245   -6.8809    0.0000 O   0  0  0  0  0  0  0  0  0  0  0  0
    8.9978   -6.0542    0.0000 O   0  0  0  0  0  0  0  0  0  0  0  0
    9.2108   -7.6784    0.0000 O   0  0  0  0  0  0  0  0  0  0  0  0
    8.2838   -7.2901    0.0000 O   0  0  0  0  0  0  0  0  0  0  0  0
    6.6513   -4.4008    0.0000 C   0  0  0  0  0  0  0  0  0  0  0  0
    6.6513   -3.5741    0.0000 N   0  0  0  0  0  0  0  0  0  0  0  0
    5.9373   -4.8142    0.0000 N   0  0  0  0  0  0  0  0  0  0  0  0
    2.3549   -4.4008    0.0000 I   0  0  0  0  0  0  0  0  0  0  0  0
    7.3652   -4.8142    0.0000 N   0  0  0  0  0  0  0  0  0  0  0  0
    3.0731   -4.8142    0.0000 C   0  0  0  0  0  0  0  0  0  0  0  0
    5.2150   -4.4008    0.0000 C   0  0  0  0  0  0  0  0  0  0  0  0
    3.7870   -4.4008    0.0000 C   0  0  0  0  0  0  0  0  0  0  0  0
    4.5010   -4.8142    0.0000 C   0  0  0  0  0  0  0  0  0  0  0  0
    3.7870   -6.0542    0.0000 C   0  0  0  0  0  0  0  0  0  0  0  0
    3.0731   -5.6409    0.0000 C   0  0  0  0  0  0  0  0  0  0  0  0
    4.5010   -5.6409    0.0000 C   0  0  0  0  0  0  0  0  0  0  0  0
  2  1  2  0
  3  1  1  0
  4  6  1  0
  5  1  1  0
  6  8  1  0
  7  3  1  0
  8  9  2  0
  9  7  1  0
 10 12  2  0
 11 10  1  0
 12  9  1  0
  6 11  2  0
 14 13  2  0
 15 13  2  0
 16 13  1  0
 17 13  1  0
 19 18  2  0
 20 18  1  0
 21 23  1  0
 22 18  1  0
 23 25  1  0
 24 20  1  0
 25 26  2  0
 26 24  1  0
 27 29  2  0
 28 27  1  0
 29 26  1  0
 23 28  2  0
M  ISO  2   4 123  21 123
M  END
> <chembl_id>
CHEMBL3989523

> <chembl_pref_name>
IOBENGUANE SULFATE I 123
