
     RDKit          2D

 29 24  0  0  0  0  0  0  0  0999 V2000
    6.8144   -8.5875    0.0000 C   0  0  0  0  0  0  0  0  0  0  0  0
    7.5298   -8.9935    0.0000 C   0  0  0  0  0  0  0  0  0  0  0  0
    6.0943   -9.0032    0.0000 C   0  0  0  0  0  0  0  0  0  0  0  0
    7.2253   -7.8721    0.0000 C   0  0  0  0  0  0  0  0  0  0  0  0
    7.5249   -9.8201    0.0000 C   0  0  0  0  0  0  0  0  0  0  0  0
    5.3837   -8.5875    0.0000 C   0  0  0  0  0  0  0  0  0  0  0  0
    8.0518   -7.8721    0.0000 O   0  0  0  0  0  0  0  0  0  0  0  0
    8.2355  -10.2357    0.0000 O   0  0  0  0  0  0  0  0  0  0  0  0
    6.8193   -7.1520    0.0000 O   0  0  0  0  0  0  0  0  0  0  0  0
    6.8048  -10.2261    0.0000 O   0  0  0  0  0  0  0  0  0  0  0  0
    5.3837   -7.7706    0.0000 O   0  0  0  0  0  0  0  0  0  0  0  0
    6.4084   -7.8721    0.0000 O   0  0  0  0  0  0  0  0  0  0  0  0
    4.6732   -9.0032    0.0000 O   0  0  0  0  0  0  0  0  0  0  0  0
    0.5510   -6.4431    0.0000 C   0  0  0  0  0  0  0  0  0  0  0  0
    1.2664   -6.8491    0.0000 C   0  0  0  0  0  0  0  0  0  0  0  0
   -0.1691   -6.8588    0.0000 C   0  0  0  0  0  0  0  0  0  0  0  0
    0.9619   -5.7277    0.0000 C   0  0  0  0  0  0  0  0  0  0  0  0
    1.2615   -7.6757    0.0000 C   0  0  0  0  0  0  0  0  0  0  0  0
   -0.8797   -6.4431    0.0000 C   0  0  0  0  0  0  0  0  0  0  0  0
    1.7884   -5.7277    0.0000 O   0  0  0  0  0  0  0  0  0  0  0  0
    1.9721   -8.0913    0.0000 O   0  0  0  0  0  0  0  0  0  0  0  0
    0.5559   -5.0076    0.0000 O   0  0  0  0  0  0  0  0  0  0  0  0
    0.5414   -8.0817    0.0000 O   0  0  0  0  0  0  0  0  0  0  0  0
   -0.8797   -5.6262    0.0000 O   0  0  0  0  0  0  0  0  0  0  0  0
    0.1450   -5.7277    0.0000 O   0  0  0  0  0  0  0  0  0  0  0  0
   -1.5902   -6.8588    0.0000 O   0  0  0  0  0  0  0  0  0  0  0  0
    3.2530   -6.8491    0.0000 Ca  0  0  0  0  0 15  0  0  0  0  0  0
    3.6536   -5.8045    0.0000 Ca  0  0  0  0  0 15  0  0  0  0  0  0
    5.0973   -6.1580    0.0000 Ca  0  0  0  0  0 15  0  0  0  0  0  0
  2  1  1  0
  3  1  1  0
  4  1  1  0
  5  2  1  0
  6  3  1  0
  7  4  1  0
  8  5  1  0
  9  4  2  0
 10  5  2  0
 11  6  2  0
 12  1  1  0
 13  6  1  0
 15 14  1  0
 16 14  1  0
 17 14  1  0
 18 15  1  0
 19 16  1  0
 20 17  1  0
 21 18  1  0
 22 17  2  0
 23 18  2  0
 24 19  2  0
 25 14  1  0
 26 19  1  0
M  CHG  8   7  -1   8  -1  13  -1  20  -1  21  -1  26  -1  27   2  28   2
M  CHG  1  29   2
M  END
> <chembl_id>
CHEMBL2106123

> <chembl_pref_name>
CALCIUM CITRATE
