
     RDKit          2D

 28 29  0  0  0  0  0  0  0  0999 V2000
    7.7730   -5.7423    0.0000 N   0  0  0  0  0  0  0  0  0  0  0  0
    8.4907   -5.3287    0.0000 O   0  0  0  0  0  0  0  0  0  0  0  0
    7.0598   -5.3287    0.0000 O   0  0  0  0  0  0  0  0  0  0  0  0
    7.7730   -6.6165    0.0000 O   0  0  0  0  0  0  0  0  0  0  0  0
    8.5603   -2.8735    0.0000 C   0  0  0  0  0  0  0  0  0  0  0  0
    9.6382   -3.6870    0.0000 C   0  0  0  0  0  0  0  0  0  0  0  0
    9.1187   -3.2503    0.0000 C   0  0  0  0  0  0  0  0  0  0  0  0
    8.1313   -3.2503    0.0000 C   0  0  0  0  0  0  0  0  0  0  0  0
    7.9873   -2.4257    0.0000 N   0  0  0  0  0  0  0  0  0  0  0  0
    9.5003   -2.8581    0.0000 C   0  0  0  0  0  0  0  0  0  0  0  0
    7.6036   -3.9744    0.0000 C   0  0  0  0  0  0  0  0  0  0  0  0
    8.2314   -3.5940    0.0000 C   0  0  0  0  0  0  0  0  0  0  0  0
    7.9000   -1.4332    0.0000 C   0  0  0  0  0  0  0  0  0  0  0  0
    7.3026   -3.2503    0.0000 H   0  0  0  0  0  0  0  0  0  0  0  0
    8.9624   -2.1560    0.0000 H   0  0  0  0  0  0  0  0  0  0  0  0
    9.8470   -4.4770    0.0000 O   0  0  0  0  0  0  0  0  0  0  0  0
   10.5583   -4.8873    0.0000 C   0  0  0  0  0  0  0  0  0  0  0  0
   11.2747   -4.4787    0.0000 C   0  0  0  0  0  0  0  0  0  0  0  0
   10.5564   -5.7125    0.0000 O   0  0  0  0  0  0  0  0  0  0  0  0
   11.9890   -4.8908    0.0000 C   0  0  0  0  0  0  0  0  0  0  0  0
   11.2767   -3.6533    0.0000 C   0  0  0  0  0  0  0  0  0  0  0  0
   11.9892   -5.7158    0.0000 C   0  0  0  0  0  0  0  0  0  0  0  0
   12.7038   -6.1281    0.0000 C   0  0  0  0  0  0  0  0  0  0  0  0
   13.4182   -5.7154    0.0000 C   0  0  0  0  0  0  0  0  0  0  0  0
   13.4180   -4.8903    0.0000 C   0  0  0  0  0  0  0  0  0  0  0  0
   12.7034   -4.4781    0.0000 C   0  0  0  0  0  0  0  0  0  0  0  0
    7.1904   -2.2122    0.0000 C   0  0  0  0  0  0  0  0  0  0  0  0
   11.9922   -3.2426    0.0000 O   0  0  0  0  0  0  0  0  0  0  0  0
  2  1  1  0
  3  1  1  0
  4  1  2  0
  6  7  1  0
  8 14  1  1
  7  8  1  0
  5 15  1  6
  8  9  1  0
  6 16  1  6
  9  5  1  0
 16 17  1  0
  5 10  1  0
 17 18  1  0
 10  6  1  0
 17 19  2  0
  8 11  1  0
 18 20  1  0
  5 12  1  0
 18 21  1  0
 11 12  1  0
  9 13  1  0
 20 22  1  0
 20 26  2  0
 22 23  2  0
 23 24  1  0
 24 25  2  0
 25 26  1  0
  9 27  1  0
 21 28  1  0
M  CHG  4   1   1   2  -1   3  -1   9   1
M  END
> <chembl_id>
CHEMBL516476

> <chembl_pref_name>
METHYLATROPINE NITRATE
