
     RDKit          2D

 10 10  0  0  0  0  0  0  0  0999 V2000
   -0.0875    0.0333    0.0000 C   0  0  0  0  0  0  0  0  0  0  0  0
    1.1750   -0.6750    0.0000 C   0  0  0  0  0  0  0  0  0  0  0  0
   -0.0875    1.4833    0.0000 C   0  0  0  0  0  0  0  0  0  0  0  0
    1.1750   -2.1250    0.0000 O   0  0  0  0  0  0  0  0  0  0  0  0
    2.4375    0.0333    0.0000 O   0  0  0  0  0  0  0  0  0  0  0  0
    1.1375    2.2208    0.0000 O   0  0  0  0  0  0  0  0  0  0  0  0
   -1.3208   -0.6750    0.0000 C   0  0  0  0  0  0  0  0  0  0  0  0
   -1.3208    2.1875    0.0000 C   0  0  0  0  0  0  0  0  0  0  0  0
   -2.5458    0.0708    0.0000 C   0  0  0  0  0  0  0  0  0  0  0  0
   -2.5458    1.4833    0.0000 C   0  0  0  0  0  0  0  0  0  0  0  0
  2  1  1  0
  3  1  2  0
  4  2  2  0
  5  2  1  0
  6  3  1  0
  7  1  1  0
  8  3  1  0
  9  7  2  0
 10  9  1  0
  8 10  2  0
M  END
> <chembl_id>
CHEMBL424

> <chembl_pref_name>
SALICYLIC ACID
