
     RDKit          2D

  5  4  0  0  0  0  0  0  0  0999 V2000
    4.7750   -4.6667    0.0000 C   0  0  0  0  0  0  0  0  0  0  0  0
    4.7875   -5.3875    0.0000 O   0  0  0  0  0  0  0  0  0  0  0  0
    5.3792   -4.3125    0.0000 N   0  0  0  0  0  0  0  0  0  0  0  0
    6.0000   -4.6667    0.0000 O   0  0  0  0  0  0  0  0  0  0  0  0
    4.1542   -4.3292    0.0000 C   0  0  0  0  0  0  0  0  0  0  0  0
  2  1  2  0
  3  1  1  0
  4  3  1  0
  5  1  1  0
M  END
> <chembl_id>
CHEMBL734

> <chembl_pref_name>
ACETOHYDROXAMIC ACID
