
     RDKit          2D

 36 36  0  0  0  0  0  0  0  0999 V2000
    0.7972    1.8178    0.0000 O   0  0  0  0  0  0  0  0  0  0  0  0
    1.2097    1.1033    0.0000 C   0  0  0  0  0  0  0  0  0  0  0  0
    0.7972    0.3889    0.0000 C   0  0  0  0  0  0  0  0  0  0  0  0
    1.2097   -0.3256    0.0000 C   0  0  0  0  0  0  0  0  0  0  0  0
    2.0347   -0.3256    0.0000 C   0  0  0  0  0  0  0  0  0  0  0  0
    2.4472    0.3889    0.0000 O   0  0  0  0  0  0  0  0  0  0  0  0
    2.0347    1.1033    0.0000 O   0  0  0  0  0  0  0  0  0  0  0  0
    2.4472   -1.0401    0.0000 O   0  0  0  0  0  0  0  0  0  0  0  0
   -6.4208    1.8714    0.0000 C   0  0  0  0  0  0  0  0  0  0  0  0
   -6.4208    1.0464    0.0000 O   0  0  0  0  0  0  0  0  0  0  0  0
   -5.7063    0.6339    0.0000 C   0  0  0  0  0  0  0  0  0  0  0  0
   -4.9918    1.0464    0.0000 C   0  0  0  0  0  0  0  0  0  0  0  0
   -4.9918    1.8714    0.0000 C   0  0  0  0  0  0  0  0  0  0  0  0
   -5.7063    2.2839    0.0000 C   0  0  0  0  0  0  0  0  0  0  0  0
   -4.2774    0.6339    0.0000 C   0  0  0  0  0  0  0  0  0  0  0  0
   -3.5629    1.0464    0.0000 C   0  0  0  0  0  0  0  0  0  0  0  0
   -3.5629    1.8714    0.0000 C   0  0  0  0  0  0  0  0  0  0  0  0
   -4.2774    2.2839    0.0000 N   0  0  0  0  0  0  0  0  0  0  0  0
   -2.8484    0.6339    0.0000 C   0  0  0  0  0  0  0  0  0  0  0  0
   -2.1339    1.0464    0.0000 O   0  0  0  0  0  0  0  0  0  0  0  0
   -2.8484    3.1089    0.0000 O   0  0  0  0  0  0  0  0  0  0  0  0
   -2.8484    2.2839    0.0000 C   0  0  0  0  0  0  0  0  0  0  0  0
   -2.1339    1.8714    0.0000 C   0  0  0  0  0  0  0  0  0  0  0  0
   -1.4195    2.2839    0.0000 C   0  0  0  0  0  0  0  0  0  0  0  0
   -3.5629    4.3464    0.0000 C   0  0  0  0  0  0  0  0  0  0  0  0
   -3.5629    3.5214    0.0000 C   0  0  0  0  0  0  0  0  0  0  0  0
   -4.2774    4.7589    0.0000 N   0  0  0  0  0  0  0  0  0  0  0  0
   -4.2774   -0.1911    0.0000 C   0  0  0  0  0  0  0  0  0  0  0  0
   -3.5629   -0.6036    0.0000 C   0  0  0  0  0  0  0  0  0  0  0  0
   -2.8484   -0.1911    0.0000 O   0  0  0  0  0  0  0  0  0  0  0  0
   -4.9918   -0.6036    0.0000 C   0  0  0  0  0  0  0  0  0  0  0  0
   -4.9918   -1.4286    0.0000 C   0  0  0  0  0  0  0  0  0  0  0  0
   -4.2774   -1.8411    0.0000 C   0  0  0  0  0  0  0  0  0  0  0  0
   -3.5629   -1.4286    0.0000 C   0  0  0  0  0  0  0  0  0  0  0  0
   -5.7063   -0.1911    0.0000 O   0  0  0  0  0  0  0  0  0  0  0  0
   -2.7424   -0.6898    0.0000 Cl  0  0  0  0  0  0  0  0  0  0  0  0
  1  2  2  0
  2  3  1  0
  3  4  2  0
  4  5  1  0
  5  6  2  0
  2  7  1  0
  5  8  1  0
  9 10  1  0
 11 12  1  0
 12 13  2  0
 13 14  1  0
 10 11  1  0
 15 16  1  0
 16 17  2  0
 17 18  1  0
 12 15  1  0
 13 18  1  0
 19 20  1  0
 21 22  1  0
 17 22  1  0
 16 19  1  0
 23 24  1  0
 25 26  1  0
 21 26  1  0
 20 23  1  0
 25 27  1  0
 28 29  2  0
 30 19  2  0
 15 28  1  1
 31 32  2  0
 32 33  1  0
 33 34  2  0
 28 31  1  0
 29 34  1  0
 11 35  2  0
 29 36  1  0
M  END
> <chembl_id>
CHEMBL4594288

> <chembl_pref_name>
LEVAMLODIPINE MALEATE
