
     RDKit          2D

 19 19  0  0  0  0  0  0  0  0999 V2000
    7.6417   -4.6250    0.0000 Cl  0  0  0  0  0  0  0  0  0  0  0  0
    6.0667   -2.4792    0.0000 N   0  0  0  0  0  0  0  0  0  0  0  0
    5.8542   -4.0958    0.0000 C   0  0  0  0  0  0  0  0  0  0  0  0
    6.0750   -3.4208    0.0000 C   0  0  0  0  0  0  0  0  0  0  0  0
    5.4583   -2.1250    0.0000 C   0  0  0  0  0  0  0  0  0  0  0  0
    5.4583   -1.4167    0.0000 N   0  0  0  0  0  0  0  0  0  0  0  0
    5.1500   -4.0958    0.0000 C   0  0  0  0  0  0  0  0  0  0  0  0
    5.5000   -3.0042    0.0000 O   0  0  0  0  0  0  0  0  0  0  0  0
    6.6792   -2.1250    0.0000 C   0  0  0  0  0  0  0  0  0  0  0  0
    4.9292   -3.4208    0.0000 C   0  0  0  0  0  0  0  0  0  0  0  0
    6.6792   -1.4167    0.0000 C   0  0  0  0  0  0  0  0  0  0  0  0
    6.0667   -1.0625    0.0000 C   0  0  0  0  0  0  0  0  0  0  0  0
    4.8417   -2.4750    0.0000 O   0  0  0  0  0  0  0  0  0  0  0  0
    6.2042   -4.7042    0.0000 F   0  0  0  0  0  0  0  0  0  0  0  0
    6.5625   -4.0917    0.0000 F   0  0  0  0  0  0  0  0  0  0  0  0
    4.7333   -4.6667    0.0000 O   0  0  0  0  0  0  0  0  0  0  0  0
    6.0667   -0.3542    0.0000 N   0  0  0  0  0  0  0  0  0  0  0  0
    4.3125   -3.0667    0.0000 C   0  0  0  0  0  0  0  0  0  0  0  0
    3.6958   -3.4167    0.0000 O   0  0  0  0  0  0  0  0  0  0  0  0
  3  4  1  0
  4  2  1  1
  5  2  1  0
  6  5  1  0
  7  3  1  0
  8  4  1  0
  9  2  1  0
 10  8  1  0
 11  9  2  0
 12 11  1  0
 13  5  2  0
 14  3  1  0
 15  3  1  0
  7 16  1  6
 17 12  1  0
 10 18  1  1
 19 18  1  0
  7 10  1  0
 12  6  2  0
M  END
> <chembl_id>
CHEMBL1637

> <chembl_pref_name>
GEMCITABINE HYDROCHLORIDE
