
     RDKit          2D

 31 35  0  0  0  0  0  0  0  0999 V2000
   -1.7083    0.6125    0.0000 N   0  0  0  0  0  0  0  0  0  0  0  0
   -0.5958    0.6125    0.0000 C   0  0  0  0  0  0  0  0  0  0  0  0
   -0.8083   -0.0417    0.0000 C   0  0  0  0  0  0  0  0  0  0  0  0
   -1.1625    0.9833    0.0000 C   0  0  0  0  0  0  0  0  0  0  0  0
   -1.5083   -0.0417    0.0000 C   0  0  0  0  0  0  0  0  0  0  0  0
    3.7375    0.9458    0.0000 C   0  0  0  0  0  0  0  0  0  0  0  0
    3.1750    1.3375    0.0000 N   0  0  0  0  0  0  0  0  0  0  0  0
   -2.3458    0.8708    0.0000 C   0  0  0  0  0  0  0  0  0  0  0  0
    4.2917    1.3500    0.0000 N   0  0  0  0  0  0  0  0  0  0  0  0
    1.3625    1.3250    0.0000 N   0  0  0  0  0  0  0  0  0  0  0  0
   -1.8500   -0.6375    0.0000 C   0  0  0  0  0  0  0  0  0  0  0  0
    0.0292    0.8458    0.0000 C   0  0  0  0  0  0  0  0  0  0  0  0
   -0.4708   -0.6292    0.0000 C   0  0  0  0  0  0  0  0  0  0  0  0
    3.7417    0.2583    0.0000 O   0  0  0  0  0  0  0  0  0  0  0  0
    2.5292    1.1125    0.0000 C   0  0  0  0  0  0  0  0  0  0  0  0
   -2.8833    0.4458    0.0000 C   0  0  0  0  0  0  0  0  0  0  0  0
   -2.4458    1.5250    0.0000 C   0  0  0  0  0  0  0  0  0  0  0  0
    0.5625    0.4083    0.0000 C   0  0  0  0  0  0  0  0  0  0  0  0
    0.1542    1.5333    0.0000 C   0  0  0  0  0  0  0  0  0  0  0  0
    2.0167    1.5500    0.0000 C   0  0  0  0  0  0  0  0  0  0  0  0
    0.8042    1.7708    0.0000 C   0  0  0  0  0  0  0  0  0  0  0  0
    1.2167    0.6583    0.0000 C   0  0  0  0  0  0  0  0  0  0  0  0
   -0.8333   -1.2375    0.0000 C   0  0  0  0  0  0  0  0  0  0  0  0
   -1.4875   -1.2375    0.0000 C   0  0  0  0  0  0  0  0  0  0  0  0
   -3.6083    1.3833    0.0000 C   0  0  0  0  0  0  0  0  0  0  0  0
    4.0792    2.0000    0.0000 C   0  0  0  0  0  0  0  0  0  0  0  0
   -3.5208    0.6958    0.0000 C   0  0  0  0  0  0  0  0  0  0  0  0
   -3.0833    1.7958    0.0000 C   0  0  0  0  0  0  0  0  0  0  0  0
    3.3792    1.9958    0.0000 C   0  0  0  0  0  0  0  0  0  0  0  0
   -0.4833   -1.8667    0.0000 Cl  0  0  0  0  0  0  0  0  0  0  0  0
   -4.2583    1.6458    0.0000 F   0  0  0  0  0  0  0  0  0  0  0  0
  2  4  2  0
  3  5  2  0
  4  1  1  0
  5  1  1  0
  6  7  1  0
  7 15  1  0
  8  1  1  0
  9  6  1  0
 10 21  1  0
 11  5  1  0
 12  2  1  0
 13  3  1  0
 14  6  2  0
 15 20  1  0
 16  8  2  0
 17  8  1  0
 18 12  1  0
 19 12  1  0
 20 10  1  0
 21 19  1  0
 22 18  1  0
 23 24  1  0
 24 11  2  0
 25 28  1  0
 26 29  1  0
 27 16  1  0
 28 17  2  0
 29  7  1  0
 30 23  1  0
 31 25  1  0
  2  3  1  0
 27 25  2  0
 13 23  2  0
 22 10  1  0
  9 26  1  0
M  END
> <chembl_id>
CHEMBL12713

> <chembl_pref_name>
SERTINDOLE
