
     RDKit          2D

 92 98  0  0  1  0  0  0  0  0999 V2000
    2.9875   -5.4000    0.0000 C   0  0  0  0  0  0  0  0  0  0  0  0
    2.3875   -5.0375    0.0000 C   0  0  0  0  0  0  0  0  0  0  0  0
    1.7667   -5.3875    0.0000 C   0  0  0  0  0  0  0  0  0  0  0  0
    2.3917   -4.3250    0.0000 N   0  0  0  0  0  0  0  0  0  0  0  0
    2.9875   -6.1042    0.0000 C   0  0  0  0  0  0  0  0  0  0  0  0
    1.7792   -3.9625    0.0000 C   0  0  0  0  0  0  0  0  0  0  0  0
    1.7625   -6.0958    0.0000 C   0  0  0  0  0  0  0  0  0  0  0  0
    5.2917   -2.0083    0.0000 N   0  0  0  0  0  0  0  0  0  0  0  0
   -1.5583   -2.7250    0.0000 N   0  0  0  0  0  0  0  0  0  0  0  0
    3.6083   -5.0458    0.0000 C   0  0  0  0  0  0  0  0  0  0  0  0
    5.2833   -2.7167    0.0000 C   0  0  0  0  0  0  0  0  0  0  0  0
   -0.9458   -2.3708    0.0000 C   0  0  0  0  0  0  0  0  0  0  0  0
    2.3667   -6.4542    0.0000 C   0  0  0  0  0  0  0  0  0  0  0  0
    1.7833   -3.2583    0.0000 C   0  0  0  0  0  0  0  0  0  0  0  0
    1.1500   -5.0292    0.0000 O   0  0  0  0  0  0  0  0  0  0  0  0
    4.6500   -3.7667    0.0000 N   0  0  0  0  0  0  0  0  0  0  0  0
    0.2833   -2.3750    0.0000 N   0  0  0  0  0  0  0  0  0  0  0  0
    7.0833   -5.2000    0.0000 C   0  0  0  0  0  0  0  0  0  0  0  0
    0.2667    0.4500    0.0000 C   0  0  0  0  0  0  0  0  0  0  0  0
    5.2458   -4.8375    0.0000 C   0  0  0  0  0  0  0  0  0  0  0  0
    0.8958   -1.3125    0.0000 C   0  0  0  0  0  0  0  0  0  0  0  0
    5.2500   -4.1250    0.0000 C   0  0  0  0  0  0  0  0  0  0  0  0
    0.2792   -1.6750    0.0000 C   0  0  0  0  0  0  0  0  0  0  0  0
    6.4792   -1.9583    0.0000 C   0  0  0  0  0  0  0  0  0  0  0  0
   -2.1458   -1.6042    0.0000 C   0  0  0  0  0  0  0  0  0  0  0  0
   -0.9583    0.4417    0.0000 N   0  0  0  0  0  0  0  0  0  0  0  0
    7.7042   -4.1417    0.0000 N   0  0  0  0  0  0  0  0  0  0  0  0
    7.0917   -1.6083    0.0000 N   0  0  0  0  0  0  0  0  0  0  0  0
   -2.7625   -1.2542    0.0000 N   0  0  0  0  0  0  0  0  0  0  0  0
    2.4000   -2.9083    0.0000 C   0  0  0  0  0  0  0  0  0  0  0  0
    1.1583   -4.3167    0.0000 C   0  0  0  0  0  0  0  0  0  0  0  0
    8.3208   -3.7917    0.0000 C   0  0  0  0  0  0  0  0  0  0  0  0
   -1.5750    0.7917    0.0000 C   0  0  0  0  0  0  0  0  0  0  0  0
    4.2167   -5.4083    0.0000 N   0  0  0  0  0  0  0  0  0  0  0  0
    2.4083   -2.2000    0.0000 N   0  0  0  0  0  0  0  0  0  0  0  0
    4.6625   -3.0583    0.0000 C   0  0  0  0  0  0  0  0  0  0  0  0
   -0.3333   -2.7250    0.0000 C   0  0  0  0  0  0  0  0  0  0  0  0
   -2.1375   -2.3125    0.0000 C   0  0  0  0  0  0  0  0  0  0  0  0
    5.8750   -1.5958    0.0000 C   0  0  0  0  0  0  0  0  0  0  0  0
    0.2708   -0.2583    0.0000 O   0  0  0  0  0  0  0  0  0  0  0  0
    6.4708   -4.8458    0.0000 O   0  0  0  0  0  0  0  0  0  0  0  0
    7.7000   -4.8500    0.0000 C   0  0  0  0  0  0  0  0  0  0  0  0
   -0.3500    0.8000    0.0000 C   0  0  0  0  0  0  0  0  0  0  0  0
    0.8875   -0.6042    0.0000 C   0  0  0  0  0  0  0  0  0  0  0  0
    5.8583   -5.1958    0.0000 C   0  0  0  0  0  0  0  0  0  0  0  0
    8.3333   -2.4417    0.0000 C   0  0  0  0  0  0  0  0  0  0  0  0
   -2.7458    0.1000    0.0000 C   0  0  0  0  0  0  0  0  0  0  0  0
    1.1708   -2.8917    0.0000 C   0  0  0  0  0  0  0  0  0  0  0  0
    5.8875   -3.0792    0.0000 O   0  0  0  0  0  0  0  0  0  0  0  0
   -0.9417   -1.6625    0.0000 O   0  0  0  0  0  0  0  0  0  0  0  0
    0.8750    0.8125    0.0000 O   0  0  0  0  0  0  0  0  0  0  0  0
    7.0792   -5.9083    0.0000 O   0  0  0  0  0  0  0  0  0  0  0  0
    3.6125   -4.3417    0.0000 O   0  0  0  0  0  0  0  0  0  0  0  0
    0.5458   -3.9583    0.0000 C   0  0  0  0  0  0  0  0  0  0  0  0
    6.4667   -2.6667    0.0000 O   0  0  0  0  0  0  0  0  0  0  0  0
   -1.5375   -1.2458    0.0000 O   0  0  0  0  0  0  0  0  0  0  0  0
    2.3625   -7.1625    0.0000 O   0  0  0  0  0  0  0  0  0  0  0  0
   -0.3333   -1.3208    0.0000 O   0  0  0  0  0  0  0  0  0  0  0  0
    5.8708   -3.7792    0.0000 O   0  0  0  0  0  0  0  0  0  0  0  0
   -1.5833    1.5000    0.0000 O   0  0  0  0  0  0  0  0  0  0  0  0
    8.9292   -4.1500    0.0000 O   0  0  0  0  0  0  0  0  0  0  0  0
    3.0083   -3.2708    0.0000 O   0  0  0  0  0  0  0  0  0  0  0  0
    3.6000   -6.4625    0.0000 N   0  0  0  0  0  0  0  0  0  0  0  0
    0.5500   -3.2458    0.0000 C   0  0  0  0  0  0  0  0  0  0  0  0
    4.0542   -2.6958    0.0000 C   0  0  0  0  0  0  0  0  0  0  0  0
   -0.3333   -3.4333    0.0000 C   0  0  0  0  0  0  0  0  0  0  0  0
    4.7250   -1.5792    0.0000 C   0  0  0  0  0  0  0  0  0  0  0  0
   -1.7792   -3.4000    0.0000 C   0  0  0  0  0  0  0  0  0  0  0  0
   -0.3542    1.5083    0.0000 C   0  0  0  0  0  0  0  0  0  0  0  0
    8.3125   -5.2083    0.0000 C   0  0  0  0  0  0  0  0  0  0  0  0
    1.1458   -6.4417    0.0000 C   0  0  0  0  0  0  0  0  0  0  0  0
    7.0917   -3.7833    0.0000 C   0  0  0  0  0  0  0  0  0  0  0  0
   -0.9542   -0.2667    0.0000 C   0  0  0  0  0  0  0  0  0  0  0  0
   -3.3708   -1.6167    0.0000 C   0  0  0  0  0  0  0  0  0  0  0  0
    7.0958   -0.9000    0.0000 C   0  0  0  0  0  0  0  0  0  0  0  0
   -2.7083   -2.7333    0.0000 C   0  0  0  0  0  0  0  0  0  0  0  0
    5.6667   -0.9208    0.0000 C   0  0  0  0  0  0  0  0  0  0  0  0
    4.9583   -0.9083    0.0000 C   0  0  0  0  0  0  0  0  0  0  0  0
   -2.4833   -3.4042    0.0000 C   0  0  0  0  0  0  0  0  0  0  0  0
    5.8542   -5.9042    0.0000 C   0  0  0  0  0  0  0  0  0  0  0  0
    1.5000   -0.2458    0.0000 C   0  0  0  0  0  0  0  0  0  0  0  0
   -0.0708   -4.3083    0.0000 C   0  0  0  0  0  0  0  0  0  0  0  0
    4.0667   -1.9875    0.0000 C   0  0  0  0  0  0  0  0  0  0  0  0
   -0.9500   -3.7875    0.0000 C   0  0  0  0  0  0  0  0  0  0  0  0
    0.2750   -3.7917    0.0000 C   0  0  0  0  0  0  0  0  0  0  0  0
    3.4375   -3.0375    0.0000 C   0  0  0  0  0  0  0  0  0  0  0  0
    8.9250   -4.8583    0.0000 C   0  0  0  0  0  0  0  0  0  0  0  0
    8.3083   -5.9167    0.0000 C   0  0  0  0  0  0  0  0  0  0  0  0
   -0.9708    1.8583    0.0000 C   0  0  0  0  0  0  0  0  0  0  0  0
    0.2542    1.8667    0.0000 C   0  0  0  0  0  0  0  0  0  0  0  0
    6.6620   -0.9789    0.0000 H   0  0  0  0  0  0  0  0  0  0  0  0
   -3.0327   -1.8668    0.0000 H   0  0  0  0  0  0  0  0  0  0  0  0
  2  1  1  0
  3  2  1  0
  4  2  2  0
  5  1  2  0
  6  4  1  0
  7 13  1  0
  8 11  1  0
  9 12  1  0
 10  1  1  0
 11 36  1  0
 12 37  1  0
 13  5  1  0
 14  6  1  0
 15  3  1  0
 16 22  1  0
 17 23  1  0
 18 41  1  0
 19 40  1  0
 20 34  1  6
 21 35  1  6
 22 20  1  0
 23 21  1  0
 24 39  1  0
 25 38  1  0
 26 43  1  0
 27 42  1  0
 28 46  1  0
 29 47  1  0
 30 14  1  0
 31  6  2  0
 32 27  1  0
 33 26  1  0
 34 10  1  0
 35 30  1  0
 36 16  1  0
 37 17  1  0
 38  9  1  0
 39  8  1  0
 40 44  1  0
 41 45  1  0
 42 18  1  0
 43 19  1  0
 44 21  1  0
 45 20  1  0
 46 32  1  0
 47 33  1  0
 48 14  2  0
 49 11  2  0
 50 12  2  0
 51 19  2  0
 52 18  2  0
 53 10  2  0
 54 31  1  0
 55 24  2  0
 56 25  2  0
 57 13  2  0
 58 23  2  0
 59 22  2  0
 60 33  2  0
 61 32  2  0
 62 30  2  0
 63  5  1  0
 64 48  1  0
 36 65  1  6
 37 66  1  6
 67  8  1  0
 68  9  1  0
 43 69  1  1
 42 70  1  1
 71  7  1  0
 72 27  1  0
 73 26  1  0
 74 29  1  0
 75 28  1  0
 76 38  1  0
 77 39  1  0
 78 67  1  0
 79 68  1  0
 45 80  1  6
 44 81  1  6
 82 54  1  0
 83 65  1  0
 84 66  1  0
 85 66  1  0
 86 65  1  0
 87 70  1  0
 88 70  1  0
 89 69  1  0
 90 69  1  0
  3  7  2  0
 15 31  1  0
 54 64  2  0
 77 78  1  0
 24 28  1  0
 76 79  1  0
 29 25  1  0
 39 91  1  6
 38 92  1  6
M  END
> <chembl_id>
CHEMBL1554

> <chembl_pref_name>
DACTINOMYCIN
