
     RDKit          2D

  4  2  0  0  0  0  0  0  0  0999 V2000
    0.3000   -1.0125    0.0000 Na  0  0  0  0  0 15  0  0  0  0  0  0
   -0.7958    0.3958    0.0000 N   0  0  0  0  0  0  0  0  0  0  0  0
   -0.7958   -1.0375    0.0000 O   0  0  0  0  0  0  0  0  0  0  0  0
    0.4292    1.1375    0.0000 O   0  0  0  0  0  0  0  0  0  0  0  0
  3  2  1  0
  4  2  2  0
M  CHG  2   1   1   3  -1
M  END
> <chembl_id>
CHEMBL93268

> <chembl_pref_name>
SODIUM NITRITE
