
     RDKit          2D

  7  7  0  0  0  0  0  0  0  0999 V2000
    1.2125    4.2001    0.0000 N   0  0  0  0  0  0  0  0  0  0  0  0
    2.4248    0.7000    0.0000 C   0  0  0  0  0  0  0  0  0  0  0  0
    0.0000    0.7000    0.0000 C   0  0  0  0  0  0  0  0  0  0  0  0
    2.4248    2.1000    0.0000 C   0  0  0  0  0  0  0  0  0  0  0  0
    0.0000    2.1000    0.0000 C   0  0  0  0  0  0  0  0  0  0  0  0
    1.2125    0.0000    0.0000 N   0  0  0  0  0  0  0  0  0  0  0  0
    1.2125    2.8000    0.0000 C   0  0  0  0  0  0  0  0  0  0  0  0
  1  7  1  0
  2  4  1  0
  2  6  2  0
  3  5  2  0
  3  6  1  0
  4  7  2  0
  5  7  1  0
M  END
> <chembl_id>
CHEMBL284348

> <chembl_pref_name>
DALFAMPRIDINE
