
     RDKit          2D

 16 15  0  0  0  0  0  0  0  0999 V2000
    5.9875   -5.0042    0.0000 C   0  0  0  0  0  0  0  0  0  0  0  0
    4.1500   -4.6417    0.0000 C   0  0  0  0  0  0  0  0  0  0  0  0
    4.7625   -4.9917    0.0000 S   0  0  0  0  0  0  0  0  0  0  0  0
    5.3667   -4.6542    0.0000 S   0  0  0  0  0  0  0  0  0  0  0  0
    5.9750   -5.7167    0.0000 S   0  0  0  0  0  0  0  0  0  0  0  0
    4.1542   -3.9292    0.0000 S   0  0  0  0  0  0  0  0  0  0  0  0
    3.5292   -4.9917    0.0000 N   0  0  0  0  0  0  0  0  0  0  0  0
    6.6042   -4.6500    0.0000 N   0  0  0  0  0  0  0  0  0  0  0  0
    7.2167   -5.0167    0.0000 C   0  0  0  0  0  0  0  0  0  0  0  0
    6.6125   -3.9542    0.0000 C   0  0  0  0  0  0  0  0  0  0  0  0
    2.9167   -4.6292    0.0000 C   0  0  0  0  0  0  0  0  0  0  0  0
    3.5167   -5.7000    0.0000 C   0  0  0  0  0  0  0  0  0  0  0  0
    7.8417   -4.6625    0.0000 C   0  0  0  0  0  0  0  0  0  0  0  0
    7.2292   -3.6000    0.0000 C   0  0  0  0  0  0  0  0  0  0  0  0
    2.2917   -4.9792    0.0000 C   0  0  0  0  0  0  0  0  0  0  0  0
    2.9000   -6.0417    0.0000 C   0  0  0  0  0  0  0  0  0  0  0  0
  2  3  1  0
  3  4  1  0
  4  1  1  0
  5  1  2  0
  6  2  2  0
  7  2  1  0
  8  1  1  0
  9  8  1  0
 10  8  1  0
 11  7  1  0
 12  7  1  0
 13  9  1  0
 14 10  1  0
 15 11  1  0
 16 12  1  0
M  END
> <chembl_id>
CHEMBL964

> <chembl_pref_name>
DISULFIRAM
