
     RDKit          2D

 49 52  0  0  0  0  0  0  0  0999 V2000
    0.4518   -3.8970    0.0000 S   0  0  0  0  0  0  0  0  0  0  0  0
    1.2774   -3.8966    0.0000 C   0  0  0  0  0  0  0  0  0  0  0  0
    0.0418   -4.6128    0.0000 O   0  0  0  0  0  0  0  0  0  0  0  0
    1.7658   -4.5612    0.0000 N   0  0  0  0  0  0  0  0  0  0  0  0
    1.7651   -3.2285    0.0000 N   0  0  0  0  0  0  0  0  0  0  0  0
    2.5507   -3.4815    0.0000 C   0  0  0  0  0  0  0  0  0  0  0  0
    2.5478   -4.3062    0.0000 C   0  0  0  0  0  0  0  0  0  0  0  0
    3.2600   -4.7169    0.0000 C   0  0  0  0  0  0  0  0  0  0  0  0
    3.9708   -4.3089    0.0000 C   0  0  0  0  0  0  0  0  0  0  0  0
    3.9698   -3.4811    0.0000 C   0  0  0  0  0  0  0  0  0  0  0  0
    3.2618   -3.0693    0.0000 C   0  0  0  0  0  0  0  0  0  0  0  0
    4.6813   -4.7197    0.0000 O   0  0  0  0  0  0  0  0  0  0  0  0
    5.3924   -4.3098    0.0000 C   0  0  0  0  0  0  0  0  0  0  0  0
   -2.0217   -2.4736    0.0000 C   0  0  0  0  0  0  0  0  0  0  0  0
   -2.4365   -3.1849    0.0000 C   0  0  0  0  0  0  0  0  0  0  0  0
   -2.0270   -3.9028    0.0000 C   0  0  0  0  0  0  0  0  0  0  0  0
   -1.2020   -3.9037    0.0000 C   0  0  0  0  0  0  0  0  0  0  0  0
   -0.7845   -3.1820    0.0000 C   0  0  0  0  0  0  0  0  0  0  0  0
   -1.1975   -2.4747    0.0000 N   0  0  0  0  0  0  0  0  0  0  0  0
    0.0411   -3.1815    0.0000 C   0  0  0  0  0  0  0  0  0  0  0  0
   -0.7867   -4.6193    0.0000 C   0  0  0  0  0  0  0  0  0  0  0  0
   -2.4385   -4.6179    0.0000 O   0  0  0  0  0  0  0  0  0  0  0  0
   -3.2640   -4.6165    0.0000 C   0  0  0  0  0  0  0  0  0  0  0  0
   -3.2621   -3.1822    0.0000 C   0  0  0  0  0  0  0  0  0  0  0  0
    1.2746    2.0905    0.0000 Mg  0  0  0  0  0 15  0  0  0  0  0  0
    0.2237   -0.0840    0.0000 S   0  0  0  0  0  0  0  0  0  0  0  0
    1.0493   -0.0835    0.0000 C   0  0  0  0  0  0  0  0  0  0  0  0
   -0.1863   -0.7997    0.0000 O   0  0  0  0  0  0  0  0  0  0  0  0
    1.5377   -0.7482    0.0000 N   0  0  0  0  0  0  0  0  0  0  0  0
    1.5370    0.5846    0.0000 N   0  0  0  0  0  0  0  0  0  0  0  0
    2.3226    0.3315    0.0000 C   0  0  0  0  0  0  0  0  0  0  0  0
    2.3197   -0.4931    0.0000 C   0  0  0  0  0  0  0  0  0  0  0  0
    3.0319   -0.9039    0.0000 C   0  0  0  0  0  0  0  0  0  0  0  0
    3.7427   -0.4958    0.0000 C   0  0  0  0  0  0  0  0  0  0  0  0
    3.7417    0.3320    0.0000 C   0  0  0  0  0  0  0  0  0  0  0  0
    3.0337    0.7438    0.0000 C   0  0  0  0  0  0  0  0  0  0  0  0
    4.4533   -0.9067    0.0000 O   0  0  0  0  0  0  0  0  0  0  0  0
    5.1644   -0.4967    0.0000 C   0  0  0  0  0  0  0  0  0  0  0  0
   -2.2497    1.3395    0.0000 C   0  0  0  0  0  0  0  0  0  0  0  0
   -2.6646    0.6281    0.0000 C   0  0  0  0  0  0  0  0  0  0  0  0
   -2.2551   -0.0898    0.0000 C   0  0  0  0  0  0  0  0  0  0  0  0
   -1.4301   -0.0906    0.0000 C   0  0  0  0  0  0  0  0  0  0  0  0
   -1.0126    0.6310    0.0000 C   0  0  0  0  0  0  0  0  0  0  0  0
   -1.4256    1.3383    0.0000 N   0  0  0  0  0  0  0  0  0  0  0  0
   -0.1870    0.6315    0.0000 C   0  0  0  0  0  0  0  0  0  0  0  0
   -1.0148   -0.8062    0.0000 C   0  0  0  0  0  0  0  0  0  0  0  0
   -2.6665   -0.8048    0.0000 O   0  0  0  0  0  0  0  0  0  0  0  0
   -3.4921   -0.8034    0.0000 C   0  0  0  0  0  0  0  0  0  0  0  0
   -3.4901    0.6308    0.0000 C   0  0  0  0  0  0  0  0  0  0  0  0
 11  6  1  0
  6  5  1  0
  9 12  1  0
  5  2  1  0
 12 13  1  0
  1  3  1  0
 14 15  2  0
  6  7  2  0
 15 16  1  0
  2  4  2  0
 16 17  2  0
  7  8  1  0
 17 18  1  0
 18 19  2  0
 19 14  1  0
  8  9  2  0
 18 20  1  0
  1  2  1  0
 17 21  1  0
  9 10  1  0
 16 22  1  0
  4  7  1  0
 22 23  1  0
 10 11  2  0
 15 24  1  0
  1 20  1  0
 36 31  1  0
 31 30  1  0
 34 37  1  0
 30 27  1  0
 37 38  1  0
 26 28  1  0
 39 40  2  0
 31 32  2  0
 40 41  1  0
 27 29  2  0
 41 42  2  0
 32 33  1  0
 42 43  1  0
 43 44  2  0
 44 39  1  0
 33 34  2  0
 43 45  1  0
 26 27  1  0
 42 46  1  0
 34 35  1  0
 41 47  1  0
 29 32  1  0
 47 48  1  0
 35 36  2  0
 40 49  1  0
 26 45  1  0
M  CHG  7   1   1   3  -1   5  -1  25   2  26   1  28  -1  30  -1
M  END
> <chembl_id>
CHEMBL1567328

> <chembl_pref_name>
OMEPRAZOLE MAGNESIUM
