
     RDKit          2D

  4  3  0  0  0  0  0  0  0  0999 V2000
    1.8167   -0.6042    0.0000 S   0  0  0  0  0  0  0  0  0  0  0  0
   -1.7000    0.7375    0.0000 N   0  0  0  0  0  0  0  0  0  0  0  0
    0.2417   -0.5875    0.0000 C   0  0  0  0  0  0  0  0  0  0  0  0
   -0.5208    0.7375    0.0000 C   0  0  0  0  0  0  0  0  0  0  0  0
  2  4  1  0
  3  1  1  0
  4  3  1  0
M  END
> <chembl_id>
CHEMBL602

> <chembl_pref_name>
CYSTEAMINE
