
     RDKit          2D

 50 53  0  0  0  0  0  0  0  0999 V2000
  -16.7652   -0.1473    0.0000 C   0  0  0  0  0  0  0  0  0  0  0  0
  -16.3527   -0.8618    0.0000 C   0  0  0  0  0  0  0  0  0  0  0  0
  -15.5277   -0.8618    0.0000 O   0  0  0  0  0  0  0  0  0  0  0  0
  -14.8132   -1.2743    0.0000 C   0  0  0  0  0  0  0  0  0  0  0  0
  -14.0987   -0.8618    0.0000 C   0  0  0  0  0  0  0  0  0  0  0  0
  -14.0987   -0.0368    0.0000 C   0  0  0  0  0  0  0  0  0  0  0  0
  -13.6862   -1.5763    0.0000 C   0  0  0  0  0  0  0  0  0  0  0  0
  -14.8132    0.3757    0.0000 O   0  0  0  0  0  0  0  0  0  0  0  0
  -13.3843    0.3757    0.0000 C   0  0  0  0  0  0  0  0  0  0  0  0
  -13.3843    1.2007    0.0000 C   0  0  0  0  0  0  0  0  0  0  0  0
  -12.5874    0.1622    0.0000 C   0  0  0  0  0  0  0  0  0  0  0  0
  -12.3739   -0.6347    0.0000 O   0  0  0  0  0  0  0  0  0  0  0  0
  -11.7905    0.3757    0.0000 C   0  0  0  0  0  0  0  0  0  0  0  0
  -11.8447    1.2080    0.0000 C   0  0  0  0  0  0  0  0  0  0  0  0
  -10.9655    0.3757    0.0000 C   0  0  0  0  0  0  0  0  0  0  0  0
  -10.2510    0.7882    0.0000 C   0  0  0  0  0  0  0  0  0  0  0  0
   -9.5365    0.3757    0.0000 C   0  0  0  0  0  0  0  0  0  0  0  0
   -9.5365   -0.4493    0.0000 C   0  0  0  0  0  0  0  0  0  0  0  0
   -8.8221   -0.8618    0.0000 C   0  0  0  0  0  0  0  0  0  0  0  0
  -10.2510   -0.8618    0.0000 C   0  0  0  0  0  0  0  0  0  0  0  0
  -10.8344   -0.2784    0.0000 O   0  0  0  0  0  0  0  0  0  0  0  0
  -10.2510   -1.6868    0.0000 N   0  0  0  0  0  0  0  0  0  0  0  0
  -10.6635   -2.4013    0.0000 C   0  0  0  0  0  0  0  0  0  0  0  0
  -12.0925   -2.4013    0.0000 C   0  0  0  0  0  0  0  0  0  0  0  0
  -12.8069   -1.9888    0.0000 C   0  0  0  0  0  0  0  0  0  0  0  0
  -13.5215   -2.4013    0.0000 C   0  0  0  0  0  0  0  0  0  0  0  0
  -13.5215   -3.2263    0.0000 C   0  0  0  0  0  0  0  0  0  0  0  0
  -12.8069   -3.6388    0.0000 C   0  0  0  0  0  0  0  0  0  0  0  0
  -11.3780   -3.6388    0.0000 C   0  0  0  0  0  0  0  0  0  0  0  0
  -10.6635   -3.2263    0.0000 C   0  0  0  0  0  0  0  0  0  0  0  0
  -11.3780   -1.9888    0.0000 C   0  0  0  0  0  0  0  0  0  0  0  0
  -11.3780   -1.1638    0.0000 O   0  0  0  0  0  0  0  0  0  0  0  0
  -12.5934   -1.1919    0.0000 O   0  0  0  0  0  0  0  0  0  0  0  0
  -11.3780   -4.4638    0.0000 O   0  0  0  0  0  0  0  0  0  0  0  0
  -14.1345   -3.7783    0.0000 O   0  0  0  0  0  0  0  0  0  0  0  0
  -13.7989   -4.5320    0.0000 C   0  0  0  0  0  0  0  0  0  0  0  0
  -12.9785   -4.4457    0.0000 C   0  0  0  0  0  0  0  0  0  0  0  0
  -12.4264   -5.0588    0.0000 O   0  0  0  0  0  0  0  0  0  0  0  0
  -13.5854   -5.3288    0.0000 C   0  0  0  0  0  0  0  0  0  0  0  0
  -14.6239   -4.5320    0.0000 O   0  0  0  0  0  0  0  0  0  0  0  0
  -14.8375   -3.7351    0.0000 C   0  0  0  0  0  0  0  0  0  0  0  0
  -15.6344   -3.5215    0.0000 C   0  0  0  0  0  0  0  0  0  0  0  0
  -16.0469   -2.8071    0.0000 C   0  0  0  0  0  0  0  0  0  0  0  0
  -16.8438   -2.5935    0.0000 O   0  0  0  0  0  0  0  0  0  0  0  0
  -15.3324   -2.3946    0.0000 C   0  0  0  0  0  0  0  0  0  0  0  0
  -14.6179   -2.8071    0.0000 C   0  0  0  0  0  0  0  0  0  0  0  0
  -14.1048   -1.8179    0.0000 C   0  0  0  0  0  0  0  0  0  0  0  0
  -16.9360   -1.4452    0.0000 O   0  0  0  0  0  0  0  0  0  0  0  0
  -12.0925   -3.2263    0.0000 C   0  0  0  0  0  0  0  0  0  0  0  0
  -17.6407   -2.8070    0.0000 C   0  0  0  0  0  0  0  0  0  0  0  0
  1  2  1  0
  2  3  1  0
  4  3  1  1
  4  5  1  0
  5  6  1  0
  5  7  1  1
  6  8  1  6
  6  9  1  0
  9 10  1  6
  9 11  1  0
 11 12  1  6
 11 13  1  0
 13 14  1  1
 13 15  1  0
 15 16  2  0
 16 17  1  0
 17 18  2  0
 18 19  1  0
 18 20  1  0
 20 21  2  0
 20 22  1  0
 22 23  1  0
 30 23  1  0
 23 31  2  0
 24 25  1  0
 24 31  1  0
 25 26  2  0
 26 27  1  0
 29 30  2  0
 31 32  1  0
 25 33  1  0
 29 34  1  0
 27 35  1  0
 27 28  2  0
 37 28  1  0
 35 36  1  0
 36 37  1  0
 37 38  2  0
 36 39  1  6
 36 40  1  0
 40 41  1  0
 41 42  2  0
 42 43  1  0
 43 44  1  6
 43 45  1  0
  4 45  1  0
 45 46  1  6
 26 47  1  0
  2 48  2  0
 24 49  2  0
 28 49  1  0
 49 29  1  0
 44 50  1  0
M  END
> <chembl_id>
CHEMBL437765

> <chembl_pref_name>
RIFAMYCIN
