
     RDKit          2D

 19 17  0  0  0  0  0  0  0  0999 V2000
    1.7792   -1.5375    0.0000 N   0  0  0  0  0  0  0  0  0  0  0  0
    4.2250   -2.4750    0.0000 O   0  0  0  0  0  0  0  0  0  0  0  0
    2.6375   -1.5375    0.0000 C   0  0  0  0  0  0  0  0  0  0  0  0
    1.2292   -2.4750    0.0000 C   0  0  0  0  0  0  0  0  0  0  0  0
    1.2292   -0.6167    0.0000 C   0  0  0  0  0  0  0  0  0  0  0  0
    3.1375   -2.4750    0.0000 C   0  0  0  0  0  0  0  0  0  0  0  0
   -1.6208   -1.4750    0.0000 C   0  0  0  0  0  0  0  0  0  0  0  0
   -2.5083    0.1583    0.0000 N   0  0  0  0  0  0  0  0  0  0  0  0
   -1.6083   -0.4792    0.0000 C   0  0  0  0  0  0  0  0  0  0  0  0
   -3.4833   -0.2917    0.0000 C   0  0  0  0  0  0  0  0  0  0  0  0
    0.4375    1.4958    0.0000 C   0  0  0  0  0  0  0  0  0  0  0  0
   -0.7458   -2.1042    0.0000 O   0  0  0  0  0  0  0  0  0  0  0  0
   -3.5833   -1.3417    0.0000 O   0  0  0  0  0  0  0  0  0  0  0  0
    0.5417    2.5708    0.0000 O   0  0  0  0  0  0  0  0  0  0  0  0
   -0.6375   -0.0292    0.0000 C   0  0  0  0  0  0  0  0  0  0  0  0
   -0.5333    1.0458    0.0000 C   0  0  0  0  0  0  0  0  0  0  0  0
   -2.5958   -1.9042    0.0000 O   0  0  0  0  0  0  0  0  0  0  0  0
    1.3542    0.8875    0.0000 O   0  0  0  0  0  0  0  0  0  0  0  0
   -4.3458    0.3375    0.0000 C   0  0  0  0  0  0  0  0  0  0  0  0
  2  6  1  0
  3  1  1  0
  4  1  1  0
  5  1  1  0
  6  3  1  0
  8  9  1  0
  9  7  1  0
 10  8  1  0
 11 16  1  0
 12  7  2  0
 13 10  2  0
 14 11  2  0
 15  9  1  0
 16 15  1  0
 17  7  1  0
 18 11  1  0
 19 10  1  0
M  END
> <chembl_id>
CHEMBL3833347

> <chembl_pref_name>
DEANOL ACEGLUMATE
