
     RDKit          2D

105113  0  0  0  0  0  0  0  0999 V2000
    3.4500   -6.8042    0.0000 Cl  0  0  0  0  0  0  0  0  0  0  0  0
   -2.3875   -4.5500    0.0000 C   0  0  0  0  0  0  0  0  0  0  0  0
    4.6417   -4.5417    0.0000 C   0  0  0  0  0  0  0  0  0  0  0  0
   -1.8083   -4.8875    0.0000 N   0  0  0  0  0  0  0  0  0  0  0  0
   -1.2458   -0.0292    0.0000 C   0  0  0  0  0  0  0  0  0  0  0  0
   -0.9083    0.5458    0.0000 C   0  0  0  0  0  0  0  0  0  0  0  0
   -2.9750   -5.8042    0.0000 N   0  0  0  0  0  0  0  0  0  0  0  0
   -2.9750   -4.8875    0.0000 C   0  0  0  0  0  0  0  0  0  0  0  0
   -0.0458   -4.5500    0.0000 N   0  0  0  0  0  0  0  0  0  0  0  0
    1.7125   -4.8875    0.0000 N   0  0  0  0  0  0  0  0  0  0  0  0
    4.0542   -4.8792    0.0000 C   0  0  0  0  0  0  0  0  0  0  0  0
   -1.8083   -7.1417    0.0000 C   0  0  0  0  0  0  0  0  0  0  0  0
   -1.2208   -4.5500    0.0000 C   0  0  0  0  0  0  0  0  0  0  0  0
   -2.3958   -6.8125    0.0000 C   0  0  0  0  0  0  0  0  0  0  0  0
    0.5417   -4.8875    0.0000 C   0  0  0  0  0  0  0  0  0  0  0  0
   -1.2208   -6.8042    0.0000 C   0  0  0  0  0  0  0  0  0  0  0  0
    1.1167   -2.3167    0.0000 C   0  0  0  0  0  0  0  0  0  0  0  0
   -2.3958   -6.1375    0.0000 C   0  0  0  0  0  0  0  0  0  0  0  0
   -1.9208   -0.0292    0.0000 C   0  0  0  0  0  0  0  0  0  0  0  0
    3.4750   -4.5417    0.0000 N   0  0  0  0  0  0  0  0  0  0  0  0
    1.1250   -4.5500    0.0000 C   0  0  0  0  0  0  0  0  0  0  0  0
    5.2250   -4.8792    0.0000 N   0  0  0  0  0  0  0  0  0  0  0  0
    1.7042   -2.6417    0.0000 C   0  0  0  0  0  0  0  0  0  0  0  0
    0.5417   -2.6542    0.0000 C   0  0  0  0  0  0  0  0  0  0  0  0
    2.2917   -4.5500    0.0000 C   0  0  0  0  0  0  0  0  0  0  0  0
   -0.6333   -4.8875    0.0000 C   0  0  0  0  0  0  0  0  0  0  0  0
   -1.2458    1.1333    0.0000 O   0  0  0  0  0  0  0  0  0  0  0  0
    1.1125   -1.6375    0.0000 O   0  0  0  0  0  0  0  0  0  0  0  0
   -3.0208   -2.1917    0.0000 C   0  0  0  0  0  0  0  0  0  0  0  0
    1.1250   -3.6667    0.0000 C   0  0  0  0  0  0  0  0  0  0  0  0
   -2.2583    0.5458    0.0000 C   0  0  0  0  0  0  0  0  0  0  0  0
   -0.0458   -2.3167    0.0000 O   0  0  0  0  0  0  0  0  0  0  0  0
    2.2917   -2.3042    0.0000 O   0  0  0  0  0  0  0  0  0  0  0  0
    2.8875   -4.8792    0.0000 C   0  0  0  0  0  0  0  0  0  0  0  0
   -1.8083   -7.8250    0.0000 C   0  0  0  0  0  0  0  0  0  0  0  0
   -2.0000   -1.6042    0.0000 C   0  0  0  0  0  0  0  0  0  0  0  0
    5.8125   -4.5417    0.0000 C   0  0  0  0  0  0  0  0  0  0  0  0
   -1.9208    1.1333    0.0000 C   0  0  0  0  0  0  0  0  0  0  0  0
   -2.3833   -3.6792    0.0000 C   0  0  0  0  0  0  0  0  0  0  0  0
    4.6417   -3.6750    0.0000 C   0  0  0  0  0  0  0  0  0  0  0  0
   -2.3375   -2.1917    0.0000 C   0  0  0  0  0  0  0  0  0  0  0  0
   -1.2250   -6.1292    0.0000 C   0  0  0  0  0  0  0  0  0  0  0  0
   -2.3458   -1.0167    0.0000 O   0  0  0  0  0  0  0  0  0  0  0  0
   -0.6458   -5.8000    0.0000 C   0  0  0  0  0  0  0  0  0  0  0  0
   -3.3625   -1.6125    0.0000 C   0  0  0  0  0  0  0  0  0  0  0  0
    2.8875   -5.5542    0.0000 C   0  0  0  0  0  0  0  0  0  0  0  0
   -1.8000   -3.3375    0.0000 C   0  0  0  0  0  0  0  0  0  0  0  0
    4.0542   -3.3042    0.0000 C   0  0  0  0  0  0  0  0  0  0  0  0
   -0.9083   -0.6167    0.0000 O   0  0  0  0  0  0  0  0  0  0  0  0
   -2.0583   -5.5417    0.0000 C   0  0  0  0  0  0  0  0  0  0  0  0
    1.7125   -3.3250    0.0000 C   0  0  0  0  0  0  0  0  0  0  0  0
    0.5417   -3.3292    0.0000 C   0  0  0  0  0  0  0  0  0  0  0  0
   -0.6333   -2.6542    0.0000 C   0  0  0  0  0  0  0  0  0  0  0  0
    2.8792   -2.6375    0.0000 C   0  0  0  0  0  0  0  0  0  0  0  0
   -3.0250   -1.0167    0.0000 C   0  0  0  0  0  0  0  0  0  0  0  0
   -2.3958   -8.1667    0.0000 C   0  0  0  0  0  0  0  0  0  0  0  0
    3.4542   -2.3000    0.0000 C   0  0  0  0  0  0  0  0  0  0  0  0
   -0.6333   -3.3375    0.0000 C   0  0  0  0  0  0  0  0  0  0  0  0
    2.3000   -5.9000    0.0000 C   0  0  0  0  0  0  0  0  0  0  0  0
    4.0417   -2.6250    0.0000 C   0  0  0  0  0  0  0  0  0  0  0  0
   -1.2125   -3.6792    0.0000 C   0  0  0  0  0  0  0  0  0  0  0  0
   -0.6333   -7.1417    0.0000 C   0  0  0  0  0  0  0  0  0  0  0  0
   -2.9750   -7.1500    0.0000 C   0  0  0  0  0  0  0  0  0  0  0  0
    6.4042   -4.8792    0.0000 C   0  0  0  0  0  0  0  0  0  0  0  0
   -3.5583   -4.5500    0.0000 O   0  0  0  0  0  0  0  0  0  0  0  0
    4.0542   -5.5542    0.0000 O   0  0  0  0  0  0  0  0  0  0  0  0
   -1.2208   -3.9292    0.0000 O   0  0  0  0  0  0  0  0  0  0  0  0
    0.5375   -5.5625    0.0000 O   0  0  0  0  0  0  0  0  0  0  0  0
   -2.9750   -7.8250    0.0000 C   0  0  0  0  0  0  0  0  0  0  0  0
    2.2917   -3.8667    0.0000 O   0  0  0  0  0  0  0  0  0  0  0  0
    5.8125   -3.8625    0.0000 O   0  0  0  0  0  0  0  0  0  0  0  0
   -0.0458   -6.1292    0.0000 C   0  0  0  0  0  0  0  0  0  0  0  0
   -1.8000   -2.6542    0.0000 C   0  0  0  0  0  0  0  0  0  0  0  0
    3.4750   -3.6542    0.0000 C   0  0  0  0  0  0  0  0  0  0  0  0
   -2.4000   -4.9625    0.0000 O   0  0  0  0  0  0  0  0  0  0  0  0
   -1.2125   -2.3250    0.0000 C   0  0  0  0  0  0  0  0  0  0  0  0
    2.8792   -3.3167    0.0000 C   0  0  0  0  0  0  0  0  0  0  0  0
    2.3042   -6.5792    0.0000 O   0  0  0  0  0  0  0  0  0  0  0  0
    6.4042   -5.5542    0.0000 C   0  0  0  0  0  0  0  0  0  0  0  0
   -3.6083   -2.5292    0.0000 N   0  0  0  0  0  0  0  0  0  0  0  0
   -0.0458   -6.8042    0.0000 C   0  0  0  0  0  0  0  0  0  0  0  0
   -2.2583   -0.6167    0.0000 O   0  0  0  0  0  0  0  0  0  0  0  0
   -2.9375    0.5458    0.0000 O   0  0  0  0  0  0  0  0  0  0  0  0
   -1.2208   -8.1542    0.0000 O   0  0  0  0  0  0  0  0  0  0  0  0
    6.9792   -4.5417    0.0000 N   0  0  0  0  0  0  0  0  0  0  0  0
    1.7167   -5.5625    0.0000 N   0  0  0  0  0  0  0  0  0  0  0  0
   -4.0375   -1.6125    0.0000 O   0  0  0  0  0  0  0  0  0  0  0  0
    3.4500   -1.6167    0.0000 Cl  0  0  0  0  0  0  0  0  0  0  0  0
   -0.0375   -3.6792    0.0000 Cl  0  0  0  0  0  0  0  0  0  0  0  0
   -2.9708   -3.3375    0.0000 O   0  0  0  0  0  0  0  0  0  0  0  0
    5.2292   -3.3417    0.0000 O   0  0  0  0  0  0  0  0  0  0  0  0
   -1.3750   -5.5375    0.0000 O   0  0  0  0  0  0  0  0  0  0  0  0
   -0.6333   -7.8250    0.0000 O   0  0  0  0  0  0  0  0  0  0  0  0
   -2.2583    1.7250    0.0000 C   0  0  0  0  0  0  0  0  0  0  0  0
   -3.5625   -8.1625    0.0000 O   0  0  0  0  0  0  0  0  0  0  0  0
   -3.0250   -2.8750    0.0000 C   0  0  0  0  0  0  0  0  0  0  0  0
   -2.9333    1.7250    0.0000 O   0  0  0  0  0  0  0  0  0  0  0  0
   -3.3625   -0.4292    0.0000 C   0  0  0  0  0  0  0  0  0  0  0  0
    5.8125   -5.8917    0.0000 C   0  0  0  0  0  0  0  0  0  0  0  0
    7.5667   -4.8792    0.0000 C   0  0  0  0  0  0  0  0  0  0  0  0
    5.8125   -6.5750    0.0000 C   0  0  0  0  0  0  0  0  0  0  0  0
    5.2250   -5.5542    0.0000 C   0  0  0  0  0  0  0  0  0  0  0  0
   -0.0500   -5.2250    0.0000 H   0  0  0  0  0  0  0  0  0  0  0  0
    0.5375   -4.2042    0.0000 H   0  0  0  0  0  0  0  0  0  0  0  0
   -2.8833   -4.0708    0.0000 H   0  0  0  0  0  0  0  0  0  0  0  0
  3 11  1  0
  4  2  1  0
  5  6  1  0
  6 28  1  1
  7  8  1  0
  8  2  1  0
  9 26  1  0
 10 21  1  0
 11 20  1  0
 12 14  1  0
 13  4  1  0
 14 18  1  0
 15  9  1  0
 16 12  1  0
 17 24  1  0
 18  7  1  0
 19  5  1  0
 20 34  1  0
 21 15  1  0
  3 22  1  1
 23 17  2  0
 24 32  1  0
 25 10  1  0
 26 13  1  0
 27  6  1  0
 28 17  1  0
 29 41  1  0
 30 21  1  0
 31 38  1  0
 32 53  1  0
 33 23  1  0
 34 25  1  0
 35 12  2  0
 36 49  1  1
 37 22  1  0
 38 27  1  0
 39  2  1  0
 40  3  1  0
 41 36  1  0
 42 44  2  0
 43 36  1  0
 44 26  1  0
 45 55  1  0
 34 46  1  1
 47 39  1  0
 48 74  2  0
  5 49  1  6
 18 50  1  6
 51 30  2  0
 52 24  2  0
 53 76  2  0
 54 33  1  0
 55 43  1  0
 56 69  2  0
 57 54  1  0
 58 61  2  0
 59 46  1  0
 60 57  2  0
 61 47  1  0
 62 16  2  0
 63 14  2  0
 64 37  1  0
 65  8  2  0
 66 11  2  0
 67 13  2  0
 68 15  2  0
 69 63  1  0
 70 25  2  0
 71 37  2  0
 72 44  1  0
 73 47  2  0
 74 77  1  0
 75 50  2  0
 76 73  1  0
 77 54  2  0
 78 59  2  0
 64 79  1  6
 29 80  1  6
 81 72  2  0
 19 82  1  1
 31 83  1  6
 84 35  1  0
 85 64  1  0
 86 59  1  0
 45 87  1  6
 88 57  1  0
 89 58  1  0
 39 90  1  6
 40 91  1  1
 92 50  1  0
 93 62  1  0
 38 94  1  1
 95 69  1  0
 29 96  1  0
 97 94  1  0
 55 98  1  6
 99 79  1  0
100 85  1  0
101 99  1  0
102 99  1  0
 26103  1  1
 21104  1  6
  2105  1  1
 58 53  1  0
 42 16  1  0
 62 81  1  0
 35 56  1  0
 30 52  1  0
 51 23  1  0
 19 31  1  0
 60 48  1  0
 48 40  1  0
 29 45  1  0
M  END
> <chembl_id>
CHEMBL1200628

> <chembl_pref_name>
VANCOMYCIN HYDROCHLORIDE
