
     RDKit          2D

 30 32  0  0  0  0  0  0  0  0999 V2000
   -2.2792    1.2536    0.0000 C   0  0  0  0  0  0  0  0  0  0  0  0
   -2.9937    0.8411    0.0000 N   0  0  0  0  0  0  0  0  0  0  0  0
   -2.9937    0.0161    0.0000 C   0  0  0  0  0  0  0  0  0  0  0  0
   -2.2792   -0.3964    0.0000 C   0  0  0  0  0  0  0  0  0  0  0  0
   -1.5648    0.0161    0.0000 C   0  0  0  0  0  0  0  0  0  0  0  0
   -1.5648    0.8411    0.0000 C   0  0  0  0  0  0  0  0  0  0  0  0
   -0.1106   -0.2005    0.0000 S   0  0  0  0  0  0  0  0  0  0  0  0
   -0.8929   -0.4627    0.0000 C   0  0  0  0  0  0  0  0  0  0  0  0
   -0.8853   -1.2876    0.0000 C   0  0  0  0  0  0  0  0  0  0  0  0
   -0.0983   -1.5353    0.0000 N   0  0  0  0  0  0  0  0  0  0  0  0
    0.3804   -0.8635    0.0000 C   0  0  0  0  0  0  0  0  0  0  0  0
    2.9281   -0.8870    0.0000 C   0  0  0  0  0  0  0  0  0  0  0  0
    2.4494   -1.5589    0.0000 N   0  0  0  0  0  0  0  0  0  0  0  0
    2.9404   -2.2218    0.0000 C   0  0  0  0  0  0  0  0  0  0  0  0
    3.7227   -1.9597    0.0000 C   0  0  0  0  0  0  0  0  0  0  0  0
    3.7151   -1.1348    0.0000 C   0  0  0  0  0  0  0  0  0  0  0  0
   -2.3914    2.0481    0.0000 C   0  0  0  0  0  0  0  0  0  0  0  0
   -3.1859    1.9878    0.0000 C   0  0  0  0  0  0  0  0  0  0  0  0
   -2.9452    2.8686    0.0000 C   0  0  0  0  0  0  0  0  0  0  0  0
   -1.8047    2.7058    0.0000 C   0  0  0  0  0  0  0  0  0  0  0  0
   -1.5482   -1.7787    0.0000 C   0  0  0  0  0  0  0  0  0  0  0  0
    1.2054   -0.8559    0.0000 N   0  0  0  0  0  0  0  0  0  0  0  0
    1.6244   -1.5665    0.0000 C   0  0  0  0  0  0  0  0  0  0  0  0
    1.2567   -2.3050    0.0000 O   0  0  0  0  0  0  0  0  0  0  0  0
    2.6660   -0.1048    0.0000 C   0  0  0  0  0  0  0  0  0  0  0  0
    3.2124    0.5134    0.0000 N   0  0  0  0  0  0  0  0  0  0  0  0
    1.8575    0.0593    0.0000 O   0  0  0  0  0  0  0  0  0  0  0  0
   -1.9762    3.5127    0.0000 F   0  0  0  0  0  0  0  0  0  0  0  0
   -1.2527    3.3189    0.0000 F   0  0  0  0  0  0  0  0  0  0  0  0
   -0.9808    2.7489    0.0000 F   0  0  0  0  0  0  0  0  0  0  0  0
  1  2  1  0
  2  3  2  0
  3  4  1  0
  4  5  2  0
  5  6  1  0
  1  6  2  0
  7  8  1  0
  8  9  2  0
  9 10  1  0
 10 11  2  0
  7 11  1  0
 12 13  1  0
 13 14  1  0
 14 15  1  0
 15 16  1  0
 12 16  1  0
  1 17  1  0
 17 18  1  0
 17 19  1  0
 17 20  1  0
  5  8  1  0
  9 21  1  0
 11 22  1  0
 22 23  1  0
 23 13  1  0
 23 24  2  0
 12 25  1  6
 25 26  1  0
 25 27  2  0
 20 28  1  0
 20 29  1  0
 20 30  1  0
M  END
> <chembl_id>
CHEMBL2396661

> <chembl_pref_name>
ALPELISIB
