
     RDKit          2D

 25 24  0  0  0  0  0  0  0  0999 V2000
   -0.0583    1.6625    0.0000 Ca  0  0  0  0  0 15  0  0  0  0  0  0
   -2.5208    1.0708    0.0000 S   0  0  0  0  0  0  0  0  0  0  0  0
   -2.5208    0.1333    0.0000 C   0  0  0  0  0  0  0  0  0  0  0  0
   -3.3458   -0.3417    0.0000 C   0  0  0  0  0  0  0  0  0  0  0  0
   -1.5583    1.0708    0.0000 O   0  0  0  0  0  0  0  0  0  0  0  0
   -3.4375    1.0708    0.0000 O   0  0  0  0  0  0  0  0  0  0  0  0
   -2.5208    1.9583    0.0000 O   0  0  0  0  0  0  0  0  0  0  0  0
   -1.7000   -0.3417    0.0000 C   0  0  0  0  0  0  0  0  0  0  0  0
   -1.7000   -1.3167    0.0000 C   0  0  0  0  0  0  0  0  0  0  0  0
   -3.3458   -1.3167    0.0000 C   0  0  0  0  0  0  0  0  0  0  0  0
   -2.5208   -1.8000    0.0000 C   0  0  0  0  0  0  0  0  0  0  0  0
   -0.8500    0.1333    0.0000 O   0  0  0  0  0  0  0  0  0  0  0  0
   -4.1625   -1.8000    0.0000 O   0  0  0  0  0  0  0  0  0  0  0  0
    2.5917    0.9875    0.0000 S   0  0  0  0  0  0  0  0  0  0  0  0
    2.5917    0.0458    0.0000 C   0  0  0  0  0  0  0  0  0  0  0  0
    3.4167   -0.4292    0.0000 C   0  0  0  0  0  0  0  0  0  0  0  0
    1.5667    0.9875    0.0000 O   0  0  0  0  0  0  0  0  0  0  0  0
    3.5292    0.9875    0.0000 O   0  0  0  0  0  0  0  0  0  0  0  0
    2.5917    1.9708    0.0000 O   0  0  0  0  0  0  0  0  0  0  0  0
    1.7750   -0.4292    0.0000 C   0  0  0  0  0  0  0  0  0  0  0  0
    1.7750   -1.4000    0.0000 C   0  0  0  0  0  0  0  0  0  0  0  0
    3.4167   -1.4000    0.0000 C   0  0  0  0  0  0  0  0  0  0  0  0
    2.5917   -1.8792    0.0000 C   0  0  0  0  0  0  0  0  0  0  0  0
    0.9250    0.0458    0.0000 O   0  0  0  0  0  0  0  0  0  0  0  0
    4.2375   -1.8792    0.0000 O   0  0  0  0  0  0  0  0  0  0  0  0
  3  2  1  0
  4  3  2  0
  5  2  1  0
  6  2  2  0
  7  2  2  0
  8  3  1  0
  9  8  2  0
 10  4  1  0
 11  9  1  0
 12  8  1  0
 13 10  1  0
 10 11  2  0
 15 14  1  0
 16 15  1  0
 17 14  1  0
 18 14  2  0
 19 14  2  0
 20 15  2  0
 21 20  1  0
 22 16  2  0
 23 21  2  0
 24 20  1  0
 25 22  1  0
 22 23  1  0
M  CHG  3   1   2   5  -1  17  -1
M  END
> <chembl_id>
CHEMBL2106191

> <chembl_pref_name>
CALCIUM DOBESILATE
