
     RDKit          2D

 25 27  0  0  1  0  0  0  0  0999 V2000
    4.4156   -2.9854    0.0000 S   0  0  0  0  0  0  0  0  0  0  0  0
   11.0287   -3.9189    0.0000 F   0  0  0  0  0  0  0  0  0  0  0  0
   10.6754   -2.6168    0.0000 F   0  0  0  0  0  0  0  0  0  0  0  0
    9.7265   -4.2722    0.0000 F   0  0  0  0  0  0  0  0  0  0  0  0
    8.5484   -3.4496    0.0000 O   0  0  0  0  0  0  0  0  0  0  0  0
    4.4126   -2.0313    0.0000 O   0  0  0  0  0  0  0  0  0  0  0  0
    2.7235   -3.0812    0.0000 N   0  0  0  0  0  0  0  0  0  0  0  0
    3.4955   -4.4087    0.0000 N   0  0  0  0  0  0  0  0  0  0  0  0
    6.0652   -2.0262    0.0000 N   0  0  0  0  0  0  0  0  0  0  0  0
    5.2434   -3.4599    0.0000 C   0  0  0  0  0  0  0  0  0  0  0  0
    6.0681   -2.9803    0.0000 C   0  0  0  0  0  0  0  0  0  0  0  0
    6.8959   -3.4547    0.0000 C   0  0  0  0  0  0  0  0  0  0  0  0
    3.5909   -3.4651    0.0000 C   0  0  0  0  0  0  0  0  0  0  0  0
    2.0892   -3.7864    0.0000 C   0  0  0  0  0  0  0  0  0  0  0  0
    2.5688   -4.6112    0.0000 C   0  0  0  0  0  0  0  0  0  0  0  0
    7.7207   -2.9751    0.0000 C   0  0  0  0  0  0  0  0  0  0  0  0
    6.8988   -4.4088    0.0000 C   0  0  0  0  0  0  0  0  0  0  0  0
    1.1352   -3.7894    0.0000 C   0  0  0  0  0  0  0  0  0  0  0  0
    7.7177   -2.0211    0.0000 C   0  0  0  0  0  0  0  0  0  0  0  0
    2.0944   -5.4389    0.0000 C   0  0  0  0  0  0  0  0  0  0  0  0
    6.8900   -1.5466    0.0000 C   0  0  0  0  0  0  0  0  0  0  0  0
    0.6607   -4.6171    0.0000 C   0  0  0  0  0  0  0  0  0  0  0  0
    1.1403   -5.4419    0.0000 C   0  0  0  0  0  0  0  0  0  0  0  0
    9.3732   -2.9700    0.0000 C   0  0  0  0  0  0  0  0  0  0  0  0
   10.2009   -3.4445    0.0000 C   0  0  0  0  0  0  0  0  0  0  0  0
  1  6  1  0
  1 10  1  6
  1 13  1  0
  2 25  1  0
  3 25  1  0
  4 25  1  0
  5 16  1  0
  5 24  1  0
  7 13  1  0
  7 14  1  0
  8 13  2  0
  8 15  1  0
  9 11  2  0
  9 21  1  0
 10 11  1  0
 11 12  1  0
 12 16  2  0
 12 17  1  0
 14 15  1  0
 14 18  2  0
 15 20  2  0
 16 19  1  0
 18 22  1  0
 19 21  2  0
 20 23  1  0
 22 23  2  0
 24 25  1  0
M  CHG  2   1   1   6  -1
M  END
> <chembl_id>
CHEMBL1201863

> <chembl_pref_name>
DEXLANSOPRAZOLE
