
     RDKit          2D

 11 10  0  0  0  0  0  0  0  0999 V2000
    8.3000   -7.0625    0.0000 Na  0  0  0  0  0 15  0  0  0  0  0  0
    7.0917   -6.6542    0.0000 C   0  0  0  0  0  0  0  0  0  0  0  0
    7.6917   -7.0167    0.0000 O   0  0  0  0  0  0  0  0  0  0  0  0
    7.0917   -5.9500    0.0000 O   0  0  0  0  0  0  0  0  0  0  0  0
    6.4625   -7.0042    0.0000 C   0  0  0  0  0  0  0  0  0  0  0  0
    5.8542   -6.6417    0.0000 C   0  0  0  0  0  0  0  0  0  0  0  0
    5.2292   -6.9917    0.0000 C   0  0  0  0  0  0  0  0  0  0  0  0
    5.8667   -5.9417    0.0000 C   0  0  0  0  0  0  0  0  0  0  0  0
    5.2542   -5.5750    0.0000 C   0  0  0  0  0  0  0  0  0  0  0  0
    4.6250   -6.6250    0.0000 C   0  0  0  0  0  0  0  0  0  0  0  0
    4.6250   -5.9250    0.0000 C   0  0  0  0  0  0  0  0  0  0  0  0
  3  2  1  0
  4  2  2  0
  5  2  1  0
  6  5  1  0
  7  6  2  0
  8  6  1  0
  9  8  2  0
 10  7  1  0
 11 10  2  0
 11  9  1  0
M  CHG  2   1   1   3  -1
M  END
> <chembl_id>
CHEMBL1200358

> <chembl_pref_name>
SODIUM PHENYLACETATE
