
     RDKit          2D

 25 26  0  0  0  0  0  0  0  0999 V2000
    3.8250   -3.8750    0.0000 Cl  0  0  0  0  0  0  0  0  0  0  0  0
    0.8917   -2.9167    0.0000 C   0  0  0  0  0  0  0  0  0  0  0  0
    0.2875   -3.2875    0.0000 C   0  0  0  0  0  0  0  0  0  0  0  0
    0.8917   -2.2042    0.0000 C   0  0  0  0  0  0  0  0  0  0  0  0
    4.6125   -0.8417    0.0000 C   0  0  0  0  0  0  0  0  0  0  0  0
    3.9792   -1.2042    0.0000 C   0  0  0  0  0  0  0  0  0  0  0  0
    1.5167   -1.8750    0.0000 N   0  0  0  0  0  0  0  0  0  0  0  0
    3.9792   -1.9042    0.0000 C   0  0  0  0  0  0  0  0  0  0  0  0
    3.3750   -0.8250    0.0000 C   0  0  0  0  0  0  0  0  0  0  0  0
    0.2875   -4.0000    0.0000 C   0  0  0  0  0  0  0  0  0  0  0  0
    2.1250   -2.2417    0.0000 C   0  0  0  0  0  0  0  0  0  0  0  0
    2.7542   -1.8750    0.0000 C   0  0  0  0  0  0  0  0  0  0  0  0
    3.3542   -2.2417    0.0000 C   0  0  0  0  0  0  0  0  0  0  0  0
    2.7542   -1.2042    0.0000 C   0  0  0  0  0  0  0  0  0  0  0  0
    1.4917   -3.2875    0.0000 C   0  0  0  0  0  0  0  0  0  0  0  0
    1.4917   -4.0000    0.0000 C   0  0  0  0  0  0  0  0  0  0  0  0
    4.9625   -0.2208    0.0000 C   0  0  0  0  0  0  0  0  0  0  0  0
    4.2542   -0.2208    0.0000 C   0  0  0  0  0  0  0  0  0  0  0  0
    5.2417   -1.2000    0.0000 C   0  0  0  0  0  0  0  0  0  0  0  0
   -0.3250   -2.9167    0.0000 C   0  0  0  0  0  0  0  0  0  0  0  0
    1.5167   -1.1625    0.0000 C   0  0  0  0  0  0  0  0  0  0  0  0
    0.8917   -4.3375    0.0000 C   0  0  0  0  0  0  0  0  0  0  0  0
   -0.3250   -4.3375    0.0000 C   0  0  0  0  0  0  0  0  0  0  0  0
   -0.9458   -3.2875    0.0000 C   0  0  0  0  0  0  0  0  0  0  0  0
   -0.9458   -4.0000    0.0000 C   0  0  0  0  0  0  0  0  0  0  0  0
  3  2  1  0
  4  2  1  0
  5  6  1  0
  6  9  2  0
  7  4  1  0
  8 13  2  0
  9 14  1  0
 10  3  2  0
 11  7  1  0
 12 11  1  0
 13 12  1  0
 14 12  2  0
 15  2  2  0
 16 15  1  0
 17  5  1  0
 18  5  1  0
 19  5  1  0
 20  3  1  0
 21  7  1  0
 22 10  1  0
 23 10  1  0
 24 20  2  0
 25 24  1  0
 16 22  2  0
 23 25  2  0
  8  6  1  0
M  END
> <chembl_id>
CHEMBL1200397

> <chembl_pref_name>
BUTENAFINE HYDROCHLORIDE
