
     RDKit          2D

 39 42  0  0  1  0  0  0  0  0999 V2000
    7.0583   -5.1667    0.0000 C   0  0  0  0  0  0  0  0  0  0  0  0
    7.7333   -4.9542    0.0000 C   0  0  0  0  0  0  0  0  0  0  0  0
    5.2125   -6.2167    0.0000 C   0  0  0  0  0  0  0  0  0  0  0  0
    7.0500   -5.8708    0.0000 C   0  0  0  0  0  0  0  0  0  0  0  0
    5.8250   -5.8625    0.0000 C   0  0  0  0  0  0  0  0  0  0  0  0
    6.4375   -6.2208    0.0000 C   0  0  0  0  0  0  0  0  0  0  0  0
    5.2125   -6.9250    0.0000 C   0  0  0  0  0  0  0  0  0  0  0  0
    5.8292   -5.1542    0.0000 C   0  0  0  0  0  0  0  0  0  0  0  0
    6.4458   -4.8042    0.0000 C   0  0  0  0  0  0  0  0  0  0  0  0
    8.1417   -5.5292    0.0000 C   0  0  0  0  0  0  0  0  0  0  0  0
    6.4333   -6.9292    0.0000 C   0  0  0  0  0  0  0  0  0  0  0  0
    4.6000   -5.8625    0.0000 C   0  0  0  0  0  0  0  0  0  0  0  0
    7.7208   -6.1000    0.0000 C   0  0  0  0  0  0  0  0  0  0  0  0
    4.6000   -7.2792    0.0000 C   0  0  0  0  0  0  0  0  0  0  0  0
    7.7292   -4.2417    0.0000 C   0  0  0  0  0  0  0  0  0  0  0  0
    5.8208   -7.2792    0.0000 C   0  0  0  0  0  0  0  0  0  0  0  0
    8.3417   -4.5917    0.0000 O   0  0  0  0  0  0  0  0  0  0  0  0
    3.9917   -6.2167    0.0000 C   0  0  0  0  0  0  0  0  0  0  0  0
    3.9917   -6.9250    0.0000 C   0  0  0  0  0  0  0  0  0  0  0  0
    9.0542   -4.5917    0.0000 C   0  0  0  0  0  0  0  0  0  0  0  0
    6.4917   -2.8375    0.0000 C   0  0  0  0  0  0  0  0  0  0  0  0
    7.1125   -3.8958    0.0000 C   0  0  0  0  0  0  0  0  0  0  0  0
    8.3375   -3.8833    0.0000 O   0  0  0  0  0  0  0  0  0  0  0  0
    7.1042   -3.1875    0.0000 O   0  0  0  0  0  0  0  0  0  0  0  0
    9.4083   -5.2042    0.0000 O   0  0  0  0  0  0  0  0  0  0  0  0
    6.4833   -2.1292    0.0000 O   0  0  0  0  0  0  0  0  0  0  0  0
    3.3750   -7.2750    0.0000 O   0  0  0  0  0  0  0  0  0  0  0  0
    7.0458   -7.2833    0.0000 Cl  0  0  0  0  0  0  0  0  0  0  0  0
    7.0542   -4.4542    0.0000 C   0  0  0  0  0  0  0  0  0  0  0  0
    5.2167   -4.7958    0.0000 O   0  0  0  0  0  0  0  0  0  0  0  0
    5.2042   -5.5042    0.0000 C   0  0  0  0  0  0  0  0  0  0  0  0
    8.8500   -5.5375    0.0000 C   0  0  0  0  0  0  0  0  0  0  0  0
    9.4042   -3.9750    0.0000 C   0  0  0  0  0  0  0  0  0  0  0  0
    5.8792   -3.1958    0.0000 C   0  0  0  0  0  0  0  0  0  0  0  0
    5.2625   -2.8458    0.0000 C   0  0  0  0  0  0  0  0  0  0  0  0
   10.1125   -3.9750    0.0000 C   0  0  0  0  0  0  0  0  0  0  0  0
    7.0417   -6.5792    0.0000 H   0  0  0  0  0  0  0  0  0  0  0  0
    6.4292   -5.5125    0.0000 H   0  0  0  0  0  0  0  0  0  0  0  0
    5.8167   -6.5667    0.0000 H   0  0  0  0  0  0  0  0  0  0  0  0
  2  1  1  0
  3  5  1  0
  4  1  1  0
  5  6  1  0
  6  4  1  0
  7  3  1  0
  8  9  1  0
  9  1  1  0
 10  2  1  0
 11  6  1  0
 12  3  1  0
 13  4  1  0
 14  7  2  0
  2 15  1  1
 16 11  1  0
 17  2  1  0
 18 12  2  0
 19 14  1  0
 20 17  1  0
 21 24  1  0
 22 15  1  0
 23 15  2  0
 24 22  1  0
 25 20  2  0
 26 21  2  0
 27 19  2  0
 11 28  1  6
  1 29  1  1
  8 30  1  1
  3 31  1  1
 10 32  1  6
 33 20  1  0
 34 21  1  0
 35 34  1  0
 36 33  1  0
  4 37  1  6
  6 38  1  1
  5 39  1  6
 10 13  1  0
  8  5  1  0
 16  7  1  0
 19 18  1  0
M  END
> <chembl_id>
CHEMBL1200989

> <chembl_pref_name>
ALCLOMETASONE DIPROPIONATE
