
     RDKit          2D

 21 20  0  0  0  0  0  0  0  0999 V2000
    3.5845   -3.3196    0.0000 O   0  0  0  0  0  0  0  0  0  0  0  0
    5.0089   -2.4780    0.0000 O   0  0  0  0  0  0  0  0  0  0  0  0
    5.0089   -0.8299    0.0000 O   0  0  0  0  0  0  0  0  0  0  0  0
    1.4362   -2.0718    0.0000 N   0  0  0  0  0  0  0  0  0  0  0  0
    0.0000   -1.2478    0.0000 N   0  0  0  0  0  0  0  0  0  0  0  0
    3.5845   -2.4780    0.0000 C   0  0  0  0  0  0  0  0  0  0  0  0
    4.3026   -2.0718    0.0000 C   0  0  0  0  0  0  0  0  0  0  0  0
    2.8664   -2.0718    0.0000 C   0  0  0  0  0  0  0  0  0  0  0  0
    4.3026   -1.2478    0.0000 C   0  0  0  0  0  0  0  0  0  0  0  0
    2.8664   -1.2478    0.0000 C   0  0  0  0  0  0  0  0  0  0  0  0
    3.5845   -0.8299    0.0000 C   0  0  0  0  0  0  0  0  0  0  0  0
    2.1484   -2.4780    0.0000 C   0  0  0  0  0  0  0  0  0  0  0  0
    0.7181   -2.4780    0.0000 C   0  0  0  0  0  0  0  0  0  0  0  0
    1.4362   -1.2478    0.0000 C   0  0  0  0  0  0  0  0  0  0  0  0
    2.8664   -3.7258    0.0000 C   0  0  0  0  0  0  0  0  0  0  0  0
    0.0000   -2.0718    0.0000 C   0  0  0  0  0  0  0  0  0  0  0  0
    0.7181   -0.8299    0.0000 C   0  0  0  0  0  0  0  0  0  0  0  0
    5.7270   -2.0718    0.0000 C   0  0  0  0  0  0  0  0  0  0  0  0
    5.0089    0.0000    0.0000 C   0  0  0  0  0  0  0  0  0  0  0  0
    4.6381   -3.1784    0.0000 Cl  0  0  0  0  0  0  0  0  0  0  0  0
    5.8859   -3.2490    0.0000 Cl  0  0  0  0  0  0  0  0  0  0  0  0
  1  6  1  0
  1 15  1  0
  2  7  1  0
  2 18  1  0
  3  9  1  0
  3 19  1  0
  4 12  1  0
  4 13  1  0
  4 14  1  0
  5 16  1  0
  5 17  1  0
  6  7  1  0
  6  8  2  0
  7  9  2  0
  8 10  1  0
  8 12  1  0
  9 11  1  0
 10 11  2  0
 13 16  1  0
 14 17  1  0
M  END
> <chembl_id>
CHEMBL3561076

> <chembl_pref_name>
TRIMETAZIDINE DIHYDROCHLORIDE
