
     RDKit          2D

 47 52  0  0  0  0  0  0  0  0999 V2000
    2.6125   -3.8375    0.0000 C   0  0  0  0  0  0  0  0  0  0  0  0
    0.7667   -4.8875    0.0000 C   0  0  0  0  0  0  0  0  0  0  0  0
    2.6042   -4.5417    0.0000 C   0  0  0  0  0  0  0  0  0  0  0  0
    3.2875   -3.6250    0.0000 C   0  0  0  0  0  0  0  0  0  0  0  0
    1.3792   -4.5292    0.0000 C   0  0  0  0  0  0  0  0  0  0  0  0
    3.6917   -4.1958    0.0000 C   0  0  0  0  0  0  0  0  0  0  0  0
    1.9917   -4.8917    0.0000 C   0  0  0  0  0  0  0  0  0  0  0  0
   -0.4583   -4.8875    0.0000 C   0  0  0  0  0  0  0  0  0  0  0  0
    4.4000   -4.2042    0.0000 N   0  0  0  0  0  0  0  0  0  0  0  0
   -0.4583   -5.5917    0.0000 C   0  0  0  0  0  0  0  0  0  0  0  0
    0.1542   -4.5292    0.0000 C   0  0  0  0  0  0  0  0  0  0  0  0
    3.2750   -4.7667    0.0000 C   0  0  0  0  0  0  0  0  0  0  0  0
   -1.0708   -4.5292    0.0000 N   0  0  0  0  0  0  0  0  0  0  0  0
    0.7667   -5.5917    0.0000 C   0  0  0  0  0  0  0  0  0  0  0  0
    5.8167   -4.2250    0.0000 N   0  0  0  0  0  0  0  0  0  0  0  0
   -2.2958   -3.8167    0.0000 N   0  0  0  0  0  0  0  0  0  0  0  0
    2.0000   -3.4750    0.0000 C   0  0  0  0  0  0  0  0  0  0  0  0
    3.2792   -2.9167    0.0000 O   0  0  0  0  0  0  0  0  0  0  0  0
    0.1542   -5.9500    0.0000 C   0  0  0  0  0  0  0  0  0  0  0  0
    1.3792   -3.8250    0.0000 C   0  0  0  0  0  0  0  0  0  0  0  0
   -1.0708   -5.9417    0.0000 O   0  0  0  0  0  0  0  0  0  0  0  0
    1.9875   -5.6000    0.0000 C   0  0  0  0  0  0  0  0  0  0  0  0
    3.8917   -2.5542    0.0000 C   0  0  0  0  0  0  0  0  0  0  0  0
   -1.0708   -6.6542    0.0000 C   0  0  0  0  0  0  0  0  0  0  0  0
    1.3750   -5.9500    0.0000 C   0  0  0  0  0  0  0  0  0  0  0  0
    4.7500   -4.8250    0.0000 C   0  0  0  0  0  0  0  0  0  0  0  0
    4.7542   -3.6000    0.0000 C   0  0  0  0  0  0  0  0  0  0  0  0
   -1.0708   -3.8167    0.0000 C   0  0  0  0  0  0  0  0  0  0  0  0
   -1.6833   -4.8875    0.0000 C   0  0  0  0  0  0  0  0  0  0  0  0
   -0.4583   -7.0125    0.0000 O   0  0  0  0  0  0  0  0  0  0  0  0
    3.8875   -1.8417    0.0000 O   0  0  0  0  0  0  0  0  0  0  0  0
   -1.6750   -3.4667    0.0000 C   0  0  0  0  0  0  0  0  0  0  0  0
    5.4667   -3.6042    0.0000 C   0  0  0  0  0  0  0  0  0  0  0  0
   -2.2958   -4.5292    0.0000 C   0  0  0  0  0  0  0  0  0  0  0  0
    5.4542   -4.8292    0.0000 C   0  0  0  0  0  0  0  0  0  0  0  0
    2.6042   -3.1292    0.0000 C   0  0  0  0  0  0  0  0  0  0  0  0
    0.7625   -4.1792    0.0000 C   0  0  0  0  0  0  0  0  0  0  0  0
    6.4292   -3.8667    0.0000 C   0  0  0  0  0  0  0  0  0  0  0  0
    6.4292   -4.5792    0.0000 C   0  0  0  0  0  0  0  0  0  0  0  0
   -2.6500   -3.2042    0.0000 C   0  0  0  0  0  0  0  0  0  0  0  0
   -3.0000   -3.8167    0.0000 C   0  0  0  0  0  0  0  0  0  0  0  0
   -1.6833   -7.0042    0.0000 C   0  0  0  0  0  0  0  0  0  0  0  0
    4.5042   -2.9042    0.0000 C   0  0  0  0  0  0  0  0  0  0  0  0
    1.9875   -4.1792    0.0000 H   0  0  0  0  0  0  0  0  0  0  0  0
    0.7625   -6.3000    0.0000 H   0  0  0  0  0  0  0  0  0  0  0  0
    1.3750   -5.2417    0.0000 H   0  0  0  0  0  0  0  0  0  0  0  0
    2.6000   -5.2500    0.0000 H   0  0  0  0  0  0  0  0  0  0  0  0
  2  5  1  0
  3  1  1  0
  4  1  1  0
  5 20  1  0
  6  4  1  0
  7  3  1  0
  8 11  1  0
  6  9  1  1
 10 19  1  0
 11  2  1  0
 12  3  1  0
  8 13  1  1
 14  2  1  0
 15 33  1  0
 16 34  1  0
 17  1  1  0
  4 18  1  1
 19 14  1  0
 20 17  1  0
 10 21  1  6
 22  7  1  0
 23 18  1  0
 24 21  1  0
 25 22  1  0
 26  9  1  0
 27  9  1  0
 28 13  1  0
 29 13  1  0
 30 24  2  0
 31 23  2  0
 32 28  1  0
 33 27  1  0
 34 29  1  0
 35 26  1  0
  1 36  1  1
  2 37  1  1
 38 15  1  0
 39 15  1  0
 40 16  1  0
 41 16  1  0
 42 24  1  0
 43 23  1  0
  7 44  1  1
 14 45  1  6
  5 46  1  6
  3 47  1  6
  6 12  1  0
  5  7  1  0
 25 14  1  0
 15 35  1  0
 10  8  1  0
 16 32  1  0
M  CHG  2  15   1  16   1
M  END
> <chembl_id>
CHEMBL1201206

> <chembl_pref_name>
PIPECURONIUM
