
     RDKit          2D

  4  3  0  0  0  0  0  0  0  0999 V2000
    0.5760    5.4977    0.0000 Al  0  0  0  0  0  3  0  0  0  0  0  0
    0.5760    6.9977    0.0000 Cl  0  0  0  0  0  0  0  0  0  0  0  0
   -0.7230    4.7477    0.0000 Cl  0  0  0  0  0  0  0  0  0  0  0  0
    1.8751    4.7477    0.0000 Cl  0  0  0  0  0  0  0  0  0  0  0  0
  2  1  1  0
  3  1  1  0
  4  1  1  0
M  END
> <chembl_id>
CHEMBL3833401

> <chembl_pref_name>
ALUMINUM CHLORIDE
