
     RDKit          2D

 24 28  0  0  0  0  0  0  0  0999 V2000
   -5.6611   -2.8626    0.0000 C   0  0  0  0  0  0  0  0  0  0  0  0
   -6.0736   -2.1481    0.0000 C   0  0  0  0  0  0  0  0  0  0  0  0
   -6.8986   -2.1481    0.0000 C   0  0  0  0  0  0  0  0  0  0  0  0
   -7.3111   -2.8626    0.0000 C   0  0  0  0  0  0  0  0  0  0  0  0
   -6.8986   -3.5771    0.0000 C   0  0  0  0  0  0  0  0  0  0  0  0
   -6.0736   -3.5771    0.0000 C   0  0  0  0  0  0  0  0  0  0  0  0
   -5.6611   -1.4336    0.0000 C   0  0  0  0  0  0  0  0  0  0  0  0
   -4.8361   -1.4336    0.0000 C   0  0  0  0  0  0  0  0  0  0  0  0
   -4.4236   -2.1481    0.0000 C   0  0  0  0  0  0  0  0  0  0  0  0
   -4.8361   -2.8626    0.0000 C   0  0  0  0  0  0  0  0  0  0  0  0
   -3.5986   -2.1480    0.0000 C   0  0  0  0  0  0  0  0  0  0  0  0
   -3.1860   -2.8625    0.0000 C   0  0  0  0  0  0  0  0  0  0  0  0
   -3.5985   -3.5770    0.0000 C   0  0  0  0  0  0  0  0  0  0  0  0
   -4.4235   -3.5770    0.0000 C   0  0  0  0  0  0  0  0  0  0  0  0
   -5.3591   -3.9896    0.0000 O   0  0  0  0  0  0  0  0  0  0  0  0
   -7.3111   -4.2915    0.0000 O   0  0  0  0  0  0  0  0  0  0  0  0
   -3.1860   -4.2914    0.0000 O   0  0  0  0  0  0  0  0  0  0  0  0
   -4.8361   -0.6086    0.0000 N   0  0  0  0  0  0  0  0  0  0  0  0
   -5.4194   -2.2792    0.0000 C   0  0  0  0  0  0  0  0  0  0  0  0
   -5.6611   -0.6086    0.0000 C   0  0  0  0  0  0  0  0  0  0  0  0
   -4.6226    0.1883    0.0000 C   0  0  0  0  0  0  0  0  0  0  0  0
   -4.2173   -4.5555    0.0000 H   0  0  0  0  0  0  0  0  0  0  0  0
   -3.9236   -1.2820    0.0000 H   0  0  0  0  0  0  0  0  0  0  0  0
   -5.5432   -0.7265    0.0000 H   0  0  0  0  0  0  0  0  0  0  0  0
  2  3  2  0
  3  4  1  0
  4  5  2  0
  5  6  1  0
  6  1  2  0
 10  1  1  0
  1  2  1  0
  2  7  1  0
  7  8  1  0
  8  9  1  0
  9 11  1  0
 10  9  1  0
 14 10  1  0
 11 12  1  0
 12 13  1  0
 13 14  1  0
  6 15  1  0
 14 15  1  0
  5 16  1  0
 13 17  2  0
  8 18  1  0
 10 19  1  1
 18 20  1  0
 20 19  1  0
 18 21  1  0
 14 22  1  1
  9 23  1  1
  8 24  1  6
M  END
> <chembl_id>
CHEMBL398707

> <chembl_pref_name>
HYDROMORPHONE
