
     RDKit          2D

 31 33  0  0  0  0  0  0  0  0999 V2000
   -0.8333   -1.1500    0.0000 C   0  0  0  0  0  0  0  0  0  0  0  0
   -0.8333   -1.8750    0.0000 C   0  0  0  0  0  0  0  0  0  0  0  0
   -0.2208   -0.7792    0.0000 C   0  0  0  0  0  0  0  0  0  0  0  0
    0.3792   -1.1500    0.0000 C   0  0  0  0  0  0  0  0  0  0  0  0
    0.3792   -1.8750    0.0000 C   0  0  0  0  0  0  0  0  0  0  0  0
   -0.2208   -2.2292    0.0000 C   0  0  0  0  0  0  0  0  0  0  0  0
   -1.5333   -0.9292    0.0000 C   0  0  0  0  0  0  0  0  0  0  0  0
   -1.9333   -1.5125    0.0000 O   0  0  0  0  0  0  0  0  0  0  0  0
   -1.5333   -2.0750    0.0000 C   0  0  0  0  0  0  0  0  0  0  0  0
    0.9917   -0.8000    0.0000 C   0  0  0  0  0  0  0  0  0  0  0  0
    1.6167   -1.1500    0.0000 C   0  0  0  0  0  0  0  0  0  0  0  0
    6.5292   -1.1625    0.0000 N   0  0  0  0  0  0  0  0  0  0  0  0
    4.0667   -1.1500    0.0000 C   0  0  0  0  0  0  0  0  0  0  0  0
   -1.7708   -0.2625    0.0000 O   0  0  0  0  0  0  0  0  0  0  0  0
    2.2292   -0.7792    0.0000 C   0  0  0  0  0  0  0  0  0  0  0  0
    4.0667   -1.8500    0.0000 O   0  0  0  0  0  0  0  0  0  0  0  0
   -0.2208   -0.0625    0.0000 O   0  0  0  0  0  0  0  0  0  0  0  0
    7.7792   -1.8500    0.0000 O   0  0  0  0  0  0  0  0  0  0  0  0
    0.9917   -2.2375    0.0000 O   0  0  0  0  0  0  0  0  0  0  0  0
    3.4542   -0.8000    0.0000 C   0  0  0  0  0  0  0  0  0  0  0  0
    2.8417   -1.1500    0.0000 C   0  0  0  0  0  0  0  0  0  0  0  0
    4.6792   -0.8000    0.0000 O   0  0  0  0  0  0  0  0  0  0  0  0
   -0.2208   -2.9375    0.0000 C   0  0  0  0  0  0  0  0  0  0  0  0
    5.9292   -0.8000    0.0000 C   0  0  0  0  0  0  0  0  0  0  0  0
    5.3042   -1.1500    0.0000 C   0  0  0  0  0  0  0  0  0  0  0  0
    6.5417   -1.8500    0.0000 C   0  0  0  0  0  0  0  0  0  0  0  0
    7.1667   -0.7792    0.0000 C   0  0  0  0  0  0  0  0  0  0  0  0
    7.1667   -2.2167    0.0000 C   0  0  0  0  0  0  0  0  0  0  0  0
    7.7792   -1.1375    0.0000 C   0  0  0  0  0  0  0  0  0  0  0  0
    2.2292   -0.0792    0.0000 C   0  0  0  0  0  0  0  0  0  0  0  0
    1.6167   -1.8917    0.0000 C   0  0  0  0  0  0  0  0  0  0  0  0
  2  1  1  0
  3  1  2  0
  4  3  1  0
  5  4  2  0
  6  2  2  0
  7  1  1  0
  8  7  1  0
  9  2  1  0
 10  4  1  0
 11 10  1  0
 12 24  1  0
 13 20  1  0
 14  7  2  0
 15 11  2  0
 16 13  2  0
 17  3  1  0
 18 29  1  0
 19  5  1  0
 20 21  1  0
 21 15  1  0
 22 13  1  0
 23  6  1  0
 24 25  1  0
 25 22  1  0
 26 12  1  0
 27 12  1  0
 28 26  1  0
 29 27  1  0
 30 15  1  0
 31 19  1  0
  8  9  1  0
  5  6  1  0
 18 28  1  0
M  END
> <chembl_id>
CHEMBL1456

> <chembl_pref_name>
MYCOPHENOLATE MOFETIL
