
     RDKit          2D

 41 43  0  0  0  0  0  0  0  0999 V2000
    7.6066    0.7145    0.0000 O   0  0  0  0  0  0  0  0  0  0  0  0
    7.1941    0.0000    0.0000 C   0  0  0  0  0  0  0  0  0  0  0  0
    7.6066   -0.7145    0.0000 C   0  0  0  0  0  0  0  0  0  0  0  0
    6.3691    0.0000    0.0000 O   0  0  0  0  0  0  0  0  0  0  0  0
   -0.7587   -2.2071    0.0000 N   0  0  0  0  0  0  0  0  0  0  0  0
   -1.5382   -2.4771    0.0000 C   0  0  0  0  0  0  0  0  0  0  0  0
   -2.0359   -1.8192    0.0000 C   0  0  0  0  0  0  0  0  0  0  0  0
   -1.5640   -1.1425    0.0000 C   0  0  0  0  0  0  0  0  0  0  0  0
   -0.7746   -1.3822    0.0000 C   0  0  0  0  0  0  0  0  0  0  0  0
   -1.8340   -0.3629    0.0000 C   0  0  0  0  0  0  0  0  0  0  0  0
   -1.2939    0.2607    0.0000 C   0  0  0  0  0  0  0  0  0  0  0  0
   -1.5640    1.0403    0.0000 N   0  0  0  0  0  0  0  0  0  0  0  0
   -0.2138   -0.6748    0.0000 O   0  0  0  0  0  0  0  0  0  0  0  0
   -0.4838    0.1048    0.0000 C   0  0  0  0  0  0  0  0  0  0  0  0
    0.0563    0.7284    0.0000 N   0  0  0  0  0  0  0  0  0  0  0  0
   -2.8546   -1.9212    0.0000 C   0  0  0  0  0  0  0  0  0  0  0  0
   -3.1755   -2.6812    0.0000 C   0  0  0  0  0  0  0  0  0  0  0  0
   -2.6778   -3.3392    0.0000 C   0  0  0  0  0  0  0  0  0  0  0  0
   -1.8591   -3.2371    0.0000 C   0  0  0  0  0  0  0  0  0  0  0  0
   -2.3741    1.1962    0.0000 C   0  0  0  0  0  0  0  0  0  0  0  0
   -2.9142    0.5725    0.0000 C   0  0  0  0  0  0  0  0  0  0  0  0
   -3.5378    1.1126    0.0000 N   0  0  0  0  0  0  0  0  0  0  0  0
   -2.2906    0.0324    0.0000 C   0  0  0  0  0  0  0  0  0  0  0  0
    0.8664    0.5725    0.0000 C   0  0  0  0  0  0  0  0  0  0  0  0
    1.1365   -0.2070    0.0000 N   0  0  0  0  0  0  0  0  0  0  0  0
    2.2166   -1.1425    0.0000 O   0  0  0  0  0  0  0  0  0  0  0  0
    1.9466   -0.3629    0.0000 C   0  0  0  0  0  0  0  0  0  0  0  0
    2.2166    1.0403    0.0000 C   0  0  0  0  0  0  0  0  0  0  0  0
    1.4065    1.1962    0.0000 C   0  0  0  0  0  0  0  0  0  0  0  0
    2.5667    0.2932    0.0000 C   0  0  0  0  0  0  0  0  0  0  0  0
    3.3854    0.3953    0.0000 N   0  0  0  0  0  0  0  0  0  0  0  0
    3.5413    1.2054    0.0000 C   0  0  0  0  0  0  0  0  0  0  0  0
    2.8190    1.6040    0.0000 C   0  0  0  0  0  0  0  0  0  0  0  0
    4.2476    1.6316    0.0000 C   0  0  0  0  0  0  0  0  0  0  0  0
    4.2317    2.4565    0.0000 C   0  0  0  0  0  0  0  0  0  0  0  0
    3.5094    2.8551    0.0000 C   0  0  0  0  0  0  0  0  0  0  0  0
    2.8030    2.4289    0.0000 C   0  0  0  0  0  0  0  0  0  0  0  0
   -3.4543   -0.0511    0.0000 C   0  0  0  0  0  0  0  0  0  0  0  0
   -1.0239   -0.5188    0.0000 H   0  0  0  0  0  0  0  0  0  0  0  0
   -2.6442    1.9757    0.0000 O   0  0  0  0  0  0  0  0  0  0  0  0
    1.6766    0.4166    0.0000 H   0  0  0  0  0  0  0  0  0  0  0  0
  1  2  2  0
  2  3  1  0
  2  4  1  0
  5  6  1  0
  5  9  1  0
  6  7  2  0
  6 19  1  0
  7 16  1  0
  8  7  1  0
  8 10  1  0
  9  8  2  0
 11 12  1  0
 11 14  1  0
 11 39  1  6
 13 14  2  0
 14 15  1  0
 16 17  2  0
 18 17  1  0
 19 18  2  0
 20 21  1  0
 20 12  1  0
 21 22  1  0
 21 23  1  0
 21 38  1  0
 24 15  1  0
 25 24  1  0
 26 27  2  0
 27 25  1  0
 28 29  1  0
 30 28  2  0
 31 30  1  0
 31 32  1  0
 32 33  2  0
 32 34  1  0
 33 37  1  0
 33 28  1  0
 34 35  2  0
 36 35  1  0
 37 36  2  0
 20 40  2  0
 11 10  1  1
 24 41  1  1
 24 29  1  6
M  END
> <chembl_id>
CHEMBL2364617

> <chembl_pref_name>
MACIMORELIN ACETATE
