
     RDKit          2D

 53 56  0  0  0  0  0  0  0  0999 V2000
    2.8580  -11.3732    0.0000 C   0  0  0  0  0  0  0  0  0  0  0  0
    2.1436  -11.7857    0.0000 C   0  0  0  0  0  0  0  0  0  0  0  0
    2.1436  -12.6107    0.0000 C   0  0  0  0  0  0  0  0  0  0  0  0
    2.8580  -13.0232    0.0000 C   0  0  0  0  0  0  0  0  0  0  0  0
    3.5725  -12.6107    0.0000 C   0  0  0  0  0  0  0  0  0  0  0  0
    3.5725  -11.7857    0.0000 C   0  0  0  0  0  0  0  0  0  0  0  0
    2.8580  -10.5482    0.0000 S   0  0  0  0  0  0  0  0  0  0  0  0
    2.8580  -13.8482    0.0000 C   0  0  0  0  0  0  0  0  0  0  0  0
    2.8580   -9.7232    0.0000 O   0  0  0  0  0  0  0  0  0  0  0  0
    3.6830  -10.5482    0.0000 O   0  0  0  0  0  0  0  0  0  0  0  0
    2.0330  -10.5482    0.0000 O   0  0  0  0  0  0  0  0  0  0  0  0
   -6.1286  -11.1964    0.0000 C   0  0  0  0  0  0  0  0  0  0  0  0
   -6.8430  -11.6089    0.0000 C   0  0  0  0  0  0  0  0  0  0  0  0
   -6.8430  -12.4339    0.0000 C   0  0  0  0  0  0  0  0  0  0  0  0
   -6.1286  -12.8464    0.0000 C   0  0  0  0  0  0  0  0  0  0  0  0
   -5.4141  -12.4339    0.0000 C   0  0  0  0  0  0  0  0  0  0  0  0
   -5.4141  -11.6089    0.0000 C   0  0  0  0  0  0  0  0  0  0  0  0
   -7.5575  -11.1964    0.0000 C   0  0  0  0  0  0  0  0  0  0  0  0
   -8.2720  -11.6089    0.0000 N   0  0  0  0  0  0  0  0  0  0  0  0
   -8.9865  -11.1964    0.0000 C   0  0  0  0  0  0  0  0  0  0  0  0
   -9.7009  -11.6089    0.0000 C   0  0  0  0  0  0  0  0  0  0  0  0
  -10.4154  -11.1964    0.0000 C   0  0  0  0  0  0  0  0  0  0  0  0
  -10.4154  -12.0214    0.0000 C   0  0  0  0  0  0  0  0  0  0  0  0
   -9.4874  -12.4058    0.0000 C   0  0  0  0  0  0  0  0  0  0  0  0
   -4.6996  -11.1964    0.0000 C   0  0  0  0  0  0  0  0  0  0  0  0
   -4.6996  -12.8464    0.0000 C   0  0  0  0  0  0  0  0  0  0  0  0
   -3.9852  -12.4339    0.0000 C   0  0  0  0  0  0  0  0  0  0  0  0
   -3.9852  -11.6089    0.0000 C   0  0  0  0  0  0  0  0  0  0  0  0
   -3.2707  -11.1964    0.0000 C   0  0  0  0  0  0  0  0  0  0  0  0
   -3.2707  -12.8464    0.0000 C   0  0  0  0  0  0  0  0  0  0  0  0
   -2.5562  -12.4339    0.0000 C   0  0  0  0  0  0  0  0  0  0  0  0
   -2.5562  -11.6089    0.0000 C   0  0  0  0  0  0  0  0  0  0  0  0
   -1.8418  -11.1964    0.0000 C   0  0  0  0  0  0  0  0  0  0  0  0
   -1.8418  -12.8464    0.0000 C   0  0  0  0  0  0  0  0  0  0  0  0
   -1.1273  -12.4339    0.0000 C   0  0  0  0  0  0  0  0  0  0  0  0
   -1.1273  -11.6089    0.0000 C   0  0  0  0  0  0  0  0  0  0  0  0
   -0.4128  -11.1964    0.0000 C   0  0  0  0  0  0  0  0  0  0  0  0
   -0.4128  -10.3714    0.0000 O   0  0  0  0  0  0  0  0  0  0  0  0
    0.3016  -11.6089    0.0000 N   0  0  0  0  0  0  0  0  0  0  0  0
   -0.4128  -12.8464    0.0000 O   0  0  0  0  0  0  0  0  0  0  0  0
   -1.8418  -10.3714    0.0000 O   0  0  0  0  0  0  0  0  0  0  0  0
   -1.2584  -13.4298    0.0000 N   0  0  0  0  0  0  0  0  0  0  0  0
   -0.4334  -13.4298    0.0000 C   0  0  0  0  0  0  0  0  0  0  0  0
   -1.6709  -14.1443    0.0000 C   0  0  0  0  0  0  0  0  0  0  0  0
   -2.5562  -10.7839    0.0000 O   0  0  0  0  0  0  0  0  0  0  0  0
   -3.2707  -10.3714    0.0000 O   0  0  0  0  0  0  0  0  0  0  0  0
   -4.6996  -10.3714    0.0000 O   0  0  0  0  0  0  0  0  0  0  0  0
   -6.1286  -10.3714    0.0000 O   0  0  0  0  0  0  0  0  0  0  0  0
   -6.1286  -13.6714    0.0000 N   0  0  0  0  0  0  0  0  0  0  0  0
   -5.4141  -14.0839    0.0000 C   0  0  0  0  0  0  0  0  0  0  0  0
   -6.8430  -14.0839    0.0000 C   0  0  0  0  0  0  0  0  0  0  0  0
   -2.5562  -13.4339    0.0000 H   0  0  0  0  0  0  0  0  0  0  0  0
   -3.9852  -13.4339    0.0000 H   0  0  0  0  0  0  0  0  0  0  0  0
  1  2  1  0
  2  3  2  0
  3  4  1  0
  4  5  2  0
  5  6  1  0
  1  6  2  0
  1  7  1  0
  4  8  1  0
  7  9  2  0
  7 10  2  0
  7 11  1  0
 12 13  1  0
 13 14  2  0
 14 15  1  0
 15 16  2  0
 12 17  2  0
 13 18  1  0
 18 19  1  0
 19 20  1  0
 20 21  1  0
 21 22  1  0
 21 23  1  0
 21 24  1  0
 25 17  1  0
 17 16  1  0
 16 26  1  0
 26 27  1  0
 25 28  1  0
 29 28  2  0
 28 27  1  0
 27 30  1  0
 30 31  1  0
 29 32  1  0
 33 32  1  0
 32 31  1  0
 31 34  1  0
 34 35  1  0
 35 36  2  0
 33 36  1  0
 36 37  1  0
 37 38  2  0
 37 39  1  0
 35 40  1  0
 33 41  2  0
 34 42  1  1
 42 43  1  0
 42 44  1  0
 32 45  1  1
 29 46  1  0
 25 47  2  0
 12 48  1  0
 49 15  1  0
 49 50  1  0
 49 51  1  0
 31 52  1  1
 27 53  1  1
M  END
> <chembl_id>
CHEMBL2103854

> <chembl_pref_name>
OMADACYCLINE TOSYLATE
