
     RDKit          2D

 23 22  0  0  0  0  0  0  0  0999 V2000
    2.2125   -4.6250    0.0000 Cl  0  0  0  0  0  0  0  0  0  0  0  0
    0.8792   -2.5917    0.0000 C   0  0  0  0  0  0  0  0  0  0  0  0
    0.8792   -3.3042    0.0000 C   0  0  0  0  0  0  0  0  0  0  0  0
    0.2667   -3.6542    0.0000 C   0  0  0  0  0  0  0  0  0  0  0  0
   -0.3458   -3.3042    0.0000 C   0  0  0  0  0  0  0  0  0  0  0  0
    0.2667   -2.2375    0.0000 C   0  0  0  0  0  0  0  0  0  0  0  0
    1.4917   -2.2292    0.0000 O   0  0  0  0  0  0  0  0  0  0  0  0
   -0.3458   -2.5917    0.0000 C   0  0  0  0  0  0  0  0  0  0  0  0
    2.1042   -2.5875    0.0000 C   0  0  0  0  0  0  0  0  0  0  0  0
   -0.9583   -3.6542    0.0000 O   0  0  0  0  0  0  0  0  0  0  0  0
    2.1042   -3.2917    0.0000 O   0  0  0  0  0  0  0  0  0  0  0  0
   -3.4125   -3.6542    0.0000 N   0  0  0  0  0  0  0  0  0  0  0  0
   -2.1875   -3.6542    0.0000 C   0  0  0  0  0  0  0  0  0  0  0  0
   -1.5750   -3.3042    0.0000 C   0  0  0  0  0  0  0  0  0  0  0  0
   -2.8000   -3.3042    0.0000 C   0  0  0  0  0  0  0  0  0  0  0  0
    1.4917   -3.6542    0.0000 C   0  0  0  0  0  0  0  0  0  0  0  0
   -2.1875   -4.3667    0.0000 O   0  0  0  0  0  0  0  0  0  0  0  0
    0.2667   -4.3667    0.0000 C   0  0  0  0  0  0  0  0  0  0  0  0
    0.2667   -1.5292    0.0000 C   0  0  0  0  0  0  0  0  0  0  0  0
   -4.0292   -3.3042    0.0000 C   0  0  0  0  0  0  0  0  0  0  0  0
    2.7167   -2.2292    0.0000 C   0  0  0  0  0  0  0  0  0  0  0  0
   -4.6458   -3.6542    0.0000 C   0  0  0  0  0  0  0  0  0  0  0  0
   -4.0292   -2.5917    0.0000 C   0  0  0  0  0  0  0  0  0  0  0  0
  3  2  1  0
  4  3  2  0
  5  8  2  0
  6  2  2  0
  7  2  1  0
  8  6  1  0
  9  7  1  0
 10  5  1  0
 11  9  2  0
 12 15  1  0
 13 14  1  0
 14 10  1  0
 15 13  1  0
 16  3  1  0
 17 13  1  0
 18  4  1  0
 19  6  1  0
 20 12  1  0
 21  9  1  0
 22 20  1  0
 23 20  1  0
  5  4  1  0
M  END
> <chembl_id>
CHEMBL1200947

> <chembl_pref_name>
METIPRANOLOL HYDROCHLORIDE
