
     RDKit          2D

 31 32  0  0  0  0  0  0  0  0999 V2000
    4.9250   -2.1917    0.0000 C   0  0  0  0  0  0  0  0  0  0  0  0
    4.9250   -0.7792    0.0000 C   0  0  0  0  0  0  0  0  0  0  0  0
    4.3125   -1.1375    0.0000 C   0  0  0  0  0  0  0  0  0  0  0  0
    4.3125   -1.8417    0.0000 C   0  0  0  0  0  0  0  0  0  0  0  0
    4.9250   -0.0667    0.0000 O   0  0  0  0  0  0  0  0  0  0  0  0
    4.9250   -2.9042    0.0000 O   0  0  0  0  0  0  0  0  0  0  0  0
    5.5417   -1.1292    0.0000 O   0  0  0  0  0  0  0  0  0  0  0  0
    5.5417   -1.8417    0.0000 O   0  0  0  0  0  0  0  0  0  0  0  0
   -0.1958   -1.5917    0.0000 N   0  0  0  0  0  0  0  0  0  0  0  0
    0.3875   -1.9167    0.0000 C   0  0  0  0  0  0  0  0  0  0  0  0
   -0.1958   -2.9125    0.0000 S   0  0  0  0  0  0  0  0  0  0  0  0
   -0.7708   -1.9167    0.0000 C   0  0  0  0  0  0  0  0  0  0  0  0
    0.3875   -2.5875    0.0000 C   0  0  0  0  0  0  0  0  0  0  0  0
   -0.7708   -2.5875    0.0000 C   0  0  0  0  0  0  0  0  0  0  0  0
   -0.1958   -0.8750    0.0000 C   0  0  0  0  0  0  0  0  0  0  0  0
    0.9750   -1.5917    0.0000 C   0  0  0  0  0  0  0  0  0  0  0  0
    0.4250   -0.4792    0.0000 C   0  0  0  0  0  0  0  0  0  0  0  0
    0.9750   -2.9125    0.0000 C   0  0  0  0  0  0  0  0  0  0  0  0
    1.5625   -1.9167    0.0000 C   0  0  0  0  0  0  0  0  0  0  0  0
    0.9917   -0.8417    0.0000 C   0  0  0  0  0  0  0  0  0  0  0  0
    1.7125   -0.3917    0.0000 N   0  0  0  0  0  0  0  0  0  0  0  0
    1.5625   -2.5875    0.0000 C   0  0  0  0  0  0  0  0  0  0  0  0
   -1.3625   -1.5917    0.0000 C   0  0  0  0  0  0  0  0  0  0  0  0
    2.1917   -1.5250    0.0000 O   0  0  0  0  0  0  0  0  0  0  0  0
   -1.3625   -2.9125    0.0000 C   0  0  0  0  0  0  0  0  0  0  0  0
    0.4167    0.3000    0.0000 C   0  0  0  0  0  0  0  0  0  0  0  0
    1.7042    0.3750    0.0000 C   0  0  0  0  0  0  0  0  0  0  0  0
    2.4667   -0.8625    0.0000 C   0  0  0  0  0  0  0  0  0  0  0  0
    2.9042   -1.9792    0.0000 C   0  0  0  0  0  0  0  0  0  0  0  0
   -1.9458   -1.9167    0.0000 C   0  0  0  0  0  0  0  0  0  0  0  0
   -1.9458   -2.5875    0.0000 C   0  0  0  0  0  0  0  0  0  0  0  0
  2  3  1  0
  3  4  2  0
  4  1  1  0
  5  2  2  0
  6  1  2  0
  7  2  1  0
  8  1  1  0
 10  9  1  0
 11 14  1  0
 12  9  1  0
 13 10  2  0
 14 12  2  0
 15  9  1  0
 16 10  1  0
 17 15  1  0
 18 13  1  0
 19 16  2  0
 20 17  1  0
 21 20  1  0
 22 18  2  0
 23 12  1  0
 24 19  1  0
 25 14  1  0
 17 26  1  6
 27 21  1  0
 28 21  1  0
 29 24  1  0
 30 23  2  0
 31 25  2  0
 13 11  1  0
 31 30  1  0
 22 19  1  0
M  END
> <chembl_id>
CHEMBL1725730

> <chembl_pref_name>
LEVOMEPROMAZINE MALEATE
