
     RDKit          2D

 25 26  0  0  1  0  0  0  0  0999 V2000
    1.4417   -2.5542    0.0000 C   0  0  0  0  0  0  0  0  0  0  0  0
    1.4417   -1.8375    0.0000 C   0  0  0  0  0  0  0  0  0  0  0  0
    0.8292   -2.9375    0.0000 N   0  0  0  0  0  0  0  0  0  0  0  0
    2.1333   -2.7750    0.0000 N   0  0  0  0  0  0  0  0  0  0  0  0
    0.2167   -1.8375    0.0000 N   0  0  0  0  0  0  0  0  0  0  0  0
    2.1500   -1.6250    0.0000 N   0  0  0  0  0  0  0  0  0  0  0  0
    0.8292   -1.4792    0.0000 C   0  0  0  0  0  0  0  0  0  0  0  0
    0.2167   -2.5542    0.0000 C   0  0  0  0  0  0  0  0  0  0  0  0
    2.5667   -2.2000    0.0000 C   0  0  0  0  0  0  0  0  0  0  0  0
    5.2167   -3.8250    0.0000 C   0  0  0  0  0  0  0  0  0  0  0  0
    2.1333   -3.4792    0.0000 C   0  0  0  0  0  0  0  0  0  0  0  0
    5.8292   -3.4792    0.0000 C   0  0  0  0  0  0  0  0  0  0  0  0
    0.8292   -0.7667    0.0000 O   0  0  0  0  0  0  0  0  0  0  0  0
    4.6000   -3.4792    0.0000 O   0  0  0  0  0  0  0  0  0  0  0  0
    5.2167   -4.5292    0.0000 O   0  0  0  0  0  0  0  0  0  0  0  0
   -0.3833   -2.9000    0.0000 N   0  0  0  0  0  0  0  0  0  0  0  0
    2.7417   -3.8417    0.0000 O   0  0  0  0  0  0  0  0  0  0  0  0
    3.3667   -3.4792    0.0000 C   0  0  0  0  0  0  0  0  0  0  0  0
    5.8458   -2.7708    0.0000 N   0  0  0  0  0  0  0  0  0  0  0  0
    3.9917   -3.8250    0.0000 C   0  0  0  0  0  0  0  0  0  0  0  0
    6.4458   -3.8542    0.0000 C   0  0  0  0  0  0  0  0  0  0  0  0
    3.9750   -2.4000    0.0000 O   0  0  0  0  0  0  0  0  0  0  0  0
    3.3667   -2.7625    0.0000 C   0  0  0  0  0  0  0  0  0  0  0  0
    6.4250   -4.5417    0.0000 C   0  0  0  0  0  0  0  0  0  0  0  0
    7.0458   -3.5250    0.0000 C   0  0  0  0  0  0  0  0  0  0  0  0
  2  1  2  0
  3  1  1  0
  4  1  1  0
  5  8  1  0
  6  2  1  0
  7  2  1  0
  8  3  2  0
  9  4  1  0
 10 14  1  0
 11  4  1  0
 12 10  1  0
 13  7  2  0
 14 20  1  0
 15 10  2  0
 16  8  1  0
 17 11  1  0
 18 17  1  0
 12 19  1  1
 20 18  1  0
 21 12  1  0
 22 23  1  0
 23 18  1  0
 24 21  1  0
 25 21  1  0
  6  9  2  0
  7  5  1  0
M  END
> <chembl_id>
CHEMBL1201314

> <chembl_pref_name>
VALGANCICLOVIR
