
     RDKit          2D

 76 79  0  0  0  0  0  0  0  0999 V2000
    8.8583   -3.5250    0.0000 C   0  0  0  0  0  0  0  0  0  0  0  0
    8.2458   -3.8792    0.0000 C   0  0  0  0  0  0  0  0  0  0  0  0
    9.4708   -5.9875    0.0000 C   0  0  0  0  0  0  0  0  0  0  0  0
    9.4708   -6.6917    0.0000 C   0  0  0  0  0  0  0  0  0  0  0  0
   10.0833   -7.0417    0.0000 C   0  0  0  0  0  0  0  0  0  0  0  0
   10.0833   -7.7458    0.0000 C   0  0  0  0  0  0  0  0  0  0  0  0
   10.6958   -8.0958    0.0000 C   0  0  0  0  0  0  0  0  0  0  0  0
    8.8583   -4.9333    0.0000 O   0  0  0  0  0  0  0  0  0  0  0  0
    8.2458   -4.5833    0.0000 C   0  0  0  0  0  0  0  0  0  0  0  0
    7.6398   -4.9368    0.0000 C   0  0  0  0  0  0  0  0  0  0  0  0
    7.6410   -5.6417    0.0000 C   0  0  0  0  0  0  0  0  0  0  0  0
    8.2535   -5.9917    0.0000 C   0  0  0  0  0  0  0  0  0  0  0  0
    8.8648   -5.6368    0.0000 C   0  0  0  0  0  0  0  0  0  0  0  0
    7.6323   -3.5252    0.0000 O   0  0  0  0  0  0  0  0  0  0  0  0
    9.4719   -3.8790    0.0000 O   0  0  0  0  0  0  0  0  0  0  0  0
   10.0852   -2.8167    0.0000 C   0  0  0  0  0  0  0  0  0  0  0  0
   10.6986   -2.4625    0.0000 O   0  0  0  0  0  0  0  0  0  0  0  0
   10.0852   -3.5250    0.0000 O   0  0  0  0  0  0  0  0  0  0  0  0
    8.8583   -2.8167    0.0000 N   0  0  0  0  0  0  0  0  0  0  0  0
    9.4718   -2.4625    0.0000 C   0  0  0  0  0  0  0  0  0  0  0  0
    9.4718   -1.7581    0.0000 C   0  0  0  0  0  0  0  0  0  0  0  0
    8.8598   -1.4025    0.0000 C   0  0  0  0  0  0  0  0  0  0  0  0
    8.2463   -1.7566    0.0000 C   0  0  0  0  0  0  0  0  0  0  0  0
    8.2449   -2.4664    0.0000 C   0  0  0  0  0  0  0  0  0  0  0  0
   11.3121   -2.8167    0.0000 C   0  0  0  0  0  0  0  0  0  0  0  0
   11.9255   -2.4625    0.0000 C   0  0  0  0  0  0  0  0  0  0  0  0
   11.3121   -3.5250    0.0000 C   0  0  0  0  0  0  0  0  0  0  0  0
   11.9255   -3.8792    0.0000 C   0  0  0  0  0  0  0  0  0  0  0  0
   11.9255   -4.5875    0.0000 C   0  0  0  0  0  0  0  0  0  0  0  0
   12.5389   -3.5250    0.0000 O   0  0  0  0  0  0  0  0  0  0  0  0
   12.5389   -4.9417    0.0000 C   0  0  0  0  0  0  0  0  0  0  0  0
   12.5389   -5.6500    0.0000 C   0  0  0  0  0  0  0  0  0  0  0  0
   13.1524   -6.0042    0.0000 C   0  0  0  0  0  0  0  0  0  0  0  0
   11.9255   -6.0042    0.0000 C   0  0  0  0  0  0  0  0  0  0  0  0
   13.1524   -6.7125    0.0000 C   0  0  0  0  0  0  0  0  0  0  0  0
   13.7658   -7.0667    0.0000 C   0  0  0  0  0  0  0  0  0  0  0  0
   13.7658   -7.7750    0.0000 C   0  0  0  0  0  0  0  0  0  0  0  0
   10.6960   -6.6861    0.0000 C   0  0  0  0  0  0  0  0  0  0  0  0
   10.6990   -8.8042    0.0000 C   0  0  0  0  0  0  0  0  0  0  0  0
   11.3140   -9.1556    0.0000 C   0  0  0  0  0  0  0  0  0  0  0  0
   11.9258   -8.7987    0.0000 C   0  0  0  0  0  0  0  0  0  0  0  0
   12.6333   -8.7958    0.0000 C   0  0  0  0  0  0  0  0  0  0  0  0
   13.0125   -8.1208    0.0000 C   0  0  0  0  0  0  0  0  0  0  0  0
   14.3621   -8.1574    0.0000 C   0  0  0  0  0  0  0  0  0  0  0  0
   12.9923   -9.4064    0.0000 C   0  0  0  0  0  0  0  0  0  0  0  0
   12.5389   -7.0667    0.0000 O   0  0  0  0  0  0  0  0  0  0  0  0
    8.8582   -7.0472    0.0000 O   0  0  0  0  0  0  0  0  0  0  0  0
    7.0253   -4.5845    0.0000 C   0  0  0  0  0  0  0  0  0  0  0  0
    8.8583   -4.2250    0.0000 O   0  0  0  0  0  0  0  0  0  0  0  0
    8.8655   -6.6368    0.0000 H   0  0  0  0  0  0  0  0  0  0  0  0
   13.7658   -5.6500    0.0000 O   0  0  0  0  0  0  0  0  0  0  0  0
   14.3792   -6.7125    0.0000 O   0  0  0  0  0  0  0  0  0  0  0  0
   11.9255   -1.7542    0.0000 C   0  0  0  0  0  0  0  0  0  0  0  0
   12.5389   -1.4000    0.0000 C   0  0  0  0  0  0  0  0  0  0  0  0
   13.1482   -1.7553    0.0000 C   0  0  0  0  0  0  0  0  0  0  0  0
   13.7598   -1.4041    0.0000 C   0  0  0  0  0  0  0  0  0  0  0  0
   13.7634   -0.6955    0.0000 C   0  0  0  0  0  0  0  0  0  0  0  0
   13.1501   -0.3394    0.0000 C   0  0  0  0  0  0  0  0  0  0  0  0
   12.5332   -0.6920    0.0000 C   0  0  0  0  0  0  0  0  0  0  0  0
   12.5389   -2.8167    0.0000 C   0  0  0  0  0  0  0  0  0  0  0  0
   14.3782   -0.3436    0.0000 O   0  0  0  0  0  0  0  0  0  0  0  0
   14.3719   -1.7606    0.0000 O   0  0  0  0  0  0  0  0  0  0  0  0
   14.9866   -1.4087    0.0000 C   0  0  0  0  0  0  0  0  0  0  0  0
   11.3121   -4.9417    0.0000 C   0  0  0  0  0  0  0  0  0  0  0  0
   11.9255   -6.7125    0.0000 C   0  0  0  0  0  0  0  0  0  0  0  0
    8.2440   -6.6944    0.0000 C   0  0  0  0  0  0  0  0  0  0  0  0
   14.3809    0.3647    0.0000 C   0  0  0  0  0  0  0  0  0  0  0  0
   14.9956    0.7165    0.0000 C   0  0  0  0  0  0  0  0  0  0  0  0
   13.7688    0.7212    0.0000 O   0  0  0  0  0  0  0  0  0  0  0  0
   15.6077    0.3601    0.0000 C   0  0  0  0  0  0  0  0  0  0  0  0
   14.6333    1.3333    0.0000 C   0  0  0  0  0  0  0  0  0  0  0  0
   13.9250    1.3280    0.0000 O   0  0  0  0  0  0  0  0  0  0  0  0
   15.3417    1.3333    0.0000 C   0  0  0  0  0  0  0  0  0  0  0  0
   16.0499    1.3421    0.0000 O   0  0  0  0  0  0  0  0  0  0  0  0
   10.4461   -3.3167    0.0000 H   0  0  0  0  0  0  0  0  0  0  0  0
   10.3378   -1.9625    0.0000 H   0  0  0  0  0  0  0  0  0  0  0  0
  5 38  1  0
 19 20  1  0
  7 39  2  0
 39 40  1  0
  3  4  1  0
 40 41  2  0
  1  2  1  0
 41 42  1  0
  4  5  1  0
 42 43  1  0
 43 37  1  0
  2  9  1  0
 37 44  1  6
  8 13  1  0
 42 45  1  6
 19 24  1  0
 35 46  1  6
 20 21  1  0
 21 22  1  0
  4 47  1  1
 22 23  1  0
 10 48  1  1
 23 24  1  0
  9 49  1  1
  9 10  1  0
 13 50  1  1
 17 25  1  0
 33 51  1  1
 10 11  1  0
 36 52  2  0
 25 26  1  0
 26 53  1  0
 11 12  1  0
 54 53  1  6
 54 55  1  0
 25 27  1  0
 12 13  1  0
 27 28  1  0
  5  6  2  0
 28 29  1  0
 54 59  1  0
 55 56  1  0
 56 57  1  0
 57 58  1  0
 58 59  1  0
  2 14  2  0
 26 60  1  1
 28 30  2  0
 19  1  1  0
 29 31  1  0
 57 61  1  1
  1 15  2  0
 56 62  1  6
 31 32  2  0
 62 63  1  0
  6  7  1  0
 29 64  1  1
 32 33  1  0
 46 65  1  0
 20 16  1  0
 47 66  1  0
 32 34  1  0
 61 67  1  0
  8  9  1  0
 67 68  1  0
 33 35  1  0
 67 69  2  0
 16 17  1  0
 68 70  1  0
 35 36  1  0
 68 71  1  0
 13  3  1  0
 71 72  1  0
 36 37  1  0
 68 73  1  0
 16 18  2  0
 73 74  1  0
 25 75  1  1
 20 76  1  6
M  END
> <chembl_id>
CHEMBL1201182

> <chembl_pref_name>
TEMSIROLIMUS
