
     RDKit          2D

 25 26  0  0  0  0  0  0  0  0999 V2000
    0.2044   -2.0686    0.0000 S   0  0  0  0  0  0  0  0  0  0  0  0
    1.0301   -2.0681    0.0000 C   0  0  0  0  0  0  0  0  0  0  0  0
   -0.2057   -2.7844    0.0000 O   0  0  0  0  0  0  0  0  0  0  0  0
    1.5186   -2.7328    0.0000 N   0  0  0  0  0  0  0  0  0  0  0  0
    1.5180   -1.3999    0.0000 N   0  0  0  0  0  0  0  0  0  0  0  0
    2.3036   -1.6530    0.0000 C   0  0  0  0  0  0  0  0  0  0  0  0
    2.3007   -2.4778    0.0000 C   0  0  0  0  0  0  0  0  0  0  0  0
    3.0131   -2.8886    0.0000 C   0  0  0  0  0  0  0  0  0  0  0  0
    3.7240   -2.4804    0.0000 C   0  0  0  0  0  0  0  0  0  0  0  0
    3.7230   -1.6525    0.0000 C   0  0  0  0  0  0  0  0  0  0  0  0
    3.0148   -1.2407    0.0000 C   0  0  0  0  0  0  0  0  0  0  0  0
    4.4346   -2.8914    0.0000 O   0  0  0  0  0  0  0  0  0  0  0  0
    5.1457   -2.4814    0.0000 C   0  0  0  0  0  0  0  0  0  0  0  0
   -2.2693   -0.6449    0.0000 C   0  0  0  0  0  0  0  0  0  0  0  0
   -2.6843   -1.3563    0.0000 C   0  0  0  0  0  0  0  0  0  0  0  0
   -2.2746   -2.0745    0.0000 C   0  0  0  0  0  0  0  0  0  0  0  0
   -1.4496   -2.0752    0.0000 C   0  0  0  0  0  0  0  0  0  0  0  0
   -1.0321   -1.3534    0.0000 C   0  0  0  0  0  0  0  0  0  0  0  0
   -1.4451   -0.6461    0.0000 N   0  0  0  0  0  0  0  0  0  0  0  0
   -0.2064   -1.3530    0.0000 C   0  0  0  0  0  0  0  0  0  0  0  0
   -1.0343   -2.7909    0.0000 C   0  0  0  0  0  0  0  0  0  0  0  0
   -2.6863   -2.7895    0.0000 O   0  0  0  0  0  0  0  0  0  0  0  0
   -3.5120   -2.7881    0.0000 C   0  0  0  0  0  0  0  0  0  0  0  0
   -3.5100   -1.3537    0.0000 C   0  0  0  0  0  0  0  0  0  0  0  0
    1.2554    0.1063    0.0000 Na  0  0  0  0  0 15  0  0  0  0  0  0
 11  6  1  0
  6  5  1  0
  9 12  1  0
  5  2  1  0
 12 13  1  0
  1  3  1  0
 14 15  2  0
  6  7  2  0
 15 16  1  0
  2  4  2  0
 16 17  2  0
  7  8  1  0
 17 18  1  0
 18 19  2  0
 19 14  1  0
  8  9  2  0
 18 20  1  0
  1  2  1  0
 17 21  1  0
  9 10  1  0
 16 22  1  0
  4  7  1  0
 22 23  1  0
 10 11  2  0
 15 24  1  0
  1 20  1  1
M  CHG  4   1   1   3  -1   5  -1  25   1
M  END
> <chembl_id>
CHEMBL1200470

> <chembl_pref_name>
ESOMEPRAZOLE SODIUM
