
     RDKit          2D

 30 31  0  0  0  0  0  0  0  0999 V2000
   10.7545   -2.9170    0.0000 O   0  0  0  0  0  0  0  0  0  0  0  0
    6.9978   -1.1550    0.0000 C   0  0  0  0  0  0  0  0  0  0  0  0
    7.6627   -1.6451    0.0000 C   0  0  0  0  0  0  0  0  0  0  0  0
    7.2501   -0.3689    0.0000 N   0  0  0  0  0  0  0  0  0  0  0  0
    8.3324   -1.1550    0.0000 C   0  0  0  0  0  0  0  0  0  0  0  0
    8.0800   -0.3689    0.0000 C   0  0  0  0  0  0  0  0  0  0  0  0
   10.3948   -0.4513    0.0000 N   0  0  0  0  0  0  0  0  0  0  0  0
    6.1728   -1.1647    0.0000 O   0  0  0  0  0  0  0  0  0  0  0  0
    6.9444   -2.0527    0.0000 C   0  0  0  0  0  0  0  0  0  0  0  0
    8.3857   -2.0333    0.0000 C   0  0  0  0  0  0  0  0  0  0  0  0
    9.1573   -1.1550    0.0000 C   0  0  0  0  0  0  0  0  0  0  0  0
   12.0399   -0.4513    0.0000 O   0  0  0  0  0  0  0  0  0  0  0  0
    9.5698   -0.4464    0.0000 C   0  0  0  0  0  0  0  0  0  0  0  0
    6.5271    0.0437    0.0000 C   0  0  0  0  0  0  0  0  0  0  0  0
   10.8073    0.2621    0.0000 C   0  0  0  0  0  0  0  0  0  0  0  0
   10.7975   -1.1696    0.0000 C   0  0  0  0  0  0  0  0  0  0  0  0
   11.6274   -1.1696    0.0000 C   0  0  0  0  0  0  0  0  0  0  0  0
   11.6274    0.2621    0.0000 C   0  0  0  0  0  0  0  0  0  0  0  0
    8.4052   -2.8535    0.0000 C   0  0  0  0  0  0  0  0  0  0  0  0
    9.0796   -1.6014    0.0000 C   0  0  0  0  0  0  0  0  0  0  0  0
    6.2262   -1.6257    0.0000 C   0  0  0  0  0  0  0  0  0  0  0  0
    6.9347   -2.8777    0.0000 C   0  0  0  0  0  0  0  0  0  0  0  0
    5.8040   -0.3591    0.0000 C   0  0  0  0  0  0  0  0  0  0  0  0
    5.5031   -2.0333    0.0000 C   0  0  0  0  0  0  0  0  0  0  0  0
    6.2165   -3.2853    0.0000 C   0  0  0  0  0  0  0  0  0  0  0  0
    9.1282   -3.2417    0.0000 C   0  0  0  0  0  0  0  0  0  0  0  0
    9.8028   -1.9896    0.0000 C   0  0  0  0  0  0  0  0  0  0  0  0
    9.8270   -2.8098    0.0000 C   0  0  0  0  0  0  0  0  0  0  0  0
    5.4982   -2.8631    0.0000 C   0  0  0  0  0  0  0  0  0  0  0  0
    7.6336   -3.8968    0.0000 Cl  0  0  0  0  0  0  0  0  0  0  0  0
  3  2  1  0
  4  2  1  0
  5  3  1  0
  6  4  1  0
  7 13  1  0
  8  2  2  0
  9  3  1  0
 10  3  1  0
 11  5  1  0
 12 17  1  0
 13 11  1  0
 14  4  1  0
 15  7  1  0
 16  7  1  0
 17 16  1  0
 18 15  1  0
 19 10  2  0
 20 10  1  0
 21  9  2  0
 22  9  1  0
 23 14  1  0
 24 21  1  0
 25 22  2  0
 26 19  1  0
 27 20  2  0
 28 27  1  0
 29 25  1  0
  5  6  1  0
 28 26  2  0
 29 24  2  0
 12 18  1  0
M  END
> <chembl_id>
CHEMBL3989519

> <chembl_pref_name>
DOXAPRAM HYDROCHLORIDE
