
     RDKit          2D

 48 46  0  0  0  0  0  0  0  0999 V2000
   -8.7804   -0.2357    0.0000 Na  0  0  0  0  0 15  0  0  0  0  0  0
   -3.4694    0.7661    0.0000 C   0  0  0  0  0  0  0  0  0  0  0  0
   -3.4695    1.5911    0.0000 C   0  0  0  0  0  0  0  0  0  0  0  0
   -4.1839    2.0036    0.0000 C   0  0  0  0  0  0  0  0  0  0  0  0
   -4.8984    1.5911    0.0000 N   0  0  0  0  0  0  0  0  0  0  0  0
   -4.8984    0.7661    0.0000 C   0  0  0  0  0  0  0  0  0  0  0  0
   -4.1839    0.3536    0.0000 N   0  0  0  0  0  0  0  0  0  0  0  0
   -2.6849    0.5111    0.0000 N   0  0  0  0  0  0  0  0  0  0  0  0
   -2.1999    1.1786    0.0000 C   0  0  0  0  0  0  0  0  0  0  0  0
   -2.6848    1.8460    0.0000 N   0  0  0  0  0  0  0  0  0  0  0  0
   -4.1839    2.8286    0.0000 N   0  0  0  0  0  0  0  0  0  0  0  0
   -4.8984    3.2411    0.0000 C   0  0  0  0  0  0  0  0  0  0  0  0
   -5.6129    2.8286    0.0000 C   0  0  0  0  0  0  0  0  0  0  0  0
   -6.3273    3.2411    0.0000 S   0  0  0  0  0  0  0  0  0  0  0  0
   -7.0418    2.8286    0.0000 C   0  0  0  0  0  0  0  0  0  0  0  0
   -5.6129    0.3536    0.0000 S   0  0  0  0  0  0  0  0  0  0  0  0
   -6.3273    0.7661    0.0000 C   0  0  0  0  0  0  0  0  0  0  0  0
   -7.0418    0.3536    0.0000 C   0  0  0  0  0  0  0  0  0  0  0  0
   -7.7563    0.7661    0.0000 C   0  0  0  0  0  0  0  0  0  0  0  0
   -8.4708    0.3536    0.0000 F   0  0  0  0  0  0  0  0  0  0  0  0
   -7.7563    1.5911    0.0000 F   0  0  0  0  0  0  0  0  0  0  0  0
   -8.4708    1.1786    0.0000 F   0  0  0  0  0  0  0  0  0  0  0  0
   -3.8598   -0.8598    0.0000 O   0  0  0  0  0  0  0  0  0  0  0  0
   -4.5272   -1.3448    0.0000 C   0  0  0  0  0  0  0  0  0  0  0  0
   -4.2723   -2.1293    0.0000 C   0  0  0  0  0  0  0  0  0  0  0  0
   -3.4473   -2.1293    0.0000 C   0  0  0  0  0  0  0  0  0  0  0  0
   -3.1924   -1.3448    0.0000 C   0  0  0  0  0  0  0  0  0  0  0  0
   -5.3119   -1.0898    0.0000 C   0  0  0  0  0  0  0  0  0  0  0  0
   -6.0263   -1.5023    0.0000 O   0  0  0  0  0  0  0  0  0  0  0  0
   -6.7408   -1.0898    0.0000 P   0  0  0  0  0  0  0  0  0  0  0  0
   -7.4553   -1.5023    0.0000 O   0  0  0  0  0  0  0  0  0  0  0  0
   -8.1698   -1.0898    0.0000 P   0  0  0  0  0  0  0  0  0  0  0  0
   -8.8842   -1.5023    0.0000 C   0  0  0  0  0  0  0  0  0  0  0  0
   -9.5987   -1.0898    0.0000 P   0  0  0  0  0  0  0  0  0  0  0  0
   -9.2967   -2.2168    0.0000 Cl  0  0  0  0  0  0  0  0  0  0  0  0
   -8.3009   -2.0857    0.0000 Cl  0  0  0  0  0  0  0  0  0  0  0  0
   -9.5987   -0.2648    0.0000 O   0  0  0  0  0  0  0  0  0  0  0  0
  -10.3956   -0.8763    0.0000 O   0  0  0  0  0  0  0  0  0  0  0  0
  -10.1821   -1.6732    0.0000 O   0  0  0  0  0  0  0  0  0  0  0  0
   -7.5864   -0.5065    0.0000 O   0  0  0  0  0  0  0  0  0  0  0  0
   -7.1533   -0.3754    0.0000 O   0  0  0  0  0  0  0  0  0  0  0  0
   -6.3283   -0.3754    0.0000 O   0  0  0  0  0  0  0  0  0  0  0  0
   -8.8842   -0.6773    0.0000 O   0  0  0  0  0  0  0  0  0  0  0  0
   -4.7572   -2.7968    0.0000 O   0  0  0  0  0  0  0  0  0  0  0  0
   -2.9624   -2.7968    0.0000 O   0  0  0  0  0  0  0  0  0  0  0  0
  -10.7839   -2.1214    0.0000 Na  0  0  0  0  0 15  0  0  0  0  0  0
  -11.2554   -0.7955    0.0000 Na  0  0  0  0  0 15  0  0  0  0  0  0
   -5.6866   -0.3536    0.0000 Na  0  0  0  0  0 15  0  0  0  0  0  0
  7  2  1  0
  3  4  1  0
  4  5  2  0
  5  6  1  0
  6  7  2  0
  2  8  1  0
  3  2  2  0
  3 10  1  0
  8  9  1  0
  9 10  2  0
  4 11  1  0
 11 12  1  0
 12 13  1  0
 13 14  1  0
 14 15  1  0
  6 16  1  0
 16 17  1  0
 17 18  1  0
 18 19  1  0
 19 20  1  0
 19 21  1  0
 19 22  1  0
 23 24  1  0
 23 27  1  0
 24 25  1  0
 25 26  1  0
 26 27  1  0
 24 28  1  1
 28 29  1  0
 29 30  1  0
 30 31  1  0
 31 32  1  0
 32 33  1  0
 33 34  1  0
 33 35  1  0
 33 36  1  0
 34 37  2  0
 34 38  1  0
 34 39  1  0
 32 40  2  0
 30 41  2  0
 30 42  1  0
 32 43  1  0
 25 44  1  6
 26 45  1  6
 27  8  1  1
M  CHG  8   1   1  38  -1  39  -1  42  -1  43  -1  46   1  47   1  48   1
M  END
> <chembl_id>
CHEMBL1097279

> <chembl_pref_name>
CANGRELOR TETRASODIUM
