
     RDKit          2D

 15 12  0  0  0  0  0  0  0  0999 V2000
    5.4884   -9.5464    0.0000 C   0  0  0  0  0  0  0  0  0  0  0  0
    6.1962   -9.9624    0.0000 O   0  0  0  0  0  0  0  0  0  0  0  0
    5.4884   -8.7526    0.0000 O   0  0  0  0  0  0  0  0  0  0  0  0
    2.6624   -9.5608    0.0000 O   0  0  0  0  0  0  0  0  0  0  0  0
    4.7760   -9.9624    0.0000 C   0  0  0  0  0  0  0  0  0  0  0  0
    3.3702   -9.9624    0.0000 C   0  0  0  0  0  0  0  0  0  0  0  0
    4.0826   -9.5464    0.0000 C   0  0  0  0  0  0  0  0  0  0  0  0
    5.3077   -7.5216    0.0000 C   0  0  0  0  0  0  0  0  0  0  0  0
    6.0154   -7.9377    0.0000 O   0  0  0  0  0  0  0  0  0  0  0  0
    5.3077   -6.7278    0.0000 O   0  0  0  0  0  0  0  0  0  0  0  0
    2.4817   -7.5360    0.0000 O   0  0  0  0  0  0  0  0  0  0  0  0
    4.5952   -7.9377    0.0000 C   0  0  0  0  0  0  0  0  0  0  0  0
    3.1894   -7.9377    0.0000 C   0  0  0  0  0  0  0  0  0  0  0  0
    3.9019   -7.5216    0.0000 C   0  0  0  0  0  0  0  0  0  0  0  0
    6.7038   -8.5518    0.0000 Mg  0  0  0  0  0 15  0  0  0  0  0  0
  2  1  1  0
  3  1  2  0
  4  6  1  0
  5  1  1  0
  6  7  1  0
  7  5  1  0
  9  8  1  0
 10  8  2  0
 11 13  1  0
 12  8  1  0
 13 14  1  0
 14 12  1  0
M  CHG  3   2  -1   9  -1  15   2
M  END
> <chembl_id>
CHEMBL4594394

> <chembl_pref_name>
MAGNESIUM OXYBATE
