
     RDKit          2D

 12 12  0  0  1  0  0  0  0  0999 V2000
   -0.2708   -0.3292    0.0000 C   0  0  0  0  0  0  0  0  0  0  0  0
    1.0667    0.1208    0.0000 C   0  0  0  0  0  0  0  0  0  0  0  0
   -1.3500    0.6000    0.0000 C   0  0  0  0  0  0  0  0  0  0  0  0
   -2.7208    0.1375    0.0000 N   0  0  0  0  0  0  0  0  0  0  0  0
   -0.5500   -1.7417    0.0000 O   0  0  0  0  0  0  0  0  0  0  0  0
    2.1542   -0.8125    0.0000 C   0  0  0  0  0  0  0  0  0  0  0  0
    1.3417    1.5208    0.0000 C   0  0  0  0  0  0  0  0  0  0  0  0
   -3.7958    1.0833    0.0000 C   0  0  0  0  0  0  0  0  0  0  0  0
   -1.0708    2.0208    0.0000 C   0  0  0  0  0  0  0  0  0  0  0  0
    3.5125   -0.3417    0.0000 C   0  0  0  0  0  0  0  0  0  0  0  0
    2.7125    1.9958    0.0000 C   0  0  0  0  0  0  0  0  0  0  0  0
    3.7917    1.0458    0.0000 C   0  0  0  0  0  0  0  0  0  0  0  0
  2  1  1  0
  3  1  1  0
  3  4  1  1
  1  5  1  1
  6  2  2  0
  7  2  1  0
  8  4  1  0
  9  3  1  0
 10  6  1  0
 11  7  2  0
 12 11  1  0
 10 12  2  0
M  END
> <chembl_id>
CHEMBL211456

> <chembl_pref_name>
EPHEDRINE
