
     RDKit          2D

 29 30  0  0  0  0  0  0  0  0999 V2000
    4.2370  -23.9140    0.0000 Cl  0  0  0  0  0  0  0  0  0  0  0  0
    1.5165  -21.2684    0.0000 C   0  0  0  0  0  0  0  0  0  0  0  0
    1.4665  -23.7431    0.0000 N   0  0  0  0  0  0  0  0  0  0  0  0
    1.5290  -20.4519    0.0000 C   0  0  0  0  0  0  0  0  0  0  0  0
    1.4790  -22.9182    0.0000 C   0  0  0  0  0  0  0  0  0  0  0  0
    0.7916  -21.6683    0.0000 C   0  0  0  0  0  0  0  0  0  0  0  0
    2.2164  -21.7017    0.0000 C   0  0  0  0  0  0  0  0  0  0  0  0
    0.7791  -22.4932    0.0000 C   0  0  0  0  0  0  0  0  0  0  0  0
    2.2039  -22.5182    0.0000 C   0  0  0  0  0  0  0  0  0  0  0  0
    2.2539  -20.0519    0.0000 C   0  0  0  0  0  0  0  0  0  0  0  0
    0.8291  -20.0185    0.0000 C   0  0  0  0  0  0  0  0  0  0  0  0
    3.6996  -19.2561    0.0000 C   0  0  0  0  0  0  0  0  0  0  0  0
   -0.5832  -19.1686    0.0000 C   0  0  0  0  0  0  0  0  0  0  0  0
   -1.2957  -18.7395    0.0000 N   0  0  0  0  0  0  0  0  0  0  0  0
    4.4245  -18.8561    0.0000 N   0  0  0  0  0  0  0  0  0  0  0  0
    2.2747  -19.2270    0.0000 C   0  0  0  0  0  0  0  0  0  0  0  0
    0.8416  -19.1936    0.0000 C   0  0  0  0  0  0  0  0  0  0  0  0
    2.9622  -20.4768    0.0000 C   0  0  0  0  0  0  0  0  0  0  0  0
    0.1042  -20.4185    0.0000 C   0  0  0  0  0  0  0  0  0  0  0  0
    0.1375  -18.7686    0.0000 C   0  0  0  0  0  0  0  0  0  0  0  0
    3.6871  -20.0810    0.0000 C   0  0  0  0  0  0  0  0  0  0  0  0
   -0.6082  -19.9935    0.0000 C   0  0  0  0  0  0  0  0  0  0  0  0
    2.9914  -18.8270    0.0000 C   0  0  0  0  0  0  0  0  0  0  0  0
    0.7499  -24.1389    0.0000 C   0  0  0  0  0  0  0  0  0  0  0  0
    2.1665  -24.1639    0.0000 C   0  0  0  0  0  0  0  0  0  0  0  0
    5.1286  -19.2811    0.0000 C   0  0  0  0  0  0  0  0  0  0  0  0
   -2.0206  -19.1395    0.0000 C   0  0  0  0  0  0  0  0  0  0  0  0
   -1.2707  -17.9187    0.0000 C   0  0  0  0  0  0  0  0  0  0  0  0
    4.4412  -18.0312    0.0000 C   0  0  0  0  0  0  0  0  0  0  0  0
  3  5  2  0
  4  2  2  0
  5  9  1  0
  6  2  1  0
  7  2  1  0
  8  6  2  0
  9  7  2  0
 10  4  1  0
 11  4  1  0
 12 21  2  0
 13 20  2  0
 14 13  1  0
 15 12  1  0
 16 10  1  0
 17 11  2  0
 18 10  2  0
 19 11  1  0
 20 17  1  0
 21 18  1  0
 22 19  2  0
 23 16  2  0
 24  3  1  0
 25  3  1  0
 26 15  1  0
 27 14  1  0
 28 14  1  0
 29 15  1  0
  5  8  1  0
 22 13  1  0
 23 12  1  0
M  CHG  2   1  -1   3   1
M  END
> <chembl_id>
CHEMBL64894

> <chembl_pref_name>
GENTIAN VIOLET
