
     RDKit          2D

 18 19  0  0  0  0  0  0  0  0999 V2000
    4.6583   -7.2667    0.0000 C   0  0  0  0  0  0  0  0  0  0  0  0
    4.6542   -6.5625    0.0000 C   0  0  0  0  0  0  0  0  0  0  0  0
    4.0417   -7.6250    0.0000 N   0  0  0  0  0  0  0  0  0  0  0  0
    5.3292   -7.4792    0.0000 N   0  0  0  0  0  0  0  0  0  0  0  0
    3.4292   -6.5625    0.0000 N   0  0  0  0  0  0  0  0  0  0  0  0
    5.3250   -6.3375    0.0000 N   0  0  0  0  0  0  0  0  0  0  0  0
    4.0417   -6.2042    0.0000 C   0  0  0  0  0  0  0  0  0  0  0  0
    3.4292   -7.2667    0.0000 C   0  0  0  0  0  0  0  0  0  0  0  0
    5.7417   -6.9083    0.0000 C   0  0  0  0  0  0  0  0  0  0  0  0
    5.3250   -8.1875    0.0000 C   0  0  0  0  0  0  0  0  0  0  0  0
    4.0417   -5.5000    0.0000 O   0  0  0  0  0  0  0  0  0  0  0  0
    2.8167   -7.6208    0.0000 N   0  0  0  0  0  0  0  0  0  0  0  0
    5.9333   -8.5458    0.0000 O   0  0  0  0  0  0  0  0  0  0  0  0
    5.9250   -9.2542    0.0000 C   0  0  0  0  0  0  0  0  0  0  0  0
    7.1500   -9.2708    0.0000 O   0  0  0  0  0  0  0  0  0  0  0  0
    4.6958   -9.2417    0.0000 O   0  0  0  0  0  0  0  0  0  0  0  0
    5.3083   -9.6000    0.0000 C   0  0  0  0  0  0  0  0  0  0  0  0
    6.5333   -9.6167    0.0000 C   0  0  0  0  0  0  0  0  0  0  0  0
  2  1  2  0
  3  1  1  0
  4  1  1  0
  5  8  1  0
  6  2  1  0
  7  2  1  0
  8  3  2  0
  9  4  1  0
 10  4  1  0
 11  7  2  0
 12  8  1  0
 13 10  1  0
 14 13  1  0
 15 18  1  0
 16 17  1  0
 17 14  1  0
 18 14  1  0
  6  9  2  0
  7  5  1  0
M  END
> <chembl_id>
CHEMBL182

> <chembl_pref_name>
GANCICLOVIR
