
     RDKit          2D

 29 29  0  0  0  0  0  0  0  0999 V2000
    4.0366   -5.2446    0.0000 Cl  0  0  0  0  0  0  0  0  0  0  0  0
    1.8202   -3.8763    0.0000 C   0  0  0  0  0  0  0  0  0  0  0  0
    1.1557   -3.3851    0.0000 C   0  0  0  0  0  0  0  0  0  0  0  0
    1.7817   -2.0417    0.0000 N   0  0  0  0  0  0  0  0  0  0  0  0
    1.1412   -2.5762    0.0000 C   0  0  0  0  0  0  0  0  0  0  0  0
    2.6195   -3.6885    0.0000 N   0  0  0  0  0  0  0  0  0  0  0  0
    1.4012   -4.5841    0.0000 C   0  0  0  0  0  0  0  0  0  0  0  0
    2.6002   -2.2102    0.0000 C   0  0  0  0  0  0  0  0  0  0  0  0
    1.4205   -1.2616    0.0000 C   0  0  0  0  0  0  0  0  0  0  0  0
    3.0047   -2.9614    0.0000 C   0  0  0  0  0  0  0  0  0  0  0  0
    0.4238   -2.1669    0.0000 C   0  0  0  0  0  0  0  0  0  0  0  0
    0.4623   -3.7992    0.0000 C   0  0  0  0  0  0  0  0  0  0  0  0
    1.7961   -5.3016    0.0000 C   0  0  0  0  0  0  0  0  0  0  0  0
    3.0914   -1.5505    0.0000 O   0  0  0  0  0  0  0  0  0  0  0  0
   -0.2696   -3.3996    0.0000 C   0  0  0  0  0  0  0  0  0  0  0  0
    0.6356   -1.2327    0.0000 C   0  0  0  0  0  0  0  0  0  0  0  0
    0.2793   -0.4960    0.0000 N   0  0  0  0  0  0  0  0  0  0  0  0
   -0.2841   -2.5617    0.0000 C   0  0  0  0  0  0  0  0  0  0  0  0
    2.6195   -5.2920    0.0000 F   0  0  0  0  0  0  0  0  0  0  0  0
   -0.9679   -3.8185    0.0000 Cl  0  0  0  0  0  0  0  0  0  0  0  0
    0.5682   -4.5648    0.0000 C   0  0  0  0  0  0  0  0  0  0  0  0
    1.4012   -5.9998    0.0000 C   0  0  0  0  0  0  0  0  0  0  0  0
   -0.5296   -0.4767    0.0000 C   0  0  0  0  0  0  0  0  0  0  0  0
    0.7271    0.1685    0.0000 C   0  0  0  0  0  0  0  0  0  0  0  0
    0.1445   -5.2775    0.0000 C   0  0  0  0  0  0  0  0  0  0  0  0
   -1.0208   -1.1461    0.0000 C   0  0  0  0  0  0  0  0  0  0  0  0
    0.3949    0.8908    0.0000 C   0  0  0  0  0  0  0  0  0  0  0  0
    0.5682   -5.9854    0.0000 C   0  0  0  0  0  0  0  0  0  0  0  0
    3.5585   -4.1459    0.0000 Cl  0  0  0  0  0  0  0  0  0  0  0  0
  3  2  1  0
  4  5  1  0
  5  3  2  0
  6  2  2  0
  7  2  1  0
  8 10  1  0
  9  4  1  0
 10  6  1  0
 11  5  1  0
 12  3  1  0
 13  7  1  0
 14  8  2  0
 15 12  2  0
 16  9  1  0
 17 16  1  0
 18 15  1  0
 19 13  1  0
 20 15  1  0
 21  7  2  0
 22 13  2  0
 23 17  1  0
 24 17  1  0
 25 21  1  0
 26 23  1  0
 27 24  1  0
 28 25  2  0
  4  8  1  0
 22 28  1  0
 11 18  2  0
M  END
> <chembl_id>
CHEMBL3989724

> <chembl_pref_name>
FLURAZEPAM HYDROCHLORIDE
