
     RDKit          2D

 21 22  0  0  0  0  0  0  0  0999 V2000
    5.2417   -6.2500    0.0000 Cl  0  0  0  0  0  0  0  0  0  0  0  0
    4.6417   -4.1250    0.0000 N   0  0  0  0  0  0  0  0  0  0  0  0
    5.2792   -3.8250    0.0000 C   0  0  0  0  0  0  0  0  0  0  0  0
    4.0125   -3.8167    0.0000 C   0  0  0  0  0  0  0  0  0  0  0  0
    5.4542   -3.1417    0.0000 C   0  0  0  0  0  0  0  0  0  0  0  0
    3.8542   -3.1292    0.0000 C   0  0  0  0  0  0  0  0  0  0  0  0
    5.0042   -2.5792    0.0000 C   0  0  0  0  0  0  0  0  0  0  0  0
    4.3000   -2.5792    0.0000 C   0  0  0  0  0  0  0  0  0  0  0  0
    4.6417   -4.8667    0.0000 C   0  0  0  0  0  0  0  0  0  0  0  0
    3.3917   -6.1917    0.0000 N   0  0  0  0  0  0  0  0  0  0  0  0
    4.0167   -5.1625    0.0000 C   0  0  0  0  0  0  0  0  0  0  0  0
    3.4792   -4.2917    0.0000 C   0  0  0  0  0  0  0  0  0  0  0  0
    5.7875   -4.3167    0.0000 C   0  0  0  0  0  0  0  0  0  0  0  0
    4.0167   -5.8417    0.0000 C   0  0  0  0  0  0  0  0  0  0  0  0
    3.1792   -2.9042    0.0000 C   0  0  0  0  0  0  0  0  0  0  0  0
    6.1500   -2.9417    0.0000 C   0  0  0  0  0  0  0  0  0  0  0  0
    3.3792   -6.8917    0.0000 C   0  0  0  0  0  0  0  0  0  0  0  0
    6.4792   -4.1292    0.0000 C   0  0  0  0  0  0  0  0  0  0  0  0
    2.8000   -4.0792    0.0000 C   0  0  0  0  0  0  0  0  0  0  0  0
    2.6500   -3.3792    0.0000 C   0  0  0  0  0  0  0  0  0  0  0  0
    6.6542   -3.4500    0.0000 C   0  0  0  0  0  0  0  0  0  0  0  0
  3  2  1  0
  4  2  1  0
  5  3  2  0
  6  4  2  0
  7  5  1  0
  8  6  1  0
  9  2  1  0
 10 14  1  0
 11  9  1  0
 12  4  1  0
 13  3  1  0
 14 11  1  0
 15  6  1  0
 16  5  1  0
 17 10  1  0
 18 13  2  0
 19 12  2  0
 20 19  1  0
 21 18  1  0
  8  7  1  0
 20 15  2  0
 21 16  2  0
M  END
> <chembl_id>
CHEMBL1696

> <chembl_pref_name>
DESIPRAMINE HYDROCHLORIDE
