
     RDKit          2D

 40 42  0  0  0  0  0  0  0  0999 V2000
    2.8621   -0.2780    0.0000 B   0  0  0  0  0  0  0  0  0  0  0  0
    2.1476    0.1345    0.0000 C   0  0  0  0  0  0  0  0  0  0  0  0
    1.4331   -0.2779    0.0000 N   0  0  0  0  0  0  0  0  0  0  0  0
    0.7187    0.1346    0.0000 C   0  0  0  0  0  0  0  0  0  0  0  0
    0.0042   -0.2779    0.0000 C   0  0  0  0  0  0  0  0  0  0  0  0
    0.0042   -1.1029    0.0000 N   0  0  0  0  0  0  0  0  0  0  0  0
    0.7186   -1.5154    0.0000 C   0  0  0  0  0  0  0  0  0  0  0  0
    0.7186   -2.3404    0.0000 C   0  0  0  0  0  0  0  0  0  0  0  0
    1.4331   -2.7529    0.0000 C   0  0  0  0  0  0  0  0  0  0  0  0
    1.4331   -3.5779    0.0000 N   0  0  0  0  0  0  0  0  0  0  0  0
    0.0041   -3.5779    0.0000 C   0  0  0  0  0  0  0  0  0  0  0  0
    0.0042   -2.7529    0.0000 N   0  0  0  0  0  0  0  0  0  0  0  0
    0.7186   -3.9904    0.0000 C   0  0  0  0  0  0  0  0  0  0  0  0
    1.4331   -1.1029    0.0000 O   0  0  0  0  0  0  0  0  0  0  0  0
   -2.1392    0.1346    0.0000 C   0  0  0  0  0  0  0  0  0  0  0  0
   -1.4248   -0.2779    0.0000 C   0  0  0  0  0  0  0  0  0  0  0  0
   -0.7103    0.1346    0.0000 C   0  0  0  0  0  0  0  0  0  0  0  0
   -2.8537   -0.2779    0.0000 C   0  0  0  0  0  0  0  0  0  0  0  0
   -2.8537   -1.1029    0.0000 C   0  0  0  0  0  0  0  0  0  0  0  0
   -2.1392   -1.5154    0.0000 C   0  0  0  0  0  0  0  0  0  0  0  0
   -1.4248   -1.1029    0.0000 C   0  0  0  0  0  0  0  0  0  0  0  0
    2.9483   -1.0984    0.0000 O   0  0  0  0  0  0  0  0  0  0  0  0
    3.7553   -1.2700    0.0000 C   0  0  0  0  0  0  0  0  0  0  0  0
    4.1678   -0.5555    0.0000 C   0  0  0  0  0  0  0  0  0  0  0  0
    3.6158    0.0576    0.0000 O   0  0  0  0  0  0  0  0  0  0  0  0
    0.7187    0.9596    0.0000 O   0  0  0  0  0  0  0  0  0  0  0  0
    4.9883   -0.4693    0.0000 C   0  0  0  0  0  0  0  0  0  0  0  0
    4.4634    0.2147    0.0000 H   0  0  0  0  0  0  0  0  0  0  0  0
    5.4732   -1.1367    0.0000 C   0  0  0  0  0  0  0  0  0  0  0  0
    5.3238    0.2844    0.0000 O   0  0  0  0  0  0  0  0  0  0  0  0
    6.2937   -1.0505    0.0000 O   0  0  0  0  0  0  0  0  0  0  0  0
    3.2361   -1.9111    0.0000 H   0  0  0  0  0  0  0  0  0  0  0  0
    4.0908   -2.0237    0.0000 C   0  0  0  0  0  0  0  0  0  0  0  0
    4.9113   -2.1099    0.0000 C   0  0  0  0  0  0  0  0  0  0  0  0
    3.6059   -2.6911    0.0000 O   0  0  0  0  0  0  0  0  0  0  0  0
    5.2468   -2.8636    0.0000 O   0  0  0  0  0  0  0  0  0  0  0  0
    2.3657    0.8723    0.0000 C   0  0  0  0  0  0  0  0  0  0  0  0
    1.7603    1.4593    0.0000 C   0  0  0  0  0  0  0  0  0  0  0  0
    0.9593    1.4593    0.0000 C   0  0  0  0  0  0  0  0  0  0  0  0
    1.6362    2.4023    0.0000 C   0  0  0  0  0  0  0  0  0  0  0  0
  1  2  1  0
  2  3  1  0
  3  4  1  0
  4  5  1  0
  5  6  1  0
  6  7  1  0
  7  8  1  0
  8  9  1  0
  9 10  2  0
 11 12  1  0
 11 13  2  0
 12  8  2  0
 10 13  1  0
  7 14  2  0
 15 16  1  0
 16 17  1  0
  5 17  1  1
 18 19  1  0
 19 20  2  0
 20 21  1  0
 15 18  2  0
 21 16  2  0
 22 23  1  0
 23 24  1  0
 24 25  1  0
 25  1  1  0
 22  1  1  0
  4 26  2  0
 24 27  1  0
 24 28  1  1
 27 29  1  0
 27 30  1  6
 29 31  1  0
 23 32  1  6
 23 33  1  0
 33 34  1  0
 33 35  1  1
 34 36  1  0
  2 37  1  1
 37 38  1  0
 38 39  1  0
 38 40  1  0
M  END
> <chembl_id>
CHEMBL5315122

> <chembl_pref_name>
BORTEZOMIB D-MANNITOL
