
     RDKit          2D

  9  9  0  0  0  0  0  0  0  0999 V2000
   -1.4708    2.2458    0.0000 N   0  0  0  0  0  0  0  0  0  0  0  0
   -1.0208    0.8458    0.0000 C   0  0  0  0  0  0  0  0  0  0  0  0
    0.4042    0.8458    0.0000 C   0  0  0  0  0  0  0  0  0  0  0  0
   -0.3083    3.0458    0.0000 C   0  0  0  0  0  0  0  0  0  0  0  0
    0.8542    2.2458    0.0000 S   0  0  0  0  0  0  0  0  0  0  0  0
    1.2250   -0.3292    0.0000 C   0  0  0  0  0  0  0  0  0  0  0  0
    1.4417   -2.7792    0.0000 Cl  0  0  0  0  0  0  0  0  0  0  0  0
   -1.8458   -0.3292    0.0000 C   0  0  0  0  0  0  0  0  0  0  0  0
    0.6292   -1.6167    0.0000 C   0  0  0  0  0  0  0  0  0  0  0  0
  2  1  1  0
  3  2  2  0
  4  1  2  0
  5  4  1  0
  6  3  1  0
  7  9  1  0
  8  2  1  0
  9  6  1  0
  3  5  1  0
M  END
> <chembl_id>
CHEMBL315795

> <chembl_pref_name>
CLOMETHIAZOLE
