
     RDKit          2D

 26 28  0  0  0  0  0  0  0  0999 V2000
   -0.1889    1.4352    0.0000 C   0  0  0  0  0  0  0  0  0  0  0  0
   -0.4438    2.2198    0.0000 C   0  0  0  0  0  0  0  0  0  0  0  0
    0.1082    2.8329    0.0000 C   0  0  0  0  0  0  0  0  0  0  0  0
    0.9152    2.6614    0.0000 C   0  0  0  0  0  0  0  0  0  0  0  0
    1.1701    1.8767    0.0000 C   0  0  0  0  0  0  0  0  0  0  0  0
   -0.0493    0.1076    0.0000 C   0  0  0  0  0  0  0  0  0  0  0  0
   -0.6014    0.7207    0.0000 N   0  0  0  0  0  0  0  0  0  0  0  0
    0.6181    1.2636    0.0000 C   0  0  0  0  0  0  0  0  0  0  0  0
    0.7043    0.4432    0.0000 C   0  0  0  0  0  0  0  0  0  0  0  0
   -0.2209   -0.6994    0.0000 C   0  0  0  0  0  0  0  0  0  0  0  0
    1.4188    0.0307    0.0000 C   0  0  0  0  0  0  0  0  0  0  0  0
    2.1333    0.4432    0.0000 C   0  0  0  0  0  0  0  0  0  0  0  0
    2.8478    0.0307    0.0000 N   0  0  0  0  0  0  0  0  0  0  0  0
    3.5622    0.4432    0.0000 C   0  0  0  0  0  0  0  0  0  0  0  0
    4.2767    0.0307    0.0000 C   0  0  0  0  0  0  0  0  0  0  0  0
    4.2767   -0.7943    0.0000 C   0  0  0  0  0  0  0  0  0  0  0  0
    4.9912    0.4432    0.0000 C   0  0  0  0  0  0  0  0  0  0  0  0
    5.7056    0.0307    0.0000 C   0  0  0  0  0  0  0  0  0  0  0  0
    5.7056   -0.7943    0.0000 C   0  0  0  0  0  0  0  0  0  0  0  0
    4.9912   -1.2068    0.0000 C   0  0  0  0  0  0  0  0  0  0  0  0
    6.4201   -1.2068    0.0000 C   0  0  0  0  0  0  0  0  0  0  0  0
    6.4201   -2.0318    0.0000 C   0  0  0  0  0  0  0  0  0  0  0  0
    7.1346   -2.4443    0.0000 C   0  0  0  0  0  0  0  0  0  0  0  0
    7.8490   -2.0318    0.0000 O   0  0  0  0  0  0  0  0  0  0  0  0
    7.1346   -3.2693    0.0000 N   0  0  0  0  0  0  0  0  0  0  0  0
    7.8490   -3.6818    0.0000 O   0  0  0  0  0  0  0  0  0  0  0  0
  1  2  1  0
  2  3  2  0
  3  4  1  0
  4  5  2  0
  5  8  1  0
  7  1  1  0
  6  7  1  0
  6  9  2  0
  8  9  1  0
  1  8  2  0
  6 10  1  0
  9 11  1  0
 11 12  1  0
 12 13  1  0
 13 14  1  0
 14 15  1  0
 16 15  1  0
 15 17  2  0
 16 20  2  0
 17 18  1  0
 18 19  2  0
 19 20  1  0
 19 21  1  0
 21 22  2  0
 22 23  1  0
 23 24  2  0
 23 25  1  0
 25 26  1  0
M  END
> <chembl_id>
CHEMBL483254

> <chembl_pref_name>
PANOBINOSTAT
