
  SciTegic12091219252D

  7  6  0  0  0  0            999 V2000
    4.6250   -6.5542    0.0000 C   0  0
    5.2417   -6.9167    0.0000 O   0  0
    4.6250   -5.8625    0.0000 O   0  0
    2.1625   -6.5667    0.0000 O   0  0
    4.0042   -6.9167    0.0000 C   0  0
    2.7792   -6.9167    0.0000 C   0  0
    3.4000   -6.5542    0.0000 C   0  0
  2  1  1  0
  3  1  2  0
  4  6  1  0
  5  1  1  0
  6  7  1  0
  7  5  1  0
M  END
> <chembl_id>
CHEMBL1342

> <chembl_pref_name>
OXYBATE
