
     RDKit          2D

 19 20  0  0  0  0  0  0  0  0999 V2000
    1.5917   -2.4625    0.0000 N   0  0  0  0  0  0  0  0  0  0  0  0
    0.9792   -2.8167    0.0000 C   0  0  0  0  0  0  0  0  0  0  0  0
    2.2042   -2.8167    0.0000 C   0  0  0  0  0  0  0  0  0  0  0  0
    3.4167   -1.3917    0.0000 C   0  0  0  0  0  0  0  0  0  0  0  0
    2.8125   -2.4542    0.0000 C   0  0  0  0  0  0  0  0  0  0  0  0
    0.9792   -3.5292    0.0000 C   0  0  0  0  0  0  0  0  0  0  0  0
    0.3667   -2.4667    0.0000 C   0  0  0  0  0  0  0  0  0  0  0  0
    2.8042   -1.7500    0.0000 C   0  0  0  0  0  0  0  0  0  0  0  0
    4.0292   -1.7417    0.0000 O   0  0  0  0  0  0  0  0  0  0  0  0
    3.4042   -0.6792    0.0000 O   0  0  0  0  0  0  0  0  0  0  0  0
    1.5917   -3.8875    0.0000 Cl  0  0  0  0  0  0  0  0  0  0  0  0
    0.3667   -1.7542    0.0000 Cl  0  0  0  0  0  0  0  0  0  0  0  0
   -0.2458   -3.5292    0.0000 C   0  0  0  0  0  0  0  0  0  0  0  0
    2.2042   -3.5250    0.0000 C   0  0  0  0  0  0  0  0  0  0  0  0
   -0.2458   -2.8167    0.0000 C   0  0  0  0  0  0  0  0  0  0  0  0
    0.3667   -3.8875    0.0000 C   0  0  0  0  0  0  0  0  0  0  0  0
    3.4250   -2.8042    0.0000 C   0  0  0  0  0  0  0  0  0  0  0  0
    3.4292   -3.5167    0.0000 C   0  0  0  0  0  0  0  0  0  0  0  0
    2.8167   -3.8750    0.0000 C   0  0  0  0  0  0  0  0  0  0  0  0
  2  1  1  0
  3  1  1  0
  4  8  1  0
  5  3  1  0
  6  2  1  0
  7  2  2  0
  8  5  1  0
  9  4  1  0
 10  4  2  0
 11  6  1  0
 12  7  1  0
 13 15  2  0
 14  3  2  0
 15  7  1  0
 16  6  2  0
 17  5  2  0
 18 19  2  0
 19 14  1  0
 13 16  1  0
 17 18  1  0
M  END
> <chembl_id>
CHEMBL139

> <chembl_pref_name>
DICLOFENAC
