
     RDKit          2D

 23 25  0  0  0  0  0  0  0  0999 V2000
    1.1000   -5.7167    0.0000 C   0  0  0  0  0  0  0  0  0  0  0  0
    0.5292   -6.1375    0.0000 C   0  0  0  0  0  0  0  0  0  0  0  0
    1.6750   -6.1292    0.0000 C   0  0  0  0  0  0  0  0  0  0  0  0
    0.7500   -6.8042    0.0000 C   0  0  0  0  0  0  0  0  0  0  0  0
    1.4542   -6.8042    0.0000 C   0  0  0  0  0  0  0  0  0  0  0  0
    1.4500   -5.1000    0.0000 C   0  0  0  0  0  0  0  0  0  0  0  0
    1.0875   -4.4875    0.0000 O   0  0  0  0  0  0  0  0  0  0  0  0
    2.1542   -5.0875    0.0000 N   0  0  0  0  0  0  0  0  0  0  0  0
    0.7417   -5.1000    0.0000 C   0  0  0  0  0  0  0  0  0  0  0  0
   -0.1583   -5.9917    0.0000 C   0  0  0  0  0  0  0  0  0  0  0  0
    2.3625   -5.9917    0.0000 C   0  0  0  0  0  0  0  0  0  0  0  0
   -1.0375   -4.5000    0.0000 N   0  0  0  0  0  0  0  0  0  0  0  0
    1.9250   -7.3292    0.0000 C   0  0  0  0  0  0  0  0  0  0  0  0
    0.2792   -7.3292    0.0000 C   0  0  0  0  0  0  0  0  0  0  0  0
   -1.3958   -3.8875    0.0000 C   0  0  0  0  0  0  0  0  0  0  0  0
   -0.3333   -4.4917    0.0000 C   0  0  0  0  0  0  0  0  0  0  0  0
    0.0292   -5.1042    0.0000 C   0  0  0  0  0  0  0  0  0  0  0  0
   -0.6333   -6.5167    0.0000 C   0  0  0  0  0  0  0  0  0  0  0  0
    2.8292   -6.5125    0.0000 C   0  0  0  0  0  0  0  0  0  0  0  0
   -1.0458   -3.2667    0.0000 C   0  0  0  0  0  0  0  0  0  0  0  0
   -2.1083   -3.8917    0.0000 C   0  0  0  0  0  0  0  0  0  0  0  0
    2.6125   -7.1792    0.0000 C   0  0  0  0  0  0  0  0  0  0  0  0
   -0.4083   -7.1875    0.0000 C   0  0  0  0  0  0  0  0  0  0  0  0
  2  1  1  0
  3  1  1  0
  4  2  2  0
  5  3  2  0
  6  1  1  0
  7  6  2  0
  8  6  1  0
  9  1  1  0
 10  2  1  0
 11  3  1  0
 12 16  1  0
 13  5  1  0
 14  4  1  0
 15 12  1  0
 16 17  1  0
 17  9  1  0
 18 10  2  0
 19 11  2  0
 20 15  1  0
 21 15  1  0
 22 19  1  0
 23 18  1  0
  5  4  1  0
 22 13  2  0
 23 14  2  0
M  END
> <chembl_id>
CHEMBL1201242

> <chembl_pref_name>
INDECAINIDE
