
     RDKit          2D

 24 27  0  0  0  0  0  0  0  0999 V2000
  -16.7357    3.2411    0.0000 C   0  0  0  0  0  0  0  0  0  0  0  0
  -17.4502    2.8286    0.0000 C   0  0  0  0  0  0  0  0  0  0  0  0
  -17.4502    2.0036    0.0000 C   0  0  0  0  0  0  0  0  0  0  0  0
  -16.7357    1.5911    0.0000 C   0  0  0  0  0  0  0  0  0  0  0  0
  -16.0212    2.0036    0.0000 C   0  0  0  0  0  0  0  0  0  0  0  0
  -16.0212    2.8286    0.0000 C   0  0  0  0  0  0  0  0  0  0  0  0
  -16.7357    0.7661    0.0000 C   0  0  0  0  0  0  0  0  0  0  0  0
  -16.0212    0.3536    0.0000 C   0  0  0  0  0  0  0  0  0  0  0  0
  -15.3067    0.7661    0.0000 C   0  0  0  0  0  0  0  0  0  0  0  0
  -15.3067    1.5911    0.0000 C   0  0  0  0  0  0  0  0  0  0  0  0
  -17.4502    0.3536    0.0000 C   0  0  0  0  0  0  0  0  0  0  0  0
  -18.2752    0.3535    0.0000 C   0  0  0  0  0  0  0  0  0  0  0  0
  -17.8627   -0.3609    0.0000 C   0  0  0  0  0  0  0  0  0  0  0  0
  -14.5922    2.0036    0.0000 N   0  0  0  0  0  0  0  0  0  0  0  0
  -13.8386    1.6680    0.0000 C   0  0  0  0  0  0  0  0  0  0  0  0
  -13.2866    2.2811    0.0000 N   0  0  0  0  0  0  0  0  0  0  0  0
  -13.6991    2.9956    0.0000 N   0  0  0  0  0  0  0  0  0  0  0  0
  -14.5060    2.8241    0.0000 C   0  0  0  0  0  0  0  0  0  0  0  0
  -15.1191    3.3761    0.0000 Br  0  0  0  0  0  0  0  0  0  0  0  0
  -13.6670    0.8611    0.0000 S   0  0  0  0  0  0  0  0  0  0  0  0
  -12.8701    0.6475    0.0000 C   0  0  0  0  0  0  0  0  0  0  0  0
  -12.2868    1.2309    0.0000 C   0  0  0  0  0  0  0  0  0  0  0  0
  -11.4899    1.0174    0.0000 O   0  0  0  0  0  0  0  0  0  0  0  0
  -12.5003    2.0278    0.0000 O   0  0  0  0  0  0  0  0  0  0  0  0
  1  2  2  0
  1  6  1  0
  2  3  1  0
  3  4  2  0
  5  6  2  0
  4  7  1  0
  4  5  1  0
  5 10  1  0
  7  8  2  0
  8  9  1  0
  9 10  2  0
  7 11  1  0
 11 12  1  0
 13 11  1  0
 12 13  1  0
 10 14  1  0
 14 15  1  0
 14 18  1  0
 15 16  2  0
 16 17  1  0
 17 18  2  0
 18 19  1  0
 15 20  1  0
 20 21  1  0
 21 22  1  0
 22 23  1  0
 22 24  2  0
M  END
> <chembl_id>
CHEMBL2105720

> <chembl_pref_name>
LESINURAD
