
     RDKit          2D

 53 58  0  0  0  0  0  0  0  0999 V2000
    0.1201    4.2135    0.0000 C   0  0  0  0  0  0  0  0  0  0  0  0
    0.8347    3.8010    0.0000 C   0  0  0  0  0  0  0  0  0  0  0  0
    0.8347    2.9760    0.0000 C   0  0  0  0  0  0  0  0  0  0  0  0
    0.1201    2.5635    0.0000 C   0  0  0  0  0  0  0  0  0  0  0  0
   -0.5943    2.9760    0.0000 C   0  0  0  0  0  0  0  0  0  0  0  0
   -0.5943    3.8010    0.0000 C   0  0  0  0  0  0  0  0  0  0  0  0
    0.1201    1.7385    0.0000 C   0  0  0  0  0  0  0  0  0  0  0  0
    0.1201    5.0385    0.0000 S   0  0  0  0  0  0  0  0  0  0  0  0
    0.1201    5.8635    0.0000 O   0  0  0  0  0  0  0  0  0  0  0  0
    0.9452    5.0385    0.0000 O   0  0  0  0  0  0  0  0  0  0  0  0
   -0.7048    5.0385    0.0000 O   0  0  0  0  0  0  0  0  0  0  0  0
  -11.2885    1.5358    0.0000 C   0  0  0  0  0  0  0  0  0  0  0  0
  -12.0030    1.9483    0.0000 C   0  0  0  0  0  0  0  0  0  0  0  0
  -12.0030    2.7733    0.0000 C   0  0  0  0  0  0  0  0  0  0  0  0
  -11.2885    3.1858    0.0000 C   0  0  0  0  0  0  0  0  0  0  0  0
  -10.5740    2.7733    0.0000 C   0  0  0  0  0  0  0  0  0  0  0  0
  -10.5740    1.9483    0.0000 C   0  0  0  0  0  0  0  0  0  0  0  0
  -11.2885    4.0108    0.0000 C   0  0  0  0  0  0  0  0  0  0  0  0
  -10.5740    4.4233    0.0000 C   0  0  0  0  0  0  0  0  0  0  0  0
   -9.8596    4.0108    0.0000 C   0  0  0  0  0  0  0  0  0  0  0  0
   -9.8596    3.1858    0.0000 O   0  0  0  0  0  0  0  0  0  0  0  0
  -12.0030    4.4233    0.0000 O   0  0  0  0  0  0  0  0  0  0  0  0
  -11.2885    5.6608    0.0000 C   0  0  0  0  0  0  0  0  0  0  0  0
  -10.5740    5.2483    0.0000 C   0  0  0  0  0  0  0  0  0  0  0  0
   -9.8596    5.6608    0.0000 C   0  0  0  0  0  0  0  0  0  0  0  0
   -9.1451    5.2483    0.0000 C   0  0  0  0  0  0  0  0  0  0  0  0
   -9.1451    4.4233    0.0000 C   0  0  0  0  0  0  0  0  0  0  0  0
  -11.2885    6.4858    0.0000 C   0  0  0  0  0  0  0  0  0  0  0  0
  -10.5740    6.8983    0.0000 C   0  0  0  0  0  0  0  0  0  0  0  0
   -9.8596    6.4858    0.0000 C   0  0  0  0  0  0  0  0  0  0  0  0
  -12.7175    1.5358    0.0000 F   0  0  0  0  0  0  0  0  0  0  0  0
   -9.1451    6.8983    0.0000 F   0  0  0  0  0  0  0  0  0  0  0  0
   -8.4306    4.0108    0.0000 N   0  0  0  0  0  0  0  0  0  0  0  0
   -7.6770    4.3463    0.0000 N   0  0  0  0  0  0  0  0  0  0  0  0
   -8.3444    3.1903    0.0000 C   0  0  0  0  0  0  0  0  0  0  0  0
   -7.5374    3.0187    0.0000 C   0  0  0  0  0  0  0  0  0  0  0  0
   -7.1249    3.7332    0.0000 C   0  0  0  0  0  0  0  0  0  0  0  0
   -8.8963    2.5772    0.0000 N   0  0  0  0  0  0  0  0  0  0  0  0
   -8.6415    1.7926    0.0000 C   0  0  0  0  0  0  0  0  0  0  0  0
   -7.8345    1.6210    0.0000 N   0  0  0  0  0  0  0  0  0  0  0  0
   -7.2825    2.2341    0.0000 C   0  0  0  0  0  0  0  0  0  0  0  0
   -6.4755    2.0626    0.0000 N   0  0  0  0  0  0  0  0  0  0  0  0
   -6.3044    3.8195    0.0000 C   0  0  0  0  0  0  0  0  0  0  0  0
   -4.9990    3.2382    0.0000 C   0  0  0  0  0  0  0  0  0  0  0  0
   -5.8195    3.1520    0.0000 C   0  0  0  0  0  0  0  0  0  0  0  0
   -5.9689    4.5731    0.0000 C   0  0  0  0  0  0  0  0  0  0  0  0
   -5.1484    4.6594    0.0000 C   0  0  0  0  0  0  0  0  0  0  0  0
   -4.6635    3.9919    0.0000 C   0  0  0  0  0  0  0  0  0  0  0  0
   -4.5141    2.5708    0.0000 F   0  0  0  0  0  0  0  0  0  0  0  0
   -3.8430    4.0782    0.0000 O   0  0  0  0  0  0  0  0  0  0  0  0
   -3.5074    4.8318    0.0000 C   0  0  0  0  0  0  0  0  0  0  0  0
   -2.6870    4.9181    0.0000 C   0  0  0  0  0  0  0  0  0  0  0  0
   -3.9924    5.4993    0.0000 C   0  0  0  0  0  0  0  0  0  0  0  0
  1  2  1  0
  2  3  2  0
  3  4  1  0
  4  5  2  0
  5  6  1  0
  1  6  2  0
  4  7  1  0
  1  8  1  0
  8  9  2  0
  8 10  2  0
  8 11  1  0
 12 13  2  0
 13 14  1  0
 14 15  2  0
 15 16  1  0
 16 17  2  0
 12 17  1  0
 20 21  1  0
 15 18  1  0
 16 21  1  0
 23 24  2  0
 18 22  2  0
 24 19  1  0
 18 19  1  0
 27 26  1  6
 20 27  1  0
 20 19  2  0
 28 29  2  0
 29 30  1  0
 23 28  1  0
 30 25  2  0
 24 25  1  0
 13 31  1  0
 30 32  1  0
 27 33  1  0
 36 37  1  0
 34 37  2  0
 34 33  1  0
 33 35  1  0
 38 39  1  0
 39 40  2  0
 40 41  1  0
 36 41  2  0
 35 38  2  0
 36 35  1  0
 41 42  1  0
 37 43  1  0
 44 45  1  0
 46 47  2  0
 47 48  1  0
 44 48  2  0
 45 43  2  0
 43 46  1  0
 44 49  1  0
 48 50  1  0
 50 51  1  0
 51 52  1  0
 51 53  1  0
M  END
> <chembl_id>
CHEMBL3989869

> <chembl_pref_name>
UMBRALISIB TOSYLATE
