
     RDKit          2D

 31 33  0  0  0  0  0  0  0  0999 V2000
    0.3542    1.7500    0.0000 C   0  0  0  0  0  0  0  0  0  0  0  0
    0.0042    1.1625    0.0000 C   0  0  0  0  0  0  0  0  0  0  0  0
    0.9417    1.4083    0.0000 C   0  0  0  0  0  0  0  0  0  0  0  0
   -0.4500    2.2125    0.0000 C   0  0  0  0  0  0  0  0  0  0  0  0
   -0.6625    1.1750    0.0000 C   0  0  0  0  0  0  0  0  0  0  0  0
    0.3542    0.5833    0.0000 C   0  0  0  0  0  0  0  0  0  0  0  0
    0.9417    0.7208    0.0000 C   0  0  0  0  0  0  0  0  0  0  0  0
    1.5417    1.7500    0.0000 C   0  0  0  0  0  0  0  0  0  0  0  0
    0.6917    2.3458    0.0000 O   0  0  0  0  0  0  0  0  0  0  0  0
   -0.8208    2.4458    0.0000 C   0  0  0  0  0  0  0  0  0  0  0  0
   -2.0208    3.1458    0.0000 C   0  0  0  0  0  0  0  0  0  0  0  0
   -0.6833   -2.4000    0.0000 N   0  0  0  0  0  0  0  0  0  0  0  0
   -0.6833   -0.0167    0.0000 C   0  0  0  0  0  0  0  0  0  0  0  0
    0.0042   -0.0167    0.0000 C   0  0  0  0  0  0  0  0  0  0  0  0
   -1.0333    0.5833    0.0000 C   0  0  0  0  0  0  0  0  0  0  0  0
    2.1292    1.4083    0.0000 C   0  0  0  0  0  0  0  0  0  0  0  0
    1.5417    0.3833    0.0000 C   0  0  0  0  0  0  0  0  0  0  0  0
    2.1292    0.7208    0.0000 C   0  0  0  0  0  0  0  0  0  0  0  0
   -2.6083    3.4833    0.0000 Cl  0  0  0  0  0  0  0  0  0  0  0  0
   -1.4208    2.1083    0.0000 C   0  0  0  0  0  0  0  0  0  0  0  0
   -0.8208    3.1458    0.0000 C   0  0  0  0  0  0  0  0  0  0  0  0
   -2.0083    2.4583    0.0000 C   0  0  0  0  0  0  0  0  0  0  0  0
   -1.4083    3.4958    0.0000 C   0  0  0  0  0  0  0  0  0  0  0  0
   -1.0208   -0.6125    0.0000 O   0  0  0  0  0  0  0  0  0  0  0  0
   -0.6708   -1.2042    0.0000 C   0  0  0  0  0  0  0  0  0  0  0  0
   -1.0208   -1.8042    0.0000 C   0  0  0  0  0  0  0  0  0  0  0  0
   -1.0333   -2.9875    0.0000 C   0  0  0  0  0  0  0  0  0  0  0  0
    0.0000   -2.4042    0.0000 C   0  0  0  0  0  0  0  0  0  0  0  0
    2.7375    0.3875    0.0000 C   0  0  0  0  0  0  0  0  0  0  0  0
   -0.6875   -3.5875    0.0000 C   0  0  0  0  0  0  0  0  0  0  0  0
    0.3500   -1.8167    0.0000 C   0  0  0  0  0  0  0  0  0  0  0  0
  2  1  1  0
  3  1  1  0
  4  1  1  0
  5  2  2  0
  6  2  1  0
  7  3  2  0
  8  3  1  0
  9  1  1  0
 10  4  1  0
 11 23  2  0
 12 26  1  0
 13 14  1  0
 14  6  2  0
 15  5  1  0
 16  8  2  0
 17  7  1  0
 18 16  1  0
 19 11  1  0
 20 10  1  0
 21 10  2  0
 22 20  2  0
 23 21  1  0
 24 13  1  0
 25 24  1  0
 26 25  1  0
 27 12  1  0
 28 12  1  0
 29 18  1  0
 30 27  1  0
 31 28  1  0
 15 13  2  0
 22 11  1  0
 17 18  2  0
M  END
> <chembl_id>
CHEMBL187709

> <chembl_pref_name>
TRIPARANOL
