
     RDKit          2D

 17 16  0  0  0  0  0  0  0  0999 V2000
    7.6167   -5.9375    0.0000 Cl  0  0  0  0  0  0  0  0  0  0  0  0
    6.3167   -4.3583    0.0000 C   0  0  0  0  0  0  0  0  0  0  0  0
    6.9208   -4.7125    0.0000 N   0  0  0  0  0  0  0  0  0  0  0  0
    5.6958   -4.7333    0.0000 C   0  0  0  0  0  0  0  0  0  0  0  0
    6.3167   -3.6500    0.0000 O   0  0  0  0  0  0  0  0  0  0  0  0
    5.6958   -5.4333    0.0000 C   0  0  0  0  0  0  0  0  0  0  0  0
    5.0917   -4.3792    0.0000 C   0  0  0  0  0  0  0  0  0  0  0  0
    3.2375   -5.4667    0.0000 N   0  0  0  0  0  0  0  0  0  0  0  0
    2.6292   -5.8292    0.0000 N   0  0  0  0  0  0  0  0  0  0  0  0
    5.0917   -5.7917    0.0000 C   0  0  0  0  0  0  0  0  0  0  0  0
    4.4750   -4.7375    0.0000 C   0  0  0  0  0  0  0  0  0  0  0  0
    4.4750   -5.4375    0.0000 C   0  0  0  0  0  0  0  0  0  0  0  0
    7.5375   -4.3417    0.0000 C   0  0  0  0  0  0  0  0  0  0  0  0
    3.8500   -5.8125    0.0000 C   0  0  0  0  0  0  0  0  0  0  0  0
    2.0042   -5.4792    0.0000 C   0  0  0  0  0  0  0  0  0  0  0  0
    8.1458   -4.6958    0.0000 C   0  0  0  0  0  0  0  0  0  0  0  0
    7.5375   -3.6500    0.0000 C   0  0  0  0  0  0  0  0  0  0  0  0
  3  2  1  0
  4  2  1  0
  5  2  2  0
  6  4  2  0
  7  4  1  0
  8 14  1  0
  9  8  1  0
 10  6  1  0
 11  7  2  0
 12 11  1  0
 13  3  1  0
 14 12  1  0
 15  9  1  0
 16 13  1  0
 17 13  1  0
 12 10  2  0
M  END
> <chembl_id>
CHEMBL1200410

> <chembl_pref_name>
PROCARBAZINE HYDROCHLORIDE
