
     RDKit          2D

 33 35  0  0  0  0  0  0  0  0999 V2000
    4.7718   -6.0855    0.0000 Cl  0  0  0  0  0  0  0  0  0  0  0  0
    3.3905   -7.9691    0.0000 C   0  0  0  0  0  0  0  0  0  0  0  0
    3.3905   -6.3463    0.0000 N   0  0  0  0  0  0  0  0  0  0  0  0
    2.6854   -4.2937    0.0000 C   0  0  0  0  0  0  0  0  0  0  0  0
    4.0909   -8.3652    0.0000 C   0  0  0  0  0  0  0  0  0  0  0  0
    2.6854   -3.4629    0.0000 C   0  0  0  0  0  0  0  0  0  0  0  0
    2.6854   -2.5211    0.0000 N   0  0  0  0  0  0  0  0  0  0  0  0
    4.0909   -7.5683    0.0000 C   0  0  0  0  0  0  0  0  0  0  0  0
    2.6854   -7.5683    0.0000 C   0  0  0  0  0  0  0  0  0  0  0  0
    2.6854   -5.1051    0.0000 C   0  0  0  0  0  0  0  0  0  0  0  0
    2.6709   -8.3507    0.0000 C   0  0  0  0  0  0  0  0  0  0  0  0
    3.3905   -5.5108    0.0000 C   0  0  0  0  0  0  0  0  0  0  0  0
    2.6854   -6.7424    0.0000 C   0  0  0  0  0  0  0  0  0  0  0  0
    4.0909   -6.7424    0.0000 C   0  0  0  0  0  0  0  0  0  0  0  0
    4.0909   -9.1331    0.0000 O   0  0  0  0  0  0  0  0  0  0  0  0
    1.8546   -4.2937    0.0000 C   0  0  0  0  0  0  0  0  0  0  0  0
    3.4919   -4.2937    0.0000 C   0  0  0  0  0  0  0  0  0  0  0  0
    4.7863   -7.9546    0.0000 O   0  0  0  0  0  0  0  0  0  0  0  0
    1.9609   -7.9305    0.0000 C   0  0  0  0  0  0  0  0  0  0  0  0
    2.6854   -9.1766    0.0000 C   0  0  0  0  0  0  0  0  0  0  0  0
    3.9121   -3.5789    0.0000 C   0  0  0  0  0  0  0  0  0  0  0  0
    3.9121   -5.0037    0.0000 C   0  0  0  0  0  0  0  0  0  0  0  0
    1.4489   -3.5789    0.0000 C   0  0  0  0  0  0  0  0  0  0  0  0
    1.4489   -5.0037    0.0000 C   0  0  0  0  0  0  0  0  0  0  0  0
    0.6230   -3.5789    0.0000 C   0  0  0  0  0  0  0  0  0  0  0  0
    0.6230   -5.0037    0.0000 C   0  0  0  0  0  0  0  0  0  0  0  0
    1.2171   -8.3313    0.0000 C   0  0  0  0  0  0  0  0  0  0  0  0
    1.9175   -9.5678    0.0000 C   0  0  0  0  0  0  0  0  0  0  0  0
    4.7139   -3.5789    0.0000 C   0  0  0  0  0  0  0  0  0  0  0  0
    4.7139   -5.0037    0.0000 C   0  0  0  0  0  0  0  0  0  0  0  0
    1.2171   -9.1766    0.0000 C   0  0  0  0  0  0  0  0  0  0  0  0
    0.2222   -4.2937    0.0000 C   0  0  0  0  0  0  0  0  0  0  0  0
    5.1341   -4.2937    0.0000 C   0  0  0  0  0  0  0  0  0  0  0  0
  3 13  1  0
  4 10  1  0
  5  2  1  0
  6  4  1  0
  7  6  3  0
  8  2  1  0
  9  2  1  0
 10 12  1  0
 11  2  1  0
 12  3  1  0
 13  9  1  0
 14  8  1  0
 15  5  2  0
 16  4  1  0
 17  4  1  0
 18  5  1  0
 19 11  1  0
 20 11  2  0
 21 17  2  0
 22 17  1  0
 23 16  2  0
 24 16  1  0
 25 23  1  0
 26 24  2  0
 27 19  2  0
 28 20  1  0
 29 21  1  0
 30 22  2  0
 31 27  1  0
 32 25  2  0
 33 30  1  0
 14  3  1  0
 31 28  2  0
 33 29  2  0
 32 26  1  0
M  END
> <chembl_id>
CHEMBL1200599

> <chembl_pref_name>
DIFENOXIN HYDROCHLORIDE
