
     RDKit          2D

 25 28  0  0  1  0  0  0  0  0999 V2000
    4.1250   -4.8875    0.0000 C   0  0  0  0  0  0  0  0  0  0  0  0
    4.1167   -5.5917    0.0000 C   0  0  0  0  0  0  0  0  0  0  0  0
    3.5042   -5.9417    0.0000 C   0  0  0  0  0  0  0  0  0  0  0  0
    2.8917   -5.5833    0.0000 C   0  0  0  0  0  0  0  0  0  0  0  0
    2.2792   -5.9375    0.0000 C   0  0  0  0  0  0  0  0  0  0  0  0
    4.8000   -4.6750    0.0000 C   0  0  0  0  0  0  0  0  0  0  0  0
    2.2792   -6.6417    0.0000 C   0  0  0  0  0  0  0  0  0  0  0  0
    3.5125   -4.5250    0.0000 C   0  0  0  0  0  0  0  0  0  0  0  0
    2.8958   -4.8750    0.0000 C   0  0  0  0  0  0  0  0  0  0  0  0
    4.7875   -5.8208    0.0000 C   0  0  0  0  0  0  0  0  0  0  0  0
    3.5000   -6.6500    0.0000 C   0  0  0  0  0  0  0  0  0  0  0  0
    2.8875   -7.0000    0.0000 C   0  0  0  0  0  0  0  0  0  0  0  0
    5.2083   -5.2500    0.0000 C   0  0  0  0  0  0  0  0  0  0  0  0
    1.6667   -7.0000    0.0000 C   0  0  0  0  0  0  0  0  0  0  0  0
    4.7917   -3.9667    0.0000 O   0  0  0  0  0  0  0  0  0  0  0  0
    4.1167   -4.1792    0.0000 C   0  0  0  0  0  0  0  0  0  0  0  0
    1.6667   -5.5792    0.0000 C   0  0  0  0  0  0  0  0  0  0  0  0
    5.4125   -4.3167    0.0000 C   0  0  0  0  0  0  0  0  0  0  0  0
    1.0542   -6.6417    0.0000 C   0  0  0  0  0  0  0  0  0  0  0  0
    6.0292   -4.6625    0.0000 C   0  0  0  0  0  0  0  0  0  0  0  0
    1.0542   -5.9375    0.0000 C   0  0  0  0  0  0  0  0  0  0  0  0
    2.8875   -6.2917    0.0000 H   0  0  0  0  0  0  0  0  0  0  0  0
    4.1125   -6.3000    0.0000 H   0  0  0  0  0  0  0  0  0  0  0  0
    2.2750   -5.2292    0.0000 H   0  0  0  0  0  0  0  0  0  0  0  0
    3.5000   -5.2292    0.0000 H   0  0  0  0  0  0  0  0  0  0  0  0
  2  1  1  0
  3  2  1  0
  4  3  1  0
  5  4  1  0
  6  1  1  0
  7  5  1  0
  8  1  1  0
  9  8  1  0
 10  2  1  0
 11  3  1  0
 12 11  1  0
 13  6  1  0
 14  7  2  0
  6 15  1  1
  1 16  1  1
 17  5  1  0
 18  6  1  0
 19 14  1  0
 20 18  1  0
 21 17  1  0
  4 22  1  6
  2 23  1  6
  5 24  1  1
  3 25  1  1
 13 10  1  0
  9  4  1  0
 12  7  1  0
 19 21  1  0
M  END
> <chembl_id>
CHEMBL1200623

> <chembl_pref_name>
ETHYLESTRENOL
