
     RDKit          2D

 26 29  0  0  0  0  0  0  0  0999 V2000
    0.0125    0.8000    0.0000 C   0  0  0  0  0  0  0  0  0  0  0  0
    0.0125    1.8500    0.0000 N   0  0  0  0  0  0  0  0  0  0  0  0
    1.0625    0.8000    0.0000 C   0  0  0  0  0  0  0  0  0  0  0  0
    0.3542    3.4708    0.0000 N   0  0  0  0  0  0  0  0  0  0  0  0
    0.7792    2.5333    0.0000 C   0  0  0  0  0  0  0  0  0  0  0  0
    0.0125   -0.2792    0.0000 C   0  0  0  0  0  0  0  0  0  0  0  0
   -0.9000    2.3625    0.0000 C   0  0  0  0  0  0  0  0  0  0  0  0
    1.5792    1.7083    0.0000 C   0  0  0  0  0  0  0  0  0  0  0  0
   -0.6708    3.3958    0.0000 C   0  0  0  0  0  0  0  0  0  0  0  0
   -1.0458    0.8000    0.0000 C   0  0  0  0  0  0  0  0  0  0  0  0
   -0.9000   -0.7917    0.0000 C   0  0  0  0  0  0  0  0  0  0  0  0
    0.9167   -0.7917    0.0000 C   0  0  0  0  0  0  0  0  0  0  0  0
    0.0125   -2.3542    0.0000 C   0  0  0  0  0  0  0  0  0  0  0  0
    1.5792    2.6333    0.0000 F   0  0  0  0  0  0  0  0  0  0  0  0
    0.9167   -1.8500    0.0000 C   0  0  0  0  0  0  0  0  0  0  0  0
   -0.9000   -1.8500    0.0000 C   0  0  0  0  0  0  0  0  0  0  0  0
    0.0125   -3.4000    0.0000 F   0  0  0  0  0  0  0  0  0  0  0  0
    1.5792   -0.1417    0.0000 C   0  0  0  0  0  0  0  0  0  0  0  0
    2.6292    1.7083    0.0000 C   0  0  0  0  0  0  0  0  0  0  0  0
   -1.5833    1.7083    0.0000 C   0  0  0  0  0  0  0  0  0  0  0  0
   -1.5833   -0.1417    0.0000 C   0  0  0  0  0  0  0  0  0  0  0  0
    2.6292   -0.1417    0.0000 C   0  0  0  0  0  0  0  0  0  0  0  0
    3.1417    0.8000    0.0000 C   0  0  0  0  0  0  0  0  0  0  0  0
   -2.6083    1.7083    0.0000 C   0  0  0  0  0  0  0  0  0  0  0  0
   -2.6083   -0.1417    0.0000 C   0  0  0  0  0  0  0  0  0  0  0  0
   -3.1458    0.8000    0.0000 C   0  0  0  0  0  0  0  0  0  0  0  0
  2  1  1  0
  3  1  1  0
  4  5  2  0
  5  2  1  0
  6  1  1  0
  7  2  1  0
  8  3  1  0
  9  7  2  0
 10  1  1  0
 11  6  2  0
 12  6  1  0
 13 15  1  0
 14  8  1  0
 15 12  2  0
 16 11  1  0
 17 13  1  0
 18  3  2  0
 19  8  2  0
 20 10  1  0
 21 10  2  0
 22 18  1  0
 23 22  2  0
 24 20  2  0
 25 21  1  0
 26 25  2  0
 16 13  2  0
  9  4  1  0
 24 26  1  0
 19 23  1  0
M  END
> <chembl_id>
CHEMBL2107430

> <chembl_pref_name>
FLUTRIMAZOLE
