
     RDKit          2D

 28 30  0  0  0  0  0  0  0  0999 V2000
    5.7833    0.0000    0.0000 Cl  0  0  0  0  0  0  0  0  0  0  0  0
    1.4000   -0.1958    0.0000 N   0  0  0  0  0  0  0  0  0  0  0  0
    2.1167    1.0417    0.0000 C   0  0  0  0  0  0  0  0  0  0  0  0
    0.6875    0.2167    0.0000 C   0  0  0  0  0  0  0  0  0  0  0  0
    0.6875    1.0417    0.0000 C   0  0  0  0  0  0  0  0  0  0  0  0
   -0.0292   -0.1958    0.0000 C   0  0  0  0  0  0  0  0  0  0  0  0
    2.1167    0.2167    0.0000 C   0  0  0  0  0  0  0  0  0  0  0  0
    1.4000    1.4542    0.0000 C   0  0  0  0  0  0  0  0  0  0  0  0
   -0.7417    0.2167    0.0000 C   0  0  0  0  0  0  0  0  0  0  0  0
   -1.4583   -0.1958    0.0000 N   0  0  0  0  0  0  0  0  0  0  0  0
   -0.7417    1.0417    0.0000 C   0  0  0  0  0  0  0  0  0  0  0  0
    1.4000   -1.0208    0.0000 C   0  0  0  0  0  0  0  0  0  0  0  0
   -0.0292    1.4542    0.0000 C   0  0  0  0  0  0  0  0  0  0  0  0
    2.8292    1.4542    0.0000 C   0  0  0  0  0  0  0  0  0  0  0  0
    0.9875   -1.7333    0.0000 C   0  0  0  0  0  0  0  0  0  0  0  0
    1.8125   -1.7333    0.0000 C   0  0  0  0  0  0  0  0  0  0  0  0
   -1.3958   -1.0167    0.0000 C   0  0  0  0  0  0  0  0  0  0  0  0
    1.4000    2.2792    0.0000 O   0  0  0  0  0  0  0  0  0  0  0  0
   -0.0292   -1.0208    0.0000 Cl  0  0  0  0  0  0  0  0  0  0  0  0
    3.5458    1.0417    0.0000 O   0  0  0  0  0  0  0  0  0  0  0  0
   -1.4583    1.4542    0.0000 F   0  0  0  0  0  0  0  0  0  0  0  0
   -2.1375    0.2708    0.0000 C   0  0  0  0  0  0  0  0  0  0  0  0
    2.8292    2.2792    0.0000 O   0  0  0  0  0  0  0  0  0  0  0  0
   -2.0000   -1.5792    0.0000 C   0  0  0  0  0  0  0  0  0  0  0  0
   -1.7583   -2.3667    0.0000 N   0  0  0  0  0  0  0  0  0  0  0  0
   -2.8167   -1.4542    0.0000 C   0  0  0  0  0  0  0  0  0  0  0  0
   -2.9250    0.0292    0.0000 C   0  0  0  0  0  0  0  0  0  0  0  0
   -3.2292   -0.7417    0.0000 C   0  0  0  0  0  0  0  0  0  0  0  0
  3  7  2  0
  4  2  1  0
  5  4  1  0
  6  4  2  0
  7  2  1  0
  8  3  1  0
  9  6  1  0
 10  9  1  0
 11 13  1  0
 12  2  1  0
 13  5  2  0
 14  3  1  0
 15 12  1  0
 16 12  1  0
 17 10  1  0
 18  8  2  0
 19  6  1  0
 20 14  2  0
 21 11  1  0
 22 10  1  0
 23 14  1  0
 24 17  1  0
 24 25  1  6
 26 24  1  0
 27 22  1  0
 28 27  1  0
 15 16  1  0
  8  5  1  0
 11  9  2  0
 28 26  1  0
M  END
> <chembl_id>
CHEMBL1201761

> <chembl_pref_name>
BESIFLOXACIN HYDROCHLORIDE
