
     RDKit          2D

 26 27  0  0  0  0  0  0  0  0999 V2000
    9.0167   -9.1542    0.0000 K   0  0  0  0  0 15  0  0  0  0  0  0
    7.1125   -7.9042    0.0000 N   0  0  0  0  0  0  0  0  0  0  0  0
    7.1125   -7.2000    0.0000 C   0  0  0  0  0  0  0  0  0  0  0  0
    6.4000   -7.9042    0.0000 C   0  0  0  0  0  0  0  0  0  0  0  0
    6.4000   -7.2000    0.0000 C   0  0  0  0  0  0  0  0  0  0  0  0
    7.7875   -8.1167    0.0000 C   0  0  0  0  0  0  0  0  0  0  0  0
    7.7792   -6.9750    0.0000 S   0  0  0  0  0  0  0  0  0  0  0  0
    8.2042   -7.5417    0.0000 C   0  0  0  0  0  0  0  0  0  0  0  0
    7.7792   -8.8292    0.0000 C   0  0  0  0  0  0  0  0  0  0  0  0
    5.7792   -6.8417    0.0000 N   0  0  0  0  0  0  0  0  0  0  0  0
    5.1667   -7.1917    0.0000 C   0  0  0  0  0  0  0  0  0  0  0  0
    5.9000   -8.4042    0.0000 O   0  0  0  0  0  0  0  0  0  0  0  0
    8.3917   -9.1875    0.0000 O   0  0  0  0  0  0  0  0  0  0  0  0
    7.1625   -9.1750    0.0000 O   0  0  0  0  0  0  0  0  0  0  0  0
    5.1667   -7.9042    0.0000 O   0  0  0  0  0  0  0  0  0  0  0  0
    3.9417   -7.1917    0.0000 O   0  0  0  0  0  0  0  0  0  0  0  0
    4.5542   -6.8417    0.0000 C   0  0  0  0  0  0  0  0  0  0  0  0
    8.8167   -7.1875    0.0000 C   0  0  0  0  0  0  0  0  0  0  0  0
    8.8167   -7.9000    0.0000 C   0  0  0  0  0  0  0  0  0  0  0  0
    3.3292   -6.8417    0.0000 C   0  0  0  0  0  0  0  0  0  0  0  0
    2.7167   -7.1917    0.0000 C   0  0  0  0  0  0  0  0  0  0  0  0
    3.3292   -6.1292    0.0000 C   0  0  0  0  0  0  0  0  0  0  0  0
    2.7167   -5.7750    0.0000 C   0  0  0  0  0  0  0  0  0  0  0  0
    2.1042   -6.8417    0.0000 C   0  0  0  0  0  0  0  0  0  0  0  0
    2.1042   -6.1292    0.0000 C   0  0  0  0  0  0  0  0  0  0  0  0
    7.1042   -6.4875    0.0000 H   0  0  0  0  0  0  0  0  0  0  0  0
  3  2  1  0
  4  2  1  0
  5  4  1  0
  6  2  1  0
  7  3  1  0
  8  6  1  0
  6  9  1  6
  5 10  1  1
 11 10  1  0
 12  4  2  0
 13  9  1  0
 14  9  2  0
 15 11  2  0
 16 17  1  0
 17 11  1  0
 18  8  1  0
 19  8  1  0
 20 16  1  0
 21 20  1  0
 22 20  2  0
 23 22  1  0
 24 21  2  0
 25 24  1  0
  3 26  1  6
  7  8  1  0
  5  3  1  0
 25 23  2  0
M  CHG  2   1   1  13  -1
M  END
> <chembl_id>
CHEMBL1200852

> <chembl_pref_name>
PENICILLIN V POTASSIUM
