
     RDKit          2D

 12 12  0  0  0  0  0  0  0  0999 V2000
    7.8787   -5.1912    0.0000 C   0  0  0  0  0  0  0  0  0  0  0  0
    7.8787   -4.3792    0.0000 N   0  0  0  0  0  0  0  0  0  0  0  0
    7.1633   -5.6021    0.0000 N   0  0  0  0  0  0  0  0  0  0  0  0
    3.6010   -5.2251    0.0000 I   0  0  0  0  0  0  0  0  0  0  0  0
    8.5843   -5.6021    0.0000 N   0  0  0  0  0  0  0  0  0  0  0  0
    4.2922   -5.6166    0.0000 C   0  0  0  0  0  0  0  0  0  0  0  0
    6.4576   -5.1912    0.0000 C   0  0  0  0  0  0  0  0  0  0  0  0
    5.0027   -5.2057    0.0000 C   0  0  0  0  0  0  0  0  0  0  0  0
    5.7181   -5.5972    0.0000 C   0  0  0  0  0  0  0  0  0  0  0  0
    5.0027   -6.8588    0.0000 C   0  0  0  0  0  0  0  0  0  0  0  0
    4.2922   -6.4431    0.0000 C   0  0  0  0  0  0  0  0  0  0  0  0
    5.7181   -6.4431    0.0000 C   0  0  0  0  0  0  0  0  0  0  0  0
  2  1  2  0
  3  1  1  0
  4  6  1  0
  5  1  1  0
  6  8  2  0
  7  3  1  0
  8  9  1  0
  9  7  1  0
 10 12  1  0
 11 10  2  0
 12  9  2  0
  6 11  1  0
M  ISO  1   4 131
M  END
> <chembl_id>
CHEMBL1615779

> <chembl_pref_name>
IOBENGUANE I 131
