
     RDKit          2D

 45 48  0  0  0  0  0  0  0  0999 V2000
    0.1971   -6.5048    0.0000 O   0  0  0  0  0  0  0  0  0  0  0  0
    1.0558   -6.5224    0.0000 C   0  0  0  0  0  0  0  0  0  0  0  0
    1.4236   -5.7822    0.0000 N   0  0  0  0  0  0  0  0  0  0  0  0
    1.4476   -7.2231    0.0000 C   0  0  0  0  0  0  0  0  0  0  0  0
    2.2775   -5.8096    0.0000 C   0  0  0  0  0  0  0  0  0  0  0  0
    2.6680   -5.0965    0.0000 C   0  0  0  0  0  0  0  0  0  0  0  0
    3.5042   -5.0954    0.0000 C   0  0  0  0  0  0  0  0  0  0  0  0
    3.8987   -4.3805    0.0000 O   0  0  0  0  0  0  0  0  0  0  0  0
    3.9215   -5.8046    0.0000 C   0  0  0  0  0  0  0  0  0  0  0  0
    3.5135   -6.5209    0.0000 C   0  0  0  0  0  0  0  0  0  0  0  0
    2.6859   -6.5179    0.0000 C   0  0  0  0  0  0  0  0  0  0  0  0
    2.2807   -7.2280    0.0000 C   0  0  0  0  0  0  0  0  0  0  0  0
    1.0348   -5.0900    0.0000 C   0  0  0  0  0  0  0  0  0  0  0  0
    1.4236   -4.3805    0.0000 O   0  0  0  0  0  0  0  0  0  0  0  0
    4.7227   -4.3880    0.0000 C   0  0  0  0  0  0  0  0  0  0  0  0
    5.1418   -3.6759    0.0000 C   0  0  0  0  0  0  0  0  0  0  0  0
    5.9706   -3.6808    0.0000 C   0  0  0  0  0  0  0  0  0  0  0  0
    6.3690   -2.9671    0.0000 C   0  0  0  0  0  0  0  0  0  0  0  0
    7.1840   -2.9568    0.0000 N   0  0  0  0  0  0  0  0  0  0  0  0
    0.1971   -3.6795    0.0000 O   0  0  0  0  0  0  0  0  0  0  0  0
    1.0627   -3.6512    0.0000 C   0  0  0  0  0  0  0  0  0  0  0  0
    1.4584   -2.9691    0.0000 C   0  0  0  0  0  0  0  0  0  0  0  0
    1.0415   -2.2458    0.0000 C   0  0  0  0  0  0  0  0  0  0  0  0
    1.4459   -1.5472    0.0000 C   0  0  0  0  0  0  0  0  0  0  0  0
    2.2794   -1.5412    0.0000 C   0  0  0  0  0  0  0  0  0  0  0  0
    2.6839   -0.8447    0.0000 C   0  0  0  0  0  0  0  0  0  0  0  0
    3.5088   -0.8359    0.0000 C   0  0  0  0  0  0  0  0  0  0  0  0
    3.9011   -0.1341    0.0000 C   0  0  0  0  0  0  0  0  0  0  0  0
    4.7401   -0.1222    0.0000 C   0  0  0  0  0  0  0  0  0  0  0  0
    5.1501   -0.8369    0.0000 C   0  0  0  0  0  0  0  0  0  0  0  0
    4.7367   -1.5423    0.0000 C   0  0  0  0  0  0  0  0  0  0  0  0
    5.1488   -2.2768    0.0000 C   0  0  0  0  0  0  0  0  0  0  0  0
    8.8266   -2.9568    0.0000 N   0  0  0  0  0  0  0  0  0  0  0  0
    8.4363   -3.6877    0.0000 C   0  0  0  0  0  0  0  0  0  0  0  0
    7.6044   -3.6877    0.0000 C   0  0  0  0  0  0  0  0  0  0  0  0
    9.6549   -2.9719    0.0000 C   0  0  0  0  0  0  0  0  0  0  0  0
   10.0655   -2.2585    0.0000 C   0  0  0  0  0  0  0  0  0  0  0  0
    9.5602   -1.5386    0.0000 Cl  0  0  0  0  0  0  0  0  0  0  0  0
   10.9075   -2.2680    0.0000 C   0  0  0  0  0  0  0  0  0  0  0  0
   11.3561   -1.5386    0.0000 Cl  0  0  0  0  0  0  0  0  0  0  0  0
   11.3096   -2.9688    0.0000 C   0  0  0  0  0  0  0  0  0  0  0  0
   10.8989   -3.6877    0.0000 C   0  0  0  0  0  0  0  0  0  0  0  0
   10.0692   -3.6879    0.0000 C   0  0  0  0  0  0  0  0  0  0  0  0
    7.6053   -2.2709    0.0000 C   0  0  0  0  0  0  0  0  0  0  0  0
    8.4363   -2.2471    0.0000 C   0  0  0  0  0  0  0  0  0  0  0  0
  1  2  2  0
  2  3  1  0
  2  4  1  0
  3  5  1  0
  3 13  1  0
  5 11  2  0
  6  5  1  0
  6  7  2  0
  7  8  1  0
  9  7  1  0
 10  9  2  0
 11 10  1  0
 11 12  1  0
 12  4  1  0
 13 14  1  0
 15 16  1  0
 15  8  1  0
 17 18  1  0
 17 16  1  0
 18 19  1  0
 20 21  2  0
 21 22  1  0
 21 14  1  0
 22 23  1  0
 23 24  1  0
 25 26  1  0
 25 24  1  0
 27 28  1  0
 27 26  1  0
 28 29  1  0
 29 30  1  0
 31 32  1  0
 31 30  1  0
 33 34  1  0
 33 36  1  0
 34 35  1  0
 35 19  1  0
 36 37  1  0
 36 43  2  0
 37 39  2  0
 38 37  1  0
 39 40  1  0
 39 41  1  0
 42 41  2  0
 43 42  1  0
 44 45  1  0
 44 19  1  0
 45 33  1  0
M  END
> <chembl_id>
CHEMBL2219425

> <chembl_pref_name>
ARIPIPRAZOLE LAUROXIL
