
     RDKit          2D

 12 12  0  0  0  0  0  0  0  0999 V2000
    6.7917   -4.4750    0.0000 C   0  0  0  0  0  0  0  0  0  0  0  0
    6.7917   -3.7750    0.0000 N   0  0  0  0  0  0  0  0  0  0  0  0
    6.1750   -4.8292    0.0000 N   0  0  0  0  0  0  0  0  0  0  0  0
    3.1042   -4.5042    0.0000 I   0  0  0  0  0  0  0  0  0  0  0  0
    7.4000   -4.8292    0.0000 N   0  0  0  0  0  0  0  0  0  0  0  0
    3.7000   -4.8417    0.0000 C   0  0  0  0  0  0  0  0  0  0  0  0
    5.5667   -4.4750    0.0000 C   0  0  0  0  0  0  0  0  0  0  0  0
    4.3125   -4.4875    0.0000 C   0  0  0  0  0  0  0  0  0  0  0  0
    4.9292   -4.8250    0.0000 C   0  0  0  0  0  0  0  0  0  0  0  0
    4.3125   -5.9125    0.0000 C   0  0  0  0  0  0  0  0  0  0  0  0
    3.7000   -5.5542    0.0000 C   0  0  0  0  0  0  0  0  0  0  0  0
    4.9292   -5.5542    0.0000 C   0  0  0  0  0  0  0  0  0  0  0  0
  2  1  2  0
  3  1  1  0
  4  6  1  0
  5  1  1  0
  6  8  2  0
  7  3  1  0
  8  9  1  0
  9  7  1  0
 10 12  1  0
 11 10  2  0
 12  9  2  0
  6 11  1  0
M  END
> <chembl_id>
CHEMBL818

> <chembl_pref_name>
IOBENGUANE
