
     RDKit          2D

 36 40  0  0  0  0  0  0  0  0999 V2000
  -14.6143    1.3554    0.0000 C   0  0  0  0  0  0  0  0  0  0  0  0
  -15.0268    2.0698    0.0000 C   0  0  0  0  0  0  0  0  0  0  0  0
  -15.8518    2.0698    0.0000 C   0  0  0  0  0  0  0  0  0  0  0  0
  -16.2643    1.3554    0.0000 N   0  0  0  0  0  0  0  0  0  0  0  0
  -15.8518    0.6409    0.0000 C   0  0  0  0  0  0  0  0  0  0  0  0
  -15.0268    0.6409    0.0000 C   0  0  0  0  0  0  0  0  0  0  0  0
  -14.6143   -0.0736    0.0000 C   0  0  0  0  0  0  0  0  0  0  0  0
  -14.9498   -0.8273    0.0000 C   0  0  0  0  0  0  0  0  0  0  0  0
  -14.3368   -1.3793    0.0000 S   0  0  0  0  0  0  0  0  0  0  0  0
  -13.6223   -0.9668    0.0000 C   0  0  0  0  0  0  0  0  0  0  0  0
  -13.7938   -0.1598    0.0000 N   0  0  0  0  0  0  0  0  0  0  0  0
  -12.8686   -1.3023    0.0000 N   0  0  0  0  0  0  0  0  0  0  0  0
  -12.1541   -0.8898    0.0000 C   0  0  0  0  0  0  0  0  0  0  0  0
  -11.4397   -1.3024    0.0000 C   0  0  0  0  0  0  0  0  0  0  0  0
  -10.7252   -0.8899    0.0000 C   0  0  0  0  0  0  0  0  0  0  0  0
  -10.7252   -0.0648    0.0000 C   0  0  0  0  0  0  0  0  0  0  0  0
  -11.4397    0.3477    0.0000 C   0  0  0  0  0  0  0  0  0  0  0  0
  -12.1542   -0.0648    0.0000 C   0  0  0  0  0  0  0  0  0  0  0  0
  -12.8686    0.3477    0.0000 C   0  0  0  0  0  0  0  0  0  0  0  0
  -10.0107   -1.3024    0.0000 N   0  0  0  0  0  0  0  0  0  0  0  0
   -9.2962   -0.8899    0.0000 C   0  0  0  0  0  0  0  0  0  0  0  0
   -8.5818   -1.3024    0.0000 C   0  0  0  0  0  0  0  0  0  0  0  0
   -9.2962   -0.0649    0.0000 O   0  0  0  0  0  0  0  0  0  0  0  0
   -8.5818   -2.1274    0.0000 C   0  0  0  0  0  0  0  0  0  0  0  0
   -7.8673   -2.5399    0.0000 C   0  0  0  0  0  0  0  0  0  0  0  0
   -7.1528   -2.1274    0.0000 C   0  0  0  0  0  0  0  0  0  0  0  0
   -7.1528   -1.3023    0.0000 C   0  0  0  0  0  0  0  0  0  0  0  0
   -7.8673   -0.8898    0.0000 C   0  0  0  0  0  0  0  0  0  0  0  0
   -6.4384   -2.5399    0.0000 C   0  0  0  0  0  0  0  0  0  0  0  0
   -5.7239   -2.1274    0.0000 N   0  0  0  0  0  0  0  0  0  0  0  0
   -5.0094   -2.5398    0.0000 C   0  0  0  0  0  0  0  0  0  0  0  0
   -4.2949   -2.1273    0.0000 C   0  0  0  0  0  0  0  0  0  0  0  0
   -4.2949   -1.3023    0.0000 N   0  0  0  0  0  0  0  0  0  0  0  0
   -5.0094   -0.8898    0.0000 C   0  0  0  0  0  0  0  0  0  0  0  0
   -5.7239   -1.3024    0.0000 C   0  0  0  0  0  0  0  0  0  0  0  0
   -3.5804   -0.8898    0.0000 C   0  0  0  0  0  0  0  0  0  0  0  0
  1  2  1  0
  2  3  2  0
  3  4  1  0
  4  5  2  0
  5  6  1  0
  6  1  2  0
  6  7  1  0
  7  8  2  0
  7 11  1  0
  8  9  1  0
  9 10  1  0
 10 11  2  0
 10 12  1  0
 12 13  1  0
 13 14  1  0
 13 18  2  0
 14 15  2  0
 15 16  1  0
 16 17  2  0
 17 18  1  0
 18 19  1  0
 15 20  1  0
 20 21  1  0
 21 22  1  0
 21 23  2  0
 22 24  1  0
 22 28  2  0
 24 25  2  0
 25 26  1  0
 26 27  2  0
 27 28  1  0
 26 29  1  0
 29 30  1  0
 30 31  1  0
 35 30  1  0
 31 32  1  0
 32 33  1  0
 33 34  1  0
 34 35  1  0
 33 36  1  0
M  END
> <chembl_id>
CHEMBL1908391

> <chembl_pref_name>
MASITINIB
