
     RDKit          2D

 16 15  0  0  0  0  0  0  0  0999 V2000
   -5.0282    0.3221    0.0000 C   0  0  0  0  0  0  0  0  0  0  0  0
   -4.6215    1.0399    0.0000 S   0  0  0  0  0  0  0  0  0  0  0  0
   -3.9037    0.6332    0.0000 O   0  0  0  0  0  0  0  0  0  0  0  0
   -3.1926    1.0516    0.0000 C   0  0  0  0  0  0  0  0  0  0  0  0
   -2.4748    0.6449    0.0000 C   0  0  0  0  0  0  0  0  0  0  0  0
   -1.7637    1.0632    0.0000 C   0  0  0  0  0  0  0  0  0  0  0  0
   -1.0459    0.6566    0.0000 C   0  0  0  0  0  0  0  0  0  0  0  0
   -0.3348    1.0749    0.0000 O   0  0  0  0  0  0  0  0  0  0  0  0
    0.3830    0.6682    0.0000 S   0  0  0  0  0  0  0  0  0  0  0  0
    0.7896    1.3860    0.0000 C   0  0  0  0  0  0  0  0  0  0  0  0
   -4.2149    1.7577    0.0000 O   0  0  0  0  0  0  0  0  0  0  0  0
   -5.3393    1.4466    0.0000 O   0  0  0  0  0  0  0  0  0  0  0  0
   -2.4681   -0.1801    0.0000 O   0  0  0  0  0  0  0  0  0  0  0  0
   -1.7705    1.8882    0.0000 O   0  0  0  0  0  0  0  0  0  0  0  0
   -0.0237   -0.0496    0.0000 O   0  0  0  0  0  0  0  0  0  0  0  0
    1.1008    0.2616    0.0000 O   0  0  0  0  0  0  0  0  0  0  0  0
  1  2  1  0
  2  3  1  0
  3  4  1  0
  4  5  1  0
  5  6  1  0
  6  7  1  0
  7  8  1  0
  8  9  1  0
  9 10  1  0
  2 11  2  0
  2 12  2  0
  5 13  1  1
  6 14  1  1
  9 15  2  0
  9 16  2  0
M  END
> <chembl_id>
CHEMBL455186

> <chembl_pref_name>
TREOSULFAN
