
     RDKit          2D

 16 17  0  0  0  0  0  0  0  0999 V2000
    0.4667    0.5625    0.0000 C   0  0  0  0  0  0  0  0  0  0  0  0
    1.7000    1.3208    0.0000 C   0  0  0  0  0  0  0  0  0  0  0  0
    0.4667   -0.8250    0.0000 C   0  0  0  0  0  0  0  0  0  0  0  0
    2.9667    0.6583    0.0000 N   0  0  0  0  0  0  0  0  0  0  0  0
    1.7167   -1.5625    0.0000 N   0  0  0  0  0  0  0  0  0  0  0  0
   -1.9833    0.5625    0.0000 C   0  0  0  0  0  0  0  0  0  0  0  0
   -0.7708    1.2625    0.0000 N   0  0  0  0  0  0  0  0  0  0  0  0
    2.9667   -0.8125    0.0000 C   0  0  0  0  0  0  0  0  0  0  0  0
   -1.9958   -0.7917    0.0000 N   0  0  0  0  0  0  0  0  0  0  0  0
   -3.3500    1.1333    0.0000 N   0  0  0  0  0  0  0  0  0  0  0  0
    1.7000    2.7708    0.0000 Cl  0  0  0  0  0  0  0  0  0  0  0  0
   -0.7125   -1.5417    0.0000 O   0  0  0  0  0  0  0  0  0  0  0  0
   -3.5208   -1.1542    0.0000 C   0  0  0  0  0  0  0  0  0  0  0  0
    4.2500   -1.5042    0.0000 C   0  0  0  0  0  0  0  0  0  0  0  0
   -4.2583    0.0125    0.0000 C   0  0  0  0  0  0  0  0  0  0  0  0
   -0.6833   -2.9250    0.0000 C   0  0  0  0  0  0  0  0  0  0  0  0
  2  1  1  0
  3  1  2  0
  4  2  2  0
  5  3  1  0
  6  7  1  0
  7  1  1  0
  8  5  2  0
  9  6  2  0
 10  6  1  0
 11  2  1  0
 12  3  1  0
 13  9  1  0
 14  8  1  0
 15 10  1  0
 16 12  1  0
  4  8  1  0
 15 13  1  0
M  END
> <chembl_id>
CHEMBL19236

> <chembl_pref_name>
MOXONIDINE
