
     RDKit          2D

 19 19  0  0  0  0  0  0  0  0999 V2000
    3.3542  -16.2667    0.0000 Cl  0  0  0  0  0  0  0  0  0  0  0  0
   -1.0347  -17.9667    0.0000 C   0  0  0  0  0  0  0  0  0  0  0  0
   -1.0359  -18.7940    0.0000 C   0  0  0  0  0  0  0  0  0  0  0  0
   -0.3211  -19.2069    0.0000 N   0  0  0  0  0  0  0  0  0  0  0  0
    0.3954  -18.7936    0.0000 C   0  0  0  0  0  0  0  0  0  0  0  0
    0.3925  -17.9630    0.0000 C   0  0  0  0  0  0  0  0  0  0  0  0
   -0.3229  -17.5539    0.0000 C   0  0  0  0  0  0  0  0  0  0  0  0
    1.1105  -19.2049    0.0000 N   0  0  0  0  0  0  0  0  0  0  0  0
    1.1118  -20.0297    0.0000 C   0  0  0  0  0  0  0  0  0  0  0  0
    1.8243  -18.7913    0.0000 C   0  0  0  0  0  0  0  0  0  0  0  0
    2.5394  -19.2027    0.0000 C   0  0  0  0  0  0  0  0  0  0  0  0
    3.2532  -18.7891    0.0000 N   0  0  0  0  0  0  0  0  0  0  0  0
    3.9684  -19.2004    0.0000 C   0  0  0  0  0  0  0  0  0  0  0  0
    3.2520  -17.9641    0.0000 C   0  0  0  0  0  0  0  0  0  0  0  0
    1.7825  -20.5104    0.0000 C   0  0  0  0  0  0  0  0  0  0  0  0
    1.7825  -21.3350    0.0000 C   0  0  0  0  0  0  0  0  0  0  0  0
    2.5697  -21.5849    0.0000 C   0  0  0  0  0  0  0  0  0  0  0  0
    3.0495  -20.9124    0.0000 C   0  0  0  0  0  0  0  0  0  0  0  0
    2.5572  -20.2492    0.0000 S   0  0  0  0  0  0  0  0  0  0  0  0
  8 10  1  0
  5  8  1  0
 10 11  1  0
  4  5  2  0
 11 12  1  0
  8  9  1  0
 12 13  1  0
 12 14  1  0
  9 15  1  0
 16 17  1  0
  5  6  1  0
  3  4  1  0
  6  7  2  0
 15 16  2  0
 17 18  2  0
 18 19  1  0
 19 15  1  0
  7  2  1  0
  2  3  2  0
M  END
> <chembl_id>
CHEMBL1255739

> <chembl_pref_name>
METHAPYRILENE HYDROCHLORIDE
