
     RDKit          2D

 39 38  0  0  0  0  0  0  0  0999 V2000
    3.0542   -1.7542    0.0000 C   0  0  0  0  0  0  0  0  0  0  0  0
    0.5917    1.8083    0.0000 C   0  0  0  0  0  0  0  0  0  0  0  0
   -3.7333   -1.4000    0.0000 C   0  0  0  0  0  0  0  0  0  0  0  0
    1.2042   -1.4000    0.0000 C   0  0  0  0  0  0  0  0  0  0  0  0
    2.4375    1.4500    0.0000 C   0  0  0  0  0  0  0  0  0  0  0  0
    3.6750   -1.4000    0.0000 N   0  0  0  0  0  0  0  0  0  0  0  0
   -0.0250    1.4500    0.0000 N   0  0  0  0  0  0  0  0  0  0  0  0
   -3.1125   -1.7542    0.0000 N   0  0  0  0  0  0  0  0  0  0  0  0
    3.0542   -2.4667    0.0000 O   0  0  0  0  0  0  0  0  0  0  0  0
    0.5917    2.5208    0.0000 O   0  0  0  0  0  0  0  0  0  0  0  0
   -3.7333   -0.6875    0.0000 O   0  0  0  0  0  0  0  0  0  0  0  0
    1.2042    1.4500    0.0000 C   0  0  0  0  0  0  0  0  0  0  0  0
    2.4375   -1.4000    0.0000 C   0  0  0  0  0  0  0  0  0  0  0  0
    2.4375    0.7375    0.0000 O   0  0  0  0  0  0  0  0  0  0  0  0
    1.2042   -0.6875    0.0000 O   0  0  0  0  0  0  0  0  0  0  0  0
    3.0542    1.8083    0.0000 N   0  0  0  0  0  0  0  0  0  0  0  0
    0.5917   -1.7542    0.0000 N   0  0  0  0  0  0  0  0  0  0  0  0
    1.8167   -1.7542    0.0000 C   0  0  0  0  0  0  0  0  0  0  0  0
    1.8167    1.8083    0.0000 C   0  0  0  0  0  0  0  0  0  0  0  0
    4.2917   -1.7542    0.0000 O   0  0  0  0  0  0  0  0  0  0  0  0
   -3.1125   -2.4667    0.0000 O   0  0  0  0  0  0  0  0  0  0  0  0
   -0.0250    0.7375    0.0000 O   0  0  0  0  0  0  0  0  0  0  0  0
   -3.7333    1.4500    0.0000 N   0  0  0  0  0  0  0  0  0  0  0  0
   -4.3458   -1.7542    0.0000 C   0  0  0  0  0  0  0  0  0  0  0  0
   -0.6458    1.8083    0.0000 C   0  0  0  0  0  0  0  0  0  0  0  0
   -2.4958   -1.4000    0.0000 C   0  0  0  0  0  0  0  0  0  0  0  0
    3.6750   -0.6875    0.0000 C   0  0  0  0  0  0  0  0  0  0  0  0
    3.6750    1.4500    0.0000 C   0  0  0  0  0  0  0  0  0  0  0  0
   -0.0250   -1.4000    0.0000 C   0  0  0  0  0  0  0  0  0  0  0  0
   -3.1125    1.8083    0.0000 C   0  0  0  0  0  0  0  0  0  0  0  0
   -1.2625    1.4500    0.0000 C   0  0  0  0  0  0  0  0  0  0  0  0
   -1.8833   -1.7542    0.0000 C   0  0  0  0  0  0  0  0  0  0  0  0
    4.2917   -0.3292    0.0000 C   0  0  0  0  0  0  0  0  0  0  0  0
   -0.6458   -1.7542    0.0000 C   0  0  0  0  0  0  0  0  0  0  0  0
    3.6750    0.7375    0.0000 C   0  0  0  0  0  0  0  0  0  0  0  0
   -2.4958    1.4500    0.0000 C   0  0  0  0  0  0  0  0  0  0  0  0
    4.2917    0.3833    0.0000 C   0  0  0  0  0  0  0  0  0  0  0  0
   -1.2625   -1.4000    0.0000 C   0  0  0  0  0  0  0  0  0  0  0  0
   -1.8833    1.8083    0.0000 C   0  0  0  0  0  0  0  0  0  0  0  0
  2 12  1  0
  3  8  1  0
  4 18  1  0
  5 16  1  0
  6  1  1  0
  7  2  1  0
  8 26  1  0
  9  1  2  0
 10  2  2  0
 11  3  2  0
 12 19  1  0
 13  1  1  0
 14  5  2  0
 15  4  2  0
 16 28  1  0
 17  4  1  0
 18 13  1  0
 19  5  1  0
 20  6  1  0
 21  8  1  0
 22  7  1  0
 23 30  1  0
 24  3  1  0
 25  7  1  0
 26 32  1  0
 27  6  1  0
 28 35  1  0
 29 17  1  0
 30 36  1  0
 31 25  1  0
 32 38  1  0
 33 27  1  0
 34 29  1  0
 35 37  1  0
 36 39  1  0
 37 33  1  0
 38 34  1  0
 39 31  1  0
M  END
> <chembl_id>
CHEMBL556

> <chembl_pref_name>
DEFEROXAMINE
