
     RDKit          2D

 32 35  0  0  1  0  0  0  0  0999 V2000
    6.6263    1.1163    0.0000 O   0  0  0  0  0  0  0  0  0  0  0  0
    8.0374    1.1692    0.0000 O   0  0  0  0  0  0  0  0  0  0  0  0
    9.0050   -0.1674    0.0000 O   0  0  0  0  0  0  0  0  0  0  0  0
    1.6500   -2.4383    0.0000 O   0  0  0  0  0  0  0  0  0  0  0  0
    7.5843    2.1766    0.0000 O   0  0  0  0  0  0  0  0  0  0  0  0
    6.0993    0.0799    0.0000 C   0  0  0  0  0  0  0  0  0  0  0  0
    6.0993   -0.7451    0.0000 C   0  0  0  0  0  0  0  0  0  0  0  0
    5.3849   -1.1576    0.0000 C   0  0  0  0  0  0  0  0  0  0  0  0
    4.6703   -0.7451    0.0000 C   0  0  0  0  0  0  0  0  0  0  0  0
    6.8799    0.3313    0.0000 C   0  0  0  0  0  0  0  0  0  0  0  0
    5.3849    0.4924    0.0000 C   0  0  0  0  0  0  0  0  0  0  0  0
    3.9196   -1.1632    0.0000 C   0  0  0  0  0  0  0  0  0  0  0  0
    6.8799   -0.9965    0.0000 C   0  0  0  0  0  0  0  0  0  0  0  0
    4.6703    0.0799    0.0000 C   0  0  0  0  0  0  0  0  0  0  0  0
    7.3614   -0.3326    0.0000 C   0  0  0  0  0  0  0  0  0  0  0  0
    5.3981   -2.0169    0.0000 C   0  0  0  0  0  0  0  0  0  0  0  0
    6.0993    0.9049    0.0000 C   0  0  0  0  0  0  0  0  0  0  0  0
    3.9130   -2.0226    0.0000 C   0  0  0  0  0  0  0  0  0  0  0  0
    4.6572   -2.4522    0.0000 C   0  0  0  0  0  0  0  0  0  0  0  0
    3.1550   -0.6979    0.0000 C   0  0  0  0  0  0  0  0  0  0  0  0
    3.9259   -0.3383    0.0000 C   0  0  0  0  0  0  0  0  0  0  0  0
    7.7005    0.4161    0.0000 C   0  0  0  0  0  0  0  0  0  0  0  0
    2.3729   -1.1335    0.0000 C   0  0  0  0  0  0  0  0  0  0  0  0
    3.1413   -2.4761    0.0000 C   0  0  0  0  0  0  0  0  0  0  0  0
    2.3660   -2.0285    0.0000 C   0  0  0  0  0  0  0  0  0  0  0  0
    8.1843   -0.2522    0.0000 C   0  0  0  0  0  0  0  0  0  0  0  0
    6.7992    1.9230    0.0000 C   0  0  0  0  0  0  0  0  0  0  0  0
    6.1872    2.4761    0.0000 C   0  0  0  0  0  0  0  0  0  0  0  0
    5.4021    2.2226    0.0000 C   0  0  0  0  0  0  0  0  0  0  0  0
    4.6703   -1.5701    0.0000 H   0  0  0  0  0  0  0  0  0  0  0  0
    6.1425   -1.5690    0.0000 H   0  0  0  0  0  0  0  0  0  0  0  0
    5.3849   -0.3326    0.0000 H   0  0  0  0  0  0  0  0  0  0  0  0
 10  1  1  6
  1 27  1  0
  2 22  2  0
  3 26  1  0
  4 25  2  0
  5 27  2  0
  6  7  1  0
  6 10  1  0
  6 11  1  0
  6 17  1  1
  7  8  1  0
  7 13  1  0
  8  9  1  0
  8 16  1  0
  9 12  1  0
  9 14  1  0
 10 15  1  0
 10 22  1  0
 11 14  1  0
 12 18  1  0
 12 20  1  0
 12 21  1  1
 13 15  1  0
 16 19  1  0
 18 19  1  0
 18 24  2  0
 20 23  1  0
 22 26  1  0
 23 25  1  0
 24 25  1  0
 27 28  1  0
 28 29  1  0
  9 30  1  6
  7 31  1  6
  8 32  1  1
M  END
> <chembl_id>
CHEMBL3590187

> <chembl_pref_name>
CLASCOTERONE
