
     RDKit          2D

 29 31  0  0  0  0  0  0  0  0999 V2000
   12.6882  -16.2079    0.0000 N   0  0  0  0  0  0  0  0  0  0  0  0
   11.8676  -16.2079    0.0000 C   0  0  0  0  0  0  0  0  0  0  0  0
   11.8676  -15.3873    0.0000 C   0  0  0  0  0  0  0  0  0  0  0  0
   12.6974  -15.3873    0.0000 C   0  0  0  0  0  0  0  0  0  0  0  0
   13.3950  -16.6229    0.0000 C   0  0  0  0  0  0  0  0  0  0  0  0
    9.0044  -15.3645    0.0000 C   0  0  0  0  0  0  0  0  0  0  0  0
    9.7202  -14.9633    0.0000 C   0  0  0  0  0  0  0  0  0  0  0  0
    8.2156  -15.1183    0.0000 N   0  0  0  0  0  0  0  0  0  0  0  0
   11.1518  -14.9679    0.0000 N   0  0  0  0  0  0  0  0  0  0  0  0
   10.4314  -15.3782    0.0000 C   0  0  0  0  0  0  0  0  0  0  0  0
   13.4086  -14.9770    0.0000 S   0  0  0  0  0  0  0  0  0  0  0  0
   14.1107  -16.2125    0.0000 C   0  0  0  0  0  0  0  0  0  0  0  0
    7.7324  -15.7885    0.0000 C   0  0  0  0  0  0  0  0  0  0  0  0
    9.0089  -16.1943    0.0000 C   0  0  0  0  0  0  0  0  0  0  0  0
    8.2248  -16.4541    0.0000 S   0  0  0  0  0  0  0  0  0  0  0  0
   13.3858  -17.4526    0.0000 C   0  0  0  0  0  0  0  0  0  0  0  0
   14.1199  -15.3919    0.0000 C   0  0  0  0  0  0  0  0  0  0  0  0
    9.7202  -14.1335    0.0000 N   0  0  0  0  0  0  0  0  0  0  0  0
   11.1518  -16.6183    0.0000 O   0  0  0  0  0  0  0  0  0  0  0  0
   10.4269  -16.1989    0.0000 O   0  0  0  0  0  0  0  0  0  0  0  0
   12.6745  -17.8538    0.0000 O   0  0  0  0  0  0  0  0  0  0  0  0
    6.9026  -15.7885    0.0000 N   0  0  0  0  0  0  0  0  0  0  0  0
   14.0970  -17.8675    0.0000 O   0  0  0  0  0  0  0  0  0  0  0  0
   14.8219  -16.6365    0.0000 C   0  0  0  0  0  0  0  0  0  0  0  0
   10.4314  -13.7232    0.0000 O   0  0  0  0  0  0  0  0  0  0  0  0
   15.5331  -16.2216    0.0000 O   0  0  0  0  0  0  0  0  0  0  0  0
   10.4314  -12.8980    0.0000 C   0  0  0  0  0  0  0  0  0  0  0  0
   16.2444  -16.6319    0.0000 C   0  0  0  0  0  0  0  0  0  0  0  0
   12.6928  -14.5575    0.0000 H   0  0  0  0  0  0  0  0  0  0  0  0
  2  1  1  0
  3  4  1  0
  4  1  1  0
  5  1  1  0
  6  7  1  0
  7 10  1  0
  8  6  1  0
  3  9  1  1
 10  9  1  0
  4 11  1  0
 12  5  2  0
 13  8  2  0
 14  6  2  0
 15 14  1  0
 16  5  1  0
 17 12  1  0
 18  7  2  0
 19  2  2  0
 20 10  2  0
 21 16  2  0
 22 13  1  0
 23 16  1  0
 24 12  1  0
 25 18  1  0
 26 24  1  0
 27 25  1  0
 28 26  1  0
  3  2  1  0
 17 11  1  0
 13 15  1  0
  4 29  1  6
M  END
> <chembl_id>
CHEMBL1672

> <chembl_pref_name>
CEFPODOXIME
