
     RDKit          2D

 10 11  0  0  0  0  0  0  0  0999 V2000
    5.1417   -4.9125    0.0000 C   0  0  0  0  0  0  0  0  0  0  0  0
    5.1417   -5.6167    0.0000 C   0  0  0  0  0  0  0  0  0  0  0  0
    6.2375   -5.2542    0.0000 N   0  0  0  0  0  0  0  0  0  0  0  0
    4.5167   -4.5667    0.0000 C   0  0  0  0  0  0  0  0  0  0  0  0
    4.5417   -5.9875    0.0000 N   0  0  0  0  0  0  0  0  0  0  0  0
    5.8292   -5.8250    0.0000 N   0  0  0  0  0  0  0  0  0  0  0  0
    3.9042   -4.9292    0.0000 N   0  0  0  0  0  0  0  0  0  0  0  0
    3.9167   -5.6375    0.0000 C   0  0  0  0  0  0  0  0  0  0  0  0
    5.8125   -4.6792    0.0000 C   0  0  0  0  0  0  0  0  0  0  0  0
    4.5042   -3.8500    0.0000 O   0  0  0  0  0  0  0  0  0  0  0  0
  2  1  2  0
  3  9  2  0
  4  1  1  0
  5  2  1  0
  6  2  1  0
  7  4  2  0
  8  7  1  0
  9  1  1  0
 10  4  1  0
  6  3  1  0
  5  8  2  0
M  END
> <chembl_id>
CHEMBL1467

> <chembl_pref_name>
ALLOPURINOL
