
     RDKit          2D

 33 38  0  0  0  0  0  0  0  0999 V2000
   -1.1822   -0.2373    0.0000 O   0  0  0  0  0  0  0  0  0  0  0  0
   -0.9618   -1.0322    0.0000 C   0  0  0  0  0  0  0  0  0  0  0  0
   -1.5401   -1.6205    0.0000 C   0  0  0  0  0  0  0  0  0  0  0  0
   -2.3388   -1.4139    0.0000 C   0  0  0  0  0  0  0  0  0  0  0  0
   -2.9170   -2.0022    0.0000 C   0  0  0  0  0  0  0  0  0  0  0  0
   -2.6966   -2.7971    0.0000 C   0  0  0  0  0  0  0  0  0  0  0  0
   -1.8980   -3.0038    0.0000 C   0  0  0  0  0  0  0  0  0  0  0  0
   -1.3198   -2.4155    0.0000 C   0  0  0  0  0  0  0  0  0  0  0  0
   -0.1632   -1.2389    0.0000 O   0  0  0  0  0  0  0  0  0  0  0  0
    0.9329   -0.6136    0.0000 O   0  0  0  0  0  0  0  0  0  0  0  0
    0.2187   -0.0922    0.0000 C   0  0  0  0  0  0  0  0  0  0  0  0
    0.4558    0.5148    0.0000 C   0  0  0  0  0  0  0  0  0  0  0  0
    1.6139   -0.0935    0.0000 C   0  0  0  0  0  0  0  0  0  0  0  0
    3.7356   -0.6647    0.0000 C   0  0  0  0  0  0  0  0  0  0  0  0
    2.9125   -0.7183    0.0000 O   0  0  0  0  0  0  0  0  0  0  0  0
    2.4545   -0.0322    0.0000 C   0  0  0  0  0  0  0  0  0  0  0  0
    2.8298    0.7132    0.0000 C   0  0  0  0  0  0  0  0  0  0  0  0
    2.3515    1.4142    0.0000 C   0  0  0  0  0  0  0  0  0  0  0  0
    1.4822    1.4580    0.0000 C   0  0  0  0  0  0  0  0  0  0  0  0
    0.6916    1.9707    0.0000 C   0  0  0  0  0  0  0  0  0  0  0  0
   -0.2014    1.5221    0.0000 C   0  0  0  0  0  0  0  0  0  0  0  0
    0.2417    1.3551    0.0000 C   0  0  0  0  0  0  0  0  0  0  0  0
   -0.5575    1.8012    0.0000 C   0  0  0  0  0  0  0  0  0  0  0  0
   -0.6039    0.3510    0.0000 C   0  0  0  0  0  0  0  0  0  0  0  0
   -1.0969    1.2293    0.0000 C   0  0  0  0  0  0  0  0  0  0  0  0
   -0.2213   -0.7901    0.0000 H   0  0  0  0  0  0  0  0  0  0  0  0
    1.2436    0.6598    0.0000 C   0  0  0  0  0  0  0  0  0  0  0  0
    1.0282    1.6040    0.0000 H   0  0  0  0  0  0  0  0  0  0  0  0
   -0.6805    2.1937    0.0000 H   0  0  0  0  0  0  0  0  0  0  0  0
   -0.2651   -0.1768    0.0000 C   0  0  0  0  0  0  0  0  0  0  0  0
   -0.8850    0.8539    0.0000 N   0  0  0  0  0  0  0  0  0  0  0  0
   -1.0555    0.0502    0.0000 C   0  0  0  0  0  0  0  0  0  0  0  0
   -1.6077    1.2516    0.0000 C   0  0  0  0  0  0  0  0  0  0  0  0
  1  2  1  0
  1 24  1  0
  2  9  2  0
  3  2  1  0
  3  8  1  0
  4  3  2  0
  4  5  1  0
  5  6  2  0
  7  6  1  0
  8  7  2  0
 11 12  1  0
 11 24  1  0
 11 26  1  6
 12 22  1  0
 13 10  1  0
 13 27  1  0
 15 14  1  0
 15 16  1  0
 16 13  2  0
 17 18  2  0
 17 16  1  0
 18 19  1  0
 19 27  2  0
 20 19  1  0
 21 22  1  0
 21 20  1  0
 23 22  1  0
 24 25  2  0
 25 23  1  0
 27 12  1  0
 22 28  1  6
 21 29  1  1
 21 31  1  0
 31 32  1  0
 12 30  1  6
 32 30  1  0
 31 33  1  0
 11 10  1  1
M  END
> <chembl_id>
CHEMBL3137321

> <chembl_pref_name>
BENZHYDROCODONE
