
     RDKit          2D

 31 31  0  0  0  0  0  0  0  0999 V2000
   -3.9206    0.6088    0.0000 O   0  0  0  0  0  0  0  0  0  0  0  0
   -3.9206   -0.2162    0.0000 C   0  0  0  0  0  0  0  0  0  0  0  0
   -3.2061   -0.6287    0.0000 C   0  0  0  0  0  0  0  0  0  0  0  0
   -2.4916   -0.2162    0.0000 C   0  0  0  0  0  0  0  0  0  0  0  0
   -2.4916   -1.8663    0.0000 O   0  0  0  0  0  0  0  0  0  0  0  0
   -1.7772   -1.4537    0.0000 C   0  0  0  0  0  0  0  0  0  0  0  0
   -1.7772   -0.6287    0.0000 C   0  0  0  0  0  0  0  0  0  0  0  0
   -1.0627   -1.8663    0.0000 O   0  0  0  0  0  0  0  0  0  0  0  0
   -0.3482   -1.4538    0.0000 O   0  0  0  0  0  0  0  0  0  0  0  0
   -0.3482   -0.6288    0.0000 C   0  0  0  0  0  0  0  0  0  0  0  0
   -1.0627   -0.2163    0.0000 N   0  0  0  0  0  0  0  0  0  0  0  0
    0.3663   -0.2163    0.0000 N   0  0  0  0  0  0  0  0  0  0  0  0
   -0.3482    1.0213    0.0000 C   0  0  0  0  0  0  0  0  0  0  0  0
   -1.0627    0.6088    0.0000 O   0  0  0  0  0  0  0  0  0  0  0  0
    0.3662    0.6088    0.0000 C   0  0  0  0  0  0  0  0  0  0  0  0
    1.0807    1.0213    0.0000 C   0  0  0  0  0  0  0  0  0  0  0  0
    1.7952    0.6087    0.0000 C   0  0  0  0  0  0  0  0  0  0  0  0
    2.5097    1.0213    0.0000 C   0  0  0  0  0  0  0  0  0  0  0  0
    3.2241    0.6087    0.0000 C   0  0  0  0  0  0  0  0  0  0  0  0
    3.9386    1.0213    0.0000 N   0  0  0  0  0  0  0  0  0  0  0  0
    4.6530   -0.2163    0.0000 O   0  0  0  0  0  0  0  0  0  0  0  0
    4.6530    0.6087    0.0000 C   0  0  0  0  0  0  0  0  0  0  0  0
    5.3675    1.0213    0.0000 C   0  0  0  0  0  0  0  0  0  0  0  0
    6.0820    2.2588    0.0000 N   0  0  0  0  0  0  0  0  0  0  0  0
    5.3675    1.8463    0.0000 C   0  0  0  0  0  0  0  0  0  0  0  0
    6.0820    0.6087    0.0000 C   0  0  0  0  0  0  0  0  0  0  0  0
    6.7964    1.0213    0.0000 C   0  0  0  0  0  0  0  0  0  0  0  0
    6.7964    1.8463    0.0000 C   0  0  0  0  0  0  0  0  0  0  0  0
    7.5109    2.2588    0.0000 F   0  0  0  0  0  0  0  0  0  0  0  0
   -0.3482    1.8463    0.0000 O   0  0  0  0  0  0  0  0  0  0  0  0
   -4.6350   -0.6287    0.0000 O   0  0  0  0  0  0  0  0  0  0  0  0
  1  2  1  0
  2  3  1  0
  3  4  1  0
  5  6  1  0
  7  6  1  6
  4  7  1  0
  9 10  2  0
 10 11  1  0
  6  8  2  0
  7 11  1  0
 12 10  1  0
 13 14  1  0
 13 15  1  0
 15 12  1  6
 16 17  1  0
 16 15  1  0
 18 19  1  0
 18 17  1  0
 21 22  2  0
 20 22  1  0
 20 19  1  0
 23 22  1  0
 24 25  1  0
 26 27  2  0
 27 28  1  0
 24 28  2  0
 25 23  2  0
 23 26  1  0
 28 29  1  0
 13 30  2  0
  2 31  2  0
M  ISO  1  29  18
M  END
> <chembl_id>
CHEMBL4297334

> <chembl_pref_name>
PIFLUFOLASTAT F18
