
     RDKit          2D

 31 33  0  0  0  0  0  0  0  0999 V2000
    3.4042   -0.8500    0.0000 C   0  0  0  0  0  0  0  0  0  0  0  0
    3.4042    1.0083    0.0000 C   0  0  0  0  0  0  0  0  0  0  0  0
    2.6667   -0.4167    0.0000 C   0  0  0  0  0  0  0  0  0  0  0  0
    2.6667    0.5583    0.0000 C   0  0  0  0  0  0  0  0  0  0  0  0
    3.4042   -1.7417    0.0000 O   0  0  0  0  0  0  0  0  0  0  0  0
    3.4042    1.6958    0.0000 O   0  0  0  0  0  0  0  0  0  0  0  0
    4.1750    0.6458    0.0000 O   0  0  0  0  0  0  0  0  0  0  0  0
    4.2792   -0.5000    0.0000 O   0  0  0  0  0  0  0  0  0  0  0  0
   -1.2458    1.6625    0.0000 N   0  0  0  0  0  0  0  0  0  0  0  0
   -1.9708    0.2208    0.0000 C   0  0  0  0  0  0  0  0  0  0  0  0
   -1.2208   -0.3417    0.0000 C   0  0  0  0  0  0  0  0  0  0  0  0
   -1.9708    1.1083    0.0000 C   0  0  0  0  0  0  0  0  0  0  0  0
   -0.3583   -0.1250    0.0000 N   0  0  0  0  0  0  0  0  0  0  0  0
   -0.3583    2.8125    0.0000 N   0  0  0  0  0  0  0  0  0  0  0  0
   -0.3458    1.4083    0.0000 C   0  0  0  0  0  0  0  0  0  0  0  0
   -1.2583    2.5250    0.0000 C   0  0  0  0  0  0  0  0  0  0  0  0
   -1.2208   -1.1917    0.0000 C   0  0  0  0  0  0  0  0  0  0  0  0
    0.1542    2.1333    0.0000 C   0  0  0  0  0  0  0  0  0  0  0  0
    0.0292    0.6208    0.0000 C   0  0  0  0  0  0  0  0  0  0  0  0
   -2.7458    1.5583    0.0000 C   0  0  0  0  0  0  0  0  0  0  0  0
   -2.7458   -0.2292    0.0000 C   0  0  0  0  0  0  0  0  0  0  0  0
   -0.4458   -1.6125    0.0000 C   0  0  0  0  0  0  0  0  0  0  0  0
   -3.5125    0.2208    0.0000 C   0  0  0  0  0  0  0  0  0  0  0  0
   -3.5125    1.1083    0.0000 C   0  0  0  0  0  0  0  0  0  0  0  0
    0.3500   -1.1917    0.0000 F   0  0  0  0  0  0  0  0  0  0  0  0
   -4.2333   -0.2125    0.0000 Cl  0  0  0  0  0  0  0  0  0  0  0  0
   -1.9875   -1.6125    0.0000 C   0  0  0  0  0  0  0  0  0  0  0  0
   -1.9875    2.9833    0.0000 C   0  0  0  0  0  0  0  0  0  0  0  0
   -0.4458   -2.5167    0.0000 C   0  0  0  0  0  0  0  0  0  0  0  0
   -1.9875   -2.5167    0.0000 C   0  0  0  0  0  0  0  0  0  0  0  0
   -1.2208   -2.9667    0.0000 C   0  0  0  0  0  0  0  0  0  0  0  0
  2  4  1  0
  3  1  1  0
  4  3  2  0
  5  1  2  0
  6  2  2  0
  7  2  1  0
  8  1  1  0
 10 12  2  0
 11 10  1  0
 12  9  1  0
 13 19  1  0
 14 16  2  0
 15  9  1  0
 16  9  1  0
 17 11  1  0
 18 15  2  0
 19 15  1  0
 20 12  1  0
 21 10  1  0
 22 17  1  0
 23 21  2  0
 24 20  2  0
 25 22  1  0
 26 23  1  0
 27 17  2  0
 28 16  1  0
 29 22  2  0
 30 27  1  0
 31 30  2  0
 18 14  1  0
 11 13  2  0
 24 23  1  0
 29 31  1  0
M  END
> <chembl_id>
CHEMBL2106922

> <chembl_pref_name>
MIDAZOLAM MALEATE
