
     RDKit          2D

 37 41  0  0  0  0  0  0  0  0999 V2000
   -6.4742    1.6913    0.0000 C   0  0  0  0  0  0  0  0  0  0  0  0
   -5.7597    0.4538    0.0000 C   0  0  0  0  0  0  0  0  0  0  0  0
   -5.7597    1.2788    0.0000 C   0  0  0  0  0  0  0  0  0  0  0  0
   -5.0452    0.0412    0.0000 C   0  0  0  0  0  0  0  0  0  0  0  0
   -4.3307    0.4537    0.0000 C   0  0  0  0  0  0  0  0  0  0  0  0
   -4.3307    1.2787    0.0000 C   0  0  0  0  0  0  0  0  0  0  0  0
   -5.0452    1.6912    0.0000 C   0  0  0  0  0  0  0  0  0  0  0  0
   -2.9018    1.2787    0.0000 N   0  0  0  0  0  0  0  0  0  0  0  0
   -3.6163    1.6912    0.0000 C   0  0  0  0  0  0  0  0  0  0  0  0
   -3.6162    2.5162    0.0000 C   0  0  0  0  0  0  0  0  0  0  0  0
   -2.9018    2.9287    0.0000 C   0  0  0  0  0  0  0  0  0  0  0  0
   -2.1873    2.5162    0.0000 C   0  0  0  0  0  0  0  0  0  0  0  0
   -2.1873    1.6912    0.0000 N   0  0  0  0  0  0  0  0  0  0  0  0
   -1.4728    1.2787    0.0000 C   0  0  0  0  0  0  0  0  0  0  0  0
   -0.7583    1.6912    0.0000 C   0  0  0  0  0  0  0  0  0  0  0  0
   -0.7583    2.5162    0.0000 C   0  0  0  0  0  0  0  0  0  0  0  0
   -1.4728    2.9287    0.0000 O   0  0  0  0  0  0  0  0  0  0  0  0
   -0.0439    1.2787    0.0000 C   0  0  0  0  0  0  0  0  0  0  0  0
    0.6706    1.6911    0.0000 C   0  0  0  0  0  0  0  0  0  0  0  0
    0.6706    2.5161    0.0000 C   0  0  0  0  0  0  0  0  0  0  0  0
   -0.0439    2.9287    0.0000 C   0  0  0  0  0  0  0  0  0  0  0  0
    1.3851    0.4536    0.0000 N   0  0  0  0  0  0  0  0  0  0  0  0
    1.3851    1.2786    0.0000 C   0  0  0  0  0  0  0  0  0  0  0  0
    2.0995    1.6911    0.0000 N   0  0  0  0  0  0  0  0  0  0  0  0
    2.0995    0.0411    0.0000 C   0  0  0  0  0  0  0  0  0  0  0  0
    2.8140    0.4536    0.0000 C   0  0  0  0  0  0  0  0  0  0  0  0
    2.8140    1.2786    0.0000 C   0  0  0  0  0  0  0  0  0  0  0  0
    3.5285    0.0411    0.0000 O   0  0  0  0  0  0  0  0  0  0  0  0
    4.2429    0.4536    0.0000 C   0  0  0  0  0  0  0  0  0  0  0  0
    4.9574   -0.7839    0.0000 C   0  0  0  0  0  0  0  0  0  0  0  0
    4.9574    0.0411    0.0000 C   0  0  0  0  0  0  0  0  0  0  0  0
    5.6719    0.4536    0.0000 C   0  0  0  0  0  0  0  0  0  0  0  0
    5.6719   -1.1964    0.0000 C   0  0  0  0  0  0  0  0  0  0  0  0
    6.3863   -0.7839    0.0000 N   0  0  0  0  0  0  0  0  0  0  0  0
    6.3863    0.0411    0.0000 C   0  0  0  0  0  0  0  0  0  0  0  0
   -7.1886    2.1038    0.0000 N   0  0  0  0  0  0  0  0  0  0  0  0
    7.1008   -1.1964    0.0000 C   0  0  0  0  0  0  0  0  0  0  0  0
  2  3  2  0
  1  3  1  0
  4  5  2  0
  5  6  1  0
  6  7  2  0
  2  4  1  0
  3  7  1  0
  8  9  2  0
  6  9  1  0
 10 11  2  0
 11 12  1  0
 12 13  1  0
  8 13  1  0
  9 10  1  0
 14 15  1  0
 15 16  2  0
 12 17  2  0
 13 14  1  0
 18 19  2  0
 19 20  1  0
 20 21  2  0
 15 18  1  0
 16 21  1  0
 22 23  2  0
 19 23  1  0
 25 26  2  0
 26 27  1  0
 24 27  2  0
 22 25  1  0
 24 23  1  0
 28 29  1  0
 26 28  1  0
 30 31  1  0
 29 31  1  0
 33 34  1  0
 34 35  1  0
 32 35  1  0
 30 33  1  0
 32 31  1  0
  1 36  3  0
 34 37  1  0
M  END
> <chembl_id>
CHEMBL3402762

> <chembl_pref_name>
TEPOTINIB
