
     RDKit          2D

 30 32  0  0  0  0  0  0  0  0999 V2000
   -0.5729   -8.1904    0.0000 N   0  0  0  0  0  0  0  0  0  0  0  0
   -1.4025   -8.1859    0.0000 C   0  0  0  0  0  0  0  0  0  0  0  0
   -1.4025   -7.3516    0.0000 C   0  0  0  0  0  0  0  0  0  0  0  0
    0.1375   -8.5984    0.0000 C   0  0  0  0  0  0  0  0  0  0  0  0
   -2.1175   -6.9391    0.0000 N   0  0  0  0  0  0  0  0  0  0  0  0
   -2.8416   -7.3516    0.0000 C   0  0  0  0  0  0  0  0  0  0  0  0
   -3.5475   -6.9391    0.0000 C   0  0  0  0  0  0  0  0  0  0  0  0
    0.1375   -6.9484    0.0000 S   0  0  0  0  0  0  0  0  0  0  0  0
    0.8525   -8.1904    0.0000 C   0  0  0  0  0  0  0  0  0  0  0  0
   -4.2625   -7.3516    0.0000 C   0  0  0  0  0  0  0  0  0  0  0  0
    0.1375   -9.4234    0.0000 C   0  0  0  0  0  0  0  0  0  0  0  0
    2.9975   -8.6029    0.0000 C   0  0  0  0  0  0  0  0  0  0  0  0
    0.8525   -7.3654    0.0000 C   0  0  0  0  0  0  0  0  0  0  0  0
   -3.5475   -6.1141    0.0000 N   0  0  0  0  0  0  0  0  0  0  0  0
   -1.9891   -8.7679    0.0000 O   0  0  0  0  0  0  0  0  0  0  0  0
   -5.0416   -7.0996    0.0000 O   0  0  0  0  0  0  0  0  0  0  0  0
    1.5675   -8.6029    0.0000 C   0  0  0  0  0  0  0  0  0  0  0  0
   -2.8416   -8.1766    0.0000 O   0  0  0  0  0  0  0  0  0  0  0  0
   -4.2625   -8.1766    0.0000 C   0  0  0  0  0  0  0  0  0  0  0  0
    2.2825   -8.1904    0.0000 O   0  0  0  0  0  0  0  0  0  0  0  0
    2.9884   -9.4279    0.0000 O   0  0  0  0  0  0  0  0  0  0  0  0
   -0.5729   -9.8359    0.0000 O   0  0  0  0  0  0  0  0  0  0  0  0
   -5.5366   -7.7641    0.0000 C   0  0  0  0  0  0  0  0  0  0  0  0
   -5.0462   -8.4241    0.0000 C   0  0  0  0  0  0  0  0  0  0  0  0
    3.7125   -8.1904    0.0000 N   0  0  0  0  0  0  0  0  0  0  0  0
    0.8571   -9.8359    0.0000 O   0  0  0  0  0  0  0  0  0  0  0  0
   -2.8416   -5.7016    0.0000 O   0  0  0  0  0  0  0  0  0  0  0  0
   -2.8416   -4.8766    0.0000 C   0  0  0  0  0  0  0  0  0  0  0  0
   -0.5729   -7.3516    0.0000 C   0  0  0  0  0  0  0  0  0  0  0  0
   -0.5729   -6.5266    0.0000 H   0  0  0  0  0  0  0  0  0  0  0  0
  2  1  1  0
  3 29  1  0
 29  1  1  0
  4  1  1  0
  3  5  1  1
  6  5  1  0
  7  6  1  0
 29  8  1  0
  9  4  2  0
 10  7  1  0
 11  4  1  0
 12 20  1  0
 13  9  1  0
 14  7  2  0
 15  2  2  0
 16 10  1  0
 17  9  1  0
 18  6  2  0
 19 10  2  0
 20 17  1  0
 21 12  2  0
 22 11  2  0
 23 16  1  0
 24 19  1  0
 25 12  1  0
 26 11  1  0
 27 14  1  0
 28 27  1  0
  3  2  1  0
 13  8  1  0
 23 24  2  0
 29 30  1  6
M  END
> <chembl_id>
CHEMBL1436

> <chembl_pref_name>
CEFUROXIME
