
     RDKit          2D

 98105  0  0  0  0  0  0  0  0999 V2000
   11.2042   -4.4625    0.0000 N   0  0  0  0  0  0  0  0  0  0  0  0
   10.5917   -4.8125    0.0000 C   0  0  0  0  0  0  0  0  0  0  0  0
    1.3875   -5.8708    0.0000 C   0  0  0  0  0  0  0  0  0  0  0  0
    3.2250   -4.8125    0.0000 C   0  0  0  0  0  0  0  0  0  0  0  0
    7.4792   -3.8125    0.0000 N   0  0  0  0  0  0  0  0  0  0  0  0
    1.3875   -4.4500    0.0000 C   0  0  0  0  0  0  0  0  0  0  0  0
   -0.4583   -4.8125    0.0000 C   0  0  0  0  0  0  0  0  0  0  0  0
    6.9042   -4.8125    0.0000 C   0  0  0  0  0  0  0  0  0  0  0  0
    5.0667   -4.4500    0.0000 C   0  0  0  0  0  0  0  0  0  0  0  0
    8.7500   -4.4625    0.0000 C   0  0  0  0  0  0  0  0  0  0  0  0
   -2.3000   -4.4625    0.0000 C   0  0  0  0  0  0  0  0  0  0  0  0
   -3.4875   -4.4083    0.0000 N   0  0  0  0  0  0  0  0  0  0  0  0
    7.8375   -2.7208    0.0000 N   0  0  0  0  0  0  0  0  0  0  0  0
    2.0000   -4.8125    0.0000 N   0  0  0  0  0  0  0  0  0  0  0  0
   11.7792   -4.8750    0.0000 C   0  0  0  0  0  0  0  0  0  0  0  0
    2.6042   -4.4583    0.0000 C   0  0  0  0  0  0  0  0  0  0  0  0
    6.9042   -3.3958    0.0000 C   0  0  0  0  0  0  0  0  0  0  0  0
    2.5292   -5.8500    0.0000 N   0  0  0  0  0  0  0  0  0  0  0  0
    3.8375   -4.4500    0.0000 N   0  0  0  0  0  0  0  0  0  0  0  0
    5.6792   -4.8125    0.0000 N   0  0  0  0  0  0  0  0  0  0  0  0
    0.1542   -4.4500    0.0000 N   0  0  0  0  0  0  0  0  0  0  0  0
   -1.6833   -4.8125    0.0000 N   0  0  0  0  0  0  0  0  0  0  0  0
    7.5250   -4.4625    0.0000 N   0  0  0  0  0  0  0  0  0  0  0  0
    9.3625   -4.8125    0.0000 N   0  0  0  0  0  0  0  0  0  0  0  0
    1.9542   -5.4458    0.0000 C   0  0  0  0  0  0  0  0  0  0  0  0
    6.2917   -4.4583    0.0000 C   0  0  0  0  0  0  0  0  0  0  0  0
   -1.0708   -4.4583    0.0000 C   0  0  0  0  0  0  0  0  0  0  0  0
    0.7667   -4.8083    0.0000 C   0  0  0  0  0  0  0  0  0  0  0  0
    8.0542   -3.3958    0.0000 C   0  0  0  0  0  0  0  0  0  0  0  0
    4.4500   -4.8083    0.0000 C   0  0  0  0  0  0  0  0  0  0  0  0
    8.1292   -4.8125    0.0000 C   0  0  0  0  0  0  0  0  0  0  0  0
   11.7750   -5.5875    0.0000 C   0  0  0  0  0  0  0  0  0  0  0  0
    9.9750   -4.4625    0.0000 C   0  0  0  0  0  0  0  0  0  0  0  0
    0.6917   -3.4250    0.0000 N   0  0  0  0  0  0  0  0  0  0  0  0
   -2.9125   -4.8250    0.0000 C   0  0  0  0  0  0  0  0  0  0  0  0
   11.2042   -1.6250    0.0000 C   0  0  0  0  0  0  0  0  0  0  0  0
   -4.0583   -4.8250    0.0000 C   0  0  0  0  0  0  0  0  0  0  0  0
    7.1250   -2.7208    0.0000 C   0  0  0  0  0  0  0  0  0  0  0  0
    1.6167   -6.5375    0.0000 C   0  0  0  0  0  0  0  0  0  0  0  0
    0.7667   -5.5125    0.0000 C   0  0  0  0  0  0  0  0  0  0  0  0
    6.2917   -3.7500    0.0000 C   0  0  0  0  0  0  0  0  0  0  0  0
   -0.4583   -3.3958    0.0000 C   0  0  0  0  0  0  0  0  0  0  0  0
   -1.0708   -3.7500    0.0000 C   0  0  0  0  0  0  0  0  0  0  0  0
   -0.2208   -2.7250    0.0000 N   0  0  0  0  0  0  0  0  0  0  0  0
    0.4917   -2.7458    0.0000 C   0  0  0  0  0  0  0  0  0  0  0  0
    2.3250   -6.5250    0.0000 C   0  0  0  0  0  0  0  0  0  0  0  0
   10.5917   -1.2750    0.0000 N   0  0  0  0  0  0  0  0  0  0  0  0
    0.1042   -3.8250    0.0000 C   0  0  0  0  0  0  0  0  0  0  0  0
   10.5917   -5.5250    0.0000 O   0  0  0  0  0  0  0  0  0  0  0  0
    3.2250   -5.5208    0.0000 O   0  0  0  0  0  0  0  0  0  0  0  0
    5.0667   -3.7458    0.0000 O   0  0  0  0  0  0  0  0  0  0  0  0
    6.9042   -5.5208    0.0000 O   0  0  0  0  0  0  0  0  0  0  0  0
    8.7500   -3.7500    0.0000 O   0  0  0  0  0  0  0  0  0  0  0  0
    1.3875   -3.7458    0.0000 O   0  0  0  0  0  0  0  0  0  0  0  0
   -0.4583   -5.5208    0.0000 O   0  0  0  0  0  0  0  0  0  0  0  0
   -2.3083   -3.7583    0.0000 O   0  0  0  0  0  0  0  0  0  0  0  0
    4.4500   -5.5125    0.0000 C   0  0  0  0  0  0  0  0  0  0  0  0
   11.1542   -5.9333    0.0000 O   0  0  0  0  0  0  0  0  0  0  0  0
    8.1292   -5.5250    0.0000 C   0  0  0  0  0  0  0  0  0  0  0  0
   -4.7333   -4.6083    0.0000 O   0  0  0  0  0  0  0  0  0  0  0  0
    8.4417   -2.3625    0.0000 C   0  0  0  0  0  0  0  0  0  0  0  0
   -3.1333   -5.5000    0.0000 C   0  0  0  0  0  0  0  0  0  0  0  0
   11.2042   -2.3375    0.0000 N   0  0  0  0  0  0  0  0  0  0  0  0
   12.3792   -5.9458    0.0000 N   0  0  0  0  0  0  0  0  0  0  0  0
   11.8167   -1.2750    0.0000 N   0  0  0  0  0  0  0  0  0  0  0  0
   11.4250   -3.7875    0.0000 C   0  0  0  0  0  0  0  0  0  0  0  0
   -3.8458   -5.5000    0.0000 C   0  0  0  0  0  0  0  0  0  0  0  0
    5.0667   -5.8708    0.0000 C   0  0  0  0  0  0  0  0  0  0  0  0
    6.2917   -6.5750    0.0000 C   0  0  0  0  0  0  0  0  0  0  0  0
    2.6042   -3.7500    0.0000 C   0  0  0  0  0  0  0  0  0  0  0  0
    8.4292   -1.6500    0.0000 C   0  0  0  0  0  0  0  0  0  0  0  0
    5.0667   -6.5750    0.0000 C   0  0  0  0  0  0  0  0  0  0  0  0
    5.6792   -5.5125    0.0000 C   0  0  0  0  0  0  0  0  0  0  0  0
    6.2917   -5.8708    0.0000 C   0  0  0  0  0  0  0  0  0  0  0  0
    5.6792   -6.9333    0.0000 C   0  0  0  0  0  0  0  0  0  0  0  0
   12.3542   -4.4625    0.0000 C   0  0  0  0  0  0  0  0  0  0  0  0
    6.9042   -6.9333    0.0000 O   0  0  0  0  0  0  0  0  0  0  0  0
    3.2250   -3.3958    0.0000 O   0  0  0  0  0  0  0  0  0  0  0  0
   12.1292   -3.7875    0.0000 C   0  0  0  0  0  0  0  0  0  0  0  0
    9.9750   -3.7500    0.0000 C   0  0  0  0  0  0  0  0  0  0  0  0
    1.2667   -7.1625    0.0000 C   0  0  0  0  0  0  0  0  0  0  0  0
    8.7500   -5.8750    0.0000 C   0  0  0  0  0  0  0  0  0  0  0  0
    2.6917   -7.1333    0.0000 C   0  0  0  0  0  0  0  0  0  0  0  0
   12.9917   -5.5875    0.0000 C   0  0  0  0  0  0  0  0  0  0  0  0
   10.5917   -2.6875    0.0000 C   0  0  0  0  0  0  0  0  0  0  0  0
    9.0417   -1.2875    0.0000 C   0  0  0  0  0  0  0  0  0  0  0  0
    7.8167   -1.3083    0.0000 C   0  0  0  0  0  0  0  0  0  0  0  0
   10.5917   -3.4000    0.0000 C   0  0  0  0  0  0  0  0  0  0  0  0
    9.3625   -5.5250    0.0000 C   0  0  0  0  0  0  0  0  0  0  0  0
    8.7500   -6.5875    0.0000 C   0  0  0  0  0  0  0  0  0  0  0  0
   13.6125   -5.9458    0.0000 C   0  0  0  0  0  0  0  0  0  0  0  0
    1.6375   -7.7625    0.0000 C   0  0  0  0  0  0  0  0  0  0  0  0
    2.3500   -7.7500    0.0000 C   0  0  0  0  0  0  0  0  0  0  0  0
    7.8042   -0.6000    0.0000 C   0  0  0  0  0  0  0  0  0  0  0  0
    9.0292   -0.5833    0.0000 C   0  0  0  0  0  0  0  0  0  0  0  0
    8.4167   -0.2375    0.0000 C   0  0  0  0  0  0  0  0  0  0  0  0
   12.3917   -5.2333    0.0000 H   0  0  0  0  0  0  0  0  0  0  0  0
   -2.3000   -5.1750    0.0000 H   0  0  0  0  0  0  0  0  0  0  0  0
  2  1  1  0
  3 40  1  0
  4 19  1  0
  5 17  1  0
  6 14  1  0
  7 21  1  0
  8 23  1  0
  9 20  1  0
 10 24  1  0
 11 22  1  0
 12 35  1  0
 13 38  1  0
 14 16  1  0
 15  1  1  0
 16  4  1  0
 17 41  1  0
 18 25  1  0
 19 30  1  0
 20 26  1  0
 21 28  1  0
 22 27  1  0
 23 31  1  0
 24 33  1  0
 25  3  2  0
 26  8  1  0
 27  7  1  0
 28  6  1  0
 29  5  2  0
 30  9  1  0
 31 10  1  0
 32 15  1  0
 33  2  1  0
 34 48  1  0
 35 11  1  0
 36 63  1  0
 37 12  1  0
 38 17  2  0
 39  3  1  0
 28 40  1  6
 26 41  1  6
 42 43  1  0
 27 43  1  1
 44 42  1  0
 45 44  1  0
 46 39  2  0
 47 36  2  0
 48 42  2  0
 49  2  2  0
 50  4  2  0
 51  9  2  0
 52  8  2  0
 53 10  2  0
 54  6  2  0
 55  7  2  0
 56 11  2  0
 30 57  1  6
 58 32  2  0
 31 59  1  6
 60 37  2  0
 61 13  1  0
 62 35  1  0
 63 85  1  0
 64 32  1  0
 65 36  1  0
 66  1  1  0
 67 62  1  0
 68 57  1  0
 69 75  1  0
 16 70  1  1
 71 61  1  0
 72 68  1  0
 73 68  2  0
 74 73  1  0
 75 72  2  0
 76 15  1  0
 77 69  1  0
 78 70  1  0
 79 66  1  0
 33 80  1  1
 81 39  1  0
 82 59  1  0
 83 46  1  0
 84 64  1  0
 85 88  1  0
 86 71  2  0
 87 71  1  0
 88 80  1  0
 89 82  1  0
 90 82  1  0
 91 84  1  0
 92 81  2  0
 93 92  1  0
 94 87  2  0
 95 86  1  0
 96 94  1  0
 15 97  1  6
 35 98  1  1
 79 76  1  0
 13 29  1  0
 74 69  2  0
 95 96  2  0
 46 18  1  0
 93 83  2  0
 34 45  2  0
 37 67  1  0
M  END
> <chembl_id>
CHEMBL1201255

> <chembl_pref_name>
HISTRELIN
