
     RDKit          2D

 25 28  0  0  1  0  0  0  0  0999 V2000
    4.1250   -4.8500    0.0000 C   0  0  0  0  0  0  0  0  0  0  0  0
    4.1250   -5.5500    0.0000 C   0  0  0  0  0  0  0  0  0  0  0  0
    5.3542   -4.8500    0.0000 C   0  0  0  0  0  0  0  0  0  0  0  0
    5.9667   -3.8042    0.0000 C   0  0  0  0  0  0  0  0  0  0  0  0
    4.7417   -4.5042    0.0000 C   0  0  0  0  0  0  0  0  0  0  0  0
    4.7417   -5.8917    0.0000 C   0  0  0  0  0  0  0  0  0  0  0  0
    5.9667   -4.5042    0.0000 C   0  0  0  0  0  0  0  0  0  0  0  0
    3.5125   -4.5042    0.0000 C   0  0  0  0  0  0  0  0  0  0  0  0
    5.3542   -5.5500    0.0000 C   0  0  0  0  0  0  0  0  0  0  0  0
    3.5125   -5.8917    0.0000 C   0  0  0  0  0  0  0  0  0  0  0  0
    6.6542   -3.5917    0.0000 C   0  0  0  0  0  0  0  0  0  0  0  0
    5.3542   -3.4542    0.0000 C   0  0  0  0  0  0  0  0  0  0  0  0
    4.7417   -3.8042    0.0000 C   0  0  0  0  0  0  0  0  0  0  0  0
    6.6542   -4.7167    0.0000 C   0  0  0  0  0  0  0  0  0  0  0  0
    2.8917   -4.8500    0.0000 C   0  0  0  0  0  0  0  0  0  0  0  0
    2.8917   -5.5500    0.0000 C   0  0  0  0  0  0  0  0  0  0  0  0
    7.0417   -4.1542    0.0000 C   0  0  0  0  0  0  0  0  0  0  0  0
    4.7417   -6.7000    0.0000 C   0  0  0  0  0  0  0  0  0  0  0  0
    6.8542   -2.9875    0.0000 O   0  0  0  0  0  0  0  0  0  0  0  0
    2.3292   -5.8542    0.0000 O   0  0  0  0  0  0  0  0  0  0  0  0
    4.1292   -3.9917    0.0000 C   0  0  0  0  0  0  0  0  0  0  0  0
    5.9667   -3.0500    0.0000 C   0  0  0  0  0  0  0  0  0  0  0  0
    5.3625   -4.1417    0.0000 H   0  0  0  0  0  0  0  0  0  0  0  0
    4.7417   -5.2125    0.0000 H   0  0  0  0  0  0  0  0  0  0  0  0
    5.9667   -5.1667    0.0000 H   0  0  0  0  0  0  0  0  0  0  0  0
  2  1  1  0
  3  5  1  0
  4 12  1  0
  5  1  1  0
  6  2  1  0
  7  3  1  0
  8  1  1  0
  9  3  1  0
 10  2  2  0
 11  4  1  0
 12 13  1  0
 13  5  1  0
 14  7  1  0
 15  8  2  0
 16 15  1  0
 17 14  1  0
 18  6  2  0
 19 11  2  0
 20 16  2  0
  1 21  1  1
  4 22  1  1
  3 23  1  1
  5 24  1  6
  7 25  1  6
 16 10  1  0
  9  6  1  0
  4  7  1  0
 17 11  1  0
M  END
> <chembl_id>
CHEMBL1200374

> <chembl_pref_name>
EXEMESTANE
