
     RDKit          2D

 35 36  0  0  0  0  0  0  0  0999 V2000
    8.2167   -7.5875    0.0000 Ca  0  0  0  0  0 15  0  0  0  0  0  0
    0.4625   -5.2750    0.0000 C   0  0  0  0  0  0  0  0  0  0  0  0
    0.4625   -4.5917    0.0000 C   0  0  0  0  0  0  0  0  0  0  0  0
   -0.7208   -5.2417    0.0000 N   0  0  0  0  0  0  0  0  0  0  0  0
   -0.1333   -5.5875    0.0000 C   0  0  0  0  0  0  0  0  0  0  0  0
   -0.1250   -4.2417    0.0000 N   0  0  0  0  0  0  0  0  0  0  0  0
    1.0500   -5.6042    0.0000 N   0  0  0  0  0  0  0  0  0  0  0  0
   -0.7208   -4.5917    0.0000 C   0  0  0  0  0  0  0  0  0  0  0  0
    1.0500   -4.2542    0.0000 N   0  0  0  0  0  0  0  0  0  0  0  0
    5.1542   -6.6667    0.0000 C   0  0  0  0  0  0  0  0  0  0  0  0
    5.7750   -6.3208    0.0000 N   0  0  0  0  0  0  0  0  0  0  0  0
    1.6417   -5.2792    0.0000 C   0  0  0  0  0  0  0  0  0  0  0  0
    6.3750   -7.3917    0.0000 C   0  0  0  0  0  0  0  0  0  0  0  0
    1.0417   -6.2792    0.0000 C   0  0  0  0  0  0  0  0  0  0  0  0
    6.3833   -6.6833    0.0000 C   0  0  0  0  0  0  0  0  0  0  0  0
    8.2167   -6.3417    0.0000 C   0  0  0  0  0  0  0  0  0  0  0  0
   -0.1333   -6.2917    0.0000 O   0  0  0  0  0  0  0  0  0  0  0  0
    4.5542   -6.3167    0.0000 C   0  0  0  0  0  0  0  0  0  0  0  0
    1.6417   -4.6000    0.0000 C   0  0  0  0  0  0  0  0  0  0  0  0
    6.9833   -7.7542    0.0000 O   0  0  0  0  0  0  0  0  0  0  0  0
    5.1417   -7.3292    0.0000 O   0  0  0  0  0  0  0  0  0  0  0  0
    2.2292   -5.6292    0.0000 C   0  0  0  0  0  0  0  0  0  0  0  0
    2.8167   -5.2917    0.0000 N   0  0  0  0  0  0  0  0  0  0  0  0
    8.8375   -6.6875    0.0000 O   0  0  0  0  0  0  0  0  0  0  0  0
    5.7542   -7.7375    0.0000 O   0  0  0  0  0  0  0  0  0  0  0  0
   -1.3125   -4.2375    0.0000 N   0  0  0  0  0  0  0  0  0  0  0  0
    1.6292   -6.6375    0.0000 O   0  0  0  0  0  0  0  0  0  0  0  0
    8.2125   -5.6333    0.0000 O   0  0  0  0  0  0  0  0  0  0  0  0
    7.0000   -6.3375    0.0000 C   0  0  0  0  0  0  0  0  0  0  0  0
    4.5625   -5.6417    0.0000 C   0  0  0  0  0  0  0  0  0  0  0  0
    3.9667   -6.6500    0.0000 C   0  0  0  0  0  0  0  0  0  0  0  0
    3.3792   -5.6292    0.0000 C   0  0  0  0  0  0  0  0  0  0  0  0
    7.6083   -6.7000    0.0000 C   0  0  0  0  0  0  0  0  0  0  0  0
    3.9792   -5.2917    0.0000 C   0  0  0  0  0  0  0  0  0  0  0  0
    3.3875   -6.3042    0.0000 C   0  0  0  0  0  0  0  0  0  0  0  0
  3  2  2  0
  4  5  1  0
  5  2  1  0
  6  3  1  0
  7  2  1  0
  8  4  2  0
  9  3  1  0
 10 18  1  0
 11 10  1  0
 12  7  1  0
 15 13  1  0
 14  7  1  0
 15 11  1  1
 16 33  1  0
 17  5  2  0
 18 31  2  0
 19 12  1  0
 20 13  1  0
 21 10  2  0
 22 12  1  0
 23 22  1  0
 24 16  1  0
 25 13  2  0
 26  8  1  0
 27 14  2  0
 28 16  2  0
 29 15  1  0
 30 34  2  0
 31 35  1  0
 32 23  1  0
 33 29  1  0
 34 32  1  0
 35 32  2  0
  8  6  1  0
 19  9  1  0
 18 30  1  0
M  CHG  3   1   2  20  -1  24  -1
M  END
> <chembl_id>
CHEMBL1201138

> <chembl_pref_name>
LEUCOVORIN CALCIUM
