
     RDKit          2D

 23 23  0  0  0  0  0  0  0  0999 V2000
    4.5667   -2.2417    0.0000 Cl  0  0  0  0  0  0  0  0  0  0  0  0
    0.0042   -2.9417    0.0000 C   0  0  0  0  0  0  0  0  0  0  0  0
    0.6042   -2.5875    0.0000 C   0  0  0  0  0  0  0  0  0  0  0  0
    2.4792   -1.5292    0.0000 O   0  0  0  0  0  0  0  0  0  0  0  0
    2.4792   -0.8167    0.0000 C   0  0  0  0  0  0  0  0  0  0  0  0
   -0.6208   -2.6000    0.0000 F   0  0  0  0  0  0  0  0  0  0  0  0
    0.3542   -3.5542    0.0000 F   0  0  0  0  0  0  0  0  0  0  0  0
   -0.3583   -3.5542    0.0000 F   0  0  0  0  0  0  0  0  0  0  0  0
    1.8542   -0.4750    0.0000 C   0  0  0  0  0  0  0  0  0  0  0  0
    0.6042   -1.8792    0.0000 C   0  0  0  0  0  0  0  0  0  0  0  0
    1.2125   -2.9375    0.0000 C   0  0  0  0  0  0  0  0  0  0  0  0
    1.8542   -1.8792    0.0000 C   0  0  0  0  0  0  0  0  0  0  0  0
    3.1042   -0.4625    0.0000 C   0  0  0  0  0  0  0  0  0  0  0  0
    1.2125   -1.5292    0.0000 C   0  0  0  0  0  0  0  0  0  0  0  0
    1.8542   -2.5875    0.0000 C   0  0  0  0  0  0  0  0  0  0  0  0
    4.3292   -0.4750    0.0000 N   0  0  0  0  0  0  0  0  0  0  0  0
    3.7125   -0.8167    0.0000 C   0  0  0  0  0  0  0  0  0  0  0  0
    1.2625   -0.8417    0.0000 C   0  0  0  0  0  0  0  0  0  0  0  0
    1.8500    0.2458    0.0000 C   0  0  0  0  0  0  0  0  0  0  0  0
    4.9542   -0.7667    0.0000 C   0  0  0  0  0  0  0  0  0  0  0  0
    1.2250    0.5833    0.0000 C   0  0  0  0  0  0  0  0  0  0  0  0
    0.6042   -0.5125    0.0000 C   0  0  0  0  0  0  0  0  0  0  0  0
    0.6042    0.2250    0.0000 C   0  0  0  0  0  0  0  0  0  0  0  0
  3  2  1  0
  4 12  1  0
  5  4  1  0
  6  2  1  0
  7  2  1  0
  8  2  1  0
  9  5  1  0
 10  3  1  0
 11  3  2  0
 12 15  2  0
 13  5  1  0
 14 10  2  0
 15 11  1  0
 16 17  1  0
 17 13  1  0
 18  9  2  0
 19  9  1  0
 20 16  1  0
 21 19  2  0
 22 18  1  0
 23 22  2  0
 14 12  1  0
 21 23  1  0
M  END
> <chembl_id>
CHEMBL1201082

> <chembl_pref_name>
FLUOXETINE HYDROCHLORIDE
