
     RDKit          2D

 27 30  0  0  0  0  0  0  0  0999 V2000
   -7.3831    1.2535    0.0000 C   0  0  0  0  0  0  0  0  0  0  0  0
   -8.0975    0.8410    0.0000 C   0  0  0  0  0  0  0  0  0  0  0  0
   -8.0975    0.0160    0.0000 C   0  0  0  0  0  0  0  0  0  0  0  0
   -7.3830   -0.3964    0.0000 C   0  0  0  0  0  0  0  0  0  0  0  0
   -6.6686    0.0160    0.0000 C   0  0  0  0  0  0  0  0  0  0  0  0
   -6.6686    0.8410    0.0000 C   0  0  0  0  0  0  0  0  0  0  0  0
   -5.9541    1.2536    0.0000 C   0  0  0  0  0  0  0  0  0  0  0  0
   -5.9541   -0.3963    0.0000 C   0  0  0  0  0  0  0  0  0  0  0  0
   -5.2396    0.0161    0.0000 C   0  0  0  0  0  0  0  0  0  0  0  0
   -5.2396    0.8411    0.0000 C   0  0  0  0  0  0  0  0  0  0  0  0
   -5.2397    2.4911    0.0000 C   0  0  0  0  0  0  0  0  0  0  0  0
   -5.9541    2.0786    0.0000 C   0  0  0  0  0  0  0  0  0  0  0  0
   -4.5252    1.2536    0.0000 C   0  0  0  0  0  0  0  0  0  0  0  0
   -4.5252    2.0786    0.0000 C   0  0  0  0  0  0  0  0  0  0  0  0
   -3.7406    2.3335    0.0000 C   0  0  0  0  0  0  0  0  0  0  0  0
   -3.2556    1.6661    0.0000 C   0  0  0  0  0  0  0  0  0  0  0  0
   -3.7406    0.9986    0.0000 C   0  0  0  0  0  0  0  0  0  0  0  0
   -8.8120   -0.3964    0.0000 O   0  0  0  0  0  0  0  0  0  0  0  0
   -6.6554   -0.8960    0.0000 H   0  0  0  0  0  0  0  0  0  0  0  0
   -6.6686    1.6660    0.0000 C   0  0  0  0  0  0  0  0  0  0  0  0
   -5.2265    1.7922    0.0000 H   0  0  0  0  0  0  0  0  0  0  0  0
   -4.4811    0.4138    0.0000 H   0  0  0  0  0  0  0  0  0  0  0  0
   -4.4390    2.8991    0.0000 C   0  0  0  0  0  0  0  0  0  0  0  0
   -3.4856    3.1181    0.0000 C   0  0  0  0  0  0  0  0  0  0  0  0
   -5.9410    0.4972    0.0000 H   0  0  0  0  0  0  0  0  0  0  0  0
   -2.6787    3.2897    0.0000 O   0  0  0  0  0  0  0  0  0  0  0  0
   -4.0377    3.7312    0.0000 C   0  0  0  0  0  0  0  0  0  0  0  0
  1  2  1  0
  2  3  1  0
  3  4  1  0
  4  5  1  0
  5  6  1  0
  1  6  1  0
  8  9  1  0
  9 10  1  0
  7 10  1  0
  5  8  1  0
  7  6  1  0
 11 12  1  0
 13 14  1  0
 11 14  1  0
 12  7  1  0
 10 13  1  0
 15 16  1  0
 16 17  1  0
 15 14  1  0
 17 13  1  0
  3 18  1  6
  5 19  1  6
  6 20  1  1
 10 21  1  1
 13 22  1  6
 14 23  1  1
 15 24  1  1
  7 25  1  6
 24 26  2  0
 24 27  1  0
M  END
> <chembl_id>
CHEMBL207538

> <chembl_pref_name>
BREXANOLONE
