
     RDKit          2D

 32 33  0  0  0  0  0  0  0  0999 V2000
    0.6745   -9.1032    0.0000 C   0  0  0  0  0  0  0  0  0  0  0  0
    2.0962   -9.1128    0.0000 C   0  0  0  0  0  0  0  0  0  0  0  0
    1.3684  -10.3502    0.0000 C   0  0  0  0  0  0  0  0  0  0  0  0
    2.0866   -9.9426    0.0000 C   0  0  0  0  0  0  0  0  0  0  0  0
   -0.4367   -7.1476    0.0000 C   0  0  0  0  0  0  0  0  0  0  0  0
   -0.0388   -8.6810    0.0000 C   0  0  0  0  0  0  0  0  0  0  0  0
    1.3878   -8.6956    0.0000 C   0  0  0  0  0  0  0  0  0  0  0  0
    0.6600   -9.9280    0.0000 C   0  0  0  0  0  0  0  0  0  0  0  0
   -0.0242   -7.8609    0.0000 N   0  0  0  0  0  0  0  0  0  0  0  0
   -1.2616   -7.1476    0.0000 C   0  0  0  0  0  0  0  0  0  0  0  0
   -0.0291   -6.4343    0.0000 C   0  0  0  0  0  0  0  0  0  0  0  0
   -0.4367   -5.7210    0.0000 O   0  0  0  0  0  0  0  0  0  0  0  0
    2.8144   -8.7101    0.0000 N   0  0  0  0  0  0  0  0  0  0  0  0
   -1.6790   -6.4343    0.0000 C   0  0  0  0  0  0  0  0  0  0  0  0
   -1.2616   -5.7210    0.0000 C   0  0  0  0  0  0  0  0  0  0  0  0
    1.3587  -11.1703    0.0000 N   0  0  0  0  0  0  0  0  0  0  0  0
    3.5229   -9.1274    0.0000 C   0  0  0  0  0  0  0  0  0  0  0  0
    0.6405  -11.5779    0.0000 C   0  0  0  0  0  0  0  0  0  0  0  0
   -0.7570   -9.0886    0.0000 O   0  0  0  0  0  0  0  0  0  0  0  0
    2.7999  -10.3648    0.0000 I   0  0  0  0  0  0  0  0  0  0  0  0
    3.5180   -9.9523    0.0000 O   0  0  0  0  0  0  0  0  0  0  0  0
    1.3926   -7.8706    0.0000 I   0  0  0  0  0  0  0  0  0  0  0  0
   -0.0582  -10.3308    0.0000 I   0  0  0  0  0  0  0  0  0  0  0  0
    0.6309  -12.4028    0.0000 O   0  0  0  0  0  0  0  0  0  0  0  0
   -1.6741   -7.8609    0.0000 O   0  0  0  0  0  0  0  0  0  0  0  0
   -2.5038   -6.4343    0.0000 O   0  0  0  0  0  0  0  0  0  0  0  0
    0.7958   -6.4343    0.0000 O   0  0  0  0  0  0  0  0  0  0  0  0
   -1.6741   -5.0028    0.0000 C   0  0  0  0  0  0  0  0  0  0  0  0
    2.8192   -7.8851    0.0000 C   0  0  0  0  0  0  0  0  0  0  0  0
   -2.4990   -5.0028    0.0000 O   0  0  0  0  0  0  0  0  0  0  0  0
    4.2410   -8.7198    0.0000 C   0  0  0  0  0  0  0  0  0  0  0  0
   -0.0728  -11.1557    0.0000 C   0  0  0  0  0  0  0  0  0  0  0  0
  2  7  2  0
  3  8  1  0
  4  2  1  0
  5  9  1  6
  6  1  1  0
  7  1  1  0
  8  1  2  0
  9  6  1  0
 10  5  1  0
 11  5  1  0
 12 11  1  0
 13  2  1  0
 14 10  1  0
 15 14  1  0
 16  3  1  0
 17 13  1  0
 18 16  1  0
 19  6  2  0
 20  4  1  0
 21 17  2  0
 22  7  1  0
 23  8  1  0
 24 18  2  0
 10 25  1  1
 14 26  1  6
 11 27  1  0
 15 28  1  1
 29 13  1  0
 30 28  1  0
 31 17  1  0
 32 18  1  0
  4  3  2  0
 15 12  1  0
M  END
> <chembl_id>
CHEMBL462394

> <chembl_pref_name>
METRIZAMIDE
