
     RDKit          2D

 22 24  0  0  0  0  0  0  0  0999 V2000
    5.6667   -4.8167    0.0000 C   0  0  0  0  0  0  0  0  0  0  0  0
    5.6667   -5.5250    0.0000 C   0  0  0  0  0  0  0  0  0  0  0  0
    6.2792   -5.8917    0.0000 N   0  0  0  0  0  0  0  0  0  0  0  0
    5.0542   -4.4667    0.0000 C   0  0  0  0  0  0  0  0  0  0  0  0
    4.4417   -4.8167    0.0000 C   0  0  0  0  0  0  0  0  0  0  0  0
    6.8917   -4.8167    0.0000 C   0  0  0  0  0  0  0  0  0  0  0  0
    6.8917   -5.5250    0.0000 C   0  0  0  0  0  0  0  0  0  0  0  0
    5.0542   -5.8917    0.0000 O   0  0  0  0  0  0  0  0  0  0  0  0
    6.2792   -4.4667    0.0000 C   0  0  0  0  0  0  0  0  0  0  0  0
    4.4417   -5.5250    0.0000 C   0  0  0  0  0  0  0  0  0  0  0  0
    3.8292   -4.4667    0.0000 C   0  0  0  0  0  0  0  0  0  0  0  0
    7.5042   -4.4667    0.0000 C   0  0  0  0  0  0  0  0  0  0  0  0
    3.2167   -4.8167    0.0000 C   0  0  0  0  0  0  0  0  0  0  0  0
    5.0542   -3.7542    0.0000 O   0  0  0  0  0  0  0  0  0  0  0  0
    3.8292   -5.8917    0.0000 C   0  0  0  0  0  0  0  0  0  0  0  0
    7.5125   -3.7542    0.0000 O   0  0  0  0  0  0  0  0  0  0  0  0
    3.2167   -5.5250    0.0000 C   0  0  0  0  0  0  0  0  0  0  0  0
    7.5042   -5.8917    0.0000 N   0  0  0  0  0  0  0  0  0  0  0  0
    8.1542   -4.8167    0.0000 O   0  0  0  0  0  0  0  0  0  0  0  0
    2.6042   -4.4667    0.0000 C   0  0  0  0  0  0  0  0  0  0  0  0
    2.6042   -3.7542    0.0000 C   0  0  0  0  0  0  0  0  0  0  0  0
    1.9917   -4.8000    0.0000 C   0  0  0  0  0  0  0  0  0  0  0  0
  2  1  1  0
  3  2  2  0
  4  1  1  0
  5  4  1  0
  6  9  1  0
  7  6  2  0
  8  2  1  0
  9  1  2  0
 10  5  2  0
 11  5  1  0
 12  6  1  0
 13 11  2  0
 14  4  2  0
 15 10  1  0
 16 12  2  0
 17 13  1  0
 18  7  1  0
 19 12  1  0
 20 13  1  0
 21 20  1  0
 22 20  1  0
  7  3  1  0
 10  8  1  0
 17 15  2  0
M  END
> <chembl_id>
CHEMBL1096

> <chembl_pref_name>
AMLEXANOX
