
     RDKit          2D

 26 27  0  0  0  0  0  0  0  0999 V2000
  -16.3232  -13.5884    0.0000 O   0  0  0  0  0  0  0  0  0  0  0  0
  -16.9906  -14.0733    0.0000 C   0  0  0  0  0  0  0  0  0  0  0  0
  -16.7357  -14.8579    0.0000 C   0  0  0  0  0  0  0  0  0  0  0  0
  -15.9107  -14.8579    0.0000 C   0  0  0  0  0  0  0  0  0  0  0  0
  -15.6558  -14.0733    0.0000 C   0  0  0  0  0  0  0  0  0  0  0  0
  -17.7753  -13.8184    0.0000 C   0  0  0  0  0  0  0  0  0  0  0  0
  -14.8712  -13.8184    0.0000 N   0  0  0  0  0  0  0  0  0  0  0  0
  -15.3273  -15.4413    0.0000 O   0  0  0  0  0  0  0  0  0  0  0  0
  -17.2206  -15.5254    0.0000 O   0  0  0  0  0  0  0  0  0  0  0  0
  -18.0456  -15.5254    0.0000 C   0  0  0  0  0  0  0  0  0  0  0  0
  -18.4581  -16.2398    0.0000 C   0  0  0  0  0  0  0  0  0  0  0  0
  -18.4581  -14.8109    0.0000 O   0  0  0  0  0  0  0  0  0  0  0  0
  -14.5023  -15.4413    0.0000 C   0  0  0  0  0  0  0  0  0  0  0  0
  -14.0898  -16.1557    0.0000 C   0  0  0  0  0  0  0  0  0  0  0  0
  -14.0898  -14.7268    0.0000 O   0  0  0  0  0  0  0  0  0  0  0  0
  -18.4897  -14.2309    0.0000 O   0  0  0  0  0  0  0  0  0  0  0  0
  -19.2042  -13.8184    0.0000 C   0  0  0  0  0  0  0  0  0  0  0  0
  -19.9187  -14.2309    0.0000 C   0  0  0  0  0  0  0  0  0  0  0  0
  -19.2042  -12.9934    0.0000 O   0  0  0  0  0  0  0  0  0  0  0  0
  -14.2581  -14.3704    0.0000 C   0  0  0  0  0  0  0  0  0  0  0  0
  -13.4734  -14.1155    0.0000 C   0  0  0  0  0  0  0  0  0  0  0  0
  -13.3019  -13.3085    0.0000 C   0  0  0  0  0  0  0  0  0  0  0  0
  -13.9150  -12.7565    0.0000 N   0  0  0  0  0  0  0  0  0  0  0  0
  -14.6996  -13.0114    0.0000 C   0  0  0  0  0  0  0  0  0  0  0  0
  -12.5173  -13.0536    0.0000 O   0  0  0  0  0  0  0  0  0  0  0  0
  -15.3127  -12.4594    0.0000 O   0  0  0  0  0  0  0  0  0  0  0  0
  1  2  1  0
  1  5  1  0
  2  3  1  0
  3  4  1  0
  4  5  1  0
  2  6  1  1
  5  7  1  1
  4  8  1  6
  3  9  1  6
  9 10  1  0
 10 11  1  0
 10 12  2  0
  8 13  1  0
 13 14  1  0
 13 15  2  0
  6 16  1  0
 16 17  1  0
 17 18  1  0
 17 19  2  0
  7 20  1  0
 24  7  1  0
 20 21  2  0
 21 22  1  0
 22 23  1  0
 23 24  1  0
 22 25  2  0
 24 26  2  0
M  END
> <chembl_id>
CHEMBL2107381

> <chembl_pref_name>
URIDINE TRIACETATE
