
     RDKit          2D

 27 24  0  0  0  0  0  0  0  0999 V2000
    4.3667   -4.6542    0.0000 Mg  0  0  0  0  0 15  0  0  0  0  0  0
    2.1875   -5.3250    0.0000 C   0  0  0  0  0  0  0  0  0  0  0  0
    1.5750   -4.9792    0.0000 C   0  0  0  0  0  0  0  0  0  0  0  0
    0.9792   -5.3375    0.0000 C   0  0  0  0  0  0  0  0  0  0  0  0
    2.7917   -4.9542    0.0000 C   0  0  0  0  0  0  0  0  0  0  0  0
    0.3750   -5.0000    0.0000 C   0  0  0  0  0  0  0  0  0  0  0  0
    3.3875   -5.3167    0.0000 O   0  0  0  0  0  0  0  0  0  0  0  0
    2.7917   -4.2542    0.0000 O   0  0  0  0  0  0  0  0  0  0  0  0
    2.1875   -6.0042    0.0000 O   0  0  0  0  0  0  0  0  0  0  0  0
    1.5750   -4.2792    0.0000 O   0  0  0  0  0  0  0  0  0  0  0  0
    0.9792   -6.0292    0.0000 O   0  0  0  0  0  0  0  0  0  0  0  0
    0.3667   -4.2917    0.0000 O   0  0  0  0  0  0  0  0  0  0  0  0
   -0.2125   -6.0375    0.0000 O   0  0  0  0  0  0  0  0  0  0  0  0
   -0.2208   -5.3542    0.0000 C   0  0  0  0  0  0  0  0  0  0  0  0
    6.2042   -5.2917    0.0000 C   0  0  0  0  0  0  0  0  0  0  0  0
    6.7917   -5.6417    0.0000 C   0  0  0  0  0  0  0  0  0  0  0  0
    7.4042   -5.3167    0.0000 C   0  0  0  0  0  0  0  0  0  0  0  0
    5.5917   -5.6417    0.0000 C   0  0  0  0  0  0  0  0  0  0  0  0
    8.0042   -5.6417    0.0000 C   0  0  0  0  0  0  0  0  0  0  0  0
    4.9792   -5.2875    0.0000 O   0  0  0  0  0  0  0  0  0  0  0  0
    5.5917   -6.3375    0.0000 O   0  0  0  0  0  0  0  0  0  0  0  0
    6.2042   -4.5917    0.0000 O   0  0  0  0  0  0  0  0  0  0  0  0
    6.7917   -6.3417    0.0000 O   0  0  0  0  0  0  0  0  0  0  0  0
    7.4125   -4.6042    0.0000 O   0  0  0  0  0  0  0  0  0  0  0  0
    8.0042   -6.3542    0.0000 O   0  0  0  0  0  0  0  0  0  0  0  0
    9.2375   -5.6667    0.0000 O   0  0  0  0  0  0  0  0  0  0  0  0
    8.6125   -5.3167    0.0000 C   0  0  0  0  0  0  0  0  0  0  0  0
  3  2  1  0
  4  3  1  0
  5  2  1  0
  6  4  1  0
  7  5  1  0
  8  5  2  0
  2  9  1  6
  3 10  1  6
  4 11  1  6
  6 12  1  1
 13 14  1  0
 14  6  1  0
 16 15  1  0
 17 16  1  0
 18 15  1  0
 19 17  1  0
 20 18  1  0
 21 18  2  0
 15 22  1  6
 16 23  1  6
 17 24  1  6
 19 25  1  1
 26 27  1  0
 27 19  1  0
M  CHG  3   1   2   7  -1  20  -1
M  END
> <chembl_id>
CHEMBL2107145

> <chembl_pref_name>
MAGNESIUM GLUCONATE
