
     RDKit          2D

 21 22  0  0  0  0  0  0  0  0999 V2000
    7.6167   -7.2792    0.0000 Cl  0  0  0  0  0  0  0  0  0  0  0  0
    6.7375   -5.7542    0.0000 N   0  0  0  0  0  0  0  0  0  0  0  0
    6.7542   -4.3292    0.0000 S   0  0  0  0  0  0  0  0  0  0  0  0
    7.3542   -5.4042    0.0000 C   0  0  0  0  0  0  0  0  0  0  0  0
    6.1292   -5.3917    0.0000 C   0  0  0  0  0  0  0  0  0  0  0  0
    6.7250   -6.4667    0.0000 C   0  0  0  0  0  0  0  0  0  0  0  0
    7.3667   -4.6917    0.0000 C   0  0  0  0  0  0  0  0  0  0  0  0
    6.1417   -4.6875    0.0000 C   0  0  0  0  0  0  0  0  0  0  0  0
    6.1125   -6.8042    0.0000 C   0  0  0  0  0  0  0  0  0  0  0  0
    6.1042   -7.5167    0.0000 N   0  0  0  0  0  0  0  0  0  0  0  0
    5.5167   -5.7375    0.0000 C   0  0  0  0  0  0  0  0  0  0  0  0
    7.9667   -5.7667    0.0000 C   0  0  0  0  0  0  0  0  0  0  0  0
    5.5250   -4.3208    0.0000 C   0  0  0  0  0  0  0  0  0  0  0  0
    7.9750   -4.3417    0.0000 C   0  0  0  0  0  0  0  0  0  0  0  0
    5.4917   -7.8625    0.0000 C   0  0  0  0  0  0  0  0  0  0  0  0
    6.7167   -7.8792    0.0000 C   0  0  0  0  0  0  0  0  0  0  0  0
    5.5125   -6.4500    0.0000 C   0  0  0  0  0  0  0  0  0  0  0  0
    8.5875   -5.4167    0.0000 C   0  0  0  0  0  0  0  0  0  0  0  0
    4.9042   -5.3750    0.0000 C   0  0  0  0  0  0  0  0  0  0  0  0
    8.5917   -4.7000    0.0000 C   0  0  0  0  0  0  0  0  0  0  0  0
    4.9042   -4.6750    0.0000 C   0  0  0  0  0  0  0  0  0  0  0  0
  3  8  1  0
  4  2  1  0
  5  2  1  0
  6  2  1  0
  7  4  2  0
  8  5  1  0
  9  6  1  0
 10  9  1  0
 11  5  2  0
 12  4  1  0
 13  8  2  0
 14  7  1  0
 15 10  1  0
 16 10  1  0
 17  9  1  0
 18 12  2  0
 19 11  1  0
 20 18  1  0
 21 19  2  0
  3  7  1  0
 21 13  1  0
 20 14  2  0
M  END
> <chembl_id>
CHEMBL1200750

> <chembl_pref_name>
PROMETHAZINE HYDROCHLORIDE
