
     RDKit          2D

 28 30  0  0  0  0  0  0  0  0999 V2000
    1.3554   -4.9500    0.0000 Cl  0  0  0  0  0  0  0  0  0  0  0  0
   -1.1786   -1.2080    0.0000 N   0  0  0  0  0  0  0  0  0  0  0  0
   -1.8930   -1.6205    0.0000 C   0  0  0  0  0  0  0  0  0  0  0  0
   -1.3097   -2.2039    0.0000 C   0  0  0  0  0  0  0  0  0  0  0  0
   -0.5952   -1.7914    0.0000 C   0  0  0  0  0  0  0  0  0  0  0  0
    0.2017   -2.0049    0.0000 C   0  0  0  0  0  0  0  0  0  0  0  0
   -0.2108   -1.2905    0.0000 C   0  0  0  0  0  0  0  0  0  0  0  0
   -1.1786   -0.3830    0.0000 C   0  0  0  0  0  0  0  0  0  0  0  0
   -0.3536   -0.3830    0.0000 C   0  0  0  0  0  0  0  0  0  0  0  0
   -2.6075   -2.0330    0.0000 C   0  0  0  0  0  0  0  0  0  0  0  0
   -2.6075   -2.8580    0.0000 C   0  0  0  0  0  0  0  0  0  0  0  0
   -3.3220   -3.2705    0.0000 C   0  0  0  0  0  0  0  0  0  0  0  0
   -3.3220   -4.0956    0.0000 C   0  0  0  0  0  0  0  0  0  0  0  0
   -2.6075   -4.5081    0.0000 N   0  0  0  0  0  0  0  0  0  0  0  0
   -1.8930   -4.0956    0.0000 C   0  0  0  0  0  0  0  0  0  0  0  0
   -1.8930   -3.2705    0.0000 C   0  0  0  0  0  0  0  0  0  0  0  0
   -4.0365   -2.8580    0.0000 C   0  0  0  0  0  0  0  0  0  0  0  0
   -4.7509   -3.2705    0.0000 C   0  0  0  0  0  0  0  0  0  0  0  0
   -4.7509   -4.0955    0.0000 C   0  0  0  0  0  0  0  0  0  0  0  0
   -4.0365   -4.5080    0.0000 C   0  0  0  0  0  0  0  0  0  0  0  0
   -2.3055   -0.9061    0.0000 H   0  0  0  0  0  0  0  0  0  0  0  0
   -3.0200   -1.3186    0.0000 H   0  0  0  0  0  0  0  0  0  0  0  0
   -3.4044   -2.2466    0.0000 O   0  0  0  0  0  0  0  0  0  0  0  0
   -5.4654   -2.8580    0.0000 O   0  0  0  0  0  0  0  0  0  0  0  0
   -6.1799   -3.2705    0.0000 C   0  0  0  0  0  0  0  0  0  0  0  0
    0.9162   -1.5924    0.0000 H   0  0  0  0  0  0  0  0  0  0  0  0
    0.2017   -2.8299    0.0000 C   0  0  0  0  0  0  0  0  0  0  0  0
    0.9162   -3.2424    0.0000 C   0  0  0  0  0  0  0  0  0  0  0  0
  2  3  1  0
  3  4  1  0
  4  5  1  0
  5  6  1  0
  6  7  1  0
  7  2  1  0
  2  8  1  0
  8  9  1  0
  5  9  1  6
  3 10  1  0
 10 11  1  0
 11 12  1  0
 16 11  2  0
 13 14  1  0
 14 15  2  0
 15 16  1  0
 12 17  2  0
 13 12  1  0
 20 13  2  0
 17 18  1  0
 18 19  2  0
 19 20  1  0
  3 21  1  6
 10 22  1  6
 10 23  1  0
 18 24  1  0
 24 25  1  0
  6 26  1  1
  6 27  1  0
 27 28  2  0
M  END
> <chembl_id>
CHEMBL588046

> <chembl_pref_name>
QUININE HYDROCHLORIDE
