
     RDKit          2D

 31 31  0  0  0  0  0  0  0  0999 V2000
   -3.0974   -6.6234    0.0000 O   0  0  0  0  0  0  0  0  0  0  0  0
   -2.0260   -6.6039    0.0000 O   0  0  0  0  0  0  0  0  0  0  0  0
   -6.4904   -4.9455    0.0000 N   0  0  0  0  0  0  0  0  0  0  0  0
   -5.7759   -4.5330    0.0000 C   0  0  0  0  0  0  0  0  0  0  0  0
   -5.7759   -3.7080    0.0000 N   0  0  0  0  0  0  0  0  0  0  0  0
   -5.0615   -4.9455    0.0000 N   0  0  0  0  0  0  0  0  0  0  0  0
   -4.3470   -4.5330    0.0000 C   0  0  0  0  0  0  0  0  0  0  0  0
   -4.3470   -3.7080    0.0000 C   0  0  0  0  0  0  0  0  0  0  0  0
   -5.0615   -3.2955    0.0000 C   0  0  0  0  0  0  0  0  0  0  0  0
   -3.6325   -4.9455    0.0000 N   0  0  0  0  0  0  0  0  0  0  0  0
   -2.9180   -4.5330    0.0000 C   0  0  0  0  0  0  0  0  0  0  0  0
   -2.9180   -3.7080    0.0000 C   0  0  0  0  0  0  0  0  0  0  0  0
   -3.6325   -3.2955    0.0000 N   0  0  0  0  0  0  0  0  0  0  0  0
   -5.0615   -2.4705    0.0000 O   0  0  0  0  0  0  0  0  0  0  0  0
   -2.2036   -3.2955    0.0000 C   0  0  0  0  0  0  0  0  0  0  0  0
   -2.2036   -4.9455    0.0000 O   0  0  0  0  0  0  0  0  0  0  0  0
   -1.4891   -4.5330    0.0000 C   0  0  0  0  0  0  0  0  0  0  0  0
   -1.4891   -3.7080    0.0000 C   0  0  0  0  0  0  0  0  0  0  0  0
   -0.7746   -3.2955    0.0000 O   0  0  0  0  0  0  0  0  0  0  0  0
   -0.7746   -4.9455    0.0000 C   0  0  0  0  0  0  0  0  0  0  0  0
   -0.0602   -4.5330    0.0000 O   0  0  0  0  0  0  0  0  0  0  0  0
   -0.0602   -3.7080    0.0000 P   0  0  0  0  0  0  0  0  0  0  0  0
   -1.8163   -2.5670    0.0000 O   0  0  0  0  0  0  0  0  0  0  0  0
   -2.5909   -2.5670    0.0000 O   0  0  0  0  0  0  0  0  0  0  0  0
    0.7643   -3.6792    0.0000 O   0  0  0  0  0  0  0  0  0  0  0  0
    0.3770   -3.0083    0.0000 O   0  0  0  0  0  0  0  0  0  0  0  0
   -2.9180   -5.3580    0.0000 H   0  0  0  0  0  0  0  0  0  0  0  0
   -2.2036   -4.1205    0.0000 H   0  0  0  0  0  0  0  0  0  0  0  0
   -0.7746   -4.1205    0.0000 H   0  0  0  0  0  0  0  0  0  0  0  0
   -1.4891   -5.3580    0.0000 H   0  0  0  0  0  0  0  0  0  0  0  0
   -4.5195   -6.6039    0.0000 Br  0  0  0  0  0  0  0  0  0  0  0  0
  3  4  1  0
  4  5  2  0
  6  7  1  0
  7  8  2  0
  8  9  1  0
  4  6  1  0
  5  9  1  0
 10 11  1  0
 11 12  1  0
 12 13  1  0
  7 10  1  0
  8 13  1  0
 14  9  2  0
 16 17  1  0
 17 18  1  0
 15 18  1  0
 11 16  1  0
 15 12  1  0
 20 21  1  0
 21 22  1  0
 19 22  1  0
 17 20  1  0
 19 18  1  0
 15 23  1  0
 15 24  1  0
 22 25  2  0
 22 26  1  0
 11 27  1  6
 12 28  1  6
 18 29  1  6
 17 30  1  6
M  END
> <chembl_id>
CHEMBL4594300

> <chembl_pref_name>
FOSDENOPTERIN HYDROBROMIDE
