
     RDKit          2D

 45 47  0  0  0  0  0  0  0  0999 V2000
   12.7875   -3.1527    0.0000 Cl  0  0  0  0  0  0  0  0  0  0  0  0
    4.3021   -2.3551    0.0000 C   0  0  0  0  0  0  0  0  0  0  0  0
    5.0174   -2.7652    0.0000 C   0  0  0  0  0  0  0  0  0  0  0  0
    4.3045   -1.5292    0.0000 C   0  0  0  0  0  0  0  0  0  0  0  0
    3.5766   -1.1133    0.0000 N   0  0  0  0  0  0  0  0  0  0  0  0
    5.0184   -1.1115    0.0000 C   0  0  0  0  0  0  0  0  0  0  0  0
    5.0105   -0.4021    0.0000 O   0  0  0  0  0  0  0  0  0  0  0  0
    5.7328   -1.5242    0.0000 C   0  0  0  0  0  0  0  0  0  0  0  0
    6.4427   -0.2842    0.0000 O   0  0  0  0  0  0  0  0  0  0  0  0
    6.4514   -1.1613    0.0000 C   0  0  0  0  0  0  0  0  0  0  0  0
    7.1411   -1.5251    0.0000 C   0  0  0  0  0  0  0  0  0  0  0  0
    7.8726   -1.1494    0.0000 C   0  0  0  0  0  0  0  0  0  0  0  0
    8.5675   -1.5142    0.0000 C   0  0  0  0  0  0  0  0  0  0  0  0
    9.2851   -0.2842    0.0000 O   0  0  0  0  0  0  0  0  0  0  0  0
    9.2937   -1.1613    0.0000 C   0  0  0  0  0  0  0  0  0  0  0  0
   10.7062   -0.2842    0.0000 O   0  0  0  0  0  0  0  0  0  0  0  0
   10.7405   -1.1357    0.0000 C   0  0  0  0  0  0  0  0  0  0  0  0
   11.5945   -1.5160    0.0000 N   0  0  0  0  0  0  0  0  0  0  0  0
    9.9842   -1.5307    0.0000 C   0  0  0  0  0  0  0  0  0  0  0  0
    9.9963   -2.3504    0.0000 C   0  0  0  0  0  0  0  0  0  0  0  0
   10.8957   -2.7476    0.0000 O   0  0  0  0  0  0  0  0  0  0  0  0
    8.6190   -2.3697    0.0000 C   0  0  0  0  0  0  0  0  0  0  0  0
    9.2895   -2.7656    0.0000 C   0  0  0  0  0  0  0  0  0  0  0  0
    7.8749   -2.7500    0.0000 C   0  0  0  0  0  0  0  0  0  0  0  0
    7.1999   -2.3809    0.0000 C   0  0  0  0  0  0  0  0  0  0  0  0
    7.1533   -3.1740    0.0000 H   0  0  0  0  0  0  0  0  0  0  0  0
    5.7354   -2.3742    0.0000 C   0  0  0  0  0  0  0  0  0  0  0  0
    6.4536   -2.7500    0.0000 C   0  0  0  0  0  0  0  0  0  0  0  0
    5.0215   -3.5766    0.0000 F   0  0  0  0  0  0  0  0  0  0  0  0
    0.1362   -1.7905    0.0000 C   0  0  0  0  0  0  0  0  0  0  0  0
    0.6863   -1.1690    0.0000 C   0  0  0  0  0  0  0  0  0  0  0  0
    1.4212   -1.5160    0.0000 N   0  0  0  0  0  0  0  0  0  0  0  0
    1.3709   -2.3415    0.0000 C   0  0  0  0  0  0  0  0  0  0  0  0
    0.5595   -2.5289    0.0000 C   0  0  0  0  0  0  0  0  0  0  0  0
    2.8841   -1.5088    0.0000 C   0  0  0  0  0  0  0  0  0  0  0  0
    2.8661   -2.3450    0.0000 O   0  0  0  0  0  0  0  0  0  0  0  0
    2.1608   -1.1003    0.0000 C   0  0  0  0  0  0  0  0  0  0  0  0
    9.6878   -3.5766    0.0000 N   0  0  0  0  0  0  0  0  0  0  0  0
    9.6903   -4.5524    0.0000 C   0  0  0  0  0  0  0  0  0  0  0  0
   10.3703   -3.7240    0.0000 C   0  0  0  0  0  0  0  0  0  0  0  0
    8.8824   -3.5766    0.0000 H   0  0  0  0  0  0  0  0  0  0  0  0
    8.6190   -3.1947    0.0000 H   0  0  0  0  0  0  0  0  0  0  0  0
    7.8763   -0.3244    0.0000 O   0  0  0  0  0  0  0  0  0  0  0  0
    8.5675   -0.6892    0.0000 O   0  0  0  0  0  0  0  0  0  0  0  0
   13.2884   -1.9152    0.0000 Cl  0  0  0  0  0  0  0  0  0  0  0  0
  2  3  2  0
  2  4  1  0
  3 29  1  0
  4  6  2  0
  5  4  1  0
  5 35  1  0
  6  7  1  0
  6  8  1  0
  8 27  2  0
  9 10  2  0
 10 11  1  0
 10  8  1  0
 11 12  2  0
 12 13  1  0
 14 15  2  0
 15 19  1  0
 15 13  1  0
 16 17  2  0
 17 18  1  0
 17 19  1  0
 19 20  2  0
 20 21  1  0
 20 23  1  0
 22 23  1  0
 22 13  1  0
 22 24  1  0
 23 41  1  6
 23 38  1  1
 24 25  1  0
 25 26  1  1
 25 11  1  0
 27 28  1  0
 27  3  1  0
 28 25  1  0
 30 31  1  0
 31 32  1  0
 32 33  1  0
 32 37  1  0
 33 34  1  0
 34 30  1  0
 35 36  2  0
 37 35  1  0
 38 39  1  0
 38 40  1  0
 22 42  1  1
 12 43  1  0
 13 44  1  1
M  END
> <chembl_id>
CHEMBL2219414

> <chembl_pref_name>
ERAVACYCLINE DIHYDROCHLORIDE
