
     RDKit          2D

 12 12  0  0  1  0  0  0  0  0999 V2000
    1.6292   -2.2792    0.0000 C   0  0  0  0  0  0  0  0  0  0  0  0
    2.2500   -2.6417    0.0000 C   0  0  0  0  0  0  0  0  0  0  0  0
    1.0292   -2.6417    0.0000 C   0  0  0  0  0  0  0  0  0  0  0  0
    2.2500   -3.3500    0.0000 C   0  0  0  0  0  0  0  0  0  0  0  0
    1.0250   -3.3542    0.0000 C   0  0  0  0  0  0  0  0  0  0  0  0
    1.6292   -3.7042    0.0000 C   0  0  0  0  0  0  0  0  0  0  0  0
    0.4042   -2.3000    0.0000 C   0  0  0  0  0  0  0  0  0  0  0  0
    2.8625   -2.2792    0.0000 O   0  0  0  0  0  0  0  0  0  0  0  0
    2.8667   -3.7042    0.0000 O   0  0  0  0  0  0  0  0  0  0  0  0
   -0.8250   -2.3000    0.0000 N   0  0  0  0  0  0  0  0  0  0  0  0
    0.4042   -1.5792    0.0000 O   0  0  0  0  0  0  0  0  0  0  0  0
   -0.2125   -2.6500    0.0000 C   0  0  0  0  0  0  0  0  0  0  0  0
  2  1  2  0
  3  1  1  0
  4  2  1  0
  5  3  2  0
  6  5  1  0
  7  3  1  0
  8  2  1  0
  9  4  1  0
 10 12  1  0
  7 11  1  6
 12  7  1  0
  6  4  2  0
M  END
> <chembl_id>
CHEMBL1437

> <chembl_pref_name>
NOREPINEPHRINE
