
     RDKit          2D

 26 27  0  0  0  0  0  0  0  0999 V2000
    3.1318    0.9643    0.0000 S   0  0  0  0  0  0  0  0  0  0  0  0
    3.1318    0.1393    0.0000 O   0  0  0  0  0  0  0  0  0  0  0  0
    3.1318    1.7893    0.0000 O   0  0  0  0  0  0  0  0  0  0  0  0
    3.9568    0.9643    0.0000 O   0  0  0  0  0  0  0  0  0  0  0  0
    2.3068    0.9643    0.0000 C   0  0  0  0  0  0  0  0  0  0  0  0
    0.0816   -0.4307    0.0000 C   0  0  0  0  0  0  0  0  0  0  0  0
    0.0816   -1.2557    0.0000 C   0  0  0  0  0  0  0  0  0  0  0  0
   -0.6328   -1.6682    0.0000 C   0  0  0  0  0  0  0  0  0  0  0  0
   -1.3473   -1.2557    0.0000 C   0  0  0  0  0  0  0  0  0  0  0  0
   -0.6328   -0.0182    0.0000 C   0  0  0  0  0  0  0  0  0  0  0  0
   -1.3473   -0.4307    0.0000 C   0  0  0  0  0  0  0  0  0  0  0  0
    0.7266    0.0837    0.0000 C   0  0  0  0  0  0  0  0  0  0  0  0
    0.5431    0.8880    0.0000 C   0  0  0  0  0  0  0  0  0  0  0  0
    1.8889   -0.8432    0.0000 N   0  0  0  0  0  0  0  0  0  0  0  0
   -0.6328   -2.4932    0.0000 Cl  0  0  0  0  0  0  0  0  0  0  0  0
    1.1478    1.4491    0.0000 C   0  0  0  0  0  0  0  0  0  0  0  0
   -0.2453    1.1312    0.0000 C   0  0  0  0  0  0  0  0  0  0  0  0
   -2.0618   -1.6682    0.0000 O   0  0  0  0  0  0  0  0  0  0  0  0
   -2.0618   -0.0182    0.0000 O   0  0  0  0  0  0  0  0  0  0  0  0
    1.5310   -0.0999    0.0000 C   0  0  0  0  0  0  0  0  0  0  0  0
    0.1759    2.4966    0.0000 C   0  0  0  0  0  0  0  0  0  0  0  0
   -0.4289    1.9355    0.0000 C   0  0  0  0  0  0  0  0  0  0  0  0
    0.9643    2.2535    0.0000 C   0  0  0  0  0  0  0  0  0  0  0  0
    0.7266   -1.7701    0.0000 C   0  0  0  0  0  0  0  0  0  0  0  0
   -0.0077    3.3009    0.0000 O   0  0  0  0  0  0  0  0  0  0  0  0
    1.5310   -1.5865    0.0000 C   0  0  0  0  0  0  0  0  0  0  0  0
  2  1  2  0
  3  1  2  0
  4  1  1  0
  5  1  1  0
  7  6  1  0
  8  7  2  0
  9 11  2  0
 10  6  2  0
 11 10  1  0
 12  6  1  0
 13 12  1  0
 14 20  1  0
 15  8  1  0
 16 13  1  0
 17 13  2  0
 18  9  1  0
 19 11  1  0
 20 12  1  0
 21 22  2  0
 22 17  1  0
 23 16  2  0
 24  7  1  0
 25 21  1  0
 26 24  1  0
  8  9  1  0
 26 14  1  0
 23 21  1  0
M  END
> <chembl_id>
CHEMBL1026

> <chembl_pref_name>
FENOLDOPAM MESYLATE
