
     RDKit          2D

 22 25  0  0  0  0  0  0  0  0999 V2000
    0.4547   -1.7625    0.0000 S   0  0  0  0  0  0  0  0  0  0  0  0
    0.4547   -0.1125    0.0000 N   0  0  0  0  0  0  0  0  0  0  0  0
   -0.9743    2.3625    0.0000 N   0  0  0  0  0  0  0  0  0  0  0  0
    1.1691   -0.5250    0.0000 C   0  0  0  0  0  0  0  0  0  0  0  0
   -0.2598   -0.5250    0.0000 C   0  0  0  0  0  0  0  0  0  0  0  0
    1.1691   -1.3500    0.0000 C   0  0  0  0  0  0  0  0  0  0  0  0
   -0.2598   -1.3500    0.0000 C   0  0  0  0  0  0  0  0  0  0  0  0
    0.4547    0.7125    0.0000 C   0  0  0  0  0  0  0  0  0  0  0  0
    1.8836   -0.1125    0.0000 C   0  0  0  0  0  0  0  0  0  0  0  0
   -0.9743   -0.1125    0.0000 C   0  0  0  0  0  0  0  0  0  0  0  0
    1.8836   -1.7625    0.0000 C   0  0  0  0  0  0  0  0  0  0  0  0
   -0.9743   -1.7625    0.0000 C   0  0  0  0  0  0  0  0  0  0  0  0
   -0.2598    1.1250    0.0000 C   0  0  0  0  0  0  0  0  0  0  0  0
    2.5981   -0.5250    0.0000 C   0  0  0  0  0  0  0  0  0  0  0  0
   -1.6887   -0.5250    0.0000 C   0  0  0  0  0  0  0  0  0  0  0  0
    2.5981   -1.3500    0.0000 C   0  0  0  0  0  0  0  0  0  0  0  0
   -1.6887   -1.3500    0.0000 C   0  0  0  0  0  0  0  0  0  0  0  0
   -0.2598    1.9500    0.0000 C   0  0  0  0  0  0  0  0  0  0  0  0
   -0.9743    0.7125    0.0000 C   0  0  0  0  0  0  0  0  0  0  0  0
   -1.6887    1.1250    0.0000 C   0  0  0  0  0  0  0  0  0  0  0  0
   -1.6887    1.9500    0.0000 C   0  0  0  0  0  0  0  0  0  0  0  0
   -0.9743    3.1875    0.0000 C   0  0  0  0  0  0  0  0  0  0  0  0
  1  6  1  0
  1  7  1  0
  2  4  1  0
  2  5  1  0
  2  8  1  0
  3 18  1  0
  3 21  1  0
  3 22  1  0
  4  6  1  0
  4  9  2  0
  5  7  1  0
  5 10  2  0
  6 11  2  0
  7 12  2  0
  8 13  1  0
  9 14  1  0
 10 15  1  0
 11 16  1  0
 12 17  1  0
 13 18  1  0
 13 19  1  0
 14 16  2  0
 15 17  2  0
 19 20  1  0
 20 21  1  0
M  END
> <chembl_id>
CHEMBL395110

> <chembl_pref_name>
MEPAZINE
