
     RDKit          2D

 13 12  0  0  1  0  0  0  0  0999 V2000
    4.6667   -4.6500    0.0000 C   0  0  0  0  0  0  0  0  0  0  0  0
    4.0792   -4.9875    0.0000 C   0  0  0  0  0  0  0  0  0  0  0  0
    5.3042   -4.9750    0.0000 C   0  0  0  0  0  0  0  0  0  0  0  0
    3.4500   -4.6542    0.0000 C   0  0  0  0  0  0  0  0  0  0  0  0
    4.6667   -3.9250    0.0000 O   0  0  0  0  0  0  0  0  0  0  0  0
    4.0875   -5.7042    0.0000 O   0  0  0  0  0  0  0  0  0  0  0  0
    6.5417   -4.9667    0.0000 N   0  0  0  0  0  0  0  0  0  0  0  0
    3.4417   -3.9375    0.0000 O   0  0  0  0  0  0  0  0  0  0  0  0
    5.3042   -5.6917    0.0000 O   0  0  0  0  0  0  0  0  0  0  0  0
    5.9042   -4.6292    0.0000 C   0  0  0  0  0  0  0  0  0  0  0  0
    2.2042   -4.6792    0.0000 O   0  0  0  0  0  0  0  0  0  0  0  0
    2.8292   -4.9917    0.0000 C   0  0  0  0  0  0  0  0  0  0  0  0
    7.1625   -4.6167    0.0000 C   0  0  0  0  0  0  0  0  0  0  0  0
  2  1  1  0
  3  1  1  0
  4  2  1  0
  1  5  1  6
  2  6  1  6
  7 10  1  0
  4  8  1  1
  3  9  1  6
 10  3  1  0
 11 12  1  0
 12  4  1  0
 13  7  1  0
M  END
> <chembl_id>
CHEMBL1200570

> <chembl_pref_name>
MEGLUMINE
