
     RDKit          2D

 31 35  0  0  1  0  0  0  0  0999 V2000
   -0.6125   -1.0542    0.0000 C   0  0  0  0  0  0  0  0  0  0  0  0
   -1.3208   -1.4750    0.0000 C   0  0  0  0  0  0  0  0  0  0  0  0
    0.1000   -1.4792    0.0000 C   0  0  0  0  0  0  0  0  0  0  0  0
   -1.3250   -2.3000    0.0000 C   0  0  0  0  0  0  0  0  0  0  0  0
    0.1000   -2.3042    0.0000 C   0  0  0  0  0  0  0  0  0  0  0  0
   -2.0375   -1.0542    0.0000 C   0  0  0  0  0  0  0  0  0  0  0  0
   -0.6083   -0.2375    0.0000 C   0  0  0  0  0  0  0  0  0  0  0  0
    1.5417    2.6458    0.0000 N   0  0  0  0  0  0  0  0  0  0  0  0
   -0.6208   -2.7125    0.0000 C   0  0  0  0  0  0  0  0  0  0  0  0
   -2.0375   -2.7042    0.0000 C   0  0  0  0  0  0  0  0  0  0  0  0
    0.8167   -1.0667    0.0000 C   0  0  0  0  0  0  0  0  0  0  0  0
   -1.3208    0.1750    0.0000 C   0  0  0  0  0  0  0  0  0  0  0  0
    0.1042    0.1708    0.0000 C   0  0  0  0  0  0  0  0  0  0  0  0
   -2.7458   -2.3000    0.0000 C   0  0  0  0  0  0  0  0  0  0  0  0
   -2.7458   -1.4750    0.0000 C   0  0  0  0  0  0  0  0  0  0  0  0
   -0.6000    1.4125    0.0000 C   0  0  0  0  0  0  0  0  0  0  0  0
   -1.3208    0.9958    0.0000 C   0  0  0  0  0  0  0  0  0  0  0  0
    0.1125    0.9958    0.0000 C   0  0  0  0  0  0  0  0  0  0  0  0
   -0.6000    2.2375    0.0000 O   0  0  0  0  0  0  0  0  0  0  0  0
    0.8292    2.2333    0.0000 C   0  0  0  0  0  0  0  0  0  0  0  0
   -3.4625   -2.7125    0.0000 O   0  0  0  0  0  0  0  0  0  0  0  0
    0.1167    2.6458    0.0000 C   0  0  0  0  0  0  0  0  0  0  0  0
    2.2917    2.3083    0.0000 C   0  0  0  0  0  0  0  0  0  0  0  0
    1.6250    3.4708    0.0000 C   0  0  0  0  0  0  0  0  0  0  0  0
    1.5292   -1.4875    0.0000 C   0  0  0  0  0  0  0  0  0  0  0  0
    0.8167   -0.2500    0.0000 C   0  0  0  0  0  0  0  0  0  0  0  0
    2.8417    2.9208    0.0000 C   0  0  0  0  0  0  0  0  0  0  0  0
    2.4292    3.6458    0.0000 C   0  0  0  0  0  0  0  0  0  0  0  0
    1.5292    0.1625    0.0000 C   0  0  0  0  0  0  0  0  0  0  0  0
    2.2417   -1.0792    0.0000 C   0  0  0  0  0  0  0  0  0  0  0  0
    2.2500   -0.2542    0.0000 C   0  0  0  0  0  0  0  0  0  0  0  0
  2  1  1  0
  3  1  1  0
  4  2  2  0
  5  3  1  0
  6  2  1  0
  1  7  1  1
  8 20  1  0
  9  5  1  0
 10  4  1  0
  3 11  1  1
 12  7  1  0
 13  7  2  0
 14 15  1  0
 15  6  2  0
 16 18  2  0
 17 12  2  0
 18 13  1  0
 19 16  1  0
 20 22  1  0
 21 14  1  0
 22 19  1  0
 23  8  1  0
 24  8  1  0
 25 11  2  0
 26 11  1  0
 27 23  1  0
 28 24  1  0
 29 26  2  0
 30 25  1  0
 31 29  1  0
 17 16  1  0
  4  9  1  0
 10 14  2  0
 30 31  2  0
 27 28  1  0
M  END
> <chembl_id>
CHEMBL328190

> <chembl_pref_name>
LASOFOXIFENE
