
     RDKit          2D

 19 20  0  0  0  0  0  0  0  0999 V2000
    1.2990   -0.7500    0.0000 C   0  0  0  0  0  0  0  0  0  0  0  0
    0.0000   -1.5000    0.0000 C   0  0  0  0  0  0  0  0  0  0  0  0
   -1.2990   -0.7500    0.0000 C   0  0  0  0  0  0  0  0  0  0  0  0
   -1.2990    0.7500    0.0000 C   0  0  0  0  0  0  0  0  0  0  0  0
    0.0000    1.5000    0.0000 C   0  0  0  0  0  0  0  0  0  0  0  0
    1.2990    0.7500    0.0000 C   0  0  0  0  0  0  0  0  0  0  0  0
   -2.6010    1.4966    0.0000 C   0  0  0  0  0  0  0  0  0  0  0  0
   -2.6062    2.9975    0.0000 C   0  0  0  0  0  0  0  0  0  0  0  0
   -3.9077    3.7433    0.0000 C   0  0  0  0  0  0  0  0  0  0  0  0
   -3.9128    5.2433    0.0000 C   0  0  0  0  0  0  0  0  0  0  0  0
   -2.6163    5.9977    0.0000 C   0  0  0  0  0  0  0  0  0  0  0  0
   -1.3147    5.2521    0.0000 C   0  0  0  0  0  0  0  0  0  0  0  0
   -1.3096    3.7521    0.0000 C   0  0  0  0  0  0  0  0  0  0  0  0
   -3.8999    0.7447    0.0000 S   0  0  0  0  0  0  0  0  0  0  0  0
   -5.2010    1.4929    0.0000 C   0  0  0  0  0  0  0  0  0  0  0  0
   -3.8982   -0.4553    0.0000 O   0  0  0  0  0  0  0  0  0  0  0  0
   -6.4999    0.7410    0.0000 C   0  0  0  0  0  0  0  0  0  0  0  0
   -6.4981   -0.4590    0.0000 N   0  0  0  0  0  0  0  0  0  0  0  0
   -7.5402    1.3391    0.0000 O   0  0  0  0  0  0  0  0  0  0  0  0
  4  5  1  0
  9 10  1  0
  2  3  1  0
 10 11  2  0
  5  6  2  0
 11 12  1  0
  6  1  1  0
 12 13  2  0
 13  8  1  0
  1  2  2  0
  7 14  1  0
  4  7  1  0
 14 15  1  0
  3  4  2  0
 14 16  1  0
  7  8  1  0
 15 17  1  0
 17 18  1  0
  8  9  2  0
 17 19  2  0
M  CHG  2  14   1  16  -1
M  END
> <chembl_id>
CHEMBL1373

> <chembl_pref_name>
MODAFINIL
