
     RDKit          2D

 30 30  0  0  0  0  0  0  0  0999 V2000
   -9.4821   -2.0625    0.0000 Cl  0  0  0  0  0  0  0  0  0  0  0  0
  -10.1946    2.1455    0.0000 N   0  0  0  0  0  0  0  0  0  0  0  0
  -10.8621    1.6606    0.0000 C   0  0  0  0  0  0  0  0  0  0  0  0
  -10.6071    0.8760    0.0000 C   0  0  0  0  0  0  0  0  0  0  0  0
   -9.7821    0.8760    0.0000 C   0  0  0  0  0  0  0  0  0  0  0  0
   -9.5272    1.6606    0.0000 C   0  0  0  0  0  0  0  0  0  0  0  0
   -8.7426    1.9155    0.0000 C   0  0  0  0  0  0  0  0  0  0  0  0
   -8.5711    2.7225    0.0000 O   0  0  0  0  0  0  0  0  0  0  0  0
   -8.1295    1.3635    0.0000 N   0  0  0  0  0  0  0  0  0  0  0  0
   -7.3449    1.6184    0.0000 C   0  0  0  0  0  0  0  0  0  0  0  0
   -6.7318    1.0664    0.0000 C   0  0  0  0  0  0  0  0  0  0  0  0
   -7.1314    2.4153    0.0000 C   0  0  0  0  0  0  0  0  0  0  0  0
   -6.3345    2.6288    0.0000 C   0  0  0  0  0  0  0  0  0  0  0  0
   -7.7147    2.9987    0.0000 Cl  0  0  0  0  0  0  0  0  0  0  0  0
   -6.9033    0.2594    0.0000 C   0  0  0  0  0  0  0  0  0  0  0  0
   -6.2902   -0.2926    0.0000 C   0  0  0  0  0  0  0  0  0  0  0  0
   -5.5056   -0.0377    0.0000 C   0  0  0  0  0  0  0  0  0  0  0  0
   -5.3341    0.7692    0.0000 C   0  0  0  0  0  0  0  0  0  0  0  0
   -5.9472    1.3213    0.0000 O   0  0  0  0  0  0  0  0  0  0  0  0
   -4.5494    1.0242    0.0000 S   0  0  0  0  0  0  0  0  0  0  0  0
   -4.3779    1.8311    0.0000 C   0  0  0  0  0  0  0  0  0  0  0  0
   -4.8925   -0.5898    0.0000 O   0  0  0  0  0  0  0  0  0  0  0  0
   -6.4618   -1.0996    0.0000 O   0  0  0  0  0  0  0  0  0  0  0  0
   -7.6879    0.0045    0.0000 O   0  0  0  0  0  0  0  0  0  0  0  0
  -10.1946    2.9705    0.0000 C   0  0  0  0  0  0  0  0  0  0  0  0
  -11.0921    0.2086    0.0000 C   0  0  0  0  0  0  0  0  0  0  0  0
  -11.9171    0.2086    0.0000 C   0  0  0  0  0  0  0  0  0  0  0  0
  -12.3296   -0.5059    0.0000 C   0  0  0  0  0  0  0  0  0  0  0  0
   -7.5287    0.8529    0.0000 H   0  0  0  0  0  0  0  0  0  0  0  0
   -6.5480    1.8319    0.0000 H   0  0  0  0  0  0  0  0  0  0  0  0
  2  3  1  0
  3  4  1  0
  4  5  1  0
  5  6  1  0
  2  6  1  0
  6  7  1  6
  7  8  2  0
  7  9  1  0
  9 10  1  0
 11 10  1  0
 10 12  1  0
 12 13  1  0
 12 14  1  1
 11 15  1  0
 19 11  1  0
 15 16  1  0
 16 17  1  0
 17 18  1  0
 18 19  1  0
 18 20  1  6
 20 21  1  0
 17 22  1  6
 16 23  1  1
 15 24  1  1
  2 25  1  0
  4 26  1  1
 26 27  1  0
 27 28  1  0
 11 29  1  6
 10 30  1  1
M  END
> <chembl_id>
CHEMBL1200588

> <chembl_pref_name>
CLINDAMYCIN HYDROCHLORIDE
