
     RDKit          2D

 26 29  0  0  1  0  0  0  0  0999 V2000
   -1.4833   -0.6792    0.0000 C   0  0  0  0  0  0  0  0  0  0  0  0
   -1.4833   -1.7125    0.0000 C   0  0  0  0  0  0  0  0  0  0  0  0
    1.2250    0.8625    0.0000 C   0  0  0  0  0  0  0  0  0  0  0  0
    1.2250   -0.1667    0.0000 C   0  0  0  0  0  0  0  0  0  0  0  0
   -0.5833   -0.1667    0.0000 C   0  0  0  0  0  0  0  0  0  0  0  0
    0.3167   -0.6375    0.0000 C   0  0  0  0  0  0  0  0  0  0  0  0
    2.3125    1.0750    0.0000 C   0  0  0  0  0  0  0  0  0  0  0  0
    0.3167   -1.7125    0.0000 C   0  0  0  0  0  0  0  0  0  0  0  0
   -0.5833   -2.2167    0.0000 C   0  0  0  0  0  0  0  0  0  0  0  0
    3.2667    1.7083    0.0000 C   0  0  0  0  0  0  0  0  0  0  0  0
    0.3167    1.3708    0.0000 C   0  0  0  0  0  0  0  0  0  0  0  0
   -0.5833    0.8625    0.0000 C   0  0  0  0  0  0  0  0  0  0  0  0
    2.4542   -0.4917    0.0000 C   0  0  0  0  0  0  0  0  0  0  0  0
   -2.3833   -0.1667    0.0000 C   0  0  0  0  0  0  0  0  0  0  0  0
    4.3417    2.4375    0.0000 C   0  0  0  0  0  0  0  0  0  0  0  0
   -2.3833   -2.2167    0.0000 C   0  0  0  0  0  0  0  0  0  0  0  0
    3.0417    0.4083    0.0000 C   0  0  0  0  0  0  0  0  0  0  0  0
   -3.2875   -1.7125    0.0000 C   0  0  0  0  0  0  0  0  0  0  0  0
   -4.2208   -2.2375    0.0000 O   0  0  0  0  0  0  0  0  0  0  0  0
   -3.2875   -0.6792    0.0000 C   0  0  0  0  0  0  0  0  0  0  0  0
    2.1542    2.2250    0.0000 O   0  0  0  0  0  0  0  0  0  0  0  0
    1.2250    1.8583    0.0000 C   0  0  0  0  0  0  0  0  0  0  0  0
    1.2250   -2.2667    0.0000 C   0  0  0  0  0  0  0  0  0  0  0  0
    0.3167    0.3958    0.0000 H   0  0  0  0  0  0  0  0  0  0  0  0
    1.2250   -1.2292    0.0000 H   0  0  0  0  0  0  0  0  0  0  0  0
   -0.5833   -1.1792    0.0000 H   0  0  0  0  0  0  0  0  0  0  0  0
  2  1  2  0
  3 11  1  0
  4  6  1  0
  5  1  1  0
  6  5  1  0
  7  3  1  0
  8  6  1  0
  9  2  1  0
  7 10  1  6
 11 12  1  0
 12  5  1  0
 13  4  1  0
 14  1  1  0
 15 10  3  0
 16  2  1  0
 17 13  1  0
 18 20  1  0
 19 18  2  0
 20 14  1  0
 21  7  1  0
  3 22  1  1
  8 23  1  6
  6 24  1  1
  4 25  1  6
  5 26  1  6
  9  8  1  0
 16 18  1  0
  4  3  1  0
  7 17  1  0
M  END
> <chembl_id>
CHEMBL2103774

> <chembl_pref_name>
TIBOLONE
