
     RDKit          2D

 45 46  0  0  0  0  0  0  0  0999 V2000
    7.1362  -20.3185    0.0000 C   0  0  0  0  0  0  0  0  0  0  0  0
    7.1313  -19.4935    0.0000 C   0  0  0  0  0  0  0  0  0  0  0  0
    7.8434  -19.0767    0.0000 C   0  0  0  0  0  0  0  0  0  0  0  0
    7.8385  -18.2518    0.0000 O   0  0  0  0  0  0  0  0  0  0  0  0
    8.5603  -19.4851    0.0000 O   0  0  0  0  0  0  0  0  0  0  0  0
    7.8531  -20.7268    0.0000 C   0  0  0  0  0  0  0  0  0  0  0  0
    7.8580  -21.5518    0.0000 O   0  0  0  0  0  0  0  0  0  0  0  0
    8.5651  -20.3101    0.0000 O   0  0  0  0  0  0  0  0  0  0  0  0
   -0.5484  -15.4328    0.0000 N   0  0  0  0  0  0  0  0  0  0  0  0
    0.1553  -15.0106    0.0000 C   0  0  0  0  0  0  0  0  0  0  0  0
   -0.5484  -13.7731    0.0000 S   0  0  0  0  0  0  0  0  0  0  0  0
    0.1553  -14.1856    0.0000 C   0  0  0  0  0  0  0  0  0  0  0  0
   -1.2763  -15.0106    0.0000 C   0  0  0  0  0  0  0  0  0  0  0  0
   -1.2763  -14.1856    0.0000 C   0  0  0  0  0  0  0  0  0  0  0  0
    0.8348  -15.4328    0.0000 C   0  0  0  0  0  0  0  0  0  0  0  0
    1.5529  -15.0106    0.0000 C   0  0  0  0  0  0  0  0  0  0  0  0
    0.8348  -17.8837    0.0000 N   0  0  0  0  0  0  0  0  0  0  0  0
    2.2664  -18.7037    0.0000 N   0  0  0  0  0  0  0  0  0  0  0  0
    2.2616  -15.4279    0.0000 C   0  0  0  0  0  0  0  0  0  0  0  0
    0.8348  -13.7731    0.0000 C   0  0  0  0  0  0  0  0  0  0  0  0
    1.5529  -14.1856    0.0000 C   0  0  0  0  0  0  0  0  0  0  0  0
    2.2470  -16.2772    0.0000 O   0  0  0  0  0  0  0  0  0  0  0  0
   -0.5484  -16.2627    0.0000 C   0  0  0  0  0  0  0  0  0  0  0  0
    1.5529  -17.4808    0.0000 C   0  0  0  0  0  0  0  0  0  0  0  0
    1.5529  -19.1309    0.0000 C   0  0  0  0  0  0  0  0  0  0  0  0
    2.2664  -17.8837    0.0000 C   0  0  0  0  0  0  0  0  0  0  0  0
    0.8348  -18.7037    0.0000 C   0  0  0  0  0  0  0  0  0  0  0  0
    0.1553  -16.6703    0.0000 C   0  0  0  0  0  0  0  0  0  0  0  0
    0.1553  -17.4808    0.0000 C   0  0  0  0  0  0  0  0  0  0  0  0
   -2.0043  -15.4328    0.0000 C   0  0  0  0  0  0  0  0  0  0  0  0
    3.0041  -19.1309    0.0000 C   0  0  0  0  0  0  0  0  0  0  0  0
   -2.0043  -13.7731    0.0000 C   0  0  0  0  0  0  0  0  0  0  0  0
    4.4309  -19.1309    0.0000 O   0  0  0  0  0  0  0  0  0  0  0  0
    2.9895  -15.0251    0.0000 C   0  0  0  0  0  0  0  0  0  0  0  0
    3.7223  -18.7037    0.0000 C   0  0  0  0  0  0  0  0  0  0  0  0
   -2.7177  -15.0106    0.0000 C   0  0  0  0  0  0  0  0  0  0  0  0
   -2.7177  -14.1856    0.0000 C   0  0  0  0  0  0  0  0  0  0  0  0
    5.4306  -16.8693    0.0000 C   0  0  0  0  0  0  0  0  0  0  0  0
    5.4257  -16.0443    0.0000 C   0  0  0  0  0  0  0  0  0  0  0  0
    6.1378  -15.6276    0.0000 C   0  0  0  0  0  0  0  0  0  0  0  0
    6.1329  -14.8026    0.0000 O   0  0  0  0  0  0  0  0  0  0  0  0
    6.8547  -16.0359    0.0000 O   0  0  0  0  0  0  0  0  0  0  0  0
    6.1475  -17.2776    0.0000 C   0  0  0  0  0  0  0  0  0  0  0  0
    6.1524  -18.1026    0.0000 O   0  0  0  0  0  0  0  0  0  0  0  0
    6.8595  -16.8609    0.0000 O   0  0  0  0  0  0  0  0  0  0  0  0
  1  2  2  0
  2  3  1  0
  3  4  2  0
  3  5  1  0
  1  6  1  0
  6  7  2  0
  6  8  1  0
 16 15  1  0
 17 29  1  0
 18 26  1  0
 19 16  1  0
 20 12  2  0
 21 16  2  0
 22 19  2  0
 23  9  1  0
 24 17  1  0
 25 27  1  0
 26 24  1  0
 27 17  1  0
 28 23  1  0
 29 28  1  0
 30 13  1  0
 31 18  1  0
 32 14  1  0
 33 35  1  0
 34 19  1  0
 35 31  1  0
 36 30  2  0
 37 32  2  0
 11 12  1  0
 36 37  1  0
 21 20  1  0
 18 25  1  0
 10  9  1  0
 11 14  1  0
 12 10  1  0
 13  9  1  0
 14 13  2  0
 15 10  2  0
 38 39  2  0
 39 40  1  0
 40 41  2  0
 40 42  1  0
 38 43  1  0
 43 44  2  0
 43 45  1  0
M  END
> <chembl_id>
CHEMBL2360079

> <chembl_pref_name>
ACETOPHENAZINE MALEATE
