
     RDKit          2D

 21 24  0  0  0  0  0  0  0  0999 V2000
   -0.4208   -0.7292    0.0000 N   0  0  0  0  0  0  0  0  0  0  0  0
   -0.4125   -2.1417    0.0000 S   0  0  0  0  0  0  0  0  0  0  0  0
    0.1792   -1.0667    0.0000 C   0  0  0  0  0  0  0  0  0  0  0  0
   -1.0250   -1.0667    0.0000 C   0  0  0  0  0  0  0  0  0  0  0  0
    0.1792   -1.7917    0.0000 C   0  0  0  0  0  0  0  0  0  0  0  0
   -1.0208   -1.8000    0.0000 C   0  0  0  0  0  0  0  0  0  0  0  0
   -0.4208   -0.0167    0.0000 C   0  0  0  0  0  0  0  0  0  0  0  0
    1.3542    0.3708    0.0000 N   0  0  0  0  0  0  0  0  0  0  0  0
    0.1917    0.3375    0.0000 C   0  0  0  0  0  0  0  0  0  0  0  0
    0.7792   -0.0625    0.0000 C   0  0  0  0  0  0  0  0  0  0  0  0
    1.1292    1.0250    0.0000 C   0  0  0  0  0  0  0  0  0  0  0  0
    0.4042    1.0208    0.0000 C   0  0  0  0  0  0  0  0  0  0  0  0
    0.8042   -0.7167    0.0000 C   0  0  0  0  0  0  0  0  0  0  0  0
   -1.6333   -0.7292    0.0000 C   0  0  0  0  0  0  0  0  0  0  0  0
   -1.6208   -2.1417    0.0000 C   0  0  0  0  0  0  0  0  0  0  0  0
    0.8042   -2.1542    0.0000 C   0  0  0  0  0  0  0  0  0  0  0  0
    1.9667    0.0208    0.0000 C   0  0  0  0  0  0  0  0  0  0  0  0
    1.4292   -1.0667    0.0000 C   0  0  0  0  0  0  0  0  0  0  0  0
   -2.2333   -1.0750    0.0000 C   0  0  0  0  0  0  0  0  0  0  0  0
    1.4292   -1.7917    0.0000 C   0  0  0  0  0  0  0  0  0  0  0  0
   -2.2333   -1.8000    0.0000 C   0  0  0  0  0  0  0  0  0  0  0  0
  2  6  1  0
  3  1  1  0
  4  1  1  0
  5  3  2  0
  6  4  2  0
  7  1  1  0
  8 10  1  0
  9  7  1  0
 10  9  1  0
 11 12  1  0
 12  9  1  0
 13  3  1  0
 14  4  1  0
 15  6  1  0
 16  5  1  0
 17  8  1  0
 18 13  2  0
 19 14  2  0
 20 18  1  0
 21 19  1  0
  2  5  1  0
 11  8  1  0
 21 15  2  0
 20 16  2  0
M  END
> <chembl_id>
CHEMBL1200959

> <chembl_pref_name>
METHDILAZINE
