
     RDKit          2D

 20 21  0  0  1  0  0  0  0  0999 V2000
   -0.5875    0.3458    0.0000 C   0  0  0  0  0  0  0  0  0  0  0  0
    0.6500    1.0458    0.0000 N   0  0  0  0  0  0  0  0  0  0  0  0
    1.8792    0.3208    0.0000 C   0  0  0  0  0  0  0  0  0  0  0  0
   -3.0500    0.3500    0.0000 N   0  0  0  0  0  0  0  0  0  0  0  0
   -1.8083    1.0583    0.0000 C   0  0  0  0  0  0  0  0  0  0  0  0
   -0.6083   -1.0792    0.0000 O   0  0  0  0  0  0  0  0  0  0  0  0
    3.1167    1.0125    0.0000 C   0  0  0  0  0  0  0  0  0  0  0  0
    1.8667   -1.1042    0.0000 C   0  0  0  0  0  0  0  0  0  0  0  0
   -3.0833   -1.0792    0.0000 C   0  0  0  0  0  0  0  0  0  0  0  0
   -4.2833    1.0708    0.0000 C   0  0  0  0  0  0  0  0  0  0  0  0
    4.3375   -1.1292    0.0000 C   0  0  0  0  0  0  0  0  0  0  0  0
   -1.8000    2.4708    0.0000 C   0  0  0  0  0  0  0  0  0  0  0  0
    3.0917   -1.8292    0.0000 C   0  0  0  0  0  0  0  0  0  0  0  0
    4.3417    0.2875    0.0000 C   0  0  0  0  0  0  0  0  0  0  0  0
    0.6292   -1.8250    0.0000 C   0  0  0  0  0  0  0  0  0  0  0  0
    3.1250    2.4458    0.0000 C   0  0  0  0  0  0  0  0  0  0  0  0
   -4.3208   -1.7625    0.0000 C   0  0  0  0  0  0  0  0  0  0  0  0
   -4.2708    2.4958    0.0000 C   0  0  0  0  0  0  0  0  0  0  0  0
   -3.0208    3.1875    0.0000 C   0  0  0  0  0  0  0  0  0  0  0  0
   -4.3458   -3.1792    0.0000 C   0  0  0  0  0  0  0  0  0  0  0  0
  2  1  1  0
  3  2  1  0
  4  5  1  0
  5  1  1  1
  6  1  2  0
  7  3  1  0
  8  3  2  0
  9  4  1  0
 10  4  1  0
 11 13  2  0
 12  5  1  0
 13  8  1  0
 14  7  2  0
 15  8  1  0
 16  7  1  0
 17  9  1  0
 18 19  1  0
 19 12  1  0
 20 17  1  0
 10 18  1  0
 14 11  1  0
M  END
> <chembl_id>
CHEMBL1077896

> <chembl_pref_name>
ROPIVACAINE
