
     RDKit          2D

 22 23  0  0  1  0  0  0  0  0999 V2000
    2.5568    0.9616    0.0000 C   0  0  0  0  0  0  0  0  0  0  0  0
    2.3522    0.1657    0.0000 C   0  0  0  0  0  0  0  0  0  0  0  0
    1.7576    0.7375    0.0000 C   0  0  0  0  0  0  0  0  0  0  0  0
    0.9584    0.9519    0.0000 C   0  0  0  0  0  0  0  0  0  0  0  0
   -1.7316    0.4776    0.0000 C   0  0  0  0  0  0  0  0  0  0  0  0
   -1.0298    0.0357    0.0000 C   0  0  0  0  0  0  0  0  0  0  0  0
   -0.3963    0.5620    0.0000 C   0  0  0  0  0  0  0  0  0  0  0  0
   -1.5269    1.2768    0.0000 C   0  0  0  0  0  0  0  0  0  0  0  0
    0.3899    0.3573    0.0000 O   0  0  0  0  0  0  0  0  0  0  0  0
    2.5763   -0.6140    0.0000 C   0  0  0  0  0  0  0  0  0  0  0  0
   -0.7017    1.3320    0.0000 C   0  0  0  0  0  0  0  0  0  0  0  0
    0.7343    1.7413    0.0000 O   0  0  0  0  0  0  0  0  0  0  0  0
   -2.0532    1.9168    0.0000 O   0  0  0  0  0  0  0  0  0  0  0  0
    1.9915   -1.2021    0.0000 C   0  0  0  0  0  0  0  0  0  0  0  0
    3.3853    0.9031    0.0000 C   0  0  0  0  0  0  0  0  0  0  0  0
    2.4756    1.7803    0.0000 C   0  0  0  0  0  0  0  0  0  0  0  0
   -2.6185   -0.6270    0.0000 C   0  0  0  0  0  0  0  0  0  0  0  0
   -3.3885   -0.9389    0.0000 C   0  0  0  0  0  0  0  0  0  0  0  0
   -2.4951    0.1722    0.0000 C   0  0  0  0  0  0  0  0  0  0  0  0
   -0.9811   -0.7700    0.0000 C   0  0  0  0  0  0  0  0  0  0  0  0
    2.2222   -2.0013    0.0000 C   0  0  0  0  0  0  0  0  0  0  0  0
    1.1988   -1.0039    0.0000 C   0  0  0  0  0  0  0  0  0  0  0  0
  2  1  1  0
  3  1  1  0
  3  4  1  1
  5  6  2  0
  6  7  1  0
  7  9  1  0
  8 11  1  0
  9  4  1  0
  2 10  1  6
 11  7  1  0
 12  4  2  0
 13  8  2  0
 14 10  2  0
 15  1  1  0
 16  1  1  0
 17 19  1  0
 18 17  2  0
 19  5  1  0
 20  6  1  0
 21 14  1  0
 22 14  1  0
  2  3  1  0
  5  8  1  0
M  END
> <chembl_id>
CHEMBL1788403

> <chembl_pref_name>
BIOALLETHRIN
