
     RDKit          2D

 16 14  0  0  0  0  0  0  0  0999 V2000
    1.8562   -0.2062    0.0000 O   0  0  0  0  0  0  0  0  0  0  0  0
   -0.2041   -0.5893    0.0000 S   0  0  0  0  0  0  0  0  0  0  0  0
   -0.2041   -1.4143    0.0000 N   0  0  0  0  0  0  0  0  0  0  0  0
   -0.2041    0.2357    0.0000 C   0  0  0  0  0  0  0  0  0  0  0  0
    0.5103   -1.8268    0.0000 C   0  0  0  0  0  0  0  0  0  0  0  0
    0.6209   -0.5893    0.0000 O   0  0  0  0  0  0  0  0  0  0  0  0
   -1.0291   -0.5893    0.0000 O   0  0  0  0  0  0  0  0  0  0  0  0
    0.5103   -2.6518    0.0000 O   0  0  0  0  0  0  0  0  0  0  0  0
    0.5103    0.6482    0.0000 C   0  0  0  0  0  0  0  0  0  0  0  0
   -0.9186    0.6482    0.0000 C   0  0  0  0  0  0  0  0  0  0  0  0
   -0.2041    1.8857    0.0000 C   0  0  0  0  0  0  0  0  0  0  0  0
   -0.2041    2.7107    0.0000 N   0  0  0  0  0  0  0  0  0  0  0  0
   -0.9186    1.4732    0.0000 C   0  0  0  0  0  0  0  0  0  0  0  0
    0.5103    1.4732    0.0000 C   0  0  0  0  0  0  0  0  0  0  0  0
    1.2248   -1.4143    0.0000 C   0  0  0  0  0  0  0  0  0  0  0  0
    3.4641    0.0000    0.0000 Na  0  0  0  0  0 15  0  0  0  0  0  0
  3  2  1  0
  4  2  1  0
  5  3  1  0
  6  2  2  0
  7  2  2  0
  8  5  2  0
  9  4  2  0
 10  4  1  0
 11 13  1  0
 12 11  1  0
 13 10  2  0
 14  9  1  0
 15  5  1  0
 14 11  2  0
M  CHG  2   3  -1  16   1
M  END
> <chembl_id>
CHEMBL1723241

> <chembl_pref_name>
SULFACETAMIDE SODIUM
