
     RDKit          2D

 26 29  0  0  0  0  0  0  0  0999 V2000
    3.8377   -5.4590    0.0000 C   0  0  0  0  0  0  0  0  0  0  0  0
    3.8377   -4.6340    0.0000 C   0  0  0  0  0  0  0  0  0  0  0  0
    3.0530   -5.7139    0.0000 N   0  0  0  0  0  0  0  0  0  0  0  0
    4.5521   -5.8715    0.0000 N   0  0  0  0  0  0  0  0  0  0  0  0
    5.2666   -4.6340    0.0000 N   0  0  0  0  0  0  0  0  0  0  0  0
    4.5521   -4.2215    0.0000 C   0  0  0  0  0  0  0  0  0  0  0  0
    4.5521   -3.3965    0.0000 C   0  0  0  0  0  0  0  0  0  0  0  0
    3.8847   -2.9115    0.0000 C   0  0  0  0  0  0  0  0  0  0  0  0
    4.1396   -2.1269    0.0000 N   0  0  0  0  0  0  0  0  0  0  0  0
    5.2196   -2.9115    0.0000 C   0  0  0  0  0  0  0  0  0  0  0  0
    4.9646   -2.1269    0.0000 N   0  0  0  0  0  0  0  0  0  0  0  0
    3.0530   -4.3790    0.0000 C   0  0  0  0  0  0  0  0  0  0  0  0
    2.5681   -5.0465    0.0000 C   0  0  0  0  0  0  0  0  0  0  0  0
    3.6547   -1.4595    0.0000 C   0  0  0  0  0  0  0  0  0  0  0  0
    3.1698   -0.7920    0.0000 C   0  0  0  0  0  0  0  0  0  0  0  0
    3.8372   -0.3071    0.0000 N   0  0  0  0  0  0  0  0  0  0  0  0
    4.3222   -0.9745    0.0000 C   0  0  0  0  0  0  0  0  0  0  0  0
    3.1597   -3.5854    0.0000 N   0  0  0  0  0  0  0  0  0  0  0  0
    3.0735   -2.7649    0.0000 C   0  0  0  0  0  0  0  0  0  0  0  0
    2.9873   -1.9444    0.0000 C   0  0  0  0  0  0  0  0  0  0  0  0
    5.2666   -5.4590    0.0000 C   0  0  0  0  0  0  0  0  0  0  0  0
    4.0953    1.3226    0.0000 C   0  0  0  0  0  0  0  0  0  0  0  0
    3.4542    1.8418    0.0000 C   0  0  0  0  0  0  0  0  0  0  0  0
    3.9663    0.5077    0.0000 S   0  0  0  0  0  0  0  0  0  0  0  0
    4.7811    0.3787    0.0000 O   0  0  0  0  0  0  0  0  0  0  0  0
    3.1514    0.6368    0.0000 O   0  0  0  0  0  0  0  0  0  0  0  0
  1  2  2  0
  1  4  1  0
  3  1  1  0
  3 13  1  0
  4 21  2  0
  5  6  2  0
  6  7  1  0
  6  2  1  0
  7  8  2  0
  7 10  1  0
  8  9  1  0
 10 11  2  0
 11  9  1  0
 12  2  1  0
 13 12  2  0
 14  9  1  0
 14 15  1  0
 16 15  1  0
 17 16  1  0
 17 14  1  0
 19 18  3  0
 19 20  1  0
 20 14  1  0
 21  5  1  0
 22 23  1  0
 24 22  1  0
 24 16  1  0
 25 24  2  0
 26 24  2  0
M  END
> <chembl_id>
CHEMBL2105759

> <chembl_pref_name>
BARICITINIB
