
     RDKit          2D

 31 34  0  0  0  0  0  0  0  0999 V2000
    8.7375   -4.2875    0.0000 N   0  0  0  0  0  0  0  0  0  0  0  0
    2.3167   -4.7125    0.0000 C   0  0  0  0  0  0  0  0  0  0  0  0
    8.9625   -3.6167    0.0000 C   0  0  0  0  0  0  0  0  0  0  0  0
    2.3167   -5.4167    0.0000 C   0  0  0  0  0  0  0  0  0  0  0  0
    8.0500   -4.2875    0.0000 C   0  0  0  0  0  0  0  0  0  0  0  0
    1.7125   -4.3542    0.0000 C   0  0  0  0  0  0  0  0  0  0  0  0
    8.4000   -3.2042    0.0000 S   0  0  0  0  0  0  0  0  0  0  0  0
    1.0917   -5.4167    0.0000 C   0  0  0  0  0  0  0  0  0  0  0  0
    1.7125   -5.7667    0.0000 C   0  0  0  0  0  0  0  0  0  0  0  0
    1.0917   -4.7125    0.0000 C   0  0  0  0  0  0  0  0  0  0  0  0
    2.9250   -4.3542    0.0000 O   0  0  0  0  0  0  0  0  0  0  0  0
    7.8250   -3.6167    0.0000 C   0  0  0  0  0  0  0  0  0  0  0  0
    2.9250   -5.7667    0.0000 C   0  0  0  0  0  0  0  0  0  0  0  0
    3.5292   -4.7125    0.0000 C   0  0  0  0  0  0  0  0  0  0  0  0
    9.6792   -3.3167    0.0000 O   0  0  0  0  0  0  0  0  0  0  0  0
    7.4792   -4.7542    0.0000 O   0  0  0  0  0  0  0  0  0  0  0  0
    7.1875   -3.3042    0.0000 C   0  0  0  0  0  0  0  0  0  0  0  0
    3.5292   -5.4167    0.0000 C   0  0  0  0  0  0  0  0  0  0  0  0
    0.4667   -5.7667    0.0000 O   0  0  0  0  0  0  0  0  0  0  0  0
    4.7542   -4.7125    0.0000 O   0  0  0  0  0  0  0  0  0  0  0  0
    6.5792   -3.6417    0.0000 C   0  0  0  0  0  0  0  0  0  0  0  0
    4.1417   -4.3542    0.0000 C   0  0  0  0  0  0  0  0  0  0  0  0
    5.3542   -4.3542    0.0000 C   0  0  0  0  0  0  0  0  0  0  0  0
    1.7125   -3.6542    0.0000 C   0  0  0  0  0  0  0  0  0  0  0  0
    6.5792   -4.3542    0.0000 C   0  0  0  0  0  0  0  0  0  0  0  0
    5.9542   -3.2917    0.0000 C   0  0  0  0  0  0  0  0  0  0  0  0
    5.3417   -3.6417    0.0000 C   0  0  0  0  0  0  0  0  0  0  0  0
    5.9542   -4.7125    0.0000 C   0  0  0  0  0  0  0  0  0  0  0  0
    1.7125   -6.4792    0.0000 C   0  0  0  0  0  0  0  0  0  0  0  0
    0.4667   -4.3542    0.0000 C   0  0  0  0  0  0  0  0  0  0  0  0
    4.1292   -5.1625    0.0000 C   0  0  0  0  0  0  0  0  0  0  0  0
  2 11  1  0
  3  1  1  0
  4 13  1  0
  5  1  1  0
  6  2  1  0
  7  3  1  0
  8  9  2  0
  9  4  1  0
 10  6  2  0
 11 14  1  0
 12  5  1  0
 13 18  1  0
 14 22  1  0
 15  3  2  0
 16  5  2  0
 17 12  1  0
 18 14  1  0
 19  8  1  0
 20 23  1  0
 21 17  1  0
 22 20  1  0
 23 27  1  0
 24  6  1  0
 25 21  2  0
 26 21  1  0
 27 26  2  0
 28 25  1  0
 29  9  1  0
 30 10  1  0
 31 14  1  0
  7 12  1  0
 28 23  2  0
  4  2  2  0
  8 10  1  0
M  END
> <chembl_id>
CHEMBL408

> <chembl_pref_name>
TROGLITAZONE
