
     RDKit          2D

  6  4  0  0  0  0  0  0  0  0999 V2000
   -1.9875   -1.2000    0.0000 Na  0  0  0  0  0 15  0  0  0  0  0  0
   -3.4833   -0.8667    0.0000 P   0  0  0  0  0  0  0  0  0  0  0  0
   -2.8708   -1.2167    0.0000 O   0  0  0  0  0  0  0  0  0  0  0  0
   -3.1333   -0.2417    0.0000 O   0  0  0  0  0  0  0  0  0  0  0  0
   -4.0958   -1.2167    0.0000 O   0  0  0  0  0  0  0  0  0  0  0  0
   -3.8458   -0.2417    0.0000 O   0  0  0  0  0  0  0  0  0  0  0  0
  3  2  1  0
  4  2  2  0
  5  2  1  0
  6  2  1  0
M  CHG  2   1   1   3  -1
M  END
> <chembl_id>
CHEMBL1368

> <chembl_pref_name>
SODIUM PHOSPHATE, MONOBASIC
