
     RDKit          2D

 14 14  0  0  0  0  0  0  0  0999 V2000
   -1.1208    1.1083    0.0000 C   0  0  0  0  0  0  0  0  0  0  0  0
   -1.1208    2.0458    0.0000 C   0  0  0  0  0  0  0  0  0  0  0  0
   -0.3083    0.6333    0.0000 C   0  0  0  0  0  0  0  0  0  0  0  0
    0.5000    1.1083    0.0000 C   0  0  0  0  0  0  0  0  0  0  0  0
   -0.3083    2.5208    0.0000 C   0  0  0  0  0  0  0  0  0  0  0  0
   -1.9458    0.6208    0.0000 O   0  0  0  0  0  0  0  0  0  0  0  0
    0.5000    2.0458    0.0000 C   0  0  0  0  0  0  0  0  0  0  0  0
   -0.3083    3.4458    0.0000 O   0  0  0  0  0  0  0  0  0  0  0  0
   -0.3083   -0.3167    0.0000 C   0  0  0  0  0  0  0  0  0  0  0  0
    0.5000   -0.7750    0.0000 C   0  0  0  0  0  0  0  0  0  0  0  0
    1.3125   -3.1292    0.0000 C   0  0  0  0  0  0  0  0  0  0  0  0
    1.3125   -2.1792    0.0000 C   0  0  0  0  0  0  0  0  0  0  0  0
    0.5000   -1.7167    0.0000 C   0  0  0  0  0  0  0  0  0  0  0  0
    2.1167   -3.5875    0.0000 C   0  0  0  0  0  0  0  0  0  0  0  0
  2  1  1  0
  3  1  2  0
  4  3  1  0
  5  2  2  0
  6  1  1  0
  7  4  2  0
  8  5  1  0
  9  3  1  0
 10  9  1  0
 11 12  1  0
 12 13  1  0
 13 10  1  0
 14 11  1  0
  5  7  1  0
M  END
> <chembl_id>
CHEMBL443605

> <chembl_pref_name>
HEXYLRESORCINOL
