
     RDKit          2D

 14  9  0  0  0  0  0  0  0  0999 V2000
   -1.7503    0.1963    0.0000 Cl  0  0  0  0  0  0  0  0  0  0  0  0
   -4.9237    1.7176    0.0000 N   0  0  0  0  0  0  0  0  0  0  0  0
   -4.2168    2.1429    0.0000 C   0  0  0  0  0  0  0  0  0  0  0  0
   -3.4950    1.7434    0.0000 C   0  0  0  0  0  0  0  0  0  0  0  0
   -2.7881    2.1688    0.0000 N   0  0  0  0  0  0  0  0  0  0  0  0
   -2.0662    1.7693    0.0000 C   0  0  0  0  0  0  0  0  0  0  0  0
   -1.3594    2.1946    0.0000 C   0  0  0  0  0  0  0  0  0  0  0  0
   -0.6375    1.7951    0.0000 N   0  0  0  0  0  0  0  0  0  0  0  0
    0.0693    2.2205    0.0000 C   0  0  0  0  0  0  0  0  0  0  0  0
    0.7912    1.8210    0.0000 C   0  0  0  0  0  0  0  0  0  0  0  0
    1.4981    2.2464    0.0000 N   0  0  0  0  0  0  0  0  0  0  0  0
   -2.7972    0.6870    0.0000 Cl  0  0  0  0  0  0  0  0  0  0  0  0
   -2.7644    0.1799    0.0000 Cl  0  0  0  0  0  0  0  0  0  0  0  0
   -1.7666    0.6870    0.0000 Cl  0  0  0  0  0  0  0  0  0  0  0  0
  2  3  1  0
  3  4  1  0
  4  5  1  0
  5  6  1  0
  6  7  1  0
  7  8  1  0
  8  9  1  0
  9 10  1  0
 10 11  1  0
M  END
> <chembl_id>
CHEMBL5095420

> <chembl_pref_name>
TRIENTINE TETRAHYDROCHLORIDE
