
     RDKit          2D

 17 18  0  0  0  0  0  0  0  0999 V2000
    5.7646    1.0536    0.0000 C   0  0  0  0  0  0  0  0  0  0  0  0
    5.7746   -0.3753    0.0000 C   0  0  0  0  0  0  0  0  0  0  0  0
    6.1821    0.3420    0.0000 C   0  0  0  0  0  0  0  0  0  0  0  0
    4.9396    1.0479    0.0000 N   0  0  0  0  0  0  0  0  0  0  0  0
    4.9496   -0.3810    0.0000 N   0  0  0  0  0  0  0  0  0  0  0  0
    4.5321    0.3305    0.0000 C   0  0  0  0  0  0  0  0  0  0  0  0
    6.1800   -1.0938    0.0000 O   0  0  0  0  0  0  0  0  0  0  0  0
    6.1739    1.7699    0.0000 O   0  0  0  0  0  0  0  0  0  0  0  0
    6.8990    0.7568    0.0000 C   0  0  0  0  0  0  0  0  0  0  0  0
    3.7071    0.3282    0.0000 O   0  0  0  0  0  0  0  0  0  0  0  0
    6.8987   -0.0667    0.0000 C   0  0  0  0  0  0  0  0  0  0  0  0
    7.5992    0.3252    0.0000 C   0  0  0  0  0  0  0  0  0  0  0  0
    6.9158    1.5769    0.0000 C   0  0  0  0  0  0  0  0  0  0  0  0
    6.9623   -0.8892    0.0000 C   0  0  0  0  0  0  0  0  0  0  0  0
    8.3257    0.7161    0.0000 C   0  0  0  0  0  0  0  0  0  0  0  0
    7.6351    1.9749    0.0000 C   0  0  0  0  0  0  0  0  0  0  0  0
    8.3473    1.5433    0.0000 C   0  0  0  0  0  0  0  0  0  0  0  0
  2  3  1  0
  3  1  1  0
  4  1  1  0
  5  6  1  0
  6  4  1  0
  7  2  2  0
  8  1  2  0
  9  3  1  0
 10  6  2  0
 11  3  1  0
 12  9  2  0
 13  9  1  0
 14 11  1  0
 15 12  1  0
 16 13  2  0
 17 16  1  0
  2  5  1  0
 15 17  2  0
M  END
> <chembl_id>
CHEMBL40

> <chembl_pref_name>
PHENOBARBITAL
