
     RDKit          2D

 39 41  0  0  0  0  0  0  0  0999 V2000
   -1.4375   -0.0292    0.0000 C   0  0  0  0  0  0  0  0  0  0  0  0
   -1.1208    0.4083    0.0000 C   0  0  0  0  0  0  0  0  0  0  0  0
   -1.9500    0.1375    0.0000 C   0  0  0  0  0  0  0  0  0  0  0  0
   -3.8208    0.1458    0.0000 S   0  0  0  0  0  0  0  0  0  0  0  0
   -1.4375    0.8458    0.0000 O   0  0  0  0  0  0  0  0  0  0  0  0
   -1.3000   -0.5417    0.0000 C   0  0  0  0  0  0  0  0  0  0  0  0
   -1.9583    0.6833    0.0000 C   0  0  0  0  0  0  0  0  0  0  0  0
   -3.3458   -0.1250    0.0000 N   0  0  0  0  0  0  0  0  0  0  0  0
   -2.4208   -0.1292    0.0000 C   0  0  0  0  0  0  0  0  0  0  0  0
   -0.7833   -0.6792    0.0000 C   0  0  0  0  0  0  0  0  0  0  0  0
   -4.2833    0.4083    0.0000 O   0  0  0  0  0  0  0  0  0  0  0  0
   -4.0833   -0.3167    0.0000 O   0  0  0  0  0  0  0  0  0  0  0  0
   -2.8833    0.1375    0.0000 C   0  0  0  0  0  0  0  0  0  0  0  0
   -1.6833   -0.9250    0.0000 O   0  0  0  0  0  0  0  0  0  0  0  0
   -2.4208    0.9458    0.0000 C   0  0  0  0  0  0  0  0  0  0  0  0
   -0.6458   -1.2042    0.0000 C   0  0  0  0  0  0  0  0  0  0  0  0
   -0.4083   -0.3042    0.0000 C   0  0  0  0  0  0  0  0  0  0  0  0
   -3.5458    0.6083    0.0000 C   0  0  0  0  0  0  0  0  0  0  0  0
   -2.8833    0.6750    0.0000 C   0  0  0  0  0  0  0  0  0  0  0  0
   -0.5833    0.4125    0.0000 C   0  0  0  0  0  0  0  0  0  0  0  0
    2.5542   -0.6167    0.0000 N   0  0  0  0  0  0  0  0  0  0  0  0
    0.2500   -0.9625    0.0000 C   0  0  0  0  0  0  0  0  0  0  0  0
   -0.1333   -1.3417    0.0000 C   0  0  0  0  0  0  0  0  0  0  0  0
    0.1042   -0.4417    0.0000 C   0  0  0  0  0  0  0  0  0  0  0  0
    1.6542   -0.8542    0.0000 C   0  0  0  0  0  0  0  0  0  0  0  0
    0.7667   -1.1000    0.0000 O   0  0  0  0  0  0  0  0  0  0  0  0
    2.1792   -1.0000    0.0000 C   0  0  0  0  0  0  0  0  0  0  0  0
    1.2792   -1.2375    0.0000 C   0  0  0  0  0  0  0  0  0  0  0  0
    3.0667   -0.7542    0.0000 C   0  0  0  0  0  0  0  0  0  0  0  0
    2.4167   -0.0917    0.0000 C   0  0  0  0  0  0  0  0  0  0  0  0
   -0.3208    0.8833    0.0000 C   0  0  0  0  0  0  0  0  0  0  0  0
    3.4500   -0.3792    0.0000 C   0  0  0  0  0  0  0  0  0  0  0  0
    2.7917    0.2833    0.0000 C   0  0  0  0  0  0  0  0  0  0  0  0
    0.2167    0.8833    0.0000 C   0  0  0  0  0  0  0  0  0  0  0  0
    3.9667   -0.5167    0.0000 C   0  0  0  0  0  0  0  0  0  0  0  0
    2.6542    0.8000    0.0000 C   0  0  0  0  0  0  0  0  0  0  0  0
    0.4792    1.3458    0.0000 C   0  0  0  0  0  0  0  0  0  0  0  0
    4.3417   -0.1375    0.0000 C   0  0  0  0  0  0  0  0  0  0  0  0
    3.0292    1.1833    0.0000 C   0  0  0  0  0  0  0  0  0  0  0  0
  2  1  2  0
  3  1  1  0
  4  8  1  0
  5  2  1  0
  6  1  1  0
  7  3  1  0
  8 13  1  0
  9  3  2  0
 10  6  1  0
 11  4  2  0
 12  4  2  0
 13  9  1  0
 14  6  2  0
 15  7  2  0
 16 10  2  0
 17 10  1  0
 18  4  1  0
 19 13  2  0
 20  2  1  0
 21 27  1  0
 22 24  1  0
 23 16  1  0
 24 17  2  0
 25 28  1  0
 26 22  1  0
 27 25  1  0
 28 26  1  0
 29 21  1  0
 30 21  1  0
 31 20  1  0
 32 29  1  0
 33 30  1  0
 34 31  1  0
 35 32  1  0
 36 33  1  0
 37 34  1  0
 38 35  1  0
 39 36  1  0
  7  5  1  0
 23 22  2  0
 15 19  1  0
M  END
> <chembl_id>
CHEMBL184412

> <chembl_pref_name>
DRONEDARONE
