
     RDKit          2D

 17  4  0  0  0  0  0  0  0  0999 V2000
   -0.7232   -6.1607    0.0000 O   0  0  0  0  0  0  0  0  0  0  0  0
   -0.1339   -2.5982    0.0000 S   0  0  0  0  0  0  0  0  0  0  0  0
   -0.1339   -1.7732    0.0000 O   0  0  0  0  0  0  0  0  0  0  0  0
   -0.1339   -3.4232    0.0000 O   0  0  0  0  0  0  0  0  0  0  0  0
    0.6911   -2.5982    0.0000 O   0  0  0  0  0  0  0  0  0  0  0  0
   -0.9589   -2.5982    0.0000 O   0  0  0  0  0  0  0  0  0  0  0  0
   -1.0446   -3.7500    0.0000 Na  0  0  0  0  0 15  0  0  0  0  0  0
    0.9911   -3.3214    0.0000 Na  0  0  0  0  0 15  0  0  0  0  0  0
   -0.2946   -4.9018    0.0000 O   0  0  0  0  0  0  0  0  0  0  0  0
    1.2054   -4.6339    0.0000 O   0  0  0  0  0  0  0  0  0  0  0  0
    2.7857   -4.7946    0.0000 O   0  0  0  0  0  0  0  0  0  0  0  0
    1.7411   -5.3571    0.0000 O   0  0  0  0  0  0  0  0  0  0  0  0
    0.3214   -5.5714    0.0000 O   0  0  0  0  0  0  0  0  0  0  0  0
   -1.3393   -5.5179    0.0000 O   0  0  0  0  0  0  0  0  0  0  0  0
   -1.6875   -4.7143    0.0000 O   0  0  0  0  0  0  0  0  0  0  0  0
    2.3571   -3.8839    0.0000 O   0  0  0  0  0  0  0  0  0  0  0  0
    2.4643   -5.5714    0.0000 O   0  0  0  0  0  0  0  0  0  0  0  0
  2  3  2  0
  2  4  2  0
  2  5  1  0
  2  6  1  0
M  CHG  4   5  -1   6  -1   7   1   8   1
M  END
> <chembl_id>
CHEMBL3989856

> <chembl_pref_name>
SODIUM SULFATE
