
     RDKit          2D

 18 18  0  0  1  0  0  0  0  0999 V2000
    0.7667   -1.3292    0.0000 C   0  0  0  0  0  0  0  0  0  0  0  0
    1.3792   -1.6792    0.0000 C   0  0  0  0  0  0  0  0  0  0  0  0
    0.1542   -1.6792    0.0000 N   0  0  0  0  0  0  0  0  0  0  0  0
    2.0000   -1.3292    0.0000 N   0  0  0  0  0  0  0  0  0  0  0  0
   -0.4583   -1.3292    0.0000 C   0  0  0  0  0  0  0  0  0  0  0  0
    1.3792   -2.3917    0.0000 O   0  0  0  0  0  0  0  0  0  0  0  0
   -0.4583   -0.6167    0.0000 O   0  0  0  0  0  0  0  0  0  0  0  0
    2.6125   -1.6792    0.0000 C   0  0  0  0  0  0  0  0  0  0  0  0
    0.7667   -0.6167    0.0000 C   0  0  0  0  0  0  0  0  0  0  0  0
    3.2250   -1.3292    0.0000 C   0  0  0  0  0  0  0  0  0  0  0  0
    1.3792   -0.2667    0.0000 O   0  0  0  0  0  0  0  0  0  0  0  0
   -1.0708   -1.6792    0.0000 C   0  0  0  0  0  0  0  0  0  0  0  0
    3.8375   -1.6875    0.0000 C   0  0  0  0  0  0  0  0  0  0  0  0
    3.2167   -0.6250    0.0000 C   0  0  0  0  0  0  0  0  0  0  0  0
    1.3792    0.4458    0.0000 C   0  0  0  0  0  0  0  0  0  0  0  0
    4.4500   -1.3292    0.0000 C   0  0  0  0  0  0  0  0  0  0  0  0
    3.8292   -0.2667    0.0000 C   0  0  0  0  0  0  0  0  0  0  0  0
    4.4500   -0.6250    0.0000 C   0  0  0  0  0  0  0  0  0  0  0  0
  2  1  1  0
  3  1  1  0
  4  2  1  0
  5  3  1  0
  6  2  2  0
  7  5  2  0
  8  4  1  0
  1  9  1  6
 10  8  1  0
 11  9  1  0
 12  5  1  0
 13 10  2  0
 14 10  1  0
 15 11  1  0
 16 13  1  0
 17 14  2  0
 18 17  1  0
 18 16  2  0
M  END
> <chembl_id>
CHEMBL58323

> <chembl_pref_name>
LACOSAMIDE
