
     RDKit          2D

 35 36  0  0  0  0  0  0  0  0999 V2000
    7.6917   -5.4917    0.0000 S   0  0  0  0  0  0  0  0  0  0  0  0
    8.0417   -4.8667    0.0000 O   0  0  0  0  0  0  0  0  0  0  0  0
    7.3375   -4.8667    0.0000 O   0  0  0  0  0  0  0  0  0  0  0  0
    8.3042   -5.8417    0.0000 O   0  0  0  0  0  0  0  0  0  0  0  0
    7.0792   -5.8417    0.0000 C   0  0  0  0  0  0  0  0  0  0  0  0
    3.2292   -4.5292    0.0000 N   0  0  0  0  0  0  0  0  0  0  0  0
    2.6125   -4.1042    0.0000 C   0  0  0  0  0  0  0  0  0  0  0  0
    3.5667   -3.4042    0.0000 N   0  0  0  0  0  0  0  0  0  0  0  0
    1.3792   -4.1167    0.0000 C   0  0  0  0  0  0  0  0  0  0  0  0
    2.0000   -4.4792    0.0000 C   0  0  0  0  0  0  0  0  0  0  0  0
    3.7667   -4.0792    0.0000 C   0  0  0  0  0  0  0  0  0  0  0  0
    2.8167   -3.4042    0.0000 C   0  0  0  0  0  0  0  0  0  0  0  0
    0.7750   -4.4875    0.0000 C   0  0  0  0  0  0  0  0  0  0  0  0
    5.6792   -6.5750    0.0000 C   0  0  0  0  0  0  0  0  0  0  0  0
    0.7542   -3.0375    0.0000 C   0  0  0  0  0  0  0  0  0  0  0  0
    0.1667   -3.4417    0.0000 S   0  0  0  0  0  0  0  0  0  0  0  0
    3.2292   -5.1792    0.0000 C   0  0  0  0  0  0  0  0  0  0  0  0
    1.3667   -3.3875    0.0000 C   0  0  0  0  0  0  0  0  0  0  0  0
    5.0875   -6.2292    0.0000 C   0  0  0  0  0  0  0  0  0  0  0  0
   -0.3958   -3.0542    0.0000 C   0  0  0  0  0  0  0  0  0  0  0  0
    0.7792   -5.1792    0.0000 O   0  0  0  0  0  0  0  0  0  0  0  0
    0.4917   -2.3667    0.0000 C   0  0  0  0  0  0  0  0  0  0  0  0
    5.6792   -7.2792    0.0000 O   0  0  0  0  0  0  0  0  0  0  0  0
   -0.1833   -2.3750    0.0000 C   0  0  0  0  0  0  0  0  0  0  0  0
    4.4667   -6.5917    0.0000 C   0  0  0  0  0  0  0  0  0  0  0  0
    5.0875   -5.5292    0.0000 C   0  0  0  0  0  0  0  0  0  0  0  0
    3.8417   -5.5292    0.0000 C   0  0  0  0  0  0  0  0  0  0  0  0
    0.1542   -4.1417    0.0000 O   0  0  0  0  0  0  0  0  0  0  0  0
    6.3042   -6.2167    0.0000 O   0  0  0  0  0  0  0  0  0  0  0  0
    3.8417   -6.2292    0.0000 C   0  0  0  0  0  0  0  0  0  0  0  0
    4.4667   -5.1542    0.0000 C   0  0  0  0  0  0  0  0  0  0  0  0
    4.3792   -4.4458    0.0000 C   0  0  0  0  0  0  0  0  0  0  0  0
    5.0000   -4.0917    0.0000 C   0  0  0  0  0  0  0  0  0  0  0  0
    5.6167   -4.4542    0.0000 C   0  0  0  0  0  0  0  0  0  0  0  0
    6.2167   -4.0667    0.0000 C   0  0  0  0  0  0  0  0  0  0  0  0
  2  1  2  0
  3  1  2  0
  4  1  1  0
  5  1  1  0
  7  6  1  0
  8 11  2  0
  9 10  2  0
 10  7  1  0
 11  6  1  0
 12  7  2  0
 13  9  1  0
 14 19  1  0
 15 18  1  0
 16 15  1  0
 17  6  1  0
 18  9  1  0
 19 25  1  0
 20 16  1  0
 21 13  2  0
 22 15  2  0
 23 14  2  0
 24 22  1  0
 25 30  2  0
 26 31  1  0
 27 17  1  0
 28 13  1  0
 29 14  1  0
 30 27  1  0
 31 27  2  0
 32 11  1  0
 33 32  1  0
 34 33  1  0
 35 34  1  0
  8 12  1  0
 19 26  2  0
 20 24  2  0
M  END
> <chembl_id>
CHEMBL1200987

> <chembl_pref_name>
EPROSARTAN MESYLATE
