
     RDKit          2D

 11 10  0  0  0  0  0  0  0  0999 V2000
    2.6125    0.9583    0.0000 Na  0  0  0  0  0 15  0  0  0  0  0  0
   -0.9375    0.0208    0.0000 C   0  0  0  0  0  0  0  0  0  0  0  0
    0.2667    0.7458    0.0000 C   0  0  0  0  0  0  0  0  0  0  0  0
   -0.9375   -1.4042    0.0000 C   0  0  0  0  0  0  0  0  0  0  0  0
    1.5167    0.0208    0.0000 O   0  0  0  0  0  0  0  0  0  0  0  0
    0.2667    2.1875    0.0000 O   0  0  0  0  0  0  0  0  0  0  0  0
    0.2667   -2.0917    0.0000 O   0  0  0  0  0  0  0  0  0  0  0  0
   -2.2000    0.7458    0.0000 C   0  0  0  0  0  0  0  0  0  0  0  0
   -2.2000   -2.0917    0.0000 C   0  0  0  0  0  0  0  0  0  0  0  0
   -3.4625    0.0208    0.0000 C   0  0  0  0  0  0  0  0  0  0  0  0
   -3.4625   -1.4042    0.0000 C   0  0  0  0  0  0  0  0  0  0  0  0
  3  2  1  0
  4  2  1  0
  5  3  1  0
  6  3  2  0
  7  4  1  0
  8  2  2  0
  9  4  2  0
 10  8  1  0
 11 10  2  0
  9 11  1  0
M  CHG  2   1   1   5  -1
M  END
> <chembl_id>
CHEMBL447868

> <chembl_pref_name>
SODIUM SALICYLATE
