
     RDKit          2D

 37 38  0  0  0  0  0  0  0  0999 V2000
    6.3989   -1.5664    0.0000 S   0  0  0  0  0  0  0  0  0  0  0  0
    6.3989   -0.7290    0.0000 O   0  0  0  0  0  0  0  0  0  0  0  0
    7.0848   -1.9731    0.0000 O   0  0  0  0  0  0  0  0  0  0  0  0
    5.9802   -2.2841    0.0000 O   0  0  0  0  0  0  0  0  0  0  0  0
    5.5615   -1.5664    0.0000 O   0  0  0  0  0  0  0  0  0  0  0  0
   -4.1755    3.1377    0.0000 N   0  0  0  0  0  0  0  0  0  0  0  0
   -4.8900    2.7252    0.0000 C   0  0  0  0  0  0  0  0  0  0  0  0
   -4.3066    2.1419    0.0000 C   0  0  0  0  0  0  0  0  0  0  0  0
   -3.5922    2.5544    0.0000 C   0  0  0  0  0  0  0  0  0  0  0  0
   -2.7953    2.3408    0.0000 C   0  0  0  0  0  0  0  0  0  0  0  0
   -3.2078    3.0553    0.0000 C   0  0  0  0  0  0  0  0  0  0  0  0
   -4.1755    3.9627    0.0000 C   0  0  0  0  0  0  0  0  0  0  0  0
   -3.3505    3.9627    0.0000 C   0  0  0  0  0  0  0  0  0  0  0  0
   -5.6045    2.3127    0.0000 C   0  0  0  0  0  0  0  0  0  0  0  0
   -5.6045    1.4877    0.0000 C   0  0  0  0  0  0  0  0  0  0  0  0
   -6.3189    1.0752    0.0000 C   0  0  0  0  0  0  0  0  0  0  0  0
   -6.3189    0.2502    0.0000 C   0  0  0  0  0  0  0  0  0  0  0  0
   -5.6045   -0.1623    0.0000 N   0  0  0  0  0  0  0  0  0  0  0  0
   -4.8900    0.2502    0.0000 C   0  0  0  0  0  0  0  0  0  0  0  0
   -4.8900    1.0752    0.0000 C   0  0  0  0  0  0  0  0  0  0  0  0
   -7.0334    1.4877    0.0000 C   0  0  0  0  0  0  0  0  0  0  0  0
   -7.7479    1.0753    0.0000 C   0  0  0  0  0  0  0  0  0  0  0  0
   -7.7479    0.2503    0.0000 C   0  0  0  0  0  0  0  0  0  0  0  0
   -7.0334   -0.1623    0.0000 C   0  0  0  0  0  0  0  0  0  0  0  0
   -5.3025    3.4397    0.0000 H   0  0  0  0  0  0  0  0  0  0  0  0
   -6.0170    3.0272    0.0000 H   0  0  0  0  0  0  0  0  0  0  0  0
   -6.4014    2.0992    0.0000 O   0  0  0  0  0  0  0  0  0  0  0  0
   -8.4624    1.4878    0.0000 O   0  0  0  0  0  0  0  0  0  0  0  0
   -9.1768    1.0753    0.0000 C   0  0  0  0  0  0  0  0  0  0  0  0
   -2.0808    2.7533    0.0000 H   0  0  0  0  0  0  0  0  0  0  0  0
   -2.7953    1.5158    0.0000 C   0  0  0  0  0  0  0  0  0  0  0  0
   -2.0808    1.1033    0.0000 C   0  0  0  0  0  0  0  0  0  0  0  0
    2.8261   -1.8033    0.0000 S   0  0  0  0  0  0  0  0  0  0  0  0
    2.8261   -0.9659    0.0000 O   0  0  0  0  0  0  0  0  0  0  0  0
    3.5120   -2.2100    0.0000 O   0  0  0  0  0  0  0  0  0  0  0  0
    2.4074   -2.5210    0.0000 O   0  0  0  0  0  0  0  0  0  0  0  0
    1.9887   -1.8033    0.0000 O   0  0  0  0  0  0  0  0  0  0  0  0
  2  1  2  0
  3  1  2  0
  4  1  1  0
  5  1  1  0
  6  7  1  0
  7  8  1  0
  8  9  1  0
  9 10  1  0
 10 11  1  0
 11  6  1  0
  6 12  1  0
 12 13  1  0
  9 13  1  6
  7 14  1  0
 14 15  1  0
 15 16  1  0
 20 15  2  0
 17 18  1  0
 18 19  2  0
 19 20  1  0
 16 21  2  0
 17 16  1  0
 24 17  2  0
 21 22  1  0
 22 23  2  0
 23 24  1  0
  7 25  1  6
 14 26  1  6
 14 27  1  0
 22 28  1  0
 28 29  1  0
 10 30  1  1
 10 31  1  0
 31 32  2  0
 34 33  2  0
 35 33  2  0
 36 33  1  0
 37 33  1  0
M  END
> <chembl_id>
CHEMBL2146083

> <chembl_pref_name>
QUININE BISULFATE
