
     RDKit          2D

 37 39  0  0  0  0  0  0  0  0999 V2000
   13.3510    2.0917    0.0000 C   0  0  0  0  0  0  0  0  0  0  0  0
   13.3510    1.3334    0.0000 C   0  0  0  0  0  0  0  0  0  0  0  0
   14.0112    0.9543    0.0000 C   0  0  0  0  0  0  0  0  0  0  0  0
   14.0129    0.1929    0.0000 O   0  0  0  0  0  0  0  0  0  0  0  0
   14.6697    1.3365    0.0000 O   0  0  0  0  0  0  0  0  0  0  0  0
   14.0076    2.4708    0.0000 C   0  0  0  0  0  0  0  0  0  0  0  0
   14.0076    3.2290    0.0000 O   0  0  0  0  0  0  0  0  0  0  0  0
   14.6643    2.0917    0.0000 O   0  0  0  0  0  0  0  0  0  0  0  0
    4.3361    2.5729    0.0000 C   0  0  0  0  0  0  0  0  0  0  0  0
    4.3361    1.8147    0.0000 C   0  0  0  0  0  0  0  0  0  0  0  0
    4.9963    1.4397    0.0000 C   0  0  0  0  0  0  0  0  0  0  0  0
    5.6567    1.8147    0.0000 C   0  0  0  0  0  0  0  0  0  0  0  0
    5.6567    2.5729    0.0000 C   0  0  0  0  0  0  0  0  0  0  0  0
    4.9963    2.9521    0.0000 C   0  0  0  0  0  0  0  0  0  0  0  0
    4.9963    0.6813    0.0000 N   0  0  0  0  0  0  0  0  0  0  0  0
    5.6567    0.3022    0.0000 C   0  0  0  0  0  0  0  0  0  0  0  0
    6.3169    0.6813    0.0000 C   0  0  0  0  0  0  0  0  0  0  0  0
    6.3169    1.4397    0.0000 C   0  0  0  0  0  0  0  0  0  0  0  0
    3.6758    1.4397    0.0000 O   0  0  0  0  0  0  0  0  0  0  0  0
    5.6567   -0.4562    0.0000 O   0  0  0  0  0  0  0  0  0  0  0  0
    6.3169    2.9521    0.0000 C   0  0  0  0  0  0  0  0  0  0  0  0
    6.9814    2.5729    0.0000 C   0  0  0  0  0  0  0  0  0  0  0  0
    7.6416    2.9521    0.0000 N   0  0  0  0  0  0  0  0  0  0  0  0
    8.3020    2.5729    0.0000 C   0  0  0  0  0  0  0  0  0  0  0  0
    8.3798    1.8192    0.0000 C   0  0  0  0  0  0  0  0  0  0  0  0
    9.1285    1.6643    0.0000 C   0  0  0  0  0  0  0  0  0  0  0  0
    9.5076    2.3204    0.0000 C   0  0  0  0  0  0  0  0  0  0  0  0
    8.9973    2.8835    0.0000 C   0  0  0  0  0  0  0  0  0  0  0  0
    9.5076    1.0082    0.0000 C   0  0  0  0  0  0  0  0  0  0  0  0
   10.2701    1.0082    0.0000 C   0  0  0  0  0  0  0  0  0  0  0  0
   10.6534    1.6643    0.0000 C   0  0  0  0  0  0  0  0  0  0  0  0
   10.2701    2.3204    0.0000 C   0  0  0  0  0  0  0  0  0  0  0  0
   11.4159    1.6643    0.0000 C   0  0  0  0  0  0  0  0  0  0  0  0
   11.7951    2.3204    0.0000 C   0  0  0  0  0  0  0  0  0  0  0  0
   10.6534    0.3521    0.0000 C   0  0  0  0  0  0  0  0  0  0  0  0
   11.4159    0.3521    0.0000 C   0  0  0  0  0  0  0  0  0  0  0  0
    6.7002    3.6001    0.0000 O   0  0  0  0  0  0  0  0  0  0  0  0
  1  2  2  0
  2  3  1  0
  3  4  2  0
  3  5  1  0
  1  6  1  0
  6  7  2  0
  6  8  1  0
 11 15  1  0
 15 16  1  0
 16 17  1  0
 17 18  2  0
 18 12  1  0
 10 19  1  0
 16 20  2  0
 13 21  1  0
 21 22  1  0
 22 23  1  0
 23 24  1  0
 24 25  1  0
 25 26  1  0
 26 27  2  0
 27 28  1  0
 28 24  1  0
 26 29  1  0
 29 30  2  0
 30 31  1  0
 31 32  2  0
 32 27  1  0
 31 33  1  0
 33 34  1  0
 30 35  1  0
 35 36  1  0
 21 37  1  1
  9 10  2  0
 10 11  1  0
 11 12  2  0
 12 13  1  0
 13 14  2  0
 14  9  1  0
M  END
> <chembl_id>
CHEMBL1789842

> <chembl_pref_name>
INDACATEROL MALEATE
