
     RDKit          2D

 29 24  0  0  0  0  0  0  0  0999 V2000
    5.8661   -8.9196    0.0000 O   0  0  0  0  0  0  0  0  0  0  0  0
    2.5992   -6.3273    0.0000 C   0  0  0  0  0  0  0  0  0  0  0  0
    1.8715   -5.9164    0.0000 C   0  0  0  0  0  0  0  0  0  0  0  0
    1.1635   -6.3422    0.0000 C   0  0  0  0  0  0  0  0  0  0  0  0
    3.3172   -5.8867    0.0000 C   0  0  0  0  0  0  0  0  0  0  0  0
    0.4456   -5.9411    0.0000 C   0  0  0  0  0  0  0  0  0  0  0  0
    4.0251   -6.3175    0.0000 O   0  0  0  0  0  0  0  0  0  0  0  0
    3.3172   -5.0550    0.0000 O   0  0  0  0  0  0  0  0  0  0  0  0
    2.5992   -7.1344    0.0000 O   0  0  0  0  0  0  0  0  0  0  0  0
    1.8715   -5.0847    0.0000 O   0  0  0  0  0  0  0  0  0  0  0  0
    1.1635   -7.1641    0.0000 O   0  0  0  0  0  0  0  0  0  0  0  0
    0.4357   -5.0995    0.0000 O   0  0  0  0  0  0  0  0  0  0  0  0
   -0.2525   -7.1739    0.0000 O   0  0  0  0  0  0  0  0  0  0  0  0
   -0.2624   -6.3620    0.0000 C   0  0  0  0  0  0  0  0  0  0  0  0
    7.3720   -6.2877    0.0000 C   0  0  0  0  0  0  0  0  0  0  0  0
    8.0701   -6.7036    0.0000 C   0  0  0  0  0  0  0  0  0  0  0  0
    8.7979   -6.3175    0.0000 C   0  0  0  0  0  0  0  0  0  0  0  0
    6.6442   -6.7036    0.0000 C   0  0  0  0  0  0  0  0  0  0  0  0
    9.5108   -6.7036    0.0000 C   0  0  0  0  0  0  0  0  0  0  0  0
    5.9164   -6.2828    0.0000 O   0  0  0  0  0  0  0  0  0  0  0  0
    6.6442   -7.5304    0.0000 O   0  0  0  0  0  0  0  0  0  0  0  0
    7.3720   -5.4560    0.0000 O   0  0  0  0  0  0  0  0  0  0  0  0
    8.0701   -7.5354    0.0000 O   0  0  0  0  0  0  0  0  0  0  0  0
    8.8077   -5.4708    0.0000 O   0  0  0  0  0  0  0  0  0  0  0  0
    9.5108   -7.5502    0.0000 O   0  0  0  0  0  0  0  0  0  0  0  0
   10.9763   -6.7333    0.0000 O   0  0  0  0  0  0  0  0  0  0  0  0
   10.2336   -6.3175    0.0000 C   0  0  0  0  0  0  0  0  0  0  0  0
    5.1886   -5.5303    0.0000 Mg  0  0  0  0  0 15  0  0  0  0  0  0
    4.3125   -7.8214    0.0000 O   0  0  0  0  0  0  0  0  0  0  0  0
  3  2  1  0
  4  3  1  0
  5  2  1  0
  6  4  1  0
  7  5  1  0
  8  5  2  0
  2  9  1  6
  3 10  1  6
  4 11  1  6
  6 12  1  1
 13 14  1  0
 14  6  1  0
 16 15  1  0
 17 16  1  0
 18 15  1  0
 19 17  1  0
 20 18  1  0
 21 18  2  0
 15 22  1  6
 16 23  1  6
 17 24  1  6
 19 25  1  1
 26 27  1  0
 27 19  1  0
M  CHG  3   7  -1  20  -1  28   2
M  END
> <chembl_id>
CHEMBL3989640

> <chembl_pref_name>
MAGNESIUM GLUCONATE
