
     RDKit          2D

 34 34  0  0  0  0  0  0  0  0999 V2000
    8.4917   -1.2750    0.0000 O   0  0  0  0  0  0  0  0  0  0  0  0
    1.5292   -1.2167    0.0000 N   0  0  0  0  0  0  0  0  0  0  0  0
    1.5292   -1.9250    0.0000 C   0  0  0  0  0  0  0  0  0  0  0  0
    2.1412   -2.2792    0.0000 C   0  0  0  0  0  0  0  0  0  0  0  0
    2.1412   -0.8625    0.0000 C   0  0  0  0  0  0  0  0  0  0  0  0
    2.7532   -1.2167    0.0000 C   0  0  0  0  0  0  0  0  0  0  0  0
    2.7532   -1.9220    0.0000 N   0  0  0  0  0  0  0  0  0  0  0  0
    3.4229   -2.1409    0.0000 C   0  0  0  0  0  0  0  0  0  0  0  0
    3.8386   -1.5694    0.0000 N   0  0  0  0  0  0  0  0  0  0  0  0
    3.4240   -0.9988    0.0000 N   0  0  0  0  0  0  0  0  0  0  0  0
    3.3960   -2.8487    0.0000 C   0  0  0  0  0  0  0  0  0  0  0  0
    2.7696   -3.1793    0.0000 F   0  0  0  0  0  0  0  0  0  0  0  0
    3.7458   -3.4583    0.0000 F   0  0  0  0  0  0  0  0  0  0  0  0
    4.1042   -2.8458    0.0000 F   0  0  0  0  0  0  0  0  0  0  0  0
    0.9156   -0.8628    0.0000 C   0  0  0  0  0  0  0  0  0  0  0  0
    0.9152   -0.1545    0.0000 O   0  0  0  0  0  0  0  0  0  0  0  0
    0.3023   -1.2173    0.0000 C   0  0  0  0  0  0  0  0  0  0  0  0
   -0.3113   -0.8634    0.0000 C   0  0  0  0  0  0  0  0  0  0  0  0
   -0.9246   -1.2179    0.0000 C   0  0  0  0  0  0  0  0  0  0  0  0
   -1.5382   -0.8640    0.0000 C   0  0  0  0  0  0  0  0  0  0  0  0
   -1.5367   -0.1561    0.0000 C   0  0  0  0  0  0  0  0  0  0  0  0
   -2.1496    0.1977    0.0000 C   0  0  0  0  0  0  0  0  0  0  0  0
   -2.7637   -0.1568    0.0000 C   0  0  0  0  0  0  0  0  0  0  0  0
   -2.7611   -0.8688    0.0000 C   0  0  0  0  0  0  0  0  0  0  0  0
   -2.1477   -1.2194    0.0000 C   0  0  0  0  0  0  0  0  0  0  0  0
   -2.1447   -1.9277    0.0000 F   0  0  0  0  0  0  0  0  0  0  0  0
   -3.3778    0.1962    0.0000 F   0  0  0  0  0  0  0  0  0  0  0  0
   -2.1496    0.9060    0.0000 F   0  0  0  0  0  0  0  0  0  0  0  0
   -0.3117   -0.1551    0.0000 N   0  0  0  0  0  0  0  0  0  0  0  0
    5.6875   -1.7625    0.0000 O   0  0  0  0  0  0  0  0  0  0  0  0
    6.3009   -1.4083    0.0000 P   0  0  0  0  0  0  0  0  0  0  0  0
    6.9144   -1.7625    0.0000 O   0  0  0  0  0  0  0  0  0  0  0  0
    6.6500   -0.7875    0.0000 O   0  0  0  0  0  0  0  0  0  0  0  0
    5.9417   -0.7875    0.0000 O   0  0  0  0  0  0  0  0  0  0  0  0
  2  5  1  0
 18 19  1  0
  7  8  1  0
 19 20  1  0
  8  9  2  0
 20 21  2  0
  9 10  1  0
 21 22  1  0
 10  6  2  0
 22 23  2  0
  3  4  1  0
 23 24  1  0
  8 11  1  0
 24 25  2  0
 25 20  1  0
  4  7  1  0
 25 26  1  0
 11 12  1  0
 23 27  1  0
  6  5  1  0
 22 28  1  0
 11 13  1  0
 18 29  1  1
  6  7  1  0
 11 14  1  0
  2 15  1  0
 15 16  2  0
 15 17  1  0
  2  3  1  0
 17 18  1  0
 30 31  1  0
 31 32  1  0
 31 33  2  0
 31 34  1  0
M  END
> <chembl_id>
CHEMBL1201174

> <chembl_pref_name>
SITAGLIPTIN PHOSPHATE
