
     RDKit          2D

 18 19  0  0  0  0  0  0  0  0999 V2000
   -2.9625   -2.3125    0.0000 C   0  0  0  0  0  0  0  0  0  0  0  0
    1.8417   -2.2917    0.0000 N   0  0  0  0  0  0  0  0  0  0  0  0
   -2.9625   -0.9292    0.0000 C   0  0  0  0  0  0  0  0  0  0  0  0
   -4.1708   -3.0125    0.0000 O   0  0  0  0  0  0  0  0  0  0  0  0
   -1.7625   -3.0000    0.0000 N   0  0  0  0  0  0  0  0  0  0  0  0
    4.2417   -0.8875    0.0000 O   0  0  0  0  0  0  0  0  0  0  0  0
   -1.7458   -0.2167    0.0000 C   0  0  0  0  0  0  0  0  0  0  0  0
   -4.1833   -0.2167    0.0000 C   0  0  0  0  0  0  0  0  0  0  0  0
   -2.9458    1.8458    0.0000 C   0  0  0  0  0  0  0  0  0  0  0  0
   -4.1833    1.1500    0.0000 C   0  0  0  0  0  0  0  0  0  0  0  0
   -1.7458    1.1500    0.0000 C   0  0  0  0  0  0  0  0  0  0  0  0
   -2.9333    3.1083    0.0000 Cl  0  0  0  0  0  0  0  0  0  0  0  0
   -0.5583   -2.2792    0.0000 C   0  0  0  0  0  0  0  0  0  0  0  0
    0.6417   -2.9917    0.0000 C   0  0  0  0  0  0  0  0  0  0  0  0
    1.8375   -0.8875    0.0000 C   0  0  0  0  0  0  0  0  0  0  0  0
    3.0500   -2.9792    0.0000 C   0  0  0  0  0  0  0  0  0  0  0  0
    3.0375   -0.2042    0.0000 C   0  0  0  0  0  0  0  0  0  0  0  0
    4.2417   -2.2667    0.0000 C   0  0  0  0  0  0  0  0  0  0  0  0
  2 14  1  0
  3  1  1  0
  4  1  2  0
  5  1  1  0
  6 18  1  0
  7  3  2  0
  8  3  1  0
  9 10  1  0
 10  8  2  0
 11  7  1  0
 12  9  1  0
 13  5  1  0
 14 13  1  0
 15  2  1  0
 16  2  1  0
 17 15  1  0
 18 16  1  0
 11  9  2  0
 17  6  1  0
M  END
> <chembl_id>
CHEMBL86304

> <chembl_pref_name>
MOCLOBEMIDE
