
     RDKit          2D

 33 36  0  0  0  0  0  0  0  0999 V2000
    2.5657  -10.1071    0.0000 C   0  0  0  0  0  0  0  0  0  0  0  0
    4.7225   -8.8802    0.0000 C   0  0  0  0  0  0  0  0  0  0  0  0
    2.5657  -10.9299    0.0000 C   0  0  0  0  0  0  0  0  0  0  0  0
    5.5112   -8.6319    0.0000 C   0  0  0  0  0  0  0  0  0  0  0  0
    3.2863   -9.6884    0.0000 C   0  0  0  0  0  0  0  0  0  0  0  0
    4.0019  -10.1120    0.0000 C   0  0  0  0  0  0  0  0  0  0  0  0
    4.7176   -9.7030    0.0000 C   0  0  0  0  0  0  0  0  0  0  0  0
    1.8549   -9.6884    0.0000 C   0  0  0  0  0  0  0  0  0  0  0  0
    4.0068   -8.4566    0.0000 C   0  0  0  0  0  0  0  0  0  0  0  0
    3.2912   -8.8656    0.0000 C   0  0  0  0  0  0  0  0  0  0  0  0
    3.9922  -10.9396    0.0000 C   0  0  0  0  0  0  0  0  0  0  0  0
    1.8549  -11.3485    0.0000 C   0  0  0  0  0  0  0  0  0  0  0  0
    3.2766  -11.3485    0.0000 C   0  0  0  0  0  0  0  0  0  0  0  0
    5.5112   -7.8043    0.0000 C   0  0  0  0  0  0  0  0  0  0  0  0
    5.9932   -9.3037    0.0000 C   0  0  0  0  0  0  0  0  0  0  0  0
    5.4966   -9.9659    0.0000 C   0  0  0  0  0  0  0  0  0  0  0  0
    1.1441  -10.1071    0.0000 C   0  0  0  0  0  0  0  0  0  0  0  0
    1.1441  -10.9299    0.0000 C   0  0  0  0  0  0  0  0  0  0  0  0
    4.7906   -7.3953    0.0000 O   0  0  0  0  0  0  0  0  0  0  0  0
    0.4236  -11.3388    0.0000 O   0  0  0  0  0  0  0  0  0  0  0  0
    6.2269   -8.2132    0.0000 O   0  0  0  0  0  0  0  0  0  0  0  0
    2.5609   -9.2794    0.0000 C   0  0  0  0  0  0  0  0  0  0  0  0
    4.7225   -8.0526    0.0000 C   0  0  0  0  0  0  0  0  0  0  0  0
    2.5755   -8.4469    0.0000 O   0  0  0  0  0  0  0  0  0  0  0  0
    6.2220   -7.3807    0.0000 C   0  0  0  0  0  0  0  0  0  0  0  0
    6.9426   -7.7897    0.0000 O   0  0  0  0  0  0  0  0  0  0  0  0
    3.2766  -12.1713    0.0000 C   0  0  0  0  0  0  0  0  0  0  0  0
    3.2766  -10.5209    0.0000 H   0  0  0  0  0  0  0  0  0  0  0  0
    4.7079  -10.5306    0.0000 H   0  0  0  0  0  0  0  0  0  0  0  0
    3.9922   -9.2794    0.0000 H   0  0  0  0  0  0  0  0  0  0  0  0
    7.6540   -7.3719    0.0000 C   0  0  0  0  0  0  0  0  0  0  0  0
    8.3715   -7.7791    0.0000 C   0  0  0  0  0  0  0  0  0  0  0  0
    7.6479   -6.5469    0.0000 O   0  0  0  0  0  0  0  0  0  0  0  0
  2  9  1  0
  3  1  1  0
  4  2  1  0
  5  1  1  0
  6  5  1  0
  7  6  1  0
  8  1  1  0
  9 10  1  0
 10  5  1  0
 11  6  1  0
 12  3  2  0
 13  3  1  0
 14  4  1  0
 15 16  1  0
 16  7  1  0
 17  8  2  0
 18 12  1  0
 19 14  2  0
 20 18  2  0
  4 21  1  6
  1 22  1  1
  2 23  1  1
 10 24  1  1
 25 14  1  0
 26 25  1  0
 13 27  1  6
  5 28  1  6
  7 29  1  6
  6 30  1  1
 11 13  1  0
  7  2  1  0
 17 18  1  0
  4 15  1  0
 26 31  1  0
 31 32  1  0
 31 33  2  0
M  END
> <chembl_id>
CHEMBL1364144

> <chembl_pref_name>
METHYLPREDNISOLONE ACETATE
