
     RDKit          2D

  8  8  0  0  0  0  0  0  0  0999 V2000
    4.5417   -8.4042    0.0000 C   0  0  0  0  0  0  0  0  0  0  0  0
    5.7667   -7.7000    0.0000 C   0  0  0  0  0  0  0  0  0  0  0  0
    5.1500   -8.7583    0.0000 C   0  0  0  0  0  0  0  0  0  0  0  0
    5.1583   -7.3417    0.0000 C   0  0  0  0  0  0  0  0  0  0  0  0
    5.7667   -8.4042    0.0000 C   0  0  0  0  0  0  0  0  0  0  0  0
    4.5417   -7.6958    0.0000 C   0  0  0  0  0  0  0  0  0  0  0  0
    3.9250   -8.7583    0.0000 O   0  0  0  0  0  0  0  0  0  0  0  0
    6.3833   -7.3417    0.0000 O   0  0  0  0  0  0  0  0  0  0  0  0
  2  4  1  0
  3  1  2  0
  4  6  2  0
  5  3  1  0
  6  1  1  0
  7  1  1  0
  8  2  1  0
  5  2  2  0
M  END
> <chembl_id>
CHEMBL537

> <chembl_pref_name>
HYDROQUINONE
