
     RDKit          2D

 23 25  0  0  0  0  0  0  0  0999 V2000
    4.8190    0.8795    0.0000 N   0  0  0  0  0  0  0  0  0  0  0  0
    4.8190    1.7041    0.0000 C   0  0  0  0  0  0  0  0  0  0  0  0
    3.9944    0.8795    0.0000 C   0  0  0  0  0  0  0  0  0  0  0  0
    3.9944    1.7041    0.0000 C   0  0  0  0  0  0  0  0  0  0  0  0
    5.6023    0.6184    0.0000 C   0  0  0  0  0  0  0  0  0  0  0  0
    5.6023    1.9560    0.0000 S   0  0  0  0  0  0  0  0  0  0  0  0
    6.0833    1.2918    0.0000 C   0  0  0  0  0  0  0  0  0  0  0  0
    3.2753    2.1163    0.0000 N   0  0  0  0  0  0  0  0  0  0  0  0
    6.0145   -0.0916    0.0000 C   0  0  0  0  0  0  0  0  0  0  0  0
    2.5607    1.7041    0.0000 C   0  0  0  0  0  0  0  0  0  0  0  0
    1.8369    2.1163    0.0000 N   0  0  0  0  0  0  0  0  0  0  0  0
    3.2753    0.4672    0.0000 O   0  0  0  0  0  0  0  0  0  0  0  0
    5.5978   -0.8062    0.0000 O   0  0  0  0  0  0  0  0  0  0  0  0
    6.8391   -0.0916    0.0000 O   0  0  0  0  0  0  0  0  0  0  0  0
    6.7979    1.7041    0.0000 C   0  0  0  0  0  0  0  0  0  0  0  0
    6.7979    0.8795    0.0000 C   0  0  0  0  0  0  0  0  0  0  0  0
    1.8461    2.9409    0.0000 C   0  0  0  0  0  0  0  0  0  0  0  0
    1.1910    1.5987    0.0000 C   0  0  0  0  0  0  0  0  0  0  0  0
    1.2002    3.4631    0.0000 C   0  0  0  0  0  0  0  0  0  0  0  0
    0.3802    1.7911    0.0000 C   0  0  0  0  0  0  0  0  0  0  0  0
    0.0229    2.5332    0.0000 C   0  0  0  0  0  0  0  0  0  0  0  0
    0.3894    3.2844    0.0000 C   0  0  0  0  0  0  0  0  0  0  0  0
    4.8782    2.5265    0.0000 H   0  0  0  0  0  0  0  0  0  0  0  0
  2  1  1  0
  3  1  1  0
  4  3  1  0
  5  1  1  0
  2  6  1  0
  7  5  1  0
  4  8  1  1
  5  9  1  6
 10  8  2  0
 11 10  1  0
 12  3  2  0
 13  9  2  0
 14  9  1  0
 15  7  1  0
 16  7  1  0
 17 11  1  0
 18 11  1  0
 19 17  1  0
 20 18  1  0
 21 20  1  0
 22 19  1  0
  7  6  1  0
  2  4  1  0
 21 22  1  0
  2 23  1  6
M  END
> <chembl_id>
CHEMBL530

> <chembl_pref_name>
AMDINOCILLIN
