
     RDKit          2D

 11 10  0  0  0  0  0  0  0  0999 V2000
    1.2917   -1.7167    0.0000 C   0  0  0  0  0  0  0  0  0  0  0  0
   -0.1333   -1.7167    0.0000 C   0  0  0  0  0  0  0  0  0  0  0  0
    2.0167   -0.5292    0.0000 C   0  0  0  0  0  0  0  0  0  0  0  0
    2.7500    0.7000    0.0000 N   0  0  0  0  0  0  0  0  0  0  0  0
    1.9542   -2.9625    0.0000 C   0  0  0  0  0  0  0  0  0  0  0  0
   -0.8833   -2.9667    0.0000 O   0  0  0  0  0  0  0  0  0  0  0  0
   -0.8333   -0.4792    0.0000 O   0  0  0  0  0  0  0  0  0  0  0  0
   -0.0875    0.7458    0.0000 C   0  0  0  0  0  0  0  0  0  0  0  0
   -0.7625    2.0250    0.0000 C   0  0  0  0  0  0  0  0  0  0  0  0
   -2.2125    2.0625    0.0000 C   0  0  0  0  0  0  0  0  0  0  0  0
   -2.9083    3.3333    0.0000 C   0  0  0  0  0  0  0  0  0  0  0  0
  2  1  1  0
  3  1  1  0
  4  3  3  0
  5  1  2  0
  6  2  2  0
  7  2  1  0
  8  7  1  0
  9  8  1  0
 10  9  1  0
 11 10  1  0
M  END
> <chembl_id>
CHEMBL2104251

> <chembl_pref_name>
ENBUCRILATE
