
     RDKit          2D

 43 43  0  0  0  0  0  0  0  0999 V2000
    1.2208   -0.8750    0.0000 C   0  0  0  0  0  0  0  0  0  0  0  0
   -0.0042   -1.5875    0.0000 C   0  0  0  0  0  0  0  0  0  0  0  0
    1.2208   -1.5875    0.0000 C   0  0  0  0  0  0  0  0  0  0  0  0
    0.6083   -0.5208    0.0000 C   0  0  0  0  0  0  0  0  0  0  0  0
    0.6083   -1.9417    0.0000 C   0  0  0  0  0  0  0  0  0  0  0  0
   -0.0042   -0.8750    0.0000 C   0  0  0  0  0  0  0  0  0  0  0  0
    1.8333   -0.5167    0.0000 O   0  0  0  0  0  0  0  0  0  0  0  0
    1.8375   -1.9333    0.0000 O   0  0  0  0  0  0  0  0  0  0  0  0
    5.5125   -0.5042    0.0000 O   0  0  0  0  0  0  0  0  0  0  0  0
    7.3542   -0.8542    0.0000 O   0  0  0  0  0  0  0  0  0  0  0  0
    9.1917   -0.4917    0.0000 O   0  0  0  0  0  0  0  0  0  0  0  0
    9.1958   -1.9083    0.0000 O   0  0  0  0  0  0  0  0  0  0  0  0
    7.3542   -1.5625    0.0000 O   0  0  0  0  0  0  0  0  0  0  0  0
    5.5167   -1.9208    0.0000 O   0  0  0  0  0  0  0  0  0  0  0  0
    3.6750   -1.5750    0.0000 O   0  0  0  0  0  0  0  0  0  0  0  0
    3.6750   -0.8667    0.0000 O   0  0  0  0  0  0  0  0  0  0  0  0
    2.4500   -1.5792    0.0000 C   0  0  0  0  0  0  0  0  0  0  0  0
   -0.6167   -1.9417    0.0000 C   0  0  0  0  0  0  0  0  0  0  0  0
    2.4458   -0.8708    0.0000 C   0  0  0  0  0  0  0  0  0  0  0  0
    3.0625   -1.9292    0.0000 C   0  0  0  0  0  0  0  0  0  0  0  0
    9.8083   -0.8458    0.0000 C   0  0  0  0  0  0  0  0  0  0  0  0
    9.8083   -1.5542    0.0000 C   0  0  0  0  0  0  0  0  0  0  0  0
    3.0583   -0.5125    0.0000 C   0  0  0  0  0  0  0  0  0  0  0  0
    8.5833   -1.5583    0.0000 C   0  0  0  0  0  0  0  0  0  0  0  0
    7.9708   -1.9125    0.0000 C   0  0  0  0  0  0  0  0  0  0  0  0
    6.1250   -0.8583    0.0000 C   0  0  0  0  0  0  0  0  0  0  0  0
    6.7458   -1.9167    0.0000 C   0  0  0  0  0  0  0  0  0  0  0  0
    6.1292   -1.5667    0.0000 C   0  0  0  0  0  0  0  0  0  0  0  0
    6.7375   -0.5000    0.0000 C   0  0  0  0  0  0  0  0  0  0  0  0
    4.9042   -1.5708    0.0000 C   0  0  0  0  0  0  0  0  0  0  0  0
    4.2917   -1.9250    0.0000 C   0  0  0  0  0  0  0  0  0  0  0  0
    4.2875   -0.5083    0.0000 C   0  0  0  0  0  0  0  0  0  0  0  0
    7.9667   -0.4958    0.0000 C   0  0  0  0  0  0  0  0  0  0  0  0
    8.5792   -0.8500    0.0000 C   0  0  0  0  0  0  0  0  0  0  0  0
    4.9000   -0.8625    0.0000 C   0  0  0  0  0  0  0  0  0  0  0  0
   -1.2333   -1.5875    0.0000 C   0  0  0  0  0  0  0  0  0  0  0  0
    0.6083   -2.6500    0.0000 C   0  0  0  0  0  0  0  0  0  0  0  0
   -0.0042   -3.0042    0.0000 C   0  0  0  0  0  0  0  0  0  0  0  0
   -1.2333   -3.0042    0.0000 C   0  0  0  0  0  0  0  0  0  0  0  0
   -0.6167   -2.6500    0.0000 C   0  0  0  0  0  0  0  0  0  0  0  0
   -1.8458   -1.9417    0.0000 C   0  0  0  0  0  0  0  0  0  0  0  0
   -1.8458   -2.6500    0.0000 C   0  0  0  0  0  0  0  0  0  0  0  0
    1.2208   -3.0042    0.0000 C   0  0  0  0  0  0  0  0  0  0  0  0
  2  5  1  0
  3  1  1  0
  4  1  2  0
  5  3  2  0
  6  4  1  0
  7  1  1  0
  8 17  1  0
  9 35  1  0
 10 29  1  0
 11 34  1  0
 12 22  1  0
 13 25  1  0
 14 28  1  0
 15 31  1  0
 16 23  1  0
 17 20  1  0
 18  2  1  0
 19  7  1  0
 20 15  1  0
 21 11  1  0
 22 21  1  0
 23 19  1  0
 24 12  1  0
 25 24  1  0
 26  9  1  0
 27 13  1  0
 28 27  1  0
 29 26  1  0
 30 14  1  0
 31 30  1  0
 32 16  1  0
 33 10  1  0
 34 33  1  0
 35 32  1  0
 36 18  1  0
 37 38  1  0
 38 40  1  0
 39 42  1  0
 40 39  1  0
 41 36  1  0
 42 41  1  0
 43 37  1  0
  2  6  2  0
M  END
> <chembl_id>
CHEMBL1410

> <chembl_pref_name>
NONOXYNOL 9
