
     RDKit          2D

 19 19  0  0  1  0  0  0  0  0999 V2000
    2.1917   -4.0417    0.0000 C   0  0  0  0  0  0  0  0  0  0  0  0
    2.8125   -4.4167    0.0000 C   0  0  0  0  0  0  0  0  0  0  0  0
    5.2542   -5.1667    0.0000 C   0  0  0  0  0  0  0  0  0  0  0  0
    5.8750   -5.5375    0.0000 N   0  0  0  0  0  0  0  0  0  0  0  0
    2.1917   -3.3292    0.0000 O   0  0  0  0  0  0  0  0  0  0  0  0
    3.4292   -4.0708    0.0000 C   0  0  0  0  0  0  0  0  0  0  0  0
    4.6375   -5.5167    0.0000 C   0  0  0  0  0  0  0  0  0  0  0  0
    5.2542   -4.4667    0.0000 C   0  0  0  0  0  0  0  0  0  0  0  0
    4.0500   -4.4417    0.0000 C   0  0  0  0  0  0  0  0  0  0  0  0
    2.8000   -5.1167    0.0000 N   0  0  0  0  0  0  0  0  0  0  0  0
    1.5667   -4.3667    0.0000 O   0  0  0  0  0  0  0  0  0  0  0  0
    4.6667   -4.1125    0.0000 C   0  0  0  0  0  0  0  0  0  0  0  0
    4.0375   -5.1625    0.0000 C   0  0  0  0  0  0  0  0  0  0  0  0
    7.1000   -6.2625    0.0000 Cl  0  0  0  0  0  0  0  0  0  0  0  0
    7.7292   -5.2250    0.0000 Cl  0  0  0  0  0  0  0  0  0  0  0  0
    6.4917   -5.2000    0.0000 C   0  0  0  0  0  0  0  0  0  0  0  0
    5.8667   -6.2542    0.0000 C   0  0  0  0  0  0  0  0  0  0  0  0
    7.1042   -5.5667    0.0000 C   0  0  0  0  0  0  0  0  0  0  0  0
    6.4792   -6.6167    0.0000 C   0  0  0  0  0  0  0  0  0  0  0  0
  2  1  1  0
  3  7  2  0
  4  3  1  0
  5  1  2  0
  6  2  1  0
  7 13  1  0
  8 12  2  0
  9  6  1  0
  2 10  1  6
 11  1  1  0
 12  9  1  0
 13  9  2  0
 14 19  1  0
 15 18  1  0
 16  4  1  0
 17  4  1  0
 18 16  1  0
 19 17  1  0
  3  8  1  0
M  END
> <chembl_id>
CHEMBL852

> <chembl_pref_name>
MELPHALAN
