
     RDKit          2D

 10 10  0  0  0  0  0  0  0  0999 V2000
    0.4000   -0.5625    0.0000 N   0  0  0  0  0  0  0  0  0  0  0  0
    1.3667   -0.0042    0.0000 C   0  0  0  0  0  0  0  0  0  0  0  0
    3.2792   -0.0042    0.0000 N   0  0  0  0  0  0  0  0  0  0  0  0
    2.3167   -0.5625    0.0000 C   0  0  0  0  0  0  0  0  0  0  0  0
    0.4000   -1.6667    0.0000 C   0  0  0  0  0  0  0  0  0  0  0  0
   -0.5625   -0.0042    0.0000 C   0  0  0  0  0  0  0  0  0  0  0  0
    4.2625   -0.5625    0.0000 O   0  0  0  0  0  0  0  0  0  0  0  0
    1.3667    1.1208    0.0000 C   0  0  0  0  0  0  0  0  0  0  0  0
   -0.5625    1.1208    0.0000 C   0  0  0  0  0  0  0  0  0  0  0  0
    0.4000    1.6708    0.0000 C   0  0  0  0  0  0  0  0  0  0  0  0
  2  1  2  0
  4  3  2  3
  4  2  1  0
  5  1  1  0
  6  1  1  0
  7  3  1  0
  8  2  1  0
  9  6  2  0
 10  9  1  0
  8 10  2  0
M  CHG  1   1   1
M  END
> <chembl_id>
CHEMBL1420

> <chembl_pref_name>
PRALIDOXIME
