
     RDKit          2D

 17 17  0  0  0  0  0  0  0  0999 V2000
    5.7417   -8.0292    0.0000 Cl  0  0  0  0  0  0  0  0  0  0  0  0
    3.6292   -7.4417    0.0000 N   0  0  0  0  0  0  0  0  0  0  0  0
    4.2375   -7.0875    0.0000 C   0  0  0  0  0  0  0  0  0  0  0  0
    4.8542   -7.4417    0.0000 C   0  0  0  0  0  0  0  0  0  0  0  0
    5.4625   -7.0792    0.0000 N   0  0  0  0  0  0  0  0  0  0  0  0
    6.0750   -7.4375    0.0000 N   0  0  0  0  0  0  0  0  0  0  0  0
    3.6292   -8.1542    0.0000 C   0  0  0  0  0  0  0  0  0  0  0  0
    4.8542   -8.1500    0.0000 C   0  0  0  0  0  0  0  0  0  0  0  0
    4.2292   -6.3875    0.0000 N   0  0  0  0  0  0  0  0  0  0  0  0
    4.2500   -8.5042    0.0000 C   0  0  0  0  0  0  0  0  0  0  0  0
    3.0125   -8.5167    0.0000 N   0  0  0  0  0  0  0  0  0  0  0  0
    6.6917   -7.0792    0.0000 C   0  0  0  0  0  0  0  0  0  0  0  0
    6.6792   -6.3667    0.0000 C   0  0  0  0  0  0  0  0  0  0  0  0
    7.3042   -7.4292    0.0000 C   0  0  0  0  0  0  0  0  0  0  0  0
    7.3042   -6.0042    0.0000 C   0  0  0  0  0  0  0  0  0  0  0  0
    7.9250   -7.0750    0.0000 C   0  0  0  0  0  0  0  0  0  0  0  0
    7.9250   -6.3625    0.0000 C   0  0  0  0  0  0  0  0  0  0  0  0
  3  2  2  0
  4  3  1  0
  5  4  1  0
  6  5  2  0
  7  2  1  0
  8 10  1  0
  9  3  1  0
 10  7  2  0
 11  7  1  0
 12  6  1  0
 13 12  1  0
 14 12  2  0
 15 13  2  0
 16 14  1  0
 17 15  1  0
  8  4  2  0
 17 16  2  0
M  END
> <chembl_id>
CHEMBL1201022

> <chembl_pref_name>
PHENAZOPYRIDINE HYDROCHLORIDE
