
     RDKit          2D

 15 14  0  0  0  0  0  0  0  0999 V2000
    7.4542   -5.8417    0.0000 Na  0  0  0  0  0 15  0  0  0  0  0  0
    4.3542   -5.8042    0.0000 C   0  0  0  0  0  0  0  0  0  0  0  0
    4.9667   -5.4500    0.0000 N   0  0  0  0  0  0  0  0  0  0  0  0
    6.1917   -5.4375    0.0000 C   0  0  0  0  0  0  0  0  0  0  0  0
    3.7417   -5.4625    0.0000 C   0  0  0  0  0  0  0  0  0  0  0  0
    6.8167   -5.7875    0.0000 O   0  0  0  0  0  0  0  0  0  0  0  0
    4.3542   -6.5167    0.0000 O   0  0  0  0  0  0  0  0  0  0  0  0
    6.2000   -4.7167    0.0000 O   0  0  0  0  0  0  0  0  0  0  0  0
    5.5917   -5.7917    0.0000 C   0  0  0  0  0  0  0  0  0  0  0  0
    3.1292   -5.8167    0.0000 C   0  0  0  0  0  0  0  0  0  0  0  0
    3.7292   -4.7542    0.0000 C   0  0  0  0  0  0  0  0  0  0  0  0
    2.5000   -4.7625    0.0000 C   0  0  0  0  0  0  0  0  0  0  0  0
    1.8750   -4.4125    0.0000 N   0  0  0  0  0  0  0  0  0  0  0  0
    2.5042   -5.4667    0.0000 C   0  0  0  0  0  0  0  0  0  0  0  0
    3.1125   -4.4000    0.0000 C   0  0  0  0  0  0  0  0  0  0  0  0
  3  2  1  0
  4  9  1  0
  5  2  1  0
  6  4  1  0
  7  2  2  0
  8  4  2  0
  9  3  1  0
 10  5  2  0
 11  5  1  0
 12 15  1  0
 13 12  1  0
 14 10  1  0
 15 11  2  0
 12 14  2  0
M  CHG  2   1   1   6  -1
M  END
> <chembl_id>
CHEMBL1200365

> <chembl_pref_name>
AMINOHIPPURATE SODIUM
