
     RDKit          2D

 21 22  0  0  0  0  0  0  0  0999 V2000
    2.4458   -6.1500    0.0000 N   0  0  0  0  0  0  0  0  0  0  0  0
    2.4458   -5.4417    0.0000 O   0  0  0  0  0  0  0  0  0  0  0  0
    1.8333   -6.5042    0.0000 O   0  0  0  0  0  0  0  0  0  0  0  0
    3.0667   -6.5042    0.0000 C   0  0  0  0  0  0  0  0  0  0  0  0
    3.6417   -6.0833    0.0000 S   0  0  0  0  0  0  0  0  0  0  0  0
    3.2875   -7.1750    0.0000 C   0  0  0  0  0  0  0  0  0  0  0  0
    4.2125   -6.5042    0.0000 C   0  0  0  0  0  0  0  0  0  0  0  0
    3.9958   -7.1750    0.0000 N   0  0  0  0  0  0  0  0  0  0  0  0
    4.8250   -6.1500    0.0000 N   0  0  0  0  0  0  0  0  0  0  0  0
    5.4417   -6.5042    0.0000 C   0  0  0  0  0  0  0  0  0  0  0  0
    6.0542   -6.1500    0.0000 C   0  0  0  0  0  0  0  0  0  0  0  0
    5.4417   -7.2125    0.0000 O   0  0  0  0  0  0  0  0  0  0  0  0
    6.6667   -6.5042    0.0000 C   0  0  0  0  0  0  0  0  0  0  0  0
    6.0542   -5.4375    0.0000 C   0  0  0  0  0  0  0  0  0  0  0  0
    6.6708   -7.2125    0.0000 O   0  0  0  0  0  0  0  0  0  0  0  0
    7.2792   -6.1500    0.0000 C   0  0  0  0  0  0  0  0  0  0  0  0
    6.6667   -5.0833    0.0000 C   0  0  0  0  0  0  0  0  0  0  0  0
    7.2833   -7.5667    0.0000 C   0  0  0  0  0  0  0  0  0  0  0  0
    7.2792   -5.4375    0.0000 C   0  0  0  0  0  0  0  0  0  0  0  0
    7.2833   -8.2750    0.0000 O   0  0  0  0  0  0  0  0  0  0  0  0
    7.8958   -7.2125    0.0000 C   0  0  0  0  0  0  0  0  0  0  0  0
  2  1  1  0
  1  3  2  0
  1  4  1  0
  5  4  1  0
  6  4  2  0
  7  5  1  0
  8  6  1  0
  9  7  1  0
  7  8  2  0
 10  9  1  0
 11 10  1  0
 12 10  2  0
 13 11  2  0
 14 11  1  0
 15 13  1  0
 16 13  1  0
 17 14  2  0
 18 15  1  0
 19 16  2  0
 17 19  1  0
 20 18  2  0
 21 18  1  0
M  CHG  2   1   1   2  -1
M  END
> <chembl_id>
CHEMBL1401

> <chembl_pref_name>
NITAZOXANIDE
