
     RDKit          2D

 77 82  0  0  1  0  0  0  0  0999 V2000
    1.7991   -3.2786    0.0000 C   0  0  0  0  0  0  0  0  0  0  0  0
    2.3716   -3.4579    0.0000 C   0  0  0  0  0  0  0  0  0  0  0  0
    1.3957   -2.8510    0.0000 C   0  0  0  0  0  0  0  0  0  0  0  0
    1.4612   -3.7613    0.0000 C   0  0  0  0  0  0  0  0  0  0  0  0
    2.3716   -4.0544    0.0000 C   0  0  0  0  0  0  0  0  0  0  0  0
    2.8750   -3.1648    0.0000 C   0  0  0  0  0  0  0  0  0  0  0  0
    1.3957   -2.1337    0.0000 C   0  0  0  0  0  0  0  0  0  0  0  0
    1.7991   -4.2372    0.0000 N   0  0  0  0  0  0  0  0  0  0  0  0
    2.8750   -4.3544    0.0000 C   0  0  0  0  0  0  0  0  0  0  0  0
    3.3957   -3.4579    0.0000 C   0  0  0  0  0  0  0  0  0  0  0  0
    0.8888   -1.8406    0.0000 N   0  0  0  0  0  0  0  0  0  0  0  0
    1.8991   -1.8406    0.0000 C   0  0  0  0  0  0  0  0  0  0  0  0
    3.3957   -4.0544    0.0000 C   0  0  0  0  0  0  0  0  0  0  0  0
    0.3853   -2.1061    0.0000 C   0  0  0  0  0  0  0  0  0  0  0  0
    2.4233   -2.1337    0.0000 N   0  0  0  0  0  0  0  0  0  0  0  0
    1.8991   -1.2682    0.0000 O   0  0  0  0  0  0  0  0  0  0  0  0
   -0.0698   -1.8130    0.0000 C   0  0  0  0  0  0  0  0  0  0  0  0
    0.3853   -2.7061    0.0000 O   0  0  0  0  0  0  0  0  0  0  0  0
    2.9784   -1.8130    0.0000 C   0  0  0  0  0  0  0  0  0  0  0  0
   -0.0698   -1.1027    0.0000 C   0  0  0  0  0  0  0  0  0  0  0  0
   -0.5905   -2.1648    0.0000 N   0  0  0  0  0  0  0  0  0  0  0  0
    3.4716   -2.0855    0.0000 C   0  0  0  0  0  0  0  0  0  0  0  0
    2.9784   -1.1889    0.0000 C   0  0  0  0  0  0  0  0  0  0  0  0
    0.4233   -0.7992    0.0000 C   0  0  0  0  0  0  0  0  0  0  0  0
   -1.2422   -2.1648    0.0000 C   0  0  0  0  0  0  0  0  0  0  0  0
    3.9647   -1.8130    0.0000 N   0  0  0  0  0  0  0  0  0  0  0  0
    3.4716   -2.7475    0.0000 O   0  0  0  0  0  0  0  0  0  0  0  0
    3.4302   -0.9027    0.0000 C   0  0  0  0  0  0  0  0  0  0  0  0
    0.8991   -1.1027    0.0000 C   0  0  0  0  0  0  0  0  0  0  0  0
    0.4233   -0.2165    0.0000 C   0  0  0  0  0  0  0  0  0  0  0  0
   -1.7836   -1.8510    0.0000 C   0  0  0  0  0  0  0  0  0  0  0  0
   -1.3698   -2.6786    0.0000 O   0  0  0  0  0  0  0  0  0  0  0  0
    4.4474   -2.1061    0.0000 C   0  0  0  0  0  0  0  0  0  0  0  0
    3.4302   -0.3337    0.0000 C   0  0  0  0  0  0  0  0  0  0  0  0
    1.4060   -0.7992    0.0000 C   0  0  0  0  0  0  0  0  0  0  0  0
    0.8991    0.0835    0.0000 C   0  0  0  0  0  0  0  0  0  0  0  0
   -2.3560   -2.1648    0.0000 N   0  0  0  0  0  0  0  0  0  0  0  0
   -1.7836    0.5628    0.0000 C   0  0  0  0  0  0  0  0  0  0  0  0
    4.9647   -1.8234    0.0000 C   0  0  0  0  0  0  0  0  0  0  0  0
    4.4474   -2.8234    0.0000 C   0  0  0  0  0  0  0  0  0  0  0  0
    3.9267   -0.0372    0.0000 C   0  0  0  0  0  0  0  0  0  0  0  0
    1.4060   -0.2165    0.0000 C   0  0  0  0  0  0  0  0  0  0  0  0
   -2.8491   -1.8510    0.0000 C   0  0  0  0  0  0  0  0  0  0  0  0
   -1.2112    0.8904    0.0000 S   0  0  0  0  0  0  0  0  0  0  0  0
    5.4405   -2.1061    0.0000 N   0  0  0  0  0  0  0  0  0  0  0  0
    4.9647   -1.2510    0.0000 O   0  0  0  0  0  0  0  0  0  0  0  0
    4.9405   -3.1061    0.0000 C   0  0  0  0  0  0  0  0  0  0  0  0
    3.9647   -3.1061    0.0000 C   0  0  0  0  0  0  0  0  0  0  0  0
    4.4164   -0.3165    0.0000 N   0  0  0  0  0  0  0  0  0  0  0  0
    1.8991    0.0835    0.0000 O   0  0  0  0  0  0  0  0  0  0  0  0
   -3.3422   -2.1648    0.0000 C   0  0  0  0  0  0  0  0  0  0  0  0
   -2.8491   -1.3337    0.0000 O   0  0  0  0  0  0  0  0  0  0  0  0
    5.3957    0.8904    0.0000 S   0  0  0  0  0  0  0  0  0  0  0  0
    5.9474   -1.8406    0.0000 C   0  0  0  0  0  0  0  0  0  0  0  0
   -3.3422   -2.9958    0.0000 C   0  0  0  0  0  0  0  0  0  0  0  0
   -3.8353   -1.8510    0.0000 N   0  0  0  0  0  0  0  0  0  0  0  0
    5.9647    0.5456    0.0000 C   0  0  0  0  0  0  0  0  0  0  0  0
    6.4578   -2.1648    0.0000 C   0  0  0  0  0  0  0  0  0  0  0  0
   -2.8629   -3.2682    0.0000 C   0  0  0  0  0  0  0  0  0  0  0  0
    6.9647   -1.8820    0.0000 N   0  0  0  0  0  0  0  0  0  0  0  0
    6.4578   -2.7372    0.0000 O   0  0  0  0  0  0  0  0  0  0  0  0
   -2.3560   -2.9958    0.0000 C   0  0  0  0  0  0  0  0  0  0  0  0
   -2.8629   -3.8406    0.0000 C   0  0  0  0  0  0  0  0  0  0  0  0
    7.4405   -2.1751    0.0000 C   0  0  0  0  0  0  0  0  0  0  0  0
   -1.8629   -3.2682    0.0000 C   0  0  0  0  0  0  0  0  0  0  0  0
   -2.3422   -4.1337    0.0000 C   0  0  0  0  0  0  0  0  0  0  0  0
    7.4405   -2.8820    0.0000 C   0  0  0  0  0  0  0  0  0  0  0  0
    7.9371   -1.8889    0.0000 C   0  0  0  0  0  0  0  0  0  0  0  0
   -1.8629   -3.8406    0.0000 C   0  0  0  0  0  0  0  0  0  0  0  0
   -1.3698   -2.9820    0.0000 C   0  0  0  0  0  0  0  0  0  0  0  0
    7.9129   -3.1475    0.0000 C   0  0  0  0  0  0  0  0  0  0  0  0
    6.9474   -3.1475    0.0000 O   0  0  0  0  0  0  0  0  0  0  0  0
    8.4405   -2.1751    0.0000 N   0  0  0  0  0  0  0  0  0  0  0  0
    7.9371   -1.3165    0.0000 O   0  0  0  0  0  0  0  0  0  0  0  0
   -1.3698   -4.1061    0.0000 C   0  0  0  0  0  0  0  0  0  0  0  0
   -0.8871   -3.2682    0.0000 C   0  0  0  0  0  0  0  0  0  0  0  0
   -0.8871   -3.8406    0.0000 C   0  0  0  0  0  0  0  0  0  0  0  0
  7 12  1  0
  9 13  2  0
 11 14  1  0
 12 15  1  0
 12 16  2  0
 14 17  1  0
 14 18  2  0
 15 19  1  0
 17 20  1  1
 17 21  1  0
 19 22  1  0
 19 23  1  1
 20 24  1  0
 21 25  1  0
 22 26  1  0
 22 27  2  0
 23 28  1  0
 24 29  2  0
 24 30  1  0
 25 31  1  0
 25 32  2  0
 26 33  1  0
 28 34  1  0
 29 35  1  0
 30 36  2  0
 31 37  1  1
 31 38  1  0
 33 39  1  0
 33 40  1  6
 34 41  1  0
 35 42  2  0
 37 43  1  0
 38 44  1  0
 39 45  1  0
 39 46  2  0
 40 47  1  0
 40 48  1  0
 41 49  1  0
 42 50  1  0
 43 51  1  0
 43 52  2  0
 44 53  1  0
 45 54  1  0
 51 55  1  0
 51 56  1  1
 53 57  1  0
 54 58  1  1
 55 59  1  0
 58 60  1  0
 58 61  2  0
 59 62  1  0
 59 63  2  0
 64 60  1  6
 62 65  2  0
 63 66  1  0
 64 67  1  0
 64 68  1  0
 65 69  1  0
 65 70  1  0
 67 71  1  1
 67 72  1  0
 68 73  1  0
 68 74  2  0
 69 75  1  0
 70 76  2  0
 75 77  2  0
  5  8  1  0
 10 13  1  0
 36 42  1  0
 54 57  1  0
 66 69  2  0
 76 77  1  0
  1  2  1  0
  1  3  1  0
  1  4  2  0
  2  5  2  0
  2  6  1  0
  7  3  1  1
  4  8  1  0
  5  9  1  0
  6 10  2  0
  7 11  1  0
M  END
> <chembl_id>
CHEMBL1201185

> <chembl_pref_name>
LANREOTIDE
