
     RDKit          2D

 26 28  0  0  0  0  0  0  0  0999 V2000
    3.9792   -3.1042    0.0000 S   0  0  0  0  0  0  0  0  0  0  0  0
    1.5250   -3.1042    0.0000 N   0  0  0  0  0  0  0  0  0  0  0  0
    2.1292   -3.4625    0.0000 C   0  0  0  0  0  0  0  0  0  0  0  0
    1.5250   -4.5250    0.0000 S   0  0  0  0  0  0  0  0  0  0  0  0
    3.3667   -3.4625    0.0000 C   0  0  0  0  0  0  0  0  0  0  0  0
    2.7500   -3.1042    0.0000 C   0  0  0  0  0  0  0  0  0  0  0  0
    0.9125   -3.4625    0.0000 C   0  0  0  0  0  0  0  0  0  0  0  0
    2.1292   -4.1667    0.0000 C   0  0  0  0  0  0  0  0  0  0  0  0
    1.5250   -2.4000    0.0000 C   0  0  0  0  0  0  0  0  0  0  0  0
    0.9125   -4.1667    0.0000 C   0  0  0  0  0  0  0  0  0  0  0  0
    4.6042   -2.7542    0.0000 N   0  0  0  0  0  0  0  0  0  0  0  0
    3.6292   -2.4917    0.0000 O   0  0  0  0  0  0  0  0  0  0  0  0
    4.3375   -3.7292    0.0000 O   0  0  0  0  0  0  0  0  0  0  0  0
    2.1292   -2.0417    0.0000 C   0  0  0  0  0  0  0  0  0  0  0  0
    3.3667   -4.1667    0.0000 C   0  0  0  0  0  0  0  0  0  0  0  0
    2.7500   -4.5250    0.0000 C   0  0  0  0  0  0  0  0  0  0  0  0
    2.1292   -1.3292    0.0000 N   0  0  0  0  0  0  0  0  0  0  0  0
    0.3000   -3.1042    0.0000 C   0  0  0  0  0  0  0  0  0  0  0  0
    0.3000   -4.5250    0.0000 C   0  0  0  0  0  0  0  0  0  0  0  0
    5.2167   -3.1125    0.0000 C   0  0  0  0  0  0  0  0  0  0  0  0
    4.6042   -2.0417    0.0000 C   0  0  0  0  0  0  0  0  0  0  0  0
    2.7500   -0.9792    0.0000 C   0  0  0  0  0  0  0  0  0  0  0  0
    1.5250   -0.9792    0.0000 C   0  0  0  0  0  0  0  0  0  0  0  0
    2.7542   -2.4000    0.0000 C   0  0  0  0  0  0  0  0  0  0  0  0
   -0.3208   -3.4625    0.0000 C   0  0  0  0  0  0  0  0  0  0  0  0
   -0.3208   -4.1667    0.0000 C   0  0  0  0  0  0  0  0  0  0  0  0
  2  3  1  0
  3  6  1  0
  4  8  1  0
  5  1  1  0
  6  5  2  0
  7  2  1  0
  8 16  1  0
  9  2  1  0
 10  4  1  0
 11  1  1  0
 12  1  2  0
 13  1  2  0
 14  9  1  0
 15  5  1  0
 16 15  2  0
 17 14  1  0
 18  7  1  0
 19 10  1  0
 20 11  1  0
 21 11  1  0
 22 17  1  0
 23 17  1  0
 24 14  1  0
 25 18  2  0
 26 19  2  0
  8  3  2  0
 10  7  2  0
 25 26  1  0
M  END
> <chembl_id>
CHEMBL346977

> <chembl_pref_name>
FONAZINE
