
     RDKit          2D

 26 29  0  0  1  0  0  0  0  0999 V2000
    2.6542   -6.0500    0.0000 C   0  0  0  0  0  0  0  0  0  0  0  0
    2.6667   -7.4750    0.0000 C   0  0  0  0  0  0  0  0  0  0  0  0
    3.2542   -6.3917    0.0000 C   0  0  0  0  0  0  0  0  0  0  0  0
    2.6250   -5.3500    0.0000 C   0  0  0  0  0  0  0  0  0  0  0  0
    2.0292   -6.4042    0.0000 C   0  0  0  0  0  0  0  0  0  0  0  0
    3.2167   -5.0042    0.0000 C   0  0  0  0  0  0  0  0  0  0  0  0
    3.8542   -6.0417    0.0000 N   0  0  0  0  0  0  0  0  0  0  0  0
    2.0417   -7.1125    0.0000 C   0  0  0  0  0  0  0  0  0  0  0  0
    3.1750   -4.2667    0.0000 C   0  0  0  0  0  0  0  0  0  0  0  0
    3.2667   -7.1167    0.0000 C   0  0  0  0  0  0  0  0  0  0  0  0
    2.5042   -8.1542    0.0000 C   0  0  0  0  0  0  0  0  0  0  0  0
    1.6042   -8.1542    0.0000 N   0  0  0  0  0  0  0  0  0  0  0  0
    3.8417   -5.3625    0.0000 C   0  0  0  0  0  0  0  0  0  0  0  0
    3.7542   -3.8542    0.0000 N   0  0  0  0  0  0  0  0  0  0  0  0
    1.4417   -7.5167    0.0000 C   0  0  0  0  0  0  0  0  0  0  0  0
    2.5375   -3.9625    0.0000 O   0  0  0  0  0  0  0  0  0  0  0  0
    1.4250   -6.0625    0.0000 C   0  0  0  0  0  0  0  0  0  0  0  0
    4.4667   -6.3667    0.0000 C   0  0  0  0  0  0  0  0  0  0  0  0
    3.7167   -3.1792    0.0000 C   0  0  0  0  0  0  0  0  0  0  0  0
    4.9167   -3.1292    0.0000 O   0  0  0  0  0  0  0  0  0  0  0  0
    0.8042   -6.4042    0.0000 C   0  0  0  0  0  0  0  0  0  0  0  0
    0.8042   -7.1292    0.0000 C   0  0  0  0  0  0  0  0  0  0  0  0
    4.3250   -2.7917    0.0000 C   0  0  0  0  0  0  0  0  0  0  0  0
    3.0750   -2.8667    0.0000 C   0  0  0  0  0  0  0  0  0  0  0  0
    2.4875   -3.2750    0.0000 C   0  0  0  0  0  0  0  0  0  0  0  0
    3.7667   -6.7667    0.0000 H   0  0  0  0  0  0  0  0  0  0  0  0
  2  8  1  0
  3  1  1  0
  4  1  2  0
  5  1  1  0
  6  4  1  0
  7  3  1  0
  8  5  1  0
  6  9  1  1
 10  3  1  0
 11  2  2  0
 12 15  1  0
 13  6  1  0
 14  9  1  0
 15  8  2  0
 16  9  2  0
 17  5  2  0
 18  7  1  0
 19 14  1  0
 20 23  1  0
 21 17  1  0
 22 21  2  0
 23 19  1  0
 19 24  1  1
 25 24  1  0
  3 26  1  1
 10  2  1  0
 13  7  1  0
 22 15  1  0
 12 11  1  0
M  END
> <chembl_id>
CHEMBL1201356

> <chembl_pref_name>
METHYLERGONOVINE
