
     RDKit          2D

 36 39  0  0  1  0  0  0  0  0999 V2000
    5.7417   -4.7667    0.0000 C   0  0  0  0  0  0  0  0  0  0  0  0
    4.5042   -5.4625    0.0000 C   0  0  0  0  0  0  0  0  0  0  0  0
    6.4167   -4.5542    0.0000 C   0  0  0  0  0  0  0  0  0  0  0  0
    3.8917   -5.8167    0.0000 C   0  0  0  0  0  0  0  0  0  0  0  0
    5.7292   -5.4667    0.0000 C   0  0  0  0  0  0  0  0  0  0  0  0
    5.1167   -5.8167    0.0000 C   0  0  0  0  0  0  0  0  0  0  0  0
    3.8917   -6.5250    0.0000 C   0  0  0  0  0  0  0  0  0  0  0  0
    4.5125   -4.7542    0.0000 C   0  0  0  0  0  0  0  0  0  0  0  0
    5.1292   -4.4042    0.0000 C   0  0  0  0  0  0  0  0  0  0  0  0
    6.8250   -5.1292    0.0000 C   0  0  0  0  0  0  0  0  0  0  0  0
    3.2792   -5.4625    0.0000 C   0  0  0  0  0  0  0  0  0  0  0  0
    6.4042   -5.7000    0.0000 C   0  0  0  0  0  0  0  0  0  0  0  0
    3.2792   -6.8792    0.0000 C   0  0  0  0  0  0  0  0  0  0  0  0
    6.4125   -3.8417    0.0000 C   0  0  0  0  0  0  0  0  0  0  0  0
    7.0292   -4.1917    0.0000 O   0  0  0  0  0  0  0  0  0  0  0  0
    5.1167   -6.5292    0.0000 C   0  0  0  0  0  0  0  0  0  0  0  0
    2.6750   -5.8167    0.0000 C   0  0  0  0  0  0  0  0  0  0  0  0
    2.6750   -6.5250    0.0000 C   0  0  0  0  0  0  0  0  0  0  0  0
    7.7375   -4.1917    0.0000 C   0  0  0  0  0  0  0  0  0  0  0  0
    4.5042   -6.8792    0.0000 C   0  0  0  0  0  0  0  0  0  0  0  0
    4.5042   -6.1667    0.0000 F   0  0  0  0  0  0  0  0  0  0  0  0
    5.7917   -3.4917    0.0000 O   0  0  0  0  0  0  0  0  0  0  0  0
    8.0917   -4.8042    0.0000 O   0  0  0  0  0  0  0  0  0  0  0  0
    2.0542   -6.8750    0.0000 O   0  0  0  0  0  0  0  0  0  0  0  0
    5.7375   -4.0542    0.0000 C   0  0  0  0  0  0  0  0  0  0  0  0
    3.9000   -4.3917    0.0000 O   0  0  0  0  0  0  0  0  0  0  0  0
    3.8917   -5.1042    0.0000 C   0  0  0  0  0  0  0  0  0  0  0  0
    7.5292   -5.1375    0.0000 C   0  0  0  0  0  0  0  0  0  0  0  0
    7.0167   -3.4792    0.0000 C   0  0  0  0  0  0  0  0  0  0  0  0
    7.0167   -2.7750    0.0000 O   0  0  0  0  0  0  0  0  0  0  0  0
    8.0917   -3.5792    0.0000 C   0  0  0  0  0  0  0  0  0  0  0  0
    8.8000   -3.5792    0.0000 C   0  0  0  0  0  0  0  0  0  0  0  0
    9.1542   -2.9667    0.0000 C   0  0  0  0  0  0  0  0  0  0  0  0
    9.8625   -2.9667    0.0000 C   0  0  0  0  0  0  0  0  0  0  0  0
    5.7292   -6.1792    0.0000 H   0  0  0  0  0  0  0  0  0  0  0  0
    5.1167   -5.1125    0.0000 H   0  0  0  0  0  0  0  0  0  0  0  0
  2  8  1  0
  3  1  1  0
  4  2  1  0
  5  1  1  0
  6  5  1  0
  7  4  1  0
  8  9  1  0
  9  1  1  0
 10  3  1  0
 11  4  1  0
 12  5  1  0
 13  7  2  0
 14  3  1  0
  3 15  1  6
 16  6  1  0
 17 11  2  0
 18 17  1  0
 19 15  1  0
 20 16  1  0
  2 21  1  6
 22 14  2  0
 23 19  2  0
 24 18  2  0
  1 25  1  1
  8 26  1  1
  4 27  1  1
 10 28  1  1
 29 14  1  0
 30 29  1  0
 31 19  1  0
 32 31  1  0
 33 32  1  0
 34 33  1  0
  5 35  1  6
  6 36  1  1
 10 12  1  0
  2  6  1  0
 20  7  1  0
 18 13  1  0
M  END
> <chembl_id>
CHEMBL1497

> <chembl_pref_name>
BETAMETHASONE VALERATE
