
     RDKit          2D

 34 31  0  0  0  0  0  0  0  0999 V2000
    7.9848  -15.4393    0.0000 O   0  0  0  0  0  0  0  0  0  0  0  0
    4.6695  -12.0644    0.0000 C   0  0  0  0  0  0  0  0  0  0  0  0
    4.6683  -12.8918    0.0000 C   0  0  0  0  0  0  0  0  0  0  0  0
    5.3831  -13.3045    0.0000 N   0  0  0  0  0  0  0  0  0  0  0  0
    6.0995  -12.8913    0.0000 C   0  0  0  0  0  0  0  0  0  0  0  0
    6.0966  -12.0608    0.0000 C   0  0  0  0  0  0  0  0  0  0  0  0
    5.3813  -11.6516    0.0000 C   0  0  0  0  0  0  0  0  0  0  0  0
    6.8095  -11.6456    0.0000 C   0  0  0  0  0  0  0  0  0  0  0  0
    7.5639  -11.9757    0.0000 N   0  0  0  0  0  0  0  0  0  0  0  0
    8.1137  -11.3606    0.0000 C   0  0  0  0  0  0  0  0  0  0  0  0
    7.6985  -10.6477    0.0000 C   0  0  0  0  0  0  0  0  0  0  0  0
    6.8922  -10.8224    0.0000 C   0  0  0  0  0  0  0  0  0  0  0  0
    7.7396  -12.7817    0.0000 C   0  0  0  0  0  0  0  0  0  0  0  0
    8.3025  -10.3005    0.0000 O   0  0  0  0  0  0  0  0  0  0  0  0
    9.0169  -11.5379    0.0000 O   0  0  0  0  0  0  0  0  0  0  0  0
    9.7314   -9.4754    0.0000 O   0  0  0  0  0  0  0  0  0  0  0  0
   10.4459  -11.5380    0.0000 O   0  0  0  0  0  0  0  0  0  0  0  0
   11.8748  -10.7129    0.0000 O   0  0  0  0  0  0  0  0  0  0  0  0
   11.1604   -9.4755    0.0000 O   0  0  0  0  0  0  0  0  0  0  0  0
    9.0165  -10.7130    0.0000 C   0  0  0  0  0  0  0  0  0  0  0  0
    9.7313  -10.3004    0.0000 C   0  0  0  0  0  0  0  0  0  0  0  0
   10.4460  -10.7130    0.0000 C   0  0  0  0  0  0  0  0  0  0  0  0
   11.1608  -10.3004    0.0000 C   0  0  0  0  0  0  0  0  0  0  0  0
   10.1763  -13.3768    0.0000 O   0  0  0  0  0  0  0  0  0  0  0  0
   10.8907  -14.6142    0.0000 O   0  0  0  0  0  0  0  0  0  0  0  0
   11.6052  -12.5517    0.0000 O   0  0  0  0  0  0  0  0  0  0  0  0
   12.3198  -14.6143    0.0000 O   0  0  0  0  0  0  0  0  0  0  0  0
   13.7487  -13.7893    0.0000 O   0  0  0  0  0  0  0  0  0  0  0  0
   13.0343  -12.5518    0.0000 O   0  0  0  0  0  0  0  0  0  0  0  0
   10.8903  -13.7894    0.0000 C   0  0  0  0  0  0  0  0  0  0  0  0
   11.6051  -13.3767    0.0000 C   0  0  0  0  0  0  0  0  0  0  0  0
   12.3199  -13.7894    0.0000 C   0  0  0  0  0  0  0  0  0  0  0  0
   13.0347  -13.3767    0.0000 C   0  0  0  0  0  0  0  0  0  0  0  0
    8.6330  -13.9955    0.0000 O   0  0  0  0  0  0  0  0  0  0  0  0
  7  2  1  0
  2  3  2  0
  8  6  1  6
  8  9  1  0
  4  5  2  0
  5  6  1  0
  3  4  1  0
  9 10  1  0
 10 11  1  0
 11 12  1  0
  8 12  1  0
  6  7  2  0
  9 13  1  0
 20 15  2  0
 21 16  1  0
 22 17  1  0
 20 14  1  0
 22 23  1  0
 21 22  1  0
 23 19  1  0
 20 21  1  0
 23 18  2  0
 30 25  2  0
 31 26  1  0
 32 27  1  0
 30 24  1  0
 32 33  1  0
 31 32  1  0
 33 29  1  0
 30 31  1  0
 33 28  2  0
M  END
> <chembl_id>
CHEMBL3989563

> <chembl_pref_name>
NICOTINE BITARTRATE
