
     RDKit          2D

 15 15  0  0  0  0  0  0  0  0999 V2000
    5.3792   -4.6625    0.0000 N   0  0  0  0  0  0  0  0  0  0  0  0
    4.7542   -5.0167    0.0000 C   0  0  0  0  0  0  0  0  0  0  0  0
    6.0000   -5.0000    0.0000 C   0  0  0  0  0  0  0  0  0  0  0  0
    4.1375   -4.6667    0.0000 C   0  0  0  0  0  0  0  0  0  0  0  0
    4.7417   -5.7292    0.0000 O   0  0  0  0  0  0  0  0  0  0  0  0
    6.0125   -5.7250    0.0000 C   0  0  0  0  0  0  0  0  0  0  0  0
    3.5167   -5.0292    0.0000 C   0  0  0  0  0  0  0  0  0  0  0  0
    5.3792   -3.9417    0.0000 C   0  0  0  0  0  0  0  0  0  0  0  0
    6.6000   -4.6292    0.0000 C   0  0  0  0  0  0  0  0  0  0  0  0
    5.4167   -6.0917    0.0000 C   0  0  0  0  0  0  0  0  0  0  0  0
    6.6542   -6.0417    0.0000 C   0  0  0  0  0  0  0  0  0  0  0  0
    2.9000   -4.6917    0.0000 C   0  0  0  0  0  0  0  0  0  0  0  0
    5.9792   -3.5917    0.0000 C   0  0  0  0  0  0  0  0  0  0  0  0
    7.2375   -4.9625    0.0000 C   0  0  0  0  0  0  0  0  0  0  0  0
    7.2417   -5.6750    0.0000 C   0  0  0  0  0  0  0  0  0  0  0  0
  2  1  1  0
  3  1  1  0
  4  2  1  0
  5  2  2  0
  6  3  2  0
  7  4  2  0
  8  1  1  0
  9  3  1  0
 10  6  1  0
 11  6  1  0
 12  7  1  0
 13  8  1  0
 14  9  2  0
 15 14  1  0
 15 11  2  0
M  END
> <chembl_id>
CHEMBL1200709

> <chembl_pref_name>
CROTAMITON
