
     RDKit          2D

 35 37  0  0  0  0  0  0  0  0999 V2000
    5.0500   -7.0875    0.0000 S   0  0  0  0  0  0  0  0  0  0  0  0
    3.2125   -7.4417    0.0000 S   0  0  0  0  0  0  0  0  0  0  0  0
    4.4375   -7.4417    0.0000 C   0  0  0  0  0  0  0  0  0  0  0  0
    3.8250   -7.0875    0.0000 C   0  0  0  0  0  0  0  0  0  0  0  0
    2.8542   -8.0542    0.0000 O   0  0  0  0  0  0  0  0  0  0  0  0
    5.4000   -6.4667    0.0000 O   0  0  0  0  0  0  0  0  0  0  0  0
    4.6917   -6.4667    0.0000 O   0  0  0  0  0  0  0  0  0  0  0  0
    3.5625   -8.0542    0.0000 O   0  0  0  0  0  0  0  0  0  0  0  0
    5.6625   -7.4417    0.0000 O   0  0  0  0  0  0  0  0  0  0  0  0
    2.5917   -7.0875    0.0000 O   0  0  0  0  0  0  0  0  0  0  0  0
   -0.8083   -7.6000    0.0000 N   0  0  0  0  0  0  0  0  0  0  0  0
   -0.1833   -7.9625    0.0000 C   0  0  0  0  0  0  0  0  0  0  0  0
   -0.8125   -9.0292    0.0000 S   0  0  0  0  0  0  0  0  0  0  0  0
   -1.4333   -7.9542    0.0000 C   0  0  0  0  0  0  0  0  0  0  0  0
   -0.1958   -8.6792    0.0000 C   0  0  0  0  0  0  0  0  0  0  0  0
   -1.4333   -8.6667    0.0000 C   0  0  0  0  0  0  0  0  0  0  0  0
    0.4375   -7.6042    0.0000 C   0  0  0  0  0  0  0  0  0  0  0  0
    1.0417   -6.5417    0.0000 N   0  0  0  0  0  0  0  0  0  0  0  0
    2.2667   -5.8417    0.0000 N   0  0  0  0  0  0  0  0  0  0  0  0
    0.4292   -9.0417    0.0000 C   0  0  0  0  0  0  0  0  0  0  0  0
   -0.8000   -6.8917    0.0000 C   0  0  0  0  0  0  0  0  0  0  0  0
    1.0542   -7.9667    0.0000 C   0  0  0  0  0  0  0  0  0  0  0  0
    2.2583   -6.5542    0.0000 C   0  0  0  0  0  0  0  0  0  0  0  0
    1.6542   -5.4875    0.0000 C   0  0  0  0  0  0  0  0  0  0  0  0
    1.6500   -6.9042    0.0000 C   0  0  0  0  0  0  0  0  0  0  0  0
    1.0417   -5.8375    0.0000 C   0  0  0  0  0  0  0  0  0  0  0  0
   -0.1875   -6.5417    0.0000 C   0  0  0  0  0  0  0  0  0  0  0  0
    1.0542   -8.6875    0.0000 C   0  0  0  0  0  0  0  0  0  0  0  0
    1.6792   -7.6125    0.0000 Cl  0  0  0  0  0  0  0  0  0  0  0  0
    0.4250   -6.8917    0.0000 C   0  0  0  0  0  0  0  0  0  0  0  0
   -2.0500   -7.5917    0.0000 C   0  0  0  0  0  0  0  0  0  0  0  0
   -2.0583   -9.0292    0.0000 C   0  0  0  0  0  0  0  0  0  0  0  0
    2.8875   -5.5000    0.0000 C   0  0  0  0  0  0  0  0  0  0  0  0
   -2.6708   -7.9417    0.0000 C   0  0  0  0  0  0  0  0  0  0  0  0
   -2.6750   -8.6625    0.0000 C   0  0  0  0  0  0  0  0  0  0  0  0
  2  4  1  0
  3  1  1  0
  4  3  1  0
  5  2  2  0
  6  1  2  0
  7  1  2  0
  8  2  2  0
  9  1  1  0
 10  2  1  0
 12 11  1  0
 13 16  1  0
 14 11  1  0
 15 12  1  0
 16 14  2  0
 17 12  2  0
 18 30  1  0
 19 24  1  0
 20 15  2  0
 21 11  1  0
 22 17  1  0
 23 25  1  0
 24 26  1  0
 25 18  1  0
 26 18  1  0
 27 21  1  0
 28 22  2  0
 29 22  1  0
 30 27  1  0
 31 14  1  0
 32 16  1  0
 33 19  1  0
 34 31  2  0
 35 32  2  0
 13 15  1  0
 34 35  1  0
 28 20  1  0
 19 23  1  0
M  END
> <chembl_id>
CHEMBL1201154

> <chembl_pref_name>
PROCHLORPERAZINE EDISYLATE
