
     RDKit          2D

  2  0  0  0  0  0  0  0  0  0999 V2000
    4.2042   -6.3125    0.0000 Na  0  0  0  0  0 15  0  0  0  0  0  0
    5.2292   -6.3125    0.0000 Cl  0  0  0  0  0  0  0  0  0  0  0  0
M  CHG  2   1   1   2  -1
M  END
> <chembl_id>
CHEMBL1200574

> <chembl_pref_name>
SODIUM CHLORIDE
