
     RDKit          2D

 19 20  0  0  0  0  0  0  0  0999 V2000
    2.1750   -3.0292    0.0000 C   0  0  0  0  0  0  0  0  0  0  0  0
    2.7875   -3.3875    0.0000 C   0  0  0  0  0  0  0  0  0  0  0  0
    1.5625   -3.3917    0.0000 C   0  0  0  0  0  0  0  0  0  0  0  0
    2.7875   -4.0917    0.0000 N   0  0  0  0  0  0  0  0  0  0  0  0
    3.4000   -3.0292    0.0000 C   0  0  0  0  0  0  0  0  0  0  0  0
    0.9417   -3.0417    0.0000 C   0  0  0  0  0  0  0  0  0  0  0  0
    1.5625   -4.1042    0.0000 C   0  0  0  0  0  0  0  0  0  0  0  0
    0.3292   -4.1042    0.0000 C   0  0  0  0  0  0  0  0  0  0  0  0
    1.6667   -2.5292    0.0000 C   0  0  0  0  0  0  0  0  0  0  0  0
    2.6750   -2.5292    0.0000 C   0  0  0  0  0  0  0  0  0  0  0  0
    0.3292   -3.3917    0.0000 C   0  0  0  0  0  0  0  0  0  0  0  0
    0.9417   -4.4625    0.0000 C   0  0  0  0  0  0  0  0  0  0  0  0
   -0.2833   -4.4625    0.0000 Cl  0  0  0  0  0  0  0  0  0  0  0  0
    2.1667   -2.0292    0.0000 C   0  0  0  0  0  0  0  0  0  0  0  0
    4.0167   -3.3875    0.0000 C   0  0  0  0  0  0  0  0  0  0  0  0
    3.4042   -4.4458    0.0000 C   0  0  0  0  0  0  0  0  0  0  0  0
    2.1750   -4.4458    0.0000 C   0  0  0  0  0  0  0  0  0  0  0  0
    4.6292   -3.0292    0.0000 C   0  0  0  0  0  0  0  0  0  0  0  0
    4.0167   -4.0917    0.0000 C   0  0  0  0  0  0  0  0  0  0  0  0
  2  1  1  0
  3  1  1  0
  4  2  1  0
  5  2  1  0
  6  3  2  0
  7  3  1  0
  8 12  1  0
  9  1  1  0
 10  1  1  0
 11  6  1  0
 12  7  2  0
 13  8  1  0
 14 10  1  0
 15  5  1  0
 16  4  1  0
 17  4  1  0
 18 15  1  0
 19 15  1  0
 14  9  1  0
  8 11  2  0
M  END
> <chembl_id>
CHEMBL1419

> <chembl_pref_name>
SIBUTRAMINE
