
     RDKit          2D

 22 23  0  0  0  0  0  0  0  0999 V2000
    5.8750   -5.8625    0.0000 S   0  0  0  0  0  0  0  0  0  0  0  0
    5.2500   -5.5000    0.0000 N   0  0  0  0  0  0  0  0  0  0  0  0
    4.6292   -5.8625    0.0000 C   0  0  0  0  0  0  0  0  0  0  0  0
    6.4917   -5.5000    0.0000 C   0  0  0  0  0  0  0  0  0  0  0  0
    5.5167   -6.4750    0.0000 O   0  0  0  0  0  0  0  0  0  0  0  0
    6.2250   -6.4750    0.0000 O   0  0  0  0  0  0  0  0  0  0  0  0
    4.0167   -5.4917    0.0000 N   0  0  0  0  0  0  0  0  0  0  0  0
    7.7042   -4.8125    0.0000 C   0  0  0  0  0  0  0  0  0  0  0  0
    8.3208   -4.4375    0.0000 C   0  0  0  0  0  0  0  0  0  0  0  0
    4.6292   -6.5625    0.0000 O   0  0  0  0  0  0  0  0  0  0  0  0
    7.1208   -5.8625    0.0000 C   0  0  0  0  0  0  0  0  0  0  0  0
    6.4958   -4.8167    0.0000 C   0  0  0  0  0  0  0  0  0  0  0  0
    8.3167   -3.7250    0.0000 O   0  0  0  0  0  0  0  0  0  0  0  0
    7.7167   -5.5125    0.0000 C   0  0  0  0  0  0  0  0  0  0  0  0
    7.1167   -4.4542    0.0000 C   0  0  0  0  0  0  0  0  0  0  0  0
    3.4000   -5.8375    0.0000 C   0  0  0  0  0  0  0  0  0  0  0  0
    8.9458   -4.7792    0.0000 C   0  0  0  0  0  0  0  0  0  0  0  0
    2.7875   -5.4750    0.0000 C   0  0  0  0  0  0  0  0  0  0  0  0
    3.4000   -6.5500    0.0000 C   0  0  0  0  0  0  0  0  0  0  0  0
    2.1542   -5.8250    0.0000 C   0  0  0  0  0  0  0  0  0  0  0  0
    2.7792   -6.9000    0.0000 C   0  0  0  0  0  0  0  0  0  0  0  0
    2.1667   -6.5500    0.0000 C   0  0  0  0  0  0  0  0  0  0  0  0
  2  1  1  0
  3  2  1  0
  4  1  1  0
  5  1  2  0
  6  1  2  0
  7  3  1  0
  8 15  2  0
  9  8  1  0
 10  3  2  0
 11  4  1  0
 12  4  2  0
 13  9  2  0
 14 11  2  0
 15 12  1  0
 16  7  1  0
 17  9  1  0
 18 16  1  0
 19 16  1  0
 20 18  1  0
 21 19  1  0
 22 21  1  0
 14  8  1  0
 20 22  1  0
M  END
> <chembl_id>
CHEMBL1589

> <chembl_pref_name>
ACETOHEXAMIDE
