
     RDKit          2D

 44 47  0  0  0  0  0  0  0  0999 V2000
    8.2417   -8.7125    0.0000 Na  0  0  0  0  0 15  0  0  0  0  0  0
    6.2375   -7.3125    0.0000 N   0  0  0  0  0  0  0  0  0  0  0  0
    5.5292   -7.3125    0.0000 C   0  0  0  0  0  0  0  0  0  0  0  0
    5.5292   -6.6042    0.0000 C   0  0  0  0  0  0  0  0  0  0  0  0
    6.2375   -6.6042    0.0000 C   0  0  0  0  0  0  0  0  0  0  0  0
    9.3000   -7.6625    0.0000 C   0  0  0  0  0  0  0  0  0  0  0  0
    6.8458   -7.6667    0.0000 C   0  0  0  0  0  0  0  0  0  0  0  0
    9.8792   -7.2458    0.0000 N   0  0  0  0  0  0  0  0  0  0  0  0
    9.5208   -8.3417    0.0000 N   0  0  0  0  0  0  0  0  0  0  0  0
   10.2333   -8.3417    0.0000 N   0  0  0  0  0  0  0  0  0  0  0  0
   10.4500   -7.6625    0.0000 N   0  0  0  0  0  0  0  0  0  0  0  0
    4.9125   -6.2500    0.0000 N   0  0  0  0  0  0  0  0  0  0  0  0
    2.4583   -6.2542    0.0000 C   0  0  0  0  0  0  0  0  0  0  0  0
    6.8458   -6.2500    0.0000 S   0  0  0  0  0  0  0  0  0  0  0  0
    1.8458   -6.6083    0.0000 C   0  0  0  0  0  0  0  0  0  0  0  0
    7.4583   -7.3125    0.0000 C   0  0  0  0  0  0  0  0  0  0  0  0
    4.2958   -6.6042    0.0000 C   0  0  0  0  0  0  0  0  0  0  0  0
    3.0708   -6.6083    0.0000 N   0  0  0  0  0  0  0  0  0  0  0  0
    3.6833   -6.2500    0.0000 C   0  0  0  0  0  0  0  0  0  0  0  0
    6.8458   -8.3750    0.0000 C   0  0  0  0  0  0  0  0  0  0  0  0
    1.2333   -6.2542    0.0000 C   0  0  0  0  0  0  0  0  0  0  0  0
    8.6875   -7.3083    0.0000 S   0  0  0  0  0  0  0  0  0  0  0  0
    1.8500   -7.3167    0.0000 C   0  0  0  0  0  0  0  0  0  0  0  0
    1.2417   -7.6708    0.0000 N   0  0  0  0  0  0  0  0  0  0  0  0
    7.4583   -6.6042    0.0000 C   0  0  0  0  0  0  0  0  0  0  0  0
    0.6208   -6.6083    0.0000 C   0  0  0  0  0  0  0  0  0  0  0  0
    5.0250   -7.8125    0.0000 O   0  0  0  0  0  0  0  0  0  0  0  0
    8.0750   -7.6625    0.0000 C   0  0  0  0  0  0  0  0  0  0  0  0
    3.6833   -5.5417    0.0000 C   0  0  0  0  0  0  0  0  0  0  0  0
    2.4542   -5.5458    0.0000 O   0  0  0  0  0  0  0  0  0  0  0  0
    4.3000   -7.3125    0.0000 O   0  0  0  0  0  0  0  0  0  0  0  0
    7.4625   -8.7292    0.0000 O   0  0  0  0  0  0  0  0  0  0  0  0
    6.2333   -8.7292    0.0000 O   0  0  0  0  0  0  0  0  0  0  0  0
    0.6208   -7.3208    0.0000 C   0  0  0  0  0  0  0  0  0  0  0  0
    4.2958   -5.1917    0.0000 C   0  0  0  0  0  0  0  0  0  0  0  0
    3.0667   -5.1958    0.0000 C   0  0  0  0  0  0  0  0  0  0  0  0
    1.2333   -5.5458    0.0000 O   0  0  0  0  0  0  0  0  0  0  0  0
    9.8792   -6.5375    0.0000 C   0  0  0  0  0  0  0  0  0  0  0  0
    3.6792   -4.1292    0.0000 C   0  0  0  0  0  0  0  0  0  0  0  0
    3.0625   -4.4875    0.0000 C   0  0  0  0  0  0  0  0  0  0  0  0
    4.2917   -4.4833    0.0000 C   0  0  0  0  0  0  0  0  0  0  0  0
    3.6750   -3.4208    0.0000 O   0  0  0  0  0  0  0  0  0  0  0  0
    0.0083   -7.6750    0.0000 C   0  0  0  0  0  0  0  0  0  0  0  0
    6.2292   -5.8917    0.0000 H   0  0  0  0  0  0  0  0  0  0  0  0
  3  2  1  0
  4  3  1  0
  5  2  1  0
  6 22  1  0
  7  2  1  0
  8  6  1  0
  9  6  2  0
 10  9  1  0
 11  8  1  0
  4 12  1  1
 13 18  1  0
 14  5  1  0
 15 13  1  0
 16  7  2  0
 17 12  1  0
 18 19  1  0
 19 17  1  0
 20  7  1  0
 21 15  2  0
 22 28  1  0
 23 15  1  0
 24 23  2  0
 25 16  1  0
 26 21  1  0
 27  3  2  0
 28 16  1  0
 19 29  1  6
 30 13  2  0
 31 17  2  0
 32 20  1  0
 33 20  2  0
 34 24  1  0
 35 29  2  0
 36 29  1  0
 37 21  1  0
 38  8  1  0
 39 40  1  0
 40 36  2  0
 41 35  1  0
 42 39  1  0
 43 34  1  0
  5 44  1  6
  4  5  1  0
 14 25  1  0
 11 10  2  0
 39 41  2  0
 34 26  2  0
M  CHG  2   1   1  32  -1
M  END
> <chembl_id>
CHEMBL1200672

> <chembl_pref_name>
CEFPIRAMIDE SODIUM
