
     RDKit          2D

 95 99  0  0  0  0  0  0  0  0999 V2000
   -0.9130   10.5563    0.0000 H   0  0  0  0  0  0  0  0  0  0  0  0
   -5.4309    4.3374    0.0000 C   0  0  0  0  0  0  0  0  0  0  0  0
   -6.1454    3.9249    0.0000 N   0  0  0  0  0  0  0  0  0  0  0  0
   -6.1454    3.0999    0.0000 C   0  0  0  0  0  0  0  0  0  0  0  0
   -5.4309    2.6874    0.0000 N   0  0  0  0  0  0  0  0  0  0  0  0
   -4.7164    3.0999    0.0000 C   0  0  0  0  0  0  0  0  0  0  0  0
   -4.7165    3.9249    0.0000 C   0  0  0  0  0  0  0  0  0  0  0  0
   -4.0020    2.6874    0.0000 N   0  0  0  0  0  0  0  0  0  0  0  0
   -3.2875    3.0999    0.0000 C   0  0  0  0  0  0  0  0  0  0  0  0
   -3.2875    3.9249    0.0000 C   0  0  0  0  0  0  0  0  0  0  0  0
   -4.0020    4.3374    0.0000 N   0  0  0  0  0  0  0  0  0  0  0  0
   -1.8586    3.9250    0.0000 N   0  0  0  0  0  0  0  0  0  0  0  0
   -2.5730    4.3375    0.0000 C   0  0  0  0  0  0  0  0  0  0  0  0
   -0.4296    3.9250    0.0000 C   0  0  0  0  0  0  0  0  0  0  0  0
   -1.1441    4.3375    0.0000 C   0  0  0  0  0  0  0  0  0  0  0  0
   -0.4297    5.5750    0.0000 C   0  0  0  0  0  0  0  0  0  0  0  0
   -1.1441    5.1625    0.0000 C   0  0  0  0  0  0  0  0  0  0  0  0
    0.2848    4.3375    0.0000 C   0  0  0  0  0  0  0  0  0  0  0  0
    0.2848    5.1625    0.0000 C   0  0  0  0  0  0  0  0  0  0  0  0
    0.9993    5.5750    0.0000 C   0  0  0  0  0  0  0  0  0  0  0  0
    2.4282    6.4000    0.0000 C   0  0  0  0  0  0  0  0  0  0  0  0
    2.4282    5.5750    0.0000 C   0  0  0  0  0  0  0  0  0  0  0  0
    1.7138    5.1625    0.0000 N   0  0  0  0  0  0  0  0  0  0  0  0
    0.9993    6.4000    0.0000 O   0  0  0  0  0  0  0  0  0  0  0  0
    4.5717    5.1625    0.0000 C   0  0  0  0  0  0  0  0  0  0  0  0
    3.8572    5.5750    0.0000 C   0  0  0  0  0  0  0  0  0  0  0  0
    3.1427    5.1625    0.0000 C   0  0  0  0  0  0  0  0  0  0  0  0
    5.2861    5.5751    0.0000 C   0  0  0  0  0  0  0  0  0  0  0  0
    5.2861    6.4001    0.0000 C   0  0  0  0  0  0  0  0  0  0  0  0
    4.5716    6.8125    0.0000 C   0  0  0  0  0  0  0  0  0  0  0  0
    3.8572    6.4000    0.0000 C   0  0  0  0  0  0  0  0  0  0  0  0
   -5.4309    5.1624    0.0000 O   0  0  0  0  0  0  0  0  0  0  0  0
   -6.8599    2.6874    0.0000 N   0  0  0  0  0  0  0  0  0  0  0  0
    3.1427    6.8125    0.0000 O   0  0  0  0  0  0  0  0  0  0  0  0
    1.7137    6.8125    0.0000 O   0  0  0  0  0  0  0  0  0  0  0  0
    6.0006    6.8126    0.0000 O   0  0  0  0  0  0  0  0  0  0  0  0
    6.7150    6.4001    0.0000 C   0  0  0  0  0  0  0  0  0  0  0  0
    7.4295    6.8126    0.0000 C   0  0  0  0  0  0  0  0  0  0  0  0
    8.1440    6.4001    0.0000 C   0  0  0  0  0  0  0  0  0  0  0  0
    8.1440    5.5751    0.0000 C   0  0  0  0  0  0  0  0  0  0  0  0
    7.4295    5.1626    0.0000 C   0  0  0  0  0  0  0  0  0  0  0  0
    6.7151    5.5751    0.0000 C   0  0  0  0  0  0  0  0  0  0  0  0
    7.4295    7.6376    0.0000 C   0  0  0  0  0  0  0  0  0  0  0  0
    8.1440    8.0501    0.0000 C   0  0  0  0  0  0  0  0  0  0  0  0
    8.1440    8.8751    0.0000 C   0  0  0  0  0  0  0  0  0  0  0  0
    7.4765    9.3600    0.0000 N   0  0  0  0  0  0  0  0  0  0  0  0
    6.6919    9.1051    0.0000 C   0  0  0  0  0  0  0  0  0  0  0  0
    7.7314   10.1446    0.0000 C   0  0  0  0  0  0  0  0  0  0  0  0
    8.5564   10.1446    0.0000 C   0  0  0  0  0  0  0  0  0  0  0  0
    8.8114    9.3600    0.0000 C   0  0  0  0  0  0  0  0  0  0  0  0
    7.3189   10.8591    0.0000 C   0  0  0  0  0  0  0  0  0  0  0  0
    7.7314   11.5736    0.0000 C   0  0  0  0  0  0  0  0  0  0  0  0
    8.5564   11.5736    0.0000 C   0  0  0  0  0  0  0  0  0  0  0  0
    8.9689   10.8591    0.0000 C   0  0  0  0  0  0  0  0  0  0  0  0
    8.9689   12.2881    0.0000 S   0  0  0  0  0  0  0  0  0  0  0  0
    9.3814   13.0025    0.0000 O   0  0  0  0  0  0  0  0  0  0  0  0
    9.6834   11.8756    0.0000 O   0  0  0  0  0  0  0  0  0  0  0  0
    8.2544   12.7005    0.0000 O   0  0  0  0  0  0  0  0  0  0  0  0
    6.5204    8.2981    0.0000 C   0  0  0  0  0  0  0  0  0  0  0  0
    5.7358    8.0431    0.0000 C   0  0  0  0  0  0  0  0  0  0  0  0
    5.1227    8.5952    0.0000 C   0  0  0  0  0  0  0  0  0  0  0  0
    4.3380    8.3402    0.0000 S   0  0  0  0  0  0  0  0  0  0  0  0
    3.5534    8.0853    0.0000 O   0  0  0  0  0  0  0  0  0  0  0  0
    4.5930    7.5556    0.0000 O   0  0  0  0  0  0  0  0  0  0  0  0
    4.0831    9.1248    0.0000 O   0  0  0  0  0  0  0  0  0  0  0  0
    6.0006    5.1626    0.0000 C   0  0  0  0  0  0  0  0  0  0  0  0
    6.0006    4.3376    0.0000 C   0  0  0  0  0  0  0  0  0  0  0  0
    6.7151    3.9251    0.0000 C   0  0  0  0  0  0  0  0  0  0  0  0
    6.5062    2.6066    0.0000 C   0  0  0  0  0  0  0  0  0  0  0  0
    6.1317    3.3417    0.0000 C   0  0  0  0  0  0  0  0  0  0  0  0
    7.4502    3.5505    0.0000 N   0  0  0  0  0  0  0  0  0  0  0  0
    7.3211    2.7357    0.0000 C   0  0  0  0  0  0  0  0  0  0  0  0
    6.2106    1.8364    0.0000 C   0  0  0  0  0  0  0  0  0  0  0  0
    6.7298    1.1953    0.0000 C   0  0  0  0  0  0  0  0  0  0  0  0
    7.5446    1.3243    0.0000 C   0  0  0  0  0  0  0  0  0  0  0  0
    7.8403    2.0945    0.0000 C   0  0  0  0  0  0  0  0  0  0  0  0
    5.3584    3.0542    0.0000 C   0  0  0  0  0  0  0  0  0  0  0  0
    5.3854    3.6490    0.0000 C   0  0  0  0  0  0  0  0  0  0  0  0
    6.4341    0.4251    0.0000 S   0  0  0  0  0  0  0  0  0  0  0  0
    6.1384   -0.3451    0.0000 O   0  0  0  0  0  0  0  0  0  0  0  0
    7.2043    0.1294    0.0000 O   0  0  0  0  0  0  0  0  0  0  0  0
    5.6639    0.7207    0.0000 O   0  0  0  0  0  0  0  0  0  0  0  0
    8.1852    3.9251    0.0000 C   0  0  0  0  0  0  0  0  0  0  0  0
    8.2284    4.7489    0.0000 C   0  0  0  0  0  0  0  0  0  0  0  0
    8.9635    5.1235    0.0000 C   0  0  0  0  0  0  0  0  0  0  0  0
    9.0067    5.9473    0.0000 C   0  0  0  0  0  0  0  0  0  0  0  0
    9.7418    6.3219    0.0000 S   0  0  0  0  0  0  0  0  0  0  0  0
   10.1163    5.5868    0.0000 O   0  0  0  0  0  0  0  0  0  0  0  0
    9.3673    7.0569    0.0000 O   0  0  0  0  0  0  0  0  0  0  0  0
   10.4769    6.6964    0.0000 O   0  0  0  0  0  0  0  0  0  0  0  0
    9.3698    8.7527    0.0000 C   0  0  0  0  0  0  0  0  0  0  0  0
    9.6201    9.5231    0.0000 C   0  0  0  0  0  0  0  0  0  0  0  0
    0.3891   10.5985    0.0000 H   0  0  0  0  0  0  0  0  0  0  0  0
   -0.8361    9.4142    0.0000 H   0  0  0  0  0  0  0  0  0  0  0  0
    0.4226    9.3093    0.0000 H   0  0  0  0  0  0  0  0  0  0  0  0
  2  3  1  0
  3  4  1  0
  4  5  2  0
  5  6  1  0
  6  7  2  0
  2  7  1  0
  8  9  2  0
  9 10  1  0
 10 11  2  0
  6  8  1  0
  7 11  1  0
 12 13  1  0
 10 13  1  0
 14 15  2  0
 12 15  1  0
 16 17  2  0
 18 19  2  0
 16 19  1  0
 14 18  1  0
 17 15  1  0
 22 21  1  6
 22 23  1  0
 20 23  1  0
 20 19  1  0
 20 24  2  0
 25 26  2  0
 26 27  1  0
 22 27  1  0
 28 29  2  0
 29 30  1  0
 30 31  2  0
 25 28  1  0
 26 31  1  0
  2 32  2  0
  4 33  1  0
 21 34  2  0
 21 35  1  0
 29 36  1  0
 36 37  1  0
 38 39  1  0
 39 40  1  0
 40 41  1  0
 41 42  1  0
 37 38  2  0
 37 42  1  0
 43 44  2  0
 43 38  1  0
 45 46  2  0
 46 47  1  0
 45 44  1  0
 48 49  2  0
 49 50  1  0
 45 50  1  0
 46 48  1  0
 51 52  2  0
 52 53  1  0
 53 54  2  0
 48 51  1  0
 49 54  1  0
 53 55  1  0
 55 56  2  0
 55 57  1  0
 55 58  2  0
 47 59  1  0
 59 60  1  0
 60 61  1  0
 61 62  1  0
 62 63  2  0
 62 64  1  0
 62 65  2  0
 42 66  2  0
 66 67  1  0
 67 68  2  0
 69 70  1  0
 71 72  1  0
 69 72  2  0
 70 68  1  0
 68 71  1  0
 73 74  2  0
 74 75  1  0
 75 76  2  0
 72 76  1  0
 69 73  1  0
 70 77  1  0
 70 78  1  0
 74 79  1  0
 79 80  1  0
 79 81  2  0
 79 82  2  0
 71 83  1  0
 83 84  1  0
 84 85  1  0
 85 86  1  0
 86 87  1  0
 87 88  2  0
 87 89  1  0
 87 90  2  0
 50 91  1  0
 50 92  1  0
M  CHG  8   1   1  35  -1  46   1  57  -1  64  -1  80  -1  89  -1  93   1
M  CHG  2  94   1  95   1
M  END
> <chembl_id>
CHEMBL4297412

> <chembl_pref_name>
PAFOLACIANINE
