
     RDKit          2D

 35 38  0  0  1  0  0  0  0  0999 V2000
    3.8042   -6.3042    0.0000 C   0  0  0  0  0  0  0  0  0  0  0  0
    3.8042   -7.0167    0.0000 C   0  0  0  0  0  0  0  0  0  0  0  0
    1.9542   -8.0917    0.0000 C   0  0  0  0  0  0  0  0  0  0  0  0
    3.1792   -7.3792    0.0000 C   0  0  0  0  0  0  0  0  0  0  0  0
    2.5667   -7.0167    0.0000 C   0  0  0  0  0  0  0  0  0  0  0  0
    1.9542   -7.3792    0.0000 C   0  0  0  0  0  0  0  0  0  0  0  0
    4.4917   -6.0875    0.0000 C   0  0  0  0  0  0  0  0  0  0  0  0
    1.3292   -8.4542    0.0000 C   0  0  0  0  0  0  0  0  0  0  0  0
    3.1792   -5.9625    0.0000 C   0  0  0  0  0  0  0  0  0  0  0  0
    2.5667   -6.3042    0.0000 C   0  0  0  0  0  0  0  0  0  0  0  0
    3.1792   -8.0917    0.0000 C   0  0  0  0  0  0  0  0  0  0  0  0
    4.4917   -7.2542    0.0000 C   0  0  0  0  0  0  0  0  0  0  0  0
    4.4542   -5.3542    0.0000 O   0  0  0  0  0  0  0  0  0  0  0  0
    1.3292   -7.0167    0.0000 C   0  0  0  0  0  0  0  0  0  0  0  0
    5.0667   -4.9917    0.0000 C   0  0  0  0  0  0  0  0  0  0  0  0
    2.5667   -8.4542    0.0000 C   0  0  0  0  0  0  0  0  0  0  0  0
    0.7042   -8.0917    0.0000 C   0  0  0  0  0  0  0  0  0  0  0  0
    4.8542   -6.6917    0.0000 C   0  0  0  0  0  0  0  0  0  0  0  0
    5.0542   -4.2667    0.0000 O   0  0  0  0  0  0  0  0  0  0  0  0
    0.0625   -8.4292    0.0000 O   0  0  0  0  0  0  0  0  0  0  0  0
    0.7042   -7.3792    0.0000 C   0  0  0  0  0  0  0  0  0  0  0  0
    3.8042   -5.5792    0.0000 C   0  0  0  0  0  0  0  0  0  0  0  0
    5.6625   -5.3125    0.0000 C   0  0  0  0  0  0  0  0  0  0  0  0
    6.2875   -4.9417    0.0000 C   0  0  0  0  0  0  0  0  0  0  0  0
    9.9667   -4.9542    0.0000 C   0  0  0  0  0  0  0  0  0  0  0  0
    9.3667   -5.3042    0.0000 C   0  0  0  0  0  0  0  0  0  0  0  0
    8.1292   -5.3042    0.0000 C   0  0  0  0  0  0  0  0  0  0  0  0
    8.7292   -4.9417    0.0000 C   0  0  0  0  0  0  0  0  0  0  0  0
    6.9000   -5.3000    0.0000 C   0  0  0  0  0  0  0  0  0  0  0  0
    7.5000   -4.9500    0.0000 C   0  0  0  0  0  0  0  0  0  0  0  0
   10.6000   -5.3042    0.0000 C   0  0  0  0  0  0  0  0  0  0  0  0
    3.8042   -7.7500    0.0000 H   0  0  0  0  0  0  0  0  0  0  0  0
    3.1792   -6.6917    0.0000 H   0  0  0  0  0  0  0  0  0  0  0  0
    2.5667   -7.7292    0.0000 H   0  0  0  0  0  0  0  0  0  0  0  0
    2.0000   -6.7500    0.0000 H   0  0  0  0  0  0  0  0  0  0  0  0
  2  1  1  0
  3  6  1  0
  4  2  1  0
  5 10  1  0
  6  5  1  0
  7  1  1  0
  8  3  2  0
  9  1  1  0
 10  9  1  0
 11  4  1  0
 12  2  1  0
  7 13  1  1
 14  6  1  0
 15 13  1  0
 16 11  1  0
 17 21  1  0
 18  7  1  0
 19 15  2  0
 20 17  2  0
 21 14  1  0
  1 22  1  1
 23 15  1  0
 24 23  1  0
 25 26  1  0
 26 28  1  0
 27 30  1  0
 28 27  1  0
 29 24  1  0
 30 29  1  0
 31 25  1  0
  2 32  1  6
  4 33  1  1
  5 34  1  6
  6 35  1  1
 18 12  1  0
  5  4  1  0
  3 16  1  0
 17  8  1  0
M  END
> <chembl_id>
CHEMBL1200946

> <chembl_pref_name>
NANDROLONE DECANOATE
