
     RDKit          2D

 35 36  0  0  0  0  0  0  0  0999 V2000
   -1.1144   -6.8745    0.0000 C   0  0  0  0  0  0  0  0  0  0  0  0
    2.2773   -7.7140    0.0000 C   0  0  0  0  0  0  0  0  0  0  0  0
   -0.6464   -7.5451    0.0000 O   0  0  0  0  0  0  0  0  0  0  0  0
   -0.6223   -6.2184    0.0000 O   0  0  0  0  0  0  0  0  0  0  0  0
    2.2773   -8.5390    0.0000 N   0  0  0  0  0  0  0  0  0  0  0  0
    1.5633   -7.2943    0.0000 N   0  0  0  0  0  0  0  0  0  0  0  0
    0.1448   -7.3087    0.0000 C   0  0  0  0  0  0  0  0  0  0  0  0
    2.9865   -7.2943    0.0000 N   0  0  0  0  0  0  0  0  0  0  0  0
    0.1593   -6.4837    0.0000 C   0  0  0  0  0  0  0  0  0  0  0  0
    0.8540   -7.7140    0.0000 C   0  0  0  0  0  0  0  0  0  0  0  0
   -1.5293   -6.1653    0.0000 C   0  0  0  0  0  0  0  0  0  0  0  0
   -1.5293   -7.5934    0.0000 C   0  0  0  0  0  0  0  0  0  0  0  0
   -2.3543   -7.5982    0.0000 C   0  0  0  0  0  0  0  0  0  0  0  0
   -2.3543   -6.1653    0.0000 C   0  0  0  0  0  0  0  0  0  0  0  0
   -2.7644   -6.8890    0.0000 C   0  0  0  0  0  0  0  0  0  0  0  0
    4.9114   -4.7474    0.0000 S   0  0  0  0  0  0  0  0  0  0  0  0
    5.3167   -4.0285    0.0000 O   0  0  0  0  0  0  0  0  0  0  0  0
    4.4917   -4.0285    0.0000 O   0  0  0  0  0  0  0  0  0  0  0  0
    4.2022   -5.1575    0.0000 O   0  0  0  0  0  0  0  0  0  0  0  0
    5.6207   -5.1575    0.0000 O   0  0  0  0  0  0  0  0  0  0  0  0
   -1.0855   -4.1154    0.0000 C   0  0  0  0  0  0  0  0  0  0  0  0
    2.3062   -4.9549    0.0000 C   0  0  0  0  0  0  0  0  0  0  0  0
   -0.6175   -4.7859    0.0000 O   0  0  0  0  0  0  0  0  0  0  0  0
   -0.5934   -3.4592    0.0000 O   0  0  0  0  0  0  0  0  0  0  0  0
    2.3062   -5.7799    0.0000 N   0  0  0  0  0  0  0  0  0  0  0  0
    1.5921   -4.5351    0.0000 N   0  0  0  0  0  0  0  0  0  0  0  0
    0.1737   -4.5496    0.0000 C   0  0  0  0  0  0  0  0  0  0  0  0
    3.0154   -4.5351    0.0000 N   0  0  0  0  0  0  0  0  0  0  0  0
    0.1882   -3.7246    0.0000 C   0  0  0  0  0  0  0  0  0  0  0  0
    0.8829   -4.9549    0.0000 C   0  0  0  0  0  0  0  0  0  0  0  0
   -1.5004   -3.4062    0.0000 C   0  0  0  0  0  0  0  0  0  0  0  0
   -1.5004   -4.8342    0.0000 C   0  0  0  0  0  0  0  0  0  0  0  0
   -2.3254   -4.8391    0.0000 C   0  0  0  0  0  0  0  0  0  0  0  0
   -2.3254   -3.4062    0.0000 C   0  0  0  0  0  0  0  0  0  0  0  0
   -2.7355   -4.1299    0.0000 C   0  0  0  0  0  0  0  0  0  0  0  0
  2  6  1  0
  3  1  1  0
  4  1  1  0
  5  2  2  0
  6 10  1  0
  7  3  1  0
  8  2  1  0
  9  4  1  0
 10  7  1  0
 11  1  1  0
 12  1  1  0
 13 12  1  0
 14 11  1  0
 15 14  1  0
  7  9  1  0
 13 15  1  0
 17 16  2  0
 18 16  2  0
 19 16  1  0
 20 16  1  0
 22 26  1  0
 23 21  1  0
 24 21  1  0
 25 22  2  0
 26 30  1  0
 27 23  1  0
 28 22  1  0
 29 24  1  0
 30 27  1  0
 31 21  1  0
 32 21  1  0
 33 32  1  0
 34 31  1  0
 35 34  1  0
 27 29  1  0
 33 35  1  0
M  END
> <chembl_id>
CHEMBL3184143

> <chembl_pref_name>
GUANADREL SULFATE
