
     RDKit          2D

 50 55  0  0  0  0  0  0  0  0999 V2000
    1.7583   -3.8667    0.0000 S   0  0  0  0  0  0  0  0  0  0  0  0
    2.1042   -3.2500    0.0000 O   0  0  0  0  0  0  0  0  0  0  0  0
    1.4000   -3.2500    0.0000 O   0  0  0  0  0  0  0  0  0  0  0  0
    2.3708   -4.2250    0.0000 O   0  0  0  0  0  0  0  0  0  0  0  0
    1.1417   -4.2250    0.0000 C   0  0  0  0  0  0  0  0  0  0  0  0
    0.8167   -0.1042    0.0000 N   0  0  0  0  0  0  0  0  0  0  0  0
    0.8167    0.6208    0.0000 C   0  0  0  0  0  0  0  0  0  0  0  0
   -0.2583    0.2333    0.0000 C   0  0  0  0  0  0  0  0  0  0  0  0
    0.1917   -0.3042    0.0000 C   0  0  0  0  0  0  0  0  0  0  0  0
    0.1542    0.8083    0.0000 O   0  0  0  0  0  0  0  0  0  0  0  0
   -2.1583   -1.8292    0.0000 C   0  0  0  0  0  0  0  0  0  0  0  0
   -2.1583   -3.2542    0.0000 C   0  0  0  0  0  0  0  0  0  0  0  0
    1.4292   -0.4792    0.0000 C   0  0  0  0  0  0  0  0  0  0  0  0
    2.0542   -0.1042    0.0000 C   0  0  0  0  0  0  0  0  0  0  0  0
    2.0542    0.6208    0.0000 N   0  0  0  0  0  0  0  0  0  0  0  0
   -2.3083   -3.9417    0.0000 C   0  0  0  0  0  0  0  0  0  0  0  0
   -0.9458    0.2458    0.0000 N   0  0  0  0  0  0  0  0  0  0  0  0
   -2.7583   -2.8917    0.0000 C   0  0  0  0  0  0  0  0  0  0  0  0
    1.4292    0.9708    0.0000 C   0  0  0  0  0  0  0  0  0  0  0  0
   -2.7583   -2.1792    0.0000 C   0  0  0  0  0  0  0  0  0  0  0  0
   -1.5333   -2.1792    0.0000 C   0  0  0  0  0  0  0  0  0  0  0  0
   -2.1583   -1.1167    0.0000 C   0  0  0  0  0  0  0  0  0  0  0  0
   -3.2208   -3.9417    0.0000 N   0  0  0  0  0  0  0  0  0  0  0  0
   -1.5458   -0.7667    0.0000 C   0  0  0  0  0  0  0  0  0  0  0  0
   -0.9333   -1.8292    0.0000 N   0  0  0  0  0  0  0  0  0  0  0  0
   -1.5458   -0.0667    0.0000 C   0  0  0  0  0  0  0  0  0  0  0  0
   -3.3708   -3.2542    0.0000 C   0  0  0  0  0  0  0  0  0  0  0  0
   -1.5333   -2.8917    0.0000 C   0  0  0  0  0  0  0  0  0  0  0  0
   -0.9458   -1.1167    0.0000 C   0  0  0  0  0  0  0  0  0  0  0  0
    0.0167   -0.9792    0.0000 O   0  0  0  0  0  0  0  0  0  0  0  0
    2.6667   -0.4667    0.0000 O   0  0  0  0  0  0  0  0  0  0  0  0
    0.7917    1.3958    0.0000 O   0  0  0  0  0  0  0  0  0  0  0  0
    1.4292   -1.1792    0.0000 C   0  0  0  0  0  0  0  0  0  0  0  0
   -0.5833    0.8708    0.0000 C   0  0  0  0  0  0  0  0  0  0  0  0
   -2.1583    0.2833    0.0000 O   0  0  0  0  0  0  0  0  0  0  0  0
   -1.8083   -4.4167    0.0000 Br  0  0  0  0  0  0  0  0  0  0  0  0
    2.5792    1.0833    0.0000 C   0  0  0  0  0  0  0  0  0  0  0  0
   -3.3708   -1.8292    0.0000 C   0  0  0  0  0  0  0  0  0  0  0  0
   -0.3333   -2.1792    0.0000 C   0  0  0  0  0  0  0  0  0  0  0  0
    1.5792    1.6458    0.0000 C   0  0  0  0  0  0  0  0  0  0  0  0
   -3.9833   -2.8917    0.0000 C   0  0  0  0  0  0  0  0  0  0  0  0
    2.2792    1.7458    0.0000 C   0  0  0  0  0  0  0  0  0  0  0  0
   -3.9833   -2.1792    0.0000 C   0  0  0  0  0  0  0  0  0  0  0  0
    2.0417   -1.5292    0.0000 C   0  0  0  0  0  0  0  0  0  0  0  0
   -1.2833    0.8958    0.0000 C   0  0  0  0  0  0  0  0  0  0  0  0
   -0.4208    1.5583    0.0000 C   0  0  0  0  0  0  0  0  0  0  0  0
    2.6417   -1.1792    0.0000 C   0  0  0  0  0  0  0  0  0  0  0  0
    2.0167   -2.2417    0.0000 C   0  0  0  0  0  0  0  0  0  0  0  0
   -0.9208   -2.5375    0.0000 H   0  0  0  0  0  0  0  0  0  0  0  0
    1.4667    0.2833    0.0000 H   0  0  0  0  0  0  0  0  0  0  0  0
  2  1  2  0
  3  1  2  0
  4  1  1  0
  5  1  1  0
  7  6  1  0
  8  9  1  0
  9  6  1  0
 10  7  1  0
 11 22  2  0
 12 28  1  0
 13  6  1  0
 14 13  1  0
 15 14  1  0
 16 12  2  0
 17  8  1  0
 18 20  1  0
 19  7  1  0
 20 11  1  0
 21 25  1  0
 22 24  1  0
 23 27  1  0
 24 26  1  1
 25 29  1  0
 26 17  1  0
 27 18  2  0
 28 21  1  0
 29 24  1  0
 30  9  2  0
 31 14  2  0
  7 32  1  6
 13 33  1  6
  8 34  1  1
 35 26  2  0
 36 16  1  0
 37 15  1  0
 38 20  2  0
 39 25  1  0
 40 19  1  0
 41 43  2  0
 42 40  1  0
 43 38  1  0
 44 33  1  0
 45 34  1  0
 46 34  1  0
 47 44  1  0
 48 44  1  0
 21 49  1  1
 19 50  1  1
 10  8  1  0
 19 15  1  0
 37 42  1  0
 11 21  1  0
 18 12  1  0
 27 41  1  0
 16 23  1  0
M  END
> <chembl_id>
CHEMBL1200503

> <chembl_pref_name>
BROMOCRIPTINE MESYLATE
