
     RDKit          2D

 28 29  0  0  0  0  0  0  0  0999 V2000
   -9.3991  -25.7518    0.0000 C   0  0  0  0  0  0  0  0  0  0  0  0
  -10.1136  -26.1643    0.0000 C   0  0  0  0  0  0  0  0  0  0  0  0
  -10.1136  -26.9893    0.0000 C   0  0  0  0  0  0  0  0  0  0  0  0
   -9.3991  -27.4018    0.0000 C   0  0  0  0  0  0  0  0  0  0  0  0
   -8.6846  -26.9893    0.0000 C   0  0  0  0  0  0  0  0  0  0  0  0
   -8.6846  -26.1643    0.0000 C   0  0  0  0  0  0  0  0  0  0  0  0
   -9.3991  -23.9250    0.0000 C   0  0  0  0  0  0  0  0  0  0  0  0
   -8.6846  -23.5125    0.0000 C   0  0  0  0  0  0  0  0  0  0  0  0
   -8.6846  -22.6875    0.0000 C   0  0  0  0  0  0  0  0  0  0  0  0
   -9.3991  -22.2750    0.0000 N   0  0  0  0  0  0  0  0  0  0  0  0
  -10.1136  -22.6875    0.0000 C   0  0  0  0  0  0  0  0  0  0  0  0
  -10.1136  -23.5125    0.0000 C   0  0  0  0  0  0  0  0  0  0  0  0
  -10.8280  -22.2750    0.0000 C   0  0  0  0  0  0  0  0  0  0  0  0
   -7.9702  -22.2750    0.0000 C   0  0  0  0  0  0  0  0  0  0  0  0
   -7.2557  -22.6875    0.0000 O   0  0  0  0  0  0  0  0  0  0  0  0
   -6.5412  -22.2750    0.0000 C   0  0  0  0  0  0  0  0  0  0  0  0
   -5.8268  -22.6875    0.0000 C   0  0  0  0  0  0  0  0  0  0  0  0
   -5.1123  -22.2750    0.0000 N   0  0  0  0  0  0  0  0  0  0  0  0
   -7.9702  -23.9250    0.0000 C   0  0  0  0  0  0  0  0  0  0  0  0
   -7.2557  -23.5125    0.0000 O   0  0  0  0  0  0  0  0  0  0  0  0
   -7.9702  -24.7500    0.0000 O   0  0  0  0  0  0  0  0  0  0  0  0
   -6.5412  -23.9250    0.0000 C   0  0  0  0  0  0  0  0  0  0  0  0
   -5.8268  -23.5125    0.0000 C   0  0  0  0  0  0  0  0  0  0  0  0
  -10.8280  -23.9250    0.0000 C   0  0  0  0  0  0  0  0  0  0  0  0
  -10.8281  -24.7500    0.0000 O   0  0  0  0  0  0  0  0  0  0  0  0
  -11.5425  -23.5125    0.0000 O   0  0  0  0  0  0  0  0  0  0  0  0
  -12.2570  -23.9250    0.0000 C   0  0  0  0  0  0  0  0  0  0  0  0
   -7.9701  -25.7518    0.0000 Cl  0  0  0  0  0  0  0  0  0  0  0  0
  1  2  1  0
  1  6  2  0
  2  3  2  0
  3  4  1  0
  4  5  2  0
  5  6  1  0
  7  1  1  1
  7  8  1  0
 12  7  1  0
  8  9  2  0
  9 10  1  0
 10 11  1  0
 11 12  2  0
 11 13  1  0
  9 14  1  0
 14 15  1  0
 15 16  1  0
 16 17  1  0
 17 18  1  0
  8 19  1  0
 19 20  1  0
 19 21  2  0
 20 22  1  0
 22 23  1  0
 12 24  1  0
 24 25  2  0
 24 26  1  0
 26 27  1  0
  6 28  1  0
M  END
> <chembl_id>
CHEMBL2111097

> <chembl_pref_name>
LEVAMLODIPINE
