
     RDKit          2D

 21 22  0  0  0  0  0  0  0  0999 V2000
   10.4407  -25.8055    0.0000 O   0  0  0  0  0  0  0  0  0  0  0  0
    6.8123  -25.1802    0.0000 N   0  0  0  0  0  0  0  0  0  0  0  0
    7.3007  -25.8428    0.0000 C   0  0  0  0  0  0  0  0  0  0  0  0
    6.8148  -26.5138    0.0000 N   0  0  0  0  0  0  0  0  0  0  0  0
    6.0303  -26.2588    0.0000 C   0  0  0  0  0  0  0  0  0  0  0  0
    5.3169  -26.6720    0.0000 N   0  0  0  0  0  0  0  0  0  0  0  0
    4.6002  -26.2607    0.0000 C   0  0  0  0  0  0  0  0  0  0  0  0
    4.6009  -25.4343    0.0000 N   0  0  0  0  0  0  0  0  0  0  0  0
    5.3190  -25.0211    0.0000 C   0  0  0  0  0  0  0  0  0  0  0  0
    6.0299  -25.4352    0.0000 C   0  0  0  0  0  0  0  0  0  0  0  0
    5.3186  -24.1973    0.0000 O   0  0  0  0  0  0  0  0  0  0  0  0
    7.1074  -27.2841    0.0000 C   0  0  0  0  0  0  0  0  0  0  0  0
    7.8901  -27.5448    0.0000 C   0  0  0  0  0  0  0  0  0  0  0  0
    7.8923  -28.3721    0.0000 C   0  0  0  0  0  0  0  0  0  0  0  0
    7.1128  -28.6189    0.0000 C   0  0  0  0  0  0  0  0  0  0  0  0
    6.6260  -27.9552    0.0000 C   0  0  0  0  0  0  0  0  0  0  0  0
    8.5618  -27.0561    0.0000 C   0  0  0  0  0  0  0  0  0  0  0  0
    8.5588  -28.8627    0.0000 C   0  0  0  0  0  0  0  0  0  0  0  0
    9.3198  -28.5271    0.0000 O   0  0  0  0  0  0  0  0  0  0  0  0
    6.8567  -29.4152    0.0000 O   0  0  0  0  0  0  0  0  0  0  0  0
    3.8777  -26.6740    0.0000 N   0  0  0  0  0  0  0  0  0  0  0  0
  2  3  2  0
  3  4  1  0
  4  5  1  0
  5  6  1  0
  6  7  2  0
  7  8  1  0
  8  9  1  0
  9 10  1  0
  2 10  1  0
  5 10  2  0
  9 11  2  0
 12 13  1  0
 13 14  1  0
 14 15  1  0
 15 16  1  0
 12 16  1  0
 13 17  2  0
 18 19  1  0
 14 18  1  6
 15 20  1  1
 12  4  1  6
  7 21  1  0
M  END
> <chembl_id>
CHEMBL5314362

> <chembl_pref_name>
ENTECAVIR
