
     RDKit          2D

 52 55  0  0  0  0  0  0  0  0999 V2000
   18.4583    0.4708    0.0000 C   0  0  0  0  0  0  0  0  0  0  0  0
   18.8750   -0.2458    0.0000 C   0  0  0  0  0  0  0  0  0  0  0  0
   19.2873    0.4733    0.0000 O   0  0  0  0  0  0  0  0  0  0  0  0
    6.7333   -0.6292    0.0000 C   0  0  0  0  0  0  0  0  0  0  0  0
    6.7333   -1.4542    0.0000 O   0  0  0  0  0  0  0  0  0  0  0  0
    7.4454   -1.8625    0.0000 C   0  0  0  0  0  0  0  0  0  0  0  0
    8.1574   -1.4542    0.0000 C   0  0  0  0  0  0  0  0  0  0  0  0
    8.1574   -0.6292    0.0000 N   0  0  0  0  0  0  0  0  0  0  0  0
    7.4454   -0.2125    0.0000 C   0  0  0  0  0  0  0  0  0  0  0  0
    8.8730   -0.2188    0.0000 C   0  0  0  0  0  0  0  0  0  0  0  0
    9.5863   -0.6334    0.0000 C   0  0  0  0  0  0  0  0  0  0  0  0
   10.3020   -0.2229    0.0000 N   0  0  0  0  0  0  0  0  0  0  0  0
    9.5839   -1.4584    0.0000 O   0  0  0  0  0  0  0  0  0  0  0  0
   11.0152   -0.6375    0.0000 C   0  0  0  0  0  0  0  0  0  0  0  0
   11.7309   -0.2271    0.0000 C   0  0  0  0  0  0  0  0  0  0  0  0
   11.0128   -1.4625    0.0000 C   0  0  0  0  0  0  0  0  0  0  0  0
   11.7261   -1.8771    0.0000 C   0  0  0  0  0  0  0  0  0  0  0  0
   11.7237   -2.7021    0.0000 C   0  0  0  0  0  0  0  0  0  0  0  0
   12.4442   -0.6417    0.0000 N   0  0  0  0  0  0  0  0  0  0  0  0
   11.7333    0.5979    0.0000 O   0  0  0  0  0  0  0  0  0  0  0  0
   13.1599   -0.2313    0.0000 C   0  0  0  0  0  0  0  0  0  0  0  0
   13.8731   -0.6459    0.0000 C   0  0  0  0  0  0  0  0  0  0  0  0
   13.1623    0.5937    0.0000 C   0  0  0  0  0  0  0  0  0  0  0  0
   13.8779    1.0041    0.0000 C   0  0  0  0  0  0  0  0  0  0  0  0
   13.8804    1.8291    0.0000 C   0  0  0  0  0  0  0  0  0  0  0  0
   14.5912    0.5895    0.0000 C   0  0  0  0  0  0  0  0  0  0  0  0
   13.8707   -1.4709    0.0000 O   0  0  0  0  0  0  0  0  0  0  0  0
   14.5888   -0.2355    0.0000 N   0  0  0  0  0  0  0  0  0  0  0  0
   15.3020   -0.6501    0.0000 C   0  0  0  0  0  0  0  0  0  0  0  0
   16.0177   -0.2397    0.0000 C   0  0  0  0  0  0  0  0  0  0  0  0
   15.2996   -1.4751    0.0000 C   0  0  0  0  0  0  0  0  0  0  0  0
   16.0129   -1.8897    0.0000 C   0  0  0  0  0  0  0  0  0  0  0  0
   16.7310   -0.6543    0.0000 N   0  0  0  0  0  0  0  0  0  0  0  0
   16.0201    0.5853    0.0000 O   0  0  0  0  0  0  0  0  0  0  0  0
   17.4467   -0.2439    0.0000 C   0  0  0  0  0  0  0  0  0  0  0  0
   18.1599   -0.6585    0.0000 C   0  0  0  0  0  0  0  0  0  0  0  0
   17.4491    0.5811    0.0000 C   0  0  0  0  0  0  0  0  0  0  0  0
   17.8732    1.2910    0.0000 C   0  0  0  0  0  0  0  0  0  0  0  0
   17.4717    2.0118    0.0000 C   0  0  0  0  0  0  0  0  0  0  0  0
   18.6981    1.2783    0.0000 C   0  0  0  0  0  0  0  0  0  0  0  0
   18.1575   -1.4835    0.0000 O   0  0  0  0  0  0  0  0  0  0  0  0
   19.5889   -0.6627    0.0000 C   0  0  0  0  0  0  0  0  0  0  0  0
   11.0082   -3.1108    0.0000 C   0  0  0  0  0  0  0  0  0  0  0  0
   11.0054   -3.9350    0.0000 C   0  0  0  0  0  0  0  0  0  0  0  0
   11.7192   -4.3504    0.0000 C   0  0  0  0  0  0  0  0  0  0  0  0
   12.4373   -3.9356    0.0000 C   0  0  0  0  0  0  0  0  0  0  0  0
   12.4365   -3.1127    0.0000 C   0  0  0  0  0  0  0  0  0  0  0  0
   16.0073   -2.7136    0.0000 C   0  0  0  0  0  0  0  0  0  0  0  0
   16.7197   -3.1281    0.0000 C   0  0  0  0  0  0  0  0  0  0  0  0
   17.4364   -2.7176    0.0000 C   0  0  0  0  0  0  0  0  0  0  0  0
   17.4362   -1.8883    0.0000 C   0  0  0  0  0  0  0  0  0  0  0  0
   16.7232   -1.4776    0.0000 C   0  0  0  0  0  0  0  0  0  0  0  0
 24 26  1  0
 11 13  2  0
 22 27  2  0
  1  3  1  0
 22 28  1  0
 12 14  1  0
 28 29  1  0
  4  9  1  0
 29 30  1  0
 14 15  1  0
 29 31  1  6
  5  6  1  0
 31 32  1  0
 14 16  1  6
 30 33  1  0
  6  7  1  0
 30 34  2  0
 16 17  1  0
 33 35  1  0
  7  8  1  0
 35 36  1  0
 17 18  1  0
 35 37  1  1
  8  9  1  0
 37 38  1  0
 15 19  1  0
 38 39  1  0
 38 40  1  0
 15 20  2  0
 36 41  2  0
 36  2  1  0
  8 10  1  0
  2 42  1  6
 19 21  1  0
 18 43  2  0
  2  1  1  0
 43 44  1  0
 21 22  1  0
 44 45  2  0
 10 11  1  0
 45 46  1  0
 21 23  1  1
 46 47  2  0
 47 18  1  0
  2  3  1  0
 32 48  2  0
 23 24  1  0
 48 49  1  0
 11 12  1  0
 49 50  2  0
 24 25  1  0
 50 51  1  0
  4  5  1  0
 51 52  2  0
 52 32  1  0
M  END
> <chembl_id>
CHEMBL451887

> <chembl_pref_name>
CARFILZOMIB
