
     RDKit          2D

 21 24  0  0  0  0  0  0  0  0999 V2000
    0.1917    0.1250    0.0000 N   0  0  0  0  0  0  0  0  0  0  0  0
   -0.9958   -1.5167    0.0000 C   0  0  0  0  0  0  0  0  0  0  0  0
   -1.0083   -0.2542    0.0000 C   0  0  0  0  0  0  0  0  0  0  0  0
    0.9375   -0.8750    0.0000 C   0  0  0  0  0  0  0  0  0  0  0  0
    0.2167   -1.9042    0.0000 C   0  0  0  0  0  0  0  0  0  0  0  0
   -2.1125    0.3708    0.0000 C   0  0  0  0  0  0  0  0  0  0  0  0
   -2.0875   -2.1417    0.0000 C   0  0  0  0  0  0  0  0  0  0  0  0
   -3.2083   -1.5042    0.0000 N   0  0  0  0  0  0  0  0  0  0  0  0
    0.6167    1.3208    0.0000 C   0  0  0  0  0  0  0  0  0  0  0  0
   -3.2083   -0.2875    0.0000 C   0  0  0  0  0  0  0  0  0  0  0  0
    1.8542    1.5875    0.0000 C   0  0  0  0  0  0  0  0  0  0  0  0
    2.2042   -0.8750    0.0000 C   0  0  0  0  0  0  0  0  0  0  0  0
    0.8042   -3.0292    0.0000 C   0  0  0  0  0  0  0  0  0  0  0  0
   -4.3458   -2.1125    0.0000 C   0  0  0  0  0  0  0  0  0  0  0  0
    2.2750    2.7958    0.0000 C   0  0  0  0  0  0  0  0  0  0  0  0
    2.6792    0.6375    0.0000 C   0  0  0  0  0  0  0  0  0  0  0  0
    2.1042   -3.0292    0.0000 C   0  0  0  0  0  0  0  0  0  0  0  0
    2.7500   -2.0542    0.0000 C   0  0  0  0  0  0  0  0  0  0  0  0
    3.9417    0.8833    0.0000 C   0  0  0  0  0  0  0  0  0  0  0  0
    3.5000    3.0458    0.0000 C   0  0  0  0  0  0  0  0  0  0  0  0
    4.3417    2.0833    0.0000 C   0  0  0  0  0  0  0  0  0  0  0  0
  2  3  2  0
  3  1  1  0
  4  1  1  0
  5  4  2  0
  6  3  1  0
  7  2  1  0
  8 10  1  0
  9  1  1  0
 10  6  1  0
 11  9  1  0
 12  4  1  0
 13  5  1  0
 14  8  1  0
 15 11  1  0
 16 11  2  0
 17 18  1  0
 18 12  2  0
 19 16  1  0
 20 15  2  0
 21 19  2  0
  2  5  1  0
 13 17  2  0
  7  8  1  0
 20 21  1  0
M  END
> <chembl_id>
CHEMBL1625607

> <chembl_pref_name>
MEBHYDROLIN
