
     RDKit          2D

 19 18  0  0  0  0  0  0  0  0999 V2000
    7.7042   -5.3042    0.0000 Na  0  0  0  0  0 15  0  0  0  0  0  0
    2.9292   -6.2000    0.0000 N   0  0  0  0  0  0  0  0  0  0  0  0
    3.5500   -5.8417    0.0000 C   0  0  0  0  0  0  0  0  0  0  0  0
    2.3125   -5.1292    0.0000 N   0  0  0  0  0  0  0  0  0  0  0  0
    2.3125   -5.8417    0.0000 C   0  0  0  0  0  0  0  0  0  0  0  0
    3.5500   -5.1292    0.0000 C   0  0  0  0  0  0  0  0  0  0  0  0
    2.9292   -4.7792    0.0000 C   0  0  0  0  0  0  0  0  0  0  0  0
    4.2292   -6.0542    0.0000 N   0  0  0  0  0  0  0  0  0  0  0  0
    4.2292   -4.9167    0.0000 N   0  0  0  0  0  0  0  0  0  0  0  0
    4.6292   -5.4917    0.0000 C   0  0  0  0  0  0  0  0  0  0  0  0
    1.7042   -6.2000    0.0000 O   0  0  0  0  0  0  0  0  0  0  0  0
    2.9292   -4.0667    0.0000 O   0  0  0  0  0  0  0  0  0  0  0  0
    2.9292   -6.9125    0.0000 C   0  0  0  0  0  0  0  0  0  0  0  0
    1.7042   -4.7792    0.0000 C   0  0  0  0  0  0  0  0  0  0  0  0
    6.4292   -5.6250    0.0000 C   0  0  0  0  0  0  0  0  0  0  0  0
    7.0417   -5.2667    0.0000 O   0  0  0  0  0  0  0  0  0  0  0  0
    6.4250   -6.3292    0.0000 O   0  0  0  0  0  0  0  0  0  0  0  0
    5.2000   -5.6292    0.0000 N   0  0  0  0  0  0  0  0  0  0  0  0
    5.8167   -5.2750    0.0000 C   0  0  0  0  0  0  0  0  0  0  0  0
  3  2  1  0
  4  5  1  0
  5  2  1  0
  6  3  2  0
  7  4  1  0
  8  3  1  0
  9  6  1  0
 10  8  2  0
 11  5  2  0
 12  7  2  0
 13  2  1  0
 14  4  1  0
  7  6  1  0
 10  9  1  0
 16 15  1  0
 17 15  2  0
 18 19  1  0
 19 15  1  0
M  CHG  2   1   1  16  -1
M  END
> <chembl_id>
CHEMBL1200578

> <chembl_pref_name>
THEOPHYLLINE SODIUM GLYCINATE
