
     RDKit          2D

 19 20  0  0  0  0  0  0  0  0999 V2000
    2.5000   -0.1542    0.0000 C   0  0  0  0  0  0  0  0  0  0  0  0
    1.9375   -1.5500    0.0000 N   0  0  0  0  0  0  0  0  0  0  0  0
   -1.7833   -0.8417    0.0000 C   0  0  0  0  0  0  0  0  0  0  0  0
   -0.3333   -0.6500    0.0000 C   0  0  0  0  0  0  0  0  0  0  0  0
    1.8417    1.2833    0.0000 N   0  0  0  0  0  0  0  0  0  0  0  0
    0.5375   -1.8000    0.0000 C   0  0  0  0  0  0  0  0  0  0  0  0
   -2.3208   -2.2167    0.0000 C   0  0  0  0  0  0  0  0  0  0  0  0
    3.9167   -0.1542    0.0000 O   0  0  0  0  0  0  0  0  0  0  0  0
   -1.4208   -3.3667    0.0000 C   0  0  0  0  0  0  0  0  0  0  0  0
    0.3542    1.7125    0.0000 C   0  0  0  0  0  0  0  0  0  0  0  0
   -2.7083    0.3458    0.0000 Cl  0  0  0  0  0  0  0  0  0  0  0  0
    0.0167   -3.1167    0.0000 C   0  0  0  0  0  0  0  0  0  0  0  0
   -2.4083    2.5833    0.0000 C   0  0  0  0  0  0  0  0  0  0  0  0
   -3.8083   -2.4375    0.0000 Cl  0  0  0  0  0  0  0  0  0  0  0  0
   -3.7833    2.9625    0.0000 Cl  0  0  0  0  0  0  0  0  0  0  0  0
    0.0917    2.9458    0.0000 C   0  0  0  0  0  0  0  0  0  0  0  0
   -0.7500    0.9708    0.0000 C   0  0  0  0  0  0  0  0  0  0  0  0
   -1.3000    3.3708    0.0000 C   0  0  0  0  0  0  0  0  0  0  0  0
   -2.0583    1.4208    0.0000 C   0  0  0  0  0  0  0  0  0  0  0  0
  2  1  1  0
  3  4  2  0
  4  6  1  0
  5  1  1  0
  6  2  1  0
  7  9  2  0
  8  1  2  0
  9 12  1  0
 10  5  1  0
 11  3  1  0
 12  6  2  0
 13 19  2  0
 14  7  1  0
 15 13  1  0
 16 10  1  0
 17 10  2  0
 18 16  2  0
 19 17  1  0
 18 13  1  0
  3  7  1  0
M  END
> <chembl_id>
CHEMBL1076347

> <chembl_pref_name>
TRICLOCARBAN
