
     RDKit          2D

  5  4  0  0  0  0  0  0  0  0999 V2000
    4.7667   -5.0000    0.0000 C   0  0  0  0  0  0  0  0  0  0  0  0
    4.7667   -4.2917    0.0000 O   0  0  0  0  0  0  0  0  0  0  0  0
    5.3792   -5.3542    0.0000 N   0  0  0  0  0  0  0  0  0  0  0  0
    4.1500   -5.3542    0.0000 N   0  0  0  0  0  0  0  0  0  0  0  0
    6.0000   -5.0000    0.0000 O   0  0  0  0  0  0  0  0  0  0  0  0
  2  1  2  0
  3  1  1  0
  4  1  1  0
  5  3  1  0
M  END
> <chembl_id>
CHEMBL467

> <chembl_pref_name>
HYDROXYUREA
