
     RDKit          2D

 20 19  0  0  0  0  0  0  0  0999 V2000
    0.0667    1.8333    0.0000 Cl  0  0  0  0  0  0  0  0  0  0  0  0
    1.4292    0.2250    0.0000 C   0  0  0  0  0  0  0  0  0  0  0  0
    0.6042    0.2250    0.0000 C   0  0  0  0  0  0  0  0  0  0  0  0
    1.8375    0.9333    0.0000 O   0  0  0  0  0  0  0  0  0  0  0  0
    0.1917    0.9333    0.0000 C   0  0  0  0  0  0  0  0  0  0  0  0
    0.1792   -0.4917    0.0000 C   0  0  0  0  0  0  0  0  0  0  0  0
    1.8500   -0.4917    0.0000 O   0  0  0  0  0  0  0  0  0  0  0  0
   -1.0458    0.2333    0.0000 C   0  0  0  0  0  0  0  0  0  0  0  0
    3.9167   -1.2000    0.0000 N   0  0  0  0  0  0  0  0  0  0  0  0
   -1.8625    0.2458    0.0000 N   0  0  0  0  0  0  0  0  0  0  0  0
   -0.6333    0.9458    0.0000 C   0  0  0  0  0  0  0  0  0  0  0  0
   -0.6458   -0.4875    0.0000 C   0  0  0  0  0  0  0  0  0  0  0  0
    2.6792   -0.4875    0.0000 C   0  0  0  0  0  0  0  0  0  0  0  0
    3.0917   -1.2000    0.0000 C   0  0  0  0  0  0  0  0  0  0  0  0
   -2.2833   -0.4625    0.0000 C   0  0  0  0  0  0  0  0  0  0  0  0
    4.3292   -0.4917    0.0000 C   0  0  0  0  0  0  0  0  0  0  0  0
    4.3417   -1.9167    0.0000 C   0  0  0  0  0  0  0  0  0  0  0  0
   -3.1125   -0.4542    0.0000 C   0  0  0  0  0  0  0  0  0  0  0  0
   -3.5208   -1.1750    0.0000 C   0  0  0  0  0  0  0  0  0  0  0  0
   -4.3458   -1.1750    0.0000 C   0  0  0  0  0  0  0  0  0  0  0  0
  3  2  1  0
  4  2  2  0
  5  3  1  0
  6  3  2  0
  7  2  1  0
  8 12  2  0
  9 14  1  0
 10  8  1  0
 11  5  2  0
 12  6  1  0
 13  7  1  0
 14 13  1  0
 15 10  1  0
 16  9  1  0
 17  9  1  0
 18 15  1  0
 19 18  1  0
 20 19  1  0
 11  8  1  0
M  END
> <chembl_id>
CHEMBL1255654

> <chembl_pref_name>
TETRACAINE HYDROCHLORIDE
