
     RDKit          2D

 24 27  0  0  0  0  0  0  0  0999 V2000
    1.4828   -0.6387    0.0000 C   0  0  0  0  0  0  0  0  0  0  0  0
    2.2949   -0.4935    0.0000 C   0  0  0  0  0  0  0  0  0  0  0  0
    2.5752    0.2825    0.0000 C   0  0  0  0  0  0  0  0  0  0  0  0
    3.3874    0.4277    0.0000 O   0  0  0  0  0  0  0  0  0  0  0  0
    2.0434    0.9132    0.0000 C   0  0  0  0  0  0  0  0  0  0  0  0
    1.2313    0.7680    0.0000 C   0  0  0  0  0  0  0  0  0  0  0  0
    0.6995    1.3987    0.0000 C   0  0  0  0  0  0  0  0  0  0  0  0
   -0.1126    1.2535    0.0000 C   0  0  0  0  0  0  0  0  0  0  0  0
   -0.3929    0.4775    0.0000 C   0  0  0  0  0  0  0  0  0  0  0  0
    0.1389   -0.1532    0.0000 C   0  0  0  0  0  0  0  0  0  0  0  0
    0.9510   -0.0080    0.0000 C   0  0  0  0  0  0  0  0  0  0  0  0
   -0.1414   -0.9291    0.0000 C   0  0  0  0  0  0  0  0  0  0  0  0
   -0.9535   -1.0743    0.0000 C   0  0  0  0  0  0  0  0  0  0  0  0
   -1.4853   -0.4436    0.0000 C   0  0  0  0  0  0  0  0  0  0  0  0
   -1.2050    0.3323    0.0000 C   0  0  0  0  0  0  0  0  0  0  0  0
   -1.8564    0.8387    0.0000 C   0  0  0  0  0  0  0  0  0  0  0  0
   -2.5392    0.3757    0.0000 C   0  0  0  0  0  0  0  0  0  0  0  0
   -2.3099   -0.4168    0.0000 C   0  0  0  0  0  0  0  0  0  0  0  0
   -2.8163   -1.0681    0.0000 O   0  0  0  0  0  0  0  0  0  0  0  0
   -1.8452   -1.1860    0.0000 C   0  0  0  0  0  0  0  0  0  0  0  0
    0.6707   -0.7839    0.0000 C   0  0  0  0  0  0  0  0  0  0  0  0
   -1.0073    1.1333    0.0000 H   0  0  0  0  0  0  0  0  0  0  0  0
    0.4192    0.6227    0.0000 H   0  0  0  0  0  0  0  0  0  0  0  0
   -0.6064    1.2744    0.0000 H   0  0  0  0  0  0  0  0  0  0  0  0
  1  2  1  0
  1 11  1  0
  2  3  1  0
  3  4  1  1
  3  5  1  0
  5  6  1  0
  6  7  2  0
 11  6  1  0
  7  8  1  0
  9  8  1  0
  9 10  1  0
 15  9  1  0
 11 10  1  0
 10 12  1  0
 11 21  1  1
 12 13  1  0
 13 14  1  0
 14 15  1  0
 14 18  1  0
 14 20  1  1
 15 16  1  0
 16 17  1  0
 17 18  1  0
 18 19  2  0
 15 22  1  6
 10 23  1  6
  9 24  1  1
M  END
> <chembl_id>
CHEMBL90593

> <chembl_pref_name>
PRASTERONE
