
     RDKit          2D

 20 19  0  0  0  0  0  0  0  0999 V2000
    7.1417   -7.6042    0.0000 Cl  0  0  0  0  0  0  0  0  0  0  0  0
    6.6042   -5.2000    0.0000 C   0  0  0  0  0  0  0  0  0  0  0  0
    5.9917   -5.5583    0.0000 C   0  0  0  0  0  0  0  0  0  0  0  0
    3.5417   -6.2750    0.0000 C   0  0  0  0  0  0  0  0  0  0  0  0
    2.9292   -6.6292    0.0000 N   0  0  0  0  0  0  0  0  0  0  0  0
    6.6042   -4.4917    0.0000 O   0  0  0  0  0  0  0  0  0  0  0  0
    5.3792   -5.2042    0.0000 C   0  0  0  0  0  0  0  0  0  0  0  0
    4.1542   -6.6292    0.0000 C   0  0  0  0  0  0  0  0  0  0  0  0
    3.5417   -5.5625    0.0000 C   0  0  0  0  0  0  0  0  0  0  0  0
    4.7667   -5.5625    0.0000 C   0  0  0  0  0  0  0  0  0  0  0  0
    5.9958   -6.2667    0.0000 N   0  0  0  0  0  0  0  0  0  0  0  0
    7.2208   -5.5542    0.0000 O   0  0  0  0  0  0  0  0  0  0  0  0
    4.1542   -5.2083    0.0000 C   0  0  0  0  0  0  0  0  0  0  0  0
    4.7667   -6.2750    0.0000 C   0  0  0  0  0  0  0  0  0  0  0  0
    1.0875   -6.2750    0.0000 Cl  0  0  0  0  0  0  0  0  0  0  0  0
    1.7000   -7.3375    0.0000 Cl  0  0  0  0  0  0  0  0  0  0  0  0
    2.9292   -7.3375    0.0000 C   0  0  0  0  0  0  0  0  0  0  0  0
    2.3125   -6.2750    0.0000 C   0  0  0  0  0  0  0  0  0  0  0  0
    2.3125   -7.6917    0.0000 C   0  0  0  0  0  0  0  0  0  0  0  0
    1.7000   -6.6292    0.0000 C   0  0  0  0  0  0  0  0  0  0  0  0
  3  2  1  0
  4  9  2  0
  5  4  1  0
  6  2  2  0
  7  3  1  0
  8 14  2  0
  9 13  1  0
 10  7  1  0
  3 11  1  1
 12  2  1  0
 13 10  2  0
 14 10  1  0
 15 20  1  0
 16 19  1  0
 17  5  1  0
 18  5  1  0
 19 17  1  0
 20 18  1  0
  8  4  1  0
M  END
> <chembl_id>
CHEMBL1200863

> <chembl_pref_name>
MELPHALAN HYDROCHLORIDE
