
     RDKit          2D

 22 23  0  0  0  0  0  0  0  0999 V2000
   -1.6625   -0.9042    0.0000 C   0  0  0  0  0  0  0  0  0  0  0  0
   -0.8083   -0.4000    0.0000 C   0  0  0  0  0  0  0  0  0  0  0  0
   -1.6500   -1.9000    0.0000 C   0  0  0  0  0  0  0  0  0  0  0  0
   -0.8208    0.5875    0.0000 N   0  0  0  0  0  0  0  0  0  0  0  0
   -2.5083   -2.4000    0.0000 C   0  0  0  0  0  0  0  0  0  0  0  0
   -2.5250   -0.4125    0.0000 C   0  0  0  0  0  0  0  0  0  0  0  0
   -0.7958   -2.3875    0.0000 N   0  0  0  0  0  0  0  0  0  0  0  0
   -3.3708   -1.9125    0.0000 C   0  0  0  0  0  0  0  0  0  0  0  0
    0.0542   -0.8917    0.0000 C   0  0  0  0  0  0  0  0  0  0  0  0
   -3.3833   -0.9167    0.0000 C   0  0  0  0  0  0  0  0  0  0  0  0
    0.0542   -1.8875    0.0000 C   0  0  0  0  0  0  0  0  0  0  0  0
    3.4750    1.1208    0.0000 N   0  0  0  0  0  0  0  0  0  0  0  0
   -4.2208   -2.4167    0.0000 Cl  0  0  0  0  0  0  0  0  0  0  0  0
    0.0375    1.0958    0.0000 C   0  0  0  0  0  0  0  0  0  0  0  0
    1.7542    1.1083    0.0000 C   0  0  0  0  0  0  0  0  0  0  0  0
    2.6167    0.6208    0.0000 C   0  0  0  0  0  0  0  0  0  0  0  0
    4.3375    0.6333    0.0000 C   0  0  0  0  0  0  0  0  0  0  0  0
    3.4625    2.1125    0.0000 C   0  0  0  0  0  0  0  0  0  0  0  0
    0.9000    0.6000    0.0000 C   0  0  0  0  0  0  0  0  0  0  0  0
    0.0292    2.0833    0.0000 C   0  0  0  0  0  0  0  0  0  0  0  0
    4.3417   -0.3542    0.0000 C   0  0  0  0  0  0  0  0  0  0  0  0
    2.6000    2.6000    0.0000 C   0  0  0  0  0  0  0  0  0  0  0  0
  2  1  1  0
  3  1  1  0
  4  2  1  0
  5  3  2  0
  6  1  2  0
  7  3  1  0
  8 10  2  0
  9  2  2  0
 10  6  1  0
 11  7  2  0
 12 16  1  0
 13  8  1  0
 14  4  1  0
 15 19  1  0
 16 15  1  0
 17 12  1  0
 18 12  1  0
 19 14  1  0
 20 14  1  0
 21 17  1  0
 22 18  1  0
  5  8  1  0
  9 11  1  0
M  END
> <chembl_id>
CHEMBL76

> <chembl_pref_name>
CHLOROQUINE
