
     RDKit          2D

 26 27  0  0  0  0  0  0  0  0999 V2000
   -1.9458   -0.3792    0.0000 C   0  0  0  0  0  0  0  0  0  0  0  0
   -1.9458   -1.3000    0.0000 C   0  0  0  0  0  0  0  0  0  0  0  0
   -2.7458    0.0833    0.0000 C   0  0  0  0  0  0  0  0  0  0  0  0
   -3.5458   -0.3792    0.0000 C   0  0  0  0  0  0  0  0  0  0  0  0
   -2.7458   -1.7667    0.0000 C   0  0  0  0  0  0  0  0  0  0  0  0
   -3.5458   -1.3000    0.0000 C   0  0  0  0  0  0  0  0  0  0  0  0
   -1.1375    0.0833    0.0000 C   0  0  0  0  0  0  0  0  0  0  0  0
   -2.7458    1.0125    0.0000 O   0  0  0  0  0  0  0  0  0  0  0  0
   -2.7458   -2.6917    0.0000 O   0  0  0  0  0  0  0  0  0  0  0  0
    3.5000    0.1833    0.0000 C   0  0  0  0  0  0  0  0  0  0  0  0
   -1.1458    1.0125    0.0000 C   0  0  0  0  0  0  0  0  0  0  0  0
    3.5167    1.1458    0.0000 O   0  0  0  0  0  0  0  0  0  0  0  0
   -1.1375   -1.7667    0.0000 C   0  0  0  0  0  0  0  0  0  0  0  0
   -4.3458    0.0833    0.0000 C   0  0  0  0  0  0  0  0  0  0  0  0
   -4.3458   -1.7667    0.0000 C   0  0  0  0  0  0  0  0  0  0  0  0
    4.2792   -0.2542    0.0000 O   0  0  0  0  0  0  0  0  0  0  0  0
   -0.3333   -0.3667    0.0000 C   0  0  0  0  0  0  0  0  0  0  0  0
    2.6917   -0.2792    0.0000 C   0  0  0  0  0  0  0  0  0  0  0  0
   -0.3458    1.4833    0.0000 C   0  0  0  0  0  0  0  0  0  0  0  0
   -1.9458    1.4708    0.0000 C   0  0  0  0  0  0  0  0  0  0  0  0
    0.4042    0.1875    0.0000 C   0  0  0  0  0  0  0  0  0  0  0  0
    1.9167    0.2333    0.0000 C   0  0  0  0  0  0  0  0  0  0  0  0
    1.1792   -0.3250    0.0000 C   0  0  0  0  0  0  0  0  0  0  0  0
   -1.9500    2.4000    0.0000 C   0  0  0  0  0  0  0  0  0  0  0  0
   -0.3458    2.4083    0.0000 C   0  0  0  0  0  0  0  0  0  0  0  0
   -1.1500    2.8708    0.0000 C   0  0  0  0  0  0  0  0  0  0  0  0
  2  1  2  0
  3  1  1  0
  4  3  1  0
  5  2  1  0
  6  4  2  0
  7  1  1  0
  8  3  2  0
  9  5  2  0
 10 18  1  0
 11  7  1  0
 12 10  2  0
 13  2  1  0
 14  4  1  0
 15  6  1  0
 16 10  1  0
 17  7  1  0
 18 22  1  0
 19 11  1  0
 20 11  2  0
 21 17  1  0
 22 23  1  0
 23 21  1  0
 24 20  1  0
 25 19  2  0
 26 24  2  0
  5  6  1  0
 25 26  1  0
M  END
> <chembl_id>
CHEMBL70972

> <chembl_pref_name>
SERATRODAST
