
     RDKit          2D

 34 35  0  0  0  0  0  0  0  0999 V2000
    3.1948   -1.9220    0.0000 Cl  0  0  0  0  0  0  0  0  0  0  0  0
   -3.1979   -1.0447    0.0000 C   0  0  0  0  0  0  0  0  0  0  0  0
   -2.6787   -1.6858    0.0000 C   0  0  0  0  0  0  0  0  0  0  0  0
   -1.8638   -1.5568    0.0000 C   0  0  0  0  0  0  0  0  0  0  0  0
   -1.5682   -0.7866    0.0000 C   0  0  0  0  0  0  0  0  0  0  0  0
   -2.0873   -0.1454    0.0000 C   0  0  0  0  0  0  0  0  0  0  0  0
   -2.9022   -0.2745    0.0000 C   0  0  0  0  0  0  0  0  0  0  0  0
   -2.0152    2.0360    0.0000 N   0  0  0  0  0  0  0  0  0  0  0  0
   -2.3109    1.2658    0.0000 C   0  0  0  0  0  0  0  0  0  0  0  0
   -1.7917    0.6247    0.0000 C   0  0  0  0  0  0  0  0  0  0  0  0
   -0.9768    0.7537    0.0000 N   0  0  0  0  0  0  0  0  0  0  0  0
   -0.6812    1.5239    0.0000 N   0  0  0  0  0  0  0  0  0  0  0  0
   -1.2004    2.1651    0.0000 C   0  0  0  0  0  0  0  0  0  0  0  0
    0.0889    1.8196    0.0000 C   0  0  0  0  0  0  0  0  0  0  0  0
   -0.7510    2.8570    0.0000 N   0  0  0  0  0  0  0  0  0  0  0  0
    0.0458    2.6434    0.0000 C   0  0  0  0  0  0  0  0  0  0  0  0
    2.2942    2.9432    0.0000 C   0  0  0  0  0  0  0  0  0  0  0  0
    1.5591    2.5687    0.0000 C   0  0  0  0  0  0  0  0  0  0  0  0
    1.5159    1.7448    0.0000 C   0  0  0  0  0  0  0  0  0  0  0  0
    2.2078    1.2954    0.0000 C   0  0  0  0  0  0  0  0  0  0  0  0
    2.9429    1.6700    0.0000 C   0  0  0  0  0  0  0  0  0  0  0  0
    2.9861    2.4939    0.0000 C   0  0  0  0  0  0  0  0  0  0  0  0
    3.7211    2.8684    0.0000 N   0  0  0  0  0  0  0  0  0  0  0  0
    3.6348    1.2207    0.0000 C   0  0  0  0  0  0  0  0  0  0  0  0
    4.3699    1.5952    0.0000 C   0  0  0  0  0  0  0  0  0  0  0  0
    4.4130    2.4191    0.0000 C   0  0  0  0  0  0  0  0  0  0  0  0
   -3.9948   -1.2582    0.0000 F   0  0  0  0  0  0  0  0  0  0  0  0
   -2.9336   -2.4704    0.0000 C   0  0  0  0  0  0  0  0  0  0  0  0
   -3.7406   -2.6419    0.0000 O   0  0  0  0  0  0  0  0  0  0  0  0
   -2.3816   -3.0835    0.0000 N   0  0  0  0  0  0  0  0  0  0  0  0
   -2.6773   -3.8537    0.0000 C   0  0  0  0  0  0  0  0  0  0  0  0
    0.7808    1.3702    0.0000 C   0  0  0  0  0  0  0  0  0  0  0  0
    3.1688   -0.2857    0.0000 O   0  0  0  0  0  0  0  0  0  0  0  0
    3.1168   -1.1688    0.0000 Cl  0  0  0  0  0  0  0  0  0  0  0  0
  2  3  1  0
  3  4  2  0
  4  5  1  0
  5  6  2  0
  6  7  1  0
  2  7  2  0
  8  9  2  0
  9 10  1  0
 10 11  2  0
 11 12  1  0
 12 13  1  0
  8 13  1  0
 15 16  1  0
 14 16  2  0
 13 15  2  0
 14 12  1  0
 17 18  1  0
 18 19  2  0
 19 20  1  0
 20 21  2  0
 21 22  1  0
 17 22  2  0
 24 25  2  0
 25 26  1  0
 23 26  2  0
 21 24  1  0
 23 22  1  0
  2 27  1  0
  3 28  1  0
 28 29  2  0
 28 30  1  0
 30 31  1  0
  6 10  1  0
 14 32  1  0
 32 19  1  0
M  END
> <chembl_id>
CHEMBL3989937

> <chembl_pref_name>
CAPMATINIB HYDROCHLORIDE
