
     RDKit          2D

 42 47  0  0  0  0  0  0  0  0999 V2000
    0.9702   -3.7203    0.0000 C   0  0  0  0  0  0  0  0  0  0  0  0
    0.1452   -3.7203    0.0000 C   0  0  0  0  0  0  0  0  0  0  0  0
    1.2251   -2.9356    0.0000 S   0  0  0  0  0  0  0  0  0  0  0  0
   -0.1097   -2.9356    0.0000 C   0  0  0  0  0  0  0  0  0  0  0  0
    0.5577   -2.4507    0.0000 C   0  0  0  0  0  0  0  0  0  0  0  0
    0.5577   -1.6257    0.0000 C   0  0  0  0  0  0  0  0  0  0  0  0
    2.0098   -1.3957    0.0000 N   0  0  0  0  0  0  0  0  0  0  0  0
    1.2251   -1.1408    0.0000 C   0  0  0  0  0  0  0  0  0  0  0  0
    0.9702   -0.3562    0.0000 S   0  0  0  0  0  0  0  0  0  0  0  0
   -0.1097   -1.1408    0.0000 N   0  0  0  0  0  0  0  0  0  0  0  0
   -0.3397   -4.3877    0.0000 Cl  0  0  0  0  0  0  0  0  0  0  0  0
   -1.1602    0.2250    0.0000 C   0  0  0  0  0  0  0  0  0  0  0  0
   -1.6451    0.8925    0.0000 C   0  0  0  0  0  0  0  0  0  0  0  0
   -0.3397    0.3113    0.0000 N   0  0  0  0  0  0  0  0  0  0  0  0
   -1.4958   -0.5286    0.0000 O   0  0  0  0  0  0  0  0  0  0  0  0
   -2.4656    0.8062    0.0000 C   0  0  0  0  0  0  0  0  0  0  0  0
   -2.9505    1.4737    0.0000 N   0  0  0  0  0  0  0  0  0  0  0  0
   -1.3096    1.6462    0.0000 C   0  0  0  0  0  0  0  0  0  0  0  0
   -1.7945    2.3136    0.0000 C   0  0  0  0  0  0  0  0  0  0  0  0
   -2.6150    2.2274    0.0000 C   0  0  0  0  0  0  0  0  0  0  0  0
   -3.0999    2.8948    0.0000 N   0  0  0  0  0  0  0  0  0  0  0  0
   -1.4589    3.0673    0.0000 Cl  0  0  0  0  0  0  0  0  0  0  0  0
    0.1452   -0.3562    0.0000 C   0  0  0  0  0  0  0  0  0  0  0  0
   -3.9204    2.8086    0.0000 C   0  0  0  0  0  0  0  0  0  0  0  0
   -4.4053    3.4760    0.0000 C   0  0  0  0  0  0  0  0  0  0  0  0
   -4.0697    4.2297    0.0000 C   0  0  0  0  0  0  0  0  0  0  0  0
   -2.7643    3.6485    0.0000 C   0  0  0  0  0  0  0  0  0  0  0  0
   -3.2493    4.3159    0.0000 C   0  0  0  0  0  0  0  0  0  0  0  0
   -4.2191    5.6508    0.0000 O   0  0  0  0  0  0  0  0  0  0  0  0
   -5.3752    4.8109    0.0000 O   0  0  0  0  0  0  0  0  0  0  0  0
   -4.5547    4.8971    0.0000 C   0  0  0  0  0  0  0  0  0  0  0  0
    3.5790   -1.9056    0.0000 N   0  0  0  0  0  0  0  0  0  0  0  0
    3.4075   -1.0986    0.0000 C   0  0  0  0  0  0  0  0  0  0  0  0
    2.6228   -0.8437    0.0000 C   0  0  0  0  0  0  0  0  0  0  0  0
    2.9659   -2.4576    0.0000 C   0  0  0  0  0  0  0  0  0  0  0  0
    2.1813   -2.2027    0.0000 C   0  0  0  0  0  0  0  0  0  0  0  0
    5.9329   -2.6704    0.0000 C   0  0  0  0  0  0  0  0  0  0  0  0
    5.3198   -3.2225    0.0000 C   0  0  0  0  0  0  0  0  0  0  0  0
    4.3636   -2.1605    0.0000 C   0  0  0  0  0  0  0  0  0  0  0  0
    4.9767   -1.6085    0.0000 C   0  0  0  0  0  0  0  0  0  0  0  0
    5.7613   -1.8634    0.0000 C   0  0  0  0  0  0  0  0  0  0  0  0
    4.5351   -2.9675    0.0000 C   0  0  0  0  0  0  0  0  0  0  0  0
  1  2  2  0
  2  4  1  0
  2 11  1  0
  3  1  1  0
  4  5  2  0
  5  3  1  0
  5  6  1  0
  6 10  1  0
  7  8  1  0
  7 34  1  0
  7 36  1  0
  8  6  2  0
  9  8  1  0
 10 23  2  0
 12 13  1  0
 12 14  1  0
 13 16  2  0
 13 18  1  0
 15 12  2  0
 16 17  1  0
 17 20  2  0
 18 19  2  0
 19 22  1  0
 20 19  1  0
 20 21  1  0
 21 24  1  0
 23  9  1  0
 23 14  1  0
 24 25  1  0
 25 26  1  0
 27 21  1  0
 27 28  1  0
 28 26  1  0
 31 30  2  0
 31 29  1  0
 31 26  1  0
 32 33  1  0
 33 34  1  0
 35 32  1  0
 35 36  1  0
 37 38  1  0
 37 41  1  0
 39 32  1  0
 39 42  1  0
 40 41  1  0
 40 39  1  0
 42 38  1  0
M  END
> <chembl_id>
CHEMBL2103883

> <chembl_pref_name>
AVATROMBOPAG
