
     RDKit          2D

 20 12  0  0  0  0  0  0  0  0999 V2000
    2.2982   -2.7107    0.0000 O   0  0  0  0  0  0  0  0  0  0  0  0
    0.2221    0.1649    0.0000 C   0  0  0  0  0  0  0  0  0  0  0  0
   -0.4924    0.5774    0.0000 P   0  0  0  0  0  0  0  0  0  0  0  0
    0.9366   -0.2476    0.0000 P   0  0  0  0  0  0  0  0  0  0  0  0
   -0.1904   -0.5496    0.0000 C   0  0  0  0  0  0  0  0  0  0  0  0
   -1.2068    0.9899    0.0000 O   0  0  0  0  0  0  0  0  0  0  0  0
    0.5241   -0.9621    0.0000 O   0  0  0  0  0  0  0  0  0  0  0  0
    1.6511   -0.6601    0.0000 O   0  0  0  0  0  0  0  0  0  0  0  0
   -0.9049   -0.1371    0.0000 O   0  0  0  0  0  0  0  0  0  0  0  0
    0.6346    0.8793    0.0000 O   0  0  0  0  0  0  0  0  0  0  0  0
   -0.0799    1.2918    0.0000 O   0  0  0  0  0  0  0  0  0  0  0  0
    1.3491    0.4668    0.0000 O   0  0  0  0  0  0  0  0  0  0  0  0
   -1.4279   -1.2641    0.0000 N   0  0  0  0  0  0  0  0  0  0  0  0
   -1.0154   -0.5496    0.0000 C   0  0  0  0  0  0  0  0  0  0  0  0
    2.5644    0.3536    0.0000 Na  0  0  0  0  0 15  0  0  0  0  0  0
   -0.2063   -1.5882    0.0000 Na  0  0  0  0  0 15  0  0  0  0  0  0
    3.4473   -0.9429    0.0000 O   0  0  0  0  0  0  0  0  0  0  0  0
    2.2688   -1.7679    0.0000 O   0  0  0  0  0  0  0  0  0  0  0  0
    0.9429   -2.5634    0.0000 O   0  0  0  0  0  0  0  0  0  0  0  0
    3.4179   -2.0036    0.0000 O   0  0  0  0  0  0  0  0  0  0  0  0
  3  2  1  0
  4  2  1  0
  5  2  1  0
  6  3  1  0
  7  4  1  0
  8  4  2  0
  9  3  2  0
 10  2  1  0
 11  3  1  0
 12  4  1  0
 13 14  1  0
 14  5  1  0
M  CHG  4   6  -1   7  -1  15   1  16   1
M  END
> <chembl_id>
CHEMBL3989401

> <chembl_pref_name>
PAMIDRONATE DISODIUM
