
     RDKit          2D

 22 23  0  0  0  0  0  0  0  0999 V2000
    3.3542    0.8625    0.0000 C   0  0  0  0  0  0  0  0  0  0  0  0
    2.3292    0.8625    0.0000 C   0  0  0  0  0  0  0  0  0  0  0  0
   -0.7625    0.8625    0.0000 O   0  0  0  0  0  0  0  0  0  0  0  0
   -1.2833   -0.0292    0.0000 C   0  0  0  0  0  0  0  0  0  0  0  0
    3.8792   -0.0500    0.0000 F   0  0  0  0  0  0  0  0  0  0  0  0
    3.6250    1.8833    0.0000 F   0  0  0  0  0  0  0  0  0  0  0  0
    4.2667    1.3958    0.0000 F   0  0  0  0  0  0  0  0  0  0  0  0
   -2.3000   -0.0292    0.0000 C   0  0  0  0  0  0  0  0  0  0  0  0
    1.7917    1.7458    0.0000 C   0  0  0  0  0  0  0  0  0  0  0  0
    1.7917   -0.0292    0.0000 C   0  0  0  0  0  0  0  0  0  0  0  0
    0.2542    0.8625    0.0000 C   0  0  0  0  0  0  0  0  0  0  0  0
   -0.7625   -0.9250    0.0000 C   0  0  0  0  0  0  0  0  0  0  0  0
    0.7667    1.7458    0.0000 C   0  0  0  0  0  0  0  0  0  0  0  0
    0.7667   -0.0292    0.0000 C   0  0  0  0  0  0  0  0  0  0  0  0
    0.7667   -1.8125    0.0000 N   0  0  0  0  0  0  0  0  0  0  0  0
    0.2542   -0.9250    0.0000 C   0  0  0  0  0  0  0  0  0  0  0  0
   -2.8208    0.8625    0.0000 C   0  0  0  0  0  0  0  0  0  0  0  0
   -2.8208   -0.9250    0.0000 C   0  0  0  0  0  0  0  0  0  0  0  0
    1.7917   -1.8125    0.0000 C   0  0  0  0  0  0  0  0  0  0  0  0
   -3.8375   -0.9250    0.0000 C   0  0  0  0  0  0  0  0  0  0  0  0
   -3.8375    0.8625    0.0000 C   0  0  0  0  0  0  0  0  0  0  0  0
   -4.3458   -0.0292    0.0000 C   0  0  0  0  0  0  0  0  0  0  0  0
  2  1  1  0
  3 11  1  0
  4  3  1  0
  5  1  1  0
  6  1  1  0
  7  1  1  0
  8  4  1  0
  9  2  2  0
 10  2  1  0
 11 14  1  0
 12  4  1  0
 13  9  1  0
 14 10  2  0
 15 16  1  0
 16 12  1  0
 17  8  2  0
 18  8  1  0
 19 15  1  0
 20 18  2  0
 21 17  1  0
 22 20  1  0
 13 11  2  0
 21 22  2  0
M  END
> <chembl_id>
CHEMBL41

> <chembl_pref_name>
FLUOXETINE
