
     RDKit          2D

 10 10  0  0  0  0  0  0  0  0999 V2000
   -0.0061    0.7810    0.0000 C   0  0  0  0  0  0  0  0  0  0  0  0
   -0.0061   -0.0440    0.0000 C   0  0  0  0  0  0  0  0  0  0  0  0
   -0.0061   -1.6940    0.0000 N   0  0  0  0  0  0  0  0  0  0  0  0
   -0.7206    1.1935    0.0000 O   0  0  0  0  0  0  0  0  0  0  0  0
   -0.7206   -0.4565    0.0000 C   0  0  0  0  0  0  0  0  0  0  0  0
    0.7083    1.1935    0.0000 N   0  0  0  0  0  0  0  0  0  0  0  0
   -0.7206   -1.2815    0.0000 C   0  0  0  0  0  0  0  0  0  0  0  0
    0.7083    2.0185    0.0000 N   0  0  0  0  0  0  0  0  0  0  0  0
    0.7083   -1.2815    0.0000 C   0  0  0  0  0  0  0  0  0  0  0  0
    0.7083   -0.4565    0.0000 C   0  0  0  0  0  0  0  0  0  0  0  0
  1  4  2  0
  1  2  1  0
  2 10  1  0
  9  3  1  0
  2  5  2  0
  1  6  1  0
  6  8  1  0
  7  3  2  0
  5  7  1  0
  9 10  2  0
M  END
> <chembl_id>
CHEMBL64

> <chembl_pref_name>
ISONIAZID
