
     RDKit          2D

 30 33  0  0  0  0  0  0  0  0999 V2000
    6.6125   -3.9667    0.0000 S   0  0  0  0  0  0  0  0  0  0  0  0
    4.1458   -3.9667    0.0000 C   0  0  0  0  0  0  0  0  0  0  0  0
    4.7667   -3.6083    0.0000 C   0  0  0  0  0  0  0  0  0  0  0  0
    4.1500   -2.5333    0.0000 S   0  0  0  0  0  0  0  0  0  0  0  0
    6.0000   -3.6125    0.0000 C   0  0  0  0  0  0  0  0  0  0  0  0
    4.7708   -2.8958    0.0000 C   0  0  0  0  0  0  0  0  0  0  0  0
    3.5333   -3.6083    0.0000 C   0  0  0  0  0  0  0  0  0  0  0  0
    5.3833   -3.9667    0.0000 C   0  0  0  0  0  0  0  0  0  0  0  0
    3.5333   -2.8958    0.0000 C   0  0  0  0  0  0  0  0  0  0  0  0
    7.2292   -3.6125    0.0000 N   0  0  0  0  0  0  0  0  0  0  0  0
    6.9625   -4.5792    0.0000 O   0  0  0  0  0  0  0  0  0  0  0  0
    6.2542   -4.5792    0.0000 O   0  0  0  0  0  0  0  0  0  0  0  0
    5.3750   -6.0917    0.0000 N   0  0  0  0  0  0  0  0  0  0  0  0
    6.5958   -6.8000    0.0000 N   0  0  0  0  0  0  0  0  0  0  0  0
    4.1458   -4.6750    0.0000 C   0  0  0  0  0  0  0  0  0  0  0  0
    6.0000   -2.8958    0.0000 C   0  0  0  0  0  0  0  0  0  0  0  0
    5.3833   -2.5417    0.0000 C   0  0  0  0  0  0  0  0  0  0  0  0
    5.9792   -7.1542    0.0000 C   0  0  0  0  0  0  0  0  0  0  0  0
    6.6000   -6.0917    0.0000 C   0  0  0  0  0  0  0  0  0  0  0  0
    5.3708   -6.8000    0.0000 C   0  0  0  0  0  0  0  0  0  0  0  0
    5.9833   -5.7333    0.0000 C   0  0  0  0  0  0  0  0  0  0  0  0
    4.7625   -5.0292    0.0000 C   0  0  0  0  0  0  0  0  0  0  0  0
    4.7625   -5.7375    0.0000 C   0  0  0  0  0  0  0  0  0  0  0  0
    2.9208   -3.9625    0.0000 C   0  0  0  0  0  0  0  0  0  0  0  0
    2.9208   -2.5417    0.0000 C   0  0  0  0  0  0  0  0  0  0  0  0
    7.2083   -7.1583    0.0000 C   0  0  0  0  0  0  0  0  0  0  0  0
    7.2292   -2.9042    0.0000 C   0  0  0  0  0  0  0  0  0  0  0  0
    7.8417   -3.9667    0.0000 C   0  0  0  0  0  0  0  0  0  0  0  0
    2.3083   -3.6083    0.0000 C   0  0  0  0  0  0  0  0  0  0  0  0
    2.3083   -2.9000    0.0000 C   0  0  0  0  0  0  0  0  0  0  0  0
  2  3  1  0
  3  8  1  0
  4  6  1  0
  5  1  1  0
  6 17  1  0
  7  2  1  0
  8  5  2  0
  9  4  1  0
 10  1  1  0
 11  1  2  0
 12  1  2  0
 13 23  1  0
 14 19  1  0
 15  2  2  0
 16  5  1  0
 17 16  2  0
 18 20  1  0
 19 21  1  0
 20 13  1  0
 21 13  1  0
 22 15  1  0
 23 22  1  0
 24  7  2  0
 25  9  2  0
 26 14  1  0
 27 10  1  0
 28 10  1  0
 29 24  1  0
 30 25  1  0
  3  6  2  0
  7  9  1  0
 29 30  2  0
 14 18  1  0
M  END
> <chembl_id>
CHEMBL1201

> <chembl_pref_name>
THIOTHIXENE
