
     RDKit          2D

  7  4  0  0  0  0  0  0  0  0999 V2000
    2.5250   -4.2500    0.0000 Na  0  0  0  0  0 15  0  0  0  0  0  0
    0.9000   -3.8750    0.0000 P   0  0  0  0  0  0  0  0  0  0  0  0
    0.2917   -4.2292    0.0000 O   0  0  0  0  0  0  0  0  0  0  0  0
    1.5042   -4.2292    0.0000 O   0  0  0  0  0  0  0  0  0  0  0  0
    1.2500   -3.2542    0.0000 O   0  0  0  0  0  0  0  0  0  0  0  0
    0.5417   -3.2542    0.0000 O   0  0  0  0  0  0  0  0  0  0  0  0
   -0.9083   -4.2792    0.0000 Na  0  0  0  0  0 15  0  0  0  0  0  0
  3  2  1  0
  4  2  1  0
  5  2  2  0
  6  2  1  0
M  CHG  4   1   1   3  -1   4  -1   7   1
M  END
> <chembl_id>
CHEMBL1060

> <chembl_pref_name>
SODIUM PHOSPHATE
