
     RDKit          2D

 29 32  0  0  0  0  0  0  0  0999 V2000
    1.0250   -4.9042    0.0000 C   0  0  0  0  0  0  0  0  0  0  0  0
    2.2750   -5.6167    0.0000 C   0  0  0  0  0  0  0  0  0  0  0  0
    2.2750   -4.9042    0.0000 C   0  0  0  0  0  0  0  0  0  0  0  0
    1.6625   -4.5292    0.0000 O   0  0  0  0  0  0  0  0  0  0  0  0
    1.6625   -5.9667    0.0000 C   0  0  0  0  0  0  0  0  0  0  0  0
    1.0250   -5.6167    0.0000 C   0  0  0  0  0  0  0  0  0  0  0  0
    0.4250   -4.5292    0.0000 C   0  0  0  0  0  0  0  0  0  0  0  0
    0.4250   -3.8167    0.0000 C   0  0  0  0  0  0  0  0  0  0  0  0
    1.6625   -1.7292    0.0000 N   0  0  0  0  0  0  0  0  0  0  0  0
    2.8750   -4.5292    0.0000 C   0  0  0  0  0  0  0  0  0  0  0  0
    1.6625   -6.6667    0.0000 O   0  0  0  0  0  0  0  0  0  0  0  0
   -0.1958   -3.4792    0.0000 O   0  0  0  0  0  0  0  0  0  0  0  0
    2.8750   -5.9667    0.0000 C   0  0  0  0  0  0  0  0  0  0  0  0
    1.0250   -3.4792    0.0000 O   0  0  0  0  0  0  0  0  0  0  0  0
   -0.1958   -4.9042    0.0000 C   0  0  0  0  0  0  0  0  0  0  0  0
    0.4250   -5.9667    0.0000 C   0  0  0  0  0  0  0  0  0  0  0  0
    1.6625   -2.4417    0.0000 C   0  0  0  0  0  0  0  0  0  0  0  0
    1.0250   -2.7792    0.0000 C   0  0  0  0  0  0  0  0  0  0  0  0
   -0.1958   -5.6167    0.0000 C   0  0  0  0  0  0  0  0  0  0  0  0
    1.0250   -1.3417    0.0000 C   0  0  0  0  0  0  0  0  0  0  0  0
    2.2750   -1.3417    0.0000 C   0  0  0  0  0  0  0  0  0  0  0  0
    3.4750   -4.9042    0.0000 C   0  0  0  0  0  0  0  0  0  0  0  0
    2.8750   -3.8167    0.0000 C   0  0  0  0  0  0  0  0  0  0  0  0
    1.0250   -0.6417    0.0000 C   0  0  0  0  0  0  0  0  0  0  0  0
    2.2750   -0.6417    0.0000 C   0  0  0  0  0  0  0  0  0  0  0  0
    3.4750   -3.4792    0.0000 C   0  0  0  0  0  0  0  0  0  0  0  0
    4.0917   -4.5292    0.0000 C   0  0  0  0  0  0  0  0  0  0  0  0
    1.6625   -0.3042    0.0000 C   0  0  0  0  0  0  0  0  0  0  0  0
    4.0917   -3.8167    0.0000 C   0  0  0  0  0  0  0  0  0  0  0  0
  2  5  1  0
  3  4  1  0
  4  1  1  0
  5  6  1  0
  6  1  2  0
  7  1  1  0
  8  7  1  0
  9 17  1  0
 10  3  1  0
 11  5  2  0
 12  8  2  0
 13  2  1  0
 14  8  1  0
 15  7  2  0
 16  6  1  0
 17 18  1  0
 18 14  1  0
 19 15  1  0
 20  9  1  0
 21  9  1  0
 22 10  1  0
 23 10  2  0
 24 20  1  0
 25 21  1  0
 26 23  1  0
 27 22  2  0
 28 24  1  0
 29 27  1  0
  3  2  2  0
 16 19  2  0
 26 29  2  0
 25 28  1  0
M  END
> <chembl_id>
CHEMBL1493

> <chembl_pref_name>
FLAVOXATE
