
     RDKit          2D

 23 21  0  0  0  0  0  0  0  0999 V2000
    5.2119   -6.1979    0.0000 O   0  0  0  0  0  0  0  0  0  0  0  0
    6.0537   -4.1201    0.0000 C   0  0  0  0  0  0  0  0  0  0  0  0
    7.3873   -3.8960    0.0000 C   0  0  0  0  0  0  0  0  0  0  0  0
    6.8090   -4.4996    0.0000 N   0  0  0  0  0  0  0  0  0  0  0  0
    6.1801   -3.2889    0.0000 C   0  0  0  0  0  0  0  0  0  0  0  0
    6.9933   -3.1479    0.0000 C   0  0  0  0  0  0  0  0  0  0  0  0
    5.3127   -4.5032    0.0000 C   0  0  0  0  0  0  0  0  0  0  0  0
    8.1968   -4.1129    0.0000 C   0  0  0  0  0  0  0  0  0  0  0  0
    8.9052   -3.6900    0.0000 C   0  0  0  0  0  0  0  0  0  0  0  0
    4.6514   -4.1237    0.0000 C   0  0  0  0  0  0  0  0  0  0  0  0
    5.3055   -5.2730    0.0000 O   0  0  0  0  0  0  0  0  0  0  0  0
    9.7075   -3.9069    0.0000 O   0  0  0  0  0  0  0  0  0  0  0  0
    8.9052   -2.8660    0.0000 O   0  0  0  0  0  0  0  0  0  0  0  0
    4.6514   -3.3539    0.0000 C   0  0  0  0  0  0  0  0  0  0  0  0
    3.9828   -4.5032    0.0000 C   0  0  0  0  0  0  0  0  0  0  0  0
    6.8018   -5.3344    0.0000 C   0  0  0  0  0  0  0  0  0  0  0  0
    3.3214   -3.3539    0.0000 C   0  0  0  0  0  0  0  0  0  0  0  0
    5.5874   -2.7034    0.0000 C   0  0  0  0  0  0  0  0  0  0  0  0
    3.9828   -2.9708    0.0000 C   0  0  0  0  0  0  0  0  0  0  0  0
    3.3214   -4.1237    0.0000 C   0  0  0  0  0  0  0  0  0  0  0  0
    2.7793   -2.8118    0.0000 Cl  0  0  0  0  0  0  0  0  0  0  0  0
    8.5221   -5.5187    0.0000 Na  0  0  0  0  0 15  0  0  0  0  0  0
    4.3386   -6.2825    0.0000 O   0  0  0  0  0  0  0  0  0  0  0  0
  3  4  1  0
  4  2  1  0
  5  2  2  0
  6  5  1  0
  7  2  1  0
  8  3  1  0
  9  8  1  0
 10  7  1  0
 11  7  2  0
 12  9  1  0
 13  9  2  0
 14 10  1  0
 15 10  2  0
 16  4  1  0
 17 20  2  0
 18  5  1  0
 19 14  2  0
 20 15  1  0
 21 17  1  0
  3  6  2  0
 19 17  1  0
M  CHG  2  12  -1  22   1
M  END
> <chembl_id>
CHEMBL3989403

> <chembl_pref_name>
ZOMEPIRAC SODIUM
