
     RDKit          2D

 18 20  0  0  0  0  0  0  0  0999 V2000
    6.0042   -5.5750    0.0000 C   0  0  0  0  0  0  0  0  0  0  0  0
    5.6292   -4.4625    0.0000 N   0  0  0  0  0  0  0  0  0  0  0  0
    6.5667   -5.1292    0.0000 N   0  0  0  0  0  0  0  0  0  0  0  0
    5.3792   -5.1792    0.0000 C   0  0  0  0  0  0  0  0  0  0  0  0
    6.0042   -6.2375    0.0000 C   0  0  0  0  0  0  0  0  0  0  0  0
    5.3875   -6.5917    0.0000 N   0  0  0  0  0  0  0  0  0  0  0  0
    6.3042   -4.4625    0.0000 C   0  0  0  0  0  0  0  0  0  0  0  0
    4.7667   -5.5292    0.0000 C   0  0  0  0  0  0  0  0  0  0  0  0
    4.7667   -6.2375    0.0000 C   0  0  0  0  0  0  0  0  0  0  0  0
    5.0167   -4.1042    0.0000 C   0  0  0  0  0  0  0  0  0  0  0  0
    6.6167   -6.5792    0.0000 N   0  0  0  0  0  0  0  0  0  0  0  0
    4.1500   -5.1792    0.0000 C   0  0  0  0  0  0  0  0  0  0  0  0
    4.1500   -6.5917    0.0000 C   0  0  0  0  0  0  0  0  0  0  0  0
    5.0167   -3.4250    0.0000 C   0  0  0  0  0  0  0  0  0  0  0  0
    4.4292   -3.0625    0.0000 C   0  0  0  0  0  0  0  0  0  0  0  0
    5.6292   -3.0625    0.0000 C   0  0  0  0  0  0  0  0  0  0  0  0
    3.5292   -5.5292    0.0000 C   0  0  0  0  0  0  0  0  0  0  0  0
    3.5292   -6.2375    0.0000 C   0  0  0  0  0  0  0  0  0  0  0  0
  2  4  1  0
  3  1  1  0
  4  1  1  0
  5  1  2  0
  6  5  1  0
  7  3  2  0
  8  4  2  0
  9  6  2  0
 10  2  1  0
 11  5  1  0
 12  8  1  0
 13  9  1  0
 14 10  1  0
 15 14  1  0
 16 14  1  0
 17 12  2  0
 18 13  2  0
  7  2  1  0
  9  8  1  0
 18 17  1  0
M  END
> <chembl_id>
CHEMBL1282

> <chembl_pref_name>
IMIQUIMOD
