
     RDKit          2D

 47 48  0  0  0  0  0  0  0  0999 V2000
   -3.1626  -10.8963    0.0000 C   0  0  0  0  0  0  0  0  0  0  0  0
   -2.4498  -11.3085    0.0000 C   0  0  0  0  0  0  0  0  0  0  0  0
   -1.7370  -10.8915    0.0000 O   0  0  0  0  0  0  0  0  0  0  0  0
    1.1190  -10.8817    0.0000 N   0  0  0  0  0  0  0  0  0  0  0  0
    1.8318  -11.2939    0.0000 C   0  0  0  0  0  0  0  0  0  0  0  0
   -3.1626  -10.0671    0.0000 C   0  0  0  0  0  0  0  0  0  0  0  0
   -0.3114  -10.8866    0.0000 C   0  0  0  0  0  0  0  0  0  0  0  0
   -1.0242  -11.3036    0.0000 C   0  0  0  0  0  0  0  0  0  0  0  0
    0.4062  -11.2988    0.0000 C   0  0  0  0  0  0  0  0  0  0  0  0
   -0.3114  -10.0623    0.0000 O   0  0  0  0  0  0  0  0  0  0  0  0
   -3.8753  -11.3085    0.0000 C   0  0  0  0  0  0  0  0  0  0  0  0
   -2.4498  -12.1376    0.0000 C   0  0  0  0  0  0  0  0  0  0  0  0
    2.5446  -10.8769    0.0000 C   0  0  0  0  0  0  0  0  0  0  0  0
    2.2391  -12.0067    0.0000 C   0  0  0  0  0  0  0  0  0  0  0  0
    1.4099  -12.0067    0.0000 C   0  0  0  0  0  0  0  0  0  0  0  0
   -3.8317   -9.5871    0.0000 C   0  0  0  0  0  0  0  0  0  0  0  0
   -2.4983   -9.5823    0.0000 C   0  0  0  0  0  0  0  0  0  0  0  0
   -3.8753  -12.1376    0.0000 C   0  0  0  0  0  0  0  0  0  0  0  0
   -3.1626  -12.5498    0.0000 C   0  0  0  0  0  0  0  0  0  0  0  0
   -2.7553   -8.7968    0.0000 C   0  0  0  0  0  0  0  0  0  0  0  0
   -3.5795   -8.8016    0.0000 C   0  0  0  0  0  0  0  0  0  0  0  0
    4.4125   -6.4926    0.0000 S   0  0  0  0  0  0  0  0  0  0  0  0
    4.8198   -5.7750    0.0000 O   0  0  0  0  0  0  0  0  0  0  0  0
    3.9906   -5.7750    0.0000 O   0  0  0  0  0  0  0  0  0  0  0  0
    3.6997   -6.9096    0.0000 O   0  0  0  0  0  0  0  0  0  0  0  0
    5.1253   -6.9096    0.0000 O   0  0  0  0  0  0  0  0  0  0  0  0
   -3.1421   -6.4247    0.0000 C   0  0  0  0  0  0  0  0  0  0  0  0
   -2.4293   -6.8369    0.0000 C   0  0  0  0  0  0  0  0  0  0  0  0
   -1.7165   -6.4199    0.0000 O   0  0  0  0  0  0  0  0  0  0  0  0
    1.1395   -6.4101    0.0000 N   0  0  0  0  0  0  0  0  0  0  0  0
    1.8523   -6.8223    0.0000 C   0  0  0  0  0  0  0  0  0  0  0  0
   -3.1421   -5.5955    0.0000 C   0  0  0  0  0  0  0  0  0  0  0  0
   -0.2909   -6.4150    0.0000 C   0  0  0  0  0  0  0  0  0  0  0  0
   -1.0037   -6.8320    0.0000 C   0  0  0  0  0  0  0  0  0  0  0  0
    0.4267   -6.8272    0.0000 C   0  0  0  0  0  0  0  0  0  0  0  0
   -0.2909   -5.5908    0.0000 O   0  0  0  0  0  0  0  0  0  0  0  0
   -3.8548   -6.8369    0.0000 C   0  0  0  0  0  0  0  0  0  0  0  0
   -2.4293   -7.6660    0.0000 C   0  0  0  0  0  0  0  0  0  0  0  0
    2.5651   -6.4054    0.0000 C   0  0  0  0  0  0  0  0  0  0  0  0
    2.2596   -7.5351    0.0000 C   0  0  0  0  0  0  0  0  0  0  0  0
    1.4304   -7.5351    0.0000 C   0  0  0  0  0  0  0  0  0  0  0  0
   -3.8112   -5.1155    0.0000 C   0  0  0  0  0  0  0  0  0  0  0  0
   -2.4778   -5.1107    0.0000 C   0  0  0  0  0  0  0  0  0  0  0  0
   -3.8548   -7.6660    0.0000 C   0  0  0  0  0  0  0  0  0  0  0  0
   -3.1421   -8.0782    0.0000 C   0  0  0  0  0  0  0  0  0  0  0  0
   -2.7347   -4.3252    0.0000 C   0  0  0  0  0  0  0  0  0  0  0  0
   -3.5590   -4.3300    0.0000 C   0  0  0  0  0  0  0  0  0  0  0  0
  2  1  2  0
  3  2  1  0
  4  9  1  0
  5  4  1  0
  6  1  1  0
  7  8  1  0
  8  3  1  0
  9  7  1  0
  7 10  1  1
 11  1  1  0
 12  2  1  0
 13  5  1  0
 14  5  1  0
 15  5  1  0
 16  6  1  0
 17  6  1  0
 18 11  2  0
 19 18  1  0
 20 17  1  0
 21 16  1  0
 12 19  2  0
 21 20  1  0
 23 22  2  0
 24 22  2  0
 25 22  1  0
 26 22  1  0
 28 27  2  0
 29 28  1  0
 30 35  1  0
 31 30  1  0
 32 27  1  0
 33 34  1  0
 34 29  1  0
 35 33  1  0
 33 36  1  1
 37 27  1  0
 38 28  1  0
 39 31  1  0
 40 31  1  0
 41 31  1  0
 42 32  1  0
 43 32  1  0
 44 37  2  0
 45 44  1  0
 46 43  1  0
 47 42  1  0
 38 45  2  0
 47 46  1  0
M  END
> <chembl_id>
CHEMBL2361370

> <chembl_pref_name>
PENBUTOLOL SULFATE
