
     RDKit          2D

 53 56  0  0  0  0  0  0  0  0999 V2000
    9.2810  -11.3660    0.0000 C   0  0  0  0  0  0  0  0  0  0  0  0
    9.2810  -12.1910    0.0000 C   0  0  0  0  0  0  0  0  0  0  0  0
    8.5666  -12.6035    0.0000 C   0  0  0  0  0  0  0  0  0  0  0  0
    7.8521  -12.1910    0.0000 C   0  0  0  0  0  0  0  0  0  0  0  0
    7.8521  -11.3660    0.0000 C   0  0  0  0  0  0  0  0  0  0  0  0
    8.5666  -10.9535    0.0000 C   0  0  0  0  0  0  0  0  0  0  0  0
    9.9955  -10.9535    0.0000 C   0  0  0  0  0  0  0  0  0  0  0  0
    9.9955  -10.1285    0.0000 O   0  0  0  0  0  0  0  0  0  0  0  0
   10.7100  -11.3660    0.0000 N   0  0  0  0  0  0  0  0  0  0  0  0
   11.4244  -10.9535    0.0000 C   0  0  0  0  0  0  0  0  0  0  0  0
   12.1389  -11.3660    0.0000 C   0  0  0  0  0  0  0  0  0  0  0  0
   12.8534  -10.9535    0.0000 O   0  0  0  0  0  0  0  0  0  0  0  0
   12.1389  -12.1910    0.0000 O   0  0  0  0  0  0  0  0  0  0  0  0
    5.0384   -5.4804    0.0000 C   0  0  0  0  0  0  0  0  0  0  0  0
    4.3239   -5.8929    0.0000 C   0  0  0  0  0  0  0  0  0  0  0  0
    4.3239   -6.7179    0.0000 C   0  0  0  0  0  0  0  0  0  0  0  0
    5.0384   -7.1304    0.0000 C   0  0  0  0  0  0  0  0  0  0  0  0
    5.7529   -6.7179    0.0000 C   0  0  0  0  0  0  0  0  0  0  0  0
    5.7529   -5.8929    0.0000 C   0  0  0  0  0  0  0  0  0  0  0  0
    3.6094   -7.1304    0.0000 Cl  0  0  0  0  0  0  0  0  0  0  0  0
    6.4674   -5.4804    0.0000 C   0  0  0  0  0  0  0  0  0  0  0  0
    7.1818   -5.8928    0.0000 O   0  0  0  0  0  0  0  0  0  0  0  0
    6.8799   -4.7659    0.0000 C   0  0  0  0  0  0  0  0  0  0  0  0
    7.8963   -5.4803    0.0000 C   0  0  0  0  0  0  0  0  0  0  0  0
    8.6108   -5.8929    0.0000 C   0  0  0  0  0  0  0  0  0  0  0  0
    9.3253   -5.4804    0.0000 C   0  0  0  0  0  0  0  0  0  0  0  0
    9.3252   -4.6553    0.0000 N   0  0  0  0  0  0  0  0  0  0  0  0
    8.6108   -4.2428    0.0000 C   0  0  0  0  0  0  0  0  0  0  0  0
    7.8963   -4.6553    0.0000 N   0  0  0  0  0  0  0  0  0  0  0  0
    8.6108   -3.4178    0.0000 N   0  0  0  0  0  0  0  0  0  0  0  0
    6.2965   -4.1825    0.0000 F   0  0  0  0  0  0  0  0  0  0  0  0
    7.4632   -4.1825    0.0000 F   0  0  0  0  0  0  0  0  0  0  0  0
    6.8799   -3.9409    0.0000 F   0  0  0  0  0  0  0  0  0  0  0  0
   10.0397   -5.8929    0.0000 C   0  0  0  0  0  0  0  0  0  0  0  0
   10.0397   -6.7179    0.0000 C   0  0  0  0  0  0  0  0  0  0  0  0
   10.7542   -7.1304    0.0000 C   0  0  0  0  0  0  0  0  0  0  0  0
   11.4687   -6.7179    0.0000 C   0  0  0  0  0  0  0  0  0  0  0  0
   11.4687   -5.8928    0.0000 C   0  0  0  0  0  0  0  0  0  0  0  0
   10.7542   -5.4803    0.0000 C   0  0  0  0  0  0  0  0  0  0  0  0
   12.1832   -7.1303    0.0000 C   0  0  0  0  0  0  0  0  0  0  0  0
   12.8976   -6.7178    0.0000 C   0  0  0  0  0  0  0  0  0  0  0  0
   13.6121   -7.1303    0.0000 C   0  0  0  0  0  0  0  0  0  0  0  0
   14.3266   -6.7178    0.0000 O   0  0  0  0  0  0  0  0  0  0  0  0
   13.6121   -7.9553    0.0000 O   0  0  0  0  0  0  0  0  0  0  0  0
   13.3101   -6.0034    0.0000 N   0  0  0  0  0  0  0  0  0  0  0  0
    6.4674   -7.1304    0.0000 N   0  0  0  0  0  0  0  0  0  0  0  0
    6.5536   -7.9508    0.0000 C   0  0  0  0  0  0  0  0  0  0  0  0
    7.3605   -8.1224    0.0000 C   0  0  0  0  0  0  0  0  0  0  0  0
    7.7730   -7.4079    0.0000 C   0  0  0  0  0  0  0  0  0  0  0  0
    7.2210   -6.7948    0.0000 N   0  0  0  0  0  0  0  0  0  0  0  0
    8.5935   -7.3217    0.0000 C   0  0  0  0  0  0  0  0  0  0  0  0
   15.0410   -7.1303    0.0000 C   0  0  0  0  0  0  0  0  0  0  0  0
   15.7555   -6.7178    0.0000 C   0  0  0  0  0  0  0  0  0  0  0  0
  1  2  1  0
  1  6  2  0
  2  3  2  0
  3  4  1  0
  4  5  2  0
  5  6  1  0
  1  7  1  0
  7  8  2  0
  7  9  1  0
  9 10  1  0
 10 11  1  0
 11 12  1  0
 11 13  2  0
 14 15  1  0
 14 19  2  0
 15 16  2  0
 16 17  1  0
 17 18  2  0
 18 19  1  0
 16 20  1  0
 19 21  1  0
 21 22  1  6
 21 23  1  0
 22 24  1  0
 24 25  1  0
 24 29  2  0
 25 26  2  0
 26 27  1  0
 27 28  2  0
 28 29  1  0
 28 30  1  0
 23 31  1  0
 23 32  1  0
 23 33  1  0
 26 34  1  0
 34 35  1  0
 34 39  2  0
 35 36  2  0
 36 37  1  0
 37 38  2  0
 38 39  1  0
 37 40  1  0
 40 41  1  0
 41 42  1  0
 42 43  1  0
 42 44  2  0
 41 45  1  6
 18 46  1  0
 46 47  1  0
 46 50  1  0
 47 48  2  0
 48 49  1  0
 49 50  2  0
 49 51  1  0
 43 52  1  0
 52 53  1  0
M  END
> <chembl_id>
CHEMBL3348963

> <chembl_pref_name>
TELOTRISTAT ETIPRATE
