
     RDKit          2D

 28 31  0  0  0  0  0  0  0  0999 V2000
    3.0292    0.8083    0.0000 C   0  0  0  0  0  0  0  0  0  0  0  0
    2.5750    0.1833    0.0000 N   0  0  0  0  0  0  0  0  0  0  0  0
    3.7667    0.5708    0.0000 N   0  0  0  0  0  0  0  0  0  0  0  0
   -3.4458    0.8708    0.0000 C   0  0  0  0  0  0  0  0  0  0  0  0
    3.0292   -0.4417    0.0000 C   0  0  0  0  0  0  0  0  0  0  0  0
    3.7667   -0.2042    0.0000 C   0  0  0  0  0  0  0  0  0  0  0  0
   -1.0833   -0.4167    0.0000 N   0  0  0  0  0  0  0  0  0  0  0  0
    1.8000    0.1833    0.0000 C   0  0  0  0  0  0  0  0  0  0  0  0
   -3.0375    0.2000    0.0000 C   0  0  0  0  0  0  0  0  0  0  0  0
   -1.8583   -0.4375    0.0000 C   0  0  0  0  0  0  0  0  0  0  0  0
    0.4750   -0.3750    0.0000 N   0  0  0  0  0  0  0  0  0  0  0  0
   -2.2625    0.2208    0.0000 C   0  0  0  0  0  0  0  0  0  0  0  0
    2.8250    1.5625    0.0000 O   0  0  0  0  0  0  0  0  0  0  0  0
   -0.6750   -1.0792    0.0000 C   0  0  0  0  0  0  0  0  0  0  0  0
   -0.7125    0.2625    0.0000 C   0  0  0  0  0  0  0  0  0  0  0  0
    1.2500   -0.3750    0.0000 C   0  0  0  0  0  0  0  0  0  0  0  0
   -3.8125    1.4708    0.0000 F   0  0  0  0  0  0  0  0  0  0  0  0
   -3.1750    1.6333    0.0000 F   0  0  0  0  0  0  0  0  0  0  0  0
   -4.2458    0.9750    0.0000 F   0  0  0  0  0  0  0  0  0  0  0  0
    0.0625    0.2833    0.0000 C   0  0  0  0  0  0  0  0  0  0  0  0
    0.1000   -1.0542    0.0000 C   0  0  0  0  0  0  0  0  0  0  0  0
    2.8667   -1.2000    0.0000 C   0  0  0  0  0  0  0  0  0  0  0  0
    4.3417   -0.7250    0.0000 C   0  0  0  0  0  0  0  0  0  0  0  0
   -3.4083   -0.4792    0.0000 C   0  0  0  0  0  0  0  0  0  0  0  0
   -2.2208   -1.1167    0.0000 C   0  0  0  0  0  0  0  0  0  0  0  0
   -2.9958   -1.1417    0.0000 C   0  0  0  0  0  0  0  0  0  0  0  0
    3.4417   -1.7167    0.0000 C   0  0  0  0  0  0  0  0  0  0  0  0
    4.1792   -1.4792    0.0000 C   0  0  0  0  0  0  0  0  0  0  0  0
  2  1  1  0
  3  1  1  0
  4  9  1  0
  5  2  1  0
  6  3  1  0
  7 14  1  0
  8  2  1  0
  9 12  1  0
 10  7  1  0
 11 16  1  0
 12 10  2  0
 13  1  2  0
 14 21  1  0
 15 20  1  0
 16  8  1  0
 17  4  1  0
 18  4  1  0
 19  4  1  0
 20 11  1  0
 21 11  1  0
 22  5  1  0
 23  6  1  0
 24 26  1  0
 25 10  1  0
 26 25  2  0
 27 22  2  0
 28 23  2  0
  5  6  2  0
 27 28  1  0
 15  7  1  0
  9 24  2  0
M  END
> <chembl_id>
CHEMBL231068

> <chembl_pref_name>
FLIBANSERIN
