
     RDKit          2D

 20 21  0  0  1  0  0  0  0  0999 V2000
   -0.8625    0.2083    0.0000 N   0  0  0  0  0  0  0  0  0  0  0  0
   -0.8625   -0.8750    0.0000 C   0  0  0  0  0  0  0  0  0  0  0  0
   -1.8000    0.7500    0.0000 C   0  0  0  0  0  0  0  0  0  0  0  0
   -1.8000    1.8458    0.0000 N   0  0  0  0  0  0  0  0  0  0  0  0
    0.0792    0.7500    0.0000 C   0  0  0  0  0  0  0  0  0  0  0  0
    0.0125   -1.5000    0.0000 C   0  0  0  0  0  0  0  0  0  0  0  0
    0.0792    1.8458    0.0000 C   0  0  0  0  0  0  0  0  0  0  0  0
   -1.7333   -1.5375    0.0000 O   0  0  0  0  0  0  0  0  0  0  0  0
   -0.8625    2.3958    0.0000 C   0  0  0  0  0  0  0  0  0  0  0  0
   -0.3000   -2.5292    0.0000 C   0  0  0  0  0  0  0  0  0  0  0  0
   -1.3708   -2.5417    0.0000 C   0  0  0  0  0  0  0  0  0  0  0  0
    1.0250    2.3958    0.0000 C   0  0  0  0  0  0  0  0  0  0  0  0
   -2.7458    0.2083    0.0000 O   0  0  0  0  0  0  0  0  0  0  0  0
   -0.8625    3.4708    0.0000 O   0  0  0  0  0  0  0  0  0  0  0  0
    1.9542    1.8500    0.0000 C   0  0  0  0  0  0  0  0  0  0  0  0
    1.0125   -1.1417    0.0000 O   0  0  0  0  0  0  0  0  0  0  0  0
    0.3167   -3.3917    0.0000 O   0  0  0  0  0  0  0  0  0  0  0  0
    2.8792    2.4000    0.0000 Br  0  0  0  0  0  0  0  0  0  0  0  0
   -1.9833   -3.4167    0.0000 C   0  0  0  0  0  0  0  0  0  0  0  0
   -3.0458   -3.3375    0.0000 O   0  0  0  0  0  0  0  0  0  0  0  0
  2  1  1  1
  3  1  1  0
  4  3  1  0
  5  1  1  0
  6  2  1  0
  7  5  2  0
  8  2  1  0
  9  7  1  0
 10  6  1  0
 11  8  1  0
 12  7  1  0
 13  3  2  0
 14  9  2  0
 15 12  2  0
  6 16  1  1
 10 17  1  6
 18 15  1  0
 11 19  1  1
 20 19  1  0
  4  9  1  0
 11 10  1  0
M  END
> <chembl_id>
CHEMBL70046

> <chembl_pref_name>
SORIVUDINE
