
     RDKit          2D

 36 39  0  0  0  0  0  0  0  0999 V2000
    1.9150    2.0007    0.0000 Na  0  0  0  0  0 15  0  0  0  0  0  0
    4.0699    1.1802    0.0000 C   0  0  0  0  0  0  0  0  0  0  0  0
    4.2122    0.2355    0.0000 C   0  0  0  0  0  0  0  0  0  0  0  0
    4.7824   -0.5311    0.0000 C   0  0  0  0  0  0  0  0  0  0  0  0
    3.9694   -0.6708    0.0000 O   0  0  0  0  0  0  0  0  0  0  0  0
    3.3532   -0.1222    0.0000 C   0  0  0  0  0  0  0  0  0  0  0  0
    3.3979    0.7016    0.0000 N   0  0  0  0  0  0  0  0  0  0  0  0
    2.7069    1.1522    0.0000 C   0  0  0  0  0  0  0  0  0  0  0  0
    2.6174   -0.4953    0.0000 C   0  0  0  0  0  0  0  0  0  0  0  0
    1.9264   -0.0447    0.0000 N   0  0  0  0  0  0  0  0  0  0  0  0
    1.9711    0.7791    0.0000 C   0  0  0  0  0  0  0  0  0  0  0  0
    1.2800    1.2297    0.0000 C   0  0  0  0  0  0  0  0  0  0  0  0
    1.1906   -0.4179    0.0000 C   0  0  0  0  0  0  0  0  0  0  0  0
    0.4995    0.0328    0.0000 C   0  0  0  0  0  0  0  0  0  0  0  0
    0.5442    0.8566    0.0000 C   0  0  0  0  0  0  0  0  0  0  0  0
    5.1802    0.1917    0.0000 C   0  0  0  0  0  0  0  0  0  0  0  0
    4.8631    0.9533    0.0000 C   0  0  0  0  0  0  0  0  0  0  0  0
    5.2611   -1.2031    0.0000 H   0  0  0  0  0  0  0  0  0  0  0  0
    3.9302    1.9933    0.0000 H   0  0  0  0  0  0  0  0  0  0  0  0
    3.3440   -0.9183    0.0000 H   0  0  0  0  0  0  0  0  0  0  0  0
    2.7516    1.9760    0.0000 O   0  0  0  0  0  0  0  0  0  0  0  0
   -0.1468    1.3072    0.0000 O   0  0  0  0  0  0  0  0  0  0  0  0
    1.3248    2.0535    0.0000 O   0  0  0  0  0  0  0  0  0  0  0  0
   -0.2363   -0.3404    0.0000 C   0  0  0  0  0  0  0  0  0  0  0  0
   -0.9273    0.1103    0.0000 N   0  0  0  0  0  0  0  0  0  0  0  0
   -0.2810   -1.1642    0.0000 O   0  0  0  0  0  0  0  0  0  0  0  0
   -1.6631   -0.2629    0.0000 C   0  0  0  0  0  0  0  0  0  0  0  0
   -2.3542    0.1878    0.0000 C   0  0  0  0  0  0  0  0  0  0  0  0
   -3.7810    0.2652    0.0000 C   0  0  0  0  0  0  0  0  0  0  0  0
   -3.0900   -0.1854    0.0000 C   0  0  0  0  0  0  0  0  0  0  0  0
   -2.3094    1.0115    0.0000 C   0  0  0  0  0  0  0  0  0  0  0  0
   -3.0005    1.4622    0.0000 C   0  0  0  0  0  0  0  0  0  0  0  0
   -3.7363    1.0890    0.0000 C   0  0  0  0  0  0  0  0  0  0  0  0
   -3.1347   -1.0092    0.0000 F   0  0  0  0  0  0  0  0  0  0  0  0
   -4.4273    1.5397    0.0000 F   0  0  0  0  0  0  0  0  0  0  0  0
   -1.5736    1.3847    0.0000 F   0  0  0  0  0  0  0  0  0  0  0  0
  2  3  1  0
  3  4  1  0
  4  5  1  0
  5  6  1  0
  6  7  1  0
  2  7  1  0
  9 10  1  0
 10 11  1  0
  8 11  1  0
  6  9  1  0
  8  7  1  0
 13 14  2  0
 14 15  1  0
 12 15  1  0
 10 13  1  0
 12 11  2  0
  4 16  1  0
  2 17  1  0
 17 16  1  0
  4 18  1  6
  2 19  1  6
  6 20  1  1
  8 21  2  0
 15 22  2  0
 12 23  1  0
 14 24  1  0
 24 25  1  0
 24 26  2  0
 25 27  1  0
 27 28  1  0
 29 30  1  0
 31 32  2  0
 32 33  1  0
 29 33  2  0
 30 28  2  0
 28 31  1  0
 30 34  1  0
 33 35  1  0
 31 36  1  0
M  CHG  2   1   1  23  -1
M  END
> <chembl_id>
CHEMBL3989867

> <chembl_pref_name>
BICTEGRAVIR SODIUM
