
     RDKit          2D

 23 26  0  0  0  0  0  0  0  0999 V2000
    5.5792   -5.0292    0.0000 C   0  0  0  0  0  0  0  0  0  0  0  0
    4.8625   -5.0417    0.0000 N   0  0  0  0  0  0  0  0  0  0  0  0
    6.0042   -5.5917    0.0000 C   0  0  0  0  0  0  0  0  0  0  0  0
    5.2250   -6.5917    0.0000 N   0  0  0  0  0  0  0  0  0  0  0  0
    5.9167   -4.4125    0.0000 N   0  0  0  0  0  0  0  0  0  0  0  0
    4.4125   -5.6000    0.0000 C   0  0  0  0  0  0  0  0  0  0  0  0
    5.8625   -6.2792    0.0000 C   0  0  0  0  0  0  0  0  0  0  0  0
    4.5917   -6.2917    0.0000 C   0  0  0  0  0  0  0  0  0  0  0  0
    3.7292   -5.4167    0.0000 C   0  0  0  0  0  0  0  0  0  0  0  0
    6.5750   -3.1542    0.0000 N   0  0  0  0  0  0  0  0  0  0  0  0
    6.6167   -4.3792    0.0000 C   0  0  0  0  0  0  0  0  0  0  0  0
    5.5375   -3.8125    0.0000 C   0  0  0  0  0  0  0  0  0  0  0  0
    4.0917   -6.8000    0.0000 C   0  0  0  0  0  0  0  0  0  0  0  0
    3.2167   -5.9042    0.0000 C   0  0  0  0  0  0  0  0  0  0  0  0
    6.9542   -3.7625    0.0000 C   0  0  0  0  0  0  0  0  0  0  0  0
    5.8667   -3.1792    0.0000 C   0  0  0  0  0  0  0  0  0  0  0  0
    6.6792   -5.3542    0.0000 C   0  0  0  0  0  0  0  0  0  0  0  0
    3.4042   -6.6042    0.0000 C   0  0  0  0  0  0  0  0  0  0  0  0
    2.5375   -5.7042    0.0000 Cl  0  0  0  0  0  0  0  0  0  0  0  0
    6.3917   -6.7417    0.0000 C   0  0  0  0  0  0  0  0  0  0  0  0
    6.9042   -2.5292    0.0000 C   0  0  0  0  0  0  0  0  0  0  0  0
    7.2167   -5.8375    0.0000 C   0  0  0  0  0  0  0  0  0  0  0  0
    7.0750   -6.5292    0.0000 C   0  0  0  0  0  0  0  0  0  0  0  0
  2  1  2  0
  3  1  1  0
  4  7  1  0
  5  1  1  0
  6  2  1  0
  7  3  2  0
  8  6  2  0
  9  6  1  0
 10 16  1  0
 11  5  1  0
 12  5  1  0
 13  8  1  0
 14  9  2  0
 15 11  1  0
 16 12  1  0
 17  3  1  0
 18 14  1  0
 19 14  1  0
 20  7  1  0
 21 10  1  0
 22 17  2  0
 23 22  1  0
 10 15  1  0
  8  4  1  0
 23 20  2  0
 18 13  2  0
M  END
> <chembl_id>
CHEMBL42

> <chembl_pref_name>
CLOZAPINE
