
     RDKit          2D

 23 26  0  0  0  0  0  0  0  0999 V2000
    5.5609  -10.3986    0.0000 C   0  0  0  0  0  0  0  0  0  0  0  0
    4.7646  -10.4058    0.0000 C   0  0  0  0  0  0  0  0  0  0  0  0
    4.7640   -9.0242    0.0000 C   0  0  0  0  0  0  0  0  0  0  0  0
    4.3713   -9.7140    0.0000 C   0  0  0  0  0  0  0  0  0  0  0  0
    3.5794   -9.7178    0.0000 C   0  0  0  0  0  0  0  0  0  0  0  0
    3.1793   -9.0325    0.0000 C   0  0  0  0  0  0  0  0  0  0  0  0
    3.5768   -8.3421    0.0000 C   0  0  0  0  0  0  0  0  0  0  0  0
    4.3675   -8.3417    0.0000 C   0  0  0  0  0  0  0  0  0  0  0  0
    5.9635  -11.0858    0.0000 N   0  0  0  0  0  0  0  0  0  0  0  0
    5.5695  -11.7779    0.0000 C   0  0  0  0  0  0  0  0  0  0  0  0
    5.9722  -12.4651    0.0000 C   0  0  0  0  0  0  0  0  0  0  0  0
    5.5781  -13.1573    0.0000 C   0  0  0  0  0  0  0  0  0  0  0  0
    5.9567   -9.7076    0.0000 C   0  0  0  0  0  0  0  0  0  0  0  0
    5.5560   -9.0279    0.0000 C   0  0  0  0  0  0  0  0  0  0  0  0
    5.9419   -8.3446    0.0000 C   0  0  0  0  0  0  0  0  0  0  0  0
    6.7304   -8.3352    0.0000 C   0  0  0  0  0  0  0  0  0  0  0  0
    7.1314   -9.0148    0.0000 C   0  0  0  0  0  0  0  0  0  0  0  0
    6.7436   -9.7041    0.0000 C   0  0  0  0  0  0  0  0  0  0  0  0
    6.6108  -10.6676    0.0000 C   0  0  0  0  0  0  0  0  0  0  0  0
    6.6114   -9.0135    0.0000 C   0  0  0  0  0  0  0  0  0  0  0  0
    5.1568   -9.7112    0.0000 H   0  0  0  0  0  0  0  0  0  0  0  0
    3.1780   -7.6527    0.0000 O   0  0  0  0  0  0  0  0  0  0  0  0
    5.1583  -11.0912    0.0000 H   0  0  0  0  0  0  0  0  0  0  0  0
  9 19  1  0
  3 14  1  0
 14 20  1  6
 19 20  1  0
  7  8  2  0
 13 21  1  6
  8  3  1  0
  7 22  1  0
 13  1  1  0
  1  9  1  0
  1  2  1  0
  9 10  1  0
 10 11  1  0
 11 12  2  0
 13 14  1  0
  3  4  2  0
  1 23  1  1
  4  5  1  0
  5  6  2  0
  4  2  1  0
 13 18  1  0
 14 15  1  0
 15 16  1  0
 16 17  1  0
 17 18  1  0
  6  7  1  0
M  END
> <chembl_id>
CHEMBL1254682

> <chembl_pref_name>
LEVALLORPHAN
