
     RDKit          2D

 26 26  0  0  1  0  0  0  0  0999 V2000
   -2.7708   -1.3000    0.0000 C   0  0  0  0  0  0  0  0  0  0  0  0
   -1.8833   -1.8042    0.0000 C   0  0  0  0  0  0  0  0  0  0  0  0
   -4.3458   -0.7917    0.0000 C   0  0  0  0  0  0  0  0  0  0  0  0
   -2.7708   -0.2625    0.0000 C   0  0  0  0  0  0  0  0  0  0  0  0
   -3.7458   -1.6167    0.0000 C   0  0  0  0  0  0  0  0  0  0  0  0
   -3.7583    0.0458    0.0000 C   0  0  0  0  0  0  0  0  0  0  0  0
   -0.9875   -1.2917    0.0000 C   0  0  0  0  0  0  0  0  0  0  0  0
    2.6167    1.7708    0.0000 C   0  0  0  0  0  0  0  0  0  0  0  0
   -0.1083   -1.8042    0.0000 C   0  0  0  0  0  0  0  0  0  0  0  0
    2.6292    2.7958    0.0000 O   0  0  0  0  0  0  0  0  0  0  0  0
   -1.8833    1.2875    0.0000 C   0  0  0  0  0  0  0  0  0  0  0  0
   -0.9833    1.8000    0.0000 C   0  0  0  0  0  0  0  0  0  0  0  0
   -4.0583   -2.5917    0.0000 O   0  0  0  0  0  0  0  0  0  0  0  0
   -4.0833    1.0208    0.0000 O   0  0  0  0  0  0  0  0  0  0  0  0
    3.5167    1.2333    0.0000 O   0  0  0  0  0  0  0  0  0  0  0  0
   -1.8833    0.2583    0.0000 C   0  0  0  0  0  0  0  0  0  0  0  0
    0.3542   -2.7167    0.0000 O   0  0  0  0  0  0  0  0  0  0  0  0
    1.7167    1.2583    0.0000 C   0  0  0  0  0  0  0  0  0  0  0  0
    0.7875   -1.3000    0.0000 C   0  0  0  0  0  0  0  0  0  0  0  0
   -0.0833    1.2750    0.0000 C   0  0  0  0  0  0  0  0  0  0  0  0
   -0.4125   -2.7875    0.0000 C   0  0  0  0  0  0  0  0  0  0  0  0
    0.8167    1.7875    0.0000 C   0  0  0  0  0  0  0  0  0  0  0  0
    1.6792   -1.8125    0.0000 C   0  0  0  0  0  0  0  0  0  0  0  0
    3.4542   -1.8125    0.0000 C   0  0  0  0  0  0  0  0  0  0  0  0
    2.5667   -1.3000    0.0000 C   0  0  0  0  0  0  0  0  0  0  0  0
    4.3417   -1.3000    0.0000 C   0  0  0  0  0  0  0  0  0  0  0  0
  1  2  1  1
  3  5  1  0
  4  1  1  0
  5  1  1  0
  6  4  1  0
  7  2  2  0
  8 18  1  0
  9  7  1  0
 10  8  2  0
 11 16  1  0
 12 11  2  0
  5 13  1  6
  6 14  1  6
 15  8  1  0
  4 16  1  6
 17  9  1  0
 18 22  1  0
 19  9  1  0
 20 12  1  0
  9 21  1  1
 22 20  1  0
 23 19  1  0
 24 25  1  0
 25 23  1  0
 26 24  1  0
  6  3  1  0
M  END
> <chembl_id>
CHEMBL1237122

> <chembl_pref_name>
CARBOPROST
