
     RDKit          2D

 34 37  0  0  1  0  0  0  0  0999 V2000
    0.8167    0.8083    0.0000 C   0  0  0  0  0  0  0  0  0  0  0  0
   -0.9000    0.8083    0.0000 C   0  0  0  0  0  0  0  0  0  0  0  0
    2.5417    0.8083    0.0000 C   0  0  0  0  0  0  0  0  0  0  0  0
   -0.0458    1.3083    0.0000 C   0  0  0  0  0  0  0  0  0  0  0  0
    1.6792    1.3083    0.0000 C   0  0  0  0  0  0  0  0  0  0  0  0
   -1.7625    1.3083    0.0000 C   0  0  0  0  0  0  0  0  0  0  0  0
    0.8167   -0.1875    0.0000 C   0  0  0  0  0  0  0  0  0  0  0  0
    2.5417   -0.1875    0.0000 C   0  0  0  0  0  0  0  0  0  0  0  0
   -2.6250    0.8083    0.0000 C   0  0  0  0  0  0  0  0  0  0  0  0
   -2.6250   -0.1875    0.0000 C   0  0  0  0  0  0  0  0  0  0  0  0
   -0.9000   -0.1875    0.0000 C   0  0  0  0  0  0  0  0  0  0  0  0
   -1.7625   -0.6792    0.0000 C   0  0  0  0  0  0  0  0  0  0  0  0
    1.6792   -0.6792    0.0000 C   0  0  0  0  0  0  0  0  0  0  0  0
   -0.0458   -0.6792    0.0000 C   0  0  0  0  0  0  0  0  0  0  0  0
    3.4125    1.3083    0.0000 C   0  0  0  0  0  0  0  0  0  0  0  0
   -3.4833   -0.6792    0.0000 C   0  0  0  0  0  0  0  0  0  0  0  0
   -3.4833    1.3083    0.0000 C   0  0  0  0  0  0  0  0  0  0  0  0
    1.6792    2.3000    0.0000 O   0  0  0  0  0  0  0  0  0  0  0  0
   -1.7625    2.3000    0.0000 O   0  0  0  0  0  0  0  0  0  0  0  0
    2.1792   -1.5417    0.0000 N   0  0  0  0  0  0  0  0  0  0  0  0
    0.8292    2.0000    0.0000 O   0  0  0  0  0  0  0  0  0  0  0  0
    3.4167    2.3000    0.0000 O   0  0  0  0  0  0  0  0  0  0  0  0
   -0.0458    2.3000    0.0000 O   0  0  0  0  0  0  0  0  0  0  0  0
    3.4125   -0.6917    0.0000 O   0  0  0  0  0  0  0  0  0  0  0  0
   -4.3458   -0.1875    0.0000 C   0  0  0  0  0  0  0  0  0  0  0  0
   -4.3458    0.8083    0.0000 C   0  0  0  0  0  0  0  0  0  0  0  0
   -2.2583   -1.5417    0.0000 O   0  0  0  0  0  0  0  0  0  0  0  0
    4.2667    0.8000    0.0000 N   0  0  0  0  0  0  0  0  0  0  0  0
   -3.4833   -1.6792    0.0000 Cl  0  0  0  0  0  0  0  0  0  0  0  0
   -3.4833    2.3000    0.0000 O   0  0  0  0  0  0  0  0  0  0  0  0
    1.7000   -2.4125    0.0000 C   0  0  0  0  0  0  0  0  0  0  0  0
    3.1792   -1.5292    0.0000 C   0  0  0  0  0  0  0  0  0  0  0  0
   -0.9021   -1.1875    0.0000 H   0  0  0  0  0  0  0  0  0  0  0  0
    0.8167   -1.1875    0.0000 H   0  0  0  0  0  0  0  0  0  0  0  0
  2  4  2  0
  3  5  1  0
  4  1  1  0
  5  1  1  0
  6  2  1  0
  7  1  1  0
  8 13  1  0
  9  6  1  0
 10 12  1  0
 11 14  1  0
 12 11  1  0
 13  7  1  0
 14  7  1  0
 15  3  1  0
 16 10  1  0
 17  9  1  0
 18  5  2  0
 19  6  2  0
 13 20  1  1
  1 21  1  1
 22 15  2  0
 23  4  1  0
 24  8  1  0
 25 16  2  0
 26 17  2  0
 12 27  1  6
 28 15  1  0
 29 16  1  0
 30 17  1  0
 31 20  1  0
 32 20  1  0
  2 11  1  0
  3  8  2  0
 10  9  2  0
 25 26  1  0
 11 33  1  1
  7 34  1  1
M  END
> <chembl_id>
CHEMBL1591

> <chembl_pref_name>
DEMECLOCYCLINE
