
     RDKit          2D

 22 22  0  0  0  0  0  0  0  0999 V2000
    3.7030   -5.8989    0.0000 C   0  0  0  0  0  0  0  0  0  0  0  0
    3.7030   -6.7285    0.0000 C   0  0  0  0  0  0  0  0  0  0  0  0
    4.4175   -7.1410    0.0000 C   0  0  0  0  0  0  0  0  0  0  0  0
    5.1365   -6.7285    0.0000 C   0  0  0  0  0  0  0  0  0  0  0  0
    5.1365   -5.8989    0.0000 C   0  0  0  0  0  0  0  0  0  0  0  0
    4.4175   -5.4818    0.0000 C   0  0  0  0  0  0  0  0  0  0  0  0
    5.8504   -7.1420    0.0000 C   0  0  0  0  0  0  0  0  0  0  0  0
    4.8214   -4.7667    0.0000 C   0  0  0  0  0  0  0  0  0  0  0  0
    3.9964   -4.7667    0.0000 C   0  0  0  0  0  0  0  0  0  0  0  0
    5.8480   -5.4910    0.0000 C   0  0  0  0  0  0  0  0  0  0  0  0
    6.5584   -5.9035    0.0000 C   0  0  0  0  0  0  0  0  0  0  0  0
    7.2734   -5.4955    0.0000 C   0  0  0  0  0  0  0  0  0  0  0  0
    7.9839   -5.9080    0.0000 C   0  0  0  0  0  0  0  0  0  0  0  0
    8.6989   -5.5001    0.0000 C   0  0  0  0  0  0  0  0  0  0  0  0
    9.4093   -5.9126    0.0000 C   0  0  0  0  0  0  0  0  0  0  0  0
   10.1243   -5.5047    0.0000 C   0  0  0  0  0  0  0  0  0  0  0  0
    7.2766   -4.6705    0.0000 C   0  0  0  0  0  0  0  0  0  0  0  0
   10.8316   -5.9237    0.0000 C   0  0  0  0  0  0  0  0  0  0  0  0
   10.1286   -4.6797    0.0000 C   0  0  0  0  0  0  0  0  0  0  0  0
   10.8294   -6.7487    0.0000 C   0  0  0  0  0  0  0  0  0  0  0  0
   10.1137   -7.1592    0.0000 O   0  0  0  0  0  0  0  0  0  0  0  0
   11.5426   -7.1632    0.0000 O   0  0  0  0  0  0  0  0  0  0  0  0
 10 11  2  0
  4  5  2  0
 11 12  1  0
  5  6  1  0
 12 13  2  0
 13 14  1  0
  4  7  1  0
 14 15  2  0
  1  2  1  0
 15 16  1  0
  6  8  1  0
 12 17  1  0
  1  6  1  0
 16 18  2  0
  6  9  1  0
 16 19  1  0
  2  3  1  0
 18 20  1  0
  5 10  1  0
 20 21  1  0
  3  4  1  0
 20 22  2  0
M  END
> <chembl_id>
CHEMBL547

> <chembl_pref_name>
ISOTRETINOIN
