
     RDKit          2D

 42 40  0  0  0  0  0  0  0  0999 V2000
    8.3377   -5.3377    0.0000 Na  0  0  0  0  0 15  0  0  0  0  0  0
    1.9654   -4.0472    0.0000 N   0  0  0  0  0  0  0  0  0  0  0  0
    1.1405   -4.0472    0.0000 C   0  0  0  0  0  0  0  0  0  0  0  0
    1.1405   -3.1932    0.0000 C   0  0  0  0  0  0  0  0  0  0  0  0
    1.9654   -3.2078    0.0000 C   0  0  0  0  0  0  0  0  0  0  0  0
    5.5323   -5.2606    0.0000 N   0  0  0  0  0  0  0  0  0  0  0  0
    5.5323   -4.4453    0.0000 C   0  0  0  0  0  0  0  0  0  0  0  0
    2.6836   -4.4598    0.0000 C   0  0  0  0  0  0  0  0  0  0  0  0
    6.9347   -5.2264    0.0000 C   0  0  0  0  0  0  0  0  0  0  0  0
    6.9202   -4.4161    0.0000 N   0  0  0  0  0  0  0  0  0  0  0  0
   -1.7275   -3.2029    0.0000 C   0  0  0  0  0  0  0  0  0  0  0  0
    6.2601   -5.6536    0.0000 C   0  0  0  0  0  0  0  0  0  0  0  0
   -1.0142   -2.7855    0.0000 C   0  0  0  0  0  0  0  0  0  0  0  0
    6.2068   -4.0230    0.0000 N   0  0  0  0  0  0  0  0  0  0  0  0
   -2.3973   -2.7127    0.0000 N   0  0  0  0  0  0  0  0  0  0  0  0
    0.4222   -2.7855    0.0000 N   0  0  0  0  0  0  0  0  0  0  0  0
   -0.3008   -3.1932    0.0000 C   0  0  0  0  0  0  0  0  0  0  0  0
    2.6836   -2.7855    0.0000 S   0  0  0  0  0  0  0  0  0  0  0  0
    3.3970   -4.0472    0.0000 C   0  0  0  0  0  0  0  0  0  0  0  0
   -3.0573   -3.2029    0.0000 C   0  0  0  0  0  0  0  0  0  0  0  0
    2.6836   -5.2897    0.0000 C   0  0  0  0  0  0  0  0  0  0  0  0
   -1.9800   -3.9793    0.0000 C   0  0  0  0  0  0  0  0  0  0  0  0
   -2.8049   -3.9793    0.0000 S   0  0  0  0  0  0  0  0  0  0  0  0
    4.8237   -4.0472    0.0000 S   0  0  0  0  0  0  0  0  0  0  0  0
    3.3970   -3.2078    0.0000 C   0  0  0  0  0  0  0  0  0  0  0  0
   -1.0142   -1.9558    0.0000 N   0  0  0  0  0  0  0  0  0  0  0  0
    0.5823   -4.6199    0.0000 O   0  0  0  0  0  0  0  0  0  0  0  0
    4.1201   -4.4453    0.0000 C   0  0  0  0  0  0  0  0  0  0  0  0
   -0.2911   -4.0230    0.0000 O   0  0  0  0  0  0  0  0  0  0  0  0
    6.2456   -6.4786    0.0000 O   0  0  0  0  0  0  0  0  0  0  0  0
    3.3921   -5.6827    0.0000 O   0  0  0  0  0  0  0  0  0  0  0  0
    1.9703   -5.6924    0.0000 O   0  0  0  0  0  0  0  0  0  0  0  0
    7.6433   -5.6342    0.0000 O   0  0  0  0  0  0  0  0  0  0  0  0
   -3.7803   -2.7855    0.0000 N   0  0  0  0  0  0  0  0  0  0  0  0
    6.1873   -3.2175    0.0000 C   0  0  0  0  0  0  0  0  0  0  0  0
   -0.3008   -1.5481    0.0000 O   0  0  0  0  0  0  0  0  0  0  0  0
   -0.3008   -0.7183    0.0000 C   0  0  0  0  0  0  0  0  0  0  0  0
    1.9266   -2.4070    0.0000 H   0  0  0  0  0  0  0  0  0  0  0  0
    4.1543   -5.7846    0.0000 Na  0  0  0  0  0 15  0  0  0  0  0  0
   -1.4465   -6.5095    0.0000 O   0  0  0  0  0  0  0  0  0  0  0  0
   -0.4018   -6.5899    0.0000 O   0  0  0  0  0  0  0  0  0  0  0  0
    1.6608   -7.2595    0.0000 O   0  0  0  0  0  0  0  0  0  0  0  0
  3  2  1  0
  4  5  1  0
  5  2  1  0
  6  7  2  0
  7 24  1  0
  8  2  1  0
  9 10  2  0
 10 14  1  0
 11 13  1  0
 12  6  1  0
 13 17  1  0
 14  7  1  0
 15 11  1  0
  4 16  1  1
 17 16  1  0
 18  5  1  0
 19  8  2  0
 20 15  2  0
 21  8  1  0
 22 11  2  0
 23 22  1  0
 24 28  1  0
 25 19  1  0
 26 13  2  0
 27  3  2  0
 28 19  1  0
 29 17  2  0
 30 12  2  0
 31 21  1  0
 32 21  2  0
 33  9  1  0
 34 20  1  0
 35 14  1  0
 36 26  1  0
 37 36  1  0
  5 38  1  6
  4  3  1  0
 25 18  1  0
  9 12  1  0
 23 20  1  0
M  CHG  4   1   1  31  -1  33  -1  39   1
M  END
> <chembl_id>
CHEMBL3183968

> <chembl_pref_name>
CEFTRIAXONE SODIUM
