
     RDKit          2D

 92 96  0  0  0  0  0  0  0  0999 V2000
    6.3841   -2.8588    0.0000 S   0  0  0  0  0  0  0  0  0  0  0  0
    6.3841   -3.6838    0.0000 C   0  0  0  0  0  0  0  0  0  0  0  0
    6.3841   -2.0338    0.0000 O   0  0  0  0  0  0  0  0  0  0  0  0
    7.2091   -2.8588    0.0000 O   0  0  0  0  0  0  0  0  0  0  0  0
    5.5591   -2.8588    0.0000 O   0  0  0  0  0  0  0  0  0  0  0  0
   -3.9550   -0.5830    0.0000 C   0  0  0  0  0  0  0  0  0  0  0  0
   -3.1481   -0.4114    0.0000 C   0  0  0  0  0  0  0  0  0  0  0  0
   -2.8931    0.3732    0.0000 C   0  0  0  0  0  0  0  0  0  0  0  0
   -3.4451    0.9863    0.0000 C   0  0  0  0  0  0  0  0  0  0  0  0
   -4.2521    0.8148    0.0000 C   0  0  0  0  0  0  0  0  0  0  0  0
   -4.5070    0.0301    0.0000 C   0  0  0  0  0  0  0  0  0  0  0  0
   -3.0327    1.7008    0.0000 N   0  0  0  0  0  0  0  0  0  0  0  0
   -2.2257    1.5292    0.0000 C   0  0  0  0  0  0  0  0  0  0  0  0
   -2.1394    0.7088    0.0000 C   0  0  0  0  0  0  0  0  0  0  0  0
   -1.4250    0.2963    0.0000 C   0  0  0  0  0  0  0  0  0  0  0  0
   -0.7105    0.7088    0.0000 C   0  0  0  0  0  0  0  0  0  0  0  0
   -0.7105    1.5338    0.0000 C   0  0  0  0  0  0  0  0  0  0  0  0
    0.0040    0.2963    0.0000 N   0  0  0  0  0  0  0  0  0  0  0  0
    0.0040   -0.5287    0.0000 C   0  0  0  0  0  0  0  0  0  0  0  0
    0.7184   -0.9412    0.0000 C   0  0  0  0  0  0  0  0  0  0  0  0
   -0.7105   -0.9412    0.0000 O   0  0  0  0  0  0  0  0  0  0  0  0
    0.7184   -1.7662    0.0000 N   0  0  0  0  0  0  0  0  0  0  0  0
    1.4329   -0.5287    0.0000 C   0  0  0  0  0  0  0  0  0  0  0  0
    1.4329   -2.1787    0.0000 C   0  0  0  0  0  0  0  0  0  0  0  0
    1.4329   -3.0037    0.0000 C   0  0  0  0  0  0  0  0  0  0  0  0
    2.1474   -1.7662    0.0000 O   0  0  0  0  0  0  0  0  0  0  0  0
    0.7655   -3.4886    0.0000 C   0  0  0  0  0  0  0  0  0  0  0  0
    1.0204   -4.2732    0.0000 C   0  0  0  0  0  0  0  0  0  0  0  0
    1.8454   -4.2732    0.0000 C   0  0  0  0  0  0  0  0  0  0  0  0
    2.1003   -3.4886    0.0000 N   0  0  0  0  0  0  0  0  0  0  0  0
    2.4288   -4.8565    0.0000 O   0  0  0  0  0  0  0  0  0  0  0  0
    1.4329    0.2963    0.0000 C   0  0  0  0  0  0  0  0  0  0  0  0
    1.7784    1.5857    0.0000 C   0  0  0  0  0  0  0  0  0  0  0  0
    0.9545    1.5425    0.0000 N   0  0  0  0  0  0  0  0  0  0  0  0
    0.7410    0.7457    0.0000 C   0  0  0  0  0  0  0  0  0  0  0  0
    2.0740    0.8155    0.0000 N   0  0  0  0  0  0  0  0  0  0  0  0
    0.0040    1.9463    0.0000 N   0  0  0  0  0  0  0  0  0  0  0  0
    0.0040    2.7713    0.0000 C   0  0  0  0  0  0  0  0  0  0  0  0
   -1.4250    1.9463    0.0000 O   0  0  0  0  0  0  0  0  0  0  0  0
    0.7184    3.1838    0.0000 C   0  0  0  0  0  0  0  0  0  0  0  0
   -0.7105    3.1838    0.0000 C   0  0  0  0  0  0  0  0  0  0  0  0
   -1.4727    2.8681    0.0000 O   0  0  0  0  0  0  0  0  0  0  0  0
    0.7184    4.0088    0.0000 O   0  0  0  0  0  0  0  0  0  0  0  0
    1.4329    2.7713    0.0000 N   0  0  0  0  0  0  0  0  0  0  0  0
    2.1474    3.1838    0.0000 C   0  0  0  0  0  0  0  0  0  0  0  0
    2.8619    2.7713    0.0000 C   0  0  0  0  0  0  0  0  0  0  0  0
    2.1706    4.0454    0.0000 C   0  0  0  0  0  0  0  0  0  0  0  0
    2.8251    4.5476    0.0000 C   0  0  0  0  0  0  0  0  0  0  0  0
    3.5395    5.7851    0.0000 C   0  0  0  0  0  0  0  0  0  0  0  0
    2.8251    5.3726    0.0000 C   0  0  0  0  0  0  0  0  0  0  0  0
    3.5395    4.1351    0.0000 C   0  0  0  0  0  0  0  0  0  0  0  0
    4.2540    4.5476    0.0000 C   0  0  0  0  0  0  0  0  0  0  0  0
    4.2540    5.3726    0.0000 C   0  0  0  0  0  0  0  0  0  0  0  0
    4.9685    5.7851    0.0000 O   0  0  0  0  0  0  0  0  0  0  0  0
    3.5763    3.1838    0.0000 N   0  0  0  0  0  0  0  0  0  0  0  0
    2.8619    1.9463    0.0000 O   0  0  0  0  0  0  0  0  0  0  0  0
    4.2908    2.7713    0.0000 C   0  0  0  0  0  0  0  0  0  0  0  0
    5.0053    3.1838    0.0000 C   0  0  0  0  0  0  0  0  0  0  0  0
    5.0053    4.0088    0.0000 O   0  0  0  0  0  0  0  0  0  0  0  0
    4.2908    1.9463    0.0000 C   0  0  0  0  0  0  0  0  0  0  0  0
    5.0053    1.5338    0.0000 C   0  0  0  0  0  0  0  0  0  0  0  0
    5.8232    1.6415    0.0000 C   0  0  0  0  0  0  0  0  0  0  0  0
    4.8443    0.7247    0.0000 C   0  0  0  0  0  0  0  0  0  0  0  0
    5.7197    2.7713    0.0000 N   0  0  0  0  0  0  0  0  0  0  0  0
    6.4342    3.1838    0.0000 C   0  0  0  0  0  0  0  0  0  0  0  0
    7.1487    2.7713    0.0000 C   0  0  0  0  0  0  0  0  0  0  0  0
    6.4342    4.0088    0.0000 C   0  0  0  0  0  0  0  0  0  0  0  0
    7.1487    4.4213    0.0000 C   0  0  0  0  0  0  0  0  0  0  0  0
    7.1487    5.2463    0.0000 C   0  0  0  0  0  0  0  0  0  0  0  0
    7.8632    4.0088    0.0000 C   0  0  0  0  0  0  0  0  0  0  0  0
    7.8632    3.1838    0.0000 N   0  0  0  0  0  0  0  0  0  0  0  0
    7.1487    1.9463    0.0000 O   0  0  0  0  0  0  0  0  0  0  0  0
    8.5776    2.7713    0.0000 C   0  0  0  0  0  0  0  0  0  0  0  0
    9.2921    3.1838    0.0000 C   0  0  0  0  0  0  0  0  0  0  0  0
   10.0066    2.7713    0.0000 N   0  0  0  0  0  0  0  0  0  0  0  0
    9.2921    4.0088    0.0000 O   0  0  0  0  0  0  0  0  0  0  0  0
    8.5776    1.9463    0.0000 C   0  0  0  0  0  0  0  0  0  0  0  0
    9.2921    1.5338    0.0000 C   0  0  0  0  0  0  0  0  0  0  0  0
    9.2921    0.7088    0.0000 C   0  0  0  0  0  0  0  0  0  0  0  0
   10.0066    0.2963    0.0000 N   0  0  0  0  0  0  0  0  0  0  0  0
   10.0066   -0.5287    0.0000 C   0  0  0  0  0  0  0  0  0  0  0  0
   10.7210   -0.9412    0.0000 N   0  0  0  0  0  0  0  0  0  0  0  0
    9.2921   -0.9412    0.0000 N   0  0  0  0  0  0  0  0  0  0  0  0
   10.7660    3.0937    0.0000 C   0  0  0  0  0  0  0  0  0  0  0  0
   10.0785    1.9495    0.0000 C   0  0  0  0  0  0  0  0  0  0  0  0
   10.8823    1.7639    0.0000 C   0  0  0  0  0  0  0  0  0  0  0  0
   11.3072    2.4711    0.0000 C   0  0  0  0  0  0  0  0  0  0  0  0
   10.9516    3.8976    0.0000 C   0  0  0  0  0  0  0  0  0  0  0  0
   10.3482    4.4602    0.0000 O   0  0  0  0  0  0  0  0  0  0  0  0
   11.7405    4.1388    0.0000 N   0  0  0  0  0  0  0  0  0  0  0  0
   12.3239    3.5554    0.0000 C   0  0  0  0  0  0  0  0  0  0  0  0
   13.1208    3.7689    0.0000 C   0  0  0  0  0  0  0  0  0  0  0  0
  1  2  1  0
  1  3  2  0
  1  4  2  0
  1  5  1  0
  6  7  2  0
  7  8  1  0
  8  9  2  0
  9 10  1  0
 10 11  2  0
  6 11  1  0
 12 13  1  0
 13 14  2  0
  9 12  1  0
  8 14  1  0
 14 15  1  0
 16 15  1  1
 16 17  1  0
 16 18  1  0
 18 19  1  0
 19 20  1  0
 19 21  2  0
 20 22  1  0
 20 23  1  6
 22 24  1  0
 25 24  1  1
 24 26  2  0
 27 28  1  0
 28 29  1  0
 29 30  1  0
 25 27  1  0
 25 30  1  0
 29 31  2  0
 23 32  1  0
 33 34  2  0
 34 35  1  0
 33 36  1  0
 35 32  2  0
 32 36  1  0
 17 37  1  0
 38 37  1  1
 17 39  2  0
 38 40  1  0
 38 41  1  0
 41 42  1  0
 40 43  2  0
 40 44  1  0
 44 45  1  0
 45 46  1  0
 45 47  1  1
 47 48  1  0
 49 50  2  0
 51 52  1  0
 52 53  2  0
 49 53  1  0
 50 48  1  0
 48 51  2  0
 53 54  1  0
 46 55  1  0
 46 56  2  0
 55 57  1  0
 57 58  1  0
 58 59  2  0
 57 60  1  1
 60 61  1  0
 61 62  1  0
 61 63  1  0
 58 64  1  0
 64 65  1  0
 65 66  1  0
 65 67  1  1
 67 68  1  0
 68 69  1  0
 68 70  1  0
 66 71  1  0
 66 72  2  0
 71 73  1  0
 73 74  1  0
 74 75  1  0
 74 76  2  0
 73 77  1  6
 77 78  1  0
 78 79  1  0
 79 80  1  0
 80 81  1  0
 81 82  1  0
 81 83  2  0
 85 86  1  0
 86 87  1  0
 84 87  1  0
 84 75  1  0
 75 85  1  0
 84 88  1  6
 88 89  2  0
 88 90  1  0
 90 91  1  0
 91 92  1  0
M  END
> <chembl_id>
CHEMBL4802223

> <chembl_pref_name>
LEUPROLIDE MESYLATE
