
     RDKit          2D

 23 26  0  0  0  0  0  0  0  0999 V2000
    2.6633   -8.9829    0.0000 C   0  0  0  0  0  0  0  0  0  0  0  0
    1.9475   -9.4065    0.0000 C   0  0  0  0  0  0  0  0  0  0  0  0
    1.2172   -8.9732    0.0000 C   0  0  0  0  0  0  0  0  0  0  0  0
    3.3790   -9.3968    0.0000 C   0  0  0  0  0  0  0  0  0  0  0  0
    0.6184   -9.3919    0.0000 C   0  0  0  0  0  0  0  0  0  0  0  0
    4.8104   -9.3968    0.0000 N   0  0  0  0  0  0  0  0  0  0  0  0
    0.2824   -9.9956    0.0000 C   0  0  0  0  0  0  0  0  0  0  0  0
    1.6700   -9.9761    0.0000 C   0  0  0  0  0  0  0  0  0  0  0  0
    1.0712   -8.2233    0.0000 C   0  0  0  0  0  0  0  0  0  0  0  0
    0.9981   -9.6402    0.0000 C   0  0  0  0  0  0  0  0  0  0  0  0
    3.0722   -8.2672    0.0000 C   0  0  0  0  0  0  0  0  0  0  0  0
    4.0947   -8.9829    0.0000 C   0  0  0  0  0  0  0  0  0  0  0  0
    2.2397   -8.2672    0.0000 O   0  0  0  0  0  0  0  0  0  0  0  0
    4.8055  -10.2244    0.0000 C   0  0  0  0  0  0  0  0  0  0  0  0
    5.5212   -8.9780    0.0000 C   0  0  0  0  0  0  0  0  0  0  0  0
    3.8950   -8.2623    0.0000 C   0  0  0  0  0  0  0  0  0  0  0  0
    2.6534   -7.5564    0.0000 C   0  0  0  0  0  0  0  0  0  0  0  0
    6.2418   -9.3968    0.0000 C   0  0  0  0  0  0  0  0  0  0  0  0
    5.5163  -10.6383    0.0000 C   0  0  0  0  0  0  0  0  0  0  0  0
    3.0624   -6.8407    0.0000 C   0  0  0  0  0  0  0  0  0  0  0  0
    4.3040   -7.5515    0.0000 C   0  0  0  0  0  0  0  0  0  0  0  0
    3.8902   -6.8358    0.0000 C   0  0  0  0  0  0  0  0  0  0  0  0
    6.2369  -10.2293    0.0000 C   0  0  0  0  0  0  0  0  0  0  0  0
  2  1  1  0
  3  2  1  0
  4  1  1  0
  5  3  1  0
  6 12  1  0
  7 10  1  0
  8  2  1  0
  3  9  1  0
 10  8  1  0
 11  1  1  0
 12  4  1  0
 13  1  1  0
 14  6  1  0
 15  6  1  0
 16 11  2  0
 17 11  1  0
 18 15  1  0
 19 14  1  0
 20 17  2  0
 21 16  1  0
 22 20  1  0
 23 18  1  0
 10  9  1  0
 22 21  2  0
  7  5  2  0
 23 19  1  0
M  END
> <chembl_id>
CHEMBL1101

> <chembl_pref_name>
BIPERIDEN
