
     RDKit          2D

 36 39  0  0  0  0  0  0  0  0999 V2000
    5.0667   -5.1875    0.0000 C   0  0  0  0  0  0  0  0  0  0  0  0
    5.0667   -4.5000    0.0000 C   0  0  0  0  0  0  0  0  0  0  0  0
    6.3000   -5.1875    0.0000 N   0  0  0  0  0  0  0  0  0  0  0  0
    3.8417   -4.5000    0.0000 N   0  0  0  0  0  0  0  0  0  0  0  0
    5.6792   -5.5417    0.0000 C   0  0  0  0  0  0  0  0  0  0  0  0
    4.4625   -4.1417    0.0000 C   0  0  0  0  0  0  0  0  0  0  0  0
    3.8417   -5.1875    0.0000 C   0  0  0  0  0  0  0  0  0  0  0  0
    6.3042   -4.5000    0.0000 C   0  0  0  0  0  0  0  0  0  0  0  0
    4.4625   -5.5417    0.0000 N   0  0  0  0  0  0  0  0  0  0  0  0
    5.6792   -4.1417    0.0000 N   0  0  0  0  0  0  0  0  0  0  0  0
    5.6792   -6.2625    0.0000 N   0  0  0  0  0  0  0  0  0  0  0  0
    4.4625   -3.4250    0.0000 N   0  0  0  0  0  0  0  0  0  0  0  0
    3.2292   -5.5417    0.0000 N   0  0  0  0  0  0  0  0  0  0  0  0
    6.9167   -4.1417    0.0000 N   0  0  0  0  0  0  0  0  0  0  0  0
    6.3000   -6.6167    0.0000 C   0  0  0  0  0  0  0  0  0  0  0  0
    3.8417   -3.0667    0.0000 C   0  0  0  0  0  0  0  0  0  0  0  0
    5.0667   -3.0667    0.0000 C   0  0  0  0  0  0  0  0  0  0  0  0
    5.0667   -6.6167    0.0000 C   0  0  0  0  0  0  0  0  0  0  0  0
    1.3792   -5.1875    0.0000 O   0  0  0  0  0  0  0  0  0  0  0  0
    2.6042   -7.3292    0.0000 O   0  0  0  0  0  0  0  0  0  0  0  0
    8.7667   -4.5000    0.0000 O   0  0  0  0  0  0  0  0  0  0  0  0
    7.5375   -2.3542    0.0000 O   0  0  0  0  0  0  0  0  0  0  0  0
    2.6042   -5.1875    0.0000 C   0  0  0  0  0  0  0  0  0  0  0  0
    3.2292   -6.2625    0.0000 C   0  0  0  0  0  0  0  0  0  0  0  0
    7.5375   -4.5000    0.0000 C   0  0  0  0  0  0  0  0  0  0  0  0
    6.9167   -3.4250    0.0000 C   0  0  0  0  0  0  0  0  0  0  0  0
    2.0000   -5.5417    0.0000 C   0  0  0  0  0  0  0  0  0  0  0  0
    2.6042   -6.6167    0.0000 C   0  0  0  0  0  0  0  0  0  0  0  0
    8.1500   -4.1417    0.0000 C   0  0  0  0  0  0  0  0  0  0  0  0
    7.5375   -3.0667    0.0000 C   0  0  0  0  0  0  0  0  0  0  0  0
    3.8417   -2.3542    0.0000 C   0  0  0  0  0  0  0  0  0  0  0  0
    5.0667   -2.3542    0.0000 C   0  0  0  0  0  0  0  0  0  0  0  0
    6.3000   -7.3292    0.0000 C   0  0  0  0  0  0  0  0  0  0  0  0
    5.0667   -7.3292    0.0000 C   0  0  0  0  0  0  0  0  0  0  0  0
    5.6792   -7.6875    0.0000 C   0  0  0  0  0  0  0  0  0  0  0  0
    4.4625   -2.0000    0.0000 C   0  0  0  0  0  0  0  0  0  0  0  0
  2  1  1  0
  3  5  2  0
  4  7  2  0
  5  1  1  0
  6  2  2  0
  7  9  1  0
  8  3  1  0
  9  1  2  0
 10  2  1  0
 11  5  1  0
 12  6  1  0
 13  7  1  0
 14  8  1  0
 15 11  1  0
 16 12  1  0
 17 12  1  0
 18 11  1  0
 19 27  1  0
 20 28  1  0
 21 29  1  0
 22 30  1  0
 23 13  1  0
 24 13  1  0
 25 14  1  0
 26 14  1  0
 27 23  1  0
 28 24  1  0
 29 25  1  0
 30 26  1  0
 31 16  1  0
 32 17  1  0
 33 15  1  0
 34 18  1  0
 35 34  1  0
 36 32  1  0
  8 10  2  0
  4  6  1  0
 35 33  1  0
 36 31  1  0
M  END
> <chembl_id>
CHEMBL932

> <chembl_pref_name>
DIPYRIDAMOLE
