
     RDKit          2D

 27 30  0  0  1  0  0  0  0  0999 V2000
   -2.1583   -0.0875    0.0000 S   0  0  0  0  0  0  0  0  0  0  0  0
    2.2792   -0.2792    0.0000 C   0  0  0  0  0  0  0  0  0  0  0  0
    1.4792   -0.5167    0.0000 C   0  0  0  0  0  0  0  0  0  0  0  0
    2.2542   -1.6250    0.0000 N   0  0  0  0  0  0  0  0  0  0  0  0
    2.7667   -0.9792    0.0000 C   0  0  0  0  0  0  0  0  0  0  0  0
    3.6542    0.5000    0.0000 N   0  0  0  0  0  0  0  0  0  0  0  0
    2.2792    0.5583    0.0000 C   0  0  0  0  0  0  0  0  0  0  0  0
    1.4792   -1.3750    0.0000 C   0  0  0  0  0  0  0  0  0  0  0  0
    2.9875    0.9875    0.0000 C   0  0  0  0  0  0  0  0  0  0  0  0
   -1.4708    0.3708    0.0000 O   0  0  0  0  0  0  0  0  0  0  0  0
   -2.8250    0.3708    0.0000 O   0  0  0  0  0  0  0  0  0  0  0  0
   -1.4375   -0.5167    0.0000 C   0  0  0  0  0  0  0  0  0  0  0  0
   -2.8750   -0.5167    0.0000 C   0  0  0  0  0  0  0  0  0  0  0  0
    0.7417   -0.0875    0.0000 C   0  0  0  0  0  0  0  0  0  0  0  0
    0.7417   -1.7917    0.0000 C   0  0  0  0  0  0  0  0  0  0  0  0
    0.0167   -0.5167    0.0000 C   0  0  0  0  0  0  0  0  0  0  0  0
   -0.6833   -0.0875    0.0000 C   0  0  0  0  0  0  0  0  0  0  0  0
    0.0167   -1.3750    0.0000 C   0  0  0  0  0  0  0  0  0  0  0  0
    4.3417    0.9875    0.0000 C   0  0  0  0  0  0  0  0  0  0  0  0
    3.6542   -0.3292    0.0000 C   0  0  0  0  0  0  0  0  0  0  0  0
    3.2292    1.8000    0.0000 C   0  0  0  0  0  0  0  0  0  0  0  0
    4.0792    1.8000    0.0000 C   0  0  0  0  0  0  0  0  0  0  0  0
   -3.5958   -0.0875    0.0000 C   0  0  0  0  0  0  0  0  0  0  0  0
   -2.8750   -1.3750    0.0000 C   0  0  0  0  0  0  0  0  0  0  0  0
   -4.3458   -0.5167    0.0000 C   0  0  0  0  0  0  0  0  0  0  0  0
   -3.5958   -1.7917    0.0000 C   0  0  0  0  0  0  0  0  0  0  0  0
   -4.3458   -1.3750    0.0000 C   0  0  0  0  0  0  0  0  0  0  0  0
  2  3  1  0
  3 14  1  0
  4  8  1  0
  5  2  2  0
  6  9  1  0
  7  2  1  0
  8 15  1  0
  9  7  1  1
 10  1  2  0
 11  1  2  0
 12  1  1  0
 13  1  1  0
 14 16  2  0
 15 18  2  0
 16 17  1  0
 17 12  1  0
 18 16  1  0
 19  6  1  0
 20  6  1  0
 21  9  1  0
 22 21  1  0
 23 13  1  0
 24 13  2  0
 25 23  2  0
 26 24  1  0
 27 26  2  0
 25 27  1  0
  3  8  2  0
  5  4  1  0
 19 22  1  0
M  END
> <chembl_id>
CHEMBL1510

> <chembl_pref_name>
ELETRIPTAN
