
     RDKit          2D

 22 23  0  0  0  0  0  0  0  0999 V2000
  -13.0305    6.0141    0.0000 P   0  0  0  0  0  0  0  0  0  0  0  0
  -12.2055    6.0141    0.0000 O   0  0  0  0  0  0  0  0  0  0  0  0
  -13.8555    6.0141    0.0000 O   0  0  0  0  0  0  0  0  0  0  0  0
  -13.0305    6.8391    0.0000 O   0  0  0  0  0  0  0  0  0  0  0  0
  -13.0305    5.1891    0.0000 O   0  0  0  0  0  0  0  0  0  0  0  0
  -14.8603    5.2794    0.0000 C   0  0  0  0  0  0  0  0  0  0  0  0
  -15.4124    4.6663    0.0000 C   0  0  0  0  0  0  0  0  0  0  0  0
  -16.2193    4.8378    0.0000 C   0  0  0  0  0  0  0  0  0  0  0  0
  -16.4743    5.6224    0.0000 C   0  0  0  0  0  0  0  0  0  0  0  0
  -15.9222    6.2355    0.0000 C   0  0  0  0  0  0  0  0  0  0  0  0
  -15.1153    6.0640    0.0000 C   0  0  0  0  0  0  0  0  0  0  0  0
  -16.7714    4.2247    0.0000 F   0  0  0  0  0  0  0  0  0  0  0  0
  -16.1772    7.0202    0.0000 C   0  0  0  0  0  0  0  0  0  0  0  0
  -16.4321    7.8048    0.0000 N   0  0  0  0  0  0  0  0  0  0  0  0
  -15.1574    3.8817    0.0000 C   0  0  0  0  0  0  0  0  0  0  0  0
  -14.3728    3.6267    0.0000 N   0  0  0  0  0  0  0  0  0  0  0  0
  -14.3728    2.8017    0.0000 C   0  0  0  0  0  0  0  0  0  0  0  0
  -15.1574    2.5468    0.0000 C   0  0  0  0  0  0  0  0  0  0  0  0
  -15.6423    3.2142    0.0000 C   0  0  0  0  0  0  0  0  0  0  0  0
  -13.5882    2.5468    0.0000 C   0  0  0  0  0  0  0  0  0  0  0  0
  -13.1033    3.2142    0.0000 N   0  0  0  0  0  0  0  0  0  0  0  0
  -13.5882    3.8817    0.0000 C   0  0  0  0  0  0  0  0  0  0  0  0
  1  2  1  0
  1  3  2  0
  1  4  1  0
  1  5  1  0
  6  7  2  0
  6 11  1  0
  7  8  1  0
  8  9  2  0
  9 10  1  0
 10 11  2  0
  8 12  1  0
 10 13  1  0
 13 14  3  0
 15  7  1  6
 15 16  1  0
 15 19  1  0
 17 18  1  0
 18 19  1  0
 16 22  1  0
 16 17  1  0
 17 20  2  0
 20 21  1  0
 21 22  2  0
M  END
> <chembl_id>
CHEMBL3707393

> <chembl_pref_name>
OSILODROSTAT PHOSPHATE
