
     RDKit          2D

 15 14  0  0  0  0  0  0  0  0999 V2000
    1.5625    0.7125    0.0000 C   0  0  0  0  0  0  0  0  0  0  0  0
    2.7792    0.7208    0.0000 N   0  0  0  0  0  0  0  0  0  0  0  0
    0.9500    0.3583    0.0000 C   0  0  0  0  0  0  0  0  0  0  0  0
    2.1792    0.3625    0.0000 C   0  0  0  0  0  0  0  0  0  0  0  0
    0.9542   -0.3542    0.0000 C   0  0  0  0  0  0  0  0  0  0  0  0
    0.3292    0.7083    0.0000 C   0  0  0  0  0  0  0  0  0  0  0  0
    2.1792   -0.3500    0.0000 C   0  0  0  0  0  0  0  0  0  0  0  0
    0.3375   -0.7167    0.0000 C   0  0  0  0  0  0  0  0  0  0  0  0
   -0.2833    0.3458    0.0000 C   0  0  0  0  0  0  0  0  0  0  0  0
   -0.2833   -0.3625    0.0000 C   0  0  0  0  0  0  0  0  0  0  0  0
    4.2917    0.0458    0.0000 S   0  0  0  0  0  0  0  0  0  0  0  0
    4.6417    0.6625    0.0000 O   0  0  0  0  0  0  0  0  0  0  0  0
    3.9292    0.6625    0.0000 O   0  0  0  0  0  0  0  0  0  0  0  0
    3.6792   -0.3125    0.0000 O   0  0  0  0  0  0  0  0  0  0  0  0
    4.9042   -0.3125    0.0000 O   0  0  0  0  0  0  0  0  0  0  0  0
  2  4  1  0
  3  1  1  0
  4  1  1  0
  5  3  2  0
  6  3  1  0
  7  4  1  0
  8  5  1  0
  9  6  2  0
 10  8  2  0
  9 10  1  0
 12 11  2  0
 13 11  2  0
 14 11  1  0
 15 11  1  0
M  END
> <chembl_id>
CHEMBL501

> <chembl_pref_name>
AMPHETAMINE SULFATE
