
     RDKit          2D

  6  4  0  0  0  0  0  0  0  0999 V2000
   -1.8083   -1.8792    0.0000 Ba  0  0  0  0  0 15  0  0  0  0  0  0
    0.4375    0.5458    0.0000 S   0  0  0  0  0  0  0  0  0  0  0  0
    0.4375   -0.8667    0.0000 O   0  0  0  0  0  0  0  0  0  0  0  0
   -1.0000    0.5458    0.0000 O   0  0  0  0  0  0  0  0  0  0  0  0
    1.8792    0.5458    0.0000 O   0  0  0  0  0  0  0  0  0  0  0  0
    0.4375    1.9833    0.0000 O   0  0  0  0  0  0  0  0  0  0  0  0
  3  2  1  0
  4  2  1  0
  5  2  2  0
  6  2  2  0
M  CHG  3   1   2   3  -1   4  -1
M  END
> <chembl_id>
CHEMBL2105897

> <chembl_pref_name>
BARIUM SULFATE
