
     RDKit          2D

 22 22  0  0  0  0  0  0  0  0999 V2000
   -2.4458    0.2708    0.0000 C   0  0  0  0  0  0  0  0  0  0  0  0
   -2.4458    1.3833    0.0000 C   0  0  0  0  0  0  0  0  0  0  0  0
   -1.4708    1.9458    0.0000 C   0  0  0  0  0  0  0  0  0  0  0  0
   -0.5125    1.3875    0.0000 C   0  0  0  0  0  0  0  0  0  0  0  0
   -1.4958   -0.2792    0.0000 C   0  0  0  0  0  0  0  0  0  0  0  0
   -3.4208   -0.2917    0.0000 O   0  0  0  0  0  0  0  0  0  0  0  0
   -0.5125    0.2708    0.0000 C   0  0  0  0  0  0  0  0  0  0  0  0
   -3.4250   -1.3792    0.0000 C   0  0  0  0  0  0  0  0  0  0  0  0
    0.4500    1.9625    0.0000 O   0  0  0  0  0  0  0  0  0  0  0  0
   -2.5333   -2.1167    0.0000 O   0  0  0  0  0  0  0  0  0  0  0  0
    2.4042   -1.3917    0.0000 N   0  0  0  0  0  0  0  0  0  0  0  0
    1.4167    0.2875    0.0000 C   0  0  0  0  0  0  0  0  0  0  0  0
    1.4167    1.4083    0.0000 C   0  0  0  0  0  0  0  0  0  0  0  0
    2.4250   -0.2542    0.0000 C   0  0  0  0  0  0  0  0  0  0  0  0
   -3.4208    1.9250    0.0000 C   0  0  0  0  0  0  0  0  0  0  0  0
    0.4542   -0.2625    0.0000 O   0  0  0  0  0  0  0  0  0  0  0  0
   -1.4625    3.0708    0.0000 C   0  0  0  0  0  0  0  0  0  0  0  0
   -1.4833   -1.3792    0.0000 C   0  0  0  0  0  0  0  0  0  0  0  0
    3.3792   -1.9417    0.0000 C   0  0  0  0  0  0  0  0  0  0  0  0
   -4.3458   -1.9000    0.0000 C   0  0  0  0  0  0  0  0  0  0  0  0
    3.4125   -3.0625    0.0000 C   0  0  0  0  0  0  0  0  0  0  0  0
    4.3417   -1.3792    0.0000 C   0  0  0  0  0  0  0  0  0  0  0  0
  2  1  1  0
  3  2  2  0
  4  7  2  0
  5  1  2  0
  6  1  1  0
  7  5  1  0
  8  6  1  0
  9  4  1  0
 10  8  2  0
 11 14  1  0
 12 13  1  0
 13  9  1  0
 14 12  1  0
 15  2  1  0
 16 12  1  0
 17  3  1  0
 18  5  1  0
 19 11  1  0
 20  8  1  0
 21 19  1  0
 22 19  1  0
  4  3  1  0
M  END
> <chembl_id>
CHEMBL1291

> <chembl_pref_name>
METIPRANOLOL
