
     RDKit          2D

 37 39  0  0  0  0  0  0  0  0999 V2000
   -7.9257    0.4462    0.0000 C   0  0  0  0  0  0  0  0  0  0  0  0
   -7.9257    1.2712    0.0000 C   0  0  0  0  0  0  0  0  0  0  0  0
   -7.2112    1.6837    0.0000 C   0  0  0  0  0  0  0  0  0  0  0  0
   -6.4967    1.2712    0.0000 C   0  0  0  0  0  0  0  0  0  0  0  0
   -6.4967    0.4462    0.0000 C   0  0  0  0  0  0  0  0  0  0  0  0
   -7.2112    0.0337    0.0000 C   0  0  0  0  0  0  0  0  0  0  0  0
   -5.7823    0.0336    0.0000 C   0  0  0  0  0  0  0  0  0  0  0  0
   -5.0678    0.4461    0.0000 C   0  0  0  0  0  0  0  0  0  0  0  0
   -5.0678    1.2711    0.0000 O   0  0  0  0  0  0  0  0  0  0  0  0
   -5.7595   -1.0878    0.0000 C   0  0  0  0  0  0  0  0  0  0  0  0
   -5.0450   -1.5003    0.0000 N   0  0  0  0  0  0  0  0  0  0  0  0
   -4.3306   -1.0878    0.0000 C   0  0  0  0  0  0  0  0  0  0  0  0
   -4.3533   -0.0804    0.0000 O   0  0  0  0  0  0  0  0  0  0  0  0
   -6.4740   -1.5002    0.0000 C   0  0  0  0  0  0  0  0  0  0  0  0
   -6.4740   -2.3252    0.0000 C   0  0  0  0  0  0  0  0  0  0  0  0
   -5.7595   -2.7378    0.0000 C   0  0  0  0  0  0  0  0  0  0  0  0
   -5.0450   -2.3253    0.0000 C   0  0  0  0  0  0  0  0  0  0  0  0
   -3.6161   -1.5003    0.0000 O   0  0  0  0  0  0  0  0  0  0  0  0
   -2.9016   -1.0878    0.0000 C   0  0  0  0  0  0  0  0  0  0  0  0
   -2.1871   -1.5003    0.0000 N   0  0  0  0  0  0  0  0  0  0  0  0
   -1.4727   -1.0878    0.0000 C   0  0  0  0  0  0  0  0  0  0  0  0
   -2.1872   -2.3253    0.0000 C   0  0  0  0  0  0  0  0  0  0  0  0
   -1.4727   -2.7378    0.0000 C   0  0  0  0  0  0  0  0  0  0  0  0
   -0.7582   -2.3253    0.0000 C   0  0  0  0  0  0  0  0  0  0  0  0
   -0.7582   -1.5003    0.0000 C   0  0  0  0  0  0  0  0  0  0  0  0
   -0.0437   -1.0878    0.0000 C   0  0  0  0  0  0  0  0  0  0  0  0
   -0.0437   -0.2628    0.0000 O   0  0  0  0  0  0  0  0  0  0  0  0
    0.6707   -1.5003    0.0000 N   0  0  0  0  0  0  0  0  0  0  0  0
    1.3852   -1.0878    0.0000 C   0  0  0  0  0  0  0  0  0  0  0  0
    1.3852   -0.2628    0.0000 C   0  0  0  0  0  0  0  0  0  0  0  0
    2.0997    0.1496    0.0000 O   0  0  0  0  0  0  0  0  0  0  0  0
    2.0997   -1.5003    0.0000 C   0  0  0  0  0  0  0  0  0  0  0  0
    2.8142   -1.0878    0.0000 O   0  0  0  0  0  0  0  0  0  0  0  0
    2.0997   -2.3253    0.0000 O   0  0  0  0  0  0  0  0  0  0  0  0
   -4.3533    1.6836    0.0000 C   0  0  0  0  0  0  0  0  0  0  0  0
   -4.2473    0.5324    0.0000 O   0  0  0  0  0  0  0  0  0  0  0  0
   -6.4740   -0.6753    0.0000 H   0  0  0  0  0  0  0  0  0  0  0  0
  1  2  1  0
  2  3  2  0
  3  4  1  0
  4  5  2  0
  5  6  1  0
  1  6  2  0
  8  9  1  0
  7  5  1  0
 10 11  1  0
 11 12  1  0
 12 13  2  0
 10  7  1  0
  7  8  1  1
 14 15  1  0
 15 16  1  0
 16 17  1  0
 10 14  1  0
 17 11  1  0
 18 19  1  0
 12 18  1  0
 20 21  1  0
 19 20  1  0
 22 23  1  0
 23 24  2  0
 24 25  1  0
 20 22  2  0
 21 25  2  0
 25 26  1  0
 28 29  1  0
 26 28  1  0
 27 26  2  0
 29 32  1  0
 31 30  1  0
 29 30  1  1
 32 34  2  0
 33 32  1  0
  9 35  1  0
  8 36  2  0
 10 37  1  1
M  CHG  1  20   1
M  END
> <chembl_id>
CHEMBL4301162

> <chembl_pref_name>
SERDEXMETHYLPHENIDATE
