
     RDKit          2D

 21 23  0  0  0  0  0  0  0  0999 V2000
   -0.6833   -0.1917    0.0000 N   0  0  0  0  0  0  0  0  0  0  0  0
   -0.6833   -3.1042    0.0000 S   0  0  0  0  0  0  0  0  0  0  0  0
    0.5417   -0.9167    0.0000 C   0  0  0  0  0  0  0  0  0  0  0  0
   -1.9083   -0.9167    0.0000 C   0  0  0  0  0  0  0  0  0  0  0  0
   -1.9083   -2.3917    0.0000 C   0  0  0  0  0  0  0  0  0  0  0  0
    0.5417   -2.3917    0.0000 C   0  0  0  0  0  0  0  0  0  0  0  0
   -0.6833    1.2333    0.0000 C   0  0  0  0  0  0  0  0  0  0  0  0
    0.5417    1.9458    0.0000 C   0  0  0  0  0  0  0  0  0  0  0  0
    1.8292    1.2458    0.0000 C   0  0  0  0  0  0  0  0  0  0  0  0
    3.0417    1.9958    0.0000 N   0  0  0  0  0  0  0  0  0  0  0  0
    1.8125   -0.1917    0.0000 C   0  0  0  0  0  0  0  0  0  0  0  0
   -3.1125   -0.1917    0.0000 C   0  0  0  0  0  0  0  0  0  0  0  0
   -3.1125   -3.1042    0.0000 C   0  0  0  0  0  0  0  0  0  0  0  0
    1.8125   -3.1042    0.0000 C   0  0  0  0  0  0  0  0  0  0  0  0
    0.5375    3.3750    0.0000 C   0  0  0  0  0  0  0  0  0  0  0  0
    3.0542    3.3708    0.0000 C   0  0  0  0  0  0  0  0  0  0  0  0
    4.3125    1.2958    0.0000 C   0  0  0  0  0  0  0  0  0  0  0  0
    3.0125   -0.9167    0.0000 C   0  0  0  0  0  0  0  0  0  0  0  0
   -4.3208   -0.8667    0.0000 C   0  0  0  0  0  0  0  0  0  0  0  0
    3.0125   -2.3917    0.0000 C   0  0  0  0  0  0  0  0  0  0  0  0
   -4.3208   -2.4375    0.0000 C   0  0  0  0  0  0  0  0  0  0  0  0
  2  5  1  0
  3  1  1  0
  4  1  1  0
  5  4  2  0
  6  3  2  0
  7  1  1  0
  8  7  1  0
  9  8  1  0
 10  9  1  0
 11  3  1  0
 12  4  1  0
 13  5  1  0
 14  6  1  0
 15  8  1  0
 16 10  1  0
 17 10  1  0
 18 11  2  0
 19 12  2  0
 20 18  1  0
 21 19  1  0
  6  2  1  0
 13 21  2  0
 14 20  2  0
M  END
> <chembl_id>
CHEMBL829

> <chembl_pref_name>
METHYLPROMAZINE
