
     RDKit          2D

 25 27  0  0  0  0  0  0  0  0999 V2000
   -0.1083   -2.4750    0.0000 C   0  0  0  0  0  0  0  0  0  0  0  0
    4.1819   -0.6536    0.0000 C   0  0  0  0  0  0  0  0  0  0  0  0
    2.3417   -1.7542    0.0000 C   0  0  0  0  0  0  0  0  0  0  0  0
    1.7292   -2.1125    0.0000 C   0  0  0  0  0  0  0  0  0  0  0  0
    4.7621   -0.2916    0.0000 C   0  0  0  0  0  0  0  0  0  0  0  0
   -0.7208   -2.1125    0.0000 C   0  0  0  0  0  0  0  0  0  0  0  0
    3.6169   -1.7488    0.0000 N   0  0  0  0  0  0  0  0  0  0  0  0
   -0.1083   -3.1792    0.0000 C   0  0  0  0  0  0  0  0  0  0  0  0
   -0.7208   -3.5375    0.0000 S   0  0  0  0  0  0  0  0  0  0  0  0
    4.1963   -1.3535    0.0000 C   0  0  0  0  0  0  0  0  0  0  0  0
    0.5042   -2.1125    0.0000 C   0  0  0  0  0  0  0  0  0  0  0  0
    2.9841   -1.3784    0.0000 C   0  0  0  0  0  0  0  0  0  0  0  0
    4.7474    0.4249    0.0000 O   0  0  0  0  0  0  0  0  0  0  0  0
    1.1167   -2.4750    0.0000 C   0  0  0  0  0  0  0  0  0  0  0  0
    3.5874   -0.3158    0.0000 C   0  0  0  0  0  0  0  0  0  0  0  0
    0.5042   -3.5375    0.0000 C   0  0  0  0  0  0  0  0  0  0  0  0
    5.4067   -0.6284    0.0000 O   0  0  0  0  0  0  0  0  0  0  0  0
    2.9697   -0.6786    0.0000 C   0  0  0  0  0  0  0  0  0  0  0  0
   -1.3333   -3.1792    0.0000 C   0  0  0  0  0  0  0  0  0  0  0  0
    1.1167   -3.1792    0.0000 C   0  0  0  0  0  0  0  0  0  0  0  0
   -1.3333   -2.4750    0.0000 C   0  0  0  0  0  0  0  0  0  0  0  0
   -0.3708   -1.4917    0.0000 C   0  0  0  0  0  0  0  0  0  0  0  0
   -1.0750   -1.4917    0.0000 C   0  0  0  0  0  0  0  0  0  0  0  0
    5.9869   -0.2664    0.0000 C   0  0  0  0  0  0  0  0  0  0  0  0
    6.5939   -0.5998    0.0000 C   0  0  0  0  0  0  0  0  0  0  0  0
  2 15  1  0
  3  4  3  0
  4 14  1  0
  5  2  1  0
  6  1  1  0
  7 12  2  0
  8  1  1  0
  9  8  1  0
 10  7  1  0
 11  1  2  0
 12  3  1  0
 13  5  2  0
 14 11  1  0
 15 18  2  0
 16  8  2  0
 17  5  1  0
 18 12  1  0
 19  9  1  0
 20 14  2  0
 21  6  1  0
 22  6  1  0
 23  6  1  0
 24 17  1  0
 25 24  1  0
 19 21  1  0
 20 16  1  0
  2 10  2  0
M  END
> <chembl_id>
CHEMBL1657

> <chembl_pref_name>
TAZAROTENE
