
     RDKit          2D

122126  0  0  0  0  0  0  0  0999 V2000
    0.1180  -25.2656    0.0000 C   0  0  0  0  0  0  0  0  0  0  0  0
    0.9431  -25.2656    0.0000 C   0  0  0  0  0  0  0  0  0  0  0  0
    1.4280  -24.5981    0.0000 O   0  0  0  0  0  0  0  0  0  0  0  0
    1.5562  -25.8176    0.0000 O   0  0  0  0  0  0  0  0  0  0  0  0
   -5.3882  -20.4996    0.0000 C   0  0  0  0  0  0  0  0  0  0  0  0
   -5.3882  -19.6746    0.0000 C   0  0  0  0  0  0  0  0  0  0  0  0
   -4.6737  -19.2621    0.0000 N   0  0  0  0  0  0  0  0  0  0  0  0
   -3.9593  -19.6746    0.0000 C   0  0  0  0  0  0  0  0  0  0  0  0
   -3.2447  -19.2621    0.0000 C   0  0  0  0  0  0  0  0  0  0  0  0
   -2.5303  -19.6746    0.0000 N   0  0  0  0  0  0  0  0  0  0  0  0
   -1.8158  -19.2621    0.0000 C   0  0  0  0  0  0  0  0  0  0  0  0
   -1.1014  -19.6746    0.0000 C   0  0  0  0  0  0  0  0  0  0  0  0
   -0.3869  -19.2621    0.0000 N   0  0  0  0  0  0  0  0  0  0  0  0
    0.3276  -19.6746    0.0000 C   0  0  0  0  0  0  0  0  0  0  0  0
    1.0420  -19.2621    0.0000 C   0  0  0  0  0  0  0  0  0  0  0  0
    1.7565  -19.6746    0.0000 N   0  0  0  0  0  0  0  0  0  0  0  0
    2.4710  -19.2621    0.0000 C   0  0  0  0  0  0  0  0  0  0  0  0
    3.1855  -19.6746    0.0000 C   0  0  0  0  0  0  0  0  0  0  0  0
    3.8999  -19.2621    0.0000 N   0  0  0  0  0  0  0  0  0  0  0  0
    4.6143  -19.6746    0.0000 C   0  0  0  0  0  0  0  0  0  0  0  0
    5.3289  -19.2621    0.0000 C   0  0  0  0  0  0  0  0  0  0  0  0
    6.0433  -19.6746    0.0000 N   0  0  0  0  0  0  0  0  0  0  0  0
    6.7578  -19.2621    0.0000 C   0  0  0  0  0  0  0  0  0  0  0  0
    7.4723  -19.6746    0.0000 C   0  0  0  0  0  0  0  0  0  0  0  0
    8.1868  -19.2621    0.0000 N   0  0  0  0  0  0  0  0  0  0  0  0
    8.9012  -19.6746    0.0000 C   0  0  0  0  0  0  0  0  0  0  0  0
    9.6157  -19.2621    0.0000 C   0  0  0  0  0  0  0  0  0  0  0  0
   10.3302  -19.6746    0.0000 N   0  0  0  0  0  0  0  0  0  0  0  0
   11.0446  -19.2621    0.0000 C   0  0  0  0  0  0  0  0  0  0  0  0
   11.7591  -19.6746    0.0000 C   0  0  0  0  0  0  0  0  0  0  0  0
   12.4736  -19.2621    0.0000 N   0  0  0  0  0  0  0  0  0  0  0  0
   13.1881  -19.6746    0.0000 C   0  0  0  0  0  0  0  0  0  0  0  0
   13.9025  -19.2621    0.0000 C   0  0  0  0  0  0  0  0  0  0  0  0
   14.6170  -19.6746    0.0000 N   0  0  0  0  0  0  0  0  0  0  0  0
   15.3315  -19.2621    0.0000 C   0  0  0  0  0  0  0  0  0  0  0  0
   16.0459  -19.6746    0.0000 C   0  0  0  0  0  0  0  0  0  0  0  0
   16.7604  -19.2621    0.0000 N   0  0  0  0  0  0  0  0  0  0  0  0
   17.4749  -19.6746    0.0000 C   0  0  0  0  0  0  0  0  0  0  0  0
   18.1893  -19.2621    0.0000 C   0  0  0  0  0  0  0  0  0  0  0  0
   18.1893  -18.4371    0.0000 N   0  0  0  0  0  0  0  0  0  0  0  0
   18.8568  -17.9522    0.0000 C   0  0  0  0  0  0  0  0  0  0  0  0
   19.6414  -18.2072    0.0000 C   0  0  0  0  0  0  0  0  0  0  0  0
   20.2545  -17.6551    0.0000 N   0  0  0  0  0  0  0  0  0  0  0  0
   21.0391  -17.9101    0.0000 C   0  0  0  0  0  0  0  0  0  0  0  0
   21.6522  -17.3580    0.0000 C   0  0  0  0  0  0  0  0  0  0  0  0
   22.4368  -17.6130    0.0000 N   0  0  0  0  0  0  0  0  0  0  0  0
   -6.1026  -19.2621    0.0000 O   0  0  0  0  0  0  0  0  0  0  0  0
   -3.2447  -18.4371    0.0000 O   0  0  0  0  0  0  0  0  0  0  0  0
   -1.1014  -20.4996    0.0000 O   0  0  0  0  0  0  0  0  0  0  0  0
    1.0420  -18.4371    0.0000 O   0  0  0  0  0  0  0  0  0  0  0  0
    3.1855  -20.4996    0.0000 O   0  0  0  0  0  0  0  0  0  0  0  0
    5.3289  -18.4371    0.0000 O   0  0  0  0  0  0  0  0  0  0  0  0
    7.4723  -20.4996    0.0000 O   0  0  0  0  0  0  0  0  0  0  0  0
    9.6157  -18.4371    0.0000 O   0  0  0  0  0  0  0  0  0  0  0  0
   -3.9593  -20.4996    0.0000 C   0  0  0  0  0  0  0  0  0  0  0  0
   -4.6737  -20.9121    0.0000 O   0  0  0  0  0  0  0  0  0  0  0  0
   -1.8158  -18.4371    0.0000 C   0  0  0  0  0  0  0  0  0  0  0  0
   -1.1014  -18.0246    0.0000 C   0  0  0  0  0  0  0  0  0  0  0  0
   -1.1014  -17.1996    0.0000 C   0  0  0  0  0  0  0  0  0  0  0  0
   -0.3869  -18.4371    0.0000 C   0  0  0  0  0  0  0  0  0  0  0  0
    0.3276  -18.0246    0.0000 C   0  0  0  0  0  0  0  0  0  0  0  0
    0.3276  -17.1996    0.0000 C   0  0  0  0  0  0  0  0  0  0  0  0
   -0.3869  -16.7871    0.0000 C   0  0  0  0  0  0  0  0  0  0  0  0
    1.0420  -16.7871    0.0000 O   0  0  0  0  0  0  0  0  0  0  0  0
    0.3276  -20.4996    0.0000 C   0  0  0  0  0  0  0  0  0  0  0  0
    1.0420  -20.9121    0.0000 O   0  0  0  0  0  0  0  0  0  0  0  0
    2.4710  -18.4371    0.0000 C   0  0  0  0  0  0  0  0  0  0  0  0
    3.1855  -18.0246    0.0000 C   0  0  0  0  0  0  0  0  0  0  0  0
    3.1855  -17.1996    0.0000 C   0  0  0  0  0  0  0  0  0  0  0  0
    3.8999  -16.7871    0.0000 C   0  0  0  0  0  0  0  0  0  0  0  0
    4.6143  -20.4996    0.0000 C   0  0  0  0  0  0  0  0  0  0  0  0
    5.3289  -20.9121    0.0000 C   0  0  0  0  0  0  0  0  0  0  0  0
    5.3289  -21.7371    0.0000 C   0  0  0  0  0  0  0  0  0  0  0  0
    4.6143  -22.1496    0.0000 O   0  0  0  0  0  0  0  0  0  0  0  0
    6.0433  -22.1496    0.0000 O   0  0  0  0  0  0  0  0  0  0  0  0
    6.7578  -18.4371    0.0000 C   0  0  0  0  0  0  0  0  0  0  0  0
    7.4723  -18.0246    0.0000 C   0  0  0  0  0  0  0  0  0  0  0  0
    7.5585  -17.2042    0.0000 N   0  0  0  0  0  0  0  0  0  0  0  0
    8.2260  -18.3602    0.0000 C   0  0  0  0  0  0  0  0  0  0  0  0
    8.7780  -17.7471    0.0000 N   0  0  0  0  0  0  0  0  0  0  0  0
    8.3655  -17.0326    0.0000 C   0  0  0  0  0  0  0  0  0  0  0  0
    8.6463  -20.4593    0.0000 C   0  0  0  0  0  0  0  0  0  0  0  0
    9.1983  -21.0723    0.0000 C   0  0  0  0  0  0  0  0  0  0  0  0
   10.5573  -21.5139    0.0000 C   0  0  0  0  0  0  0  0  0  0  0  0
   10.0053  -20.9008    0.0000 C   0  0  0  0  0  0  0  0  0  0  0  0
    8.9434  -21.8569    0.0000 C   0  0  0  0  0  0  0  0  0  0  0  0
    9.4954  -22.4701    0.0000 C   0  0  0  0  0  0  0  0  0  0  0  0
   10.3023  -22.2985    0.0000 C   0  0  0  0  0  0  0  0  0  0  0  0
   11.2742  -20.3420    0.0000 O   0  0  0  0  0  0  0  0  0  0  0  0
   13.9025  -18.4371    0.0000 O   0  0  0  0  0  0  0  0  0  0  0  0
   16.0459  -20.4996    0.0000 O   0  0  0  0  0  0  0  0  0  0  0  0
   18.9038  -19.6746    0.0000 O   0  0  0  0  0  0  0  0  0  0  0  0
   19.8129  -19.0141    0.0000 O   0  0  0  0  0  0  0  0  0  0  0  0
   21.4807  -16.5511    0.0000 O   0  0  0  0  0  0  0  0  0  0  0  0
   11.0446  -18.4371    0.0000 C   0  0  0  0  0  0  0  0  0  0  0  0
   11.7591  -18.0246    0.0000 C   0  0  0  0  0  0  0  0  0  0  0  0
   11.7591  -17.1996    0.0000 C   0  0  0  0  0  0  0  0  0  0  0  0
   12.4736  -16.7871    0.0000 N   0  0  0  0  0  0  0  0  0  0  0  0
   12.4736  -15.9621    0.0000 C   0  0  0  0  0  0  0  0  0  0  0  0
   11.7591  -15.5496    0.0000 N   0  0  0  0  0  0  0  0  0  0  0  0
   13.1881  -15.5496    0.0000 N   0  0  0  0  0  0  0  0  0  0  0  0
   13.1881  -20.4996    0.0000 C   0  0  0  0  0  0  0  0  0  0  0  0
   12.4736  -20.9121    0.0000 C   0  0  0  0  0  0  0  0  0  0  0  0
   11.1679  -21.1896    0.0000 N   0  0  0  0  0  0  0  0  0  0  0  0
   11.7199  -20.5766    0.0000 C   0  0  0  0  0  0  0  0  0  0  0  0
   12.3873  -21.7326    0.0000 C   0  0  0  0  0  0  0  0  0  0  0  0
   11.5803  -21.9041    0.0000 C   0  0  0  0  0  0  0  0  0  0  0  0
   11.3254  -22.6888    0.0000 C   0  0  0  0  0  0  0  0  0  0  0  0
   12.9393  -22.3457    0.0000 C   0  0  0  0  0  0  0  0  0  0  0  0
   12.6844  -23.1302    0.0000 C   0  0  0  0  0  0  0  0  0  0  0  0
   11.8774  -23.3019    0.0000 C   0  0  0  0  0  0  0  0  0  0  0  0
   17.4749  -20.4996    0.0000 C   0  0  0  0  0  0  0  0  0  0  0  0
   18.1893  -20.9121    0.0000 C   0  0  0  0  0  0  0  0  0  0  0  0
   18.1893  -21.7371    0.0000 C   0  0  0  0  0  0  0  0  0  0  0  0
   18.9038  -22.1496    0.0000 C   0  0  0  0  0  0  0  0  0  0  0  0
   18.9038  -22.9745    0.0000 N   0  0  0  0  0  0  0  0  0  0  0  0
   18.6018  -17.1676    0.0000 C   0  0  0  0  0  0  0  0  0  0  0  0
   17.5219  -17.9522    0.0000 C   0  0  0  0  0  0  0  0  0  0  0  0
   17.7768  -17.1676    0.0000 C   0  0  0  0  0  0  0  0  0  0  0  0
   21.2107  -18.7170    0.0000 C   0  0  0  0  0  0  0  0  0  0  0  0
   20.5976  -19.2691    0.0000 C   0  0  0  0  0  0  0  0  0  0  0  0
   21.9953  -18.9720    0.0000 C   0  0  0  0  0  0  0  0  0  0  0  0
  1  2  1  0
  2  3  2  0
  2  4  1  0
  5  6  1  0
  6  7  1  0
  7  8  1  0
  8  9  1  0
  9 10  1  0
 10 11  1  0
 11 12  1  0
 12 13  1  0
 13 14  1  0
 14 15  1  0
 15 16  1  0
 16 17  1  0
 17 18  1  0
 18 19  1  0
 19 20  1  0
 20 21  1  0
 21 22  1  0
 22 23  1  0
 23 24  1  0
 24 25  1  0
 26 25  1  0
 26 27  1  0
 27 28  1  0
 28 29  1  0
 29 30  1  0
 30 31  1  0
 32 31  1  0
 32 33  1  0
 33 34  1  0
 34 35  1  0
 35 36  1  0
 36 37  1  0
 38 37  1  0
 38 39  1  0
 39 40  1  0
 40 41  1  0
 41 42  1  1
 42 43  1  0
 44 43  1  0
 44 45  1  0
 45 46  1  0
  6 47  2  0
  9 48  2  0
 12 49  2  0
 15 50  2  0
 18 51  2  0
 21 52  2  0
 24 53  2  0
 27 54  2  0
  8 55  1  6
 55 56  1  0
 11 57  1  1
 57 58  1  0
 60 61  2  0
 61 62  1  0
 62 63  2  0
 59 63  1  0
 59 58  2  0
 58 60  1  0
 62 64  1  0
 14 65  1  6
 65 66  1  0
 17 67  1  1
 67 68  1  0
 68 69  1  0
 69 70  1  0
 20 71  1  6
 71 72  1  0
 72 73  1  0
 73 74  2  0
 73 75  1  0
 23 76  1  1
 76 77  1  0
 79 80  1  0
 80 81  1  0
 78 81  2  0
 78 77  1  0
 77 79  2  0
 26 82  1  1
 82 83  1  0
 84 85  1  0
 86 87  2  0
 87 88  1  0
 84 88  2  0
 85 83  2  0
 83 86  1  0
 30 89  2  0
 33 90  2  0
 36 91  2  0
 39 92  2  0
 42 93  2  0
 45 94  2  0
 29 95  1  1
 95 96  1  0
 96 97  1  0
 97 98  1  0
 98 99  1  0
 99100  2  0
 99101  1  0
 32102  1  6
102103  1  0
104105  1  0
104107  1  0
105103  2  0
103106  1  0
109110  2  0
108111  2  0
107106  2  0
106109  1  0
108107  1  0
110111  1  0
 38112  1  6
112113  1  0
113114  1  0
114115  1  0
115116  1  0
 41117  1  0
 40118  1  0
118119  1  0
119117  1  0
 44120  1  6
120121  1  0
120122  1  0
M  END
> <chembl_id>
CHEMBL4297213

> <chembl_pref_name>
AFAMELANOTIDE ACETATE
