
     RDKit          2D

 20 22  0  0  0  0  0  0  0  0999 V2000
   -0.0250    0.0125    0.0000 N   0  0  0  0  0  0  0  0  0  0  0  0
   -0.0208    1.2000    0.0000 C   0  0  0  0  0  0  0  0  0  0  0  0
   -0.0458   -2.4000    0.0000 N   0  0  0  0  0  0  0  0  0  0  0  0
    1.0167   -0.6167    0.0000 C   0  0  0  0  0  0  0  0  0  0  0  0
   -1.0625   -0.5792    0.0000 C   0  0  0  0  0  0  0  0  0  0  0  0
   -1.0375    1.8083    0.0000 C   0  0  0  0  0  0  0  0  0  0  0  0
    1.0167    1.7833    0.0000 C   0  0  0  0  0  0  0  0  0  0  0  0
    1.0042   -1.8250    0.0000 C   0  0  0  0  0  0  0  0  0  0  0  0
   -1.0708   -1.7792    0.0000 C   0  0  0  0  0  0  0  0  0  0  0  0
   -0.0750   -3.5917    0.0000 C   0  0  0  0  0  0  0  0  0  0  0  0
    2.0375    1.1833    0.0000 C   0  0  0  0  0  0  0  0  0  0  0  0
    1.0167    2.9708    0.0000 C   0  0  0  0  0  0  0  0  0  0  0  0
   -1.0208    2.9958    0.0000 C   0  0  0  0  0  0  0  0  0  0  0  0
   -2.0625    1.2208    0.0000 C   0  0  0  0  0  0  0  0  0  0  0  0
   -2.0458    3.5958    0.0000 C   0  0  0  0  0  0  0  0  0  0  0  0
   -3.0833    1.8208    0.0000 C   0  0  0  0  0  0  0  0  0  0  0  0
    3.0667    1.7625    0.0000 C   0  0  0  0  0  0  0  0  0  0  0  0
    2.0542    3.5583    0.0000 C   0  0  0  0  0  0  0  0  0  0  0  0
   -3.0833    3.0083    0.0000 C   0  0  0  0  0  0  0  0  0  0  0  0
    3.0792    2.9583    0.0000 C   0  0  0  0  0  0  0  0  0  0  0  0
  2  1  1  0
  3  9  1  0
  4  1  1  0
  5  1  1  0
  6  2  1  0
  7  2  1  0
  8  4  1  0
  9  5  1  0
 10  3  1  0
 11  7  2  0
 12  7  1  0
 13  6  2  0
 14  6  1  0
 15 13  1  0
 16 14  2  0
 17 11  1  0
 18 12  2  0
 19 16  1  0
 20 18  1  0
  8  3  1  0
 17 20  2  0
 15 19  2  0
M  END
> <chembl_id>
CHEMBL648

> <chembl_pref_name>
CYCLIZINE
