
     RDKit          2D

 32 33  0  0  0  0  0  0  0  0999 V2000
   -7.8752  -14.0757    0.0000 C   0  0  0  0  0  0  0  0  0  0  0  0
   -7.2621  -14.6277    0.0000 C   0  0  0  0  0  0  0  0  0  0  0  0
   -7.4336  -15.4347    0.0000 C   0  0  0  0  0  0  0  0  0  0  0  0
   -8.2182  -15.6896    0.0000 C   0  0  0  0  0  0  0  0  0  0  0  0
   -8.8313  -15.1376    0.0000 C   0  0  0  0  0  0  0  0  0  0  0  0
   -8.6598  -14.3306    0.0000 C   0  0  0  0  0  0  0  0  0  0  0  0
   -7.7036  -13.2687    0.0000 O   0  0  0  0  0  0  0  0  0  0  0  0
   -6.9190  -13.0137    0.0000 C   0  0  0  0  0  0  0  0  0  0  0  0
   -6.7475  -12.2068    0.0000 C   0  0  0  0  0  0  0  0  0  0  0  0
   -6.5760  -11.3998    0.0000 C   0  0  0  0  0  0  0  0  0  0  0  0
   -5.7913  -11.1449    0.0000 C   0  0  0  0  0  0  0  0  0  0  0  0
   -5.6198  -10.3379    0.0000 C   0  0  0  0  0  0  0  0  0  0  0  0
   -6.1718   -9.7248    0.0000 C   0  0  0  0  0  0  0  0  0  0  0  0
   -5.7593   -9.0103    0.0000 C   0  0  0  0  0  0  0  0  0  0  0  0
   -4.9524   -9.1819    0.0000 C   0  0  0  0  0  0  0  0  0  0  0  0
   -5.9405  -12.3783    0.0000 F   0  0  0  0  0  0  0  0  0  0  0  0
   -7.5545  -12.0352    0.0000 F   0  0  0  0  0  0  0  0  0  0  0  0
   -6.9923   -9.8110    0.0000 O   0  0  0  0  0  0  0  0  0  0  0  0
   -4.8661  -10.0023    0.0000 C   0  0  0  0  0  0  0  0  0  0  0  0
   -4.1517  -10.4148    0.0000 C   0  0  0  0  0  0  0  0  0  0  0  0
   -4.1517  -11.2398    0.0000 C   0  0  0  0  0  0  0  0  0  0  0  0
   -3.4372  -11.6523    0.0000 C   0  0  0  0  0  0  0  0  0  0  0  0
   -2.7227  -11.2398    0.0000 C   0  0  0  0  0  0  0  0  0  0  0  0
   -2.0082  -11.6523    0.0000 C   0  0  0  0  0  0  0  0  0  0  0  0
   -1.2938  -11.2398    0.0000 C   0  0  0  0  0  0  0  0  0  0  0  0
   -0.5793  -11.6523    0.0000 C   0  0  0  0  0  0  0  0  0  0  0  0
    0.1352  -11.2398    0.0000 O   0  0  0  0  0  0  0  0  0  0  0  0
    0.8496  -11.6523    0.0000 C   0  0  0  0  0  0  0  0  0  0  0  0
    1.5641  -11.2398    0.0000 C   0  0  0  0  0  0  0  0  0  0  0  0
   -4.3393   -8.6298    0.0000 O   0  0  0  0  0  0  0  0  0  0  0  0
   -0.5793  -12.4773    0.0000 O   0  0  0  0  0  0  0  0  0  0  0  0
    0.8496  -12.4773    0.0000 C   0  0  0  0  0  0  0  0  0  0  0  0
  1  2  1  0
  2  3  2  0
  3  4  1  0
  4  5  2  0
  5  6  1  0
  1  6  2  0
  1  7  1  0
  7  8  1  0
  8  9  1  0
  9 10  1  0
 11 10  2  0
 12 11  1  1
 12 13  1  0
 13 14  1  0
 14 15  1  0
  9 16  1  0
  9 17  1  0
 13 18  1  6
 15 19  1  0
 19 20  1  6
 20 21  1  0
 21 22  2  0
 22 23  1  0
 23 24  1  0
 24 25  1  0
 25 26  1  0
 26 27  1  0
 27 28  1  0
 28 29  1  0
 15 30  1  6
 26 31  2  0
 28 32  1  0
 19 12  1  0
M  END
> <chembl_id>
CHEMBL1963683

> <chembl_pref_name>
TAFLUPROST
