
     RDKit          2D

 19 18  0  0  0  0  0  0  0  0999 V2000
    5.3042   -3.9375    0.0000 Na  0  0  0  0  0 15  0  0  0  0  0  0
    5.9917   -5.1542    0.0000 S   0  0  0  0  0  0  0  0  0  0  0  0
    5.3792   -4.8042    0.0000 N   0  0  0  0  0  0  0  0  0  0  0  0
    4.7667   -5.1542    0.0000 C   0  0  0  0  0  0  0  0  0  0  0  0
    6.6042   -4.8042    0.0000 C   0  0  0  0  0  0  0  0  0  0  0  0
    6.3417   -5.7667    0.0000 O   0  0  0  0  0  0  0  0  0  0  0  0
    5.6375   -5.7667    0.0000 O   0  0  0  0  0  0  0  0  0  0  0  0
    4.7667   -5.8667    0.0000 O   0  0  0  0  0  0  0  0  0  0  0  0
    4.1542   -4.8042    0.0000 N   0  0  0  0  0  0  0  0  0  0  0  0
    7.2167   -5.1542    0.0000 C   0  0  0  0  0  0  0  0  0  0  0  0
    6.6042   -4.0917    0.0000 C   0  0  0  0  0  0  0  0  0  0  0  0
    7.2167   -3.7375    0.0000 C   0  0  0  0  0  0  0  0  0  0  0  0
    7.8292   -4.8042    0.0000 C   0  0  0  0  0  0  0  0  0  0  0  0
    7.8292   -4.0917    0.0000 C   0  0  0  0  0  0  0  0  0  0  0  0
    3.5417   -5.1542    0.0000 C   0  0  0  0  0  0  0  0  0  0  0  0
    8.4417   -3.7292    0.0000 C   0  0  0  0  0  0  0  0  0  0  0  0
    2.9292   -4.8042    0.0000 C   0  0  0  0  0  0  0  0  0  0  0  0
    2.3125   -5.1542    0.0000 C   0  0  0  0  0  0  0  0  0  0  0  0
    1.7000   -4.8000    0.0000 C   0  0  0  0  0  0  0  0  0  0  0  0
  3  2  1  0
  4  3  1  0
  5  2  1  0
  6  2  2  0
  7  2  2  0
  8  4  2  0
  9  4  1  0
 10  5  1  0
 11  5  2  0
 12 11  1  0
 13 10  2  0
 14 12  2  0
 15  9  1  0
 16 14  1  0
 17 15  1  0
 18 17  1  0
 19 18  1  0
 13 14  1  0
M  CHG  2   1   1   3  -1
M  END
> <chembl_id>
CHEMBL1200874

> <chembl_pref_name>
TOLBUTAMIDE SODIUM, STERILE
