
     RDKit          2D

 24 26  0  0  0  0  0  0  0  0999 V2000
   -1.5000   -0.4375    0.0000 N   0  0  0  0  0  0  0  0  0  0  0  0
   -0.5458   -1.0000    0.0000 C   0  0  0  0  0  0  0  0  0  0  0  0
   -1.5000   -2.7167    0.0000 S   0  0  0  0  0  0  0  0  0  0  0  0
   -2.4583   -1.0000    0.0000 C   0  0  0  0  0  0  0  0  0  0  0  0
   -0.5458   -2.1542    0.0000 C   0  0  0  0  0  0  0  0  0  0  0  0
   -1.5000    0.6750    0.0000 C   0  0  0  0  0  0  0  0  0  0  0  0
   -2.4583   -2.1542    0.0000 C   0  0  0  0  0  0  0  0  0  0  0  0
    0.4417   -0.4375    0.0000 C   0  0  0  0  0  0  0  0  0  0  0  0
    1.3792   -1.0000    0.0000 C   0  0  0  0  0  0  0  0  0  0  0  0
   -0.5625    1.2208    0.0000 C   0  0  0  0  0  0  0  0  0  0  0  0
    2.3292   -0.4167    0.0000 C   0  0  0  0  0  0  0  0  0  0  0  0
   -0.5750    2.3000    0.0000 N   0  0  0  0  0  0  0  0  0  0  0  0
    0.4417   -2.7167    0.0000 C   0  0  0  0  0  0  0  0  0  0  0  0
    1.3792   -2.1542    0.0000 C   0  0  0  0  0  0  0  0  0  0  0  0
    2.3167    0.7458    0.0000 O   0  0  0  0  0  0  0  0  0  0  0  0
   -3.4083   -0.4375    0.0000 C   0  0  0  0  0  0  0  0  0  0  0  0
   -3.4083   -2.7167    0.0000 C   0  0  0  0  0  0  0  0  0  0  0  0
    3.3417   -0.9000    0.0000 C   0  0  0  0  0  0  0  0  0  0  0  0
    0.3750    2.9250    0.0000 C   0  0  0  0  0  0  0  0  0  0  0  0
   -1.5500    2.7958    0.0000 C   0  0  0  0  0  0  0  0  0  0  0  0
    0.4375    0.7000    0.0000 C   0  0  0  0  0  0  0  0  0  0  0  0
    4.3417   -0.4000    0.0000 C   0  0  0  0  0  0  0  0  0  0  0  0
   -4.3458   -0.9667    0.0000 C   0  0  0  0  0  0  0  0  0  0  0  0
   -4.3458   -2.1917    0.0000 C   0  0  0  0  0  0  0  0  0  0  0  0
  2  1  1  0
  3  7  1  0
  4  1  1  0
  5  2  2  0
  6  1  1  0
  7  4  2  0
  8  2  1  0
  9  8  2  0
 10  6  1  0
 11  9  1  0
 12 10  1  0
 13  5  1  0
 14  9  1  0
 15 11  2  0
 16  4  1  0
 17  7  1  0
 18 11  1  0
 19 12  1  0
 20 12  1  0
 21 10  1  0
 22 18  1  0
 23 16  2  0
 24 23  1  0
  5  3  1  0
 17 24  2  0
 13 14  2  0
M  END
> <chembl_id>
CHEMBL1201210

> <chembl_pref_name>
PROPIOMAZINE
