
     RDKit          2D

 37 36  0  0  0  0  0  0  0  0999 V2000
    8.5819  -21.1261    0.0000 C   0  0  0  0  0  0  0  0  0  0  0  0
    7.8582  -21.5362    0.0000 C   0  0  0  0  0  0  0  0  0  0  0  0
    9.2911  -21.5362    0.0000 C   0  0  0  0  0  0  0  0  0  0  0  0
    7.1490  -21.1261    0.0000 C   0  0  0  0  0  0  0  0  0  0  0  0
   10.0099  -21.1261    0.0000 O   0  0  0  0  0  0  0  0  0  0  0  0
    9.2911  -22.3612    0.0000 O   0  0  0  0  0  0  0  0  0  0  0  0
    7.1490  -20.3060    0.0000 O   0  0  0  0  0  0  0  0  0  0  0  0
    7.8582  -22.3612    0.0000 O   0  0  0  0  0  0  0  0  0  0  0  0
    8.5819  -20.3060    0.0000 O   0  0  0  0  0  0  0  0  0  0  0  0
    6.4349  -21.5362    0.0000 O   0  0  0  0  0  0  0  0  0  0  0  0
    3.2244  -21.3656    0.0000 C   0  0  0  0  0  0  0  0  0  0  0  0
    2.5007  -21.7757    0.0000 C   0  0  0  0  0  0  0  0  0  0  0  0
    3.9336  -21.7757    0.0000 C   0  0  0  0  0  0  0  0  0  0  0  0
    1.7915  -21.3656    0.0000 C   0  0  0  0  0  0  0  0  0  0  0  0
    4.6524  -21.3656    0.0000 O   0  0  0  0  0  0  0  0  0  0  0  0
    3.9336  -22.6007    0.0000 O   0  0  0  0  0  0  0  0  0  0  0  0
    1.7915  -20.5455    0.0000 O   0  0  0  0  0  0  0  0  0  0  0  0
    2.5007  -22.6007    0.0000 O   0  0  0  0  0  0  0  0  0  0  0  0
    3.2244  -20.5455    0.0000 O   0  0  0  0  0  0  0  0  0  0  0  0
    1.0774  -21.7757    0.0000 O   0  0  0  0  0  0  0  0  0  0  0  0
    0.5757  -18.3455    0.0000 N   0  0  0  0  0  0  0  0  0  0  0  0
    4.8599  -18.3455    0.0000 N   0  0  0  0  0  0  0  0  0  0  0  0
    4.1507  -18.7507    0.0000 C   0  0  0  0  0  0  0  0  0  0  0  0
    1.2849  -18.7507    0.0000 C   0  0  0  0  0  0  0  0  0  0  0  0
    0.5757  -19.1705    0.0000 C   0  0  0  0  0  0  0  0  0  0  0  0
    4.8599  -19.1705    0.0000 C   0  0  0  0  0  0  0  0  0  0  0  0
    0.3152  -17.5639    0.0000 C   0  0  0  0  0  0  0  0  0  0  0  0
    5.0915  -17.5494    0.0000 C   0  0  0  0  0  0  0  0  0  0  0  0
    5.5353  -18.8231    0.0000 C   0  0  0  0  0  0  0  0  0  0  0  0
   -0.0901  -18.8376    0.0000 C   0  0  0  0  0  0  0  0  0  0  0  0
    3.4270  -18.3455    0.0000 C   0  0  0  0  0  0  0  0  0  0  0  0
    2.0038  -18.3455    0.0000 C   0  0  0  0  0  0  0  0  0  0  0  0
   -0.5098  -17.5639    0.0000 C   0  0  0  0  0  0  0  0  0  0  0  0
   -0.7559  -18.3551    0.0000 C   0  0  0  0  0  0  0  0  0  0  0  0
    2.7178  -18.7507    0.0000 C   0  0  0  0  0  0  0  0  0  0  0  0
    5.9165  -17.5349    0.0000 C   0  0  0  0  0  0  0  0  0  0  0  0
    6.1915  -18.3165    0.0000 C   0  0  0  0  0  0  0  0  0  0  0  0
  2  1  1  0
  3  1  1  0
  4  2  1  0
  5  3  1  0
  6  3  2  0
  7  4  2  0
  2  8  1  1
  1  9  1  1
 10  4  1  0
 12 11  1  0
 13 11  1  0
 14 12  1  0
 15 13  1  0
 16 13  2  0
 17 14  2  0
 12 18  1  1
 11 19  1  1
 20 14  1  0
 22 23  1  0
 23 31  1  0
 24 21  1  0
 25 21  1  0
 26 22  1  0
 27 21  1  0
 28 22  1  0
 29 22  1  0
 30 21  1  0
 31 35  1  0
 32 24  1  0
 33 27  1  0
 34 30  1  0
 35 32  1  0
 36 28  1  0
 37 29  1  0
 33 34  1  0
 37 36  1  0
M  CHG  4   5  -1  15  -1  21   1  22   1
M  END
> <chembl_id>
CHEMBL1318287

> <chembl_pref_name>
PENTOLINIUM TARTRATE
