
     RDKit          2D

 91 95  0  0  1  0  0  0  0  0999 V2000
    3.8292   -5.2375    0.0000 C   0  0  0  0  0  0  0  0  0  0  0  0
    4.5292   -5.2417    0.0000 C   0  0  0  0  0  0  0  0  0  0  0  0
    6.3667   -4.2542    0.0000 C   0  0  0  0  0  0  0  0  0  0  0  0
    0.5458   -4.9333    0.0000 C   0  0  0  0  0  0  0  0  0  0  0  0
    6.7292   -3.6542    0.0000 C   0  0  0  0  0  0  0  0  0  0  0  0
    0.9042   -4.3458    0.0000 C   0  0  0  0  0  0  0  0  0  0  0  0
   -1.3458   -5.8792    0.0000 C   0  0  0  0  0  0  0  0  0  0  0  0
    7.4208   -4.8708    0.0000 C   0  0  0  0  0  0  0  0  0  0  0  0
    7.7792   -4.2792    0.0000 C   0  0  0  0  0  0  0  0  0  0  0  0
   10.3625   -4.5417    0.0000 C   0  0  0  0  0  0  0  0  0  0  0  0
    1.9542   -4.9583    0.0000 C   0  0  0  0  0  0  0  0  0  0  0  0
    4.5250   -6.4708    0.0000 S   0  0  0  0  0  0  0  0  0  0  0  0
   10.3500   -5.7792    0.0000 S   0  0  0  0  0  0  0  0  0  0  0  0
   -1.3542   -7.1000    0.0000 S   0  0  0  0  0  0  0  0  0  0  0  0
    4.8917   -4.6417    0.0000 C   0  0  0  0  0  0  0  0  0  0  0  0
   -0.9917   -5.2750    0.0000 C   0  0  0  0  0  0  0  0  0  0  0  0
    2.7708   -5.8542    0.0000 S   0  0  0  0  0  0  0  0  0  0  0  0
    7.4083   -6.0917    0.0000 S   0  0  0  0  0  0  0  0  0  0  0  0
    3.4875   -4.6208    0.0000 C   0  0  0  0  0  0  0  0  0  0  0  0
    7.4333   -3.6542    0.0000 O   0  0  0  0  0  0  0  0  0  0  0  0
    1.6000   -4.3458    0.0000 O   0  0  0  0  0  0  0  0  0  0  0  0
   -3.4333   -3.4250    0.0000 S   0  0  0  0  0  0  0  0  0  0  0  0
    8.2750   -2.1042    0.0000 S   0  0  0  0  0  0  0  0  0  0  0  0
    2.4417   -2.7833    0.0000 S   0  0  0  0  0  0  0  0  0  0  0  0
    9.3167   -3.9417    0.0000 C   0  0  0  0  0  0  0  0  0  0  0  0
    6.7167   -4.8708    0.0000 C   0  0  0  0  0  0  0  0  0  0  0  0
    1.5917   -5.5667    0.0000 C   0  0  0  0  0  0  0  0  0  0  0  0
    0.8917   -5.5542    0.0000 C   0  0  0  0  0  0  0  0  0  0  0  0
    9.6583   -4.5542    0.0000 C   0  0  0  0  0  0  0  0  0  0  0  0
   -2.0458   -5.8792    0.0000 C   0  0  0  0  0  0  0  0  0  0  0  0
   -0.1583   -4.9458    0.0000 O   0  0  0  0  0  0  0  0  0  0  0  0
    5.6000   -4.2708    0.0000 O   0  0  0  0  0  0  0  0  0  0  0  0
    4.5417   -4.0167    0.0000 O   0  0  0  0  0  0  0  0  0  0  0  0
   -1.3333   -4.6542    0.0000 O   0  0  0  0  0  0  0  0  0  0  0  0
    3.8417   -4.0167    0.0000 C   0  0  0  0  0  0  0  0  0  0  0  0
    2.6583   -4.6167    0.0000 O   0  0  0  0  0  0  0  0  0  0  0  0
    9.6750   -3.3375    0.0000 C   0  0  0  0  0  0  0  0  0  0  0  0
    8.4792   -3.9292    0.0000 O   0  0  0  0  0  0  0  0  0  0  0  0
   10.7292   -3.9542    0.0000 C   0  0  0  0  0  0  0  0  0  0  0  0
   10.3750   -3.3375    0.0000 O   0  0  0  0  0  0  0  0  0  0  0  0
   -2.0333   -4.6542    0.0000 C   0  0  0  0  0  0  0  0  0  0  0  0
   -2.4000   -5.2625    0.0000 C   0  0  0  0  0  0  0  0  0  0  0  0
    4.8792   -5.8542    0.0000 N   0  0  0  0  0  0  0  0  0  0  0  0
   -1.0042   -6.4958    0.0000 N   0  0  0  0  0  0  0  0  0  0  0  0
   10.7167   -5.1667    0.0000 N   0  0  0  0  0  0  0  0  0  0  0  0
    3.4750   -5.8417    0.0000 O   0  0  0  0  0  0  0  0  0  0  0  0
    7.7667   -5.4792    0.0000 O   0  0  0  0  0  0  0  0  0  0  0  0
    0.5583   -3.7292    0.0000 C   0  0  0  0  0  0  0  0  0  0  0  0
    6.3792   -3.0375    0.0000 C   0  0  0  0  0  0  0  0  0  0  0  0
    3.5000   -3.4042    0.0000 C   0  0  0  0  0  0  0  0  0  0  0  0
    9.3292   -2.7208    0.0000 C   0  0  0  0  0  0  0  0  0  0  0  0
   -2.3875   -4.0417    0.0000 C   0  0  0  0  0  0  0  0  0  0  0  0
    2.7917   -3.3917    0.0000 O   0  0  0  0  0  0  0  0  0  0  0  0
    8.6167   -2.7208    0.0000 O   0  0  0  0  0  0  0  0  0  0  0  0
   -3.0917   -4.0542    0.0000 O   0  0  0  0  0  0  0  0  0  0  0  0
    4.8708   -7.0708    0.0000 O   0  0  0  0  0  0  0  0  0  0  0  0
   -1.0042   -7.7042    0.0000 O   0  0  0  0  0  0  0  0  0  0  0  0
   10.7042   -6.3917    0.0000 O   0  0  0  0  0  0  0  0  0  0  0  0
    7.7625   -6.7042    0.0000 O   0  0  0  0  0  0  0  0  0  0  0  0
    2.4167   -6.4542    0.0000 O   0  0  0  0  0  0  0  0  0  0  0  0
    7.5750   -2.1042    0.0000 O   0  0  0  0  0  0  0  0  0  0  0  0
   -4.1458   -3.4292    0.0000 O   0  0  0  0  0  0  0  0  0  0  0  0
    1.7375   -2.7958    0.0000 O   0  0  0  0  0  0  0  0  0  0  0  0
    4.0250   -5.9667    0.0000 O   0  0  0  0  0  0  0  0  0  0  0  0
   -1.9708   -7.4500    0.0000 O   0  0  0  0  0  0  0  0  0  0  0  0
   -1.9708   -6.7542    0.0000 O   0  0  0  0  0  0  0  0  0  0  0  0
    9.8500   -5.2750    0.0000 O   0  0  0  0  0  0  0  0  0  0  0  0
    9.8500   -6.2750    0.0000 O   0  0  0  0  0  0  0  0  0  0  0  0
    4.0250   -6.9583    0.0000 O   0  0  0  0  0  0  0  0  0  0  0  0
    6.8000   -6.4458    0.0000 O   0  0  0  0  0  0  0  0  0  0  0  0
    6.9167   -5.5917    0.0000 O   0  0  0  0  0  0  0  0  0  0  0  0
    2.7708   -5.1375    0.0000 O   0  0  0  0  0  0  0  0  0  0  0  0
    2.0917   -5.6542    0.0000 O   0  0  0  0  0  0  0  0  0  0  0  0
   -3.2667   -2.7458    0.0000 O   0  0  0  0  0  0  0  0  0  0  0  0
    3.1208   -2.6083    0.0000 O   0  0  0  0  0  0  0  0  0  0  0  0
    8.9542   -1.9167    0.0000 O   0  0  0  0  0  0  0  0  0  0  0  0
    8.4542   -1.4167    0.0000 O   0  0  0  0  0  0  0  0  0  0  0  0
    2.6292   -2.1042    0.0000 O   0  0  0  0  0  0  0  0  0  0  0  0
   -2.7625   -3.2500    0.0000 O   0  0  0  0  0  0  0  0  0  0  0  0
    5.6750   -3.0500    0.0000 O   0  0  0  0  0  0  0  0  0  0  0  0
   -0.1500   -3.7167    0.0000 O   0  0  0  0  0  0  0  0  0  0  0  0
    0.9083   -3.1167    0.0000 O   0  0  0  0  0  0  0  0  0  0  0  0
    6.7375   -2.4292    0.0000 O   0  0  0  0  0  0  0  0  0  0  0  0
    1.9417   -6.1792    0.0000 O   0  0  0  0  0  0  0  0  0  0  0  0
    6.3542   -5.4750    0.0000 O   0  0  0  0  0  0  0  0  0  0  0  0
    0.5333   -6.1667    0.0000 O   0  0  0  0  0  0  0  0  0  0  0  0
    9.3042   -5.1625    0.0000 O   0  0  0  0  0  0  0  0  0  0  0  0
   -2.4083   -6.4917    0.0000 O   0  0  0  0  0  0  0  0  0  0  0  0
   -3.1042   -5.2792    0.0000 O   0  0  0  0  0  0  0  0  0  0  0  0
   11.4292   -3.9542    0.0000 O   0  0  0  0  0  0  0  0  0  0  0  0
   11.7708   -4.5667    0.0000 C   0  0  0  0  0  0  0  0  0  0  0  0
  2  1  1  0
  3 32  1  6
  4 28  1  0
  5  3  1  0
  6 21  1  0
  7 16  1  0
  8 26  1  0
  9  8  1  0
 10 29  1  0
 11 36  1  1
 12 43  1  0
 13 45  1  0
 14 44  1  0
 15  2  1  0
 16 31  1  6
 17 46  1  0
 18 47  1  0
 19  1  1  0
 20  5  1  0
 21 11  1  0
 22 55  1  0
 23 54  1  0
 24 53  1  0
 25 38  1  6
 26  3  1  0
 27 11  1  0
 28 27  1  0
 29 25  1  0
 30  7  1  0
  4 31  1  6
 15 32  1  6
 33 35  1  0
 34 16  1  0
 35 19  1  0
 19 36  1  6
 37 25  1  0
  9 38  1  1
 39 40  1  0
 40 37  1  0
 41 34  1  0
 42 41  1  0
  2 43  1  6
  7 44  1  6
 10 45  1  6
  1 46  1  1
  8 47  1  6
  6 48  1  1
  5 49  1  6
 35 50  1  1
 37 51  1  1
 41 52  1  1
 53 50  1  0
 54 51  1  0
 55 52  1  0
 56 12  1  0
 57 14  1  0
 58 13  1  0
 59 18  1  0
 60 17  1  0
 61 23  1  0
 62 22  1  0
 63 24  1  0
 64 12  2  0
 65 14  2  0
 66 14  2  0
 67 13  2  0
 68 13  2  0
 69 12  2  0
 70 18  2  0
 71 18  2  0
 72 17  2  0
 73 17  2  0
 74 22  2  0
 75 24  2  0
 76 23  2  0
 77 23  2  0
 78 24  2  0
 79 22  2  0
 80 49  1  0
 81 48  1  0
 82 48  2  0
 83 49  2  0
 27 84  1  6
 26 85  1  1
 28 86  1  1
 29 87  1  1
 30 88  1  1
 42 89  1  6
 39 90  1  6
 91 90  1  0
 15 33  1  0
  6  4  1  0
  9 20  1  0
 42 30  1  0
 10 39  1  0
M  END
> <chembl_id>
CHEMBL1201202

> <chembl_pref_name>
FONDAPARINUX
