
     RDKit          2D

 91 96  0  0  1  0  0  0  0  0999 V2000
   12.5333   -4.6209    0.0000 C   0  0  0  0  0  0  0  0  0  0  0  0
   13.2416   -4.6209    0.0000 C   0  0  0  0  0  0  0  0  0  0  0  0
   13.4609   -3.9492    0.0000 C   0  0  0  0  0  0  0  0  0  0  0  0
   12.8875   -3.5292    0.0000 C   0  0  0  0  0  0  0  0  0  0  0  0
   12.3141   -3.9492    0.0000 N   0  0  0  0  0  0  0  0  0  0  0  0
   10.4697   -3.5952    0.0000 N   0  0  0  0  0  0  0  0  0  0  0  0
   11.0817   -3.9494    0.0000 C   0  0  0  0  0  0  0  0  0  0  0  0
   11.6979   -3.5952    0.0000 C   0  0  0  0  0  0  0  0  0  0  0  0
   11.6979   -2.8869    0.0000 O   0  0  0  0  0  0  0  0  0  0  0  0
   11.0817   -4.6577    0.0000 C   0  0  0  0  0  0  0  0  0  0  0  0
   11.6979   -5.0119    0.0000 C   0  0  0  0  0  0  0  0  0  0  0  0
   11.6979   -5.7202    0.0000 C   0  0  0  0  0  0  0  0  0  0  0  0
   12.3099   -6.0744    0.0000 N   0  0  0  0  0  0  0  0  0  0  0  0
   12.3099   -6.7827    0.0000 C   0  0  0  0  0  0  0  0  0  0  0  0
   12.9220   -7.1369    0.0000 N   0  0  0  0  0  0  0  0  0  0  0  0
   11.6979   -7.1369    0.0000 N   0  0  0  0  0  0  0  0  0  0  0  0
    8.6284   -3.9500    0.0000 N   0  0  0  0  0  0  0  0  0  0  0  0
    9.2404   -3.5958    0.0000 C   0  0  0  0  0  0  0  0  0  0  0  0
    9.8566   -3.9500    0.0000 C   0  0  0  0  0  0  0  0  0  0  0  0
    9.8566   -4.6583    0.0000 O   0  0  0  0  0  0  0  0  0  0  0  0
    9.2404   -2.8875    0.0000 C   0  0  0  0  0  0  0  0  0  0  0  0
    9.8566   -2.5333    0.0000 C   0  0  0  0  0  0  0  0  0  0  0  0
    9.8566   -1.8250    0.0000 C   0  0  0  0  0  0  0  0  0  0  0  0
   10.4686   -2.8875    0.0000 C   0  0  0  0  0  0  0  0  0  0  0  0
    6.7871   -3.5952    0.0000 N   0  0  0  0  0  0  0  0  0  0  0  0
    7.3991   -3.9494    0.0000 C   0  0  0  0  0  0  0  0  0  0  0  0
    8.0153   -3.5952    0.0000 C   0  0  0  0  0  0  0  0  0  0  0  0
    8.0153   -2.8869    0.0000 O   0  0  0  0  0  0  0  0  0  0  0  0
    4.9458   -3.9500    0.0000 N   0  0  0  0  0  0  0  0  0  0  0  0
    5.5579   -3.5958    0.0000 C   0  0  0  0  0  0  0  0  0  0  0  0
    6.1740   -3.9500    0.0000 C   0  0  0  0  0  0  0  0  0  0  0  0
    6.1740   -4.6583    0.0000 O   0  0  0  0  0  0  0  0  0  0  0  0
    5.5579   -2.8875    0.0000 C   0  0  0  0  0  0  0  0  0  0  0  0
    6.1740   -1.8250    0.0000 C   0  0  0  0  0  0  0  0  0  0  0  0
    6.7861   -1.4708    0.0000 C   0  0  0  0  0  0  0  0  0  0  0  0
    7.3981   -1.8250    0.0000 C   0  0  0  0  0  0  0  0  0  0  0  0
    7.3981   -2.5333    0.0000 C   0  0  0  0  0  0  0  0  0  0  0  0
    6.7861   -2.8875    0.0000 C   0  0  0  0  0  0  0  0  0  0  0  0
    6.1740   -2.5333    0.0000 C   0  0  0  0  0  0  0  0  0  0  0  0
    8.0143   -1.4708    0.0000 O   0  0  0  0  0  0  0  0  0  0  0  0
    3.1083   -3.5958    0.0000 N   0  0  0  0  0  0  0  0  0  0  0  0
    3.7204   -3.9500    0.0000 C   0  0  0  0  0  0  0  0  0  0  0  0
    4.3365   -3.5958    0.0000 C   0  0  0  0  0  0  0  0  0  0  0  0
    4.3365   -2.8875    0.0000 O   0  0  0  0  0  0  0  0  0  0  0  0
    3.7204   -4.6583    0.0000 C   0  0  0  0  0  0  0  0  0  0  0  0
    4.3365   -5.0125    0.0000 O   0  0  0  0  0  0  0  0  0  0  0  0
    1.2705   -3.9506    0.0000 N   0  0  0  0  0  0  0  0  0  0  0  0
    1.8825   -3.5964    0.0000 C   0  0  0  0  0  0  0  0  0  0  0  0
    2.4987   -3.9506    0.0000 C   0  0  0  0  0  0  0  0  0  0  0  0
    2.4987   -4.6589    0.0000 O   0  0  0  0  0  0  0  0  0  0  0  0
    1.8825   -2.8881    0.0000 C   0  0  0  0  0  0  0  0  0  0  0  0
    2.4986   -2.5346    0.0000 C   0  0  0  0  0  0  0  0  0  0  0  0
    3.0650   -2.9610    0.0000 C   0  0  0  0  0  0  0  0  0  0  0  0
    3.6442   -2.5524    0.0000 N   0  0  0  0  0  0  0  0  0  0  0  0
    2.7290   -1.8651    0.0000 C   0  0  0  0  0  0  0  0  0  0  0  0
    2.3829   -1.2433    0.0000 C   0  0  0  0  0  0  0  0  0  0  0  0
    2.7473   -0.6381    0.0000 C   0  0  0  0  0  0  0  0  0  0  0  0
    3.4588   -0.6505    0.0000 C   0  0  0  0  0  0  0  0  0  0  0  0
    3.8008   -1.2713    0.0000 C   0  0  0  0  0  0  0  0  0  0  0  0
    3.4364   -1.8766    0.0000 C   0  0  0  0  0  0  0  0  0  0  0  0
   -0.5708   -3.5958    0.0000 N   0  0  0  0  0  0  0  0  0  0  0  0
    0.0412   -3.9500    0.0000 C   0  0  0  0  0  0  0  0  0  0  0  0
    0.6574   -3.5958    0.0000 C   0  0  0  0  0  0  0  0  0  0  0  0
    0.6574   -2.8875    0.0000 O   0  0  0  0  0  0  0  0  0  0  0  0
    0.0412   -4.6583    0.0000 C   0  0  0  0  0  0  0  0  0  0  0  0
    0.6573   -5.0117    0.0000 C   0  0  0  0  0  0  0  0  0  0  0  0
    1.2193   -4.5796    0.0000 C   0  0  0  0  0  0  0  0  0  0  0  0
    1.8026   -4.9825    0.0000 N   0  0  0  0  0  0  0  0  0  0  0  0
    1.6016   -5.6604    0.0000 C   0  0  0  0  0  0  0  0  0  0  0  0
    0.8943   -5.6790    0.0000 N   0  0  0  0  0  0  0  0  0  0  0  0
   -2.3670   -4.0202    0.0000 N   0  0  0  0  0  0  0  0  0  0  0  0
   -1.7937   -3.6030    0.0000 C   0  0  0  0  0  0  0  0  0  0  0  0
   -2.0133   -2.9297    0.0000 C   0  0  0  0  0  0  0  0  0  0  0  0
   -2.7208   -2.9298    0.0000 C   0  0  0  0  0  0  0  0  0  0  0  0
   -2.9395   -3.6022    0.0000 C   0  0  0  0  0  0  0  0  0  0  0  0
   -1.1791   -3.9519    0.0000 C   0  0  0  0  0  0  0  0  0  0  0  0
   -1.1726   -4.6602    0.0000 O   0  0  0  0  0  0  0  0  0  0  0  0
   -3.5583   -3.9500    0.0000 O   0  0  0  0  0  0  0  0  0  0  0  0
    7.3991   -4.6577    0.0000 C   0  0  0  0  0  0  0  0  0  0  0  0
    8.0153   -5.0119    0.0000 O   0  0  0  0  0  0  0  0  0  0  0  0
    8.0167   -5.7202    0.0000 C   0  0  0  0  0  0  0  0  0  0  0  0
    8.6308   -6.0732    0.0000 C   0  0  0  0  0  0  0  0  0  0  0  0
    7.6583   -6.3292    0.0000 C   0  0  0  0  0  0  0  0  0  0  0  0
    7.3083   -5.7167    0.0000 C   0  0  0  0  0  0  0  0  0  0  0  0
   12.8874   -2.8208    0.0000 C   0  0  0  0  0  0  0  0  0  0  0  0
   13.5009   -2.4666    0.0000 N   0  0  0  0  0  0  0  0  0  0  0  0
   12.2740   -2.4667    0.0000 O   0  0  0  0  0  0  0  0  0  0  0  0
   14.1143   -2.8208    0.0000 N   0  0  0  0  0  0  0  0  0  0  0  0
   14.7277   -2.4666    0.0000 C   0  0  0  0  0  0  0  0  0  0  0  0
   15.3412   -2.8207    0.0000 N   0  0  0  0  0  0  0  0  0  0  0  0
   14.7277   -1.7583    0.0000 O   0  0  0  0  0  0  0  0  0  0  0  0
 11 12  1  0
 26 25  1  1
 26 27  1  0
 27 28  2  0
 48 47  1  1
 48 49  1  0
 49 50  2  0
 48 51  1  0
 52 53  2  0
 53 54  1  0
 55 52  1  0
 51 52  1  0
 60 54  1  0
 12 13  1  0
 13 14  1  0
 14 15  1  0
 14 16  2  0
  5  1  1  0
  1  2  1  0
 55 60  2  0
 55 56  1  0
 56 57  2  0
 57 58  1  0
 58 59  2  0
 59 60  1  0
  2  3  1  0
  3  4  1  0
  4  5  1  0
  7  6  1  6
  7  8  1  0
 30 29  1  1
 30 31  1  0
 31 32  2  0
 30 33  1  0
 62 61  1  6
 62 63  1  0
 63 64  2  0
 62 65  1  0
 66 67  2  0
 67 68  1  0
 68 69  2  0
 69 70  1  0
 70 66  1  0
 65 66  1  0
 33 39  1  0
 39 34  1  0
 34 35  2  0
 35 36  1  0
 36 37  2  0
 37 38  1  0
 38 39  2  0
 71 72  1  0
 72 73  1  0
 73 74  1  0
 74 75  1  0
 75 71  1  0
 72 76  1  1
 76 77  2  0
 36 40  1  0
 18 17  1  1
 75 78  2  0
 76 61  1  0
 63 47  1  0
 49 41  1  0
 43 29  1  0
 31 25  1  0
 18 19  1  0
 26 79  1  0
 19 20  2  0
 79 80  1  0
 18 21  1  0
 80 81  1  0
 21 22  1  0
 81 82  1  0
 22 23  1  0
 81 83  1  0
 42 41  1  6
 81 84  1  0
 27 17  1  0
 19  6  1  0
  8  5  1  0
 42 43  1  0
  4 85  1  6
 43 44  2  0
 85 86  1  0
 42 45  1  0
 85 87  2  0
 45 46  1  0
 22 24  1  0
 86 88  1  0
  8  9  2  0
 88 89  1  0
  7 10  1  0
 89 90  1  0
 10 11  1  0
 89 91  2  0
M  END
> <chembl_id>
CHEMBL1201247

> <chembl_pref_name>
GOSERELIN
