
     RDKit          2D

 80 82  0  0  0  0  0  0  0  0999 V2000
    0.9292  -14.4292    0.0000 C   0  0  0  0  0  0  0  0  0  0  0  0
   -1.3333  -13.3292    0.0000 C   0  0  0  0  0  0  0  0  0  0  0  0
   -2.5583  -13.3375    0.0000 C   0  0  0  0  0  0  0  0  0  0  0  0
   -3.1708  -11.5750    0.0000 C   0  0  0  0  0  0  0  0  0  0  0  0
   -1.9458  -13.6875    0.0000 C   0  0  0  0  0  0  0  0  0  0  0  0
    0.5792  -15.0417    0.0000 C   0  0  0  0  0  0  0  0  0  0  0  0
   -0.7208  -12.2792    0.0000 C   0  0  0  0  0  0  0  0  0  0  0  0
   -1.3333  -12.6292    0.0000 C   0  0  0  0  0  0  0  0  0  0  0  0
   -2.5583  -10.5250    0.0000 C   0  0  0  0  0  0  0  0  0  0  0  0
   -2.5583  -12.6292    0.0000 O   0  0  0  0  0  0  0  0  0  0  0  0
   -2.5583  -11.2292    0.0000 C   0  0  0  0  0  0  0  0  0  0  0  0
   -1.9458  -10.1667    0.0000 C   0  0  0  0  0  0  0  0  0  0  0  0
    0.9250  -13.4875    0.0000 O   0  0  0  0  0  0  0  0  0  0  0  0
   -2.7208  -16.4167    0.0000 C   0  0  0  0  0  0  0  0  0  0  0  0
   -0.1333  -15.0417    0.0000 C   0  0  0  0  0  0  0  0  0  0  0  0
   -0.7208  -11.5750    0.0000 C   0  0  0  0  0  0  0  0  0  0  0  0
   -1.6625  -15.8042    0.0000 C   0  0  0  0  0  0  0  0  0  0  0  0
   -2.0125  -16.4167    0.0000 C   0  0  0  0  0  0  0  0  0  0  0  0
    0.5792  -13.8167    0.0000 O   0  0  0  0  0  0  0  0  0  0  0  0
   -2.0125  -15.1917    0.0000 O   0  0  0  0  0  0  0  0  0  0  0  0
   -3.1708  -12.2792    0.0000 C   0  0  0  0  0  0  0  0  0  0  0  0
   -3.0792  -15.8042    0.0000 C   0  0  0  0  0  0  0  0  0  0  0  0
   -0.7208  -13.6833    0.0000 O   0  0  0  0  0  0  0  0  0  0  0  0
   -2.7208  -15.1917    0.0000 C   0  0  0  0  0  0  0  0  0  0  0  0
   -1.3333  -10.5167    0.0000 C   0  0  0  0  0  0  0  0  0  0  0  0
   -1.3333  -11.2250    0.0000 C   0  0  0  0  0  0  0  0  0  0  0  0
   -0.4875  -14.4292    0.0000 C   0  0  0  0  0  0  0  0  0  0  0  0
   -0.4833  -15.6542    0.0000 N   0  0  0  0  0  0  0  0  0  0  0  0
   -3.1708  -13.6917    0.0000 O   0  0  0  0  0  0  0  0  0  0  0  0
   -0.1333  -13.8167    0.0000 C   0  0  0  0  0  0  0  0  0  0  0  0
   -1.9500   -9.4625    0.0000 O   0  0  0  0  0  0  0  0  0  0  0  0
   -3.5250  -10.9542    0.0000 O   0  0  0  0  0  0  0  0  0  0  0  0
    0.9292  -15.6542    0.0000 O   0  0  0  0  0  0  0  0  0  0  0  0
   -0.3708  -10.9542    0.0000 O   0  0  0  0  0  0  0  0  0  0  0  0
   -1.9458  -11.5833    0.0000 O   0  0  0  0  0  0  0  0  0  0  0  0
   -3.3375  -16.7667    0.0000 O   0  0  0  0  0  0  0  0  0  0  0  0
   -3.7875  -15.8042    0.0000 O   0  0  0  0  0  0  0  0  0  0  0  0
   -3.8750  -11.5750    0.0000 C   0  0  0  0  0  0  0  0  0  0  0  0
   -1.9417  -14.3917    0.0000 C   0  0  0  0  0  0  0  0  0  0  0  0
   -1.9500  -12.2708    0.0000 C   0  0  0  0  0  0  0  0  0  0  0  0
   -3.1708  -10.1708    0.0000 C   0  0  0  0  0  0  0  0  0  0  0  0
   -2.7250  -17.1250    0.0000 C   0  0  0  0  0  0  0  0  0  0  0  0
   -0.0125  -11.5750    0.0000 C   0  0  0  0  0  0  0  0  0  0  0  0
   -3.7833  -12.6375    0.0000 C   0  0  0  0  0  0  0  0  0  0  0  0
   -3.0750  -14.5750    0.0000 C   0  0  0  0  0  0  0  0  0  0  0  0
   -0.7208  -10.1625    0.0000 C   0  0  0  0  0  0  0  0  0  0  0  0
   -0.1292  -16.2667    0.0000 C   0  0  0  0  0  0  0  0  0  0  0  0
   -1.1917  -15.6542    0.0000 C   0  0  0  0  0  0  0  0  0  0  0  0
   -0.4833  -13.2000    0.0000 C   0  0  0  0  0  0  0  0  0  0  0  0
   -3.9500  -16.4042    0.0000 C   0  0  0  0  0  0  0  0  0  0  0  0
   -4.3958  -12.2833    0.0000 C   0  0  0  0  0  0  0  0  0  0  0  0
    1.5417  -14.7792    0.0000 H   0  0  0  0  0  0  0  0  0  0  0  0
   -0.0125  -12.2792    0.0000 H   0  0  0  0  0  0  0  0  0  0  0  0
   -1.0500  -16.1542    0.0000 H   0  0  0  0  0  0  0  0  0  0  0  0
    4.9000  -14.0708    0.0000 C   0  0  0  0  0  0  0  0  0  0  0  0
    4.5500  -14.6792    0.0000 C   0  0  0  0  0  0  0  0  0  0  0  0
    3.8417  -14.6792    0.0000 C   0  0  0  0  0  0  0  0  0  0  0  0
    6.1292  -14.0583    0.0000 C   0  0  0  0  0  0  0  0  0  0  0  0
    4.5500  -13.4583    0.0000 O   0  0  0  0  0  0  0  0  0  0  0  0
    6.7375  -13.6958    0.0000 C   0  0  0  0  0  0  0  0  0  0  0  0
    7.3542  -14.0458    0.0000 C   0  0  0  0  0  0  0  0  0  0  0  0
    5.5125  -13.7125    0.0000 O   0  0  0  0  0  0  0  0  0  0  0  0
    3.4833  -14.0708    0.0000 C   0  0  0  0  0  0  0  0  0  0  0  0
    3.8417  -13.4583    0.0000 C   0  0  0  0  0  0  0  0  0  0  0  0
    7.9625  -13.6833    0.0000 C   0  0  0  0  0  0  0  0  0  0  0  0
    6.1333  -14.7667    0.0000 C   0  0  0  0  0  0  0  0  0  0  0  0
    7.9583  -12.9750    0.0000 O   0  0  0  0  0  0  0  0  0  0  0  0
    4.9042  -15.2958    0.0000 O   0  0  0  0  0  0  0  0  0  0  0  0
    3.4875  -15.2958    0.0000 O   0  0  0  0  0  0  0  0  0  0  0  0
    7.3625  -14.7542    0.0000 O   0  0  0  0  0  0  0  0  0  0  0  0
    6.7292  -12.9875    0.0000 O   0  0  0  0  0  0  0  0  0  0  0  0
    2.7750  -14.0708    0.0000 O   0  0  0  0  0  0  0  0  0  0  0  0
    8.5792  -14.0333    0.0000 O   0  0  0  0  0  0  0  0  0  0  0  0
    5.5250  -15.1250    0.0000 O   0  0  0  0  0  0  0  0  0  0  0  0
    3.4875  -12.8417    0.0000 C   0  0  0  0  0  0  0  0  0  0  0  0
    2.7792  -12.8417    0.0000 O   0  0  0  0  0  0  0  0  0  0  0  0
    6.7583  -15.8208    0.0000 O   0  0  0  0  0  0  0  0  0  0  0  0
    6.7500  -15.1125    0.0000 C   0  0  0  0  0  0  0  0  0  0  0  0
    6.7417  -14.4125    0.0000 H   0  0  0  0  0  0  0  0  0  0  0  0
    5.5125  -14.4250    0.0000 H   0  0  0  0  0  0  0  0  0  0  0  0
  2  8  1  0
  3  5  1  0
  4 21  1  0
  5  2  1  0
  6  1  1  0
  7 13  1  0
  8  7  1  0
  9 12  1  0
 10  3  1  0
 11  9  1  0
 12 25  1  0
 13  1  1  0
 14 18  1  0
 15  6  1  0
 16  7  1  0
 17 23  1  0
 18 17  1  0
 19  1  1  0
 20 17  1  0
 21 10  1  0
 22 24  1  0
  2 23  1  6
 24 20  1  0
 25 26  1  0
 26 16  1  0
 27 30  1  0
 15 28  1  1
 29  3  2  0
 30 19  1  0
 31 12  2  0
  4 32  1  1
  6 33  1  6
 16 34  1  1
 11 35  1  1
 14 36  1  1
 22 37  1  1
 38  4  1  0
  5 39  1  1
  8 40  1  6
  9 41  1  1
 42 14  1  0
 43 16  1  0
 21 44  1  6
 24 45  1  6
 25 46  1  6
 47 28  1  0
 48 28  1  0
 30 49  1  1
 50 36  1  0
 51 44  1  0
  1 52  1  6
  7 53  1  1
 17 54  1  6
 27 15  1  0
  4 11  1  0
 22 14  1  0
 56 55  1  0
 57 56  1  0
 58 62  1  0
 59 55  1  0
 60 58  1  0
 61 60  1  0
 62 55  1  0
 63 64  1  0
 64 59  1  0
 65 61  1  0
 66 58  1  0
 67 65  2  0
 56 68  1  6
 57 69  1  1
 61 70  1  6
 60 71  1  6
 63 72  1  1
 73 65  1  0
 66 74  1  1
 64 75  1  1
 76 75  1  0
 77 78  1  0
 78 66  1  0
 58 79  1  6
 55 80  1  6
 63 57  1  0
M  END
> <chembl_id>
CHEMBL1200506

> <chembl_pref_name>
ERYTHROMYCIN LACTOBIONATE
