
     RDKit          2D

 22 22  0  0  0  0  0  0  0  0999 V2000
    6.7042   -8.1250    0.0000 Cl  0  0  0  0  0  0  0  0  0  0  0  0
    5.9792   -7.3417    0.0000 N   0  0  0  0  0  0  0  0  0  0  0  0
    5.9667   -6.6292    0.0000 C   0  0  0  0  0  0  0  0  0  0  0  0
    5.3542   -7.6917    0.0000 C   0  0  0  0  0  0  0  0  0  0  0  0
    4.7667   -7.3417    0.0000 C   0  0  0  0  0  0  0  0  0  0  0  0
    4.1542   -7.7042    0.0000 O   0  0  0  0  0  0  0  0  0  0  0  0
    6.5875   -6.2875    0.0000 C   0  0  0  0  0  0  0  0  0  0  0  0
    3.5292   -7.3417    0.0000 C   0  0  0  0  0  0  0  0  0  0  0  0
    7.8250   -7.6917    0.0000 Cl  0  0  0  0  0  0  0  0  0  0  0  0
    6.5875   -7.6917    0.0000 C   0  0  0  0  0  0  0  0  0  0  0  0
    7.2125   -7.3417    0.0000 C   0  0  0  0  0  0  0  0  0  0  0  0
    5.3667   -8.4042    0.0000 C   0  0  0  0  0  0  0  0  0  0  0  0
    6.5875   -5.5750    0.0000 C   0  0  0  0  0  0  0  0  0  0  0  0
    7.2042   -6.6292    0.0000 C   0  0  0  0  0  0  0  0  0  0  0  0
    2.9125   -7.7125    0.0000 C   0  0  0  0  0  0  0  0  0  0  0  0
    3.5292   -6.6542    0.0000 C   0  0  0  0  0  0  0  0  0  0  0  0
    2.2917   -7.3542    0.0000 C   0  0  0  0  0  0  0  0  0  0  0  0
    7.2042   -5.2250    0.0000 C   0  0  0  0  0  0  0  0  0  0  0  0
    7.8250   -6.2792    0.0000 C   0  0  0  0  0  0  0  0  0  0  0  0
    2.9042   -6.2917    0.0000 C   0  0  0  0  0  0  0  0  0  0  0  0
    2.2917   -6.6542    0.0000 C   0  0  0  0  0  0  0  0  0  0  0  0
    7.8292   -5.5750    0.0000 C   0  0  0  0  0  0  0  0  0  0  0  0
  3  2  1  0
  4  2  1  0
  5  4  1  0
  6  5  1  0
  7  3  1  0
  8  6  1  0
  9 11  1  0
 10  2  1  0
 11 10  1  0
 12  4  1  0
 13  7  1  0
 14  7  2  0
 15  8  1  0
 16  8  2  0
 17 15  2  0
 18 13  2  0
 19 14  1  0
 20 16  1  0
 21 17  1  0
 22 18  1  0
 22 19  2  0
 21 20  2  0
M  END
> <chembl_id>
CHEMBL1200787

> <chembl_pref_name>
PHENOXYBENZAMINE HYDROCHLORIDE
