
     RDKit          2D

 13 12  0  0  0  0  0  0  0  0999 V2000
   -2.5333   -0.6792    0.0000 N   0  0  0  0  0  0  0  0  0  0  0  0
   -1.6500   -0.1792    0.0000 C   0  0  0  0  0  0  0  0  0  0  0  0
   -3.3833   -0.2000    0.0000 C   0  0  0  0  0  0  0  0  0  0  0  0
   -1.6500    0.8083    0.0000 N   0  0  0  0  0  0  0  0  0  0  0  0
   -3.3833    0.7833    0.0000 N   0  0  0  0  0  0  0  0  0  0  0  0
   -0.7833   -0.6542    0.0000 N   0  0  0  0  0  0  0  0  0  0  0  0
   -4.2208   -0.7375    0.0000 N   0  0  0  0  0  0  0  0  0  0  0  0
    0.0750   -0.1792    0.0000 C   0  0  0  0  0  0  0  0  0  0  0  0
    0.9167   -0.6542    0.0000 C   0  0  0  0  0  0  0  0  0  0  0  0
    3.4917   -0.1542    0.0000 C   0  0  0  0  0  0  0  0  0  0  0  0
    2.6417   -0.6375    0.0000 C   0  0  0  0  0  0  0  0  0  0  0  0
    1.7917   -0.1542    0.0000 C   0  0  0  0  0  0  0  0  0  0  0  0
    4.3417   -0.6375    0.0000 C   0  0  0  0  0  0  0  0  0  0  0  0
  2  1  1  0
  3  1  1  0
  4  2  2  0
  5  3  2  0
  6  2  1  0
  7  3  1  0
  8  6  1  0
  9  8  1  0
 10 11  1  0
 11 12  1  0
 12  9  1  0
 13 10  1  0
M  END
> <chembl_id>
CHEMBL2106939

> <chembl_pref_name>
POLIHEXANIDE
