
     RDKit          2D

 39 42  0  0  0  0  0  0  0  0999 V2000
   -2.8958   -1.3000    0.0000 C   0  0  0  0  0  0  0  0  0  0  0  0
   -2.8958   -0.5917    0.0000 O   0  0  0  0  0  0  0  0  0  0  0  0
   -2.2833   -1.6542    0.0000 O   0  0  0  0  0  0  0  0  0  0  0  0
   -3.5083   -1.6542    0.0000 C   0  0  0  0  0  0  0  0  0  0  0  0
    0.9917   -1.8167    0.0000 N   0  0  0  0  0  0  0  0  0  0  0  0
    1.4167   -2.3917    0.0000 C   0  0  0  0  0  0  0  0  0  0  0  0
    0.9917   -2.9667    0.0000 C   0  0  0  0  0  0  0  0  0  0  0  0
    0.3167   -2.7500    0.0000 C   0  0  0  0  0  0  0  0  0  0  0  0
    0.3167   -2.0375    0.0000 C   0  0  0  0  0  0  0  0  0  0  0  0
    1.2167   -1.1375    0.0000 C   0  0  0  0  0  0  0  0  0  0  0  0
    2.1292   -2.3917    0.0000 C   0  0  0  0  0  0  0  0  0  0  0  0
   -0.2958   -1.6792    0.0000 C   0  0  0  0  0  0  0  0  0  0  0  0
   -0.2958   -3.1042    0.0000 C   0  0  0  0  0  0  0  0  0  0  0  0
   -2.5458    1.2375    0.0000 N   0  0  0  0  0  0  0  0  0  0  0  0
    2.4792   -1.7750    0.0000 C   0  0  0  0  0  0  0  0  0  0  0  0
    2.4792   -3.0042    0.0000 C   0  0  0  0  0  0  0  0  0  0  0  0
    0.7417   -0.6125    0.0000 C   0  0  0  0  0  0  0  0  0  0  0  0
   -0.9125   -2.7500    0.0000 C   0  0  0  0  0  0  0  0  0  0  0  0
    1.2167   -3.6417    0.0000 C   0  0  0  0  0  0  0  0  0  0  0  0
   -0.9125   -2.0375    0.0000 C   0  0  0  0  0  0  0  0  0  0  0  0
    3.5500   -2.3917    0.0000 C   0  0  0  0  0  0  0  0  0  0  0  0
   -0.2125    0.4458    0.0000 C   0  0  0  0  0  0  0  0  0  0  0  0
    3.1917   -3.0042    0.0000 C   0  0  0  0  0  0  0  0  0  0  0  0
    3.1917   -1.7750    0.0000 C   0  0  0  0  0  0  0  0  0  0  0  0
    0.0417   -0.7542    0.0000 C   0  0  0  0  0  0  0  0  0  0  0  0
    0.9625    0.0708    0.0000 C   0  0  0  0  0  0  0  0  0  0  0  0
    0.4792    0.5958    0.0000 C   0  0  0  0  0  0  0  0  0  0  0  0
   -0.4333   -0.2292    0.0000 C   0  0  0  0  0  0  0  0  0  0  0  0
   -0.6958    0.9833    0.0000 O   0  0  0  0  0  0  0  0  0  0  0  0
   -1.8583    1.3750    0.0000 C   0  0  0  0  0  0  0  0  0  0  0  0
   -1.5333   -3.1042    0.0000 O   0  0  0  0  0  0  0  0  0  0  0  0
    4.2625   -2.3917    0.0000 O   0  0  0  0  0  0  0  0  0  0  0  0
   -1.3875    0.8458    0.0000 C   0  0  0  0  0  0  0  0  0  0  0  0
   -2.9875    1.8000    0.0000 C   0  0  0  0  0  0  0  0  0  0  0  0
   -2.7250    0.5375    0.0000 C   0  0  0  0  0  0  0  0  0  0  0  0
   -3.3833    0.2583    0.0000 C   0  0  0  0  0  0  0  0  0  0  0  0
   -3.6958    1.8250    0.0000 C   0  0  0  0  0  0  0  0  0  0  0  0
   -4.1583    1.2833    0.0000 C   0  0  0  0  0  0  0  0  0  0  0  0
   -4.0208    0.5833    0.0000 C   0  0  0  0  0  0  0  0  0  0  0  0
  2  1  2  0
  3  1  1  0
  4  1  1  0
  6  5  1  0
  7  6  2  0
  8  9  2  0
  9  5  1  0
 10  5  1  0
 11  6  1  0
 12  9  1  0
 13  8  1  0
 14 30  1  0
 15 11  1  0
 16 11  2  0
 17 10  1  0
 18 20  1  0
 19  7  1  0
 20 12  2  0
 21 23  2  0
 22 28  2  0
 23 16  1  0
 24 15  2  0
 25 17  2  0
 26 17  1  0
 27 26  2  0
 28 25  1  0
 29 22  1  0
 30 33  1  0
 31 18  1  0
 32 21  1  0
 33 29  1  0
 34 14  1  0
 35 14  1  0
 36 35  1  0
 37 34  1  0
 38 37  1  0
 39 36  1  0
  7  8  1  0
 24 21  1  0
 27 22  1  0
 13 18  2  0
 39 38  1  0
M  END
> <chembl_id>
CHEMBL2106615

> <chembl_pref_name>
BAZEDOXIFENE ACETATE
