
     RDKit          2D

 26 29  0  0  1  0  0  0  0  0999 V2000
    3.3208   -8.2792    0.0000 C   0  0  0  0  0  0  0  0  0  0  0  0
    3.3167   -8.9875    0.0000 C   0  0  0  0  0  0  0  0  0  0  0  0
    2.6958   -9.3417    0.0000 C   0  0  0  0  0  0  0  0  0  0  0  0
    2.0833   -8.9833    0.0000 C   0  0  0  0  0  0  0  0  0  0  0  0
    1.4708   -9.3417    0.0000 C   0  0  0  0  0  0  0  0  0  0  0  0
    1.4708  -10.0542    0.0000 C   0  0  0  0  0  0  0  0  0  0  0  0
    2.7042   -7.9208    0.0000 C   0  0  0  0  0  0  0  0  0  0  0  0
    2.0833   -8.2708    0.0000 C   0  0  0  0  0  0  0  0  0  0  0  0
    2.7000  -10.0542    0.0000 C   0  0  0  0  0  0  0  0  0  0  0  0
    3.9875   -9.2125    0.0000 C   0  0  0  0  0  0  0  0  0  0  0  0
    0.8583   -8.9875    0.0000 C   0  0  0  0  0  0  0  0  0  0  0  0
    3.9958   -8.0667    0.0000 C   0  0  0  0  0  0  0  0  0  0  0  0
   -0.9833  -10.0542    0.0000 C   0  0  0  0  0  0  0  0  0  0  0  0
    0.8583  -10.4083    0.0000 C   0  0  0  0  0  0  0  0  0  0  0  0
    2.0833  -10.4083    0.0000 C   0  0  0  0  0  0  0  0  0  0  0  0
    0.2458  -10.0542    0.0000 C   0  0  0  0  0  0  0  0  0  0  0  0
   -0.3667  -10.4083    0.0000 O   0  0  0  0  0  0  0  0  0  0  0  0
    4.4083   -8.6417    0.0000 C   0  0  0  0  0  0  0  0  0  0  0  0
   -0.9792   -9.3458    0.0000 O   0  0  0  0  0  0  0  0  0  0  0  0
    0.2458   -9.3417    0.0000 C   0  0  0  0  0  0  0  0  0  0  0  0
    3.3167   -7.5667    0.0000 C   0  0  0  0  0  0  0  0  0  0  0  0
    4.2167   -7.3917    0.0000 O   0  0  0  0  0  0  0  0  0  0  0  0
   -1.5958  -10.4083    0.0000 C   0  0  0  0  0  0  0  0  0  0  0  0
    2.6917   -8.6292    0.0000 H   0  0  0  0  0  0  0  0  0  0  0  0
    3.3125   -9.6917    0.0000 H   0  0  0  0  0  0  0  0  0  0  0  0
    2.0792   -9.6917    0.0000 H   0  0  0  0  0  0  0  0  0  0  0  0
  2  1  1  0
  3  2  1  0
  4  3  1  0
  5  4  1  0
  6  5  1  0
  7  1  1  0
  8  7  1  0
  9  3  1  0
 10  2  1  0
 11  5  2  0
 12  1  1  0
 13 17  1  0
 14  6  2  0
 15  9  1  0
 16 14  1  0
 17 16  1  0
 18 12  1  0
 19 13  2  0
 20 11  1  0
  1 21  1  1
 12 22  1  1
 23 13  1  0
  3 24  1  1
  2 25  1  6
  4 26  1  6
 18 10  1  0
  8  4  1  0
 15  6  1  0
 16 20  2  0
M  END
> <chembl_id>
CHEMBL1200430

> <chembl_pref_name>
ESTRADIOL ACETATE
