
     RDKit          2D

 15 15  0  0  1  0  0  0  0  0999 V2000
   -0.3216    0.3806    0.0000 C   0  0  0  0  0  0  0  0  0  0  0  0
   -1.0288    0.7931    0.0000 C   0  0  0  0  0  0  0  0  0  0  0  0
   -1.7433    0.3806    0.0000 C   0  0  0  0  0  0  0  0  0  0  0  0
    1.1074   -0.4459    0.0000 C   0  0  0  0  0  0  0  0  0  0  0  0
   -1.7433   -0.4444    0.0000 C   0  0  0  0  0  0  0  0  0  0  0  0
   -0.3216   -0.4444    0.0000 C   0  0  0  0  0  0  0  0  0  0  0  0
   -1.0288   -0.8569    0.0000 C   0  0  0  0  0  0  0  0  0  0  0  0
    0.3978    0.7931    0.0000 C   0  0  0  0  0  0  0  0  0  0  0  0
    1.1099    0.3791    0.0000 C   0  0  0  0  0  0  0  0  0  0  0  0
   -1.0288    1.6181    0.0000 F   0  0  0  0  0  0  0  0  0  0  0  0
    1.7836   -0.9186    0.0000 O   0  0  0  0  0  0  0  0  0  0  0  0
    1.8256    0.7895    0.0000 N   0  0  0  0  0  0  0  0  0  0  0  0
    0.3918   -0.8563    0.0000 O   0  0  0  0  0  0  0  0  0  0  0  0
   -2.4529   -0.8569    0.0000 O   0  0  0  0  0  0  0  0  0  0  0  0
   -1.0288   -1.6819    0.0000 O   0  0  0  0  0  0  0  0  0  0  0  0
  2  1  2  0
  3  2  1  0
  4  9  1  0
  5  7  1  0
  6  1  1  0
  7  6  2  0
  8  1  1  0
  9  8  1  0
 10  2  1  0
 11  4  2  0
  9 12  1  6
 13  4  1  0
 14  5  1  0
 15  7  1  0
  3  5  2  0
M  END
> <chembl_id>
CHEMBL3547132

> <chembl_pref_name>
FLUORODOPA
