
     RDKit          2D

 16  9  0  0  0  0  0  0  0  0999 V2000
   -3.0208    1.6000    0.0000 O   0  0  0  0  0  0  0  0  0  0  0  0
    0.1792   -1.2167    0.0000 C   0  0  0  0  0  0  0  0  0  0  0  0
    1.3125   -0.3250    0.0000 C   0  0  0  0  0  0  0  0  0  0  0  0
   -1.1333   -0.6875    0.0000 C   0  0  0  0  0  0  0  0  0  0  0  0
    2.6542   -0.8542    0.0000 C   0  0  0  0  0  0  0  0  0  0  0  0
   -2.2708   -1.5750    0.0000 O   0  0  0  0  0  0  0  0  0  0  0  0
    2.8542   -2.2792    0.0000 O   0  0  0  0  0  0  0  0  0  0  0  0
    3.7792    0.0208    0.0000 O   0  0  0  0  0  0  0  0  0  0  0  0
   -1.3458    0.7208    0.0000 O   0  0  0  0  0  0  0  0  0  0  0  0
    0.3875   -2.6375    0.0000 O   0  0  0  0  0  0  0  0  0  0  0  0
    1.1042    1.0833    0.0000 O   0  0  0  0  0  0  0  0  0  0  0  0
   -3.7083   -2.6375    0.0000 Na  0  0  0  0  0 15  0  0  0  0  0  0
    0.7542    2.5208    0.0000 K   0  0  0  0  0 15  0  0  0  0  0  0
   -2.4708    2.4583    0.0000 O   0  0  0  0  0  0  0  0  0  0  0  0
   -1.8000    3.0708    0.0000 O   0  0  0  0  0  0  0  0  0  0  0  0
   -3.1500    0.4458    0.0000 O   0  0  0  0  0  0  0  0  0  0  0  0
  3  2  1  0
  4  2  1  0
  5  3  1  0
  6  4  1  0
  7  5  1  0
  8  5  2  0
  9  4  2  0
  2 10  1  1
  3 11  1  1
M  CHG  4   6  -1   7  -1  12   1  13   1
M  END
> <chembl_id>
CHEMBL2107168

> <chembl_pref_name>
POTASSIUM SODIUM TARTRATE
