
     RDKit          2D

 29 31  0  0  1  0  0  0  0  0999 V2000
    1.4500   -6.7375    0.0000 N   0  0  0  0  0  0  0  0  0  0  0  0
    0.7417   -6.7375    0.0000 C   0  0  0  0  0  0  0  0  0  0  0  0
    1.4500   -6.0292    0.0000 C   0  0  0  0  0  0  0  0  0  0  0  0
    0.7417   -6.0292    0.0000 C   0  0  0  0  0  0  0  0  0  0  0  0
    2.0542   -7.0875    0.0000 C   0  0  0  0  0  0  0  0  0  0  0  0
    2.0625   -5.6792    0.0000 S   0  0  0  0  0  0  0  0  0  0  0  0
    2.6667   -6.7417    0.0000 C   0  0  0  0  0  0  0  0  0  0  0  0
    0.1250   -5.6750    0.0000 N   0  0  0  0  0  0  0  0  0  0  0  0
    2.0500   -7.7958    0.0000 C   0  0  0  0  0  0  0  0  0  0  0  0
    2.6708   -6.0375    0.0000 C   0  0  0  0  0  0  0  0  0  0  0  0
   -0.4917   -6.0292    0.0000 C   0  0  0  0  0  0  0  0  0  0  0  0
    0.2458   -7.2417    0.0000 O   0  0  0  0  0  0  0  0  0  0  0  0
    3.2750   -7.1000    0.0000 C   0  0  0  0  0  0  0  0  0  0  0  0
    4.5042   -7.1083    0.0000 C   0  0  0  0  0  0  0  0  0  0  0  0
    2.6583   -8.1542    0.0000 O   0  0  0  0  0  0  0  0  0  0  0  0
    1.4333   -8.1458    0.0000 O   0  0  0  0  0  0  0  0  0  0  0  0
   -3.5542   -4.9667    0.0000 N   0  0  0  0  0  0  0  0  0  0  0  0
    3.8917   -6.7500    0.0000 O   0  0  0  0  0  0  0  0  0  0  0  0
   -1.7167   -6.0292    0.0000 S   0  0  0  0  0  0  0  0  0  0  0  0
   -0.4917   -6.7375    0.0000 O   0  0  0  0  0  0  0  0  0  0  0  0
    4.5000   -7.8167    0.0000 O   0  0  0  0  0  0  0  0  0  0  0  0
   -1.1042   -5.6750    0.0000 C   0  0  0  0  0  0  0  0  0  0  0  0
   -2.3292   -5.6750    0.0000 C   0  0  0  0  0  0  0  0  0  0  0  0
   -2.3292   -4.9625    0.0000 C   0  0  0  0  0  0  0  0  0  0  0  0
   -2.9375   -6.0292    0.0000 C   0  0  0  0  0  0  0  0  0  0  0  0
   -3.5542   -5.6750    0.0000 C   0  0  0  0  0  0  0  0  0  0  0  0
   -2.9417   -4.6083    0.0000 C   0  0  0  0  0  0  0  0  0  0  0  0
    5.1208   -6.7583    0.0000 C   0  0  0  0  0  0  0  0  0  0  0  0
    1.4417   -5.3167    0.0000 H   0  0  0  0  0  0  0  0  0  0  0  0
  2  1  1  0
  3  1  1  0
  4  2  1  0
  5  1  1  0
  6  3  1  0
  7  5  2  0
  4  8  1  1
  9  5  1  0
 10  7  1  0
 11  8  1  0
 12  2  2  0
 13  7  1  0
 14 18  1  0
 15  9  1  0
 16  9  2  0
 17 26  1  0
 18 13  1  0
 19 22  1  0
 20 11  2  0
 21 14  2  0
 22 11  1  0
 23 19  1  0
 24 23  2  0
 25 23  1  0
 26 25  2  0
 27 24  1  0
 28 14  1  0
  3 29  1  6
  4  3  1  0
  6 10  1  0
 17 27  2  0
M  END
> <chembl_id>
CHEMBL1599

> <chembl_pref_name>
CEPHAPIRIN
