
     RDKit          2D

 24 23  0  0  0  0  0  0  0  0999 V2000
   -1.1786   -1.8268    0.0000 O   0  0  0  0  0  0  0  0  0  0  0  0
    3.2252   -0.2812    0.0000 Br  0  0  0  0  0  0  0  0  0  0  0  0
    1.9990    0.8229    0.0000 O   0  0  0  0  0  0  0  0  0  0  0  0
    0.0867   -1.3009    0.0000 O   0  0  0  0  0  0  0  0  0  0  0  0
    0.6013    1.1200    0.0000 O   0  0  0  0  0  0  0  0  0  0  0  0
   -0.3548    0.0581    0.0000 N   0  0  0  0  0  0  0  0  0  0  0  0
   -2.4200    0.8401    0.0000 N   0  0  0  0  0  0  0  0  0  0  0  0
    1.0429   -0.2390    0.0000 C   0  0  0  0  0  0  0  0  0  0  0  0
    1.8275    0.0159    0.0000 C   0  0  0  0  0  0  0  0  0  0  0  0
    0.8714   -1.0460    0.0000 C   0  0  0  0  0  0  0  0  0  0  0  0
    0.4298    0.3130    0.0000 C   0  0  0  0  0  0  0  0  0  0  0  0
    2.4406   -0.5361    0.0000 C   0  0  0  0  0  0  0  0  0  0  0  0
    1.4845   -1.5980    0.0000 C   0  0  0  0  0  0  0  0  0  0  0  0
    2.2691   -1.3431    0.0000 C   0  0  0  0  0  0  0  0  0  0  0  0
   -1.7525    0.3552    0.0000 C   0  0  0  0  0  0  0  0  0  0  0  0
   -0.9679    0.6101    0.0000 C   0  0  0  0  0  0  0  0  0  0  0  0
   -2.0075   -0.4294    0.0000 C   0  0  0  0  0  0  0  0  0  0  0  0
   -3.0874    0.3552    0.0000 C   0  0  0  0  0  0  0  0  0  0  0  0
   -2.8325   -0.4294    0.0000 C   0  0  0  0  0  0  0  0  0  0  0  0
   -2.4200    1.6651    0.0000 C   0  0  0  0  0  0  0  0  0  0  0  0
    2.7837    1.0778    0.0000 C   0  0  0  0  0  0  0  0  0  0  0  0
   -0.0848   -2.1079    0.0000 C   0  0  0  0  0  0  0  0  0  0  0  0
   -3.1344    2.0776    0.0000 C   0  0  0  0  0  0  0  0  0  0  0  0
   -2.4319   -1.3259    0.0000 Cl  0  0  0  0  0  0  0  0  0  0  0  0
  2 12  1  0
  3  9  1  0
  3 21  1  0
  4 10  1  0
  4 22  1  0
  5 11  2  0
  6 11  1  0
  6 16  1  0
  7 15  1  0
  7 18  1  0
  7 20  1  0
  8  9  1  0
  8 10  2  0
  8 11  1  0
  9 12  2  0
 10 13  1  0
 12 14  1  0
 13 14  2  0
 15 16  1  6
 15 17  1  0
 17 19  1  0
 18 19  1  0
 20 23  1  0
M  END
> <chembl_id>
CHEMBL3989556

> <chembl_pref_name>
REMOXIPRIDE HYDROCHLORIDE
