
     RDKit          2D

 24 26  0  0  1  0  0  0  0  0999 V2000
    5.6375   -5.2792    0.0000 N   0  0  0  0  0  0  0  0  0  0  0  0
    5.6375   -4.5750    0.0000 C   0  0  0  0  0  0  0  0  0  0  0  0
    4.9167   -5.2792    0.0000 C   0  0  0  0  0  0  0  0  0  0  0  0
    4.9167   -4.5750    0.0000 C   0  0  0  0  0  0  0  0  0  0  0  0
    6.3167   -5.5042    0.0000 C   0  0  0  0  0  0  0  0  0  0  0  0
    6.3167   -4.3542    0.0000 S   0  0  0  0  0  0  0  0  0  0  0  0
    6.7375   -4.9125    0.0000 C   0  0  0  0  0  0  0  0  0  0  0  0
    4.3042   -4.2167    0.0000 N   0  0  0  0  0  0  0  0  0  0  0  0
    3.6917   -4.5750    0.0000 C   0  0  0  0  0  0  0  0  0  0  0  0
    6.3292   -6.2042    0.0000 C   0  0  0  0  0  0  0  0  0  0  0  0
    3.0750   -4.2167    0.0000 C   0  0  0  0  0  0  0  0  0  0  0  0
    4.4292   -5.7917    0.0000 O   0  0  0  0  0  0  0  0  0  0  0  0
    3.6917   -5.2792    0.0000 O   0  0  0  0  0  0  0  0  0  0  0  0
    5.7292   -6.5750    0.0000 O   0  0  0  0  0  0  0  0  0  0  0  0
    3.0875   -4.9375    0.0000 N   0  0  0  0  0  0  0  0  0  0  0  0
    6.9542   -6.5500    0.0000 O   0  0  0  0  0  0  0  0  0  0  0  0
    7.3500   -5.2792    0.0000 C   0  0  0  0  0  0  0  0  0  0  0  0
    7.3125   -4.4917    0.0000 C   0  0  0  0  0  0  0  0  0  0  0  0
    3.4125   -3.5917    0.0000 C   0  0  0  0  0  0  0  0  0  0  0  0
    2.3667   -4.2292    0.0000 C   0  0  0  0  0  0  0  0  0  0  0  0
    1.9917   -3.6250    0.0000 C   0  0  0  0  0  0  0  0  0  0  0  0
    3.0417   -2.9875    0.0000 C   0  0  0  0  0  0  0  0  0  0  0  0
    2.3375   -3.0042    0.0000 C   0  0  0  0  0  0  0  0  0  0  0  0
    5.6417   -3.8667    0.0000 H   0  0  0  0  0  0  0  0  0  0  0  0
  2  1  1  0
  3  1  1  0
  4  3  1  0
  5  1  1  0
  6  2  1  0
  7  5  1  0
  4  8  1  1
  9  8  1  0
  5 10  1  6
 11  9  1  0
 12  3  2  0
 13  9  2  0
 14 10  2  0
 15 11  1  0
 16 10  1  0
 17  7  1  0
 18  7  1  0
 19 11  1  0
 20 11  1  0
 21 20  1  0
 22 19  1  0
 23 21  1  0
  2 24  1  6
  7  6  1  0
  4  2  1  0
 23 22  1  0
M  END
> <chembl_id>
CHEMBL1200356

> <chembl_pref_name>
CYCLACILLIN
