
     RDKit          2D

 24 23  0  0  0  0  0  0  0  0999 V2000
    2.7421    0.1407    0.0000 C   0  0  0  0  0  0  0  0  0  0  0  0
    3.4992   -1.0774    0.0000 N   0  0  0  0  0  0  0  0  0  0  0  0
    2.0432   -0.2961    0.0000 C   0  0  0  0  0  0  0  0  0  0  0  0
    3.4701   -0.2524    0.0000 C   0  0  0  0  0  0  0  0  0  0  0  0
    1.3298    0.1019    0.0000 C   0  0  0  0  0  0  0  0  0  0  0  0
    2.0432   -1.1211    0.0000 C   0  0  0  0  0  0  0  0  0  0  0  0
    4.1786    0.1893    0.0000 C   0  0  0  0  0  0  0  0  0  0  0  0
    0.6164   -0.3252    0.0000 C   0  0  0  0  0  0  0  0  0  0  0  0
    1.3444   -1.5482    0.0000 C   0  0  0  0  0  0  0  0  0  0  0  0
    0.6018   -1.1551    0.0000 C   0  0  0  0  0  0  0  0  0  0  0  0
    1.8491   -3.3778    0.0000 C   0  0  0  0  0  0  0  0  0  0  0  0
    2.5528   -3.7904    0.0000 C   0  0  0  0  0  0  0  0  0  0  0  0
    1.1356   -3.7904    0.0000 C   0  0  0  0  0  0  0  0  0  0  0  0
    3.2759   -3.3778    0.0000 C   0  0  0  0  0  0  0  0  0  0  0  0
    0.4222   -3.3778    0.0000 C   0  0  0  0  0  0  0  0  0  0  0  0
    3.9893   -3.7904    0.0000 C   0  0  0  0  0  0  0  0  0  0  0  0
    3.9893   -4.6154    0.0000 O   0  0  0  0  0  0  0  0  0  0  0  0
    0.4222   -2.5528    0.0000 O   0  0  0  0  0  0  0  0  0  0  0  0
    1.1356   -4.6154    0.0000 O   0  0  0  0  0  0  0  0  0  0  0  0
    3.2759   -2.5528    0.0000 O   0  0  0  0  0  0  0  0  0  0  0  0
    2.5528   -4.6154    0.0000 O   0  0  0  0  0  0  0  0  0  0  0  0
    1.8491   -2.5528    0.0000 O   0  0  0  0  0  0  0  0  0  0  0  0
   -0.2912   -3.7904    0.0000 O   0  0  0  0  0  0  0  0  0  0  0  0
    4.7027   -3.3778    0.0000 O   0  0  0  0  0  0  0  0  0  0  0  0
  4  2  1  6
  3  1  1  0
  4  1  1  0
  5  3  2  0
  6  3  1  0
  7  4  1  0
  8  5  1  0
  9  6  2  0
 10  9  1  0
 10  8  2  0
 12 11  1  0
 13 11  1  0
 14 12  1  0
 15 13  1  0
 16 14  1  0
 17 16  2  0
 18 15  2  0
 13 19  1  6
 14 20  1  1
 12 21  1  1
 11 22  1  1
 23 15  1  0
 24 16  1  0
M  END
> <chembl_id>
CHEMBL3989844

> <chembl_pref_name>
DEXTROAMPHETAMINE SACCHARATE
