
     RDKit          2D

 34 36  0  0  0  0  0  0  0  0999 V2000
    8.8625   -4.4042    0.0000 Na  0  0  0  0  0 15  0  0  0  0  0  0
    5.7250   -4.8292    0.0000 N   0  0  0  0  0  0  0  0  0  0  0  0
    5.7250   -5.5500    0.0000 C   0  0  0  0  0  0  0  0  0  0  0  0
    5.0167   -4.8292    0.0000 C   0  0  0  0  0  0  0  0  0  0  0  0
    5.0167   -5.5500    0.0000 C   0  0  0  0  0  0  0  0  0  0  0  0
    6.4125   -4.6167    0.0000 C   0  0  0  0  0  0  0  0  0  0  0  0
    6.4125   -5.7542    0.0000 S   0  0  0  0  0  0  0  0  0  0  0  0
    6.8167   -5.2000    0.0000 C   0  0  0  0  0  0  0  0  0  0  0  0
    3.8125   -5.8417    0.0000 C   0  0  0  0  0  0  0  0  0  0  0  0
    4.3292   -5.3542    0.0000 N   0  0  0  0  0  0  0  0  0  0  0  0
    2.9792   -4.9542    0.0000 C   0  0  0  0  0  0  0  0  0  0  0  0
    3.1250   -5.6417    0.0000 C   0  0  0  0  0  0  0  0  0  0  0  0
    6.9917   -4.2042    0.0000 C   0  0  0  0  0  0  0  0  0  0  0  0
    3.4917   -4.4750    0.0000 O   0  0  0  0  0  0  0  0  0  0  0  0
    4.5042   -4.3292    0.0000 O   0  0  0  0  0  0  0  0  0  0  0  0
    3.9792   -6.5417    0.0000 O   0  0  0  0  0  0  0  0  0  0  0  0
    2.2917   -4.7667    0.0000 O   0  0  0  0  0  0  0  0  0  0  0  0
    7.6500   -4.4917    0.0000 O   0  0  0  0  0  0  0  0  0  0  0  0
    2.6292   -6.1292    0.0000 C   0  0  0  0  0  0  0  0  0  0  0  0
    6.9250   -3.4792    0.0000 O   0  0  0  0  0  0  0  0  0  0  0  0
    3.3042   -3.7875    0.0000 C   0  0  0  0  0  0  0  0  0  0  0  0
    7.4250   -4.8292    0.0000 C   0  0  0  0  0  0  0  0  0  0  0  0
    7.4042   -5.6125    0.0000 C   0  0  0  0  0  0  0  0  0  0  0  0
    1.9667   -5.9292    0.0000 C   0  0  0  0  0  0  0  0  0  0  0  0
    2.8042   -6.8167    0.0000 C   0  0  0  0  0  0  0  0  0  0  0  0
    2.6292   -3.5917    0.0000 C   0  0  0  0  0  0  0  0  0  0  0  0
    3.8292   -3.2917    0.0000 C   0  0  0  0  0  0  0  0  0  0  0  0
    1.4417   -6.4292    0.0000 C   0  0  0  0  0  0  0  0  0  0  0  0
    2.3125   -7.2917    0.0000 C   0  0  0  0  0  0  0  0  0  0  0  0
    2.4667   -2.9042    0.0000 C   0  0  0  0  0  0  0  0  0  0  0  0
    3.6542   -2.6125    0.0000 C   0  0  0  0  0  0  0  0  0  0  0  0
    2.9792   -2.4250    0.0000 C   0  0  0  0  0  0  0  0  0  0  0  0
    1.6167   -7.1167    0.0000 C   0  0  0  0  0  0  0  0  0  0  0  0
    5.5811   -6.5396    0.0000 H   0  0  0  0  0  0  0  0  0  0  0  0
  3  2  1  0
  4  2  1  0
  5  4  1  0
  6  2  1  0
  7  3  1  0
  8  6  1  0
  9 10  1  0
  5 10  1  6
 11 12  1  0
 12  9  1  0
  6 13  1  1
 14 11  1  0
 15  4  2  0
 16  9  2  0
 17 11  2  0
 18 13  1  0
 19 12  1  0
 20 13  2  0
 21 14  1  0
 22  8  1  0
 23  8  1  0
 24 19  1  0
 25 19  2  0
 26 21  1  0
 27 21  2  0
 28 24  2  0
 29 25  1  0
 30 26  2  0
 31 27  1  0
 32 30  1  0
 33 28  1  0
  7  8  1  0
  3  5  1  0
 29 33  2  0
 31 32  2  0
  3 34  1  1
M  CHG  2   1   1  18  -1
M  END
> <chembl_id>
CHEMBL2105996

> <chembl_pref_name>
CARBENICILLIN PHENYL SODIUM
