
     RDKit          2D

 22 24  0  0  0  0  0  0  0  0999 V2000
    0.1667   -0.3917    0.0000 N   0  0  0  0  0  0  0  0  0  0  0  0
   -1.0833   -0.6792    0.0000 C   0  0  0  0  0  0  0  0  0  0  0  0
   -1.0958    2.2083    0.0000 N   0  0  0  0  0  0  0  0  0  0  0  0
   -2.0833    0.1000    0.0000 C   0  0  0  0  0  0  0  0  0  0  0  0
   -2.0833    1.3958    0.0000 C   0  0  0  0  0  0  0  0  0  0  0  0
    0.7042    0.7625    0.0000 C   0  0  0  0  0  0  0  0  0  0  0  0
    0.1542    1.8958    0.0000 C   0  0  0  0  0  0  0  0  0  0  0  0
    0.9875   -1.4042    0.0000 C   0  0  0  0  0  0  0  0  0  0  0  0
   -1.3708   -1.9292    0.0000 O   0  0  0  0  0  0  0  0  0  0  0  0
    2.2542   -1.1917    0.0000 C   0  0  0  0  0  0  0  0  0  0  0  0
   -1.4000    3.4625    0.0000 C   0  0  0  0  0  0  0  0  0  0  0  0
    3.0542   -2.2042    0.0000 N   0  0  0  0  0  0  0  0  0  0  0  0
   -3.2250   -0.5500    0.0000 C   0  0  0  0  0  0  0  0  0  0  0  0
   -3.2208    2.0583    0.0000 C   0  0  0  0  0  0  0  0  0  0  0  0
    2.0292    0.6583    0.0000 C   0  0  0  0  0  0  0  0  0  0  0  0
    0.8792    3.0083    0.0000 C   0  0  0  0  0  0  0  0  0  0  0  0
    4.3417   -2.0917    0.0000 C   0  0  0  0  0  0  0  0  0  0  0  0
    2.7417   -3.4542    0.0000 C   0  0  0  0  0  0  0  0  0  0  0  0
   -4.3458    0.1000    0.0000 C   0  0  0  0  0  0  0  0  0  0  0  0
    2.1917    2.9125    0.0000 C   0  0  0  0  0  0  0  0  0  0  0  0
   -4.3458    1.3958    0.0000 C   0  0  0  0  0  0  0  0  0  0  0  0
    2.7542    1.7375    0.0000 C   0  0  0  0  0  0  0  0  0  0  0  0
  2  1  1  0
  3  7  1  0
  4  2  1  0
  5  4  2  0
  6  1  1  0
  7  6  2  0
  8  1  1  0
  9  2  2  0
 10  8  1  0
 11  3  1  0
 12 10  1  0
 13  4  1  0
 14  5  1  0
 15  6  1  0
 16  7  1  0
 17 12  1  0
 18 12  1  0
 19 13  2  0
 20 22  1  0
 21 19  1  0
 22 15  2  0
  3  5  1  0
 16 20  2  0
 14 21  2  0
M  END
> <chembl_id>
CHEMBL1442422

> <chembl_pref_name>
DIBENZEPIN
