
     RDKit          2D

 36 39  0  0  1  0  0  0  0  0999 V2000
    1.8917   -5.5750    0.0000 C   0  0  0  0  0  0  0  0  0  0  0  0
    3.7542   -4.5250    0.0000 C   0  0  0  0  0  0  0  0  0  0  0  0
    2.5375   -5.2500    0.0000 C   0  0  0  0  0  0  0  0  0  0  0  0
    4.4125   -4.3125    0.0000 C   0  0  0  0  0  0  0  0  0  0  0  0
    1.8917   -6.2917    0.0000 C   0  0  0  0  0  0  0  0  0  0  0  0
    3.7542   -5.2375    0.0000 C   0  0  0  0  0  0  0  0  0  0  0  0
    3.1542   -5.5917    0.0000 C   0  0  0  0  0  0  0  0  0  0  0  0
    2.5375   -4.5167    0.0000 C   0  0  0  0  0  0  0  0  0  0  0  0
    1.2792   -5.2125    0.0000 C   0  0  0  0  0  0  0  0  0  0  0  0
    3.1542   -4.1792    0.0000 C   0  0  0  0  0  0  0  0  0  0  0  0
    4.8125   -4.8917    0.0000 C   0  0  0  0  0  0  0  0  0  0  0  0
    4.4250   -5.4500    0.0000 C   0  0  0  0  0  0  0  0  0  0  0  0
    4.4042   -3.6042    0.0000 C   0  0  0  0  0  0  0  0  0  0  0  0
    3.1542   -6.3167    0.0000 C   0  0  0  0  0  0  0  0  0  0  0  0
    2.5250   -6.6625    0.0000 C   0  0  0  0  0  0  0  0  0  0  0  0
    1.2667   -6.6417    0.0000 C   0  0  0  0  0  0  0  0  0  0  0  0
    5.0250   -3.9542    0.0000 O   0  0  0  0  0  0  0  0  0  0  0  0
    0.6375   -5.5750    0.0000 C   0  0  0  0  0  0  0  0  0  0  0  0
    0.6375   -6.2667    0.0000 C   0  0  0  0  0  0  0  0  0  0  0  0
    5.7292   -3.9542    0.0000 C   0  0  0  0  0  0  0  0  0  0  0  0
    5.0167   -3.2458    0.0000 S   0  0  0  0  0  0  0  0  0  0  0  0
    2.5250   -5.9542    0.0000 F   0  0  0  0  0  0  0  0  0  0  0  0
    3.7917   -3.2500    0.0000 O   0  0  0  0  0  0  0  0  0  0  0  0
    6.0875   -4.5667    0.0000 O   0  0  0  0  0  0  0  0  0  0  0  0
    0.0042   -6.5917    0.0000 O   0  0  0  0  0  0  0  0  0  0  0  0
    5.0125   -2.5375    0.0000 C   0  0  0  0  0  0  0  0  0  0  0  0
    1.8917   -4.8250    0.0000 C   0  0  0  0  0  0  0  0  0  0  0  0
    3.7542   -3.8167    0.0000 C   0  0  0  0  0  0  0  0  0  0  0  0
    1.9292   -4.1542    0.0000 O   0  0  0  0  0  0  0  0  0  0  0  0
    2.5250   -7.3792    0.0000 F   0  0  0  0  0  0  0  0  0  0  0  0
    5.6250   -2.1792    0.0000 F   0  0  0  0  0  0  0  0  0  0  0  0
    5.5167   -4.8917    0.0000 C   0  0  0  0  0  0  0  0  0  0  0  0
    6.0875   -3.3375    0.0000 C   0  0  0  0  0  0  0  0  0  0  0  0
    6.7917   -3.3375    0.0000 C   0  0  0  0  0  0  0  0  0  0  0  0
    3.1542   -4.8125    0.0000 H   0  0  0  0  0  0  0  0  0  0  0  0
    3.7542   -6.0042    0.0000 H   0  0  0  0  0  0  0  0  0  0  0  0
  2 10  1  0
  3  1  1  0
  4  2  1  0
  5  1  1  0
  6  7  1  0
  7  3  1  0
  8  3  1  0
  9  1  1  0
 10  8  1  0
 11 12  1  0
 12  6  1  0
 13  4  1  0
 14 15  1  0
 15  5  1  0
 16  5  2  0
  4 17  1  6
 18  9  2  0
 19 18  1  0
 20 17  1  0
 21 13  1  0
  3 22  1  6
 23 13  2  0
 24 20  2  0
 25 19  2  0
 26 21  1  0
  1 27  1  1
  2 28  1  1
  8 29  1  1
 15 30  1  6
 31 26  1  0
 11 32  1  6
 33 20  1  0
 34 33  1  0
  7 35  1  1
  6 36  1  6
 16 19  1  0
  7 14  1  0
  2  6  1  0
  4 11  1  0
M  END
> <chembl_id>
CHEMBL1473

> <chembl_pref_name>
FLUTICASONE PROPIONATE
