
     RDKit          2D

 23 26  0  0  0  0  0  0  0  0999 V2000
   -0.2458   -0.6792    0.0000 C   0  0  0  0  0  0  0  0  0  0  0  0
   -1.4208   -0.6792    0.0000 N   0  0  0  0  0  0  0  0  0  0  0  0
    0.5000   -1.5792    0.0000 C   0  0  0  0  0  0  0  0  0  0  0  0
   -0.7833   -3.2542    0.0000 S   0  0  0  0  0  0  0  0  0  0  0  0
    0.2417    0.3750    0.0000 N   0  0  0  0  0  0  0  0  0  0  0  0
    0.2542   -2.7292    0.0000 C   0  0  0  0  0  0  0  0  0  0  0  0
   -2.1333   -1.6000    0.0000 C   0  0  0  0  0  0  0  0  0  0  0  0
   -1.8458   -2.7500    0.0000 C   0  0  0  0  0  0  0  0  0  0  0  0
    1.2292    2.5208    0.0000 N   0  0  0  0  0  0  0  0  0  0  0  0
    1.6417   -1.2167    0.0000 C   0  0  0  0  0  0  0  0  0  0  0  0
   -0.4208    1.3208    0.0000 C   0  0  0  0  0  0  0  0  0  0  0  0
    1.4167    0.4958    0.0000 C   0  0  0  0  0  0  0  0  0  0  0  0
    1.1625   -3.5167    0.0000 C   0  0  0  0  0  0  0  0  0  0  0  0
    0.0542    2.4000    0.0000 C   0  0  0  0  0  0  0  0  0  0  0  0
    1.9042    1.5708    0.0000 C   0  0  0  0  0  0  0  0  0  0  0  0
    2.5250   -1.9917    0.0000 C   0  0  0  0  0  0  0  0  0  0  0  0
    2.2875   -3.1542    0.0000 C   0  0  0  0  0  0  0  0  0  0  0  0
    3.6500   -1.6375    0.0000 Cl  0  0  0  0  0  0  0  0  0  0  0  0
    1.7292    3.5958    0.0000 C   0  0  0  0  0  0  0  0  0  0  0  0
   -3.2833   -1.2792    0.0000 C   0  0  0  0  0  0  0  0  0  0  0  0
   -2.7208   -3.5875    0.0000 C   0  0  0  0  0  0  0  0  0  0  0  0
   -4.1333   -2.0917    0.0000 C   0  0  0  0  0  0  0  0  0  0  0  0
   -3.8500   -3.2375    0.0000 C   0  0  0  0  0  0  0  0  0  0  0  0
  2  1  2  0
  3  1  1  0
  4  6  1  0
  5  1  1  0
  6  3  2  0
  7  2  1  0
  8  7  2  0
  9 15  1  0
 10  3  1  0
 11  5  1  0
 12  5  1  0
 13  6  1  0
 14 11  1  0
 15 12  1  0
 16 10  2  0
 17 16  1  0
 18 16  1  0
 19  9  1  0
 20  7  1  0
 21  8  1  0
 22 20  2  0
 23 22  1  0
 14  9  1  0
  4  8  1  0
 13 17  2  0
 21 23  2  0
M  END
> <chembl_id>
CHEMBL304902

> <chembl_pref_name>
CLOTHIAPINE
