
     RDKit          2D

 77 76  0  0  0  0  0  0  0  0999 V2000
    3.6830  -14.1429    0.0000 O   0  0  0  0  0  0  0  0  0  0  0  0
    2.0649   -6.4263    0.0000 O   0  0  0  0  0  0  0  0  0  0  0  0
    1.6500   -7.1404    0.0000 C   0  0  0  0  0  0  0  0  0  0  0  0
    2.4750   -7.1404    0.0000 C   0  0  0  0  0  0  0  0  0  0  0  0
    4.6220   -5.9053    0.0000 C   0  0  0  0  0  0  0  0  0  0  0  0
    3.9079   -7.1404    0.0000 C   0  0  0  0  0  0  0  0  0  0  0  0
    0.9312   -7.5457    0.0000 C   0  0  0  0  0  0  0  0  0  0  0  0
    3.9079   -6.3250    0.0000 C   0  0  0  0  0  0  0  0  0  0  0  0
    5.3408   -6.3250    0.0000 C   0  0  0  0  0  0  0  0  0  0  0  0
    3.1987   -7.5457    0.0000 C   0  0  0  0  0  0  0  0  0  0  0  0
    5.3408   -7.1404    0.0000 O   0  0  0  0  0  0  0  0  0  0  0  0
    7.4829   -5.9053    0.0000 C   0  0  0  0  0  0  0  0  0  0  0  0
    6.7641   -6.3250    0.0000 C   0  0  0  0  0  0  0  0  0  0  0  0
    8.1921   -6.3250    0.0000 C   0  0  0  0  0  0  0  0  0  0  0  0
    4.6220   -7.5553    0.0000 C   0  0  0  0  0  0  0  0  0  0  0  0
    8.1921   -8.8000    0.0000 C   0  0  0  0  0  0  0  0  0  0  0  0
    6.0500   -5.9053    0.0000 C   0  0  0  0  0  0  0  0  0  0  0  0
    7.4829   -8.3803    0.0000 O   0  0  0  0  0  0  0  0  0  0  0  0
    8.1921   -7.1404    0.0000 O   0  0  0  0  0  0  0  0  0  0  0  0
    8.1921   -9.6154    0.0000 O   0  0  0  0  0  0  0  0  0  0  0  0
    0.2267   -7.1259    0.0000 C   0  0  0  0  0  0  0  0  0  0  0  0
    4.6220   -5.0803    0.0000 O   0  0  0  0  0  0  0  0  0  0  0  0
    3.1987   -5.9053    0.0000 O   0  0  0  0  0  0  0  0  0  0  0  0
    8.9013   -5.9053    0.0000 O   0  0  0  0  0  0  0  0  0  0  0  0
    0.2316   -6.3057    0.0000 O   0  0  0  0  0  0  0  0  0  0  0  0
    0.9263   -8.3658    0.0000 C   0  0  0  0  0  0  0  0  0  0  0  0
    6.7641   -7.1404    0.0000 C   0  0  0  0  0  0  0  0  0  0  0  0
    8.9013   -8.3803    0.0000 C   0  0  0  0  0  0  0  0  0  0  0  0
   -0.4872   -7.5312    0.0000 C   0  0  0  0  0  0  0  0  0  0  0  0
    9.6299   -6.3250    0.0000 C   0  0  0  0  0  0  0  0  0  0  0  0
    8.9013   -7.5553    0.0000 C   0  0  0  0  0  0  0  0  0  0  0  0
   10.3438   -5.9053    0.0000 C   0  0  0  0  0  0  0  0  0  0  0  0
   11.0579   -6.3250    0.0000 C   0  0  0  0  0  0  0  0  0  0  0  0
   11.0579   -7.1404    0.0000 C   0  0  0  0  0  0  0  0  0  0  0  0
   10.3438   -7.5553    0.0000 C   0  0  0  0  0  0  0  0  0  0  0  0
    9.6299   -7.1404    0.0000 C   0  0  0  0  0  0  0  0  0  0  0  0
    0.9312   -6.7303    0.0000 H   0  0  0  0  0  0  0  0  0  0  0  0
    3.8983   -7.9654    0.0000 H   0  0  0  0  0  0  0  0  0  0  0  0
    5.9825   -8.3658    0.0000 Ca  0  0  0  0  0 15  0  0  0  0  0  0
    2.6438  -11.3425    0.0000 O   0  0  0  0  0  0  0  0  0  0  0  0
    2.2289  -12.0566    0.0000 C   0  0  0  0  0  0  0  0  0  0  0  0
    3.0539  -12.0566    0.0000 C   0  0  0  0  0  0  0  0  0  0  0  0
    5.2009  -10.8215    0.0000 C   0  0  0  0  0  0  0  0  0  0  0  0
    4.4868  -12.0566    0.0000 C   0  0  0  0  0  0  0  0  0  0  0  0
    1.5101  -12.4618    0.0000 C   0  0  0  0  0  0  0  0  0  0  0  0
    4.4868  -11.2412    0.0000 C   0  0  0  0  0  0  0  0  0  0  0  0
    5.9197  -11.2412    0.0000 C   0  0  0  0  0  0  0  0  0  0  0  0
    3.7776  -12.4618    0.0000 C   0  0  0  0  0  0  0  0  0  0  0  0
    5.9197  -12.0566    0.0000 O   0  0  0  0  0  0  0  0  0  0  0  0
    8.0618  -10.8215    0.0000 C   0  0  0  0  0  0  0  0  0  0  0  0
    7.3430  -11.2412    0.0000 C   0  0  0  0  0  0  0  0  0  0  0  0
    8.7711  -11.2412    0.0000 C   0  0  0  0  0  0  0  0  0  0  0  0
    5.2009  -12.4715    0.0000 C   0  0  0  0  0  0  0  0  0  0  0  0
    8.7711  -13.7162    0.0000 C   0  0  0  0  0  0  0  0  0  0  0  0
    6.6289  -10.8215    0.0000 C   0  0  0  0  0  0  0  0  0  0  0  0
    8.0618  -13.2965    0.0000 O   0  0  0  0  0  0  0  0  0  0  0  0
    8.7711  -12.0566    0.0000 O   0  0  0  0  0  0  0  0  0  0  0  0
    8.7711  -14.5316    0.0000 O   0  0  0  0  0  0  0  0  0  0  0  0
    0.8057  -12.0421    0.0000 C   0  0  0  0  0  0  0  0  0  0  0  0
    5.2009   -9.9965    0.0000 O   0  0  0  0  0  0  0  0  0  0  0  0
    3.7776  -10.8215    0.0000 O   0  0  0  0  0  0  0  0  0  0  0  0
    9.4803  -10.8215    0.0000 O   0  0  0  0  0  0  0  0  0  0  0  0
    0.8105  -11.2220    0.0000 O   0  0  0  0  0  0  0  0  0  0  0  0
    1.5053  -13.2820    0.0000 C   0  0  0  0  0  0  0  0  0  0  0  0
    7.3430  -12.0566    0.0000 C   0  0  0  0  0  0  0  0  0  0  0  0
    9.4803  -13.2965    0.0000 C   0  0  0  0  0  0  0  0  0  0  0  0
    0.0917  -12.4474    0.0000 C   0  0  0  0  0  0  0  0  0  0  0  0
   10.2088  -11.2412    0.0000 C   0  0  0  0  0  0  0  0  0  0  0  0
    9.4803  -12.4715    0.0000 C   0  0  0  0  0  0  0  0  0  0  0  0
   10.9228  -10.8215    0.0000 C   0  0  0  0  0  0  0  0  0  0  0  0
   11.6368  -11.2412    0.0000 C   0  0  0  0  0  0  0  0  0  0  0  0
   11.6368  -12.0566    0.0000 C   0  0  0  0  0  0  0  0  0  0  0  0
   10.9228  -12.4715    0.0000 C   0  0  0  0  0  0  0  0  0  0  0  0
   10.2088  -12.0566    0.0000 C   0  0  0  0  0  0  0  0  0  0  0  0
    1.5101  -11.6465    0.0000 H   0  0  0  0  0  0  0  0  0  0  0  0
    4.4772  -12.8816    0.0000 H   0  0  0  0  0  0  0  0  0  0  0  0
    2.3866  -14.2313    0.0000 O   0  0  0  0  0  0  0  0  0  0  0  0
  6 38  1  1
  3  4  1  0
  5  9  1  0
  3  2  1  0
  4  2  1  0
  5  8  1  0
  6 10  1  0
  7  3  1  0
  8  6  1  0
  9 11  1  0
  4 10  1  1
 11 15  1  0
 12 13  2  0
 13 17  1  0
 14 12  1  0
 15  6  1  0
 16 28  1  0
  9 17  1  6
 18 16  1  0
 19 14  2  0
 20 16  2  0
 21  7  1  0
  5 22  1  1
  8 23  1  1
 24 14  1  0
 21 25  1  6
  7 26  1  1
 27 13  1  0
 28 31  1  0
 29 21  1  0
 30 24  1  0
 31 36  1  0
 32 30  1  0
 33 32  1  0
 34 33  1  0
 35 34  1  0
 36 35  1  0
  3 37  1  1
 41 40  1  0
 42 40  1  0
 43 46  1  0
 44 48  1  0
 45 41  1  0
 46 44  1  0
 47 49  1  0
 42 48  1  1
 49 53  1  0
 50 51  2  0
 51 55  1  0
 52 50  1  0
 53 44  1  0
 54 66  1  0
 47 55  1  6
 56 54  1  0
 57 52  2  0
 58 54  2  0
 59 45  1  0
 43 60  1  1
 46 61  1  1
 62 52  1  0
 59 63  1  6
 45 64  1  1
 65 51  1  0
 66 69  1  0
 67 59  1  0
 68 62  1  0
 69 74  1  0
 70 68  1  0
 71 70  1  0
 72 71  1  0
 73 72  1  0
 74 73  1  0
 41 75  1  1
 44 76  1  1
 41 42  1  0
 43 47  1  0
M  CHG  3  18  -1  39   2  56  -1
M  END
> <chembl_id>
CHEMBL3989715

> <chembl_pref_name>
MUPIROCIN CALCIUM
