
     RDKit          2D

 17 18  0  0  0  0  0  0  0  0999 V2000
    5.1167   -4.4667    0.0000 O   0  0  0  0  0  0  0  0  0  0  0  0
    4.5042   -4.8167    0.0000 C   0  0  0  0  0  0  0  0  0  0  0  0
    5.7292   -4.8167    0.0000 C   0  0  0  0  0  0  0  0  0  0  0  0
    3.8917   -4.4667    0.0000 C   0  0  0  0  0  0  0  0  0  0  0  0
    6.3417   -4.4667    0.0000 C   0  0  0  0  0  0  0  0  0  0  0  0
    3.2792   -4.8167    0.0000 C   0  0  0  0  0  0  0  0  0  0  0  0
    6.9542   -4.8167    0.0000 C   0  0  0  0  0  0  0  0  0  0  0  0
    4.5042   -5.5292    0.0000 C   0  0  0  0  0  0  0  0  0  0  0  0
    5.7292   -5.5292    0.0000 C   0  0  0  0  0  0  0  0  0  0  0  0
    6.9542   -5.5292    0.0000 C   0  0  0  0  0  0  0  0  0  0  0  0
    3.2792   -5.5292    0.0000 C   0  0  0  0  0  0  0  0  0  0  0  0
    3.8917   -3.7625    0.0000 Cl  0  0  0  0  0  0  0  0  0  0  0  0
    6.3417   -3.7625    0.0000 O   0  0  0  0  0  0  0  0  0  0  0  0
    3.8917   -5.8875    0.0000 C   0  0  0  0  0  0  0  0  0  0  0  0
    6.3417   -5.8875    0.0000 C   0  0  0  0  0  0  0  0  0  0  0  0
    7.5625   -5.8875    0.0000 Cl  0  0  0  0  0  0  0  0  0  0  0  0
    2.6667   -5.8875    0.0000 Cl  0  0  0  0  0  0  0  0  0  0  0  0
  2  1  1  0
  3  1  1  0
  4  2  1  0
  5  3  1  0
  6  4  2  0
  7  5  2  0
  8  2  2  0
  9  3  2  0
 10 15  2  0
 11 14  2  0
 12  4  1  0
 13  5  1  0
 14  8  1  0
 15  9  1  0
 16 10  1  0
 17 11  1  0
 10  7  1  0
 11  6  1  0
M  END
> <chembl_id>
CHEMBL849

> <chembl_pref_name>
TRICLOSAN
