
     RDKit          2D

 34 38  0  0  0  0  0  0  0  0999 V2000
    5.9042   -2.3792    0.0000 C   0  0  0  0  0  0  0  0  0  0  0  0
    5.9750   -3.0792    0.0000 N   0  0  0  0  0  0  0  0  0  0  0  0
    6.5667   -2.0917    0.0000 N   0  0  0  0  0  0  0  0  0  0  0  0
    6.6750   -3.2292    0.0000 C   0  0  0  0  0  0  0  0  0  0  0  0
    7.0292   -2.6167    0.0000 C   0  0  0  0  0  0  0  0  0  0  0  0
    5.3542   -3.4292    0.0000 C   0  0  0  0  0  0  0  0  0  0  0  0
    4.1167   -4.1417    0.0000 N   0  0  0  0  0  0  0  0  0  0  0  0
    5.2917   -2.0167    0.0000 O   0  0  0  0  0  0  0  0  0  0  0  0
    5.3542   -4.1417    0.0000 C   0  0  0  0  0  0  0  0  0  0  0  0
    4.7417   -3.0792    0.0000 C   0  0  0  0  0  0  0  0  0  0  0  0
    1.6625   -4.1292    0.0000 C   0  0  0  0  0  0  0  0  0  0  0  0
    1.0417   -4.4792    0.0000 C   0  0  0  0  0  0  0  0  0  0  0  0
    1.6625   -3.4167    0.0000 C   0  0  0  0  0  0  0  0  0  0  0  0
    4.1167   -3.4292    0.0000 C   0  0  0  0  0  0  0  0  0  0  0  0
    4.7292   -4.5042    0.0000 C   0  0  0  0  0  0  0  0  0  0  0  0
    0.4250   -4.1250    0.0000 C   0  0  0  0  0  0  0  0  0  0  0  0
    1.0417   -5.1917    0.0000 C   0  0  0  0  0  0  0  0  0  0  0  0
    2.2875   -3.0667    0.0000 C   0  0  0  0  0  0  0  0  0  0  0  0
    1.0500   -3.0667    0.0000 C   0  0  0  0  0  0  0  0  0  0  0  0
   -0.1958   -5.1875    0.0000 C   0  0  0  0  0  0  0  0  0  0  0  0
    1.6750   -2.0042    0.0000 C   0  0  0  0  0  0  0  0  0  0  0  0
    2.2917   -2.3542    0.0000 C   0  0  0  0  0  0  0  0  0  0  0  0
    1.0542   -2.3500    0.0000 C   0  0  0  0  0  0  0  0  0  0  0  0
   -0.1875   -4.4750    0.0000 C   0  0  0  0  0  0  0  0  0  0  0  0
    0.4167   -5.5417    0.0000 C   0  0  0  0  0  0  0  0  0  0  0  0
   -0.8208   -5.5417    0.0000 F   0  0  0  0  0  0  0  0  0  0  0  0
    1.6792   -1.2917    0.0000 F   0  0  0  0  0  0  0  0  0  0  0  0
    3.5167   -4.4917    0.0000 C   0  0  0  0  0  0  0  0  0  0  0  0
    7.0167   -3.8500    0.0000 C   0  0  0  0  0  0  0  0  0  0  0  0
    7.7542   -2.6167    0.0000 C   0  0  0  0  0  0  0  0  0  0  0  0
    2.8917   -4.1292    0.0000 C   0  0  0  0  0  0  0  0  0  0  0  0
    2.2792   -4.4875    0.0000 C   0  0  0  0  0  0  0  0  0  0  0  0
    7.7375   -3.8542    0.0000 C   0  0  0  0  0  0  0  0  0  0  0  0
    8.1042   -3.2375    0.0000 C   0  0  0  0  0  0  0  0  0  0  0  0
  2  1  1  0
  3  1  1  0
  4  2  1  0
  5  3  1  0
  6  2  1  0
  7 14  1  0
  8  1  2  0
  9  6  1  0
 10  6  1  0
 11 32  1  0
 12 11  1  0
 13 11  1  0
 14 10  1  0
 15  9  1  0
 16 12  2  0
 17 12  1  0
 18 13  2  0
 19 13  1  0
 20 25  1  0
 21 23  1  0
 22 18  1  0
 23 19  2  0
 24 16  1  0
 25 17  2  0
 26 20  1  0
 27 21  1  0
 28  7  1  0
 29  4  1  0
 30  5  1  0
 31 28  1  0
 32 31  1  0
 33 29  2  0
 34 30  2  0
  5  4  2  0
 34 33  1  0
  7 15  1  0
 21 22  2  0
 20 24  2  0
M  END
> <chembl_id>
CHEMBL1423

> <chembl_pref_name>
PIMOZIDE
