
     RDKit          2D

 42 47  0  0  0  0  0  0  0  0999 V2000
    5.0242   -1.5496    0.0000 C   0  0  0  0  0  0  0  0  0  0  0  0
    5.6988   -1.0747    0.0000 C   0  0  0  0  0  0  0  0  0  0  0  0
    4.3357   -1.0951    0.0000 C   0  0  0  0  0  0  0  0  0  0  0  0
    4.4464   -0.2776    0.0000 N   0  0  0  0  0  0  0  0  0  0  0  0
    3.5511   -1.3500    0.0000 C   0  0  0  0  0  0  0  0  0  0  0  0
    3.7526   -0.5500    0.0000 H   0  0  0  0  0  0  0  0  0  0  0  0
    3.2612   -2.1224    0.0000 C   0  0  0  0  0  0  0  0  0  0  0  0
    3.6843   -2.8307    0.0000 C   0  0  0  0  0  0  0  0  0  0  0  0
    4.7568   -3.7260    0.0000 O   0  0  0  0  0  0  0  0  0  0  0  0
    4.5019   -2.9414    0.0000 C   0  0  0  0  0  0  0  0  0  0  0  0
    3.9731   -3.5747    0.0000 H   0  0  0  0  0  0  0  0  0  0  0  0
    5.8467   -2.7181    0.0000 N   0  0  0  0  0  0  0  0  0  0  0  0
    5.0982   -2.3713    0.0000 C   0  0  0  0  0  0  0  0  0  0  0  0
    6.5213   -2.2432    0.0000 C   0  0  0  0  0  0  0  0  0  0  0  0
    6.4474   -1.4215    0.0000 C   0  0  0  0  0  0  0  0  0  0  0  0
    5.5638   -3.8975    0.0000 C   0  0  0  0  0  0  0  0  0  0  0  0
    5.8187   -4.6822    0.0000 N   0  0  0  0  0  0  0  0  0  0  0  0
    6.1158   -3.2845    0.0000 O   0  0  0  0  0  0  0  0  0  0  0  0
    5.5216   -6.0799    0.0000 C   0  0  0  0  0  0  0  0  0  0  0  0
    6.3286   -6.2514    0.0000 C   0  0  0  0  0  0  0  0  0  0  0  0
    6.6257   -4.8537    0.0000 C   0  0  0  0  0  0  0  0  0  0  0  0
    6.8806   -5.6383    0.0000 C   0  0  0  0  0  0  0  0  0  0  0  0
    6.5835   -7.0360    0.0000 N   0  0  0  0  0  0  0  0  0  0  0  0
    5.2667   -5.2953    0.0000 C   0  0  0  0  0  0  0  0  0  0  0  0
    7.3681   -7.2910    0.0000 C   0  0  0  0  0  0  0  0  0  0  0  0
    8.0826   -6.8785    0.0000 C   0  0  0  0  0  0  0  0  0  0  0  0
    7.3681   -8.1160    0.0000 C   0  0  0  0  0  0  0  0  0  0  0  0
    6.5835   -8.3709    0.0000 N   0  0  0  0  0  0  0  0  0  0  0  0
    8.0826   -8.5285    0.0000 N   0  0  0  0  0  0  0  0  0  0  0  0
    8.7971   -8.1160    0.0000 C   0  0  0  0  0  0  0  0  0  0  0  0
    8.7971   -7.2910    0.0000 C   0  0  0  0  0  0  0  0  0  0  0  0
    2.6422    0.6345    0.0000 C   0  0  0  0  0  0  0  0  0  0  0  0
    3.2123    0.0382    0.0000 C   0  0  0  0  0  0  0  0  0  0  0  0
    2.8735    1.4264    0.0000 F   0  0  0  0  0  0  0  0  0  0  0  0
    1.8407    0.4389    0.0000 C   0  0  0  0  0  0  0  0  0  0  0  0
    1.6093   -0.3530    0.0000 C   0  0  0  0  0  0  0  0  0  0  0  0
    2.1795   -0.9493    0.0000 C   0  0  0  0  0  0  0  0  0  0  0  0
    2.9809   -0.7537    0.0000 C   0  0  0  0  0  0  0  0  0  0  0  0
    4.0138    0.2338    0.0000 F   0  0  0  0  0  0  0  0  0  0  0  0
    6.0986   -7.7035    0.0000 C   0  0  0  0  0  0  0  0  0  0  0  0
    5.0868   -0.7539    0.0000 H   0  0  0  0  0  0  0  0  0  0  0  0
    5.2736   -7.7035    0.0000 O   0  0  0  0  0  0  0  0  0  0  0  0
  1  2  1  0
  1 13  2  0
  2 15  2  0
  3  4  1  6
  3  1  1  0
  5  6  1  6
  5  3  1  0
  5 38  1  1
  7  8  1  0
  7  5  1  0
 10  9  1  6
  9 16  1  0
 10  8  1  0
 12 13  1  0
 13 10  1  0
 14 12  2  0
 15 14  1  0
 16 18  2  0
 17 16  1  0
 17 21  1  0
 19 20  1  0
 19 24  1  0
 21 22  1  0
 22 20  1  0
 23 20  1  0
 23 25  1  0
 24 17  1  0
 25 26  1  0
 25 27  2  0
 26 31  2  0
 27 28  1  0
 27 29  1  0
 29 30  2  0
 31 30  1  0
 32 33  1  0
 32 35  2  0
 33 38  2  0
 34 32  1  0
 35 36  1  0
 36 37  2  0
 38 37  1  0
 39 33  1  0
 40 28  1  0
 40 23  1  0
  3 41  1  1
 10 11  1  1
 40 42  2  0
M  END
> <chembl_id>
CHEMBL2178422

> <chembl_pref_name>
RIMEGEPANT
