
     RDKit          2D

 29 33  0  0  0  0  0  0  0  0999 V2000
    4.0875   -8.1875    0.0000 Cl  0  0  0  0  0  0  0  0  0  0  0  0
    3.4917   -6.9250    0.0000 C   0  0  0  0  0  0  0  0  0  0  0  0
    3.8417   -6.3167    0.0000 C   0  0  0  0  0  0  0  0  0  0  0  0
    2.7875   -6.9292    0.0000 C   0  0  0  0  0  0  0  0  0  0  0  0
    3.8375   -7.5375    0.0000 C   0  0  0  0  0  0  0  0  0  0  0  0
    2.4375   -7.5375    0.0000 C   0  0  0  0  0  0  0  0  0  0  0  0
    3.1042   -7.8917    0.0000 O   0  0  0  0  0  0  0  0  0  0  0  0
    3.4917   -5.7042    0.0000 C   0  0  0  0  0  0  0  0  0  0  0  0
    3.8500   -5.0917    0.0000 N   0  0  0  0  0  0  0  0  0  0  0  0
    2.4375   -6.3167    0.0000 C   0  0  0  0  0  0  0  0  0  0  0  0
    2.7875   -5.7042    0.0000 C   0  0  0  0  0  0  0  0  0  0  0  0
    3.1292   -6.3042    0.0000 C   0  0  0  0  0  0  0  0  0  0  0  0
    4.5500   -6.3167    0.0000 C   0  0  0  0  0  0  0  0  0  0  0  0
    1.7292   -7.5375    0.0000 C   0  0  0  0  0  0  0  0  0  0  0  0
    3.1417   -5.0917    0.0000 C   0  0  0  0  0  0  0  0  0  0  0  0
    4.4625   -4.7417    0.0000 C   0  0  0  0  0  0  0  0  0  0  0  0
    4.5417   -7.5417    0.0000 C   0  0  0  0  0  0  0  0  0  0  0  0
    1.7292   -6.3167    0.0000 C   0  0  0  0  0  0  0  0  0  0  0  0
    4.1917   -5.7000    0.0000 O   0  0  0  0  0  0  0  0  0  0  0  0
    4.8917   -6.9292    0.0000 C   0  0  0  0  0  0  0  0  0  0  0  0
    1.3792   -6.9292    0.0000 C   0  0  0  0  0  0  0  0  0  0  0  0
    1.3750   -8.1500    0.0000 O   0  0  0  0  0  0  0  0  0  0  0  0
    4.8917   -8.1542    0.0000 O   0  0  0  0  0  0  0  0  0  0  0  0
    5.0750   -5.0917    0.0000 C   0  0  0  0  0  0  0  0  0  0  0  0
    5.7792   -5.8042    0.0000 C   0  0  0  0  0  0  0  0  0  0  0  0
    5.7792   -5.0917    0.0000 C   0  0  0  0  0  0  0  0  0  0  0  0
    5.0750   -5.8042    0.0000 C   0  0  0  0  0  0  0  0  0  0  0  0
    2.9942   -4.8368    0.0000 H   0  0  0  0  0  0  0  0  0  0  0  0
    4.0577   -8.5130    0.0000 H   0  0  0  0  0  0  0  0  0  0  0  0
  3  2  1  0
  4  2  1  0
  5  2  1  0
  6  4  1  0
  5  7  1  0
  8  3  1  0
  9 15  1  0
 10  4  2  0
 11 10  1  0
  2 12  1  1
 13  3  1  0
 14  6  2  0
 15 12  1  0
 16  9  1  0
 17  5  1  0
 18 10  1  0
  3 19  1  1
 20 17  1  0
 21 18  2  0
 22 14  1  0
 17 23  1  6
 24 16  1  0
 25 26  1  0
 26 24  1  0
 27 24  1  0
  7  6  1  0
  8  9  1  0
 13 20  1  0
 11  8  1  0
 14 21  1  0
 25 27  1  0
  8 28  1  6
  5 29  1  1
M  END
> <chembl_id>
CHEMBL1201132

> <chembl_pref_name>
NALBUPHINE HYDROCHLORIDE
