
     RDKit          2D

 36 39  0  0  0  0  0  0  0  0999 V2000
  -22.9821   -1.5321    0.0000 C   0  0  0  0  0  0  0  0  0  0  0  0
  -23.3946   -0.8177    0.0000 C   0  0  0  0  0  0  0  0  0  0  0  0
  -24.2197   -0.8177    0.0000 C   0  0  0  0  0  0  0  0  0  0  0  0
  -24.6322   -1.5321    0.0000 C   0  0  0  0  0  0  0  0  0  0  0  0
  -24.2197   -2.2466    0.0000 C   0  0  0  0  0  0  0  0  0  0  0  0
  -23.3946   -2.2466    0.0000 C   0  0  0  0  0  0  0  0  0  0  0  0
  -22.2677   -1.9446    0.0000 S   0  0  0  0  0  0  0  0  0  0  0  0
  -21.4427   -1.5321    0.0000 C   0  0  0  0  0  0  0  0  0  0  0  0
  -20.7542   -1.9867    0.0000 C   0  0  0  0  0  0  0  0  0  0  0  0
  -20.0163   -1.6177    0.0000 O   0  0  0  0  0  0  0  0  0  0  0  0
  -20.8036   -2.8102    0.0000 O   0  0  0  0  0  0  0  0  0  0  0  0
  -19.3278   -2.0723    0.0000 C   0  0  0  0  0  0  0  0  0  0  0  0
  -17.9195   -2.6557    0.0000 C   0  0  0  0  0  0  0  0  0  0  0  0
  -18.5028   -2.0723    0.0000 C   0  0  0  0  0  0  0  0  0  0  0  0
  -19.9112   -2.6557    0.0000 C   0  0  0  0  0  0  0  0  0  0  0  0
  -19.9112   -3.4807    0.0000 C   0  0  0  0  0  0  0  0  0  0  0  0
  -19.3278   -4.0640    0.0000 C   0  0  0  0  0  0  0  0  0  0  0  0
  -18.5028   -4.0640    0.0000 C   0  0  0  0  0  0  0  0  0  0  0  0
  -17.9195   -3.4807    0.0000 C   0  0  0  0  0  0  0  0  0  0  0  0
  -20.7081   -3.2671    0.0000 C   0  0  0  0  0  0  0  0  0  0  0  0
  -20.4945   -4.0640    0.0000 C   0  0  0  0  0  0  0  0  0  0  0  0
  -21.3195   -4.0640    0.0000 C   0  0  0  0  0  0  0  0  0  0  0  0
  -19.6435   -4.8262    0.0000 O   0  0  0  0  0  0  0  0  0  0  0  0
  -18.1871   -4.8262    0.0000 C   0  0  0  0  0  0  0  0  0  0  0  0
  -17.1349   -3.7356    0.0000 C   0  0  0  0  0  0  0  0  0  0  0  0
  -16.6499   -3.0682    0.0000 C   0  0  0  0  0  0  0  0  0  0  0  0
  -17.1348   -2.4008    0.0000 C   0  0  0  0  0  0  0  0  0  0  0  0
  -17.2182   -3.0446    0.0000 C   0  0  0  0  0  0  0  0  0  0  0  0
  -17.7883   -1.6598    0.0000 C   0  0  0  0  0  0  0  0  0  0  0  0
  -17.8665   -2.2123    0.0000 C   0  0  0  0  0  0  0  0  0  0  0  0
  -17.3267   -0.9760    0.0000 C   0  0  0  0  0  0  0  0  0  0  0  0
  -18.7163   -1.2754    0.0000 C   0  0  0  0  0  0  0  0  0  0  0  0
  -16.8799   -1.6162    0.0000 O   0  0  0  0  0  0  0  0  0  0  0  0
  -18.6817   -2.9714    0.0000 H   0  0  0  0  0  0  0  0  0  0  0  0
  -25.4572   -1.5321    0.0000 N   0  0  0  0  0  0  0  0  0  0  0  0
  -22.9821   -2.9611    0.0000 O   0  0  0  0  0  0  0  0  0  0  0  0
  1  2  1  0
  2  3  1  0
  3  4  1  0
  4  5  1  0
  5  6  1  0
  6  1  1  0
  1  7  1  1
  7  8  1  0
  8  9  1  0
  9 10  1  0
  9 11  2  0
 12 10  1  1
 14 12  1  0
 12 15  1  0
 13 14  1  0
 15 16  1  0
 16 17  1  0
 17 18  1  0
 18 19  1  0
 16 20  1  1
 16 21  1  0
 21 22  2  0
 17 23  1  6
 18 24  1  1
 19 25  1  0
 13 19  1  0
 13 27  1  0
 25 26  1  0
 26 27  1  0
 19 28  1  6
 14 29  1  0
 28 30  1  0
 30 29  1  0
 29 31  1  6
 14 32  1  1
 27 33  2  0
 13 34  1  1
  4 35  1  6
  6 36  1  6
M  END
> <chembl_id>
CHEMBL3291398

> <chembl_pref_name>
LEFAMULIN
