
     RDKit          2D

 47 50  0  0  0  0  0  0  0  0999 V2000
   -6.4481    3.3185    0.0000 C   0  0  0  0  0  0  0  0  0  0  0  0
   -7.1625    2.9060    0.0000 N   0  0  0  0  0  0  0  0  0  0  0  0
   -7.1625    2.0810    0.0000 C   0  0  0  0  0  0  0  0  0  0  0  0
   -6.4481    1.6685    0.0000 C   0  0  0  0  0  0  0  0  0  0  0  0
   -5.7336    2.0810    0.0000 N   0  0  0  0  0  0  0  0  0  0  0  0
   -5.7336    2.9060    0.0000 C   0  0  0  0  0  0  0  0  0  0  0  0
   -4.3052    2.1692    0.0000 C   0  0  0  0  0  0  0  0  0  0  0  0
   -5.0197    1.7567    0.0000 C   0  0  0  0  0  0  0  0  0  0  0  0
   -5.0197    0.9316    0.0000 N   0  0  0  0  0  0  0  0  0  0  0  0
   -4.3052    0.5191    0.0000 C   0  0  0  0  0  0  0  0  0  0  0  0
   -3.5907    0.9316    0.0000 C   0  0  0  0  0  0  0  0  0  0  0  0
   -3.5907    1.7567    0.0000 C   0  0  0  0  0  0  0  0  0  0  0  0
   -2.2013    3.3575    0.0000 C   0  0  0  0  0  0  0  0  0  0  0  0
   -2.9158    2.9450    0.0000 C   0  0  0  0  0  0  0  0  0  0  0  0
   -2.9158    2.1200    0.0000 C   0  0  0  0  0  0  0  0  0  0  0  0
   -2.2013    1.7074    0.0000 C   0  0  0  0  0  0  0  0  0  0  0  0
   -1.4868    2.1200    0.0000 C   0  0  0  0  0  0  0  0  0  0  0  0
   -1.4868    2.9450    0.0000 C   0  0  0  0  0  0  0  0  0  0  0  0
   -2.1818    1.0198    0.0000 C   0  0  0  0  0  0  0  0  0  0  0  0
   -2.8963    0.6073    0.0000 N   0  0  0  0  0  0  0  0  0  0  0  0
   -2.8963   -0.2177    0.0000 C   0  0  0  0  0  0  0  0  0  0  0  0
   -2.1818   -0.6302    0.0000 C   0  0  0  0  0  0  0  0  0  0  0  0
   -1.4674   -0.2177    0.0000 C   0  0  0  0  0  0  0  0  0  0  0  0
   -1.4674    0.6073    0.0000 C   0  0  0  0  0  0  0  0  0  0  0  0
   -0.7529    1.0198    0.0000 C   0  0  0  0  0  0  0  0  0  0  0  0
   -0.7529   -0.6302    0.0000 C   0  0  0  0  0  0  0  0  0  0  0  0
   -0.0384   -0.2177    0.0000 C   0  0  0  0  0  0  0  0  0  0  0  0
   -0.0384    0.6073    0.0000 C   0  0  0  0  0  0  0  0  0  0  0  0
   -7.6817    3.5472    0.0000 C   0  0  0  0  0  0  0  0  0  0  0  0
   -7.9875    2.9060    0.0000 C   0  0  0  0  0  0  0  0  0  0  0  0
   -8.5067    2.2649    0.0000 O   0  0  0  0  0  0  0  0  0  0  0  0
   -9.3317    2.2649    0.0000 P   0  0  0  0  0  0  0  0  0  0  0  0
   -9.7442    2.9793    0.0000 O   0  0  0  0  0  0  0  0  0  0  0  0
   -9.3504    1.4290    0.0000 O   0  0  0  0  0  0  0  0  0  0  0  0
   -3.6077    3.3943    0.0000 C   0  0  0  0  0  0  0  0  0  0  0  0
   -3.5637   -0.7026    0.0000 O   0  0  0  0  0  0  0  0  0  0  0  0
   -2.7339   -1.2433    0.0000 C   0  0  0  0  0  0  0  0  0  0  0  0
   -1.7325   -1.3221    0.0000 C   0  0  0  0  0  0  0  0  0  0  0  0
   -0.7529    1.8448    0.0000 C   0  0  0  0  0  0  0  0  0  0  0  0
   -1.2053    2.5401    0.0000 F   0  0  0  0  0  0  0  0  0  0  0  0
   -0.6788    2.6713    0.0000 F   0  0  0  0  0  0  0  0  0  0  0  0
   -0.2413    2.5051    0.0000 F   0  0  0  0  0  0  0  0  0  0  0  0
    0.5747   -0.7697    0.0000 C   0  0  0  0  0  0  0  0  0  0  0  0
    1.3895   -0.6407    0.0000 F   0  0  0  0  0  0  0  0  0  0  0  0
    1.2666   -1.2191    0.0000 F   0  0  0  0  0  0  0  0  0  0  0  0
    0.8703   -1.5399    0.0000 F   0  0  0  0  0  0  0  0  0  0  0  0
   -9.9991    1.7799    0.0000 O   0  0  0  0  0  0  0  0  0  0  0  0
  1  2  1  0
  2  3  1  0
  3  4  1  0
  4  5  1  0
  5  6  1  0
  1  6  1  0
  7  8  1  0
  8  9  2  0
  9 10  1  0
 10 11  2  0
 11 12  1  0
  7 12  2  0
 13 14  1  0
 14 15  2  0
 15 16  1  0
 16 17  2  0
 17 18  1  0
 13 18  2  0
 19 20  1  0
 20 21  1  0
 21 22  1  0
 22 23  1  0
 23 24  2  0
 26 27  2  0
 27 28  1  0
 25 28  2  0
 23 26  1  0
 25 24  1  0
  2 29  1  0
  2 30  1  0
 30 31  1  0
 31 32  1  0
 32 33  2  0
 32 34  1  0
  5  8  1  0
 12 15  1  0
 14 35  1  0
 11 20  1  0
 21 36  2  0
 22 37  1  0
 22 38  1  0
 25 39  1  0
 39 40  1  0
 39 41  1  0
 39 42  1  0
 27 43  1  0
 43 44  1  0
 43 45  1  0
 43 46  1  0
 32 47  1  0
M  CHG  2   2   1  34  -1
M  END
> <chembl_id>
CHEMBL3989917

> <chembl_pref_name>
FOSNETUPITANT
