
     RDKit          2D

 26 28  0  0  0  0  0  0  0  0999 V2000
   10.4360   -9.0422    0.0000 C   0  0  0  0  0  0  0  0  0  0  0  0
   10.4712   -9.8512    0.0000 N   0  0  0  0  0  0  0  0  0  0  0  0
   11.1903   -8.7347    0.0000 N   0  0  0  0  0  0  0  0  0  0  0  0
    9.7345   -8.6176    0.0000 S   0  0  0  0  0  0  0  0  0  0  0  0
    8.2870   -8.6262    0.0000 C   0  0  0  0  0  0  0  0  0  0  0  0
   11.2534  -10.0622    0.0000 C   0  0  0  0  0  0  0  0  0  0  0  0
    8.9876   -9.0782    0.0000 C   0  0  0  0  0  0  0  0  0  0  0  0
    7.5582   -9.0011    0.0000 C   0  0  0  0  0  0  0  0  0  0  0  0
   11.7012   -9.3694    0.0000 C   0  0  0  0  0  0  0  0  0  0  0  0
   11.6126  -10.7906    0.0000 C   0  0  0  0  0  0  0  0  0  0  0  0
    8.3226   -7.8114    0.0000 N   0  0  0  0  0  0  0  0  0  0  0  0
   13.6222  -11.6848    0.0000 C   0  0  0  0  0  0  0  0  0  0  0  0
    6.8650   -8.5611    0.0000 C   0  0  0  0  0  0  0  0  0  0  0  0
    9.7350   -7.7979    0.0000 O   0  0  0  0  0  0  0  0  0  0  0  0
   12.4544  -10.8427    0.0000 C   0  0  0  0  0  0  0  0  0  0  0  0
   12.7760  -11.6483    0.0000 O   0  0  0  0  0  0  0  0  0  0  0  0
   12.5357   -9.4056    0.0000 C   0  0  0  0  0  0  0  0  0  0  0  0
   13.9892  -12.4133    0.0000 F   0  0  0  0  0  0  0  0  0  0  0  0
   14.0895  -10.9964    0.0000 F   0  0  0  0  0  0  0  0  0  0  0  0
    7.5227   -9.8120    0.0000 O   0  0  0  0  0  0  0  0  0  0  0  0
    7.6256   -7.3674    0.0000 C   0  0  0  0  0  0  0  0  0  0  0  0
   12.9218  -10.1503    0.0000 C   0  0  0  0  0  0  0  0  0  0  0  0
    6.8967   -7.7462    0.0000 C   0  0  0  0  0  0  0  0  0  0  0  0
    6.1359   -8.9517    0.0000 O   0  0  0  0  0  0  0  0  0  0  0  0
    8.2118  -10.2558    0.0000 C   0  0  0  0  0  0  0  0  0  0  0  0
    6.0998   -9.7822    0.0000 C   0  0  0  0  0  0  0  0  0  0  0  0
  2  1  2  0
  3  1  1  0
  4  1  1  0
  5  7  1  0
  6  2  1  0
  7  4  1  0
  8  5  1  0
  9  3  1  0
 10  6  1  0
 11  5  2  0
 12 16  1  0
 13  8  2  0
 14  4  1  0
 15 10  2  0
 16 15  1  0
 17  9  1  0
 18 12  1  0
 19 12  1  0
 20  8  1  0
 21 11  1  0
 22 17  2  0
 23 21  2  0
 24 13  1  0
 25 20  1  0
 26 24  1  0
  9  6  2  0
 22 15  1  0
 13 23  1  0
M  CHG  2   4   1  14  -1
M  END
> <chembl_id>
CHEMBL1502

> <chembl_pref_name>
PANTOPRAZOLE
