
     RDKit          2D

 31 34  0  0  1  0  0  0  0  0999 V2000
    0.9417   -6.0167    0.0000 C   0  0  0  0  0  0  0  0  0  0  0  0
    0.9417   -5.3042    0.0000 C   0  0  0  0  0  0  0  0  0  0  0  0
    2.7875   -4.2583    0.0000 C   0  0  0  0  0  0  0  0  0  0  0  0
    3.4625   -4.0458    0.0000 C   0  0  0  0  0  0  0  0  0  0  0  0
    2.1667   -5.3125    0.0000 C   0  0  0  0  0  0  0  0  0  0  0  0
    2.1625   -6.0208    0.0000 C   0  0  0  0  0  0  0  0  0  0  0  0
    1.5542   -4.9542    0.0000 C   0  0  0  0  0  0  0  0  0  0  0  0
    2.7792   -4.9625    0.0000 C   0  0  0  0  0  0  0  0  0  0  0  0
    1.5500   -6.3708    0.0000 C   0  0  0  0  0  0  0  0  0  0  0  0
    0.3292   -6.3667    0.0000 C   0  0  0  0  0  0  0  0  0  0  0  0
    2.1750   -3.8958    0.0000 C   0  0  0  0  0  0  0  0  0  0  0  0
    3.8708   -4.6208    0.0000 C   0  0  0  0  0  0  0  0  0  0  0  0
    4.0750   -3.6875    0.0000 O   0  0  0  0  0  0  0  0  0  0  0  0
    1.5583   -4.2458    0.0000 C   0  0  0  0  0  0  0  0  0  0  0  0
    3.4500   -5.1917    0.0000 C   0  0  0  0  0  0  0  0  0  0  0  0
    0.3292   -4.9542    0.0000 C   0  0  0  0  0  0  0  0  0  0  0  0
    3.4542   -3.3375    0.0000 C   0  0  0  0  0  0  0  0  0  0  0  0
    4.6917   -4.0333    0.0000 C   0  0  0  0  0  0  0  0  0  0  0  0
   -0.2833   -6.0167    0.0000 C   0  0  0  0  0  0  0  0  0  0  0  0
    4.6958   -4.7417    0.0000 O   0  0  0  0  0  0  0  0  0  0  0  0
    2.8417   -2.9875    0.0000 O   0  0  0  0  0  0  0  0  0  0  0  0
   -0.8958   -6.3667    0.0000 O   0  0  0  0  0  0  0  0  0  0  0  0
   -0.2833   -5.3042    0.0000 C   0  0  0  0  0  0  0  0  0  0  0  0
    0.9375   -4.6000    0.0000 C   0  0  0  0  0  0  0  0  0  0  0  0
    2.7792   -3.5500    0.0000 C   0  0  0  0  0  0  0  0  0  0  0  0
    1.5458   -7.0792    0.0000 C   0  0  0  0  0  0  0  0  0  0  0  0
    5.3000   -3.6750    0.0000 C   0  0  0  0  0  0  0  0  0  0  0  0
    4.0667   -2.9750    0.0000 C   0  0  0  0  0  0  0  0  0  0  0  0
    2.1625   -4.6042    0.0000 H   0  0  0  0  0  0  0  0  0  0  0  0
    2.7750   -5.6667    0.0000 H   0  0  0  0  0  0  0  0  0  0  0  0
    1.5500   -5.6625    0.0000 H   0  0  0  0  0  0  0  0  0  0  0  0
  2  1  1  0
  3 11  1  0
  4  3  1  0
  5  7  1  0
  6  9  2  0
  7  2  1  0
  8  5  1  0
  9  1  1  0
 10  1  2  0
 11 14  1  0
 12 15  1  0
 13  4  1  0
 14  7  1  0
 15  8  1  0
 16  2  1  0
  4 17  1  1
 18 13  1  0
 19 10  1  0
 20 18  2  0
 21 17  2  0
 22 19  2  0
 23 16  1  0
  2 24  1  1
  3 25  1  1
 26  9  1  0
 27 18  1  0
 28 17  1  0
  5 29  1  1
  8 30  1  6
  7 31  1  6
  5  6  1  0
 19 23  1  0
  8  3  1  0
  4 12  1  0
M  END
> <chembl_id>
CHEMBL1201139

> <chembl_pref_name>
MEGESTROL ACETATE
