
     RDKit          2D

 17 19  0  0  0  0  0  0  0  0999 V2000
  -14.8603    5.2794    0.0000 C   0  0  0  0  0  0  0  0  0  0  0  0
  -15.4124    4.6663    0.0000 C   0  0  0  0  0  0  0  0  0  0  0  0
  -16.2193    4.8378    0.0000 C   0  0  0  0  0  0  0  0  0  0  0  0
  -16.4743    5.6224    0.0000 C   0  0  0  0  0  0  0  0  0  0  0  0
  -15.9222    6.2355    0.0000 C   0  0  0  0  0  0  0  0  0  0  0  0
  -15.1153    6.0640    0.0000 C   0  0  0  0  0  0  0  0  0  0  0  0
  -16.7714    4.2247    0.0000 F   0  0  0  0  0  0  0  0  0  0  0  0
  -16.1772    7.0202    0.0000 C   0  0  0  0  0  0  0  0  0  0  0  0
  -16.4321    7.8048    0.0000 N   0  0  0  0  0  0  0  0  0  0  0  0
  -15.1574    3.8817    0.0000 C   0  0  0  0  0  0  0  0  0  0  0  0
  -14.3728    3.6267    0.0000 N   0  0  0  0  0  0  0  0  0  0  0  0
  -14.3728    2.8017    0.0000 C   0  0  0  0  0  0  0  0  0  0  0  0
  -15.1574    2.5468    0.0000 C   0  0  0  0  0  0  0  0  0  0  0  0
  -15.6423    3.2142    0.0000 C   0  0  0  0  0  0  0  0  0  0  0  0
  -13.5882    2.5468    0.0000 C   0  0  0  0  0  0  0  0  0  0  0  0
  -13.1033    3.2142    0.0000 N   0  0  0  0  0  0  0  0  0  0  0  0
  -13.5882    3.8817    0.0000 C   0  0  0  0  0  0  0  0  0  0  0  0
  1  2  2  0
  1  6  1  0
  2  3  1  0
  3  4  2  0
  4  5  1  0
  5  6  2  0
  3  7  1  0
  5  8  1  0
  8  9  3  0
 10  2  1  6
 10 11  1  0
 10 14  1  0
 12 13  1  0
 13 14  1  0
 11 17  1  0
 11 12  1  0
 12 15  2  0
 15 16  1  0
 16 17  2  0
M  END
> <chembl_id>
CHEMBL3099695

> <chembl_pref_name>
OSILODROSTAT
