
     RDKit          2D

 13 15  0  0  0  0  0  0  0  0999 V2000
    2.0529    0.8485    0.0000 C   0  0  0  0  0  0  0  0  0  0  0  0
    2.0529    0.0000    0.0000 C   0  0  0  0  0  0  0  0  0  0  0  0
    2.6551    1.5739    0.0000 C   0  0  0  0  0  0  0  0  0  0  0  0
    1.4234   -0.3148    0.0000 C   0  0  0  0  0  0  0  0  0  0  0  0
    1.9571    1.2454    0.0000 C   0  0  0  0  0  0  0  0  0  0  0  0
    1.9571    0.3148    0.0000 C   0  0  0  0  0  0  0  0  0  0  0  0
    3.3667    1.2454    0.0000 C   0  0  0  0  0  0  0  0  0  0  0  0
    3.3667    0.3148    0.0000 C   0  0  0  0  0  0  0  0  0  0  0  0
    2.8603   -0.3148    0.0000 C   0  0  0  0  0  0  0  0  0  0  0  0
    2.7645    0.0137    0.0000 C   0  0  0  0  0  0  0  0  0  0  0  0
    1.1977    0.6373    0.0000 C   0  0  0  0  0  0  0  0  0  0  0  0
    1.1169    1.2946    0.0000 C   0  0  0  0  0  0  0  0  0  0  0  0
    0.6688    0.2388    0.0000 N   0  0  0  0  0  0  0  0  0  0  0  0
  1  2  1  0
  1  3  1  0
  2  4  1  0
  3  5  1  0
  4  6  1  0
  5  6  1  0
  3  7  1  0
  7  8  1  0
  2  9  1  0
  8  9  1  0
  6 10  1  0
  8 10  1  0
  6 11  1  0
 11 12  1  0
 11 13  1  0
M  END
> <chembl_id>
CHEMBL959

> <chembl_pref_name>
RIMANTADINE
