
     RDKit          2D

 45 49  0  0  1  0  0  0  0  0999 V2000
   -1.3625   -0.0292    0.0000 C   0  0  0  0  0  0  0  0  0  0  0  0
   -0.7833    0.2958    0.0000 N   0  0  0  0  0  0  0  0  0  0  0  0
   -1.3625   -0.7042    0.0000 C   0  0  0  0  0  0  0  0  0  0  0  0
    2.7042    0.2625    0.0000 N   0  0  0  0  0  0  0  0  0  0  0  0
    3.2792   -0.0667    0.0000 C   0  0  0  0  0  0  0  0  0  0  0  0
    2.1250   -0.0625    0.0000 C   0  0  0  0  0  0  0  0  0  0  0  0
    3.3542   -0.7292    0.0000 C   0  0  0  0  0  0  0  0  0  0  0  0
   -1.9375    0.9708    0.0000 N   0  0  0  0  0  0  0  0  0  0  0  0
    4.0042   -0.8667    0.0000 C   0  0  0  0  0  0  0  0  0  0  0  0
    3.9000    0.2000    0.0000 C   0  0  0  0  0  0  0  0  0  0  0  0
   -1.9500   -1.0417    0.0000 N   0  0  0  0  0  0  0  0  0  0  0  0
    1.5417    0.2750    0.0000 C   0  0  0  0  0  0  0  0  0  0  0  0
   -1.9458    0.3000    0.0000 C   0  0  0  0  0  0  0  0  0  0  0  0
    4.3417   -0.3000    0.0000 C   0  0  0  0  0  0  0  0  0  0  0  0
   -0.2000   -0.0417    0.0000 C   0  0  0  0  0  0  0  0  0  0  0  0
   -0.7750    0.9625    0.0000 C   0  0  0  0  0  0  0  0  0  0  0  0
   -0.7833   -1.0500    0.0000 O   0  0  0  0  0  0  0  0  0  0  0  0
    2.1167   -0.7375    0.0000 O   0  0  0  0  0  0  0  0  0  0  0  0
    0.9625   -0.0542    0.0000 C   0  0  0  0  0  0  0  0  0  0  0  0
    1.5417    0.9458    0.0000 C   0  0  0  0  0  0  0  0  0  0  0  0
   -1.9500   -1.7167    0.0000 C   0  0  0  0  0  0  0  0  0  0  0  0
   -2.5208    1.3000    0.0000 C   0  0  0  0  0  0  0  0  0  0  0  0
   -4.2708    0.9625    0.0000 N   0  0  0  0  0  0  0  0  0  0  0  0
   -1.3583    1.3000    0.0000 C   0  0  0  0  0  0  0  0  0  0  0  0
   -3.1000    0.9625    0.0000 C   0  0  0  0  0  0  0  0  0  0  0  0
    0.3792    0.2833    0.0000 C   0  0  0  0  0  0  0  0  0  0  0  0
    4.0667    0.8583    0.0000 O   0  0  0  0  0  0  0  0  0  0  0  0
    2.1167    1.2833    0.0000 C   0  0  0  0  0  0  0  0  0  0  0  0
   -3.6833    1.3000    0.0000 C   0  0  0  0  0  0  0  0  0  0  0  0
    0.3792    0.9625    0.0000 O   0  0  0  0  0  0  0  0  0  0  0  0
    2.9167   -1.2167    0.0000 C   0  0  0  0  0  0  0  0  0  0  0  0
    4.2042   -1.5000    0.0000 C   0  0  0  0  0  0  0  0  0  0  0  0
   -4.2708    0.2958    0.0000 C   0  0  0  0  0  0  0  0  0  0  0  0
   -2.5375   -2.0417    0.0000 C   0  0  0  0  0  0  0  0  0  0  0  0
   -1.3083   -1.8792    0.0000 C   0  0  0  0  0  0  0  0  0  0  0  0
   -1.6208   -2.2875    0.0000 C   0  0  0  0  0  0  0  0  0  0  0  0
   -3.0958    0.2958    0.0000 C   0  0  0  0  0  0  0  0  0  0  0  0
    2.1167    1.9583    0.0000 C   0  0  0  0  0  0  0  0  0  0  0  0
    2.7000    0.9500    0.0000 C   0  0  0  0  0  0  0  0  0  0  0  0
   -3.6833   -0.0417    0.0000 C   0  0  0  0  0  0  0  0  0  0  0  0
    3.1167   -1.8542    0.0000 C   0  0  0  0  0  0  0  0  0  0  0  0
    3.7667   -1.9917    0.0000 C   0  0  0  0  0  0  0  0  0  0  0  0
    3.2792    1.2875    0.0000 C   0  0  0  0  0  0  0  0  0  0  0  0
    2.6917    2.2958    0.0000 C   0  0  0  0  0  0  0  0  0  0  0  0
    3.2792    1.9625    0.0000 C   0  0  0  0  0  0  0  0  0  0  0  0
  2  1  1  0
  1  3  1  6
  4  6  1  0
  5  4  1  6
  6 12  1  0
  7  5  1  0
  8 13  1  0
  9  7  2  0
 10  5  1  0
 11  3  1  0
 12 19  1  0
 13  1  1  0
 14 10  1  0
 15  2  1  0
 16  2  1  0
 17  3  2  0
 18  6  2  0
 19 26  1  0
 12 20  1  1
 21 11  1  0
 22  8  1  0
 23 29  1  0
 24  8  1  0
 25 22  1  0
 26 15  1  0
 10 27  1  6
 28 20  1  0
 29 25  2  0
 26 30  1  1
 31  7  1  0
 32  9  1  0
 33 40  1  0
 34 21  1  0
 35 21  1  0
 36 21  1  0
 37 25  1  0
 38 28  1  0
 39 28  2  0
 40 37  2  0
 41 31  2  0
 42 41  1  0
 43 39  1  0
 44 38  2  0
 45 43  2  0
 16 24  1  0
 23 33  2  0
 44 45  1  0
  9 14  1  0
 32 42  2  0
M  END
> <chembl_id>
CHEMBL115

> <chembl_pref_name>
INDINAVIR
