
     RDKit          2D

 33 35  0  0  0  0  0  0  0  0999 V2000
    6.3375   -6.5250    0.0000 S   0  0  0  0  0  0  0  0  0  0  0  0
    6.6875   -5.9042    0.0000 O   0  0  0  0  0  0  0  0  0  0  0  0
    5.9792   -5.9042    0.0000 O   0  0  0  0  0  0  0  0  0  0  0  0
    5.7250   -6.8792    0.0000 O   0  0  0  0  0  0  0  0  0  0  0  0
    6.9500   -6.8792    0.0000 C   0  0  0  0  0  0  0  0  0  0  0  0
    1.5167   -6.0000    0.0000 C   0  0  0  0  0  0  0  0  0  0  0  0
    1.5167   -5.2875    0.0000 C   0  0  0  0  0  0  0  0  0  0  0  0
    2.7458   -5.2875    0.0000 C   0  0  0  0  0  0  0  0  0  0  0  0
    2.1292   -6.3542    0.0000 N   0  0  0  0  0  0  0  0  0  0  0  0
    0.9042   -6.3542    0.0000 N   0  0  0  0  0  0  0  0  0  0  0  0
   -0.3208   -6.3542    0.0000 N   0  0  0  0  0  0  0  0  0  0  0  0
    2.1292   -4.9292    0.0000 C   0  0  0  0  0  0  0  0  0  0  0  0
    0.2917   -6.0000    0.0000 C   0  0  0  0  0  0  0  0  0  0  0  0
    2.7458   -6.0000    0.0000 C   0  0  0  0  0  0  0  0  0  0  0  0
   -1.4708   -6.3542    0.0000 C   0  0  0  0  0  0  0  0  0  0  0  0
    0.9042   -4.9333    0.0000 C   0  0  0  0  0  0  0  0  0  0  0  0
    2.1292   -7.0583    0.0000 C   0  0  0  0  0  0  0  0  0  0  0  0
   -1.2500   -7.0250    0.0000 C   0  0  0  0  0  0  0  0  0  0  0  0
    3.3583   -4.9333    0.0000 C   0  0  0  0  0  0  0  0  0  0  0  0
    0.2917   -5.2875    0.0000 C   0  0  0  0  0  0  0  0  0  0  0  0
   -0.8958   -5.9333    0.0000 C   0  0  0  0  0  0  0  0  0  0  0  0
   -0.5417   -7.0250    0.0000 C   0  0  0  0  0  0  0  0  0  0  0  0
    1.7708   -7.6708    0.0000 C   0  0  0  0  0  0  0  0  0  0  0  0
    2.4792   -7.6708    0.0000 C   0  0  0  0  0  0  0  0  0  0  0  0
   -2.0875   -6.0000    0.0000 N   0  0  0  0  0  0  0  0  0  0  0  0
    2.1292   -4.2208    0.0000 O   0  0  0  0  0  0  0  0  0  0  0  0
    3.3625   -4.2250    0.0000 O   0  0  0  0  0  0  0  0  0  0  0  0
   -0.3208   -4.9333    0.0000 F   0  0  0  0  0  0  0  0  0  0  0  0
    3.9708   -5.2875    0.0000 O   0  0  0  0  0  0  0  0  0  0  0  0
   -1.8708   -7.3750    0.0000 C   0  0  0  0  0  0  0  0  0  0  0  0
   -2.0917   -5.2917    0.0000 O   0  0  0  0  0  0  0  0  0  0  0  0
   -2.4792   -7.0125    0.0000 N   0  0  0  0  0  0  0  0  0  0  0  0
   -2.7042   -4.9375    0.0000 C   0  0  0  0  0  0  0  0  0  0  0  0
  2  1  2  0
  3  1  2  0
  4  1  1  0
  5  1  1  0
  7  6  1  0
  8 14  2  0
  9  6  1  0
 10  6  2  0
 11 13  1  0
 12  7  1  0
 13 10  1  0
 14  9  1  0
 15 21  1  0
 16  7  2  0
 17  9  1  0
 18 22  1  0
 19  8  1  0
 20 16  1  0
 21 11  1  0
 22 11  1  0
 23 17  1  0
 24 17  1  0
 25 15  2  0
 26 12  2  0
 27 19  2  0
 28 20  1  0
 29 19  1  0
 30 18  1  0
 31 25  1  0
 32 30  1  0
 33 31  1  0
 12  8  1  0
 23 24  1  0
 13 20  2  0
 18 15  1  0
M  END
> <chembl_id>
CHEMBL1200621

> <chembl_pref_name>
GEMIFLOXACIN MESYLATE
