
     RDKit          2D

457502  0  0  0  0  0  0  0  0999 V2000
   30.3849    2.6831    0.0000 O   0  0  0  0  0  0  0  0  0  0  0  0
   29.6655    3.0939    0.0000 C   0  0  0  0  0  0  0  0  0  0  0  0
   29.6657    3.9216    0.0000 C   0  0  0  0  0  0  0  0  0  0  0  0
   29.0004    4.4059    0.0000 C   0  0  0  0  0  0  0  0  0  0  0  0
   28.2186    4.1457    0.0000 O   0  0  0  0  0  0  0  0  0  0  0  0
   29.2547    5.1879    0.0000 C   0  0  0  0  0  0  0  0  0  0  0  0
   28.7705    5.8593    0.0000 O   0  0  0  0  0  0  0  0  0  0  0  0
   30.0824    5.1879    0.0000 C   0  0  0  0  0  0  0  0  0  0  0  0
   30.3368    4.4059    0.0000 O   0  0  0  0  0  0  0  0  0  0  0  0
   30.5667    5.8593    0.0000 N   0  0  0  0  0  0  0  0  0  0  0  0
   30.2331    6.6211    0.0000 C   0  0  0  0  0  0  0  0  0  0  0  0
   29.4093    6.7023    0.0000 O   0  0  0  0  0  0  0  0  0  0  0  0
   30.7175    7.2779    0.0000 N   0  0  0  0  0  0  0  0  0  0  0  0
   31.5353    7.1966    0.0000 C   0  0  0  0  0  0  0  0  0  0  0  0
   32.0196    7.8653    0.0000 N   0  0  0  0  0  0  0  0  0  0  0  0
   31.8689    6.4468    0.0000 C   0  0  0  0  0  0  0  0  0  0  0  0
   31.3905    5.7721    0.0000 C   0  0  0  0  0  0  0  0  0  0  0  0
   32.6927    6.3536    0.0000 C   0  0  0  0  0  0  0  0  0  0  0  0
   27.9525    5.7721    0.0000 C   0  0  0  0  0  0  0  0  0  0  0  0
   27.6130    5.0169    0.0000 C   0  0  0  0  0  0  0  0  0  0  0  0
   26.7951    4.9254    0.0000 O   0  0  0  0  0  0  0  0  0  0  0  0
   26.4556    4.1747    0.0000 C   0  0  0  0  0  0  0  0  0  0  0  0
   33.4727    0.4119    0.0000 O   0  0  0  0  0  0  0  0  0  0  0  0
   32.8883    0.9962    0.0000 C   0  0  0  0  0  0  0  0  0  0  0  0
   33.1006    1.7928    0.0000 C   0  0  0  0  0  0  0  0  0  0  0  0
   32.5778    2.4367    0.0000 C   0  0  0  0  0  0  0  0  0  0  0  0
   31.5092    2.3805    0.0000 S   0  0  0  0  0  0  0  0  0  0  0  0
   33.0327    3.1309    0.0000 C   0  0  0  0  0  0  0  0  0  0  0  0
   32.7319    3.8995    0.0000 O   0  0  0  0  0  0  0  0  0  0  0  0
   33.8292    2.9127    0.0000 C   0  0  0  0  0  0  0  0  0  0  0  0
   33.8691    2.0876    0.0000 O   0  0  0  0  0  0  0  0  0  0  0  0
   34.4672    3.4355    0.0000 N   0  0  0  0  0  0  0  0  0  0  0  0
   34.3426    4.2472    0.0000 C   0  0  0  0  0  0  0  0  0  0  0  0
   33.5680    4.5420    0.0000 O   0  0  0  0  0  0  0  0  0  0  0  0
   34.9805    4.7639    0.0000 N   0  0  0  0  0  0  0  0  0  0  0  0
   35.7492    4.4691    0.0000 C   0  0  0  0  0  0  0  0  0  0  0  0
   36.3931    4.9919    0.0000 N   0  0  0  0  0  0  0  0  0  0  0  0
   35.8797    3.6575    0.0000 C   0  0  0  0  0  0  0  0  0  0  0  0
   35.2417    3.1348    0.0000 C   0  0  0  0  0  0  0  0  0  0  0  0
   31.0983    3.0939    0.0000 P   0  0  0  0  0  0  0  0  0  0  0  0
   30.6874    3.8073    0.0000 O   0  0  0  0  0  0  0  0  0  0  0  0
   31.8117    3.5048    0.0000 O   0  0  0  0  0  0  0  0  0  0  0  0
   36.6482    3.3627    0.0000 C   0  0  0  0  0  0  0  0  0  0  0  0
   33.2546    4.5374    0.0000 C   0  0  0  0  0  0  0  0  0  0  0  0
   32.9598    5.3060    0.0000 C   0  0  0  0  0  0  0  0  0  0  0  0
   32.1422    5.4366    0.0000 O   0  0  0  0  0  0  0  0  0  0  0  0
   31.6255    4.7987    0.0000 C   0  0  0  0  0  0  0  0  0  0  0  0
   35.3395   -2.6836    0.0000 O   0  0  0  0  0  0  0  0  0  0  0  0
   35.0059   -1.9271    0.0000 C   0  0  0  0  0  0  0  0  0  0  0  0
   35.4902   -1.2620    0.0000 C   0  0  0  0  0  0  0  0  0  0  0  0
   35.2360   -0.4740    0.0000 C   0  0  0  0  0  0  0  0  0  0  0  0
   34.4480   -0.2198    0.0000 S   0  0  0  0  0  0  0  0  0  0  0  0
   35.9011    0.0103    0.0000 C   0  0  0  0  0  0  0  0  0  0  0  0
   35.9011    0.8320    0.0000 O   0  0  0  0  0  0  0  0  0  0  0  0
   36.5662   -0.4740    0.0000 C   0  0  0  0  0  0  0  0  0  0  0  0
   36.3120   -1.2620    0.0000 O   0  0  0  0  0  0  0  0  0  0  0  0
   37.3542   -0.2198    0.0000 N   0  0  0  0  0  0  0  0  0  0  0  0
   37.6084    0.5622    0.0000 C   0  0  0  0  0  0  0  0  0  0  0  0
   38.4301    0.5622    0.0000 N   0  0  0  0  0  0  0  0  0  0  0  0
   38.6903   -0.2198    0.0000 C   0  0  0  0  0  0  0  0  0  0  0  0
   39.4410   -0.5593    0.0000 C   0  0  0  0  0  0  0  0  0  0  0  0
   40.1061   -0.0750    0.0000 N   0  0  0  0  0  0  0  0  0  0  0  0
   39.5265   -1.3772    0.0000 N   0  0  0  0  0  0  0  0  0  0  0  0
   38.8614   -1.8615    0.0000 C   0  0  0  0  0  0  0  0  0  0  0  0
   38.1047   -1.5280    0.0000 N   0  0  0  0  0  0  0  0  0  0  0  0
   38.0193   -0.7041    0.0000 C   0  0  0  0  0  0  0  0  0  0  0  0
   34.2791    0.5868    0.0000 P   0  0  0  0  0  0  0  0  0  0  0  0
   34.1042    1.3932    0.0000 O   0  0  0  0  0  0  0  0  0  0  0  0
   35.0857    0.7557    0.0000 O   0  0  0  0  0  0  0  0  0  0  0  0
   36.6145    1.2487    0.0000 C   0  0  0  0  0  0  0  0  0  0  0  0
   36.6145    2.0704    0.0000 C   0  0  0  0  0  0  0  0  0  0  0  0
   37.3339    2.4813    0.0000 O   0  0  0  0  0  0  0  0  0  0  0  0
   37.3339    3.3090    0.0000 C   0  0  0  0  0  0  0  0  0  0  0  0
   35.4442   -6.1280    0.0000 O   0  0  0  0  0  0  0  0  0  0  0  0
   35.6986   -5.3460    0.0000 C   0  0  0  0  0  0  0  0  0  0  0  0
   35.1464   -4.7331    0.0000 C   0  0  0  0  0  0  0  0  0  0  0  0
   35.3212   -3.9206    0.0000 C   0  0  0  0  0  0  0  0  0  0  0  0
   36.0719   -3.5871    0.0000 S   0  0  0  0  0  0  0  0  0  0  0  0
   34.6019   -3.5098    0.0000 C   0  0  0  0  0  0  0  0  0  0  0  0
   34.5223   -2.6919    0.0000 O   0  0  0  0  0  0  0  0  0  0  0  0
   33.9889   -4.0620    0.0000 C   0  0  0  0  0  0  0  0  0  0  0  0
   34.3284   -4.8185    0.0000 O   0  0  0  0  0  0  0  0  0  0  0  0
   33.1884   -3.8931    0.0000 N   0  0  0  0  0  0  0  0  0  0  0  0
   32.6363   -4.5060    0.0000 C   0  0  0  0  0  0  0  0  0  0  0  0
   32.8905   -5.2880    0.0000 O   0  0  0  0  0  0  0  0  0  0  0  0
   31.8237   -4.3311    0.0000 N   0  0  0  0  0  0  0  0  0  0  0  0
   31.5755   -3.5492    0.0000 C   0  0  0  0  0  0  0  0  0  0  0  0
   30.7629   -3.3802    0.0000 N   0  0  0  0  0  0  0  0  0  0  0  0
   32.1217   -2.9362    0.0000 C   0  0  0  0  0  0  0  0  0  0  0  0
   32.9282   -3.1052    0.0000 C   0  0  0  0  0  0  0  0  0  0  0  0
   36.1573   -2.7691    0.0000 P   0  0  0  0  0  0  0  0  0  0  0  0
   36.2488   -1.9454    0.0000 O   0  0  0  0  0  0  0  0  0  0  0  0
   36.9812   -2.8547    0.0000 O   0  0  0  0  0  0  0  0  0  0  0  0
   31.8674   -2.1543    0.0000 C   0  0  0  0  0  0  0  0  0  0  0  0
   33.7478   -2.3971    0.0000 C   0  0  0  0  0  0  0  0  0  0  0  0
   33.6232   -1.5795    0.0000 C   0  0  0  0  0  0  0  0  0  0  0  0
   32.8488   -1.2847    0.0000 O   0  0  0  0  0  0  0  0  0  0  0  0
   32.7241   -0.4672    0.0000 C   0  0  0  0  0  0  0  0  0  0  0  0
   35.7409   -9.5509    0.0000 O   0  0  0  0  0  0  0  0  0  0  0  0
   35.3646   -8.8166    0.0000 C   0  0  0  0  0  0  0  0  0  0  0  0
   35.8489   -8.1455    0.0000 C   0  0  0  0  0  0  0  0  0  0  0  0
   35.5946   -7.3637    0.0000 C   0  0  0  0  0  0  0  0  0  0  0  0
   34.8127   -7.1093    0.0000 S   0  0  0  0  0  0  0  0  0  0  0  0
   36.2598   -6.8734    0.0000 C   0  0  0  0  0  0  0  0  0  0  0  0
   36.2598   -6.0517    0.0000 O   0  0  0  0  0  0  0  0  0  0  0  0
   36.9309   -7.3637    0.0000 C   0  0  0  0  0  0  0  0  0  0  0  0
   36.6765   -8.1455    0.0000 O   0  0  0  0  0  0  0  0  0  0  0  0
   37.7127   -7.1093    0.0000 N   0  0  0  0  0  0  0  0  0  0  0  0
   37.9671   -6.3215    0.0000 C   0  0  0  0  0  0  0  0  0  0  0  0
   38.7947   -6.3215    0.0000 N   0  0  0  0  0  0  0  0  0  0  0  0
   39.0490   -7.1093    0.0000 C   0  0  0  0  0  0  0  0  0  0  0  0
   39.7996   -7.4430    0.0000 C   0  0  0  0  0  0  0  0  0  0  0  0
   40.4707   -6.9587    0.0000 O   0  0  0  0  0  0  0  0  0  0  0  0
   39.8852   -8.2608    0.0000 N   0  0  0  0  0  0  0  0  0  0  0  0
   39.2200   -8.7452    0.0000 C   0  0  0  0  0  0  0  0  0  0  0  0
   39.3054   -9.5690    0.0000 N   0  0  0  0  0  0  0  0  0  0  0  0
   38.4694   -8.4115    0.0000 N   0  0  0  0  0  0  0  0  0  0  0  0
   38.3780   -7.5936    0.0000 C   0  0  0  0  0  0  0  0  0  0  0  0
   34.6378   -6.2969    0.0000 P   0  0  0  0  0  0  0  0  0  0  0  0
   34.4689   -5.4905    0.0000 O   0  0  0  0  0  0  0  0  0  0  0  0
   33.8312   -6.4718    0.0000 O   0  0  0  0  0  0  0  0  0  0  0  0
   36.9732   -5.6408    0.0000 C   0  0  0  0  0  0  0  0  0  0  0  0
   36.9732   -4.8131    0.0000 C   0  0  0  0  0  0  0  0  0  0  0  0
   37.6866   -4.4022    0.0000 O   0  0  0  0  0  0  0  0  0  0  0  0
   37.6866   -3.5747    0.0000 C   0  0  0  0  0  0  0  0  0  0  0  0
   32.2481   -8.6391    0.0000 O   0  0  0  0  0  0  0  0  0  0  0  0
   32.9987   -8.9787    0.0000 C   0  0  0  0  0  0  0  0  0  0  0  0
   33.1293   -9.7902    0.0000 C   0  0  0  0  0  0  0  0  0  0  0  0
   33.8635  -10.1665    0.0000 C   0  0  0  0  0  0  0  0  0  0  0  0
   34.5976   -9.7902    0.0000 S   0  0  0  0  0  0  0  0  0  0  0  0
   33.7329  -10.9782    0.0000 C   0  0  0  0  0  0  0  0  0  0  0  0
   32.9212  -11.1088    0.0000 C   0  0  0  0  0  0  0  0  0  0  0  0
   32.5449  -10.3746    0.0000 O   0  0  0  0  0  0  0  0  0  0  0  0
   32.5449  -11.8429    0.0000 N   0  0  0  0  0  0  0  0  0  0  0  0
   32.9938  -12.5373    0.0000 C   0  0  0  0  0  0  0  0  0  0  0  0
   33.8191  -12.4915    0.0000 O   0  0  0  0  0  0  0  0  0  0  0  0
   32.6175  -13.2714    0.0000 N   0  0  0  0  0  0  0  0  0  0  0  0
   31.7924  -13.3173    0.0000 C   0  0  0  0  0  0  0  0  0  0  0  0
   31.4220  -14.0516    0.0000 N   0  0  0  0  0  0  0  0  0  0  0  0
   31.3494  -12.6231    0.0000 C   0  0  0  0  0  0  0  0  0  0  0  0
   31.7198  -11.8888    0.0000 C   0  0  0  0  0  0  0  0  0  0  0  0
   35.2860  -10.2392    0.0000 P   0  0  0  0  0  0  0  0  0  0  0  0
   35.9803  -10.6941    0.0000 O   0  0  0  0  0  0  0  0  0  0  0  0
   34.8430  -10.9335    0.0000 O   0  0  0  0  0  0  0  0  0  0  0  0
   30.5242  -12.6689    0.0000 C   0  0  0  0  0  0  0  0  0  0  0  0
   29.7072  -10.6790    0.0000 O   0  0  0  0  0  0  0  0  0  0  0  0
   30.1976  -10.0137    0.0000 C   0  0  0  0  0  0  0  0  0  0  0  0
   29.8580   -9.2572    0.0000 C   0  0  0  0  0  0  0  0  0  0  0  0
   30.2747   -8.5438    0.0000 C   0  0  0  0  0  0  0  0  0  0  0  0
   31.0927   -8.4583    0.0000 S   0  0  0  0  0  0  0  0  0  0  0  0
   29.7225   -7.9309    0.0000 C   0  0  0  0  0  0  0  0  0  0  0  0
   28.9660   -8.2703    0.0000 C   0  0  0  0  0  0  0  0  0  0  0  0
   29.0575   -9.0883    0.0000 O   0  0  0  0  0  0  0  0  0  0  0  0
   28.2526   -7.8536    0.0000 N   0  0  0  0  0  0  0  0  0  0  0  0
   27.5392   -8.2703    0.0000 C   0  0  0  0  0  0  0  0  0  0  0  0
   27.5392   -9.0920    0.0000 O   0  0  0  0  0  0  0  0  0  0  0  0
   26.8198   -7.8536    0.0000 N   0  0  0  0  0  0  0  0  0  0  0  0
   26.8198   -7.0319    0.0000 C   0  0  0  0  0  0  0  0  0  0  0  0
   26.1064   -6.6210    0.0000 O   0  0  0  0  0  0  0  0  0  0  0  0
   27.5392   -6.6210    0.0000 C   0  0  0  0  0  0  0  0  0  0  0  0
   27.5392   -5.7933    0.0000 C   0  0  0  0  0  0  0  0  0  0  0  0
   28.2526   -7.0319    0.0000 C   0  0  0  0  0  0  0  0  0  0  0  0
   31.5770   -9.1234    0.0000 P   0  0  0  0  0  0  0  0  0  0  0  0
   30.9118   -9.6077    0.0000 O   0  0  0  0  0  0  0  0  0  0  0  0
   32.0613   -9.7945    0.0000 O   0  0  0  0  0  0  0  0  0  0  0  0
   26.5057  -10.0530    0.0000 O   0  0  0  0  0  0  0  0  0  0  0  0
   27.2623  -10.3866    0.0000 C   0  0  0  0  0  0  0  0  0  0  0  0
   27.3021  -11.2117    0.0000 C   0  0  0  0  0  0  0  0  0  0  0  0
   27.9965  -11.6607    0.0000 C   0  0  0  0  0  0  0  0  0  0  0  0
   28.7651  -11.3659    0.0000 S   0  0  0  0  0  0  0  0  0  0  0  0
   27.7842  -12.4573    0.0000 C   0  0  0  0  0  0  0  0  0  0  0  0
   26.9590  -12.5032    0.0000 C   0  0  0  0  0  0  0  0  0  0  0  0
   26.6642  -11.7346    0.0000 O   0  0  0  0  0  0  0  0  0  0  0  0
   26.5101  -13.1914    0.0000 N   0  0  0  0  0  0  0  0  0  0  0  0
   26.8864  -13.9317    0.0000 C   0  0  0  0  0  0  0  0  0  0  0  0
   27.7116  -13.9715    0.0000 O   0  0  0  0  0  0  0  0  0  0  0  0
   26.4374  -14.6199    0.0000 N   0  0  0  0  0  0  0  0  0  0  0  0
   25.6123  -14.5742    0.0000 C   0  0  0  0  0  0  0  0  0  0  0  0
   25.1634  -15.2684    0.0000 O   0  0  0  0  0  0  0  0  0  0  0  0
   25.2360  -13.8399    0.0000 C   0  0  0  0  0  0  0  0  0  0  0  0
   24.4107  -13.8000    0.0000 C   0  0  0  0  0  0  0  0  0  0  0  0
   25.6849  -13.1515    0.0000 C   0  0  0  0  0  0  0  0  0  0  0  0
   28.8955  -10.5484    0.0000 P   0  0  0  0  0  0  0  0  0  0  0  0
   28.0780  -10.4237    0.0000 O   0  0  0  0  0  0  0  0  0  0  0  0
   29.0262   -9.7366    0.0000 O   0  0  0  0  0  0  0  0  0  0  0  0
   23.9767  -12.0927    0.0000 O   0  0  0  0  0  0  0  0  0  0  0  0
   24.4552  -11.4217    0.0000 C   0  0  0  0  0  0  0  0  0  0  0  0
   24.1215  -10.6711    0.0000 C   0  0  0  0  0  0  0  0  0  0  0  0
   24.5323   -9.9577    0.0000 C   0  0  0  0  0  0  0  0  0  0  0  0
   25.3562   -9.8721    0.0000 S   0  0  0  0  0  0  0  0  0  0  0  0
   23.9801   -9.3447    0.0000 C   0  0  0  0  0  0  0  0  0  0  0  0
   23.2296   -9.6783    0.0000 C   0  0  0  0  0  0  0  0  0  0  0  0
   23.3150  -10.5021    0.0000 O   0  0  0  0  0  0  0  0  0  0  0  0
   22.5162   -9.2673    0.0000 N   0  0  0  0  0  0  0  0  0  0  0  0
   22.5162   -8.4398    0.0000 C   0  0  0  0  0  0  0  0  0  0  0  0
   23.2296   -8.0289    0.0000 O   0  0  0  0  0  0  0  0  0  0  0  0
   21.8028   -8.0289    0.0000 N   0  0  0  0  0  0  0  0  0  0  0  0
   21.0894   -8.4398    0.0000 C   0  0  0  0  0  0  0  0  0  0  0  0
   20.3760   -8.0289    0.0000 N   0  0  0  0  0  0  0  0  0  0  0  0
   21.0894   -9.2673    0.0000 C   0  0  0  0  0  0  0  0  0  0  0  0
   21.8028   -9.6783    0.0000 C   0  0  0  0  0  0  0  0  0  0  0  0
   25.8405  -10.5373    0.0000 P   0  0  0  0  0  0  0  0  0  0  0  0
   25.1694  -11.0217    0.0000 O   0  0  0  0  0  0  0  0  0  0  0  0
   26.3248  -11.2024    0.0000 O   0  0  0  0  0  0  0  0  0  0  0  0
   20.3760   -9.6782    0.0000 C   0  0  0  0  0  0  0  0  0  0  0  0
   20.7693  -11.4668    0.0000 O   0  0  0  0  0  0  0  0  0  0  0  0
   21.5259  -11.8005    0.0000 C   0  0  0  0  0  0  0  0  0  0  0  0
   21.5717  -12.6256    0.0000 C   0  0  0  0  0  0  0  0  0  0  0  0
   22.2600  -13.0747    0.0000 C   0  0  0  0  0  0  0  0  0  0  0  0
   23.0287  -12.7738    0.0000 S   0  0  0  0  0  0  0  0  0  0  0  0
   22.0477  -13.8712    0.0000 C   0  0  0  0  0  0  0  0  0  0  0  0
   21.2226  -13.9111    0.0000 C   0  0  0  0  0  0  0  0  0  0  0  0
   20.9278  -13.1425    0.0000 O   0  0  0  0  0  0  0  0  0  0  0  0
   20.7736  -14.6053    0.0000 N   0  0  0  0  0  0  0  0  0  0  0  0
   19.9485  -14.6452    0.0000 C   0  0  0  0  0  0  0  0  0  0  0  0
   19.7362  -15.4418    0.0000 N   0  0  0  0  0  0  0  0  0  0  0  0
   20.4245  -15.8966    0.0000 C   0  0  0  0  0  0  0  0  0  0  0  0
   20.5551  -16.7083    0.0000 C   0  0  0  0  0  0  0  0  0  0  0  0
   19.9172  -17.2311    0.0000 O   0  0  0  0  0  0  0  0  0  0  0  0
   21.3236  -17.0032    0.0000 N   0  0  0  0  0  0  0  0  0  0  0  0
   21.9676  -16.4863    0.0000 C   0  0  0  0  0  0  0  0  0  0  0  0
   22.7361  -16.7811    0.0000 N   0  0  0  0  0  0  0  0  0  0  0  0
   21.8370  -15.6687    0.0000 N   0  0  0  0  0  0  0  0  0  0  0  0
   21.0684  -15.3739    0.0000 C   0  0  0  0  0  0  0  0  0  0  0  0
   23.1591  -11.9623    0.0000 P   0  0  0  0  0  0  0  0  0  0  0  0
   22.3416  -11.8317    0.0000 O   0  0  0  0  0  0  0  0  0  0  0  0
   23.2897  -11.1506    0.0000 O   0  0  0  0  0  0  0  0  0  0  0  0
   18.2344  -13.5007    0.0000 O   0  0  0  0  0  0  0  0  0  0  0  0
   18.7246  -12.8356    0.0000 C   0  0  0  0  0  0  0  0  0  0  0  0
   18.3851  -12.0849    0.0000 C   0  0  0  0  0  0  0  0  0  0  0  0
   18.7959  -11.3715    0.0000 C   0  0  0  0  0  0  0  0  0  0  0  0
   19.6198  -11.2800    0.0000 S   0  0  0  0  0  0  0  0  0  0  0  0
   18.2497  -10.7586    0.0000 C   0  0  0  0  0  0  0  0  0  0  0  0
   17.4932  -11.0921    0.0000 C   0  0  0  0  0  0  0  0  0  0  0  0
   17.5786  -11.9100    0.0000 O   0  0  0  0  0  0  0  0  0  0  0  0
   16.7798  -10.6813    0.0000 N   0  0  0  0  0  0  0  0  0  0  0  0
   16.0604  -11.0921    0.0000 C   0  0  0  0  0  0  0  0  0  0  0  0
   16.0604  -11.9138    0.0000 O   0  0  0  0  0  0  0  0  0  0  0  0
   15.3470  -10.6813    0.0000 N   0  0  0  0  0  0  0  0  0  0  0  0
   15.3470   -9.8537    0.0000 C   0  0  0  0  0  0  0  0  0  0  0  0
   14.6336   -9.4428    0.0000 O   0  0  0  0  0  0  0  0  0  0  0  0
   16.0604   -9.4428    0.0000 C   0  0  0  0  0  0  0  0  0  0  0  0
   16.0604   -8.6151    0.0000 C   0  0  0  0  0  0  0  0  0  0  0  0
   16.7798   -9.8537    0.0000 C   0  0  0  0  0  0  0  0  0  0  0  0
   20.1041  -11.9453    0.0000 P   0  0  0  0  0  0  0  0  0  0  0  0
   19.4390  -12.4354    0.0000 O   0  0  0  0  0  0  0  0  0  0  0  0
   20.5884  -12.6164    0.0000 O   0  0  0  0  0  0  0  0  0  0  0  0
   15.0328  -12.8749    0.0000 O   0  0  0  0  0  0  0  0  0  0  0  0
   15.7894  -13.2084    0.0000 C   0  0  0  0  0  0  0  0  0  0  0  0
   15.8293  -14.0396    0.0000 C   0  0  0  0  0  0  0  0  0  0  0  0
   16.5236  -14.4826    0.0000 C   0  0  0  0  0  0  0  0  0  0  0  0
   17.2921  -14.1878    0.0000 S   0  0  0  0  0  0  0  0  0  0  0  0
   16.3113  -15.2791    0.0000 C   0  0  0  0  0  0  0  0  0  0  0  0
   15.4861  -15.3250    0.0000 C   0  0  0  0  0  0  0  0  0  0  0  0
   15.1914  -14.5563    0.0000 O   0  0  0  0  0  0  0  0  0  0  0  0
   15.0372  -16.0132    0.0000 N   0  0  0  0  0  0  0  0  0  0  0  0
   15.4135  -16.7535    0.0000 C   0  0  0  0  0  0  0  0  0  0  0  0
   16.2327  -16.7934    0.0000 O   0  0  0  0  0  0  0  0  0  0  0  0
   14.9586  -17.4417    0.0000 N   0  0  0  0  0  0  0  0  0  0  0  0
   14.1394  -17.4019    0.0000 C   0  0  0  0  0  0  0  0  0  0  0  0
   13.6846  -18.0902    0.0000 N   0  0  0  0  0  0  0  0  0  0  0  0
   13.7630  -16.6617    0.0000 C   0  0  0  0  0  0  0  0  0  0  0  0
   14.2120  -15.9734    0.0000 C   0  0  0  0  0  0  0  0  0  0  0  0
   17.4227  -13.3760    0.0000 P   0  0  0  0  0  0  0  0  0  0  0  0
   16.6052  -13.2456    0.0000 O   0  0  0  0  0  0  0  0  0  0  0  0
   17.5533  -12.5585    0.0000 O   0  0  0  0  0  0  0  0  0  0  0  0
   12.9379  -16.6219    0.0000 C   0  0  0  0  0  0  0  0  0  0  0  0
   12.0693  -10.8077    0.0000 O   0  0  0  0  0  0  0  0  0  0  0  0
   12.6822  -11.3601    0.0000 C   0  0  0  0  0  0  0  0  0  0  0  0
   12.5073  -12.1665    0.0000 C   0  0  0  0  0  0  0  0  0  0  0  0
   13.0595  -12.7794    0.0000 C   0  0  0  0  0  0  0  0  0  0  0  0
   13.8834  -12.6940    0.0000 S   0  0  0  0  0  0  0  0  0  0  0  0
   12.6486  -13.4928    0.0000 C   0  0  0  0  0  0  0  0  0  0  0  0
   11.8422  -13.3239    0.0000 C   0  0  0  0  0  0  0  0  0  0  0  0
   11.7566  -12.5000    0.0000 O   0  0  0  0  0  0  0  0  0  0  0  0
   11.2292  -13.8761    0.0000 N   0  0  0  0  0  0  0  0  0  0  0  0
   11.3982  -14.6826    0.0000 C   0  0  0  0  0  0  0  0  0  0  0  0
   12.1861  -14.9369    0.0000 O   0  0  0  0  0  0  0  0  0  0  0  0
   10.7851  -15.2348    0.0000 N   0  0  0  0  0  0  0  0  0  0  0  0
   10.0033  -14.9806    0.0000 C   0  0  0  0  0  0  0  0  0  0  0  0
    9.3902  -15.5328    0.0000 O   0  0  0  0  0  0  0  0  0  0  0  0
    9.8342  -14.1740    0.0000 C   0  0  0  0  0  0  0  0  0  0  0  0
    9.0464  -13.9198    0.0000 C   0  0  0  0  0  0  0  0  0  0  0  0
   10.4473  -13.6218    0.0000 C   0  0  0  0  0  0  0  0  0  0  0  0
   14.3677  -13.3592    0.0000 P   0  0  0  0  0  0  0  0  0  0  0  0
   13.6966  -13.8493    0.0000 O   0  0  0  0  0  0  0  0  0  0  0  0
   14.8520  -14.0303    0.0000 O   0  0  0  0  0  0  0  0  0  0  0  0
    9.4394  -10.6301    0.0000 O   0  0  0  0  0  0  0  0  0  0  0  0
    9.3276   -9.5652    0.0000 C   0  0  0  0  0  0  0  0  0  0  0  0
   10.3954   -8.7902    0.0000 C   0  0  0  0  0  0  0  0  0  0  0  0
   11.1774   -9.0445    0.0000 C   0  0  0  0  0  0  0  0  0  0  0  0
   11.4317   -9.8264    0.0000 S   0  0  0  0  0  0  0  0  0  0  0  0
   11.6617   -8.3793    0.0000 C   0  0  0  0  0  0  0  0  0  0  0  0
   11.1774   -7.7082    0.0000 C   0  0  0  0  0  0  0  0  0  0  0  0
   10.3954   -7.9626    0.0000 O   0  0  0  0  0  0  0  0  0  0  0  0
   11.5080   -6.6906    0.0000 N   0  0  0  0  0  0  0  0  0  0  0  0
   12.2958   -6.4362    0.0000 C   0  0  0  0  0  0  0  0  0  0  0  0
   12.2958   -5.6145    0.0000 N   0  0  0  0  0  0  0  0  0  0  0  0
   11.5080   -5.3543    0.0000 C   0  0  0  0  0  0  0  0  0  0  0  0
   11.1744   -4.6037    0.0000 C   0  0  0  0  0  0  0  0  0  0  0  0
   11.6587   -3.9326    0.0000 O   0  0  0  0  0  0  0  0  0  0  0  0
   10.3506   -4.5181    0.0000 N   0  0  0  0  0  0  0  0  0  0  0  0
    9.8723   -5.1834    0.0000 C   0  0  0  0  0  0  0  0  0  0  0  0
    9.0484   -5.0979    0.0000 N   0  0  0  0  0  0  0  0  0  0  0  0
   10.2058   -5.9399    0.0000 N   0  0  0  0  0  0  0  0  0  0  0  0
   11.0237   -6.0254    0.0000 C   0  0  0  0  0  0  0  0  0  0  0  0
   12.2382  -10.0013    0.0000 P   0  0  0  0  0  0  0  0  0  0  0  0
   12.4131   -9.1947    0.0000 O   0  0  0  0  0  0  0  0  0  0  0  0
   13.0446  -10.1702    0.0000 O   0  0  0  0  0  0  0  0  0  0  0  0
    7.6964  -10.0879    0.0000 O   0  0  0  0  0  0  0  0  0  0  0  0
    8.3093  -10.6401    0.0000 C   0  0  0  0  0  0  0  0  0  0  0  0
    8.1344  -11.4467    0.0000 C   0  0  0  0  0  0  0  0  0  0  0  0
    8.6867  -12.0596    0.0000 C   0  0  0  0  0  0  0  0  0  0  0  0
    9.7577  -11.9478    0.0000 S   0  0  0  0  0  0  0  0  0  0  0  0
    8.2759  -12.7730    0.0000 C   0  0  0  0  0  0  0  0  0  0  0  0
    7.4693  -12.6041    0.0000 C   0  0  0  0  0  0  0  0  0  0  0  0
    7.3838  -11.7802    0.0000 O   0  0  0  0  0  0  0  0  0  0  0  0
    6.8564  -13.1563    0.0000 N   0  0  0  0  0  0  0  0  0  0  0  0
    6.9418  -13.9741    0.0000 C   0  0  0  0  0  0  0  0  0  0  0  0
    6.1911  -14.3137    0.0000 N   0  0  0  0  0  0  0  0  0  0  0  0
    5.6331  -13.7007    0.0000 C   0  0  0  0  0  0  0  0  0  0  0  0
    4.8114  -13.7007    0.0000 C   0  0  0  0  0  0  0  0  0  0  0  0
    4.4005  -14.4141    0.0000 N   0  0  0  0  0  0  0  0  0  0  0  0
    4.4005  -12.9813    0.0000 N   0  0  0  0  0  0  0  0  0  0  0  0
    4.8114  -12.2679    0.0000 C   0  0  0  0  0  0  0  0  0  0  0  0
    5.6331  -12.2679    0.0000 N   0  0  0  0  0  0  0  0  0  0  0  0
    6.0498  -12.9813    0.0000 C   0  0  0  0  0  0  0  0  0  0  0  0
   10.1901  -10.9696    0.0000 P   0  0  0  0  0  0  0  0  0  0  0  0
   10.9466  -11.3032    0.0000 O   0  0  0  0  0  0  0  0  0  0  0  0
   10.5236  -10.2131    0.0000 O   0  0  0  0  0  0  0  0  0  0  0  0
    3.9631   -8.1067    0.0000 O   0  0  0  0  0  0  0  0  0  0  0  0
    4.7352   -8.3978    0.0000 C   0  0  0  0  0  0  0  0  0  0  0  0
    5.3727   -7.8729    0.0000 C   0  0  0  0  0  0  0  0  0  0  0  0
    6.1718   -8.0809    0.0000 C   0  0  0  0  0  0  0  0  0  0  0  0
    6.5583   -9.0830    0.0000 S   0  0  0  0  0  0  0  0  0  0  0  0
    6.6180   -7.3870    0.0000 C   0  0  0  0  0  0  0  0  0  0  0  0
    7.6859   -7.3294    0.0000 O   0  0  0  0  0  0  0  0  0  0  0  0
    6.0931   -6.7496    0.0000 C   0  0  0  0  0  0  0  0  0  0  0  0
    5.3283   -7.0541    0.0000 O   0  0  0  0  0  0  0  0  0  0  0  0
    6.3036   -5.9541    0.0000 N   0  0  0  0  0  0  0  0  0  0  0  0
    7.0989   -5.7304    0.0000 C   0  0  0  0  0  0  0  0  0  0  0  0
    7.6831   -6.3147    0.0000 O   0  0  0  0  0  0  0  0  0  0  0  0
    7.3057   -4.9386    0.0000 N   0  0  0  0  0  0  0  0  0  0  0  0
    6.7213   -4.3542    0.0000 C   0  0  0  0  0  0  0  0  0  0  0  0
    6.9258   -3.5587    0.0000 N   0  0  0  0  0  0  0  0  0  0  0  0
    5.9200   -4.5779    0.0000 C   0  0  0  0  0  0  0  0  0  0  0  0
    5.7193   -5.3697    0.0000 C   0  0  0  0  0  0  0  0  0  0  0  0
    7.8653   -9.2815    0.0000 P   0  0  0  0  0  0  0  0  0  0  0  0
    8.1334   -8.5001    0.0000 O   0  0  0  0  0  0  0  0  0  0  0  0
    8.6591   -9.4977    0.0000 O   0  0  0  0  0  0  0  0  0  0  0  0
    5.3358   -3.9935    0.0000 C   0  0  0  0  0  0  0  0  0  0  0  0
    8.1435   -8.0181    0.0000 C   0  0  0  0  0  0  0  0  0  0  0  0
    8.9622   -7.9677    0.0000 C   0  0  0  0  0  0  0  0  0  0  0  0
    9.3352   -7.2288    0.0000 O   0  0  0  0  0  0  0  0  0  0  0  0
   10.1598   -7.1845    0.0000 C   0  0  0  0  0  0  0  0  0  0  0  0
    0.4027   -7.4910    0.0000 O   0  0  0  0  0  0  0  0  0  0  0  0
    1.2226   -7.5266    0.0000 C   0  0  0  0  0  0  0  0  0  0  0  0
    1.6686   -6.8385    0.0000 C   0  0  0  0  0  0  0  0  0  0  0  0
    2.4933   -6.7882    0.0000 C   0  0  0  0  0  0  0  0  0  0  0  0
    3.0182   -7.4256    0.0000 S   0  0  0  0  0  0  0  0  0  0  0  0
    2.7015   -5.9891    0.0000 C   0  0  0  0  0  0  0  0  0  0  0  0
    3.4662   -5.6905    0.0000 O   0  0  0  0  0  0  0  0  0  0  0  0
    2.0074   -5.5429    0.0000 C   0  0  0  0  0  0  0  0  0  0  0  0
    1.3700   -6.0678    0.0000 O   0  0  0  0  0  0  0  0  0  0  0  0
    1.9572   -4.7182    0.0000 N   0  0  0  0  0  0  0  0  0  0  0  0
    1.2243   -4.3512    0.0000 C   0  0  0  0  0  0  0  0  0  0  0  0
    0.5356   -4.8028    0.0000 O   0  0  0  0  0  0  0  0  0  0  0  0
    1.1740   -3.5265    0.0000 N   0  0  0  0  0  0  0  0  0  0  0  0
    1.8626   -3.0749    0.0000 C   0  0  0  0  0  0  0  0  0  0  0  0
    1.8123   -2.2502    0.0000 O   0  0  0  0  0  0  0  0  0  0  0  0
    2.6015   -3.4419    0.0000 C   0  0  0  0  0  0  0  0  0  0  0  0
    2.6458   -4.2666    0.0000 C   0  0  0  0  0  0  0  0  0  0  0  0
    3.8282   -7.2908    0.0000 P   0  0  0  0  0  0  0  0  0  0  0  0
    3.6933   -6.4808    0.0000 O   0  0  0  0  0  0  0  0  0  0  0  0
    4.6440   -7.1618    0.0000 O   0  0  0  0  0  0  0  0  0  0  0  0
    3.2901   -2.9903    0.0000 C   0  0  0  0  0  0  0  0  0  0  0  0
    3.5925   -4.8713    0.0000 C   0  0  0  0  0  0  0  0  0  0  0  0
    4.3632   -4.5727    0.0000 C   0  0  0  0  0  0  0  0  0  0  0  0
    4.4895   -3.7596    0.0000 O   0  0  0  0  0  0  0  0  0  0  0  0
    5.2544   -3.4550    0.0000 C   0  0  0  0  0  0  0  0  0  0  0  0
   -1.2178  -10.3101    0.0000 O   0  0  0  0  0  0  0  0  0  0  0  0
   -1.0111   -9.5183    0.0000 C   0  0  0  0  0  0  0  0  0  0  0  0
   -1.5954   -8.9339    0.0000 C   0  0  0  0  0  0  0  0  0  0  0  0
   -1.4728   -8.1185    0.0000 C   0  0  0  0  0  0  0  0  0  0  0  0
   -0.7434   -7.7390    0.0000 S   0  0  0  0  0  0  0  0  0  0  0  0
   -2.2080   -7.7492    0.0000 C   0  0  0  0  0  0  0  0  0  0  0  0
   -2.3407   -6.9355    0.0000 O   0  0  0  0  0  0  0  0  0  0  0  0
   -2.7922   -8.3334    0.0000 C   0  0  0  0  0  0  0  0  0  0  0  0
   -2.4090   -9.0726    0.0000 O   0  0  0  0  0  0  0  0  0  0  0  0
   -3.6078   -8.2108    0.0000 N   0  0  0  0  0  0  0  0  0  0  0  0
   -3.9063   -7.4461    0.0000 C   0  0  0  0  0  0  0  0  0  0  0  0
   -3.3917   -6.8016    0.0000 O   0  0  0  0  0  0  0  0  0  0  0  0
   -4.7196   -7.3198    0.0000 N   0  0  0  0  0  0  0  0  0  0  0  0
   -5.2342   -7.9643    0.0000 C   0  0  0  0  0  0  0  0  0  0  0  0
   -6.0534   -7.8380    0.0000 N   0  0  0  0  0  0  0  0  0  0  0  0
   -4.9357   -8.7350    0.0000 C   0  0  0  0  0  0  0  0  0  0  0  0
   -4.1224   -8.8553    0.0000 C   0  0  0  0  0  0  0  0  0  0  0  0
   -0.0434   -8.1851    0.0000 P   0  0  0  0  0  0  0  0  0  0  0  0
    0.6505   -8.6311    0.0000 O   0  0  0  0  0  0  0  0  0  0  0  0
   -0.4896   -8.8791    0.0000 O   0  0  0  0  0  0  0  0  0  0  0  0
   -5.4505   -9.3737    0.0000 C   0  0  0  0  0  0  0  0  0  0  0  0
   -1.7033   -6.4106    0.0000 C   0  0  0  0  0  0  0  0  0  0  0  0
   -0.9310   -6.7017    0.0000 C   0  0  0  0  0  0  0  0  0  0  0  0
   -0.2937   -6.1828    0.0000 O   0  0  0  0  0  0  0  0  0  0  0  0
    0.4786   -6.4738    0.0000 C   0  0  0  0  0  0  0  0  0  0  0  0
   -3.3749  -12.7660    0.0000 O   0  0  0  0  0  0  0  0  0  0  0  0
   -2.6901  -12.2954    0.0000 C   0  0  0  0  0  0  0  0  0  0  0  0
   -1.9311  -12.6727    0.0000 C   0  0  0  0  0  0  0  0  0  0  0  0
   -1.2296  -12.2697    0.0000 C   0  0  0  0  0  0  0  0  0  0  0  0
   -1.2296  -11.4489    0.0000 S   0  0  0  0  0  0  0  0  0  0  0  0
   -0.6412  -12.8580    0.0000 C   0  0  0  0  0  0  0  0  0  0  0  0
    0.1905  -12.7001    0.0000 O   0  0  0  0  0  0  0  0  0  0  0  0
   -0.9976  -13.5890    0.0000 C   0  0  0  0  0  0  0  0  0  0  0  0
   -1.7985  -13.4681    0.0000 O   0  0  0  0  0  0  0  0  0  0  0  0
   -0.5868  -14.3082    0.0000 N   0  0  0  0  0  0  0  0  0  0  0  0
    0.2392  -14.3482    0.0000 C   0  0  0  0  0  0  0  0  0  0  0  0
    0.6501  -13.6348    0.0000 O   0  0  0  0  0  0  0  0  0  0  0  0
    0.6016  -15.0598    0.0000 N   0  0  0  0  0  0  0  0  0  0  0  0
    0.1908  -15.7790    0.0000 C   0  0  0  0  0  0  0  0  0  0  0  0
    0.5621  -16.4947    0.0000 N   0  0  0  0  0  0  0  0  0  0  0  0
   -0.6447  -15.7790    0.0000 C   0  0  0  0  0  0  0  0  0  0  0  0
   -1.0053  -15.0335    0.0000 C   0  0  0  0  0  0  0  0  0  0  0  0
   -0.6335  -10.8945    0.0000 P   0  0  0  0  0  0  0  0  0  0  0  0
    0.0156  -11.4011    0.0000 O   0  0  0  0  0  0  0  0  0  0  0  0
   -0.0873  -10.2760    0.0000 O   0  0  0  0  0  0  0  0  0  0  0  0
   -1.0851  -16.4415    0.0000 C   0  0  0  0  0  0  0  0  0  0  0  0
    0.4739  -11.9265    0.0000 C   0  0  0  0  0  0  0  0  0  0  0  0
    1.2804  -11.7831    0.0000 C   0  0  0  0  0  0  0  0  0  0  0  0
    1.8153  -12.4131    0.0000 O   0  0  0  0  0  0  0  0  0  0  0  0
    1.5318  -13.1867    0.0000 C   0  0  0  0  0  0  0  0  0  0  0  0
   -6.1573  -11.0640    0.0000 O   0  0  0  0  0  0  0  0  0  0  0  0
   -5.5789  -11.6483    0.0000 C   0  0  0  0  0  0  0  0  0  0  0  0
   -5.8164  -12.4344    0.0000 C   0  0  0  0  0  0  0  0  0  0  0  0
   -5.3130  -13.0701    0.0000 C   0  0  0  0  0  0  0  0  0  0  0  0
   -4.5068  -13.0701    0.0000 S   0  0  0  0  0  0  0  0  0  0  0  0
   -5.7897  -13.7702    0.0000 C   0  0  0  0  0  0  0  0  0  0  0  0
   -5.5238  -14.5482    0.0000 O   0  0  0  0  0  0  0  0  0  0  0  0
   -6.5847  -13.5278    0.0000 C   0  0  0  0  0  0  0  0  0  0  0  0
   -6.5847  -12.7064    0.0000 O   0  0  0  0  0  0  0  0  0  0  0  0
   -7.2299  -14.0253    0.0000 N   0  0  0  0  0  0  0  0  0  0  0  0
   -7.2299  -14.8467    0.0000 C   0  0  0  0  0  0  0  0  0  0  0  0
   -8.0042  -15.1126    0.0000 N   0  0  0  0  0  0  0  0  0  0  0  0
   -8.5016  -14.4601    0.0000 C   0  0  0  0  0  0  0  0  0  0  0  0
   -9.3266  -14.3878    0.0000 C   0  0  0  0  0  0  0  0  0  0  0  0
   -9.7967  -15.0592    0.0000 O   0  0  0  0  0  0  0  0  0  0  0  0
   -9.6733  -13.6381    0.0000 N   0  0  0  0  0  0  0  0  0  0  0  0
   -9.2033  -12.9609    0.0000 C   0  0  0  0  0  0  0  0  0  0  0  0
   -9.5560  -12.2172    0.0000 N   0  0  0  0  0  0  0  0  0  0  0  0
   -8.3749  -13.0332    0.0000 N   0  0  0  0  0  0  0  0  0  0  0  0
   -8.0249  -13.7828    0.0000 C   0  0  0  0  0  0  0  0  0  0  0  0
   -4.0883  -12.3493    0.0000 P   0  0  0  0  0  0  0  0  0  0  0  0
   -4.8018  -11.9383    0.0000 O   0  0  0  0  0  0  0  0  0  0  0  0
   -3.6793  -11.6433    0.0000 O   0  0  0  0  0  0  0  0  0  0  0  0
   -4.7016  -14.6598    0.0000 C   0  0  0  0  0  0  0  0  0  0  0  0
   -4.1973  -14.0144    0.0000 C   0  0  0  0  0  0  0  0  0  0  0  0
   -3.3810  -14.1260    0.0000 O   0  0  0  0  0  0  0  0  0  0  0  0
   -2.8707  -13.4805    0.0000 C   0  0  0  0  0  0  0  0  0  0  0  0
  1  2  1  0
  3  2  1  1
  3  4  1  0
  4  5  1  6
  4  6  1  0
  6  7  1  6
  6  8  1  0
  8  9  1  0
  3  9  1  0
  8 10  1  1
 10 11  1  0
 11 12  2  0
 11 13  1  0
 13 14  2  0
 14 15  1  0
 14 16  1  0
 16 17  2  0
 10 17  1  0
 16 18  1  0
 19 20  1  0
 21 22  1  0
 20 21  1  0
  7 19  1  0
 23 24  1  0
 25 24  1  1
 25 26  1  0
 26 27  1  6
 26 28  1  0
 28 29  1  6
 28 30  1  0
 30 31  1  0
 25 31  1  0
 30 32  1  1
 32 33  1  0
 33 34  2  0
 33 35  1  0
 35 36  2  0
 36 37  1  0
 36 38  1  0
 38 39  2  0
 32 39  1  0
 27 40  1  0
 40 41  2  0
 40 42  1  0
 38 43  1  0
 44 45  1  0
 46 47  1  0
 45 46  1  0
 29 44  1  0
 48 49  1  0
 50 49  1  1
 50 51  1  0
 51 52  1  6
 51 53  1  0
 53 54  1  6
 53 55  1  0
 55 56  1  0
 50 56  1  0
 55 57  1  1
 57 58  1  0
 58 59  2  0
 59 60  1  0
 60 61  1  0
 61 62  1  0
 61 63  2  0
 63 64  1  0
 64 65  2  0
 65 66  1  0
 60 66  2  0
 57 66  1  0
 52 67  1  0
 67 68  2  0
 67 69  1  0
 70 71  1  0
 72 73  1  0
 71 72  1  0
 54 70  1  0
 74 75  1  0
 76 75  1  6
 76 77  1  0
 77 78  1  1
 77 79  1  0
 79 80  1  1
 79 81  1  0
 81 82  1  0
 76 82  1  0
 81 83  1  6
 83 84  1  0
 84 85  2  0
 84 86  1  0
 86 87  2  0
 87 88  1  0
 87 89  1  0
 89 90  2  0
 83 90  1  0
 78 91  1  0
 91 92  2  0
 91 93  1  0
 89 94  1  0
 95 96  1  0
 97 98  1  0
 96 97  1  0
 80 95  1  0
 99100  1  0
101100  1  6
101102  1  0
102103  1  1
102104  1  0
104105  1  1
104106  1  0
106107  1  0
101107  1  0
106108  1  6
108109  1  0
109110  2  0
110111  1  0
111112  1  0
112113  2  0
112114  1  0
114115  1  0
115116  1  0
115117  2  0
117118  1  0
111118  2  0
108118  1  0
103119  1  0
119120  2  0
119121  1  0
122123  1  0
124125  1  0
123124  1  0
105122  1  0
126127  1  0
128127  1  6
128129  1  0
129130  1  1
129131  1  0
131132  1  0
132133  1  0
128133  1  0
132134  1  6
134135  1  0
135136  2  0
135137  1  0
137138  2  0
138139  1  0
138140  1  0
140141  2  0
134141  1  0
130142  1  0
142143  2  0
142144  1  0
140145  1  0
146147  1  0
148147  1  1
148149  1  0
149150  1  6
149151  1  0
151152  1  0
152153  1  0
148153  1  0
152154  1  1
154155  1  0
155156  2  0
155157  1  0
157158  1  0
158159  2  0
158160  1  0
160161  1  0
160162  2  0
154162  1  0
150163  1  0
163164  2  0
163165  1  0
166167  1  0
168167  1  6
168169  1  0
169170  1  1
169171  1  0
171172  1  0
172173  1  0
168173  1  0
172174  1  6
174175  1  0
175176  2  0
175177  1  0
177178  1  0
178179  2  0
178180  1  0
180181  1  0
180182  2  0
174182  1  0
170183  1  0
183184  2  0
183185  1  0
186187  1  0
188187  1  1
188189  1  0
189190  1  6
189191  1  0
191192  1  0
192193  1  0
188193  1  0
192194  1  1
194195  1  0
195196  2  0
195197  1  0
197198  2  0
198199  1  0
198200  1  0
200201  2  0
194201  1  0
190202  1  0
202203  2  0
202204  1  0
200205  1  0
206207  1  0
208207  1  6
208209  1  0
209210  1  1
209211  1  0
211212  1  0
212213  1  0
208213  1  0
212214  1  6
214215  1  0
215216  2  0
216217  1  0
217218  1  0
218219  2  0
218220  1  0
220221  1  0
221222  1  0
221223  2  0
223224  1  0
217224  2  0
214224  1  0
210225  1  0
225226  2  0
225227  1  0
228229  1  0
230229  1  1
230231  1  0
231232  1  6
231233  1  0
233234  1  0
234235  1  0
230235  1  0
234236  1  1
236237  1  0
237238  2  0
237239  1  0
239240  1  0
240241  2  0
240242  1  0
242243  1  0
242244  2  0
236244  1  0
232245  1  0
245246  2  0
245247  1  0
248249  1  0
250249  1  6
250251  1  0
251252  1  1
251253  1  0
253254  1  0
254255  1  0
250255  1  0
254256  1  6
256257  1  0
257258  2  0
257259  1  0
259260  2  0
260261  1  0
260262  1  0
262263  2  0
256263  1  0
252264  1  0
264265  2  0
264266  1  0
262267  1  0
268269  1  0
270269  1  6
270271  1  0
271272  1  1
271273  1  0
273274  1  0
274275  1  0
270275  1  0
274276  1  6
276277  1  0
277278  2  0
277279  1  0
279280  1  0
280281  2  0
280282  1  0
282283  1  0
282284  2  0
276284  1  0
272285  1  0
285286  2  0
285287  1  0
288289  1  0
290289  1  1
290291  1  0
291292  1  6
291293  1  0
293294  1  0
294295  1  0
290295  1  0
294296  1  1
296297  1  0
297298  2  0
298299  1  0
299300  1  0
300301  2  0
300302  1  0
302303  1  0
303304  1  0
303305  2  0
305306  1  0
299306  2  0
296306  1  0
292307  1  0
307308  2  0
307309  1  0
310311  1  0
312311  1  6
312313  1  0
313314  1  1
313315  1  0
315316  1  0
316317  1  0
312317  1  0
316318  1  6
318319  1  0
319320  2  0
320321  1  0
321322  1  0
322323  1  0
322324  2  0
324325  1  0
325326  2  0
326327  1  0
321327  2  0
318327  1  0
314328  1  0
328329  2  0
328330  1  0
331332  1  0
333332  1  1
333334  1  0
334335  1  6
334336  1  0
336337  1  6
336338  1  0
338339  1  0
333339  1  0
338340  1  1
340341  1  0
341342  2  0
341343  1  0
343344  2  0
344345  1  0
344346  1  0
346347  2  0
340347  1  0
335348  1  0
348349  2  0
348350  1  0
346351  1  0
352353  1  0
354355  1  0
353354  1  0
337352  1  0
356357  1  0
358357  1  1
358359  1  0
359360  1  6
359361  1  0
361362  1  6
361363  1  0
363364  1  0
358364  1  0
363365  1  1
365366  1  0
366367  2  0
366368  1  0
368369  1  0
369370  2  0
369371  1  0
371372  2  0
365372  1  0
360373  1  0
373374  2  0
373375  1  0
371376  1  0
377378  1  0
379380  1  0
378379  1  0
362377  1  0
381382  1  0
383382  1  1
383384  1  0
384385  1  6
384386  1  0
386387  1  6
386388  1  0
388389  1  0
383389  1  0
388390  1  1
390391  1  0
391392  2  0
391393  1  0
393394  2  0
394395  1  0
394396  1  0
396397  2  0
390397  1  0
385398  1  0
398399  2  0
398400  1  0
396401  1  0
402403  1  0
404405  1  0
403404  1  0
387402  1  0
406407  1  0
408407  1  6
408409  1  0
409410  1  1
409411  1  0
411412  1  1
411413  1  0
413414  1  0
408414  1  0
413415  1  6
415416  1  0
416417  2  0
416418  1  0
418419  2  0
419420  1  0
419421  1  0
421422  2  0
415422  1  0
410423  1  0
423424  2  0
423425  1  0
421426  1  0
427428  1  0
429430  1  0
428429  1  0
412427  1  0
431432  1  0
433432  1  6
433434  1  0
434435  1  1
434436  1  0
436437  1  1
436438  1  0
438439  1  0
433439  1  0
438440  1  6
440441  1  0
441442  2  0
442443  1  0
443444  1  0
444445  2  0
444446  1  0
446447  1  0
447448  1  0
447449  2  0
449450  1  0
443450  2  0
440450  1  0
435451  1  0
451452  2  0
451453  1  0
454455  1  0
456457  1  0
455456  1  0
437454  1  0
406451  1  0
381423  1  0
356398  1  0
331373  1  0
310348  1  0
288328  1  0
268307  1  0
248285  1  0
228264  1  0
206245  1  0
186225  1  0
166202  1  0
146183  1  0
126163  1  0
 99142  1  0
 74119  1  0
 48 91  1  0
 23 67  1  0
  1 40  1  0
M  END
> <chembl_id>
CHEMBL2219536

> <chembl_pref_name>
MIPOMERSEN
