
     RDKit          2D

 22 22  0  0  0  0  0  0  0  0999 V2000
    6.3917   -2.2667    0.0000 C   0  0  0  0  0  0  0  0  0  0  0  0
    0.2542   -2.2417    0.0000 C   0  0  0  0  0  0  0  0  0  0  0  0
    6.3792   -2.9792    0.0000 O   0  0  0  0  0  0  0  0  0  0  0  0
    0.2417   -2.9375    0.0000 C   0  0  0  0  0  0  0  0  0  0  0  0
   -0.3500   -1.8792    0.0000 C   0  0  0  0  0  0  0  0  0  0  0  0
   -0.9833   -2.9292    0.0000 C   0  0  0  0  0  0  0  0  0  0  0  0
    0.8667   -1.8875    0.0000 C   0  0  0  0  0  0  0  0  0  0  0  0
   -0.9833   -2.2250    0.0000 C   0  0  0  0  0  0  0  0  0  0  0  0
   -0.3750   -3.2917    0.0000 C   0  0  0  0  0  0  0  0  0  0  0  0
    7.0125   -1.9125    0.0000 O   0  0  0  0  0  0  0  0  0  0  0  0
   -1.6208   -3.2792    0.0000 I   0  0  0  0  0  0  0  0  0  0  0  0
    5.8000   -1.9125    0.0000 C   0  0  0  0  0  0  0  0  0  0  0  0
    1.4667   -2.2500    0.0000 C   0  0  0  0  0  0  0  0  0  0  0  0
    7.6167   -2.2667    0.0000 C   0  0  0  0  0  0  0  0  0  0  0  0
    0.8750   -1.1917    0.0000 C   0  0  0  0  0  0  0  0  0  0  0  0
    5.1792   -2.2542    0.0000 C   0  0  0  0  0  0  0  0  0  0  0  0
    2.1000   -1.8917    0.0000 C   0  0  0  0  0  0  0  0  0  0  0  0
    3.9417   -2.2542    0.0000 C   0  0  0  0  0  0  0  0  0  0  0  0
    4.5542   -1.9042    0.0000 C   0  0  0  0  0  0  0  0  0  0  0  0
    2.7125   -2.2417    0.0000 C   0  0  0  0  0  0  0  0  0  0  0  0
    3.3292   -1.9042    0.0000 C   0  0  0  0  0  0  0  0  0  0  0  0
    8.2292   -1.9167    0.0000 C   0  0  0  0  0  0  0  0  0  0  0  0
  2  7  1  0
  3  1  2  0
  4  2  2  0
  5  2  1  0
  6  8  1  0
  7 13  1  0
  8  5  2  0
  9  4  1  0
 10  1  1  0
 11  6  1  0
 12  1  1  0
 13 17  1  0
 14 10  1  0
 15  7  1  0
 16 12  1  0
 17 20  1  0
 18 19  1  0
 19 16  1  0
 20 21  1  0
 21 18  1  0
 22 14  1  0
  6  9  2  0
M  END
> <chembl_id>
CHEMBL951

> <chembl_pref_name>
IOPHENDYLATE
