
     RDKit          2D

 22 24  0  0  0  0  0  0  0  0999 V2000
    0.4625   -4.4125    0.0000 S   0  0  0  0  0  0  0  0  0  0  0  0
    1.6917   -4.4042    0.0000 C   0  0  0  0  0  0  0  0  0  0  0  0
    1.0750   -4.0542    0.0000 N   0  0  0  0  0  0  0  0  0  0  0  0
    2.2625   -3.9875    0.0000 N   0  0  0  0  0  0  0  0  0  0  0  0
    1.9125   -5.0792    0.0000 C   0  0  0  0  0  0  0  0  0  0  0  0
    2.8375   -4.4042    0.0000 N   0  0  0  0  0  0  0  0  0  0  0  0
   -0.1542   -4.0583    0.0000 C   0  0  0  0  0  0  0  0  0  0  0  0
    0.8125   -5.0250    0.0000 O   0  0  0  0  0  0  0  0  0  0  0  0
    0.1042   -5.0250    0.0000 O   0  0  0  0  0  0  0  0  0  0  0  0
    2.6167   -5.0792    0.0000 C   0  0  0  0  0  0  0  0  0  0  0  0
    2.2625   -3.2792    0.0000 C   0  0  0  0  0  0  0  0  0  0  0  0
   -0.1542   -3.3458    0.0000 C   0  0  0  0  0  0  0  0  0  0  0  0
   -0.7667   -4.4125    0.0000 C   0  0  0  0  0  0  0  0  0  0  0  0
   -1.3792   -3.3500    0.0000 C   0  0  0  0  0  0  0  0  0  0  0  0
   -1.9917   -2.9917    0.0000 N   0  0  0  0  0  0  0  0  0  0  0  0
   -1.3792   -4.0583    0.0000 C   0  0  0  0  0  0  0  0  0  0  0  0
   -0.7667   -2.9917    0.0000 C   0  0  0  0  0  0  0  0  0  0  0  0
    2.8792   -2.9250    0.0000 C   0  0  0  0  0  0  0  0  0  0  0  0
    1.6542   -2.9250    0.0000 C   0  0  0  0  0  0  0  0  0  0  0  0
    1.6500   -2.2208    0.0000 C   0  0  0  0  0  0  0  0  0  0  0  0
    2.8792   -2.2167    0.0000 C   0  0  0  0  0  0  0  0  0  0  0  0
    2.2667   -1.8625    0.0000 C   0  0  0  0  0  0  0  0  0  0  0  0
  2  3  1  0
  3  1  1  0
  4  2  1  0
  5  2  2  0
  6  4  1  0
  7  1  1  0
  8  1  2  0
  9  1  2  0
 10  5  1  0
 11  4  1  0
 12  7  1  0
 13  7  2  0
 14 17  1  0
 15 14  1  0
 16 13  1  0
 17 12  2  0
 18 11  2  0
 19 11  1  0
 20 19  2  0
 21 18  1  0
 22 20  1  0
 16 14  2  0
  6 10  2  0
 22 21  2  0
M  END
> <chembl_id>
CHEMBL1109

> <chembl_pref_name>
SULFAPHENAZOLE
