
     RDKit          2D

121127  0  0  0  0  0  0  0  0999 V2000
   19.1518  -10.7545    0.0000 C   0  0  0  0  0  0  0  0  0  0  0  0
   19.7351  -11.3378    0.0000 O   0  0  0  0  0  0  0  0  0  0  0  0
   18.3896  -11.0702    0.0000 O   0  0  0  0  0  0  0  0  0  0  0  0
   19.3127   -9.9453    0.0000 C   0  0  0  0  0  0  0  0  0  0  0  0
   13.7401   -5.4286    0.0000 N   0  0  0  0  0  0  0  0  0  0  0  0
    8.3740    1.5331    0.0000 N   0  0  0  0  0  0  0  0  0  0  0  0
   13.0277   -5.0244    0.0000 C   0  0  0  0  0  0  0  0  0  0  0  0
    7.5408    1.5456    0.0000 C   0  0  0  0  0  0  0  0  0  0  0  0
   15.1733   -5.4286    0.0000 C   0  0  0  0  0  0  0  0  0  0  0  0
    7.1159    0.8332    0.0000 N   0  0  0  0  0  0  0  0  0  0  0  0
    8.7740    0.8082    0.0000 C   0  0  0  0  0  0  0  0  0  0  0  0
    4.4412   -5.0161    0.0000 C   0  0  0  0  0  0  0  0  0  0  0  0
   14.4608   -5.0161    0.0000 C   0  0  0  0  0  0  0  0  0  0  0  0
    7.5158    0.1125    0.0000 C   0  0  0  0  0  0  0  0  0  0  0  0
    2.2914   -5.4286    0.0000 C   0  0  0  0  0  0  0  0  0  0  0  0
   10.8863   -5.4369    0.0000 C   0  0  0  0  0  0  0  0  0  0  0  0
    8.7407   -5.0244    0.0000 C   0  0  0  0  0  0  0  0  0  0  0  0
    0.1375   -5.0161    0.0000 C   0  0  0  0  0  0  0  0  0  0  0  0
    6.5992   -5.4369    0.0000 C   0  0  0  0  0  0  0  0  0  0  0  0
   -2.0206   -5.4286    0.0000 C   0  0  0  0  0  0  0  0  0  0  0  0
    7.0909   -0.5999    0.0000 C   0  0  0  0  0  0  0  0  0  0  0  0
    3.0164   -5.0161    0.0000 N   0  0  0  0  0  0  0  0  0  0  0  0
    3.7288   -5.4369    0.0000 C   0  0  0  0  0  0  0  0  0  0  0  0
    5.1661   -5.4369    0.0000 N   0  0  0  0  0  0  0  0  0  0  0  0
    7.3159   -5.0244    0.0000 N   0  0  0  0  0  0  0  0  0  0  0  0
    0.8541   -5.4286    0.0000 N   0  0  0  0  0  0  0  0  0  0  0  0
    9.4614   -5.4369    0.0000 N   0  0  0  0  0  0  0  0  0  0  0  0
   -1.2999   -5.0161    0.0000 N   0  0  0  0  0  0  0  0  0  0  0  0
   11.6029   -5.0244    0.0000 N   0  0  0  0  0  0  0  0  0  0  0  0
    8.3407    0.0958    0.0000 C   0  0  0  0  0  0  0  0  0  0  0  0
   15.8857   -5.0244    0.0000 N   0  0  0  0  0  0  0  0  0  0  0  0
    5.8785   -5.0161    0.0000 C   0  0  0  0  0  0  0  0  0  0  0  0
    8.0283   -5.4369    0.0000 C   0  0  0  0  0  0  0  0  0  0  0  0
   -0.5832   -5.4286    0.0000 C   0  0  0  0  0  0  0  0  0  0  0  0
    1.5748   -5.0161    0.0000 C   0  0  0  0  0  0  0  0  0  0  0  0
   10.1738   -5.0244    0.0000 C   0  0  0  0  0  0  0  0  0  0  0  0
    9.2364   -9.8239    0.0000 C   0  0  0  0  0  0  0  0  0  0  0  0
   12.3153   -5.4369    0.0000 C   0  0  0  0  0  0  0  0  0  0  0  0
   -2.7330   -5.0161    0.0000 C   0  0  0  0  0  0  0  0  0  0  0  0
   17.3147   -5.0244    0.0000 C   0  0  0  0  0  0  0  0  0  0  0  0
   -3.4496   -5.4286    0.0000 N   0  0  0  0  0  0  0  0  0  0  0  0
    7.5116   -1.3123    0.0000 N   0  0  0  0  0  0  0  0  0  0  0  0
   -4.1703   -5.0119    0.0000 C   0  0  0  0  0  0  0  0  0  0  0  0
   16.6023   -5.4369    0.0000 C   0  0  0  0  0  0  0  0  0  0  0  0
    9.6531   -9.1115    0.0000 N   0  0  0  0  0  0  0  0  0  0  0  0
   13.0277   -4.1912    0.0000 O   0  0  0  0  0  0  0  0  0  0  0  0
    7.1409    2.2705    0.0000 O   0  0  0  0  0  0  0  0  0  0  0  0
   15.1733   -6.2535    0.0000 O   0  0  0  0  0  0  0  0  0  0  0  0
   -2.7330   -4.1870    0.0000 C   0  0  0  0  0  0  0  0  0  0  0  0
    4.4412   -4.1912    0.0000 O   0  0  0  0  0  0  0  0  0  0  0  0
    0.1375   -4.1870    0.0000 O   0  0  0  0  0  0  0  0  0  0  0  0
    2.2914   -6.2618    0.0000 O   0  0  0  0  0  0  0  0  0  0  0  0
   10.8863   -6.2618    0.0000 O   0  0  0  0  0  0  0  0  0  0  0  0
    6.5992   -6.2660    0.0000 O   0  0  0  0  0  0  0  0  0  0  0  0
   -2.0206   -6.2618    0.0000 O   0  0  0  0  0  0  0  0  0  0  0  0
    8.7407   -4.1912    0.0000 O   0  0  0  0  0  0  0  0  0  0  0  0
    6.2618   -0.5791    0.0000 O   0  0  0  0  0  0  0  0  0  0  0  0
   -2.3455   -2.0415    0.0000 C   0  0  0  0  0  0  0  0  0  0  0  0
    9.6031    0.7874    0.0000 O   0  0  0  0  0  0  0  0  0  0  0  0
   -0.5832   -6.2618    0.0000 C   0  0  0  0  0  0  0  0  0  0  0  0
    8.0283   -6.2618    0.0000 C   0  0  0  0  0  0  0  0  0  0  0  0
    5.8785   -4.1912    0.0000 C   0  0  0  0  0  0  0  0  0  0  0  0
   -2.3247   -3.4663    0.0000 C   0  0  0  0  0  0  0  0  0  0  0  0
    1.5748   -4.1870    0.0000 C   0  0  0  0  0  0  0  0  0  0  0  0
   -2.7455   -2.7539    0.0000 C   0  0  0  0  0  0  0  0  0  0  0  0
    8.4115   -9.8156    0.0000 O   0  0  0  0  0  0  0  0  0  0  0  0
   17.3147   -4.1912    0.0000 O   0  0  0  0  0  0  0  0  0  0  0  0
   10.1738   -4.1912    0.0000 C   0  0  0  0  0  0  0  0  0  0  0  0
    1.9623   -2.0498    0.0000 N   0  0  0  0  0  0  0  0  0  0  0  0
   -4.1703   -4.1787    0.0000 O   0  0  0  0  0  0  0  0  0  0  0  0
   -1.5123   -2.0290    0.0000 C   0  0  0  0  0  0  0  0  0  0  0  0
    7.1034   -2.0290    0.0000 C   0  0  0  0  0  0  0  0  0  0  0  0
    9.6406  -10.5405    0.0000 N   0  0  0  0  0  0  0  0  0  0  0  0
   -1.0957   -2.7372    0.0000 C   0  0  0  0  0  0  0  0  0  0  0  0
   18.0271   -5.4286    0.0000 N   0  0  0  0  0  0  0  0  0  0  0  0
   13.7401   -4.6037    0.0000 C   0  0  0  0  0  0  0  0  0  0  0  0
    9.2406   -8.3907    0.0000 C   0  0  0  0  0  0  0  0  0  0  0  0
    6.2910   -3.4663    0.0000 C   0  0  0  0  0  0  0  0  0  0  0  0
    8.4407   -6.9742    0.0000 C   0  0  0  0  0  0  0  0  0  0  0  0
   -0.3708   -7.0617    0.0000 C   0  0  0  0  0  0  0  0  0  0  0  0
   -1.4998   -3.4538    0.0000 C   0  0  0  0  0  0  0  0  0  0  0  0
    0.0542   -8.6532    0.0000 C   0  0  0  0  0  0  0  0  0  0  0  0
    1.9790   -3.4663    0.0000 C   0  0  0  0  0  0  0  0  0  0  0  0
   13.7401   -8.7365    0.0000 N   0  0  0  0  0  0  0  0  0  0  0  0
    0.2667   -9.4531    0.0000 Cl  0  0  0  0  0  0  0  0  0  0  0  0
    3.7288   -6.2660    0.0000 C   0  0  0  0  0  0  0  0  0  0  0  0
    6.2743   -2.0415    0.0000 C   0  0  0  0  0  0  0  0  0  0  0  0
    7.5241   -2.7414    0.0000 C   0  0  0  0  0  0  0  0  0  0  0  0
    8.4240   -8.3907    0.0000 C   0  0  0  0  0  0  0  0  0  0  0  0
    9.6614   -7.6866    0.0000 C   0  0  0  0  0  0  0  0  0  0  0  0
   -0.9582   -7.6408    0.0000 C   0  0  0  0  0  0  0  0  0  0  0  0
    0.4250   -7.2659    0.0000 C   0  0  0  0  0  0  0  0  0  0  0  0
    7.1159   -3.4621    0.0000 C   0  0  0  0  0  0  0  0  0  0  0  0
    9.2531   -6.9742    0.0000 C   0  0  0  0  0  0  0  0  0  0  0  0
    5.8660   -2.7622    0.0000 C   0  0  0  0  0  0  0  0  0  0  0  0
    8.0158   -7.6783    0.0000 C   0  0  0  0  0  0  0  0  0  0  0  0
    0.6416   -8.0658    0.0000 C   0  0  0  0  0  0  0  0  0  0  0  0
   -0.7457   -8.4365    0.0000 C   0  0  0  0  0  0  0  0  0  0  0  0
   14.4608   -4.1912    0.0000 C   0  0  0  0  0  0  0  0  0  0  0  0
    4.4495   -6.6784    0.0000 O   0  0  0  0  0  0  0  0  0  0  0  0
    1.5623   -2.7664    0.0000 C   0  0  0  0  0  0  0  0  0  0  0  0
   13.9526   -3.8038    0.0000 C   0  0  0  0  0  0  0  0  0  0  0  0
   12.3153   -6.2618    0.0000 C   0  0  0  0  0  0  0  0  0  0  0  0
   10.5780   -3.4788    0.0000 C   0  0  0  0  0  0  0  0  0  0  0  0
   -4.8952   -5.4244    0.0000 C   0  0  0  0  0  0  0  0  0  0  0  0
    2.7914   -2.0373    0.0000 C   0  0  0  0  0  0  0  0  0  0  0  0
   13.0277   -9.1489    0.0000 C   0  0  0  0  0  0  0  0  0  0  0  0
   16.6023   -6.2618    0.0000 C   0  0  0  0  0  0  0  0  0  0  0  0
   -2.7705   -1.3290    0.0000 C   0  0  0  0  0  0  0  0  0  0  0  0
   13.7401   -7.9116    0.0000 C   0  0  0  0  0  0  0  0  0  0  0  0
   -1.1082   -1.3041    0.0000 C   0  0  0  0  0  0  0  0  0  0  0  0
    2.8039   -3.4621    0.0000 C   0  0  0  0  0  0  0  0  0  0  0  0
   13.0277   -6.6742    0.0000 C   0  0  0  0  0  0  0  0  0  0  0  0
   13.0277   -7.4991    0.0000 C   0  0  0  0  0  0  0  0  0  0  0  0
   11.4029   -3.4746    0.0000 C   0  0  0  0  0  0  0  0  0  0  0  0
   10.1613   -2.7664    0.0000 C   0  0  0  0  0  0  0  0  0  0  0  0
   13.0277   -9.9739    0.0000 C   0  0  0  0  0  0  0  0  0  0  0  0
   12.3153   -8.7365    0.0000 C   0  0  0  0  0  0  0  0  0  0  0  0
    3.2038   -2.7414    0.0000 C   0  0  0  0  0  0  0  0  0  0  0  0
   -2.3705   -0.6041    0.0000 C   0  0  0  0  0  0  0  0  0  0  0  0
   -1.5331   -0.5916    0.0000 C   0  0  0  0  0  0  0  0  0  0  0  0
  1  2  2  0
  1  3  1  0
  1  4  1  0
  6 11  1  0
  7  5  1  0
  8 10  1  0
  9 13  1  0
 10 14  1  0
 11 30  1  0
 12 24  1  0
 13  5  1  0
 14 21  1  0
 15 22  1  0
 16 29  1  0
 17 27  1  0
 18 26  1  0
 19 25  1  0
 20 28  1  0
 21 42  1  0
 22 23  1  0
 23 12  1  0
 24 32  1  0
 25 33  1  0
 26 35  1  0
 27 36  1  0
 28 34  1  0
 29 38  1  0
 14 30  1  1
 31  9  1  0
 32 19  1  0
 33 17  1  0
 34 18  1  0
 35 15  1  0
 36 16  1  0
 37 45  1  0
 38  7  1  0
 39 20  1  0
 40 44  1  0
 41 39  1  0
 42 72  1  0
 43 41  1  0
 44 31  1  0
 45 77  1  0
 46  7  2  0
 47  8  2  0
 48  9  2  0
 39 49  1  6
 50 12  2  0
 51 18  2  0
 52 15  2  0
 53 16  2  0
 54 19  2  0
 55 20  2  0
 56 17  2  0
 57 21  2  0
 58 65  2  0
 59 11  2  0
 34 60  1  1
 33 61  1  1
 32 62  1  1
 63 49  1  0
 35 64  1  6
 65 63  1  0
 66 37  2  0
 67 40  2  0
 36 68  1  1
 69101  2  0
 70 43  2  0
 71 74  2  0
 72 87  1  0
 73 37  1  0
 74 81  1  0
 75 40  1  0
 76  5  1  0
 77 89  2  0
 78 62  1  0
 79 61  1  0
 80 60  1  0
 81 63  2  0
 82 97  1  0
 83 64  1  0
 84110  1  0
 85 82  1  0
 23 86  1  6
 87 95  2  0
 88 93  1  0
 89 96  1  0
 90 94  2  0
 91 80  2  0
 92 80  1  0
 93 78  2  0
 94 79  1  0
 95 78  1  0
 96 79  2  0
 97 92  2  0
 98 91  1  0
 13 99  1  1
100 86  1  0
101 83  1  0
102 76  1  0
 38103  1  6
104 68  1  0
105 43  1  0
106119  2  0
107 84  1  0
 44108  1  1
109 58  1  0
110114  1  0
111 71  1  0
112 83  2  0
113103  1  0
114113  1  0
115104  1  0
116104  1  0
117107  1  0
118107  1  0
119112  1  0
120109  2  0
121111  2  0
102 99  1  0
 77 90  1  0
 72 88  2  0
  6  8  1  0
106 69  1  0
 82 98  2  0
 71 58  1  0
121120  1  0
M  END
> <chembl_id>
CHEMBL2028987

> <chembl_pref_name>
DEGARELIX ACETATE
