
     RDKit          2D

 25 29  0  0  1  0  0  0  0  0999 V2000
    0.6167   -1.3542    0.0000 C   0  0  0  0  0  0  0  0  0  0  0  0
    1.2167   -0.3125    0.0000 C   0  0  0  0  0  0  0  0  0  0  0  0
    0.6167    0.8125    0.0000 C   0  0  0  0  0  0  0  0  0  0  0  0
    1.2750    1.6625    0.0000 N   0  0  0  0  0  0  0  0  0  0  0  0
   -0.6333   -1.3417    0.0000 C   0  0  0  0  0  0  0  0  0  0  0  0
   -1.2750   -0.3292    0.0000 C   0  0  0  0  0  0  0  0  0  0  0  0
   -0.6208    0.8125    0.0000 C   0  0  0  0  0  0  0  0  0  0  0  0
    2.0417   -0.7875    0.0000 C   0  0  0  0  0  0  0  0  0  0  0  0
    2.5167    1.3583    0.0000 C   0  0  0  0  0  0  0  0  0  0  0  0
    1.2750    2.8833    0.0000 C   0  0  0  0  0  0  0  0  0  0  0  0
   -1.2625   -2.4917    0.0000 C   0  0  0  0  0  0  0  0  0  0  0  0
   -2.5875   -0.3292    0.0000 C   0  0  0  0  0  0  0  0  0  0  0  0
   -0.0500   -0.4000    0.0000 O   0  0  0  0  0  0  0  0  0  0  0  0
   -2.6000   -2.5042    0.0000 C   0  0  0  0  0  0  0  0  0  0  0  0
    2.5542   -0.3125    0.0000 C   0  0  0  0  0  0  0  0  0  0  0  0
    1.1917   -2.5500    0.0000 C   0  0  0  0  0  0  0  0  0  0  0  0
   -3.2458   -1.3875    0.0000 C   0  0  0  0  0  0  0  0  0  0  0  0
    2.1917    2.8833    0.0000 C   0  0  0  0  0  0  0  0  0  0  0  0
   -3.3833   -3.3542    0.0000 O   0  0  0  0  0  0  0  0  0  0  0  0
    3.5375    2.9625    0.0000 C   0  0  0  0  0  0  0  0  0  0  0  0
    2.8167    3.5958    0.0000 C   0  0  0  0  0  0  0  0  0  0  0  0
    2.9125    2.2708    0.0000 C   0  0  0  0  0  0  0  0  0  0  0  0
    3.2667   -1.3875    0.0000 C   0  0  0  0  0  0  0  0  0  0  0  0
    2.5792   -2.5500    0.0000 C   0  0  0  0  0  0  0  0  0  0  0  0
   -0.1708    1.7708    0.0000 H   0  0  0  0  0  0  0  0  0  0  0  0
  2  1  1  0
  3  2  1  0
  4  9  1  0
  5  1  1  0
  6  5  2  0
  7  6  1  0
  1  8  1  1
  9  8  1  0
 10  4  1  0
 11  5  1  0
 12  6  1  0
  2 13  1  1
 14 11  2  0
 15  2  1  0
 16  1  1  0
 17 14  1  0
 18 10  1  0
 19 14  1  0
 20 22  1  0
 21 18  1  0
 22 18  1  0
 23 24  1  0
 24 16  1  0
  3 25  1  6
 15 23  1  0
  3  4  1  1
  3  7  1  0
 12 17  2  0
 21 20  1  0
M  END
> <chembl_id>
CHEMBL33986

> <chembl_pref_name>
BUTORPHANOL
