
     RDKit          2D

 34 38  0  0  0  0  0  0  0  0999 V2000
   -0.3708   -7.8292    0.0000 C   0  0  0  0  0  0  0  0  0  0  0  0
    1.0542   -7.0167    0.0000 C   0  0  0  0  0  0  0  0  0  0  0  0
   -1.0833   -8.2500    0.0000 C   0  0  0  0  0  0  0  0  0  0  0  0
    0.3375   -8.2500    0.0000 C   0  0  0  0  0  0  0  0  0  0  0  0
   -0.3708   -7.0042    0.0000 C   0  0  0  0  0  0  0  0  0  0  0  0
    1.0542   -7.8417    0.0000 C   0  0  0  0  0  0  0  0  0  0  0  0
   -1.0833   -9.0750    0.0000 C   0  0  0  0  0  0  0  0  0  0  0  0
    0.3417   -6.6042    0.0000 C   0  0  0  0  0  0  0  0  0  0  0  0
    1.8417   -6.7667    0.0000 C   0  0  0  0  0  0  0  0  0  0  0  0
   -1.7958   -9.4792    0.0000 C   0  0  0  0  0  0  0  0  0  0  0  0
    2.6625   -6.7667    0.0000 C   0  0  0  0  0  0  0  0  0  0  0  0
    0.3417   -9.0750    0.0000 C   0  0  0  0  0  0  0  0  0  0  0  0
   -1.7958   -7.8292    0.0000 C   0  0  0  0  0  0  0  0  0  0  0  0
    1.8292   -8.0917    0.0000 C   0  0  0  0  0  0  0  0  0  0  0  0
    3.4875   -6.7667    0.0000 C   0  0  0  0  0  0  0  0  0  0  0  0
   -1.0833   -6.5917    0.0000 C   0  0  0  0  0  0  0  0  0  0  0  0
   -0.3708   -9.4792    0.0000 C   0  0  0  0  0  0  0  0  0  0  0  0
   -2.5083   -9.0750    0.0000 C   0  0  0  0  0  0  0  0  0  0  0  0
   -2.5083   -5.7625    0.0000 C   0  0  0  0  0  0  0  0  0  0  0  0
    2.3167   -7.4292    0.0000 C   0  0  0  0  0  0  0  0  0  0  0  0
   -3.2208   -5.3417    0.0000 N   0  0  0  0  0  0  0  0  0  0  0  0
   -1.7958   -7.0042    0.0000 C   0  0  0  0  0  0  0  0  0  0  0  0
   -1.0833   -5.7667    0.0000 C   0  0  0  0  0  0  0  0  0  0  0  0
   -1.7958   -5.3500    0.0000 C   0  0  0  0  0  0  0  0  0  0  0  0
   -2.5083   -6.5917    0.0000 C   0  0  0  0  0  0  0  0  0  0  0  0
   -3.2250   -9.4875    0.0000 O   0  0  0  0  0  0  0  0  0  0  0  0
   -2.5083   -8.2500    0.0000 C   0  0  0  0  0  0  0  0  0  0  0  0
    1.8292   -5.9417    0.0000 O   0  0  0  0  0  0  0  0  0  0  0  0
    1.0542   -6.1917    0.0000 C   0  0  0  0  0  0  0  0  0  0  0  0
    4.3167   -6.7667    0.0000 C   0  0  0  0  0  0  0  0  0  0  0  0
   -3.9375   -5.7542    0.0000 C   0  0  0  0  0  0  0  0  0  0  0  0
   -3.2208   -4.5167    0.0000 C   0  0  0  0  0  0  0  0  0  0  0  0
    0.3292   -7.4250    0.0000 H   0  0  0  0  0  0  0  0  0  0  0  0
    1.0500   -8.6625    0.0000 H   0  0  0  0  0  0  0  0  0  0  0  0
  2  8  1  0
  3  1  2  0
  4  1  1  0
  5  1  1  0
  6  4  1  0
  7  3  1  0
  8  5  1  0
  9  2  1  0
 10  7  2  0
 11  9  1  0
 12  4  1  0
 13  3  1  0
 14  6  1  0
 15 11  3  0
  5 16  1  1
 17 12  1  0
 18 27  1  0
 19 24  2  0
 20 14  1  0
 21 19  1  0
 22 16  1  0
 23 16  2  0
 24 23  1  0
 25 22  2  0
 26 18  2  0
 27 13  1  0
  9 28  1  1
  2 29  1  1
 30 15  1  0
 31 21  1  0
 32 21  1  0
  4 33  1  1
  6 34  1  6
  2  6  1  0
  7 17  1  0
 25 19  1  0
 20  9  1  0
 10 18  1  0
M  END
> <chembl_id>
CHEMBL1276308

> <chembl_pref_name>
MIFEPRISTONE
