
     RDKit          2D

 13 13  0  0  0  0  0  0  0  0999 V2000
    2.5667   -1.1667    0.0000 C   0  0  0  0  0  0  0  0  0  0  0  0
    1.1167   -1.1667    0.0000 N   0  0  0  0  0  0  0  0  0  0  0  0
    3.2667    0.0500    0.0000 C   0  0  0  0  0  0  0  0  0  0  0  0
    3.2667   -2.4125    0.0000 O   0  0  0  0  0  0  0  0  0  0  0  0
    0.4167    0.0500    0.0000 C   0  0  0  0  0  0  0  0  0  0  0  0
    3.3000    2.5458    0.0000 Cl  0  0  0  0  0  0  0  0  0  0  0  0
   -1.0083    0.0500    0.0000 C   0  0  0  0  0  0  0  0  0  0  0  0
    2.5667    1.3208    0.0000 C   0  0  0  0  0  0  0  0  0  0  0  0
   -1.7333    1.3208    0.0000 C   0  0  0  0  0  0  0  0  0  0  0  0
   -1.7333   -1.1667    0.0000 C   0  0  0  0  0  0  0  0  0  0  0  0
   -3.1833   -1.1667    0.0000 C   0  0  0  0  0  0  0  0  0  0  0  0
   -3.1583    1.3208    0.0000 C   0  0  0  0  0  0  0  0  0  0  0  0
   -3.8833    0.0500    0.0000 C   0  0  0  0  0  0  0  0  0  0  0  0
  2  1  1  0
  3  1  1  0
  4  1  2  0
  5  2  1  0
  6  8  1  0
  7  5  1  0
  8  3  1  0
  9  7  1  0
 10  7  2  0
 11 10  1  0
 12  9  2  0
 13 11  2  0
 12 13  1  0
M  END
> <chembl_id>
CHEMBL64195

> <chembl_pref_name>
BECLAMIDE
