
     RDKit          2D

 22 24  0  0  0  0  0  0  0  0999 V2000
   -1.6458    1.5208    0.0000 S   0  0  0  0  0  0  0  0  0  0  0  0
   -2.6208    0.9625    0.0000 C   0  0  0  0  0  0  0  0  0  0  0  0
   -0.6458   -0.1542    0.0000 C   0  0  0  0  0  0  0  0  0  0  0  0
   -0.6458    0.9625    0.0000 N   0  0  0  0  0  0  0  0  0  0  0  0
   -1.6458   -0.7417    0.0000 C   0  0  0  0  0  0  0  0  0  0  0  0
   -2.6208   -0.1792    0.0000 C   0  0  0  0  0  0  0  0  0  0  0  0
    0.3542   -0.7250    0.0000 C   0  0  0  0  0  0  0  0  0  0  0  0
    1.3542   -0.1292    0.0000 N   0  0  0  0  0  0  0  0  0  0  0  0
   -3.7000    1.3083    0.0000 C   0  0  0  0  0  0  0  0  0  0  0  0
   -3.7000   -0.5292    0.0000 S   0  0  0  0  0  0  0  0  0  0  0  0
   -2.3625    2.1458    0.0000 O   0  0  0  0  0  0  0  0  0  0  0  0
   -1.0125    2.2458    0.0000 O   0  0  0  0  0  0  0  0  0  0  0  0
   -4.3458    0.3833    0.0000 C   0  0  0  0  0  0  0  0  0  0  0  0
    2.3500   -0.6792    0.0000 C   0  0  0  0  0  0  0  0  0  0  0  0
    0.3917   -1.8750    0.0000 O   0  0  0  0  0  0  0  0  0  0  0  0
    2.3667   -1.8167    0.0000 N   0  0  0  0  0  0  0  0  0  0  0  0
   -1.6458   -1.8750    0.0000 O   0  0  0  0  0  0  0  0  0  0  0  0
    0.3542    1.5083    0.0000 C   0  0  0  0  0  0  0  0  0  0  0  0
    3.3625   -2.3667    0.0000 C   0  0  0  0  0  0  0  0  0  0  0  0
    3.3292   -0.0917    0.0000 C   0  0  0  0  0  0  0  0  0  0  0  0
    4.3417   -1.7750    0.0000 C   0  0  0  0  0  0  0  0  0  0  0  0
    4.3250   -0.6417    0.0000 C   0  0  0  0  0  0  0  0  0  0  0  0
  2  1  1  0
  3  4  1  0
  4  1  1  0
  5  3  2  0
  6  2  2  0
  7  3  1  0
  8  7  1  0
  9  2  1  0
 10  6  1  0
 11  1  2  0
 12  1  2  0
 13  9  2  0
 14  8  1  0
 15  7  2  0
 16 14  1  0
 17  5  1  0
 18  4  1  0
 19 16  2  0
 20 14  2  0
 21 22  2  0
 22 20  1  0
  6  5  1  0
 10 13  1  0
 19 21  1  0
M  END
> <chembl_id>
CHEMBL302795

> <chembl_pref_name>
TENOXICAM
