
     RDKit          2D

 58 60  0  0  0  0  0  0  0  0999 V2000
   14.4100  -16.8850    0.0000 O   0  0  0  0  0  0  0  0  0  0  0  0
   -8.6045  -17.2190    0.0000 C   0  0  0  0  0  0  0  0  0  0  0  0
  -10.1417  -17.2190    0.0000 C   0  0  0  0  0  0  0  0  0  0  0  0
   -7.8404  -15.8819    0.0000 C   0  0  0  0  0  0  0  0  0  0  0  0
  -10.9058  -18.5561    0.0000 C   0  0  0  0  0  0  0  0  0  0  0  0
   -7.8496  -18.5561    0.0000 C   0  0  0  0  0  0  0  0  0  0  0  0
   -9.4504  -19.3202    0.0000 O   0  0  0  0  0  0  0  0  0  0  0  0
   -8.6045  -14.5630    0.0000 C   0  0  0  0  0  0  0  0  0  0  0  0
  -10.9058  -15.8819    0.0000 C   0  0  0  0  0  0  0  0  0  0  0  0
   -6.2942  -15.9000    0.0000 C   0  0  0  0  0  0  0  0  0  0  0  0
  -10.1417  -14.5448    0.0000 C   0  0  0  0  0  0  0  0  0  0  0  0
   -7.8223  -13.2259    0.0000 N   0  0  0  0  0  0  0  0  0  0  0  0
   -9.3958  -15.8728    0.0000 C   0  0  0  0  0  0  0  0  0  0  0  0
   -5.5482  -17.2371    0.0000 C   0  0  0  0  0  0  0  0  0  0  0  0
   -6.3123  -18.5561    0.0000 C   0  0  0  0  0  0  0  0  0  0  0  0
  -12.4520  -18.5561    0.0000 C   0  0  0  0  0  0  0  0  0  0  0  0
   -9.3777  -13.2259    0.0000 C   0  0  0  0  0  0  0  0  0  0  0  0
  -12.4520  -15.8819    0.0000 C   0  0  0  0  0  0  0  0  0  0  0  0
  -13.2161  -17.2190    0.0000 C   0  0  0  0  0  0  0  0  0  0  0  0
  -13.2252  -19.8932    0.0000 O   0  0  0  0  0  0  0  0  0  0  0  0
   -5.5482  -19.9113    0.0000 O   0  0  0  0  0  0  0  0  0  0  0  0
   -6.4852  -12.4437    0.0000 C   0  0  0  0  0  0  0  0  0  0  0  0
   -9.0969  -13.6926    0.0000 H   0  0  0  0  0  0  0  0  0  0  0  0
   -7.6288  -19.5314    0.0000 H   0  0  0  0  0  0  0  0  0  0  0  0
   -7.3360  -15.0184    0.0000 H   0  0  0  0  0  0  0  0  0  0  0  0
    2.8355  -17.5403    0.0000 C   0  0  0  0  0  0  0  0  0  0  0  0
    1.2982  -17.5403    0.0000 C   0  0  0  0  0  0  0  0  0  0  0  0
    3.5995  -16.2032    0.0000 C   0  0  0  0  0  0  0  0  0  0  0  0
    0.5342  -18.8774    0.0000 C   0  0  0  0  0  0  0  0  0  0  0  0
    3.5904  -18.8774    0.0000 C   0  0  0  0  0  0  0  0  0  0  0  0
    1.9896  -19.6414    0.0000 O   0  0  0  0  0  0  0  0  0  0  0  0
    2.8355  -14.8842    0.0000 C   0  0  0  0  0  0  0  0  0  0  0  0
    0.5342  -16.2032    0.0000 C   0  0  0  0  0  0  0  0  0  0  0  0
    5.1458  -16.2213    0.0000 C   0  0  0  0  0  0  0  0  0  0  0  0
    1.2982  -14.8661    0.0000 C   0  0  0  0  0  0  0  0  0  0  0  0
    3.6177  -13.5471    0.0000 N   0  0  0  0  0  0  0  0  0  0  0  0
    2.0441  -16.1940    0.0000 C   0  0  0  0  0  0  0  0  0  0  0  0
    5.8917  -17.5584    0.0000 C   0  0  0  0  0  0  0  0  0  0  0  0
    5.1276  -18.8774    0.0000 C   0  0  0  0  0  0  0  0  0  0  0  0
   -1.0121  -18.8774    0.0000 C   0  0  0  0  0  0  0  0  0  0  0  0
    2.0623  -13.5471    0.0000 C   0  0  0  0  0  0  0  0  0  0  0  0
   -1.0121  -16.2032    0.0000 C   0  0  0  0  0  0  0  0  0  0  0  0
   -1.7761  -17.5403    0.0000 C   0  0  0  0  0  0  0  0  0  0  0  0
   -1.7853  -20.2145    0.0000 O   0  0  0  0  0  0  0  0  0  0  0  0
    5.8917  -20.2326    0.0000 O   0  0  0  0  0  0  0  0  0  0  0  0
    4.9548  -12.7649    0.0000 C   0  0  0  0  0  0  0  0  0  0  0  0
    2.3431  -14.0138    0.0000 H   0  0  0  0  0  0  0  0  0  0  0  0
    3.8112  -19.8527    0.0000 H   0  0  0  0  0  0  0  0  0  0  0  0
    4.1040  -15.3398    0.0000 H   0  0  0  0  0  0  0  0  0  0  0  0
    9.4391  -19.5596    0.0000 S   0  0  0  0  0  0  0  0  0  0  0  0
   10.2032  -18.2133    0.0000 O   0  0  0  0  0  0  0  0  0  0  0  0
    8.6478  -18.2133    0.0000 O   0  0  0  0  0  0  0  0  0  0  0  0
    8.1020  -20.3417    0.0000 O   0  0  0  0  0  0  0  0  0  0  0  0
   10.7762  -20.3417    0.0000 O   0  0  0  0  0  0  0  0  0  0  0  0
   13.2229  -20.2326    0.0000 O   0  0  0  0  0  0  0  0  0  0  0  0
    9.7900  -13.6400    0.0000 O   0  0  0  0  0  0  0  0  0  0  0  0
   11.4400  -14.2450    0.0000 O   0  0  0  0  0  0  0  0  0  0  0  0
   12.3200  -16.0050    0.0000 O   0  0  0  0  0  0  0  0  0  0  0  0
  3  2  1  0
  4  2  1  0
  5  3  1  0
  6  2  1  0
  6  7  1  0
  8  4  1  0
  9  3  2  0
 10  4  1  0
 11  8  1  0
  8 12  1  0
  2 13  1  1
 14 15  1  0
 15  6  1  0
 16  5  2  0
 17 13  1  0
 18  9  1  0
 19 16  1  0
 20 16  1  0
 15 21  1  6
 22 12  1  0
  7  5  1  0
 17 12  1  0
 10 14  2  0
 11  9  1  0
 18 19  2  0
  8 23  1  6
  6 24  1  1
  4 25  1  1
 27 26  1  0
 28 26  1  0
 29 27  1  0
 30 26  1  0
 30 31  1  0
 32 28  1  0
 33 27  2  0
 34 28  1  0
 35 32  1  0
 32 36  1  0
 26 37  1  1
 38 39  1  0
 39 30  1  0
 40 29  2  0
 41 37  1  0
 42 33  1  0
 43 40  1  0
 44 40  1  0
 39 45  1  6
 46 36  1  0
 31 29  1  0
 41 36  1  0
 34 38  2  0
 35 33  1  0
 42 43  2  0
 32 47  1  6
 30 48  1  1
 28 49  1  1
 51 50  2  0
 52 50  2  0
 53 50  1  0
 54 50  1  0
M  END
> <chembl_id>
CHEMBL2103744

> <chembl_pref_name>
MORPHINE SULFATE
