
     RDKit          2D

 15 15  0  0  0  0  0  0  0  0999 V2000
   -1.8833   -0.1042    0.0000 C   0  0  0  0  0  0  0  0  0  0  0  0
   -3.1125    0.6000    0.0000 C   0  0  0  0  0  0  0  0  0  0  0  0
    1.8167    0.6750    0.0000 N   0  0  0  0  0  0  0  0  0  0  0  0
   -0.6458    0.6375    0.0000 C   0  0  0  0  0  0  0  0  0  0  0  0
    3.0875   -0.0292    0.0000 C   0  0  0  0  0  0  0  0  0  0  0  0
    0.6042   -0.0667    0.0000 C   0  0  0  0  0  0  0  0  0  0  0  0
   -3.1125    2.0375    0.0000 Cl  0  0  0  0  0  0  0  0  0  0  0  0
   -0.6458    2.0375    0.0000 O   0  0  0  0  0  0  0  0  0  0  0  0
   -1.8833   -1.5417    0.0000 C   0  0  0  0  0  0  0  0  0  0  0  0
   -4.3458   -0.1042    0.0000 C   0  0  0  0  0  0  0  0  0  0  0  0
    2.4000   -1.2792    0.0000 C   0  0  0  0  0  0  0  0  0  0  0  0
    4.3375   -0.7250    0.0000 C   0  0  0  0  0  0  0  0  0  0  0  0
    3.7792    1.2333    0.0000 C   0  0  0  0  0  0  0  0  0  0  0  0
   -3.1125   -2.2542    0.0000 C   0  0  0  0  0  0  0  0  0  0  0  0
   -4.3458   -1.5625    0.0000 C   0  0  0  0  0  0  0  0  0  0  0  0
  2  1  1  0
  3  6  1  0
  4  1  1  0
  5  3  1  0
  6  4  1  0
  7  2  1  0
  8  4  1  0
  9  1  2  0
 10  2  2  0
 11  5  1  0
 12  5  1  0
 13  5  1  0
 14  9  1  0
 15 14  2  0
 10 15  1  0
M  END
> <chembl_id>
CHEMBL1159717

> <chembl_pref_name>
TULOBUTEROL
