
     RDKit          2D

 24 19  0  0  0  0  0  0  0  0999 V2000
    3.4473  -21.9509    0.0000 O   0  0  0  0  0  0  0  0  0  0  0  0
    4.1203  -20.3684    0.0000 C   0  0  0  0  0  0  0  0  0  0  0  0
    1.0337  -20.3587    0.0000 C   0  0  0  0  0  0  0  0  0  0  0  0
    4.6444  -18.4029    0.0000 C   0  0  0  0  0  0  0  0  0  0  0  0
    0.5145  -18.4126    0.0000 C   0  0  0  0  0  0  0  0  0  0  0  0
    3.4118  -19.1309    0.0000 N   0  0  0  0  0  0  0  0  0  0  0  0
    1.7617  -19.1309    0.0000 N   0  0  0  0  0  0  0  0  0  0  0  0
    3.4069  -20.7761    0.0000 O   0  0  0  0  0  0  0  0  0  0  0  0
    5.0472  -17.6846    0.0000 O   0  0  0  0  0  0  0  0  0  0  0  0
    1.7471  -20.7809    0.0000 O   0  0  0  0  0  0  0  0  0  0  0  0
    0.1019  -17.6992    0.0000 O   0  0  0  0  0  0  0  0  0  0  0  0
    5.0617  -19.1163    0.0000 O   0  0  0  0  0  0  0  0  0  0  0  0
    0.3154  -20.7664    0.0000 O   0  0  0  0  0  0  0  0  0  0  0  0
    4.8386  -20.7809    0.0000 O   0  0  0  0  0  0  0  0  0  0  0  0
    0.1068  -19.1260    0.0000 O   0  0  0  0  0  0  0  0  0  0  0  0
    1.3443  -18.4078    0.0000 C   0  0  0  0  0  0  0  0  0  0  0  0
    1.0386  -19.5385    0.0000 C   0  0  0  0  0  0  0  0  0  0  0  0
    4.1252  -19.5434    0.0000 C   0  0  0  0  0  0  0  0  0  0  0  0
    3.8194  -18.4078    0.0000 C   0  0  0  0  0  0  0  0  0  0  0  0
    2.1742  -18.4175    0.0000 C   0  0  0  0  0  0  0  0  0  0  0  0
    3.0041  -18.4175    0.0000 C   0  0  0  0  0  0  0  0  0  0  0  0
    2.4314  -19.9802    0.0000 Ca  0  0  0  0  0 15  0  0  0  0  0  0
   -1.1307  -17.7623    0.0000 Na  0  0  0  0  0 15  0  0  0  0  0  0
    5.9596  -17.7963    0.0000 Na  0  0  0  0  0 15  0  0  0  0  0  0
  3 17  1  0
  4 19  1  0
  5 16  1  0
  6 18  1  0
  7 20  1  0
  8  2  1  0
  9  4  1  0
 10  3  1  0
 11  5  1  0
 12  4  2  0
 13  3  2  0
 14  2  2  0
 15  5  2  0
 16  7  1  0
 17  7  1  0
 18  2  1  0
 19  6  1  0
 20 21  1  0
 21  6  1  0
M  CHG  7   8  -1   9  -1  10  -1  11  -1  22   2  23   1  24   1
M  END
> <chembl_id>
CHEMBL3989522

> <chembl_pref_name>
EDETATE CALCIUM DISODIUM MONOHYDRATE
