
     RDKit          2D

 38 37  0  0  0  0  0  0  0  0999 V2000
    3.7750   -8.4375    0.0000 Cl  0  0  0  0  0  0  0  0  0  0  0  0
    0.8292   -7.9375    0.0000 C   0  0  0  0  0  0  0  0  0  0  0  0
    1.4417   -7.5792    0.0000 C   0  0  0  0  0  0  0  0  0  0  0  0
   -2.8458   -7.9375    0.0000 C   0  0  0  0  0  0  0  0  0  0  0  0
    5.1167   -7.5792    0.0000 C   0  0  0  0  0  0  0  0  0  0  0  0
    3.8917   -7.5792    0.0000 N   0  0  0  0  0  0  0  0  0  0  0  0
   -1.6208   -7.9375    0.0000 N   0  0  0  0  0  0  0  0  0  0  0  0
    4.5042   -7.9375    0.0000 C   0  0  0  0  0  0  0  0  0  0  0  0
   -2.2333   -7.5792    0.0000 C   0  0  0  0  0  0  0  0  0  0  0  0
   -3.4625   -7.5792    0.0000 C   0  0  0  0  0  0  0  0  0  0  0  0
    5.7292   -7.9375    0.0000 C   0  0  0  0  0  0  0  0  0  0  0  0
    1.4417   -6.8750    0.0000 O   0  0  0  0  0  0  0  0  0  0  0  0
    0.8292   -8.6417    0.0000 O   0  0  0  0  0  0  0  0  0  0  0  0
    2.0542   -7.9375    0.0000 N   0  0  0  0  0  0  0  0  0  0  0  0
    0.2167   -7.5792    0.0000 N   0  0  0  0  0  0  0  0  0  0  0  0
   -3.4583   -6.8708    0.0000 Cl  0  0  0  0  0  0  0  0  0  0  0  0
    5.7250   -8.6458    0.0000 Cl  0  0  0  0  0  0  0  0  0  0  0  0
    2.6667   -7.5792    0.0000 C   0  0  0  0  0  0  0  0  0  0  0  0
   -0.3958   -7.9375    0.0000 C   0  0  0  0  0  0  0  0  0  0  0  0
    3.2792   -7.9375    0.0000 C   0  0  0  0  0  0  0  0  0  0  0  0
   -1.0083   -7.5792    0.0000 C   0  0  0  0  0  0  0  0  0  0  0  0
    5.1125   -6.8792    0.0000 C   0  0  0  0  0  0  0  0  0  0  0  0
   -2.8458   -8.6375    0.0000 C   0  0  0  0  0  0  0  0  0  0  0  0
    3.5292   -6.9667    0.0000 C   0  0  0  0  0  0  0  0  0  0  0  0
   -1.9833   -8.5500    0.0000 C   0  0  0  0  0  0  0  0  0  0  0  0
   -1.2708   -8.5500    0.0000 C   0  0  0  0  0  0  0  0  0  0  0  0
    4.2417   -6.9667    0.0000 C   0  0  0  0  0  0  0  0  0  0  0  0
   -4.0708   -7.9333    0.0000 C   0  0  0  0  0  0  0  0  0  0  0  0
    6.3375   -7.5833    0.0000 C   0  0  0  0  0  0  0  0  0  0  0  0
   -2.6875   -8.5458    0.0000 C   0  0  0  0  0  0  0  0  0  0  0  0
    4.9500   -6.9583    0.0000 C   0  0  0  0  0  0  0  0  0  0  0  0
   -0.5625   -8.5500    0.0000 C   0  0  0  0  0  0  0  0  0  0  0  0
    2.8250   -6.9667    0.0000 C   0  0  0  0  0  0  0  0  0  0  0  0
   -3.4542   -8.9958    0.0000 C   0  0  0  0  0  0  0  0  0  0  0  0
    5.7208   -6.5208    0.0000 C   0  0  0  0  0  0  0  0  0  0  0  0
    6.3375   -6.8750    0.0000 C   0  0  0  0  0  0  0  0  0  0  0  0
   -4.0708   -8.6417    0.0000 C   0  0  0  0  0  0  0  0  0  0  0  0
   -1.7833   -7.0292    0.0000 Cl  0  0  0  0  0  0  0  0  0  0  0  0
  3  2  1  0
  4  9  1  0
  5  8  1  0
  6 20  1  0
  7 21  1  0
  8  6  1  0
  9  7  1  0
 10  4  2  0
 11  5  2  0
 12  3  2  0
 13  2  2  0
 14  3  1  0
 15  2  1  0
 16 10  1  0
 17 11  1  0
 18 14  1  0
 19 15  1  0
 20 18  1  0
 21 19  1  0
 22  5  1  0
 23  4  1  0
 24  6  1  0
 25  7  1  0
 26  7  1  0
 27  6  1  0
 28 10  1  0
 29 11  1  0
 30 25  1  0
 31 27  1  0
 32 26  1  0
 33 24  1  0
 34 23  2  0
 35 22  2  0
 36 35  1  0
 37 28  2  0
 34 37  1  0
 36 29  2  0
M  CHG  4   1  -1   6   1   7   1  38  -1
M  END
> <chembl_id>
CHEMBL1200541

> <chembl_pref_name>
AMBENONIUM CHLORIDE
