
     RDKit          2D

  9  8  0  0  0  0  0  0  0  0999 V2000
   12.1089   -0.1346    0.0000 C   0  0  0  0  0  0  0  0  0  0  0  0
   12.1089    0.6771    0.0000 O   0  0  0  0  0  0  0  0  0  0  0  0
   11.3355   -0.4115    0.0000 C   0  0  0  0  0  0  0  0  0  0  0  0
   12.7821   -0.6120    0.0000 O   0  0  0  0  0  0  0  0  0  0  0  0
   11.3187   -1.2160    0.0000 N   0  0  0  0  0  0  0  0  0  0  0  0
    9.3565    0.4097    0.0000 Se  0  0  0  0  0  2  0  0  0  0  0  0
   10.6527    0.0516    0.0000 C   0  0  0  0  0  0  0  0  0  0  0  0
    9.8745   -0.2277    0.0000 C   0  0  0  0  0  0  0  0  0  0  0  0
    8.5782    0.1375    0.0000 C   0  0  0  0  0  0  0  0  0  0  0  0
  2  1  2  0
  3  1  1  0
  4  1  1  0
  3  5  1  1
  6  8  1  0
  7  3  1  0
  8  7  1  0
  9  6  1  0
M  ISO  1   6  75
M  END
> <chembl_id>
CHEMBL1201054

> <chembl_pref_name>
SELENOMETHIONINE SE 75
