
     RDKit          2D

 33 33  0  0  0  0  0  0  0  0999 V2000
   14.2232  -13.6607    0.0000 O   0  0  0  0  0  0  0  0  0  0  0  0
   14.9280  -11.3819    0.0000 C   0  0  0  0  0  0  0  0  0  0  0  0
   15.7443  -11.3869    0.0000 C   0  0  0  0  0  0  0  0  0  0  0  0
   14.9279   -9.9531    0.0000 C   0  0  0  0  0  0  0  0  0  0  0  0
   14.5196  -10.6700    0.0000 C   0  0  0  0  0  0  0  0  0  0  0  0
   14.5196   -9.2363    0.0000 N   0  0  0  0  0  0  0  0  0  0  0  0
   16.1576  -10.6699    0.0000 C   0  0  0  0  0  0  0  0  0  0  0  0
   15.7592   -9.9530    0.0000 C   0  0  0  0  0  0  0  0  0  0  0  0
   15.3411  -10.6551    0.0000 C   0  0  0  0  0  0  0  0  0  0  0  0
   15.3510   -9.2363    0.0000 C   0  0  0  0  0  0  0  0  0  0  0  0
   16.1577  -12.0987    0.0000 C   0  0  0  0  0  0  0  0  0  0  0  0
   16.9839  -10.6699    0.0000 C   0  0  0  0  0  0  0  0  0  0  0  0
   16.9839  -12.0986    0.0000 C   0  0  0  0  0  0  0  0  0  0  0  0
   14.5197  -12.0839    0.0000 C   0  0  0  0  0  0  0  0  0  0  0  0
   17.3922  -11.3868    0.0000 C   0  0  0  0  0  0  0  0  0  0  0  0
   13.8076   -8.8182    0.0000 C   0  0  0  0  0  0  0  0  0  0  0  0
   13.7032  -10.6651    0.0000 C   0  0  0  0  0  0  0  0  0  0  0  0
   17.3973  -12.8155    0.0000 O   0  0  0  0  0  0  0  0  0  0  0  0
   13.7033  -12.0839    0.0000 C   0  0  0  0  0  0  0  0  0  0  0  0
   13.2950  -11.3721    0.0000 C   0  0  0  0  0  0  0  0  0  0  0  0
   14.0047   -9.7779    0.0000 H   0  0  0  0  0  0  0  0  0  0  0  0
   15.4454   -9.0626    0.0000 H   0  0  0  0  0  0  0  0  0  0  0  0
    8.5445  -10.6056    0.0000 O   0  0  0  0  0  0  0  0  0  0  0  0
    9.2825  -11.8802    0.0000 O   0  0  0  0  0  0  0  0  0  0  0  0
   12.2290  -11.0287    0.0000 O   0  0  0  0  0  0  0  0  0  0  0  0
   11.4910   -9.7541    0.0000 O   0  0  0  0  0  0  0  0  0  0  0  0
   10.0203   -9.7542    0.0000 O   0  0  0  0  0  0  0  0  0  0  0  0
   10.7532  -11.8801    0.0000 O   0  0  0  0  0  0  0  0  0  0  0  0
    9.2829  -11.0296    0.0000 C   0  0  0  0  0  0  0  0  0  0  0  0
   10.0189  -10.6047    0.0000 C   0  0  0  0  0  0  0  0  0  0  0  0
   10.7547  -11.0296    0.0000 C   0  0  0  0  0  0  0  0  0  0  0  0
   11.4906  -10.6047    0.0000 C   0  0  0  0  0  0  0  0  0  0  0  0
   12.2946  -13.6607    0.0000 O   0  0  0  0  0  0  0  0  0  0  0  0
 11  3  1  0
 12  7  1  0
 13 11  2  0
  2 14  1  6
 15 13  1  0
 16  6  1  0
 17  5  1  0
 18 13  1  0
 19 14  1  0
 20 19  1  0
  5 21  1  6
 17 20  1  0
  4  6  1  0
  8  7  1  0
 15 12  2  0
  3  2  1  0
  4  5  1  0
  5  2  1  0
  6 10  1  0
  7  3  2  0
  8  4  1  0
  2  9  1  0
 10  9  1  0
  4 22  1  1
 29 24  2  0
 30 27  1  0
 31 28  1  0
 29 23  1  0
 31 32  1  0
 30 31  1  0
 32 25  1  0
 29 30  1  0
 32 26  2  0
M  END
> <chembl_id>
CHEMBL3989768

> <chembl_pref_name>
LEVORPHANOL TARTRATE
