
     RDKit          2D

 14 15  0  0  0  0  0  0  0  0999 V2000
    0.1375   -0.6292    0.0000 C   0  0  0  0  0  0  0  0  0  0  0  0
    0.1417    0.7583    0.0000 C   0  0  0  0  0  0  0  0  0  0  0  0
   -1.0958   -1.3750    0.0000 C   0  0  0  0  0  0  0  0  0  0  0  0
    1.3667   -1.3750    0.0000 N   0  0  0  0  0  0  0  0  0  0  0  0
   -2.3458   -0.6417    0.0000 C   0  0  0  0  0  0  0  0  0  0  0  0
   -1.1000    1.5000    0.0000 C   0  0  0  0  0  0  0  0  0  0  0  0
   -2.3458    0.7750    0.0000 C   0  0  0  0  0  0  0  0  0  0  0  0
    1.3792    1.4958    0.0000 C   0  0  0  0  0  0  0  0  0  0  0  0
    2.6167   -0.6417    0.0000 C   0  0  0  0  0  0  0  0  0  0  0  0
   -1.0833   -2.8000    0.0000 O   0  0  0  0  0  0  0  0  0  0  0  0
   -3.5958   -1.3375    0.0000 Cl  0  0  0  0  0  0  0  0  0  0  0  0
   -1.1000    2.9333    0.0000 Cl  0  0  0  0  0  0  0  0  0  0  0  0
    2.6250    0.7625    0.0000 C   0  0  0  0  0  0  0  0  0  0  0  0
    3.8667   -1.3375    0.0000 C   0  0  0  0  0  0  0  0  0  0  0  0
  2  1  1  0
  3  1  1  0
  4  1  2  0
  5  3  2  0
  6  2  1  0
  7  5  1  0
  8  2  2  0
  9  4  1  0
 10  3  1  0
 11  5  1  0
 12  6  1  0
 13  9  2  0
 14  9  1  0
  8 13  1  0
  6  7  2  0
M  END
> <chembl_id>
CHEMBL224325

> <chembl_pref_name>
CHLORQUINALDOL
