
     RDKit          2D

 34 35  0  0  1  0  0  0  0  0999 V2000
    1.1417   -4.2500    0.0000 C   0  0  0  0  0  0  0  0  0  0  0  0
    9.1125   -3.9417    0.0000 C   0  0  0  0  0  0  0  0  0  0  0  0
    8.4917   -4.2917    0.0000 N   0  0  0  0  0  0  0  0  0  0  0  0
    1.7625   -3.8792    0.0000 N   0  0  0  0  0  0  0  0  0  0  0  0
    2.3667   -4.2500    0.0000 C   0  0  0  0  0  0  0  0  0  0  0  0
    7.8875   -3.9375    0.0000 C   0  0  0  0  0  0  0  0  0  0  0  0
    0.5375   -3.8792    0.0000 N   0  0  0  0  0  0  0  0  0  0  0  0
    9.7125   -4.3042    0.0000 N   0  0  0  0  0  0  0  0  0  0  0  0
    1.1417   -4.9500    0.0000 N   0  0  0  0  0  0  0  0  0  0  0  0
    9.1167   -3.2292    0.0000 N   0  0  0  0  0  0  0  0  0  0  0  0
    7.8917   -3.2167    0.0000 N   0  0  0  0  0  0  0  0  0  0  0  0
    2.3667   -4.9542    0.0000 N   0  0  0  0  0  0  0  0  0  0  0  0
    2.9917   -3.9000    0.0000 N   0  0  0  0  0  0  0  0  0  0  0  0
    7.2667   -4.2792    0.0000 N   0  0  0  0  0  0  0  0  0  0  0  0
   -0.0833   -4.2167    0.0000 C   0  0  0  0  0  0  0  0  0  0  0  0
   10.3500   -3.9417    0.0000 C   0  0  0  0  0  0  0  0  0  0  0  0
   -1.3208   -4.9375    0.0000 C   0  0  0  0  0  0  0  0  0  0  0  0
   11.5792   -3.2542    0.0000 C   0  0  0  0  0  0  0  0  0  0  0  0
   -1.9333   -5.2667    0.0000 Cl  0  0  0  0  0  0  0  0  0  0  0  0
   12.1792   -2.9000    0.0000 Cl  0  0  0  0  0  0  0  0  0  0  0  0
   -0.6958   -3.8750    0.0000 C   0  0  0  0  0  0  0  0  0  0  0  0
   -0.0833   -4.9375    0.0000 C   0  0  0  0  0  0  0  0  0  0  0  0
   10.3500   -3.2417    0.0000 C   0  0  0  0  0  0  0  0  0  0  0  0
   10.9417   -4.3125    0.0000 C   0  0  0  0  0  0  0  0  0  0  0  0
   -0.7083   -5.2917    0.0000 C   0  0  0  0  0  0  0  0  0  0  0  0
   -1.3125   -4.2167    0.0000 C   0  0  0  0  0  0  0  0  0  0  0  0
   10.9542   -2.8875    0.0000 C   0  0  0  0  0  0  0  0  0  0  0  0
   11.5667   -3.9542    0.0000 C   0  0  0  0  0  0  0  0  0  0  0  0
    3.6125   -4.2583    0.0000 C   0  0  0  0  0  0  0  0  0  0  0  0
    6.6542   -3.9167    0.0000 C   0  0  0  0  0  0  0  0  0  0  0  0
    6.0167   -4.2750    0.0000 C   0  0  0  0  0  0  0  0  0  0  0  0
    4.2167   -3.9000    0.0000 C   0  0  0  0  0  0  0  0  0  0  0  0
    4.8375   -4.2750    0.0000 C   0  0  0  0  0  0  0  0  0  0  0  0
    5.4125   -3.9167    0.0000 C   0  0  0  0  0  0  0  0  0  0  0  0
  2  3  1  0
  3  6  1  0
  4  1  1  0
  5  4  1  0
  6 14  1  0
  7  1  1  0
  8  2  1  0
  9  1  2  0
 10  2  2  0
 11  6  2  0
 12  5  2  0
 13  5  1  0
 14 30  1  0
 15  7  1  0
 16  8  1  0
 17 25  2  0
 18 28  2  0
 19 17  1  0
 20 18  1  0
 21 15  1  0
 22 15  2  0
 23 16  1  0
 24 16  2  0
 25 22  1  0
 26 21  2  0
 27 23  2  0
 28 24  1  0
 29 13  1  0
 30 31  1  0
 31 34  1  0
 32 29  1  0
 33 32  1  0
 34 33  1  0
 26 17  1  0
 27 18  1  0
M  END
> <chembl_id>
CHEMBL790

> <chembl_pref_name>
CHLORHEXIDINE
