
     RDKit          2D

 24 26  0  0  1  0  0  0  0  0999 V2000
   -4.7375    2.0458    0.0000 N   0  0  0  0  0  0  0  0  0  0  0  0
    0.6042   -1.1167    0.0000 C   0  0  0  0  0  0  0  0  0  0  0  0
   -4.7375   -1.0375    0.0000 C   0  0  0  0  0  0  0  0  0  0  0  0
   -4.1208    0.5500    0.0000 C   0  0  0  0  0  0  0  0  0  0  0  0
    1.9417   -1.8917    0.0000 C   0  0  0  0  0  0  0  0  0  0  0  0
   -2.0583   -1.1125    0.0000 C   0  0  0  0  0  0  0  0  0  0  0  0
   -0.7333   -1.8875    0.0000 O   0  0  0  0  0  0  0  0  0  0  0  0
   -3.3208   -1.5542    0.0000 C   0  0  0  0  0  0  0  0  0  0  0  0
   -2.6583    0.0958    0.0000 C   0  0  0  0  0  0  0  0  0  0  0  0
    0.6042    0.4208    0.0000 O   0  0  0  0  0  0  0  0  0  0  0  0
   -6.0292   -1.9542    0.0000 C   0  0  0  0  0  0  0  0  0  0  0  0
   -5.6583   -0.3500    0.0000 C   0  0  0  0  0  0  0  0  0  0  0  0
    3.2792   -1.1167    0.0000 C   0  0  0  0  0  0  0  0  0  0  0  0
   -6.1417    3.0083    0.0000 C   0  0  0  0  0  0  0  0  0  0  0  0
   -3.7625    3.4833    0.0000 C   0  0  0  0  0  0  0  0  0  0  0  0
    1.9417   -3.4292    0.0000 C   0  0  0  0  0  0  0  0  0  0  0  0
    3.3625   -4.2500    0.0000 O   0  0  0  0  0  0  0  0  0  0  0  0
    3.2792    0.4208    0.0000 C   0  0  0  0  0  0  0  0  0  0  0  0
    4.6042   -1.8917    0.0000 C   0  0  0  0  0  0  0  0  0  0  0  0
    5.9375   -1.1167    0.0000 C   0  0  0  0  0  0  0  0  0  0  0  0
    4.6042    1.1833    0.0000 C   0  0  0  0  0  0  0  0  0  0  0  0
    5.9500    0.4125    0.0000 C   0  0  0  0  0  0  0  0  0  0  0  0
   -2.9333    1.8458    0.0000 H   0  0  0  0  0  0  0  0  0  0  0  0
   -4.5958   -2.6625    0.0000 H   0  0  0  0  0  0  0  0  0  0  0  0
  2  7  1  0
  3  1  1  0
  4  1  1  0
  5  2  1  0
  6  9  1  0
  6  7  1  6
  8  3  1  0
  9  4  1  0
 10  2  2  0
 11  3  1  0
 12  4  1  0
 13  5  1  0
 14  1  1  0
 15  1  1  0
 16  5  1  0
 17 16  1  0
 18 13  1  0
 19 13  2  0
 20 19  1  0
 21 18  2  0
 22 20  2  0
  4 23  1  6
  3 24  1  1
 12 11  1  0
  8  6  1  0
 21 22  1  0
M  CHG  1   1   1
M  END
> <chembl_id>
CHEMBL1187724

> <chembl_pref_name>
METHYLATROPINE
