
     RDKit          2D

 34 37  0  0  0  0  0  0  0  0999 V2000
   -0.2652   -5.7161    0.0000 C   0  0  0  0  0  0  0  0  0  0  0  0
   -0.9797   -6.1286    0.0000 C   0  0  0  0  0  0  0  0  0  0  0  0
   -0.9797   -6.9536    0.0000 C   0  0  0  0  0  0  0  0  0  0  0  0
   -0.2652   -7.3661    0.0000 C   0  0  0  0  0  0  0  0  0  0  0  0
    0.4493   -6.9536    0.0000 C   0  0  0  0  0  0  0  0  0  0  0  0
    0.4493   -6.1286    0.0000 C   0  0  0  0  0  0  0  0  0  0  0  0
    1.1638   -7.3661    0.0000 C   0  0  0  0  0  0  0  0  0  0  0  0
    1.8783   -6.9535    0.0000 N   0  0  0  0  0  0  0  0  0  0  0  0
    1.8783   -6.1285    0.0000 C   0  0  0  0  0  0  0  0  0  0  0  0
    1.1638   -5.7160    0.0000 N   0  0  0  0  0  0  0  0  0  0  0  0
    1.1638   -8.1911    0.0000 N   0  0  0  0  0  0  0  0  0  0  0  0
    1.8783   -8.6035    0.0000 C   0  0  0  0  0  0  0  0  0  0  0  0
    1.8783   -9.4286    0.0000 C   0  0  0  0  0  0  0  0  0  0  0  0
    2.5928   -9.8410    0.0000 C   0  0  0  0  0  0  0  0  0  0  0  0
    3.3073   -9.4285    0.0000 C   0  0  0  0  0  0  0  0  0  0  0  0
    3.3073   -8.6035    0.0000 C   0  0  0  0  0  0  0  0  0  0  0  0
    2.5928   -8.1910    0.0000 C   0  0  0  0  0  0  0  0  0  0  0  0
    4.0217   -8.1910    0.0000 Cl  0  0  0  0  0  0  0  0  0  0  0  0
    4.0217   -9.8410    0.0000 F   0  0  0  0  0  0  0  0  0  0  0  0
   -1.6941   -7.3661    0.0000 N   0  0  0  0  0  0  0  0  0  0  0  0
   -1.6941   -8.1911    0.0000 C   0  0  0  0  0  0  0  0  0  0  0  0
   -2.4086   -8.6036    0.0000 C   0  0  0  0  0  0  0  0  0  0  0  0
   -0.9797   -8.6036    0.0000 O   0  0  0  0  0  0  0  0  0  0  0  0
   -3.1231   -8.1911    0.0000 C   0  0  0  0  0  0  0  0  0  0  0  0
   -3.8376   -8.6036    0.0000 C   0  0  0  0  0  0  0  0  0  0  0  0
   -4.5520   -8.1911    0.0000 N   0  0  0  0  0  0  0  0  0  0  0  0
   -5.2665   -8.6036    0.0000 C   0  0  0  0  0  0  0  0  0  0  0  0
   -4.5520   -7.3661    0.0000 C   0  0  0  0  0  0  0  0  0  0  0  0
   -1.6941   -5.7161    0.0000 O   0  0  0  0  0  0  0  0  0  0  0  0
   -2.4086   -6.1286    0.0000 C   0  0  0  0  0  0  0  0  0  0  0  0
   -3.1623   -5.7930    0.0000 C   0  0  0  0  0  0  0  0  0  0  0  0
   -3.7143   -6.4061    0.0000 O   0  0  0  0  0  0  0  0  0  0  0  0
   -3.3018   -7.1206    0.0000 C   0  0  0  0  0  0  0  0  0  0  0  0
   -2.4949   -6.9490    0.0000 C   0  0  0  0  0  0  0  0  0  0  0  0
  1  2  1  0
  1  6  2  0
  2  3  2  0
  3  4  1  0
  4  5  2  0
  5  7  1  0
  5  6  1  0
  6 10  1  0
  7  8  2  0
  8  9  1  0
  9 10  2  0
  7 11  1  0
 11 12  1  0
 12 13  1  0
 12 17  2  0
 13 14  2  0
 14 15  1  0
 15 16  2  0
 16 17  1  0
 16 18  1  0
 15 19  1  0
  3 20  1  0
 20 21  1  0
 21 22  1  0
 21 23  2  0
 22 24  2  0
 24 25  1  0
 25 26  1  0
 26 27  1  0
 26 28  1  0
  2 29  1  0
 30 29  1  1
 30 31  1  0
 30 34  1  0
 31 32  1  0
 32 33  1  0
 33 34  1  0
M  END
> <chembl_id>
CHEMBL1173655

> <chembl_pref_name>
AFATINIB
