
     RDKit          2D

 26 26  0  0  0  0  0  0  0  0999 V2000
    5.6917   -5.7750    0.0000 Cl  0  0  0  0  0  0  0  0  0  0  0  0
    2.4792   -5.4042    0.0000 C   0  0  0  0  0  0  0  0  0  0  0  0
    1.8667   -5.0750    0.0000 C   0  0  0  0  0  0  0  0  0  0  0  0
    3.0875   -5.0625    0.0000 C   0  0  0  0  0  0  0  0  0  0  0  0
    3.0875   -4.3542    0.0000 O   0  0  0  0  0  0  0  0  0  0  0  0
    1.8667   -4.3667    0.0000 O   0  0  0  0  0  0  0  0  0  0  0  0
    1.2667   -5.4292    0.0000 C   0  0  0  0  0  0  0  0  0  0  0  0
    3.7042   -3.9917    0.0000 C   0  0  0  0  0  0  0  0  0  0  0  0
    4.3375   -4.3542    0.0000 C   0  0  0  0  0  0  0  0  0  0  0  0
    0.6500   -5.0750    0.0000 C   0  0  0  0  0  0  0  0  0  0  0  0
    5.5417   -4.3542    0.0000 N   0  0  0  0  0  0  0  0  0  0  0  0
    0.0417   -5.4542    0.0000 C   0  0  0  0  0  0  0  0  0  0  0  0
    4.3375   -5.0625    0.0000 O   0  0  0  0  0  0  0  0  0  0  0  0
    2.4792   -6.1167    0.0000 C   0  0  0  0  0  0  0  0  0  0  0  0
    4.9167   -3.9917    0.0000 C   0  0  0  0  0  0  0  0  0  0  0  0
    3.7000   -5.4042    0.0000 C   0  0  0  0  0  0  0  0  0  0  0  0
    6.1667   -3.9917    0.0000 C   0  0  0  0  0  0  0  0  0  0  0  0
    0.0417   -6.1667    0.0000 C   0  0  0  0  0  0  0  0  0  0  0  0
   -0.5708   -5.1000    0.0000 C   0  0  0  0  0  0  0  0  0  0  0  0
    6.7792   -4.3542    0.0000 C   0  0  0  0  0  0  0  0  0  0  0  0
    3.0875   -6.4625    0.0000 C   0  0  0  0  0  0  0  0  0  0  0  0
    7.4000   -4.0042    0.0000 C   0  0  0  0  0  0  0  0  0  0  0  0
    3.7000   -6.1167    0.0000 C   0  0  0  0  0  0  0  0  0  0  0  0
   -1.1958   -5.4542    0.0000 C   0  0  0  0  0  0  0  0  0  0  0  0
   -0.5708   -6.5292    0.0000 C   0  0  0  0  0  0  0  0  0  0  0  0
   -1.1958   -6.1667    0.0000 C   0  0  0  0  0  0  0  0  0  0  0  0
  3  2  1  0
  4  2  2  0
  5  4  1  0
  6  3  2  0
  7  3  1  0
  8  5  1  0
  9  8  1  0
 10  7  1  0
 11 15  1  0
 12 10  1  0
 13  9  1  0
 14  2  1  0
 15  9  1  0
 16  4  1  0
 17 11  1  0
 18 12  2  0
 19 12  1  0
 20 17  1  0
 21 14  2  0
 22 20  1  0
 23 21  1  0
 24 19  2  0
 25 18  1  0
 26 25  2  0
 23 16  2  0
 26 24  1  0
M  END
> <chembl_id>
CHEMBL1201063

> <chembl_pref_name>
PROPAFENONE HYDROCHLORIDE
