
     RDKit          2D

 28 29  0  0  0  0  0  0  0  0999 V2000
    0.8500   -6.6417    0.0000 C   0  0  0  0  0  0  0  0  0  0  0  0
   -0.3708   -6.6417    0.0000 C   0  0  0  0  0  0  0  0  0  0  0  0
    0.2375   -7.0000    0.0000 C   0  0  0  0  0  0  0  0  0  0  0  0
   -0.3708   -5.9375    0.0000 C   0  0  0  0  0  0  0  0  0  0  0  0
    0.8500   -5.9375    0.0000 C   0  0  0  0  0  0  0  0  0  0  0  0
    0.2375   -5.5792    0.0000 N   0  0  0  0  0  0  0  0  0  0  0  0
    2.0750   -7.9958    0.0000 N   0  0  0  0  0  0  0  0  0  0  0  0
    0.2375   -8.3625    0.0000 C   0  0  0  0  0  0  0  0  0  0  0  0
    0.8500   -8.7125    0.0000 C   0  0  0  0  0  0  0  0  0  0  0  0
    1.4667   -6.9958    0.0000 C   0  0  0  0  0  0  0  0  0  0  0  0
   -0.9875   -6.9958    0.0000 C   0  0  0  0  0  0  0  0  0  0  0  0
    2.6917   -8.3500    0.0000 O   0  0  0  0  0  0  0  0  0  0  0  0
    2.0708   -7.2875    0.0000 O   0  0  0  0  0  0  0  0  0  0  0  0
    2.0792   -6.6417    0.0000 O   0  0  0  0  0  0  0  0  0  0  0  0
    1.4667   -7.7042    0.0000 O   0  0  0  0  0  0  0  0  0  0  0  0
   -0.9875   -7.7042    0.0000 O   0  0  0  0  0  0  0  0  0  0  0  0
   -1.6000   -6.6417    0.0000 O   0  0  0  0  0  0  0  0  0  0  0  0
   -0.9875   -5.5833    0.0000 C   0  0  0  0  0  0  0  0  0  0  0  0
    1.4667   -5.5833    0.0000 C   0  0  0  0  0  0  0  0  0  0  0  0
    2.6917   -6.9958    0.0000 C   0  0  0  0  0  0  0  0  0  0  0  0
   -0.3750   -8.7125    0.0000 C   0  0  0  0  0  0  0  0  0  0  0  0
    0.8542   -9.4167    0.0000 C   0  0  0  0  0  0  0  0  0  0  0  0
    3.3042   -6.6417    0.0000 C   0  0  0  0  0  0  0  0  0  0  0  0
   -2.2125   -6.9958    0.0000 C   0  0  0  0  0  0  0  0  0  0  0  0
   -0.3750   -9.4208    0.0000 C   0  0  0  0  0  0  0  0  0  0  0  0
    3.9167   -6.9958    0.0000 C   0  0  0  0  0  0  0  0  0  0  0  0
    3.3042   -5.9333    0.0000 C   0  0  0  0  0  0  0  0  0  0  0  0
    0.2375   -9.7750    0.0000 C   0  0  0  0  0  0  0  0  0  0  0  0
  2  3  1  0
  3  1  1  0
  4  6  1  0
  5  1  2  0
  6  5  1  0
  7  9  1  0
  8  3  1  0
  9  8  1  0
 10  1  1  0
 11  2  1  0
 12  7  1  0
 13  7  2  0
 14 10  1  0
 15 10  2  0
 16 11  2  0
 17 11  1  0
 18  4  1  0
 19  5  1  0
 20 14  1  0
 21  8  2  0
 22  9  2  0
 23 20  1  0
 24 17  1  0
 25 21  1  0
 26 23  1  0
 27 23  1  0
 28 22  1  0
  2  4  2  0
 28 25  2  0
M  CHG  2   7   1  12  -1
M  END
> <chembl_id>
CHEMBL1726

> <chembl_pref_name>
NISOLDIPINE
