
     RDKit          2D

 18 18  0  0  0  0  0  0  0  0999 V2000
    7.1042   -5.9375    0.0000 Cl  0  0  0  0  0  0  0  0  0  0  0  0
    5.6542   -4.6250    0.0000 N   0  0  0  0  0  0  0  0  0  0  0  0
    3.2292   -4.6250    0.0000 O   0  0  0  0  0  0  0  0  0  0  0  0
    2.6042   -4.9792    0.0000 C   0  0  0  0  0  0  0  0  0  0  0  0
    4.4292   -3.9167    0.0000 O   0  0  0  0  0  0  0  0  0  0  0  0
    4.4292   -4.6250    0.0000 C   0  0  0  0  0  0  0  0  0  0  0  0
    2.6042   -5.6792    0.0000 C   0  0  0  0  0  0  0  0  0  0  0  0
    3.8375   -4.9792    0.0000 C   0  0  0  0  0  0  0  0  0  0  0  0
    3.2292   -6.0500    0.0000 O   0  0  0  0  0  0  0  0  0  0  0  0
    5.0542   -4.9792    0.0000 C   0  0  0  0  0  0  0  0  0  0  0  0
    5.6542   -3.9167    0.0000 C   0  0  0  0  0  0  0  0  0  0  0  0
    5.0542   -3.5500    0.0000 C   0  0  0  0  0  0  0  0  0  0  0  0
    1.9750   -4.6250    0.0000 C   0  0  0  0  0  0  0  0  0  0  0  0
    1.9750   -6.0292    0.0000 C   0  0  0  0  0  0  0  0  0  0  0  0
    3.8375   -5.6917    0.0000 C   0  0  0  0  0  0  0  0  0  0  0  0
    4.4667   -6.0500    0.0000 C   0  0  0  0  0  0  0  0  0  0  0  0
    1.3667   -4.9792    0.0000 C   0  0  0  0  0  0  0  0  0  0  0  0
    1.3667   -5.6792    0.0000 C   0  0  0  0  0  0  0  0  0  0  0  0
  3  8  1  0
  4  3  1  0
  5 12  1  0
  6 10  1  0
  7  4  2  0
  8  6  1  0
  9  7  1  0
 10  2  1  0
 11  2  1  0
 12 11  1  0
 13  4  1  0
 14  7  1  0
 15  9  1  0
 16 15  1  0
 17 13  2  0
 18 17  1  0
  6  5  1  0
 14 18  2  0
M  END
> <chembl_id>
CHEMBL2106483

> <chembl_pref_name>
VILOXAZINE HYDROCHLORIDE
