
     RDKit          2D

 24 26  0  0  0  0  0  0  0  0999 V2000
    9.6972   -8.6108    0.0000 S   0  0  0  0  0  0  0  0  0  0  0  0
    9.6946   -7.7858    0.0000 O   0  0  0  0  0  0  0  0  0  0  0  0
   13.7843  -10.0026    0.0000 O   0  0  0  0  0  0  0  0  0  0  0  0
    7.5474   -6.5550    0.0000 O   0  0  0  0  0  0  0  0  0  0  0  0
   11.1657   -8.6832    0.0000 N   0  0  0  0  0  0  0  0  0  0  0  0
   10.5019   -9.8413    0.0000 N   0  0  0  0  0  0  0  0  0  0  0  0
    7.5552   -9.0300    0.0000 N   0  0  0  0  0  0  0  0  0  0  0  0
   11.7196   -9.2945    0.0000 C   0  0  0  0  0  0  0  0  0  0  0  0
   11.3093  -10.0103    0.0000 C   0  0  0  0  0  0  0  0  0  0  0  0
   10.4130   -9.0210    0.0000 C   0  0  0  0  0  0  0  0  0  0  0  0
    8.2684   -8.6153    0.0000 C   0  0  0  0  0  0  0  0  0  0  0  0
   12.5446   -9.2920    0.0000 C   0  0  0  0  0  0  0  0  0  0  0  0
   11.7240  -10.7234    0.0000 C   0  0  0  0  0  0  0  0  0  0  0  0
    8.2658   -7.7903    0.0000 C   0  0  0  0  0  0  0  0  0  0  0  0
    8.9840   -9.0256    0.0000 C   0  0  0  0  0  0  0  0  0  0  0  0
   12.9592  -10.0050    0.0000 C   0  0  0  0  0  0  0  0  0  0  0  0
    7.5500   -7.3801    0.0000 C   0  0  0  0  0  0  0  0  0  0  0  0
   12.5490  -10.7208    0.0000 C   0  0  0  0  0  0  0  0  0  0  0  0
    6.8368   -7.7948    0.0000 C   0  0  0  0  0  0  0  0  0  0  0  0
    6.8395   -8.6197    0.0000 C   0  0  0  0  0  0  0  0  0  0  0  0
    8.9790   -7.3756    0.0000 C   0  0  0  0  0  0  0  0  0  0  0  0
    6.1211   -7.3845    0.0000 C   0  0  0  0  0  0  0  0  0  0  0  0
   14.1990  -10.7157    0.0000 C   0  0  0  0  0  0  0  0  0  0  0  0
    6.8317   -6.1448    0.0000 C   0  0  0  0  0  0  0  0  0  0  0  0
  1  2  1  0
  1 10  1  0
  1 15  1  0
  3 16  1  0
  3 23  1  0
  4 17  1  0
  4 24  1  0
  5  8  1  0
  5 10  2  0
  6  9  1  0
  6 10  1  0
  7 11  1  0
  7 20  2  0
  8  9  1  0
  8 12  2  0
  9 13  2  0
 11 14  2  0
 11 15  1  0
 12 16  1  0
 13 18  1  0
 14 17  1  0
 14 21  1  0
 16 18  2  0
 17 19  2  0
 19 20  1  0
 19 22  1  0
M  CHG  2   1   1   2  -1
M  END
> <chembl_id>
CHEMBL1503

> <chembl_pref_name>
OMEPRAZOLE
