
     RDKit          2D

 37 38  0  0  0  0  0  0  0  0999 V2000
   -4.3607  -20.4777    0.0000 O   0  0  0  0  0  0  0  0  0  0  0  0
  -12.8759  -21.3911    0.0000 C   0  0  0  0  0  0  0  0  0  0  0  0
  -13.5904  -21.8036    0.0000 C   0  0  0  0  0  0  0  0  0  0  0  0
  -13.5904  -22.6286    0.0000 C   0  0  0  0  0  0  0  0  0  0  0  0
  -12.8759  -23.0411    0.0000 C   0  0  0  0  0  0  0  0  0  0  0  0
  -12.1614  -22.6286    0.0000 C   0  0  0  0  0  0  0  0  0  0  0  0
  -12.1614  -21.8036    0.0000 C   0  0  0  0  0  0  0  0  0  0  0  0
  -11.4469  -21.3911    0.0000 C   0  0  0  0  0  0  0  0  0  0  0  0
  -10.7325  -21.8036    0.0000 C   0  0  0  0  0  0  0  0  0  0  0  0
  -10.7324  -20.1536    0.0000 C   0  0  0  0  0  0  0  0  0  0  0  0
  -11.4469  -19.7411    0.0000 C   0  0  0  0  0  0  0  0  0  0  0  0
  -12.1614  -20.1536    0.0000 C   0  0  0  0  0  0  0  0  0  0  0  0
  -12.1614  -20.9786    0.0000 C   0  0  0  0  0  0  0  0  0  0  0  0
  -10.7324  -20.9786    0.0000 N   0  0  0  0  0  0  0  0  0  0  0  0
  -11.7244  -18.4354    0.0000 C   0  0  0  0  0  0  0  0  0  0  0  0
  -12.0600  -19.1891    0.0000 N   0  0  0  0  0  0  0  0  0  0  0  0
  -10.7324  -19.3286    0.0000 C   0  0  0  0  0  0  0  0  0  0  0  0
  -10.9039  -18.5216    0.0000 C   0  0  0  0  0  0  0  0  0  0  0  0
  -12.1369  -17.7209    0.0000 O   0  0  0  0  0  0  0  0  0  0  0  0
  -10.0180  -21.3911    0.0000 O   0  0  0  0  0  0  0  0  0  0  0  0
   -9.3035  -21.8036    0.0000 C   0  0  0  0  0  0  0  0  0  0  0  0
   -8.5890  -21.3911    0.0000 C   0  0  0  0  0  0  0  0  0  0  0  0
   -9.3035  -22.6286    0.0000 C   0  0  0  0  0  0  0  0  0  0  0  0
   -7.8746  -21.8036    0.0000 C   0  0  0  0  0  0  0  0  0  0  0  0
   -7.1601  -21.3911    0.0000 C   0  0  0  0  0  0  0  0  0  0  0  0
   -7.1601  -20.5661    0.0000 C   0  0  0  0  0  0  0  0  0  0  0  0
   -7.8746  -20.1535    0.0000 C   0  0  0  0  0  0  0  0  0  0  0  0
   -8.5891  -20.5660    0.0000 C   0  0  0  0  0  0  0  0  0  0  0  0
   -6.4456  -21.8036    0.0000 C   0  0  0  0  0  0  0  0  0  0  0  0
   -5.7311  -21.3911    0.0000 F   0  0  0  0  0  0  0  0  0  0  0  0
   -6.4456  -22.6286    0.0000 F   0  0  0  0  0  0  0  0  0  0  0  0
   -5.7311  -22.2161    0.0000 F   0  0  0  0  0  0  0  0  0  0  0  0
   -7.8746  -19.3285    0.0000 C   0  0  0  0  0  0  0  0  0  0  0  0
   -8.5890  -18.9160    0.0000 F   0  0  0  0  0  0  0  0  0  0  0  0
   -7.1601  -18.9161    0.0000 F   0  0  0  0  0  0  0  0  0  0  0  0
   -7.8746  -18.5035    0.0000 F   0  0  0  0  0  0  0  0  0  0  0  0
   -5.5982  -20.0063    0.0000 Cl  0  0  0  0  0  0  0  0  0  0  0  0
  2  3  1  0
  2  7  2  0
  3  4  2  0
  4  5  1  0
  5  6  2  0
  6  7  1  0
  7  8  1  0
  8  9  1  1
 13  8  1  0
  8 14  1  0
 10 11  1  0
 14 10  1  0
 11 12  1  0
 12 13  1  0
 11 16  1  1
 11 17  1  0
 15 16  1  0
 15 18  1  0
 17 18  1  0
 15 19  2  0
  9 20  1  0
 20 21  1  0
 21 22  1  0
 21 23  1  1
 22 24  1  0
 22 28  2  0
 24 25  2  0
 25 26  1  0
 26 27  2  0
 27 28  1  0
 25 29  1  0
 29 30  1  0
 29 31  1  0
 29 32  1  0
 27 33  1  0
 33 34  1  0
 33 35  1  0
 33 36  1  0
M  END
> <chembl_id>
CHEMBL3707330

> <chembl_pref_name>
ROLAPITANT HYDROCHLORIDE
