
     RDKit          2D

 21 22  0  0  0  0  0  0  0  0999 V2000
    2.0417   -5.2792    0.0000 S   0  0  0  0  0  0  0  0  0  0  0  0
    2.7417   -5.2792    0.0000 N   0  0  0  0  0  0  0  0  0  0  0  0
    3.1167   -4.6500    0.0000 C   0  0  0  0  0  0  0  0  0  0  0  0
    2.7542   -4.0292    0.0000 N   0  0  0  0  0  0  0  0  0  0  0  0
    3.8250   -4.6500    0.0000 N   0  0  0  0  0  0  0  0  0  0  0  0
    2.0417   -4.5542    0.0000 O   0  0  0  0  0  0  0  0  0  0  0  0
    2.0542   -5.9917    0.0000 O   0  0  0  0  0  0  0  0  0  0  0  0
    1.3125   -5.2792    0.0000 C   0  0  0  0  0  0  0  0  0  0  0  0
    3.8250   -3.4167    0.0000 C   0  0  0  0  0  0  0  0  0  0  0  0
    4.1792   -4.0292    0.0000 C   0  0  0  0  0  0  0  0  0  0  0  0
    3.1125   -3.4167    0.0000 C   0  0  0  0  0  0  0  0  0  0  0  0
    4.1792   -2.8125    0.0000 O   0  0  0  0  0  0  0  0  0  0  0  0
    5.9500   -2.2042    0.0000 O   0  0  0  0  0  0  0  0  0  0  0  0
    0.9792   -4.6792    0.0000 C   0  0  0  0  0  0  0  0  0  0  0  0
    0.9542   -5.9000    0.0000 C   0  0  0  0  0  0  0  0  0  0  0  0
    4.8917   -2.8125    0.0000 C   0  0  0  0  0  0  0  0  0  0  0  0
    5.2500   -2.2042    0.0000 C   0  0  0  0  0  0  0  0  0  0  0  0
    6.3250   -1.5917    0.0000 C   0  0  0  0  0  0  0  0  0  0  0  0
    0.2667   -4.6792    0.0000 C   0  0  0  0  0  0  0  0  0  0  0  0
    0.2667   -5.9000    0.0000 C   0  0  0  0  0  0  0  0  0  0  0  0
   -0.0958   -5.2917    0.0000 C   0  0  0  0  0  0  0  0  0  0  0  0
  2  1  1  0
  3  2  1  0
  4  3  1  0
  5  3  2  0
  6  1  2  0
  7  1  2  0
  8  1  1  0
  9 10  2  0
 10  5  1  0
 11  4  2  0
 12  9  1  0
 13 17  1  0
 14  8  1  0
 15  8  2  0
 16 12  1  0
 17 16  1  0
 18 13  1  0
 19 14  2  0
 20 15  1  0
 21 19  1  0
 20 21  2  0
 11  9  1  0
M  END
> <chembl_id>
CHEMBL1697838

> <chembl_pref_name>
GLYMIDINE
