
     RDKit          2D

 17 19  0  0  0  0  0  0  0  0999 V2000
   -0.5708   -1.7417    0.0000 N   0  0  0  0  0  0  0  0  0  0  0  0
   -0.5708    0.5083    0.0000 C   0  0  0  0  0  0  0  0  0  0  0  0
    0.2042   -0.6167    0.0000 C   0  0  0  0  0  0  0  0  0  0  0  0
   -1.9208    0.0500    0.0000 C   0  0  0  0  0  0  0  0  0  0  0  0
   -1.9208   -1.3375    0.0000 C   0  0  0  0  0  0  0  0  0  0  0  0
    3.8500   -1.1042    0.0000 N   0  0  0  0  0  0  0  0  0  0  0  0
   -0.1750    1.8333    0.0000 C   0  0  0  0  0  0  0  0  0  0  0  0
    1.1417    2.0833    0.0000 C   0  0  0  0  0  0  0  0  0  0  0  0
    2.0542    1.0250    0.0000 C   0  0  0  0  0  0  0  0  0  0  0  0
   -3.1208    0.7500    0.0000 C   0  0  0  0  0  0  0  0  0  0  0  0
    4.3417    0.1750    0.0000 C   0  0  0  0  0  0  0  0  0  0  0  0
    2.4417   -1.3375    0.0000 C   0  0  0  0  0  0  0  0  0  0  0  0
   -3.1250   -2.0417    0.0000 C   0  0  0  0  0  0  0  0  0  0  0  0
    3.4542    1.2625    0.0000 C   0  0  0  0  0  0  0  0  0  0  0  0
    1.6000   -0.2292    0.0000 C   0  0  0  0  0  0  0  0  0  0  0  0
   -4.3458    0.0458    0.0000 C   0  0  0  0  0  0  0  0  0  0  0  0
   -4.3458   -1.3750    0.0000 C   0  0  0  0  0  0  0  0  0  0  0  0
  2  3  2  0
  3  1  1  0
  4  5  2  0
  5  1  1  0
  6 12  1  0
  7  2  1  0
  8  7  1  0
  9  8  1  0
 10  4  1  0
 11 14  1  0
 12 15  1  0
 13  5  1  0
 14  9  1  0
 15  9  1  0
 16 17  1  0
 17 13  2  0
  4  2  1  0
 10 16  2  0
 11  6  1  0
M  END
> <chembl_id>
CHEMBL276520

> <chembl_pref_name>
INDALPINE
