
     RDKit          2D

 14 15  0  0  0  0  0  0  0  0999 V2000
    6.4000   -7.2000    0.0000 S   0  0  0  0  0  0  0  0  0  0  0  0
    5.8000   -6.1292    0.0000 C   0  0  0  0  0  0  0  0  0  0  0  0
    6.2208   -5.5583    0.0000 N   0  0  0  0  0  0  0  0  0  0  0  0
    5.7917   -6.8417    0.0000 C   0  0  0  0  0  0  0  0  0  0  0  0
    5.1250   -5.9042    0.0000 C   0  0  0  0  0  0  0  0  0  0  0  0
    5.8042   -4.9792    0.0000 O   0  0  0  0  0  0  0  0  0  0  0  0
    5.1292   -5.1958    0.0000 C   0  0  0  0  0  0  0  0  0  0  0  0
    6.7500   -7.8167    0.0000 O   0  0  0  0  0  0  0  0  0  0  0  0
    6.0417   -7.8167    0.0000 O   0  0  0  0  0  0  0  0  0  0  0  0
    7.0167   -6.8542    0.0000 N   0  0  0  0  0  0  0  0  0  0  0  0
    4.5125   -6.2583    0.0000 C   0  0  0  0  0  0  0  0  0  0  0  0
    4.5125   -4.8375    0.0000 C   0  0  0  0  0  0  0  0  0  0  0  0
    3.9000   -5.9042    0.0000 C   0  0  0  0  0  0  0  0  0  0  0  0
    3.9000   -5.1917    0.0000 C   0  0  0  0  0  0  0  0  0  0  0  0
  2  4  1  0
  3  2  2  0
  4  1  1  0
  5  2  1  0
  6  3  1  0
  7  5  1  0
  8  1  2  0
  9  1  2  0
 10  1  1  0
 11  5  2  0
 12  7  2  0
 13 11  1  0
 14 12  1  0
  6  7  1  0
 14 13  2  0
M  END
> <chembl_id>
CHEMBL750

> <chembl_pref_name>
ZONISAMIDE
