
     RDKit          2D

 18 19  0  0  0  0  0  0  0  0999 V2000
    3.0250   -5.4292    0.0000 C   0  0  0  0  0  0  0  0  0  0  0  0
    3.0208   -4.6042    0.0000 C   0  0  0  0  0  0  0  0  0  0  0  0
    2.3083   -5.8417    0.0000 N   0  0  0  0  0  0  0  0  0  0  0  0
    3.8042   -4.3417    0.0000 N   0  0  0  0  0  0  0  0  0  0  0  0
    1.5958   -4.6042    0.0000 N   0  0  0  0  0  0  0  0  0  0  0  0
    3.8125   -5.6792    0.0000 N   0  0  0  0  0  0  0  0  0  0  0  0
    2.3083   -4.1875    0.0000 C   0  0  0  0  0  0  0  0  0  0  0  0
    1.5958   -5.4250    0.0000 C   0  0  0  0  0  0  0  0  0  0  0  0
    4.2958   -5.0083    0.0000 C   0  0  0  0  0  0  0  0  0  0  0  0
    3.8042   -6.5042    0.0000 C   0  0  0  0  0  0  0  0  0  0  0  0
    0.8792   -5.8375    0.0000 N   0  0  0  0  0  0  0  0  0  0  0  0
    2.3083   -3.3667    0.0000 O   0  0  0  0  0  0  0  0  0  0  0  0
    4.5125   -6.9208    0.0000 C   0  0  0  0  0  0  0  0  0  0  0  0
    5.2333   -6.5167    0.0000 C   0  0  0  0  0  0  0  0  0  0  0  0
    5.9625   -5.2833    0.0000 O   0  0  0  0  0  0  0  0  0  0  0  0
    6.6583   -6.5333    0.0000 O   0  0  0  0  0  0  0  0  0  0  0  0
    5.2417   -5.6917    0.0000 C   0  0  0  0  0  0  0  0  0  0  0  0
    5.9417   -6.9333    0.0000 C   0  0  0  0  0  0  0  0  0  0  0  0
  2  1  2  0
  3  1  1  0
  4  2  1  0
  5  8  1  0
  6  1  1  0
  7  2  1  0
  8  3  2  0
  9  6  1  0
 10  6  1  0
 11  8  1  0
 12  7  1  0
 13 10  1  0
 14 13  1  0
 15 17  1  0
 16 18  1  0
 17 14  1  0
 18 14  1  0
  4  9  2  0
  7  5  2  0
M  END
> <chembl_id>
CHEMBL1540

> <chembl_pref_name>
PENCICLOVIR
