
     RDKit          2D

 18 19  0  0  0  0  0  0  0  0999 V2000
   13.1292   -0.0167    0.0000 S   0  0  0  0  0  0  0  0  0  0  0  0
   13.7417    0.3333    0.0000 N   0  0  0  0  0  0  0  0  0  0  0  0
   14.3625   -0.0250    0.0000 C   0  0  0  0  0  0  0  0  0  0  0  0
   14.9792    0.3167    0.0000 N   0  0  0  0  0  0  0  0  0  0  0  0
   12.5125    0.3375    0.0000 C   0  0  0  0  0  0  0  0  0  0  0  0
   13.4792   -0.6375    0.0000 O   0  0  0  0  0  0  0  0  0  0  0  0
   12.7667   -0.6375    0.0000 O   0  0  0  0  0  0  0  0  0  0  0  0
   14.3583   -0.7458    0.0000 N   0  0  0  0  0  0  0  0  0  0  0  0
   12.5167    1.0500    0.0000 C   0  0  0  0  0  0  0  0  0  0  0  0
   11.9000   -0.0167    0.0000 C   0  0  0  0  0  0  0  0  0  0  0  0
   15.5958   -0.0458    0.0000 C   0  0  0  0  0  0  0  0  0  0  0  0
   14.9792   -1.1000    0.0000 C   0  0  0  0  0  0  0  0  0  0  0  0
   11.2792    1.0500    0.0000 C   0  0  0  0  0  0  0  0  0  0  0  0
   10.6667    1.4000    0.0000 N   0  0  0  0  0  0  0  0  0  0  0  0
   15.5958   -0.7458    0.0000 C   0  0  0  0  0  0  0  0  0  0  0  0
   11.9000    1.4083    0.0000 C   0  0  0  0  0  0  0  0  0  0  0  0
   11.2792    0.3333    0.0000 C   0  0  0  0  0  0  0  0  0  0  0  0
   16.2125    0.3167    0.0000 C   0  0  0  0  0  0  0  0  0  0  0  0
  2  1  1  0
  3  2  1  0
  4  3  1  0
  5  1  1  0
  6  1  2  0
  7  1  2  0
  8  3  2  0
  9  5  2  0
 10  5  1  0
 11  4  2  0
 12  8  1  0
 13 17  1  0
 14 13  1  0
 15 12  2  0
 16  9  1  0
 17 10  2  0
 18 11  1  0
 13 16  2  0
 15 11  1  0
M  END
> <chembl_id>
CHEMBL438

> <chembl_pref_name>
SULFAMERAZINE
