
     RDKit          2D

 17 16  0  0  0  0  0  0  0  0999 V2000
    3.6667    0.6458    0.0000 Na  0  0  0  0  0 15  0  0  0  0  0  0
    2.3667    0.0000    0.0000 N   0  0  0  0  0  0  0  0  0  0  0  0
   -0.1458    0.0000    0.0000 C   0  0  0  0  0  0  0  0  0  0  0  0
    1.1042    2.1875    0.0000 N   0  0  0  0  0  0  0  0  0  0  0  0
    1.1042   -0.7292    0.0000 C   0  0  0  0  0  0  0  0  0  0  0  0
    2.3667    1.4625    0.0000 C   0  0  0  0  0  0  0  0  0  0  0  0
   -0.1458    1.4625    0.0000 C   0  0  0  0  0  0  0  0  0  0  0  0
   -1.4875    0.0208    0.0000 C   0  0  0  0  0  0  0  0  0  0  0  0
    3.6167    2.1875    0.0000 O   0  0  0  0  0  0  0  0  0  0  0  0
    1.1042   -2.1542    0.0000 O   0  0  0  0  0  0  0  0  0  0  0  0
   -1.3958    2.1875    0.0000 O   0  0  0  0  0  0  0  0  0  0  0  0
   -1.2125   -1.0042    0.0000 C   0  0  0  0  0  0  0  0  0  0  0  0
   -2.2000   -1.3042    0.0000 C   0  0  0  0  0  0  0  0  0  0  0  0
   -3.6333   -1.3042    0.0000 C   0  0  0  0  0  0  0  0  0  0  0  0
   -1.2125   -2.2167    0.0000 C   0  0  0  0  0  0  0  0  0  0  0  0
   -4.2708   -2.5625    0.0000 C   0  0  0  0  0  0  0  0  0  0  0  0
   -4.3458   -0.1167    0.0000 C   0  0  0  0  0  0  0  0  0  0  0  0
  3  5  1  0
  4  6  1  0
  5  2  1  0
  6  2  2  0
  7  4  1  0
  8  3  1  0
  9  6  1  0
 10  5  2  0
 11  7  2  0
 12  3  1  0
 13  8  1  0
 14 13  1  0
 15 12  1  0
 16 14  1  0
 17 14  1  0
  3  7  1  0
M  CHG  2   1   1   9  -1
M  END
> <chembl_id>
CHEMBL2105941

> <chembl_pref_name>
AMOBARBITAL SODIUM
