
     RDKit          2D

 24 26  0  0  0  0  0  0  0  0999 V2000
    2.2250   -0.7292    0.0000 C   0  0  0  0  0  0  0  0  0  0  0  0
    1.7042   -1.5792    0.0000 C   0  0  0  0  0  0  0  0  0  0  0  0
    1.7042    1.9250    0.0000 N   0  0  0  0  0  0  0  0  0  0  0  0
    1.2250    3.4833    0.0000 N   0  0  0  0  0  0  0  0  0  0  0  0
    1.7000    0.1833    0.0000 C   0  0  0  0  0  0  0  0  0  0  0  0
    2.0292    2.8708    0.0000 C   0  0  0  0  0  0  0  0  0  0  0  0
    2.1917   -2.4542    0.0000 C   0  0  0  0  0  0  0  0  0  0  0  0
    3.2250   -0.7292    0.0000 C   0  0  0  0  0  0  0  0  0  0  0  0
    2.2125    1.0500    0.0000 C   0  0  0  0  0  0  0  0  0  0  0  0
    0.6917    0.1833    0.0000 O   0  0  0  0  0  0  0  0  0  0  0  0
    0.4167    2.9208    0.0000 C   0  0  0  0  0  0  0  0  0  0  0  0
    0.7167    1.9250    0.0000 C   0  0  0  0  0  0  0  0  0  0  0  0
    3.2250   -2.4542    0.0000 C   0  0  0  0  0  0  0  0  0  0  0  0
    0.7167   -1.5875    0.0000 Cl  0  0  0  0  0  0  0  0  0  0  0  0
    3.7292   -1.6125    0.0000 C   0  0  0  0  0  0  0  0  0  0  0  0
    0.1750   -0.6792    0.0000 C   0  0  0  0  0  0  0  0  0  0  0  0
   -2.8625   -0.6542    0.0000 C   0  0  0  0  0  0  0  0  0  0  0  0
   -0.8208   -0.6792    0.0000 C   0  0  0  0  0  0  0  0  0  0  0  0
    3.7292   -3.4042    0.0000 Cl  0  0  0  0  0  0  0  0  0  0  0  0
   -3.8833   -0.6625    0.0000 Cl  0  0  0  0  0  0  0  0  0  0  0  0
   -2.3875    0.2083    0.0000 C   0  0  0  0  0  0  0  0  0  0  0  0
   -2.3708   -1.5292    0.0000 C   0  0  0  0  0  0  0  0  0  0  0  0
   -1.3208    0.2208    0.0000 C   0  0  0  0  0  0  0  0  0  0  0  0
   -1.3333   -1.5292    0.0000 C   0  0  0  0  0  0  0  0  0  0  0  0
  2  1  1  0
  3  9  1  0
  4  6  2  0
  5  1  1  0
  6  3  1  0
  7  2  2  0
  8  1  2  0
  9  5  1  0
 10  5  1  0
 11 12  2  0
 12  3  1  0
 13 15  2  0
 14  2  1  0
 15  8  1  0
 16 10  1  0
 17 22  1  0
 18 16  1  0
 19 13  1  0
 20 17  1  0
 21 23  1  0
 22 24  2  0
 23 18  2  0
 24 18  1  0
  7 13  1  0
 11  4  1  0
 21 17  2  0
M  END
> <chembl_id>
CHEMBL808

> <chembl_pref_name>
ECONAZOLE
