
     RDKit          2D

 32 36  0  0  0  0  0  0  0  0999 V2000
    8.8754   -3.6532    0.0000 C   0  0  0  0  0  0  0  0  0  0  0  0
    9.5898   -4.0657    0.0000 C   0  0  0  0  0  0  0  0  0  0  0  0
    9.5898   -4.8907    0.0000 C   0  0  0  0  0  0  0  0  0  0  0  0
    8.8754   -5.3032    0.0000 C   0  0  0  0  0  0  0  0  0  0  0  0
    8.1609   -4.8907    0.0000 C   0  0  0  0  0  0  0  0  0  0  0  0
    7.3763   -3.8108    0.0000 O   0  0  0  0  0  0  0  0  0  0  0  0
    8.1609   -4.0657    0.0000 C   0  0  0  0  0  0  0  0  0  0  0  0
    7.3763   -5.1456    0.0000 N   0  0  0  0  0  0  0  0  0  0  0  0
    6.8913   -4.4782    0.0000 C   0  0  0  0  0  0  0  0  0  0  0  0
    6.0663   -4.4782    0.0000 N   0  0  0  0  0  0  0  0  0  0  0  0
    5.7084   -5.2215    0.0000 C   0  0  0  0  0  0  0  0  0  0  0  0
    4.9041   -5.4051    0.0000 C   0  0  0  0  0  0  0  0  0  0  0  0
    4.2591   -4.8907    0.0000 C   0  0  0  0  0  0  0  0  0  0  0  0
    4.2591   -4.0657    0.0000 N   0  0  0  0  0  0  0  0  0  0  0  0
    4.9041   -3.5513    0.0000 C   0  0  0  0  0  0  0  0  0  0  0  0
    5.7084   -3.7349    0.0000 C   0  0  0  0  0  0  0  0  0  0  0  0
    3.5158   -3.7077    0.0000 C   0  0  0  0  0  0  0  0  0  0  0  0
    3.4541   -2.8851    0.0000 O   0  0  0  0  0  0  0  0  0  0  0  0
    2.8341   -4.1725    0.0000 C   0  0  0  0  0  0  0  0  0  0  0  0
    2.8958   -4.9952    0.0000 C   0  0  0  0  0  0  0  0  0  0  0  0
    2.2141   -5.4599    0.0000 C   0  0  0  0  0  0  0  0  0  0  0  0
    1.4708   -5.1020    0.0000 C   0  0  0  0  0  0  0  0  0  0  0  0
    1.4092   -4.2793    0.0000 C   0  0  0  0  0  0  0  0  0  0  0  0
    2.0908   -3.8145    0.0000 C   0  0  0  0  0  0  0  0  0  0  0  0
    2.0292   -2.9918    0.0000 N   0  0  0  0  0  0  0  0  0  0  0  0
    2.3456   -1.6950    0.0000 C   0  0  0  0  0  0  0  0  0  0  0  0
    2.6585   -2.4584    0.0000 N   0  0  0  0  0  0  0  0  0  0  0  0
    1.3273   -2.5581    0.0000 N   0  0  0  0  0  0  0  0  0  0  0  0
    1.5229   -1.7567    0.0000 C   0  0  0  0  0  0  0  0  0  0  0  0
   10.3043   -5.3032    0.0000 Cl  0  0  0  0  0  0  0  0  0  0  0  0
    2.2758   -6.2826    0.0000 C   0  0  0  0  0  0  0  0  0  0  0  0
    3.5158   -5.2487    0.0000 C   0  0  0  0  0  0  0  0  0  0  0  0
  1  2  2  0
  1  7  1  0
  2  3  1  0
  3  4  2  0
  4  5  1  0
  5  8  1  0
  6  7  1  0
  6  9  1  0
  8  9  2  0
  7  5  2  0
  9 10  1  0
 10 11  1  0
 11 12  1  0
 12 13  1  0
 13 14  1  0
 14 15  1  0
 15 16  1  0
 16 10  1  0
 14 17  1  0
 17 18  2  0
 17 19  1  0
 19 20  1  0
 19 24  2  0
 20 21  2  0
 21 22  1  0
 22 23  2  0
 23 24  1  0
 24 25  1  0
 27 25  1  0
 25 28  1  0
 26 27  2  0
 26 29  1  0
 28 29  2  0
  3 30  1  0
 21 31  1  0
 13 32  1  1
M  END
> <chembl_id>
CHEMBL1083659

> <chembl_pref_name>
SUVOREXANT
