
     RDKit          2D

  9  4  0  0  0  0  0  0  0  0999 V2000
    3.2625    1.3125    0.0000 O   0  0  0  0  0  0  0  0  0  0  0  0
   -0.4000   -0.0667    0.0000 P   0  0  0  0  0  0  0  0  0  0  0  0
    1.0792   -0.1042    0.0000 O   0  0  0  0  0  0  0  0  0  0  0  0
    0.3167   -1.3000    0.0000 O   0  0  0  0  0  0  0  0  0  0  0  0
   -0.4000    1.4000    0.0000 O   0  0  0  0  0  0  0  0  0  0  0  0
   -1.6958   -0.4500    0.0000 O   0  0  0  0  0  0  0  0  0  0  0  0
    1.2000   -1.0292    0.0000 Na  0  0  0  0  0 15  0  0  0  0  0  0
   -0.9458   -1.1375    0.0000 Na  0  0  0  0  0 15  0  0  0  0  0  0
   -2.5500    1.5625    0.0000 O   0  0  0  0  0  0  0  0  0  0  0  0
  3  2  1  0
  4  2  1  0
  5  2  2  0
  6  2  1  0
M  CHG  4   3  -1   4  -1   7   1   8   1
M  END
> <chembl_id>
CHEMBL2107560

> <chembl_pref_name>
SODIUM PHOSPHATE, DIBASIC
