
     RDKit          2D

 10  9  0  0  1  0  0  0  0  0999 V2000
  -12.3569    1.0962    0.0000 N   0  0  0  0  0  0  0  0  0  0  0  0
  -11.6424    1.5087    0.0000 C   0  0  0  0  0  0  0  0  0  0  0  0
  -10.9280    1.0962    0.0000 C   0  0  0  0  0  0  0  0  0  0  0  0
  -10.2135    1.5087    0.0000 O   0  0  0  0  0  0  0  0  0  0  0  0
  -10.9280    0.2712    0.0000 O   0  0  0  0  0  0  0  0  0  0  0  0
  -11.6424    2.3337    0.0000 C   0  0  0  0  0  0  0  0  0  0  0  0
  -10.9280    2.7462    0.0000 C   0  0  0  0  0  0  0  0  0  0  0  0
  -10.9280    3.5712    0.0000 C   0  0  0  0  0  0  0  0  0  0  0  0
  -10.2135    3.9837    0.0000 C   0  0  0  0  0  0  0  0  0  0  0  0
  -10.2135    4.8087    0.0000 N   0  0  0  0  0  0  0  0  0  0  0  0
  2  1  1  1
  2  3  1  0
  3  4  1  0
  3  5  2  0
  2  6  1  0
  6  7  1  0
  7  8  1  0
  8  9  1  0
  9 10  1  0
M  END
> <chembl_id>
CHEMBL8085

> <chembl_pref_name>
LYSINE
