
     RDKit          2D

 93 92  0  0  0  0  0  0  0  0999 V2000
    1.9767  -15.8399    0.0000 C   0  0  0  0  0  0  0  0  0  0  0  0
    2.6902  -14.6022    0.0000 C   0  0  0  0  0  0  0  0  0  0  0  0
    2.6902  -15.4225    0.0000 C   0  0  0  0  0  0  0  0  0  0  0  0
    0.8555  -17.7960    0.0000 C   0  0  0  0  0  0  0  0  0  0  0  0
    1.2679  -17.0825    0.0000 C   0  0  0  0  0  0  0  0  0  0  0  0
    0.0302  -17.7960    0.0000 C   0  0  0  0  0  0  0  0  0  0  0  0
    1.9767  -16.6603    0.0000 O   0  0  0  0  0  0  0  0  0  0  0  0
    3.4085  -14.1896    0.0000 O   0  0  0  0  0  0  0  0  0  0  0  0
    4.1220  -14.6022    0.0000 C   0  0  0  0  0  0  0  0  0  0  0  0
   -0.3823  -17.0825    0.0000 C   0  0  0  0  0  0  0  0  0  0  0  0
    4.1220  -15.4225    0.0000 O   0  0  0  0  0  0  0  0  0  0  0  0
    1.2632  -15.4225    0.0000 C   0  0  0  0  0  0  0  0  0  0  0  0
    1.9767  -14.1848    0.0000 C   0  0  0  0  0  0  0  0  0  0  0  0
    0.8555  -16.3690    0.0000 O   0  0  0  0  0  0  0  0  0  0  0  0
    1.2632  -14.6022    0.0000 C   0  0  0  0  0  0  0  0  0  0  0  0
    4.8355  -15.8399    0.0000 C   0  0  0  0  0  0  0  0  0  0  0  0
    0.0302  -16.3690    0.0000 C   0  0  0  0  0  0  0  0  0  0  0  0
    5.5490  -15.4225    0.0000 C   0  0  0  0  0  0  0  0  0  0  0  0
    4.8355  -14.1848    0.0000 C   0  0  0  0  0  0  0  0  0  0  0  0
    5.5490  -14.6022    0.0000 C   0  0  0  0  0  0  0  0  0  0  0  0
   -0.3775  -18.5096    0.0000 N   0  0  0  0  0  0  0  0  0  0  0  0
    1.2679  -18.5096    0.0000 O   0  0  0  0  0  0  0  0  0  0  0  0
    3.4085  -15.8350    0.0000 O   0  0  0  0  0  0  0  0  0  0  0  0
    0.5497  -15.8350    0.0000 N   0  0  0  0  0  0  0  0  0  0  0  0
    1.9767  -13.3645    0.0000 N   0  0  0  0  0  0  0  0  0  0  0  0
   -1.1056  -17.4903    0.0000 O   0  0  0  0  0  0  0  0  0  0  0  0
    4.8355  -13.3645    0.0000 N   0  0  0  0  0  0  0  0  0  0  0  0
    4.1172  -17.0776    0.0000 N   0  0  0  0  0  0  0  0  0  0  0  0
   -1.1056  -16.6699    0.0000 C   0  0  0  0  0  0  0  0  0  0  0  0
    4.8355  -16.6603    0.0000 C   0  0  0  0  0  0  0  0  0  0  0  0
   -0.1638  -15.4225    0.0000 C   0  0  0  0  0  0  0  0  0  0  0  0
   -1.2026  -18.5096    0.0000 C   0  0  0  0  0  0  0  0  0  0  0  0
   -0.8774  -15.8350    0.0000 C   0  0  0  0  0  0  0  0  0  0  0  0
    1.9767  -17.4903    0.0000 H   0  0  0  0  0  0  0  0  0  0  0  0
    6.2469  -12.1734    0.0000 S   0  0  0  0  0  0  0  0  0  0  0  0
    6.6546  -11.4502    0.0000 O   0  0  0  0  0  0  0  0  0  0  0  0
    5.8295  -11.4502    0.0000 O   0  0  0  0  0  0  0  0  0  0  0  0
    5.5333  -12.5860    0.0000 O   0  0  0  0  0  0  0  0  0  0  0  0
    6.9604  -12.5860    0.0000 O   0  0  0  0  0  0  0  0  0  0  0  0
    1.9124  -10.3677    0.0000 C   0  0  0  0  0  0  0  0  0  0  0  0
    2.6259   -9.1300    0.0000 C   0  0  0  0  0  0  0  0  0  0  0  0
    2.6259   -9.9503    0.0000 C   0  0  0  0  0  0  0  0  0  0  0  0
    0.7912  -12.3239    0.0000 C   0  0  0  0  0  0  0  0  0  0  0  0
    1.2037  -11.6103    0.0000 C   0  0  0  0  0  0  0  0  0  0  0  0
   -0.0340  -12.3239    0.0000 C   0  0  0  0  0  0  0  0  0  0  0  0
    1.9124  -11.1881    0.0000 O   0  0  0  0  0  0  0  0  0  0  0  0
    3.3442   -8.7174    0.0000 O   0  0  0  0  0  0  0  0  0  0  0  0
    4.0577   -9.1300    0.0000 C   0  0  0  0  0  0  0  0  0  0  0  0
   -0.4465  -11.6103    0.0000 C   0  0  0  0  0  0  0  0  0  0  0  0
    4.0577   -9.9503    0.0000 O   0  0  0  0  0  0  0  0  0  0  0  0
    1.1989   -9.9503    0.0000 C   0  0  0  0  0  0  0  0  0  0  0  0
    1.9124   -8.7126    0.0000 C   0  0  0  0  0  0  0  0  0  0  0  0
    0.7912  -10.8968    0.0000 O   0  0  0  0  0  0  0  0  0  0  0  0
    1.1989   -9.1300    0.0000 C   0  0  0  0  0  0  0  0  0  0  0  0
    4.7713  -10.3677    0.0000 C   0  0  0  0  0  0  0  0  0  0  0  0
   -0.0340  -10.8968    0.0000 C   0  0  0  0  0  0  0  0  0  0  0  0
    5.4848   -9.9503    0.0000 C   0  0  0  0  0  0  0  0  0  0  0  0
    4.7713   -8.7126    0.0000 C   0  0  0  0  0  0  0  0  0  0  0  0
    5.4848   -9.1300    0.0000 C   0  0  0  0  0  0  0  0  0  0  0  0
   -0.4417  -13.0374    0.0000 N   0  0  0  0  0  0  0  0  0  0  0  0
    1.2037  -13.0374    0.0000 O   0  0  0  0  0  0  0  0  0  0  0  0
    3.3442  -10.3628    0.0000 O   0  0  0  0  0  0  0  0  0  0  0  0
    0.4854  -10.3628    0.0000 N   0  0  0  0  0  0  0  0  0  0  0  0
    1.9124   -7.8923    0.0000 N   0  0  0  0  0  0  0  0  0  0  0  0
   -1.1698  -12.0181    0.0000 O   0  0  0  0  0  0  0  0  0  0  0  0
    4.7713   -7.8923    0.0000 N   0  0  0  0  0  0  0  0  0  0  0  0
    4.0530  -11.6055    0.0000 N   0  0  0  0  0  0  0  0  0  0  0  0
   -1.1698  -11.1977    0.0000 C   0  0  0  0  0  0  0  0  0  0  0  0
    4.7713  -11.1881    0.0000 C   0  0  0  0  0  0  0  0  0  0  0  0
   -0.2281   -9.9503    0.0000 C   0  0  0  0  0  0  0  0  0  0  0  0
   -1.2668  -13.0374    0.0000 C   0  0  0  0  0  0  0  0  0  0  0  0
   -0.9416  -10.3628    0.0000 C   0  0  0  0  0  0  0  0  0  0  0  0
    1.9124  -12.0181    0.0000 H   0  0  0  0  0  0  0  0  0  0  0  0
    8.7636  -10.9988    0.0000 S   0  0  0  0  0  0  0  0  0  0  0  0
    9.1713  -10.2756    0.0000 O   0  0  0  0  0  0  0  0  0  0  0  0
    8.3462  -10.2756    0.0000 O   0  0  0  0  0  0  0  0  0  0  0  0
    8.0501  -11.4114    0.0000 O   0  0  0  0  0  0  0  0  0  0  0  0
    9.4771  -11.4114    0.0000 O   0  0  0  0  0  0  0  0  0  0  0  0
   10.5103  -13.2526    0.0000 S   0  0  0  0  0  0  0  0  0  0  0  0
   10.9180  -12.5294    0.0000 O   0  0  0  0  0  0  0  0  0  0  0  0
   10.0929  -12.5294    0.0000 O   0  0  0  0  0  0  0  0  0  0  0  0
    9.7968  -13.6652    0.0000 O   0  0  0  0  0  0  0  0  0  0  0  0
   11.2238  -13.6652    0.0000 O   0  0  0  0  0  0  0  0  0  0  0  0
    8.1156  -14.3513    0.0000 S   0  0  0  0  0  0  0  0  0  0  0  0
    8.5233  -13.6281    0.0000 O   0  0  0  0  0  0  0  0  0  0  0  0
    7.6982  -13.6281    0.0000 O   0  0  0  0  0  0  0  0  0  0  0  0
    7.4021  -14.7639    0.0000 O   0  0  0  0  0  0  0  0  0  0  0  0
    8.8291  -14.7639    0.0000 O   0  0  0  0  0  0  0  0  0  0  0  0
   10.2567  -17.1404    0.0000 S   0  0  0  0  0  0  0  0  0  0  0  0
   10.6644  -16.4172    0.0000 O   0  0  0  0  0  0  0  0  0  0  0  0
    9.8393  -16.4172    0.0000 O   0  0  0  0  0  0  0  0  0  0  0  0
    9.5432  -17.5530    0.0000 O   0  0  0  0  0  0  0  0  0  0  0  0
   10.9702  -17.5530    0.0000 O   0  0  0  0  0  0  0  0  0  0  0  0
  2  3  1  0
  3  1  1  0
  4  5  1  0
  5  7  1  0
  6  4  1  0
  1  7  1  1
  2  8  1  1
  9  8  1  6
 10 17  1  0
 11  9  1  0
 12  1  1  0
 13  2  1  0
 14  5  1  0
 15 12  1  0
 16 11  1  0
 17 14  1  0
 18 20  1  0
 19  9  1  0
 20 19  1  0
  6 21  1  1
  4 22  1  6
  3 23  1  6
 12 24  1  6
 13 25  1  6
 10 26  1  1
 19 27  1  6
 28 30  1  0
 29 10  1  0
 30 16  1  0
 31 24  1  0
 32 21  1  0
 33 31  1  0
  5 34  1  1
 13 15  1  0
 10  6  1  0
 18 16  2  0
 36 35  2  0
 37 35  2  0
 38 35  1  0
 39 35  1  0
 41 42  1  0
 42 40  1  0
 43 44  1  0
 44 46  1  0
 45 43  1  0
 40 46  1  1
 41 47  1  1
 48 47  1  6
 49 56  1  0
 50 48  1  0
 51 40  1  0
 52 41  1  0
 53 44  1  0
 54 51  1  0
 55 50  1  0
 56 53  1  0
 57 59  1  0
 58 48  1  0
 59 58  1  0
 45 60  1  1
 43 61  1  6
 42 62  1  6
 51 63  1  6
 52 64  1  6
 49 65  1  1
 58 66  1  6
 67 69  1  0
 68 49  1  0
 69 55  1  0
 70 63  1  0
 71 60  1  0
 72 70  1  0
 44 73  1  1
 52 54  1  0
 49 45  1  0
 57 55  2  0
 75 74  2  0
 76 74  2  0
 77 74  1  0
 78 74  1  0
 80 79  2  0
 81 79  2  0
 82 79  1  0
 83 79  1  0
 85 84  2  0
 86 84  2  0
 87 84  1  0
 88 84  1  0
 90 89  2  0
 91 89  2  0
 92 89  1  0
 93 89  1  0
M  END
> <chembl_id>
CHEMBL3989829

> <chembl_pref_name>
NETILMICIN SULFATE
