
     RDKit          2D

 14 14  0  0  0  0  0  0  0  0999 V2000
    1.3667   -4.3917    0.0000 S   0  0  0  0  0  0  0  0  0  0  0  0
    1.9792   -4.7458    0.0000 N   0  0  0  0  0  0  0  0  0  0  0  0
    0.7542   -4.7500    0.0000 C   0  0  0  0  0  0  0  0  0  0  0  0
    2.5917   -4.3875    0.0000 C   0  0  0  0  0  0  0  0  0  0  0  0
    1.7167   -3.7750    0.0000 O   0  0  0  0  0  0  0  0  0  0  0  0
    1.0042   -3.7750    0.0000 O   0  0  0  0  0  0  0  0  0  0  0  0
    2.5917   -3.6792    0.0000 O   0  0  0  0  0  0  0  0  0  0  0  0
    0.7542   -5.4625    0.0000 C   0  0  0  0  0  0  0  0  0  0  0  0
    0.1417   -4.3958    0.0000 C   0  0  0  0  0  0  0  0  0  0  0  0
   -0.4708   -5.4625    0.0000 C   0  0  0  0  0  0  0  0  0  0  0  0
   -1.0833   -5.8167    0.0000 N   0  0  0  0  0  0  0  0  0  0  0  0
   -0.4708   -4.7500    0.0000 C   0  0  0  0  0  0  0  0  0  0  0  0
    0.1417   -5.8167    0.0000 C   0  0  0  0  0  0  0  0  0  0  0  0
    3.2083   -4.7417    0.0000 C   0  0  0  0  0  0  0  0  0  0  0  0
  2  1  1  0
  3  1  1  0
  4  2  1  0
  5  1  2  0
  6  1  2  0
  7  4  2  0
  8  3  1  0
  9  3  2  0
 10 12  2  0
 11 10  1  0
 12  9  1  0
 13  8  2  0
 14  4  1  0
 13 10  1  0
M  END
> <chembl_id>
CHEMBL455

> <chembl_pref_name>
SULFACETAMIDE
