
     RDKit          2D

  9  7  0  0  0  0  0  0  0  0999 V2000
    7.2333   -4.9042    0.0000 Na  0  0  0  0  0 15  0  0  0  0  0  0
    5.9333   -4.9667    0.0000 C   0  0  0  0  0  0  0  0  0  0  0  0
    4.0917   -4.6167    0.0000 C   0  0  0  0  0  0  0  0  0  0  0  0
    6.5458   -4.6167    0.0000 O   0  0  0  0  0  0  0  0  0  0  0  0
    3.4792   -4.9667    0.0000 O   0  0  0  0  0  0  0  0  0  0  0  0
    5.9333   -5.6792    0.0000 O   0  0  0  0  0  0  0  0  0  0  0  0
    4.0917   -3.9042    0.0000 O   0  0  0  0  0  0  0  0  0  0  0  0
    4.7083   -4.9667    0.0000 C   0  0  0  0  0  0  0  0  0  0  0  0
    5.3208   -4.6167    0.0000 C   0  0  0  0  0  0  0  0  0  0  0  0
  3  8  1  0
  4  2  1  0
  5  3  1  0
  6  2  2  0
  7  3  2  0
  8  9  1  0
  9  2  1  0
M  CHG  2   1   1   4  -1
M  END
> <chembl_id>
CHEMBL1200345

> <chembl_pref_name>
SODIUM SUCCINATE
