
     RDKit          2D

 37 39  0  0  0  0  0  0  0  0999 V2000
   -0.6458  -10.1167    0.0000 C   0  0  0  0  0  0  0  0  0  0  0  0
   -0.6458   -9.4042    0.0000 O   0  0  0  0  0  0  0  0  0  0  0  0
    0.5917  -10.8167    0.0000 N   0  0  0  0  0  0  0  0  0  0  0  0
   -0.0208   -9.7500    0.0000 C   0  0  0  0  0  0  0  0  0  0  0  0
   -0.6375  -10.8250    0.0000 C   0  0  0  0  0  0  0  0  0  0  0  0
   -0.0375   -9.0458    0.0000 C   0  0  0  0  0  0  0  0  0  0  0  0
   -1.2583   -9.7542    0.0000 C   0  0  0  0  0  0  0  0  0  0  0  0
    3.0542  -10.8042    0.0000 C   0  0  0  0  0  0  0  0  0  0  0  0
    3.6667  -11.1625    0.0000 C   0  0  0  0  0  0  0  0  0  0  0  0
    0.5792   -9.3958    0.0000 O   0  0  0  0  0  0  0  0  0  0  0  0
    3.0542  -10.0917    0.0000 O   0  0  0  0  0  0  0  0  0  0  0  0
   -0.0125  -11.1792    0.0000 C   0  0  0  0  0  0  0  0  0  0  0  0
    0.5917  -10.1042    0.0000 C   0  0  0  0  0  0  0  0  0  0  0  0
   -1.2583   -9.0500    0.0000 C   0  0  0  0  0  0  0  0  0  0  0  0
   -1.8833  -10.1125    0.0000 C   0  0  0  0  0  0  0  0  0  0  0  0
    4.2750  -10.8042    0.0000 C   0  0  0  0  0  0  0  0  0  0  0  0
    3.6667  -11.8667    0.0000 C   0  0  0  0  0  0  0  0  0  0  0  0
    4.9042  -11.8625    0.0000 C   0  0  0  0  0  0  0  0  0  0  0  0
   -2.4875   -9.0417    0.0000 C   0  0  0  0  0  0  0  0  0  0  0  0
   -1.8708   -8.6917    0.0000 C   0  0  0  0  0  0  0  0  0  0  0  0
   -2.4958   -9.7542    0.0000 C   0  0  0  0  0  0  0  0  0  0  0  0
    4.2792  -12.2292    0.0000 C   0  0  0  0  0  0  0  0  0  0  0  0
    4.9000  -11.1542    0.0000 C   0  0  0  0  0  0  0  0  0  0  0  0
    5.5292  -12.2042    0.0000 F   0  0  0  0  0  0  0  0  0  0  0  0
   -3.1208   -8.6875    0.0000 Cl  0  0  0  0  0  0  0  0  0  0  0  0
    1.2167  -11.1667    0.0000 C   0  0  0  0  0  0  0  0  0  0  0  0
    1.8292  -10.8042    0.0000 C   0  0  0  0  0  0  0  0  0  0  0  0
    2.4417  -11.1542    0.0000 C   0  0  0  0  0  0  0  0  0  0  0  0
   -0.0417   -8.3375    0.0000 C   0  0  0  0  0  0  0  0  0  0  0  0
    0.5708   -7.9792    0.0000 C   0  0  0  0  0  0  0  0  0  0  0  0
    4.2500   -7.9583    0.0000 C   0  0  0  0  0  0  0  0  0  0  0  0
    3.6417   -8.3125    0.0000 C   0  0  0  0  0  0  0  0  0  0  0  0
    2.4125   -8.3208    0.0000 C   0  0  0  0  0  0  0  0  0  0  0  0
    3.0250   -7.9625    0.0000 C   0  0  0  0  0  0  0  0  0  0  0  0
    1.1875   -8.3292    0.0000 C   0  0  0  0  0  0  0  0  0  0  0  0
    1.7958   -7.9708    0.0000 C   0  0  0  0  0  0  0  0  0  0  0  0
    4.8667   -8.3083    0.0000 C   0  0  0  0  0  0  0  0  0  0  0  0
  2  1  1  0
  3 13  1  0
  4  1  1  0
  5  1  1  0
  6  2  1  0
  7  1  1  0
  8 28  1  0
  9  8  1  0
 10  6  2  0
 11  8  2  0
 12  5  1  0
 13  4  1  0
 14  7  2  0
 15  7  1  0
 16  9  1  0
 17  9  2  0
 18 23  1  0
 19 21  1  0
 20 14  1  0
 21 15  2  0
 22 17  1  0
 23 16  2  0
 24 18  1  0
 25 19  1  0
 26  3  1  0
 27 26  1  0
 28 27  1  0
 29  6  1  0
 30 29  1  0
 31 32  1  0
 32 34  1  0
 33 36  1  0
 34 33  1  0
 35 30  1  0
 36 35  1  0
 37 31  1  0
 12  3  1  0
 20 19  2  0
 22 18  2  0
M  END
> <chembl_id>
CHEMBL1200986

> <chembl_pref_name>
HALOPERIDOL DECANOATE
