
     RDKit          2D

 35 38  0  0  1  0  0  0  0  0999 V2000
    0.1750   -1.8500    0.0000 C   0  0  0  0  0  0  0  0  0  0  0  0
    0.7667   -0.7500    0.0000 N   0  0  0  0  0  0  0  0  0  0  0  0
    0.1750   -1.1000    0.0000 C   0  0  0  0  0  0  0  0  0  0  0  0
   -0.4583   -2.9375    0.0000 C   0  0  0  0  0  0  0  0  0  0  0  0
   -0.4625   -4.3500    0.0000 C   0  0  0  0  0  0  0  0  0  0  0  0
    0.1750   -3.3000    0.0000 C   0  0  0  0  0  0  0  0  0  0  0  0
   -1.0625   -3.3000    0.0000 C   0  0  0  0  0  0  0  0  0  0  0  0
    0.7875   -2.9542    0.0000 N   0  0  0  0  0  0  0  0  0  0  0  0
   -1.0625   -4.0042    0.0000 C   0  0  0  0  0  0  0  0  0  0  0  0
    0.7667   -0.0333    0.0000 C   0  0  0  0  0  0  0  0  0  0  0  0
   -0.4458   -2.1875    0.0000 C   0  0  0  0  0  0  0  0  0  0  0  0
    0.1750   -4.0375    0.0000 C   0  0  0  0  0  0  0  0  0  0  0  0
   -0.7083   -5.0375    0.0000 C   0  0  0  0  0  0  0  0  0  0  0  0
   -1.4083   -5.0375    0.0000 N   0  0  0  0  0  0  0  0  0  0  0  0
    0.7875   -2.2250    0.0000 C   0  0  0  0  0  0  0  0  0  0  0  0
   -1.6708   -4.3500    0.0000 C   0  0  0  0  0  0  0  0  0  0  0  0
   -0.4458   -0.7917    0.0000 O   0  0  0  0  0  0  0  0  0  0  0  0
    0.1542    0.2875    0.0000 O   0  0  0  0  0  0  0  0  0  0  0  0
    1.3917    0.3250    0.0000 N   0  0  0  0  0  0  0  0  0  0  0  0
    1.9750   -2.9042    0.0000 C   0  0  0  0  0  0  0  0  0  0  0  0
    1.4000   -1.1000    0.0000 C   0  0  0  0  0  0  0  0  0  0  0  0
    1.3792   -3.2750    0.0000 C   0  0  0  0  0  0  0  0  0  0  0  0
    2.5792   -3.2250    0.0000 C   0  0  0  0  0  0  0  0  0  0  0  0
    2.0292   -0.7500    0.0000 C   0  0  0  0  0  0  0  0  0  0  0  0
   -1.6708   -2.9375    0.0000 C   0  0  0  0  0  0  0  0  0  0  0  0
    3.2625   -0.7625    0.0000 N   0  0  0  0  0  0  0  0  0  0  0  0
    2.6292   -1.1000    0.0000 C   0  0  0  0  0  0  0  0  0  0  0  0
   -2.2833   -3.2792    0.0000 C   0  0  0  0  0  0  0  0  0  0  0  0
   -2.2833   -3.9875    0.0000 C   0  0  0  0  0  0  0  0  0  0  0  0
    1.9958   -0.0208    0.0000 C   0  0  0  0  0  0  0  0  0  0  0  0
    3.2625   -0.0750    0.0000 C   0  0  0  0  0  0  0  0  0  0  0  0
    3.8542   -1.0875    0.0000 C   0  0  0  0  0  0  0  0  0  0  0  0
    2.5625    0.2750    0.0000 C   0  0  0  0  0  0  0  0  0  0  0  0
   -1.0833   -2.5625    0.0000 H   0  0  0  0  0  0  0  0  0  0  0  0
    0.8750   -3.6750    0.0000 H   0  0  0  0  0  0  0  0  0  0  0  0
  2  3  1  0
  1  3  1  1
  4 11  1  0
  5 12  1  0
  6  8  1  0
  7  4  1  0
  8 15  1  0
  9  7  1  0
 10  2  1  0
 11  1  1  0
 12  6  1  0
 13  5  2  0
 14 16  1  0
 15  1  1  0
 16  9  2  0
 17  3  2  0
 18 10  2  0
 19 10  1  0
 20 22  1  0
 21  2  1  0
 22  8  1  0
 23 20  2  0
 24 21  1  0
 25  7  2  0
 26 27  1  0
 27 24  1  0
 28 25  1  0
 29 28  2  0
 30 19  1  0
 31 26  1  0
 32 26  1  0
 33 30  1  0
  4 34  1  6
  6 35  1  1
  4  6  1  0
  9  5  1  0
 16 29  1  0
 13 14  1  0
M  END
> <chembl_id>
CHEMBL1201087

> <chembl_pref_name>
CABERGOLINE
