
     RDKit          2D

 24 26  0  0  0  0  0  0  0  0999 V2000
    0.6542   -0.7792    0.0000 C   0  0  0  0  0  0  0  0  0  0  0  0
   -0.3875   -1.1000    0.0000 C   0  0  0  0  0  0  0  0  0  0  0  0
    1.2542   -1.6625    0.0000 O   0  0  0  0  0  0  0  0  0  0  0  0
   -0.3875   -2.2042    0.0000 C   0  0  0  0  0  0  0  0  0  0  0  0
   -4.2083   -3.3792    0.0000 N   0  0  0  0  0  0  0  0  0  0  0  0
    1.5167   -0.0917    0.0000 C   0  0  0  0  0  0  0  0  0  0  0  0
   -3.2458   -2.8042    0.0000 C   0  0  0  0  0  0  0  0  0  0  0  0
   -1.3458   -0.5500    0.0000 C   0  0  0  0  0  0  0  0  0  0  0  0
    0.6542   -2.5542    0.0000 C   0  0  0  0  0  0  0  0  0  0  0  0
   -1.3458   -2.7792    0.0000 C   0  0  0  0  0  0  0  0  0  0  0  0
   -2.2958   -2.2375    0.0000 C   0  0  0  0  0  0  0  0  0  0  0  0
    1.3667    0.9583    0.0000 C   0  0  0  0  0  0  0  0  0  0  0  0
    2.5542   -0.4792    0.0000 C   0  0  0  0  0  0  0  0  0  0  0  0
   -2.2958   -1.1000    0.0000 C   0  0  0  0  0  0  0  0  0  0  0  0
    3.2417    1.1958    0.0000 C   0  0  0  0  0  0  0  0  0  0  0  0
    0.6667    0.3500    0.0000 C   0  0  0  0  0  0  0  0  0  0  0  0
   -1.3833    2.4833    0.0000 N   0  0  0  0  0  0  0  0  0  0  0  0
    2.1792    1.6250    0.0000 C   0  0  0  0  0  0  0  0  0  0  0  0
    3.4000    0.2000    0.0000 C   0  0  0  0  0  0  0  0  0  0  0  0
    4.2625    1.9250    0.0000 F   0  0  0  0  0  0  0  0  0  0  0  0
   -0.3583    0.8458    0.0000 C   0  0  0  0  0  0  0  0  0  0  0  0
   -0.3583    1.9708    0.0000 C   0  0  0  0  0  0  0  0  0  0  0  0
   -1.4083    3.5875    0.0000 C   0  0  0  0  0  0  0  0  0  0  0  0
   -2.2958    1.8833    0.0000 C   0  0  0  0  0  0  0  0  0  0  0  0
  2  1  1  0
  3  1  1  0
  4  2  2  0
  5  7  3  0
  6  1  1  0
  7 11  1  0
  8  2  1  0
  9  3  1  0
 10  4  1  0
 11 14  1  0
 12  6  1  0
 13  6  2  0
 14  8  2  0
 15 19  2  0
 16  1  1  0
 17 22  1  0
 18 12  2  0
 19 13  1  0
 20 15  1  0
 21 16  1  0
 22 21  1  0
 23 17  1  0
 24 17  1  0
  4  9  1  0
 18 15  1  0
 10 11  2  0
M  END
> <chembl_id>
CHEMBL549

> <chembl_pref_name>
CITALOPRAM
