
     RDKit          2D

 19 19  0  0  0  0  0  0  0  0999 V2000
    0.8042   -2.6875    0.0000 Cl  0  0  0  0  0  0  0  0  0  0  0  0
    0.8042   -0.3333    0.0000 C   0  0  0  0  0  0  0  0  0  0  0  0
    1.4167   -0.6875    0.0000 C   0  0  0  0  0  0  0  0  0  0  0  0
   -0.4250   -0.3292    0.0000 N   0  0  0  0  0  0  0  0  0  0  0  0
    0.1875   -0.6875    0.0000 C   0  0  0  0  0  0  0  0  0  0  0  0
    0.8042    0.3750    0.0000 C   0  0  0  0  0  0  0  0  0  0  0  0
    1.4167   -1.3958    0.0000 O   0  0  0  0  0  0  0  0  0  0  0  0
    2.0292   -0.3333    0.0000 O   0  0  0  0  0  0  0  0  0  0  0  0
   -1.0333   -0.6875    0.0000 C   0  0  0  0  0  0  0  0  0  0  0  0
    0.1917    0.7292    0.0000 C   0  0  0  0  0  0  0  0  0  0  0  0
    1.4167    0.7292    0.0000 C   0  0  0  0  0  0  0  0  0  0  0  0
    0.1875   -1.3917    0.0000 C   0  0  0  0  0  0  0  0  0  0  0  0
    2.6417   -0.6875    0.0000 C   0  0  0  0  0  0  0  0  0  0  0  0
   -1.0333   -1.3917    0.0000 C   0  0  0  0  0  0  0  0  0  0  0  0
    1.4208    1.4375    0.0000 C   0  0  0  0  0  0  0  0  0  0  0  0
    0.1875    1.4333    0.0000 C   0  0  0  0  0  0  0  0  0  0  0  0
   -0.4250   -1.7500    0.0000 C   0  0  0  0  0  0  0  0  0  0  0  0
    0.8042    1.7917    0.0000 C   0  0  0  0  0  0  0  0  0  0  0  0
    0.8000   -1.0417    0.0000 H   0  0  0  0  0  0  0  0  0  0  0  0
  3  2  1  0
  4  5  1  0
  5  2  1  0
  2  6  1  1
  7  3  2  0
  8  3  1  0
  9  4  1  0
 10  6  1  0
 11  6  2  0
 12  5  1  0
 13  8  1  0
 14  9  1  0
 15 11  1  0
 16 10  2  0
 17 12  1  0
 18 16  1  0
  5 19  1  6
 17 14  1  0
 18 15  2  0
M  END
> <chembl_id>
CHEMBL904

> <chembl_pref_name>
DEXMETHYLPHENIDATE HYDROCHLORIDE
