
     RDKit          2D

 30 33  0  0  0  0  0  0  0  0999 V2000
    1.1822   -4.7987    0.0000 C   0  0  0  0  0  0  0  0  0  0  0  0
    1.8967   -4.3861    0.0000 C   0  0  0  0  0  0  0  0  0  0  0  0
    1.8967   -3.5611    0.0000 C   0  0  0  0  0  0  0  0  0  0  0  0
    1.1288   -3.1713    0.0000 C   0  0  0  0  0  0  0  0  0  0  0  0
    0.4678   -3.5611    0.0000 C   0  0  0  0  0  0  0  0  0  0  0  0
    0.4678   -4.3861    0.0000 C   0  0  0  0  0  0  0  0  0  0  0  0
    2.6112   -3.1486    0.0000 C   0  0  0  0  0  0  0  0  0  0  0  0
    3.3257   -3.5611    0.0000 O   0  0  0  0  0  0  0  0  0  0  0  0
    3.3257   -4.3861    0.0000 C   0  0  0  0  0  0  0  0  0  0  0  0
    2.6112   -4.7986    0.0000 C   0  0  0  0  0  0  0  0  0  0  0  0
    0.8856   -2.4714    0.0000 C   0  0  0  0  0  0  0  0  0  0  0  0
    1.3503   -1.7897    0.0000 C   0  0  0  0  0  0  0  0  0  0  0  0
    2.1730   -1.7281    0.0000 C   0  0  0  0  0  0  0  0  0  0  0  0
    2.7341   -2.3328    0.0000 O   0  0  0  0  0  0  0  0  0  0  0  0
    1.8967   -5.2111    0.0000 H   0  0  0  0  0  0  0  0  0  0  0  0
    0.4143   -2.7588    0.0000 H   0  0  0  0  0  0  0  0  0  0  0  0
   -0.2486   -3.1519    0.0000 C   0  0  0  0  0  0  0  0  0  0  0  0
    1.6537   -2.9116    0.0000 O   0  0  0  0  0  0  0  0  0  0  0  0
    1.5897   -2.2231    0.0000 O   0  0  0  0  0  0  0  0  0  0  0  0
    2.4744   -0.9602    0.0000 C   0  0  0  0  0  0  0  0  0  0  0  0
    2.6112   -3.9736    0.0000 H   0  0  0  0  0  0  0  0  0  0  0  0
    2.6112   -5.6236    0.0000 C   0  0  0  0  0  0  0  0  0  0  0  0
    4.0401   -4.7986    0.0000 O   0  0  0  0  0  0  0  0  0  0  0  0
    4.7546   -4.3861    0.0000 C   0  0  0  0  0  0  0  0  0  0  0  0
    5.4691   -4.7986    0.0000 C   0  0  0  0  0  0  0  0  0  0  0  0
    6.1836   -4.3861    0.0000 C   0  0  0  0  0  0  0  0  0  0  0  0
    6.8980   -4.7986    0.0000 C   0  0  0  0  0  0  0  0  0  0  0  0
    7.6125   -4.3861    0.0000 O   0  0  0  0  0  0  0  0  0  0  0  0
    6.8980   -5.6236    0.0000 O   0  0  0  0  0  0  0  0  0  0  0  0
    4.7546   -3.5611    0.0000 O   0  0  0  0  0  0  0  0  0  0  0  0
  1  2  1  0
  3  4  1  0
  4  5  1  0
  5  6  1  0
  6  1  1  0
 10  2  1  0
  2  3  1  0
  7  8  1  0
  8  9  1  0
  9 10  1  0
  7  3  1  0
 14  7  1  0
  4 11  1  0
 11 12  1  0
 12 13  1  0
 13 14  1  0
  2 15  1  1
  4 16  1  1
  5 17  1  1
  3 18  1  1
 13 19  1  0
 19 18  1  0
 13 20  1  1
  7 21  1  6
 10 22  1  6
  9 23  1  1
 23 24  1  0
 24 25  1  0
 25 26  1  0
 26 27  1  0
 27 28  1  0
 27 29  2  0
 24 30  2  0
M  END
> <chembl_id>
CHEMBL361497

> <chembl_pref_name>
ARTESUNATE
