
     RDKit          2D

 37 41  0  0  0  0  0  0  0  0999 V2000
   -7.5625   13.1018    0.0000 C   0  0  0  0  0  0  0  0  0  0  0  0
   -8.2770   12.6893    0.0000 C   0  0  0  0  0  0  0  0  0  0  0  0
   -8.2770   11.8643    0.0000 C   0  0  0  0  0  0  0  0  0  0  0  0
   -7.5625   11.4518    0.0000 C   0  0  0  0  0  0  0  0  0  0  0  0
   -6.8480   11.8643    0.0000 C   0  0  0  0  0  0  0  0  0  0  0  0
   -6.8480   12.6893    0.0000 C   0  0  0  0  0  0  0  0  0  0  0  0
   -9.0616   11.6093    0.0000 O   0  0  0  0  0  0  0  0  0  0  0  0
   -9.5465   12.2768    0.0000 C   0  0  0  0  0  0  0  0  0  0  0  0
   -9.0616   12.9442    0.0000 O   0  0  0  0  0  0  0  0  0  0  0  0
  -10.2610   12.6893    0.0000 F   0  0  0  0  0  0  0  0  0  0  0  0
  -10.1299   11.6934    0.0000 F   0  0  0  0  0  0  0  0  0  0  0  0
   -6.1335   13.1018    0.0000 C   0  0  0  0  0  0  0  0  0  0  0  0
   -5.4191   12.6893    0.0000 C   0  0  0  0  0  0  0  0  0  0  0  0
   -6.5461   13.8162    0.0000 C   0  0  0  0  0  0  0  0  0  0  0  0
   -5.7211   13.8162    0.0000 C   0  0  0  0  0  0  0  0  0  0  0  0
   -4.7046   13.1018    0.0000 N   0  0  0  0  0  0  0  0  0  0  0  0
   -5.4191   11.8643    0.0000 O   0  0  0  0  0  0  0  0  0  0  0  0
   -3.9901   12.6893    0.0000 C   0  0  0  0  0  0  0  0  0  0  0  0
   -3.9901   11.8643    0.0000 C   0  0  0  0  0  0  0  0  0  0  0  0
   -3.2756   11.4518    0.0000 C   0  0  0  0  0  0  0  0  0  0  0  0
   -2.5612   11.8643    0.0000 C   0  0  0  0  0  0  0  0  0  0  0  0
   -2.5612   12.6893    0.0000 C   0  0  0  0  0  0  0  0  0  0  0  0
   -3.2756   13.1018    0.0000 C   0  0  0  0  0  0  0  0  0  0  0  0
   -3.2756   13.9268    0.0000 F   0  0  0  0  0  0  0  0  0  0  0  0
   -3.1041   10.6449    0.0000 C   0  0  0  0  0  0  0  0  0  0  0  0
   -2.2836   10.5586    0.0000 C   0  0  0  0  0  0  0  0  0  0  0  0
   -1.9481   11.3123    0.0000 N   0  0  0  0  0  0  0  0  0  0  0  0
   -1.8711    9.8442    0.0000 C   0  0  0  0  0  0  0  0  0  0  0  0
   -1.0461    9.8442    0.0000 C   0  0  0  0  0  0  0  0  0  0  0  0
   -0.6336   10.5586    0.0000 O   0  0  0  0  0  0  0  0  0  0  0  0
   -2.5856    9.4317    0.0000 C   0  0  0  0  0  0  0  0  0  0  0  0
   -1.8711    9.0192    0.0000 C   0  0  0  0  0  0  0  0  0  0  0  0
   -1.1411   11.4838    0.0000 C   0  0  0  0  0  0  0  0  0  0  0  0
   -0.9276   12.2807    0.0000 C   0  0  0  0  0  0  0  0  0  0  0  0
   -0.1307   12.4942    0.0000 C   0  0  0  0  0  0  0  0  0  0  0  0
   -1.5110   12.8640    0.0000 O   0  0  0  0  0  0  0  0  0  0  0  0
    0.0828   13.2911    0.0000 O   0  0  0  0  0  0  0  0  0  0  0  0
  1  2  2  0
  1  6  1  0
  3  4  2  0
  4  5  1  0
  5  6  2  0
  3  7  1  0
  2  3  1  0
  2  9  1  0
  7  8  1  0
  8  9  1  0
  8 10  1  0
  8 11  1  0
  6 12  1  0
 12 13  1  0
 14 12  1  0
 12 15  1  0
 15 14  1  0
 13 16  1  0
 13 17  2  0
 16 18  1  0
 18 19  2  0
 18 23  1  0
 19 20  1  0
 21 22  1  0
 22 23  2  0
 23 24  1  0
 20 25  1  0
 20 21  2  0
 21 27  1  0
 25 26  2  0
 26 27  1  0
 26 28  1  0
 28 29  1  0
 29 30  1  0
 28 31  1  0
 28 32  1  0
 27 33  1  0
 33 34  1  0
 34 35  1  0
 34 36  1  1
 35 37  1  0
M  END
> <chembl_id>
CHEMBL3544914

> <chembl_pref_name>
TEZACAFTOR
