
     RDKit          2D

 24 26  0  0  1  0  0  0  0  0999 V2000
   -0.9958   -0.0542    0.0000 C   0  0  0  0  0  0  0  0  0  0  0  0
    0.6292   -0.5750    0.0000 C   0  0  0  0  0  0  0  0  0  0  0  0
   -0.3583   -0.9125    0.0000 C   0  0  0  0  0  0  0  0  0  0  0  0
    0.6042    0.4833    0.0000 C   0  0  0  0  0  0  0  0  0  0  0  0
   -0.3833    0.8000    0.0000 O   0  0  0  0  0  0  0  0  0  0  0  0
   -1.5458    0.8583    0.0000 C   0  0  0  0  0  0  0  0  0  0  0  0
    1.5417    1.0208    0.0000 C   0  0  0  0  0  0  0  0  0  0  0  0
    1.5667   -1.1000    0.0000 C   0  0  0  0  0  0  0  0  0  0  0  0
   -2.6208    0.8375    0.0000 C   0  0  0  0  0  0  0  0  0  0  0  0
   -1.5208   -0.9917    0.0000 C   0  0  0  0  0  0  0  0  0  0  0  0
    2.4667    0.4958    0.0000 C   0  0  0  0  0  0  0  0  0  0  0  0
    2.4792   -0.5542    0.0000 C   0  0  0  0  0  0  0  0  0  0  0  0
   -3.1458   -0.0792    0.0000 C   0  0  0  0  0  0  0  0  0  0  0  0
   -2.6000   -1.0000    0.0000 C   0  0  0  0  0  0  0  0  0  0  0  0
   -0.6833   -1.9417    0.0000 O   0  0  0  0  0  0  0  0  0  0  0  0
   -4.2208   -0.0792    0.0000 O   0  0  0  0  0  0  0  0  0  0  0  0
    1.5167    2.0958    0.0000 Cl  0  0  0  0  0  0  0  0  0  0  0  0
   -1.0208    1.7833    0.0000 O   0  0  0  0  0  0  0  0  0  0  0  0
    1.5667   -2.1792    0.0000 O   0  0  0  0  0  0  0  0  0  0  0  0
    3.4000    1.0458    0.0000 O   0  0  0  0  0  0  0  0  0  0  0  0
   -1.4583   -1.8917    0.0000 C   0  0  0  0  0  0  0  0  0  0  0  0
   -1.5625    2.7083    0.0000 C   0  0  0  0  0  0  0  0  0  0  0  0
    2.5000   -2.7000    0.0000 C   0  0  0  0  0  0  0  0  0  0  0  0
    4.3417    0.5125    0.0000 C   0  0  0  0  0  0  0  0  0  0  0  0
  2  3  1  0
  3  1  1  0
  4  5  1  0
  1  5  1  1
  6  1  1  0
  7  4  1  0
  8  2  1  0
  9  6  2  0
 10  1  1  0
 11  7  2  0
 12  8  2  0
 13 14  1  0
 14 10  1  0
 15  3  2  0
 16 13  2  0
 17  7  1  0
 18  6  1  0
 19  8  1  0
 20 11  1  0
 10 21  1  6
 22 18  1  0
 23 19  1  0
 24 20  1  0
  2  4  2  0
  9 13  1  0
 12 11  1  0
M  END
> <chembl_id>
CHEMBL562

> <chembl_pref_name>
GRISEOFULVIN
