
     RDKit          2D

 27 29  0  0  0  0  0  0  0  0999 V2000
   -5.0649    0.6887    0.0000 C   0  0  0  0  0  0  0  0  0  0  0  0
   -5.7794    0.2761    0.0000 C   0  0  0  0  0  0  0  0  0  0  0  0
   -5.7794   -0.5489    0.0000 C   0  0  0  0  0  0  0  0  0  0  0  0
   -5.0649   -0.9614    0.0000 C   0  0  0  0  0  0  0  0  0  0  0  0
   -4.3505   -0.5489    0.0000 C   0  0  0  0  0  0  0  0  0  0  0  0
   -4.3505    0.2761    0.0000 C   0  0  0  0  0  0  0  0  0  0  0  0
   -6.4939    0.6886    0.0000 N   0  0  0  0  0  0  0  0  0  0  0  0
   -6.5801    1.5091    0.0000 O   0  0  0  0  0  0  0  0  0  0  0  0
   -7.1858    0.2393    0.0000 O   0  0  0  0  0  0  0  0  0  0  0  0
   -6.4468   -1.0338    0.0000 O   0  0  0  0  0  0  0  0  0  0  0  0
   -5.0649   -1.7864    0.0000 O   0  0  0  0  0  0  0  0  0  0  0  0
   -3.6360    0.6886    0.0000 C   0  0  0  0  0  0  0  0  0  0  0  0
   -2.8514    1.7686    0.0000 N   0  0  0  0  0  0  0  0  0  0  0  0
   -3.6360    1.5136    0.0000 O   0  0  0  0  0  0  0  0  0  0  0  0
   -2.8514    0.4337    0.0000 N   0  0  0  0  0  0  0  0  0  0  0  0
   -2.3665    1.1011    0.0000 C   0  0  0  0  0  0  0  0  0  0  0  0
   -1.5415    1.1011    0.0000 C   0  0  0  0  0  0  0  0  0  0  0  0
   -1.1290    1.8156    0.0000 C   0  0  0  0  0  0  0  0  0  0  0  0
   -1.1290    0.3866    0.0000 C   0  0  0  0  0  0  0  0  0  0  0  0
   -0.3040    0.3866    0.0000 N   0  0  0  0  0  0  0  0  0  0  0  0
    0.1085    1.1010    0.0000 C   0  0  0  0  0  0  0  0  0  0  0  0
   -0.3040    1.8155    0.0000 C   0  0  0  0  0  0  0  0  0  0  0  0
   -1.5783    2.5075    0.0000 C   0  0  0  0  0  0  0  0  0  0  0  0
    0.1085    2.5299    0.0000 Cl  0  0  0  0  0  0  0  0  0  0  0  0
    0.9324    1.1442    0.0000 C   0  0  0  0  0  0  0  0  0  0  0  0
    0.1809   -0.2809    0.0000 O   0  0  0  0  0  0  0  0  0  0  0  0
   -1.5415   -0.3279    0.0000 Cl  0  0  0  0  0  0  0  0  0  0  0  0
  1  2  1  0
  2  3  2  0
  3  4  1  0
  4  5  2  0
  5  6  1  0
  1  6  2  0
  2  7  1  0
  7  8  2  0
  7  9  1  0
  3 10  1  0
  4 11  1  0
  6 12  1  0
 13 14  1  0
 15 16  1  0
 13 16  2  0
 14 12  1  0
 12 15  2  0
 16 17  1  0
 19 20  1  0
 20 21  2  0
 21 22  1  0
 18 22  2  0
 18 17  1  0
 17 19  2  0
 18 23  1  0
 22 24  1  0
 21 25  1  0
 20 26  1  0
 19 27  1  0
M  CHG  4   7   1   9  -1  20   1  26  -1
M  END
> <chembl_id>
CHEMBL1089318

> <chembl_pref_name>
OPICAPONE
