
     RDKit          2D

 23 23  0  0  0  0  0  0  0  0999 V2000
    4.7667   -3.3292    0.0000 Br  0  0  0  0  0  0  0  0  0  0  0  0
    3.3417   -3.8542    0.0000 N   0  0  0  0  0  0  0  0  0  0  0  0
    3.6042   -4.5042    0.0000 C   0  0  0  0  0  0  0  0  0  0  0  0
    3.3417   -5.1792    0.0000 C   0  0  0  0  0  0  0  0  0  0  0  0
    5.6542   -5.2167    0.0000 C   0  0  0  0  0  0  0  0  0  0  0  0
    4.5042   -5.2167    0.0000 C   0  0  0  0  0  0  0  0  0  0  0  0
    3.9542   -5.4042    0.0000 C   0  0  0  0  0  0  0  0  0  0  0  0
    4.2417   -4.6917    0.0000 C   0  0  0  0  0  0  0  0  0  0  0  0
    5.0667   -5.5542    0.0000 O   0  0  0  0  0  0  0  0  0  0  0  0
    5.6542   -4.5542    0.0000 O   0  0  0  0  0  0  0  0  0  0  0  0
    2.9417   -4.8917    0.0000 C   0  0  0  0  0  0  0  0  0  0  0  0
    2.7792   -5.5792    0.0000 C   0  0  0  0  0  0  0  0  0  0  0  0
    6.2292   -5.5542    0.0000 C   0  0  0  0  0  0  0  0  0  0  0  0
    2.7292   -3.4417    0.0000 C   0  0  0  0  0  0  0  0  0  0  0  0
    3.7667   -3.2417    0.0000 C   0  0  0  0  0  0  0  0  0  0  0  0
    6.2292   -6.2167    0.0000 C   0  0  0  0  0  0  0  0  0  0  0  0
    6.8042   -5.2167    0.0000 C   0  0  0  0  0  0  0  0  0  0  0  0
    6.8417   -6.5667    0.0000 C   0  0  0  0  0  0  0  0  0  0  0  0
    7.3833   -5.5333    0.0000 C   0  0  0  0  0  0  0  0  0  0  0  0
    7.4167   -6.2417    0.0000 C   0  0  0  0  0  0  0  0  0  0  0  0
    7.9500   -5.1792    0.0000 C   0  0  0  0  0  0  0  0  0  0  0  0
    3.4042   -5.8917    0.0000 H   0  0  0  0  0  0  0  0  0  0  0  0
    4.1292   -3.9417    0.0000 H   0  0  0  0  0  0  0  0  0  0  0  0
  3  2  1  0
  4  2  1  0
  5  9  1  0
  6  7  1  0
  7  4  1  0
  8  3  1  0
  6  9  1  6
 10  5  2  0
 11  3  1  0
 12  4  1  0
 13  5  1  0
 14  2  1  0
 15  2  1  0
 16 13  1  0
 17 13  1  0
 18 16  1  0
 19 17  1  0
 20 18  1  0
 21 19  1  0
  4 22  1  1
  3 23  1  6
 11 12  1  0
  8  6  1  0
M  CHG  2   1  -1   2   1
M  END
> <chembl_id>
CHEMBL1578

> <chembl_pref_name>
ANISOTROPINE METHYLBROMIDE
