
     RDKit          2D

 22 22  0  0  0  0  0  0  0  0999 V2000
    6.3917   -5.8125    0.0000 Cl  0  0  0  0  0  0  0  0  0  0  0  0
    7.8667   -5.0375    0.0000 N   0  0  0  0  0  0  0  0  0  0  0  0
    6.0250   -4.6792    0.0000 C   0  0  0  0  0  0  0  0  0  0  0  0
    6.6417   -5.0250    0.0000 C   0  0  0  0  0  0  0  0  0  0  0  0
    5.4042   -5.0167    0.0000 C   0  0  0  0  0  0  0  0  0  0  0  0
    6.0292   -3.9667    0.0000 O   0  0  0  0  0  0  0  0  0  0  0  0
    7.2625   -4.6667    0.0000 C   0  0  0  0  0  0  0  0  0  0  0  0
    5.4000   -5.7292    0.0000 C   0  0  0  0  0  0  0  0  0  0  0  0
    4.8042   -4.6667    0.0000 C   0  0  0  0  0  0  0  0  0  0  0  0
    4.1792   -5.7250    0.0000 C   0  0  0  0  0  0  0  0  0  0  0  0
    4.7917   -6.0792    0.0000 C   0  0  0  0  0  0  0  0  0  0  0  0
    4.1875   -5.0042    0.0000 C   0  0  0  0  0  0  0  0  0  0  0  0
    3.5542   -6.0750    0.0000 O   0  0  0  0  0  0  0  0  0  0  0  0
    8.4917   -4.6792    0.0000 C   0  0  0  0  0  0  0  0  0  0  0  0
    7.8750   -5.7542    0.0000 C   0  0  0  0  0  0  0  0  0  0  0  0
    2.9417   -5.7167    0.0000 C   0  0  0  0  0  0  0  0  0  0  0  0
    2.3292   -6.0667    0.0000 C   0  0  0  0  0  0  0  0  0  0  0  0
    1.7125   -5.7042    0.0000 C   0  0  0  0  0  0  0  0  0  0  0  0
    8.4792   -6.1042    0.0000 C   0  0  0  0  0  0  0  0  0  0  0  0
    9.1042   -5.0417    0.0000 C   0  0  0  0  0  0  0  0  0  0  0  0
    1.0917   -6.0625    0.0000 C   0  0  0  0  0  0  0  0  0  0  0  0
    9.1000   -5.7542    0.0000 C   0  0  0  0  0  0  0  0  0  0  0  0
  3  4  1  0
  4  7  1  0
  5  3  1  0
  6  3  2  0
  7  2  1  0
  8  5  1  0
  9  5  2  0
 10 12  2  0
 11  8  2  0
 12  9  1  0
 13 10  1  0
 14  2  1  0
 15  2  1  0
 16 13  1  0
 17 16  1  0
 18 17  1  0
 19 15  1  0
 20 14  1  0
 21 18  1  0
 22 20  1  0
 22 19  1  0
 10 11  1  0
M  END
> <chembl_id>
CHEMBL1200478

> <chembl_pref_name>
DYCLONINE HYDROCHLORIDE
