
     RDKit          2D

 38 40  0  0  0  0  0  0  0  0999 V2000
    6.4292   -5.5125    0.0000 Na  0  0  0  0  0 15  0  0  0  0  0  0
    4.4875   -4.2417    0.0000 N   0  0  0  0  0  0  0  0  0  0  0  0
    4.4875   -3.5375    0.0000 C   0  0  0  0  0  0  0  0  0  0  0  0
    0.0875   -3.5375    0.0000 N   0  0  0  0  0  0  0  0  0  0  0  0
    3.7750   -4.2500    0.0000 C   0  0  0  0  0  0  0  0  0  0  0  0
    3.7750   -3.5375    0.0000 C   0  0  0  0  0  0  0  0  0  0  0  0
    0.0917   -4.2417    0.0000 C   0  0  0  0  0  0  0  0  0  0  0  0
    5.1625   -4.4625    0.0000 C   0  0  0  0  0  0  0  0  0  0  0  0
    0.7042   -3.1792    0.0000 C   0  0  0  0  0  0  0  0  0  0  0  0
    5.1542   -3.3167    0.0000 S   0  0  0  0  0  0  0  0  0  0  0  0
    5.5792   -3.8875    0.0000 C   0  0  0  0  0  0  0  0  0  0  0  0
   -0.5250   -4.5917    0.0000 C   0  0  0  0  0  0  0  0  0  0  0  0
    3.1542   -3.1792    0.0000 N   0  0  0  0  0  0  0  0  0  0  0  0
    1.3167   -3.5375    0.0000 N   0  0  0  0  0  0  0  0  0  0  0  0
    2.5417   -3.5375    0.0000 C   0  0  0  0  0  0  0  0  0  0  0  0
   -1.1375   -4.2375    0.0000 N   0  0  0  0  0  0  0  0  0  0  0  0
    1.9292   -3.1792    0.0000 C   0  0  0  0  0  0  0  0  0  0  0  0
    5.1542   -5.1667    0.0000 C   0  0  0  0  0  0  0  0  0  0  0  0
   -0.5208   -3.1792    0.0000 C   0  0  0  0  0  0  0  0  0  0  0  0
    3.2750   -4.7500    0.0000 O   0  0  0  0  0  0  0  0  0  0  0  0
    0.7042   -4.5917    0.0000 O   0  0  0  0  0  0  0  0  0  0  0  0
    0.7042   -2.4750    0.0000 O   0  0  0  0  0  0  0  0  0  0  0  0
   -1.1333   -3.5292    0.0000 C   0  0  0  0  0  0  0  0  0  0  0  0
   -0.5250   -5.3000    0.0000 O   0  0  0  0  0  0  0  0  0  0  0  0
    2.5417   -4.2417    0.0000 O   0  0  0  0  0  0  0  0  0  0  0  0
    5.7667   -5.5292    0.0000 O   0  0  0  0  0  0  0  0  0  0  0  0
    4.5375   -5.5167    0.0000 O   0  0  0  0  0  0  0  0  0  0  0  0
    1.9292   -2.4750    0.0000 C   0  0  0  0  0  0  0  0  0  0  0  0
    6.1917   -4.2417    0.0000 C   0  0  0  0  0  0  0  0  0  0  0  0
    6.1917   -3.5292    0.0000 C   0  0  0  0  0  0  0  0  0  0  0  0
   -1.7500   -4.5875    0.0000 C   0  0  0  0  0  0  0  0  0  0  0  0
    2.5417   -2.1167    0.0000 C   0  0  0  0  0  0  0  0  0  0  0  0
    1.3167   -2.1250    0.0000 C   0  0  0  0  0  0  0  0  0  0  0  0
   -2.3625   -4.2292    0.0000 C   0  0  0  0  0  0  0  0  0  0  0  0
    2.5417   -1.4125    0.0000 C   0  0  0  0  0  0  0  0  0  0  0  0
    1.3167   -1.4167    0.0000 C   0  0  0  0  0  0  0  0  0  0  0  0
    1.9292   -1.0542    0.0000 C   0  0  0  0  0  0  0  0  0  0  0  0
    4.4792   -2.8292    0.0000 H   0  0  0  0  0  0  0  0  0  0  0  0
  3  2  1  0
  4  9  1  0
  5  2  1  0
  6  5  1  0
  7  4  1  0
  8  2  1  0
  9 14  1  0
 10  3  1  0
 11  8  1  0
 12  7  1  0
  6 13  1  1
 14 17  1  0
 15 13  1  0
 16 23  1  0
 17 15  1  0
  8 18  1  6
 19  4  1  0
 20  5  2  0
 21  7  2  0
 22  9  2  0
 23 19  1  0
 24 12  2  0
 25 15  2  0
 26 18  1  0
 27 18  2  0
 17 28  1  6
 29 11  1  0
 30 11  1  0
 31 16  1  0
 32 28  2  0
 33 28  1  0
 34 31  1  0
 35 32  1  0
 36 33  2  0
 37 35  2  0
  3 38  1  6
 10 11  1  0
  6  3  1  0
 37 36  1  0
 16 12  1  0
M  CHG  2   1   1  26  -1
M  END
> <chembl_id>
CHEMBL1200820

> <chembl_pref_name>
PIPERACILLIN SODIUM
