
     RDKit          2D

 15 14  0  0  0  0  0  0  0  0999 V2000
    2.1792   -1.2875    0.0000 Cl  0  0  0  0  0  0  0  0  0  0  0  0
    0.2042   -0.5875    0.0000 N   0  0  0  0  0  0  0  0  0  0  0  0
    0.8167   -0.2292    0.0000 C   0  0  0  0  0  0  0  0  0  0  0  0
   -0.4083   -0.2417    0.0000 C   0  0  0  0  0  0  0  0  0  0  0  0
    0.8042    0.4750    0.0000 O   0  0  0  0  0  0  0  0  0  0  0  0
   -0.4125    0.4708    0.0000 C   0  0  0  0  0  0  0  0  0  0  0  0
   -1.0208   -0.6042    0.0000 C   0  0  0  0  0  0  0  0  0  0  0  0
    1.4292   -0.5750    0.0000 C   0  0  0  0  0  0  0  0  0  0  0  0
    1.4417   -1.2792    0.0000 N   0  0  0  0  0  0  0  0  0  0  0  0
   -1.6458    0.4583    0.0000 C   0  0  0  0  0  0  0  0  0  0  0  0
   -1.6375   -0.2542    0.0000 C   0  0  0  0  0  0  0  0  0  0  0  0
   -1.0333    0.8208    0.0000 C   0  0  0  0  0  0  0  0  0  0  0  0
    0.1917    0.8250    0.0000 C   0  0  0  0  0  0  0  0  0  0  0  0
   -1.0083   -1.3042    0.0000 C   0  0  0  0  0  0  0  0  0  0  0  0
    2.0417   -0.2167    0.0000 C   0  0  0  0  0  0  0  0  0  0  0  0
  3  2  1  0
  4  2  1  0
  5  3  2  0
  6  4  1  0
  7  4  2  0
  8  3  1  0
  9  8  1  0
 10 11  2  0
 11  7  1  0
 12  6  2  0
 13  6  1  0
 14  7  1  0
 15  8  1  0
 10 12  1  0
M  END
> <chembl_id>
CHEMBL1200773

> <chembl_pref_name>
TOCAINIDE HYDROCHLORIDE
