
     RDKit          2D

 34 37  0  0  0  0  0  0  0  0999 V2000
    2.9667   -6.8792    0.0000 C   0  0  0  0  0  0  0  0  0  0  0  0
    2.9667   -5.4792    0.0000 N   0  0  0  0  0  0  0  0  0  0  0  0
    2.3625   -3.7042    0.0000 C   0  0  0  0  0  0  0  0  0  0  0  0
    3.5792   -7.2292    0.0000 C   0  0  0  0  0  0  0  0  0  0  0  0
    2.3625   -2.9792    0.0000 C   0  0  0  0  0  0  0  0  0  0  0  0
    2.3625   -2.1750    0.0000 N   0  0  0  0  0  0  0  0  0  0  0  0
    3.5792   -6.5292    0.0000 C   0  0  0  0  0  0  0  0  0  0  0  0
    2.3625   -6.5292    0.0000 C   0  0  0  0  0  0  0  0  0  0  0  0
    2.3625   -4.4042    0.0000 C   0  0  0  0  0  0  0  0  0  0  0  0
    2.3542   -7.2125    0.0000 C   0  0  0  0  0  0  0  0  0  0  0  0
    2.9667   -4.7625    0.0000 C   0  0  0  0  0  0  0  0  0  0  0  0
    2.3625   -5.8167    0.0000 C   0  0  0  0  0  0  0  0  0  0  0  0
    3.5792   -5.8167    0.0000 C   0  0  0  0  0  0  0  0  0  0  0  0
    3.5917   -7.8750    0.0000 O   0  0  0  0  0  0  0  0  0  0  0  0
    1.6417   -3.7042    0.0000 C   0  0  0  0  0  0  0  0  0  0  0  0
    3.0542   -3.7042    0.0000 C   0  0  0  0  0  0  0  0  0  0  0  0
    4.1750   -6.8625    0.0000 O   0  0  0  0  0  0  0  0  0  0  0  0
    1.7375   -6.8417    0.0000 C   0  0  0  0  0  0  0  0  0  0  0  0
    2.3625   -7.9167    0.0000 C   0  0  0  0  0  0  0  0  0  0  0  0
    3.4167   -3.0917    0.0000 C   0  0  0  0  0  0  0  0  0  0  0  0
    3.4167   -4.3167    0.0000 C   0  0  0  0  0  0  0  0  0  0  0  0
    1.3000   -3.0917    0.0000 C   0  0  0  0  0  0  0  0  0  0  0  0
    1.3000   -4.3167    0.0000 C   0  0  0  0  0  0  0  0  0  0  0  0
    4.7875   -7.2000    0.0000 C   0  0  0  0  0  0  0  0  0  0  0  0
    5.3917   -6.8417    0.0000 C   0  0  0  0  0  0  0  0  0  0  0  0
    1.1000   -7.1875    0.0000 C   0  0  0  0  0  0  0  0  0  0  0  0
    1.7042   -8.2625    0.0000 C   0  0  0  0  0  0  0  0  0  0  0  0
    4.1167   -3.0917    0.0000 C   0  0  0  0  0  0  0  0  0  0  0  0
    4.1167   -4.3167    0.0000 C   0  0  0  0  0  0  0  0  0  0  0  0
    0.5792   -3.0917    0.0000 C   0  0  0  0  0  0  0  0  0  0  0  0
    0.5792   -4.3167    0.0000 C   0  0  0  0  0  0  0  0  0  0  0  0
    4.4750   -3.7042    0.0000 C   0  0  0  0  0  0  0  0  0  0  0  0
    0.2417   -3.7042    0.0000 C   0  0  0  0  0  0  0  0  0  0  0  0
    1.1000   -7.9167    0.0000 C   0  0  0  0  0  0  0  0  0  0  0  0
  2 12  1  0
  3  9  1  0
  4  1  1  0
  5  3  1  0
  6  5  3  0
  7  1  1  0
  8  1  1  0
  9 11  1  0
 10  1  1  0
 11  2  1  0
 12  8  1  0
 13  7  1  0
 14  4  2  0
 15  3  1  0
 16  3  1  0
 17  4  1  0
 18 10  1  0
 19 10  2  0
 20 16  2  0
 21 16  1  0
 22 15  2  0
 23 15  1  0
 24 17  1  0
 25 24  1  0
 26 18  2  0
 27 19  1  0
 28 20  1  0
 29 21  2  0
 30 22  1  0
 31 23  2  0
 32 29  1  0
 33 30  2  0
 34 26  1  0
 13  2  1  0
 34 27  2  0
 32 28  2  0
 33 31  1  0
M  END
> <chembl_id>
CHEMBL1201294

> <chembl_pref_name>
DIPHENOXYLATE
