
     RDKit          2D

 30 33  0  0  1  0  0  0  0  0999 V2000
   -1.3500   -0.8167    0.0000 C   0  0  0  0  0  0  0  0  0  0  0  0
   -0.3875   -0.2375    0.0000 C   0  0  0  0  0  0  0  0  0  0  0  0
    1.4875    0.9458    0.0000 C   0  0  0  0  0  0  0  0  0  0  0  0
   -1.3500   -1.9167    0.0000 C   0  0  0  0  0  0  0  0  0  0  0  0
    1.4875   -0.1792    0.0000 C   0  0  0  0  0  0  0  0  0  0  0  0
    0.5375   -0.7792    0.0000 C   0  0  0  0  0  0  0  0  0  0  0  0
   -0.3750    0.8708    0.0000 C   0  0  0  0  0  0  0  0  0  0  0  0
   -2.3375   -0.2875    0.0000 C   0  0  0  0  0  0  0  0  0  0  0  0
    2.5417    1.2750    0.0000 C   0  0  0  0  0  0  0  0  0  0  0  0
    0.4917    1.4458    0.0000 C   0  0  0  0  0  0  0  0  0  0  0  0
    2.5792   -0.5042    0.0000 C   0  0  0  0  0  0  0  0  0  0  0  0
    3.2167    0.4208    0.0000 C   0  0  0  0  0  0  0  0  0  0  0  0
    0.5250   -1.8167    0.0000 C   0  0  0  0  0  0  0  0  0  0  0  0
   -0.3458   -2.4542    0.0000 C   0  0  0  0  0  0  0  0  0  0  0  0
   -2.2958   -2.5042    0.0000 C   0  0  0  0  0  0  0  0  0  0  0  0
   -3.2958   -0.8667    0.0000 C   0  0  0  0  0  0  0  0  0  0  0  0
   -3.2958   -1.9792    0.0000 C   0  0  0  0  0  0  0  0  0  0  0  0
    2.5167    2.6000    0.0000 C   0  0  0  0  0  0  0  0  0  0  0  0
   -0.3750   -1.2500    0.0000 F   0  0  0  0  0  0  0  0  0  0  0  0
    3.5875    2.9333    0.0000 O   0  0  0  0  0  0  0  0  0  0  0  0
   -4.2083   -2.5500    0.0000 O   0  0  0  0  0  0  0  0  0  0  0  0
   -1.3833    0.2875    0.0000 C   0  0  0  0  0  0  0  0  0  0  0  0
    1.3250    1.9708    0.0000 C   0  0  0  0  0  0  0  0  0  0  0  0
   -1.3625    1.3833    0.0000 O   0  0  0  0  0  0  0  0  0  0  0  0
   -1.1333   -3.2250    0.0000 F   0  0  0  0  0  0  0  0  0  0  0  0
    4.3417    0.6500    0.0000 C   0  0  0  0  0  0  0  0  0  0  0  0
    0.7042    3.2708    0.0000 O   0  0  0  0  0  0  0  0  0  0  0  0
    1.7917    3.4333    0.0000 C   0  0  0  0  0  0  0  0  0  0  0  0
    1.4104   -1.2672    0.0000 H   0  0  0  0  0  0  0  0  0  0  0  0
    1.6241   -1.1698    0.0000 H   0  0  0  0  0  0  0  0  0  0  0  0
  2  1  1  0
  3 10  1  0
  4  1  1  0
  5  6  1  0
  6  2  1  0
  7  2  1  0
  8  1  1  0
  9  3  1  0
 10  7  1  0
 11  5  1  0
 12 11  1  0
 13 14  1  0
 14  4  1  0
 15  4  2  0
 16  8  2  0
 17 16  1  0
  9 18  1  1
  2 19  1  6
 20 18  2  0
 21 17  2  0
  1 22  1  1
  3 23  1  1
  7 24  1  1
 14 25  1  6
 12 26  1  6
 27 28  1  0
 28 18  1  0
 15 17  1  0
  6 13  1  0
  5  3  1  0
  9 12  1  0
  6 29  1  1
  5 30  1  6
M  END
> <chembl_id>
CHEMBL509924

> <chembl_pref_name>
DIFLUCORTOLONE
