
     RDKit          2D

 29 32  0  0  0  0  0  0  0  0999 V2000
    5.4875    0.4750    0.0000 C   0  0  0  0  0  0  0  0  0  0  0  0
    4.7750    0.0625    0.0000 C   0  0  0  0  0  0  0  0  0  0  0  0
    4.7750   -0.7625    0.0000 N   0  0  0  0  0  0  0  0  0  0  0  0
    6.2042    0.0625    0.0000 C   0  0  0  0  0  0  0  0  0  0  0  0
    5.4875    1.3000    0.0000 C   0  0  0  0  0  0  0  0  0  0  0  0
    9.2375    0.3083    0.0000 C   0  0  0  0  0  0  0  0  0  0  0  0
    9.6500    1.0250    0.0000 C   0  0  0  0  0  0  0  0  0  0  0  0
    5.4875   -1.1750    0.0000 C   0  0  0  0  0  0  0  0  0  0  0  0
    6.2042   -0.7625    0.0000 C   0  0  0  0  0  0  0  0  0  0  0  0
    9.6500   -0.4042    0.0000 C   0  0  0  0  0  0  0  0  0  0  0  0
   10.4750    1.0250    0.0000 C   0  0  0  0  0  0  0  0  0  0  0  0
    4.7750    1.7125    0.0000 C   0  0  0  0  0  0  0  0  0  0  0  0
   10.8875    0.3083    0.0000 C   0  0  0  0  0  0  0  0  0  0  0  0
   10.4750   -0.4042    0.0000 C   0  0  0  0  0  0  0  0  0  0  0  0
    4.0583    0.4750    0.0000 C   0  0  0  0  0  0  0  0  0  0  0  0
    8.4333    0.4792    0.0000 C   0  0  0  0  0  0  0  0  0  0  0  0
    9.1000    1.6375    0.0000 C   0  0  0  0  0  0  0  0  0  0  0  0
    8.3458    1.3000    0.0000 C   0  0  0  0  0  0  0  0  0  0  0  0
    7.6292    1.7125    0.0000 N   0  0  0  0  0  0  0  0  0  0  0  0
    4.0583    1.3000    0.0000 C   0  0  0  0  0  0  0  0  0  0  0  0
    5.4875   -2.0000    0.0000 O   0  0  0  0  0  0  0  0  0  0  0  0
    6.2042    1.7125    0.0000 C   0  0  0  0  0  0  0  0  0  0  0  0
    6.9167    1.3000    0.0000 C   0  0  0  0  0  0  0  0  0  0  0  0
    3.3458    0.0625    0.0000 O   0  0  0  0  0  0  0  0  0  0  0  0
    6.6167    2.4292    0.0000 O   0  0  0  0  0  0  0  0  0  0  0  0
   10.8875   -1.1208    0.0000 C   0  0  0  0  0  0  0  0  0  0  0  0
   11.7125    0.3083    0.0000 C   0  0  0  0  0  0  0  0  0  0  0  0
   11.7125   -1.1208    0.0000 C   0  0  0  0  0  0  0  0  0  0  0  0
   12.1250    1.0250    0.0000 C   0  0  0  0  0  0  0  0  0  0  0  0
  2  1  2  0
  3  2  1  0
  4  1  1  0
  5  1  1  0
  6 16  1  0
  7 17  1  0
  8  9  1  0
  9  4  2  0
 10  6  1  0
 11  7  1  0
 12  5  2  0
 13 11  2  0
 14 10  2  0
 15  2  1  0
 16 18  1  0
 17 18  1  0
 18 19  1  0
 19 23  1  0
 20 12  1  0
 21  8  2  0
 22  5  1  0
 23 22  1  0
 24 15  1  0
 22 25  1  1
 26 14  1  0
 27 13  1  0
 28 26  1  0
 29 27  1  0
  8  3  1  0
 15 20  2  0
  7  6  2  0
 13 14  1  0
M  END
> <chembl_id>
CHEMBL1095777

> <chembl_pref_name>
INDACATEROL
