
     RDKit          2D

 20 21  0  0  0  0  0  0  0  0999 V2000
    2.4125   -5.6125    0.0000 C   0  0  0  0  0  0  0  0  0  0  0  0
    3.0167   -5.2417    0.0000 C   0  0  0  0  0  0  0  0  0  0  0  0
    1.7917   -5.2750    0.0000 C   0  0  0  0  0  0  0  0  0  0  0  0
    3.6500   -5.5792    0.0000 C   0  0  0  0  0  0  0  0  0  0  0  0
    2.9875   -4.5292    0.0000 O   0  0  0  0  0  0  0  0  0  0  0  0
    1.7042   -3.1667    0.0000 N   0  0  0  0  0  0  0  0  0  0  0  0
    2.3542   -4.1917    0.0000 C   0  0  0  0  0  0  0  0  0  0  0  0
    2.4292   -6.3292    0.0000 C   0  0  0  0  0  0  0  0  0  0  0  0
    2.3292   -3.4917    0.0000 C   0  0  0  0  0  0  0  0  0  0  0  0
    1.7917   -4.5625    0.0000 C   0  0  0  0  0  0  0  0  0  0  0  0
    1.1750   -5.6542    0.0000 C   0  0  0  0  0  0  0  0  0  0  0  0
    4.2417   -5.2042    0.0000 C   0  0  0  0  0  0  0  0  0  0  0  0
    3.6542   -6.3042    0.0000 C   0  0  0  0  0  0  0  0  0  0  0  0
    1.1375   -3.5542    0.0000 C   0  0  0  0  0  0  0  0  0  0  0  0
    1.6792   -2.4750    0.0000 C   0  0  0  0  0  0  0  0  0  0  0  0
    1.8417   -6.6917    0.0000 C   0  0  0  0  0  0  0  0  0  0  0  0
    1.1917   -6.3542    0.0000 C   0  0  0  0  0  0  0  0  0  0  0  0
    4.8750   -5.5417    0.0000 C   0  0  0  0  0  0  0  0  0  0  0  0
    4.3042   -6.6375    0.0000 C   0  0  0  0  0  0  0  0  0  0  0  0
    4.9000   -6.2542    0.0000 C   0  0  0  0  0  0  0  0  0  0  0  0
  2  1  1  0
  3  1  2  0
  4  2  1  0
  5  2  1  0
  6  9  1  0
  7  5  1  0
  8  1  1  0
  9  7  1  0
 10  3  1  0
 11  3  1  0
 12  4  1  0
 13  4  2  0
 14  6  1  0
 15  6  1  0
 16  8  2  0
 17 16  1  0
 18 12  2  0
 19 13  1  0
 20 19  2  0
 17 11  2  0
 20 18  1  0
M  END
> <chembl_id>
CHEMBL900

> <chembl_pref_name>
ORPHENADRINE
