
     RDKit          2D

 17 18  0  0  0  0  0  0  0  0999 V2000
    3.0792    0.2375    0.0000 S   0  0  0  0  0  0  0  0  0  0  0  0
   -3.0000    0.1958    0.0000 S   0  0  0  0  0  0  0  0  0  0  0  0
   -3.0000   -0.9792    0.0000 N   0  0  0  0  0  0  0  0  0  0  0  0
    3.0792   -0.9167    0.0000 N   0  0  0  0  0  0  0  0  0  0  0  0
    1.0542   -0.9500    0.0000 N   0  0  0  0  0  0  0  0  0  0  0  0
   -0.9625   -0.9500    0.0000 N   0  0  0  0  0  0  0  0  0  0  0  0
    2.0542    0.8208    0.0000 C   0  0  0  0  0  0  0  0  0  0  0  0
   -1.9708    0.8208    0.0000 C   0  0  0  0  0  0  0  0  0  0  0  0
   -1.9750   -1.5542    0.0000 C   0  0  0  0  0  0  0  0  0  0  0  0
    2.0667   -1.5292    0.0000 C   0  0  0  0  0  0  0  0  0  0  0  0
    0.0167   -1.5167    0.0000 C   0  0  0  0  0  0  0  0  0  0  0  0
    4.2167   -0.0500    0.0000 O   0  0  0  0  0  0  0  0  0  0  0  0
    3.3875    1.3833    0.0000 O   0  0  0  0  0  0  0  0  0  0  0  0
   -3.4833    1.2500    0.0000 O   0  0  0  0  0  0  0  0  0  0  0  0
   -4.1208   -0.0500    0.0000 O   0  0  0  0  0  0  0  0  0  0  0  0
    1.0667    0.2083    0.0000 C   0  0  0  0  0  0  0  0  0  0  0  0
   -0.9625    0.2208    0.0000 C   0  0  0  0  0  0  0  0  0  0  0  0
  2  8  1  0
  3  9  1  0
  4  1  1  0
  5 16  1  0
  6 11  1  0
  7  1  1  0
  8 17  1  0
  9  6  1  0
 10  4  1  0
 11  5  1  0
 12  1  2  0
 13  1  2  0
 14  2  2  0
 15  2  2  0
 16  7  1  0
 17  6  1  0
 10  5  1  0
  3  2  1  0
M  END
> <chembl_id>
CHEMBL2105420

> <chembl_pref_name>
TAUROLIDINE
