
     RDKit          2D

 27 26  0  0  0  0  0  0  0  0999 V2000
   -8.2295    2.9179    0.0000 C   0  0  0  0  0  0  0  0  0  0  0  0
   -7.5084    2.5171    0.0000 C   0  0  0  0  0  0  0  0  0  0  0  0
   -6.8007    2.9411    0.0000 C   0  0  0  0  0  0  0  0  0  0  0  0
   -6.0797    2.5402    0.0000 C   0  0  0  0  0  0  0  0  0  0  0  0
   -5.3720    2.9642    0.0000 C   0  0  0  0  0  0  0  0  0  0  0  0
   -4.6509    2.5634    0.0000 C   0  0  0  0  0  0  0  0  0  0  0  0
   -3.9432    2.9874    0.0000 C   0  0  0  0  0  0  0  0  0  0  0  0
   -3.2222    2.5865    0.0000 C   0  0  0  0  0  0  0  0  0  0  0  0
   -2.5145    3.0105    0.0000 C   0  0  0  0  0  0  0  0  0  0  0  0
   -1.8068    3.4346    0.0000 C   0  0  0  0  0  0  0  0  0  0  0  0
   -1.0991    3.8586    0.0000 C   0  0  0  0  0  0  0  0  0  0  0  0
   -0.3914    4.2826    0.0000 C   0  0  0  0  0  0  0  0  0  0  0  0
    0.3163    4.7066    0.0000 C   0  0  0  0  0  0  0  0  0  0  0  0
    1.0240    5.1306    0.0000 C   0  0  0  0  0  0  0  0  0  0  0  0
    1.7317    5.5547    0.0000 F   0  0  0  0  0  0  0  0  0  0  0  0
   -2.0904    2.3028    0.0000 F   0  0  0  0  0  0  0  0  0  0  0  0
   -2.9385    3.7182    0.0000 F   0  0  0  0  0  0  0  0  0  0  0  0
   -0.6751    3.1509    0.0000 F   0  0  0  0  0  0  0  0  0  0  0  0
   -1.5231    4.5663    0.0000 F   0  0  0  0  0  0  0  0  0  0  0  0
    0.7403    3.9989    0.0000 F   0  0  0  0  0  0  0  0  0  0  0  0
   -0.1077    5.4143    0.0000 F   0  0  0  0  0  0  0  0  0  0  0  0
    1.4480    4.4230    0.0000 F   0  0  0  0  0  0  0  0  0  0  0  0
    0.6000    5.8383    0.0000 F   0  0  0  0  0  0  0  0  0  0  0  0
    0.0326    3.5749    0.0000 F   0  0  0  0  0  0  0  0  0  0  0  0
   -0.8154    4.9903    0.0000 F   0  0  0  0  0  0  0  0  0  0  0  0
   -1.3828    2.7269    0.0000 F   0  0  0  0  0  0  0  0  0  0  0  0
   -2.2308    4.1423    0.0000 F   0  0  0  0  0  0  0  0  0  0  0  0
  1  2  1  0
  2  3  1  0
  3  4  1  0
  4  5  1  0
  5  6  1  0
  6  7  1  0
  7  8  1  0
  8  9  1  0
  9 10  1  0
 10 11  1  0
 11 12  1  0
 12 13  1  0
 13 14  1  0
 14 15  1  0
  9 16  1  0
  9 17  1  0
 11 18  1  0
 11 19  1  0
 13 20  1  0
 13 21  1  0
 14 22  1  0
 14 23  1  0
 12 24  1  0
 12 25  1  0
 10 26  1  0
 10 27  1  0
M  END
> <chembl_id>
CHEMBL5314588

> <chembl_pref_name>
PERFLUOROHEXYLOCTANE
