
     RDKit          2D

 35 39  0  0  1  0  0  0  0  0999 V2000
    5.9750   -4.1792    0.0000 C   0  0  0  0  0  0  0  0  0  0  0  0
    5.2917   -4.4000    0.0000 C   0  0  0  0  0  0  0  0  0  0  0  0
    3.4542   -5.4792    0.0000 C   0  0  0  0  0  0  0  0  0  0  0  0
    5.3125   -5.1167    0.0000 C   0  0  0  0  0  0  0  0  0  0  0  0
    3.4667   -6.2000    0.0000 C   0  0  0  0  0  0  0  0  0  0  0  0
    4.6917   -5.4792    0.0000 C   0  0  0  0  0  0  0  0  0  0  0  0
    4.0750   -5.1167    0.0000 C   0  0  0  0  0  0  0  0  0  0  0  0
    6.4000   -4.7625    0.0000 C   0  0  0  0  0  0  0  0  0  0  0  0
    6.3667   -3.6167    0.0000 O   0  0  0  0  0  0  0  0  0  0  0  0
    4.6875   -4.0417    0.0000 C   0  0  0  0  0  0  0  0  0  0  0  0
    7.0542   -3.8042    0.0000 C   0  0  0  0  0  0  0  0  0  0  0  0
    4.0750   -4.4000    0.0000 C   0  0  0  0  0  0  0  0  0  0  0  0
    7.0667   -4.5250    0.0000 O   0  0  0  0  0  0  0  0  0  0  0  0
    5.9792   -5.3375    0.0000 C   0  0  0  0  0  0  0  0  0  0  0  0
    4.6917   -6.2000    0.0000 C   0  0  0  0  0  0  0  0  0  0  0  0
    4.0875   -6.5542    0.0000 C   0  0  0  0  0  0  0  0  0  0  0  0
    2.8542   -6.5542    0.0000 C   0  0  0  0  0  0  0  0  0  0  0  0
    5.9667   -3.4667    0.0000 C   0  0  0  0  0  0  0  0  0  0  0  0
    2.8417   -5.1167    0.0000 C   0  0  0  0  0  0  0  0  0  0  0  0
    2.2292   -6.2000    0.0000 C   0  0  0  0  0  0  0  0  0  0  0  0
    5.3542   -3.1292    0.0000 O   0  0  0  0  0  0  0  0  0  0  0  0
    1.6167   -6.5542    0.0000 O   0  0  0  0  0  0  0  0  0  0  0  0
    5.2667   -3.6542    0.0000 C   0  0  0  0  0  0  0  0  0  0  0  0
    2.2167   -5.4792    0.0000 C   0  0  0  0  0  0  0  0  0  0  0  0
    3.4375   -4.7417    0.0000 C   0  0  0  0  0  0  0  0  0  0  0  0
    4.0875   -7.2667    0.0000 F   0  0  0  0  0  0  0  0  0  0  0  0
    3.4542   -4.0417    0.0000 O   0  0  0  0  0  0  0  0  0  0  0  0
    6.5667   -3.1000    0.0000 C   0  0  0  0  0  0  0  0  0  0  0  0
    7.7042   -3.7917    0.0000 C   0  0  0  0  0  0  0  0  0  0  0  0
    7.3292   -3.1667    0.0000 C   0  0  0  0  0  0  0  0  0  0  0  0
    6.5542   -2.3875    0.0000 O   0  0  0  0  0  0  0  0  0  0  0  0
    6.9977   -5.5642    0.0000 H   0  0  0  0  0  0  0  0  0  0  0  0
    3.2077   -4.6188    0.0000 H   0  0  0  0  0  0  0  0  0  0  0  0
    5.5590   -5.9771    0.0000 H   0  0  0  0  0  0  0  0  0  0  0  0
    5.4167   -6.1113    0.0000 H   0  0  0  0  0  0  0  0  0  0  0  0
  2  1  1  0
  3  7  1  0
  4  2  1  0
  5  3  1  0
  6  4  1  0
  7 12  1  0
  8  1  1  0
  1  9  1  0
 10  2  1  0
 11  9  1  0
 12 10  1  0
  8 13  1  0
 14  8  1  0
 15  6  1  0
 16 15  1  0
 17  5  2  0
  1 18  1  1
 19  3  1  0
 20 24  1  0
 21 18  2  0
 22 20  2  0
  2 23  1  1
 24 19  1  0
  3 25  1  1
 16 26  1  6
 12 27  1  1
 28 18  1  0
 29 11  1  0
 30 11  1  0
 31 28  1  0
 14  4  1  0
 11 13  1  0
  7  6  1  0
  5 16  1  0
 20 17  1  0
  8 32  1  1
  7 33  1  6
  6 34  1  1
  4 35  1  6
M  END
> <chembl_id>
CHEMBL1201012

> <chembl_pref_name>
FLURANDRENOLIDE
