
     RDKit          2D

 36 40  0  0  0  0  0  0  0  0999 V2000
   22.4561   -5.2970    0.0000 N   0  0  0  0  0  0  0  0  0  0  0  0
   21.7887   -5.7819    0.0000 C   0  0  0  0  0  0  0  0  0  0  0  0
   22.0436   -6.5665    0.0000 N   0  0  0  0  0  0  0  0  0  0  0  0
   22.8686   -6.5665    0.0000 C   0  0  0  0  0  0  0  0  0  0  0  0
   23.1235   -5.7819    0.0000 C   0  0  0  0  0  0  0  0  0  0  0  0
   22.4561   -4.4720    0.0000 C   0  0  0  0  0  0  0  0  0  0  0  0
   23.1706   -4.0595    0.0000 C   0  0  0  0  0  0  0  0  0  0  0  0
   23.7837   -3.5074    0.0000 O   0  0  0  0  0  0  0  0  0  0  0  0
   24.4981   -3.9199    0.0000 C   0  0  0  0  0  0  0  0  0  0  0  0
   24.3266   -4.7269    0.0000 C   0  0  0  0  0  0  0  0  0  0  0  0
   23.5061   -4.8131    0.0000 O   0  0  0  0  0  0  0  0  0  0  0  0
   22.6856   -3.3920    0.0000 C   0  0  0  0  0  0  0  0  0  0  0  0
   21.8652   -3.4783    0.0000 C   0  0  0  0  0  0  0  0  0  0  0  0
   21.3802   -2.8108    0.0000 C   0  0  0  0  0  0  0  0  0  0  0  0
   21.7158   -2.0571    0.0000 C   0  0  0  0  0  0  0  0  0  0  0  0
   22.5363   -1.9709    0.0000 C   0  0  0  0  0  0  0  0  0  0  0  0
   23.0212   -2.6383    0.0000 C   0  0  0  0  0  0  0  0  0  0  0  0
   21.2309   -1.3897    0.0000 Cl  0  0  0  0  0  0  0  0  0  0  0  0
   25.2518   -3.5844    0.0000 C   0  0  0  0  0  0  0  0  0  0  0  0
   25.3380   -2.7639    0.0000 O   0  0  0  0  0  0  0  0  0  0  0  0
   26.0917   -2.4283    0.0000 C   0  0  0  0  0  0  0  0  0  0  0  0
   26.1779   -1.6078    0.0000 C   0  0  0  0  0  0  0  0  0  0  0  0
   26.9316   -1.2723    0.0000 C   0  0  0  0  0  0  0  0  0  0  0  0
   27.5991   -1.7572    0.0000 C   0  0  0  0  0  0  0  0  0  0  0  0
   27.5128   -2.5777    0.0000 C   0  0  0  0  0  0  0  0  0  0  0  0
   26.7592   -2.9133    0.0000 C   0  0  0  0  0  0  0  0  0  0  0  0
   28.3527   -1.4217    0.0000 N   0  0  0  0  0  0  0  0  0  0  0  0
   29.0202   -1.9066    0.0000 C   0  0  0  0  0  0  0  0  0  0  0  0
   29.7739   -1.5710    0.0000 C   0  0  0  0  0  0  0  0  0  0  0  0
   29.8601   -0.7505    0.0000 N   0  0  0  0  0  0  0  0  0  0  0  0
   29.1926   -0.2656    0.0000 C   0  0  0  0  0  0  0  0  0  0  0  0
   28.4390   -0.6012    0.0000 C   0  0  0  0  0  0  0  0  0  0  0  0
   30.6138   -0.4150    0.0000 C   0  0  0  0  0  0  0  0  0  0  0  0
   30.7000    0.4055    0.0000 O   0  0  0  0  0  0  0  0  0  0  0  0
   31.2812   -0.8999    0.0000 C   0  0  0  0  0  0  0  0  0  0  0  0
   21.5296   -4.2319    0.0000 Cl  0  0  0  0  0  0  0  0  0  0  0  0
  2  1  1  0
  2  3  2  0
  4  3  1  0
  5  1  1  0
  4  5  2  0
  6  1  1  0
  7  6  1  0
  7  8  1  0
  9  8  1  0
  9 10  1  0
  7 11  1  0
 10 11  1  0
  7 12  1  0
 12 13  1  0
 14 13  2  0
 14 15  1  0
 15 16  2  0
 17 12  2  0
 16 17  1  0
 15 18  1  0
  9 19  1  0
 19 20  1  0
 21 20  1  0
 21 22  2  0
 22 23  1  0
 23 24  2  0
 24 25  1  0
 25 26  2  0
 21 26  1  0
 24 27  1  0
 28 27  1  0
 28 29  1  0
 29 30  1  0
 31 30  1  0
 32 27  1  0
 31 32  1  0
 33 30  1  0
 33 34  2  0
 33 35  1  0
 13 36  1  0
M  END
> <chembl_id>
CHEMBL157101

> <chembl_pref_name>
KETOCONAZOLE
