
     RDKit          2D

 25 25  0  0  0  0  0  0  0  0999 V2000
    5.2471    0.0000    0.0000 Cl  0  0  0  0  0  0  0  0  0  0  0  0
    0.5328    0.0507    0.0000 C   0  0  0  0  0  0  0  0  0  0  0  0
   -0.2922    0.0507    0.0000 C   0  0  0  0  0  0  0  0  0  0  0  0
   -2.3547    0.7651    0.0000 C   0  0  0  0  0  0  0  0  0  0  0  0
   -0.7047    0.7651    0.0000 O   0  0  0  0  0  0  0  0  0  0  0  0
   -2.7672    1.4796    0.0000 N   0  0  0  0  0  0  0  0  0  0  0  0
   -1.5297    0.7651    0.0000 C   0  0  0  0  0  0  0  0  0  0  0  0
   -0.7047   -0.6638    0.0000 O   0  0  0  0  0  0  0  0  0  0  0  0
    0.5328   -0.7743    0.0000 C   0  0  0  0  0  0  0  0  0  0  0  0
    1.3578    0.0507    0.0000 C   0  0  0  0  0  0  0  0  0  0  0  0
    0.5328    0.8757    0.0000 O   0  0  0  0  0  0  0  0  0  0  0  0
   -3.5922    1.4796    0.0000 C   0  0  0  0  0  0  0  0  0  0  0  0
   -2.3547    2.1941    0.0000 C   0  0  0  0  0  0  0  0  0  0  0  0
   -0.1817   -1.1868    0.0000 C   0  0  0  0  0  0  0  0  0  0  0  0
    1.2473   -1.1868    0.0000 C   0  0  0  0  0  0  0  0  0  0  0  0
    1.7703   -0.6638    0.0000 C   0  0  0  0  0  0  0  0  0  0  0  0
    1.7703    0.7651    0.0000 C   0  0  0  0  0  0  0  0  0  0  0  0
    2.5953   -0.6638    0.0000 C   0  0  0  0  0  0  0  0  0  0  0  0
    2.5953    0.7651    0.0000 C   0  0  0  0  0  0  0  0  0  0  0  0
   -0.1817   -2.0118    0.0000 C   0  0  0  0  0  0  0  0  0  0  0  0
    1.2473   -2.0118    0.0000 C   0  0  0  0  0  0  0  0  0  0  0  0
    3.0078    0.0507    0.0000 C   0  0  0  0  0  0  0  0  0  0  0  0
    0.5328   -2.4243    0.0000 C   0  0  0  0  0  0  0  0  0  0  0  0
   -1.5297   -0.0599    0.0000 C   0  0  0  0  0  0  0  0  0  0  0  0
   -1.5297    1.5901    0.0000 C   0  0  0  0  0  0  0  0  0  0  0  0
  3  2  1  0
  4  7  1  0
  5  3  1  0
  6  4  1  0
  7  5  1  0
  8  3  2  0
  9  2  1  0
 10  2  1  0
 11  2  1  0
 12  6  1  0
 13  6  1  0
 14  9  1  0
 15  9  2  0
 16 10  2  0
 17 10  1  0
 18 16  1  0
 19 17  2  0
 20 14  2  0
 21 15  1  0
 22 18  2  0
 23 21  2  0
 19 22  1  0
 23 20  1  0
  7 24  1  0
  7 25  1  0
M  END
> <chembl_id>
CHEMBL3301670

> <chembl_pref_name>
DIFEMERINE HYDROCHLORIDE
