
     RDKit          2D

 26 25  0  0  0  0  0  0  0  0999 V2000
    9.4018   -8.4643    0.0000 O   0  0  0  0  0  0  0  0  0  0  0  0
    3.9142   -5.1931    0.0000 C   0  0  0  0  0  0  0  0  0  0  0  0
    1.0512   -6.0311    0.0000 C   0  0  0  0  0  0  0  0  0  0  0  0
    1.7634   -6.4429    0.0000 C   0  0  0  0  0  0  0  0  0  0  0  0
    1.0512   -5.2027    0.0000 C   0  0  0  0  0  0  0  0  0  0  0  0
    3.9142   -6.0166    0.0000 C   0  0  0  0  0  0  0  0  0  0  0  0
    4.6263   -4.7813    0.0000 C   0  0  0  0  0  0  0  0  0  0  0  0
    2.4900   -5.1931    0.0000 C   0  0  0  0  0  0  0  0  0  0  0  0
    7.4844   -6.4284    0.0000 C   0  0  0  0  0  0  0  0  0  0  0  0
    3.2021   -4.7813    0.0000 O   0  0  0  0  0  0  0  0  0  0  0  0
    1.7634   -4.7862    0.0000 C   0  0  0  0  0  0  0  0  0  0  0  0
    2.4900   -6.0311    0.0000 C   0  0  0  0  0  0  0  0  0  0  0  0
    5.3384   -6.0215    0.0000 C   0  0  0  0  0  0  0  0  0  0  0  0
    6.7723   -6.0166    0.0000 C   0  0  0  0  0  0  0  0  0  0  0  0
    5.3384   -5.1931    0.0000 C   0  0  0  0  0  0  0  0  0  0  0  0
    4.6263   -6.4284    0.0000 C   0  0  0  0  0  0  0  0  0  0  0  0
    6.0602   -6.4380    0.0000 C   0  0  0  0  0  0  0  0  0  0  0  0
    8.1965   -6.0166    0.0000 O   0  0  0  0  0  0  0  0  0  0  0  0
    7.4844   -7.2567    0.0000 O   0  0  0  0  0  0  0  0  0  0  0  0
    1.7634   -7.2713    0.0000 I   0  0  0  0  0  0  0  0  0  0  0  0
    0.3343   -4.7813    0.0000 I   0  0  0  0  0  0  0  0  0  0  0  0
    4.6263   -3.9529    0.0000 I   0  0  0  0  0  0  0  0  0  0  0  0
    3.1876   -6.4235    0.0000 I   0  0  0  0  0  0  0  0  0  0  0  0
    0.3343   -6.4380    0.0000 O   0  0  0  0  0  0  0  0  0  0  0  0
    6.7626   -5.1931    0.0000 N   0  0  0  0  0  0  0  0  0  0  0  0
    9.1460   -6.0020    0.0000 Na  0  0  0  0  0 15  0  0  0  0  0  0
  3  4  1  0
  4 12  2  0
  5 11  1  0
  6  2  2  0
  7  2  1  0
  8 10  1  0
  9 14  1  0
 10  2  1  0
 11  8  2  0
 12  8  1  0
 13 15  1  0
 14 17  1  0
 15  7  2  0
 16  6  1  0
 17 13  1  0
 18  9  1  0
 19  9  2  0
 20  4  1  0
 21  5  1  0
 22  7  1  0
 23  6  1  0
 24  3  1  0
 14 25  1  1
 13 16  2  0
  3  5  2  0
M  CHG  2  18  -1  26   1
M  END
> <chembl_id>
CHEMBL3545058

> <chembl_pref_name>
DEXTROTHYROXINE SODIUM
