
     RDKit          2D

 28 31  0  0  1  0  0  0  0  0999 V2000
   -0.4500   -4.0417    0.0000 N   0  0  0  0  0  0  0  0  0  0  0  0
    0.8625   -5.0917    0.0000 N   0  0  0  0  0  0  0  0  0  0  0  0
    0.1625   -4.3917    0.0000 C   0  0  0  0  0  0  0  0  0  0  0  0
    0.8625   -4.3917    0.0000 C   0  0  0  0  0  0  0  0  0  0  0  0
    0.1625   -5.0917    0.0000 C   0  0  0  0  0  0  0  0  0  0  0  0
   -1.0208   -4.4542    0.0000 C   0  0  0  0  0  0  0  0  0  0  0  0
   -0.6833   -3.3750    0.0000 C   0  0  0  0  0  0  0  0  0  0  0  0
    1.5500   -5.3167    0.0000 C   0  0  0  0  0  0  0  0  0  0  0  0
    1.5500   -4.1792    0.0000 S   0  0  0  0  0  0  0  0  0  0  0  0
   -1.3833   -3.3750    0.0000 N   0  0  0  0  0  0  0  0  0  0  0  0
    1.9667   -4.7417    0.0000 C   0  0  0  0  0  0  0  0  0  0  0  0
   -1.5958   -4.0542    0.0000 C   0  0  0  0  0  0  0  0  0  0  0  0
    1.5375   -6.0292    0.0000 C   0  0  0  0  0  0  0  0  0  0  0  0
   -0.3500   -5.5917    0.0000 O   0  0  0  0  0  0  0  0  0  0  0  0
   -1.0125   -5.1667    0.0000 O   0  0  0  0  0  0  0  0  0  0  0  0
   -2.2125   -4.4042    0.0000 C   0  0  0  0  0  0  0  0  0  0  0  0
    0.9125   -6.3667    0.0000 O   0  0  0  0  0  0  0  0  0  0  0  0
   -0.6750   -2.6667    0.0000 C   0  0  0  0  0  0  0  0  0  0  0  0
   -0.0583   -3.0292    0.0000 C   0  0  0  0  0  0  0  0  0  0  0  0
    2.1417   -6.3917    0.0000 O   0  0  0  0  0  0  0  0  0  0  0  0
    2.5792   -5.0917    0.0000 C   0  0  0  0  0  0  0  0  0  0  0  0
    2.5792   -4.3792    0.0000 C   0  0  0  0  0  0  0  0  0  0  0  0
   -2.8250   -4.0417    0.0000 C   0  0  0  0  0  0  0  0  0  0  0  0
   -2.2125   -5.1125    0.0000 C   0  0  0  0  0  0  0  0  0  0  0  0
   -3.4458   -4.4000    0.0000 C   0  0  0  0  0  0  0  0  0  0  0  0
   -2.8333   -5.4667    0.0000 C   0  0  0  0  0  0  0  0  0  0  0  0
   -3.4500   -5.1125    0.0000 C   0  0  0  0  0  0  0  0  0  0  0  0
    0.8625   -3.6917    0.0000 H   0  0  0  0  0  0  0  0  0  0  0  0
  2  5  1  0
  3  1  1  1
  4  3  1  0
  5  3  1  0
  6  1  1  0
  7  1  1  0
  8  2  1  0
  9  4  1  0
 10  7  1  0
 11  9  1  0
 12  6  1  0
  8 13  1  6
 14  5  2  0
 15  6  2  0
 12 16  1  1
 17 13  2  0
 18  7  1  0
 19  7  1  0
 20 13  1  0
 21 11  1  0
 22 11  1  0
 23 16  1  0
 24 16  2  0
 25 23  2  0
 26 24  1  0
 27 26  2  0
  4 28  1  6
 12 10  1  0
  4  2  1  0
  8 11  1  0
 25 27  1  0
M  END
> <chembl_id>
CHEMBL1201116

> <chembl_pref_name>
HETACILLIN
