
     RDKit          2D

 21 22  0  0  0  0  0  0  0  0999 V2000
   -5.8622   -0.1773    0.0000 C   0  0  0  0  0  0  0  0  0  0  0  0
   -6.5767   -0.5898    0.0000 C   0  0  0  0  0  0  0  0  0  0  0  0
   -6.5767   -1.4148    0.0000 C   0  0  0  0  0  0  0  0  0  0  0  0
   -5.8622   -1.8273    0.0000 C   0  0  0  0  0  0  0  0  0  0  0  0
   -5.1477   -1.4148    0.0000 C   0  0  0  0  0  0  0  0  0  0  0  0
   -5.1477   -0.5898    0.0000 C   0  0  0  0  0  0  0  0  0  0  0  0
   -4.4332   -1.8274    0.0000 C   0  0  0  0  0  0  0  0  0  0  0  0
   -4.4333   -2.6524    0.0000 C   0  0  0  0  0  0  0  0  0  0  0  0
   -3.7188   -3.0649    0.0000 C   0  0  0  0  0  0  0  0  0  0  0  0
   -3.0043   -2.6524    0.0000 C   0  0  0  0  0  0  0  0  0  0  0  0
   -3.0043   -1.8273    0.0000 N   0  0  0  0  0  0  0  0  0  0  0  0
   -3.7188   -1.4148    0.0000 C   0  0  0  0  0  0  0  0  0  0  0  0
   -7.2912   -1.8274    0.0000 Cl  0  0  0  0  0  0  0  0  0  0  0  0
   -2.2898   -3.0649    0.0000 C   0  0  0  0  0  0  0  0  0  0  0  0
   -3.7188   -3.8899    0.0000 O   0  0  0  0  0  0  0  0  0  0  0  0
   -1.5754   -2.6524    0.0000 N   0  0  0  0  0  0  0  0  0  0  0  0
   -2.2898   -3.8899    0.0000 O   0  0  0  0  0  0  0  0  0  0  0  0
   -0.8609   -3.0649    0.0000 C   0  0  0  0  0  0  0  0  0  0  0  0
   -0.1464   -2.6524    0.0000 C   0  0  0  0  0  0  0  0  0  0  0  0
    0.5680   -3.0649    0.0000 O   0  0  0  0  0  0  0  0  0  0  0  0
   -0.1464   -1.8274    0.0000 O   0  0  0  0  0  0  0  0  0  0  0  0
  1  2  1  0
  1  6  2  0
  2  3  2  0
  3  4  1  0
  4  5  2  0
  5  6  1  0
  5  7  1  0
  7  8  1  0
  7 12  2  0
  8  9  2  0
  9 10  1  0
 10 11  2  0
 11 12  1  0
  3 13  1  0
 10 14  1  0
  9 15  1  0
 14 16  1  0
 14 17  2  0
 16 18  1  0
 18 19  1  0
 19 20  1  0
 19 21  2  0
M  END
> <chembl_id>
CHEMBL3646221

> <chembl_pref_name>
VADADUSTAT
