
     RDKit          2D

 19 20  0  0  0  0  0  0  0  0999 V2000
   -3.8959  -15.0012    0.0000 S   0  0  0  0  0  0  0  0  0  0  0  0
    1.0816  -16.1379    0.0000 C   0  0  0  0  0  0  0  0  0  0  0  0
   -2.2459  -15.0012    0.0000 N   0  0  0  0  0  0  0  0  0  0  0  0
   -3.4834  -14.2909    0.0000 C   0  0  0  0  0  0  0  0  0  0  0  0
    0.2934  -16.3900    0.0000 O   0  0  0  0  0  0  0  0  0  0  0  0
   -1.4209  -15.0012    0.0000 N   0  0  0  0  0  0  0  0  0  0  0  0
   -3.4834  -15.7254    0.0000 C   0  0  0  0  0  0  0  0  0  0  0  0
   -2.6584  -14.2909    0.0000 C   0  0  0  0  0  0  0  0  0  0  0  0
    1.0816  -15.3129    0.0000 C   0  0  0  0  0  0  0  0  0  0  0  0
   -0.1834  -15.7254    0.0000 C   0  0  0  0  0  0  0  0  0  0  0  0
   -1.0084  -15.7254    0.0000 C   0  0  0  0  0  0  0  0  0  0  0  0
   -2.6584  -15.7254    0.0000 C   0  0  0  0  0  0  0  0  0  0  0  0
    0.2934  -15.0516    0.0000 C   0  0  0  0  0  0  0  0  0  0  0  0
   -4.5284  -15.5375    0.0000 O   0  0  0  0  0  0  0  0  0  0  0  0
   -4.5284  -14.4787    0.0000 O   0  0  0  0  0  0  0  0  0  0  0  0
   -2.2459  -13.5759    0.0000 C   0  0  0  0  0  0  0  0  0  0  0  0
    1.8000  -16.5464    0.0000 N   0  0  0  0  0  0  0  0  0  0  0  0
    2.5124  -16.1303    0.0000 O   0  0  0  0  0  0  0  0  0  0  0  0
    1.8043  -17.3714    0.0000 O   0  0  0  0  0  0  0  0  0  0  0  0
  4  1  1  0
  5 10  1  0
  6  3  1  0
  7  1  1  0
  8  4  1  0
  9 13  1  0
 10 11  1  0
 11  6  2  0
 12  7  1  0
 13 10  2  0
 14  1  2  0
 15  1  2  0
 16  8  1  0
  8  3  1  0
  9  2  2  0
  2  5  1  0
  3 12  1  0
 17 18  2  0
 17 19  1  0
  2 17  1  0
M  CHG  2  17   1  19  -1
M  END
> <chembl_id>
CHEMBL290960

> <chembl_pref_name>
NIFURTIMOX
