
     RDKit          2D

  9  9  0  0  0  0  0  0  0  0999 V2000
    5.8292   -4.5542    0.0000 C   0  0  0  0  0  0  0  0  0  0  0  0
    5.2167   -4.9167    0.0000 C   0  0  0  0  0  0  0  0  0  0  0  0
    5.8167   -3.8500    0.0000 O   0  0  0  0  0  0  0  0  0  0  0  0
    4.6125   -5.9917    0.0000 N   0  0  0  0  0  0  0  0  0  0  0  0
    6.4417   -4.9042    0.0000 N   0  0  0  0  0  0  0  0  0  0  0  0
    5.2292   -5.6250    0.0000 C   0  0  0  0  0  0  0  0  0  0  0  0
    4.6042   -4.5750    0.0000 C   0  0  0  0  0  0  0  0  0  0  0  0
    3.9917   -5.6500    0.0000 C   0  0  0  0  0  0  0  0  0  0  0  0
    3.9875   -4.9417    0.0000 C   0  0  0  0  0  0  0  0  0  0  0  0
  2  1  1  0
  3  1  2  0
  4  6  2  0
  5  1  1  0
  6  2  1  0
  7  2  2  0
  8  9  2  0
  9  7  1  0
  8  4  1  0
M  END
> <chembl_id>
CHEMBL1140

> <chembl_pref_name>
NIACINAMIDE
