
     RDKit          2D

 30 32  0  0  0  0  0  0  0  0999 V2000
   -2.9026    2.5325    0.0000 Cl  0  0  0  0  0  0  0  0  0  0  0  0
   -8.4934    3.1237    0.0000 N   0  0  0  0  0  0  0  0  0  0  0  0
   -9.2080    2.7112    0.0000 C   0  0  0  0  0  0  0  0  0  0  0  0
   -9.2080    1.8862    0.0000 C   0  0  0  0  0  0  0  0  0  0  0  0
   -8.4934    1.4737    0.0000 C   0  0  0  0  0  0  0  0  0  0  0  0
   -7.7790    1.8862    0.0000 C   0  0  0  0  0  0  0  0  0  0  0  0
   -7.7790    2.7112    0.0000 C   0  0  0  0  0  0  0  0  0  0  0  0
   -5.3804    1.2882    0.0000 C   0  0  0  0  0  0  0  0  0  0  0  0
   -5.9325    0.6751    0.0000 C   0  0  0  0  0  0  0  0  0  0  0  0
   -5.6776   -0.1095    0.0000 C   0  0  0  0  0  0  0  0  0  0  0  0
   -4.8705   -0.2811    0.0000 C   0  0  0  0  0  0  0  0  0  0  0  0
   -4.3186    0.3320    0.0000 C   0  0  0  0  0  0  0  0  0  0  0  0
   -4.5735    1.1167    0.0000 N   0  0  0  0  0  0  0  0  0  0  0  0
   -1.6006    1.2152    0.0000 C   0  0  0  0  0  0  0  0  0  0  0  0
   -2.1526    0.6021    0.0000 C   0  0  0  0  0  0  0  0  0  0  0  0
   -1.8977   -0.1826    0.0000 C   0  0  0  0  0  0  0  0  0  0  0  0
   -1.0907   -0.3541    0.0000 N   0  0  0  0  0  0  0  0  0  0  0  0
   -0.5387    0.2590    0.0000 C   0  0  0  0  0  0  0  0  0  0  0  0
   -0.7936    1.0436    0.0000 C   0  0  0  0  0  0  0  0  0  0  0  0
   -6.5095    2.2987    0.0000 C   0  0  0  0  0  0  0  0  0  0  0  0
   -6.9944    2.9661    0.0000 N   0  0  0  0  0  0  0  0  0  0  0  0
   -6.9944    1.6313    0.0000 C   0  0  0  0  0  0  0  0  0  0  0  0
   -9.9224    1.4737    0.0000 Cl  0  0  0  0  0  0  0  0  0  0  0  0
   -6.7395    0.8466    0.0000 C   0  0  0  0  0  0  0  0  0  0  0  0
   -3.5115    0.1605    0.0000 N   0  0  0  0  0  0  0  0  0  0  0  0
   -2.9596    0.7735    0.0000 C   0  0  0  0  0  0  0  0  0  0  0  0
    0.2683    0.0874    0.0000 C   0  0  0  0  0  0  0  0  0  0  0  0
    0.4398    0.8944    0.0000 F   0  0  0  0  0  0  0  0  0  0  0  0
    1.0753   -0.0840    0.0000 F   0  0  0  0  0  0  0  0  0  0  0  0
    0.0968   -0.7195    0.0000 F   0  0  0  0  0  0  0  0  0  0  0  0
  2  3  2  0
  3  4  1  0
  4  5  2  0
  5  6  1  0
  6  7  2  0
  2  7  1  0
  8  9  1  0
  9 10  2  0
 10 11  1  0
 11 12  2  0
 12 13  1  0
  8 13  2  0
 14 15  1  0
 15 16  2  0
 16 17  1  0
 17 18  2  0
 18 19  1  0
 14 19  2  0
 20 21  1  0
 20 22  2  0
 21  7  1  0
  6 22  1  0
  4 23  1  0
 22 24  1  0
 24  9  1  0
 12 25  1  0
 25 26  1  0
 26 15  1  0
 18 27  1  0
 27 28  1  0
 27 29  1  0
 27 30  1  0
M  END
> <chembl_id>
CHEMBL3989973

> <chembl_pref_name>
PEXIDARTINIB HYDROCHLORIDE
