
     RDKit          2D

 26 27  0  0  0  0  0  0  0  0999 V2000
    0.4000   -4.5042    0.0000 O   0  0  0  0  0  0  0  0  0  0  0  0
    2.5833   -2.8833    0.0000 N   0  0  0  0  0  0  0  0  0  0  0  0
    1.8750   -2.8875    0.0000 C   0  0  0  0  0  0  0  0  0  0  0  0
    1.8750   -2.1750    0.0000 C   0  0  0  0  0  0  0  0  0  0  0  0
    2.5875   -2.1750    0.0000 C   0  0  0  0  0  0  0  0  0  0  0  0
    3.1917   -3.2375    0.0000 C   0  0  0  0  0  0  0  0  0  0  0  0
    1.2500   -1.8167    0.0000 N   0  0  0  0  0  0  0  0  0  0  0  0
    3.2000   -1.8208    0.0000 S   0  0  0  0  0  0  0  0  0  0  0  0
    0.6292   -2.1708    0.0000 C   0  0  0  0  0  0  0  0  0  0  0  0
    3.8042   -2.8875    0.0000 C   0  0  0  0  0  0  0  0  0  0  0  0
    3.1875   -3.9500    0.0000 C   0  0  0  0  0  0  0  0  0  0  0  0
    0.0125   -1.8167    0.0000 C   0  0  0  0  0  0  0  0  0  0  0  0
    3.8125   -2.1792    0.0000 C   0  0  0  0  0  0  0  0  0  0  0  0
    1.3708   -3.3917    0.0000 O   0  0  0  0  0  0  0  0  0  0  0  0
    0.6292   -2.8833    0.0000 O   0  0  0  0  0  0  0  0  0  0  0  0
    2.5667   -4.3000    0.0000 O   0  0  0  0  0  0  0  0  0  0  0  0
   -0.6042   -2.1708    0.0000 C   0  0  0  0  0  0  0  0  0  0  0  0
    4.4167   -3.2500    0.0000 Cl  0  0  0  0  0  0  0  0  0  0  0  0
    0.0125   -1.1042    0.0000 N   0  0  0  0  0  0  0  0  0  0  0  0
    3.7958   -4.3083    0.0000 O   0  0  0  0  0  0  0  0  0  0  0  0
   -0.6042   -2.8750    0.0000 C   0  0  0  0  0  0  0  0  0  0  0  0
   -1.2208   -1.8125    0.0000 C   0  0  0  0  0  0  0  0  0  0  0  0
   -1.8333   -2.1667    0.0000 C   0  0  0  0  0  0  0  0  0  0  0  0
   -1.2167   -3.2375    0.0000 C   0  0  0  0  0  0  0  0  0  0  0  0
   -1.8333   -2.8792    0.0000 C   0  0  0  0  0  0  0  0  0  0  0  0
    2.5792   -1.4542    0.0000 H   0  0  0  0  0  0  0  0  0  0  0  0
  3  2  1  0
  4  3  1  0
  5  2  1  0
  6  2  1  0
  4  7  1  1
  8  5  1  0
  9  7  1  0
 10  6  2  0
 11  6  1  0
 12  9  1  0
 13 10  1  0
 14  3  2  0
 15  9  2  0
 16 11  2  0
 17 12  1  0
 18 10  1  0
 12 19  1  1
 20 11  1  0
 21 17  1  0
 22 17  2  0
 23 22  1  0
 24 21  2  0
 25 24  1  0
  5 26  1  6
  4  5  1  0
  8 13  1  0
 25 23  2  0
M  END
> <chembl_id>
CHEMBL1201018

> <chembl_pref_name>
CEFACLOR
