
     RDKit          2D

 25 26  0  0  0  0  0  0  0  0999 V2000
   16.8303    0.4560    0.0000 C   0  0  0  0  0  0  0  0  0  0  0  0
   16.5289   -0.3120    0.0000 N   0  0  0  0  0  0  0  0  0  0  0  0
   15.7131   -0.4349    0.0000 C   0  0  0  0  0  0  0  0  0  0  0  0
   15.1987    0.2101    0.0000 C   0  0  0  0  0  0  0  0  0  0  0  0
   15.5001    0.9780    0.0000 C   0  0  0  0  0  0  0  0  0  0  0  0
   16.3159    1.1010    0.0000 C   0  0  0  0  0  0  0  0  0  0  0  0
   14.9857    1.6230    0.0000 N   0  0  0  0  0  0  0  0  0  0  0  0
   14.1700    1.5001    0.0000 C   0  0  0  0  0  0  0  0  0  0  0  0
   13.8686    0.7321    0.0000 O   0  0  0  0  0  0  0  0  0  0  0  0
   13.6556    2.1451    0.0000 C   0  0  0  0  0  0  0  0  0  0  0  0
   14.0135    2.8884    0.0000 C   0  0  0  0  0  0  0  0  0  0  0  0
   12.8513    1.9615    0.0000 N   0  0  0  0  0  0  0  0  0  0  0  0
   12.2063    2.4759    0.0000 C   0  0  0  0  0  0  0  0  0  0  0  0
   11.4630    2.1179    0.0000 O   0  0  0  0  0  0  0  0  0  0  0  0
   12.2063    3.3009    0.0000 N   0  0  0  0  0  0  0  0  0  0  0  0
   12.8513    3.8153    0.0000 C   0  0  0  0  0  0  0  0  0  0  0  0
   13.6556    3.6317    0.0000 C   0  0  0  0  0  0  0  0  0  0  0  0
   13.0830    2.8884    0.0000 C   0  0  0  0  0  0  0  0  0  0  0  0
   11.4630    3.6588    0.0000 O   0  0  0  0  0  0  0  0  0  0  0  0
   10.7813    3.1941    0.0000 S   0  0  0  0  0  0  0  0  0  0  0  0
   10.0997    2.7294    0.0000 O   0  0  0  0  0  0  0  0  0  0  0  0
   10.3166    3.8758    0.0000 O   0  0  0  0  0  0  0  0  0  0  0  0
   11.2460    2.5125    0.0000 O   0  0  0  0  0  0  0  0  0  0  0  0
   12.6677    4.6196    0.0000 H   0  0  0  0  0  0  0  0  0  0  0  0
   15.9935    3.1558    0.0000 O   0  0  0  0  0  0  0  0  0  0  0  0
  1  2  1  0
  2  3  1  0
  3  4  1  0
  4  5  1  0
  5  6  1  0
  1  6  1  0
  5  7  1  0
  7  8  1  0
  8  9  2  0
 10  8  1  1
 10 11  1  0
 10 12  1  0
 12 13  1  0
 13 14  2  0
 13 15  1  0
 15 16  1  0
 16 17  1  0
 17 11  1  0
 12 18  1  0
 16 18  1  0
 15 19  1  0
 19 20  1  0
 20 21  1  0
 20 22  2  0
 20 23  2  0
 16 24  1  1
M  END
> <chembl_id>
CHEMBL3301605

> <chembl_pref_name>
RELEBACTAM
