
     RDKit          2D

 19 20  0  0  0  0  0  0  0  0999 V2000
    6.2042   -4.1292    0.0000 C   0  0  0  0  0  0  0  0  0  0  0  0
    6.2042   -4.8375    0.0000 C   0  0  0  0  0  0  0  0  0  0  0  0
    4.9667   -4.1292    0.0000 N   0  0  0  0  0  0  0  0  0  0  0  0
    6.8042   -3.7792    0.0000 C   0  0  0  0  0  0  0  0  0  0  0  0
    5.5792   -3.7792    0.0000 C   0  0  0  0  0  0  0  0  0  0  0  0
    7.4167   -4.1292    0.0000 C   0  0  0  0  0  0  0  0  0  0  0  0
    6.8042   -3.0667    0.0000 C   0  0  0  0  0  0  0  0  0  0  0  0
    6.8042   -5.1875    0.0000 C   0  0  0  0  0  0  0  0  0  0  0  0
    6.8042   -5.9042    0.0000 N   0  0  0  0  0  0  0  0  0  0  0  0
    8.0417   -3.0667    0.0000 C   0  0  0  0  0  0  0  0  0  0  0  0
    7.4167   -2.7125    0.0000 C   0  0  0  0  0  0  0  0  0  0  0  0
    8.0417   -3.7792    0.0000 C   0  0  0  0  0  0  0  0  0  0  0  0
    8.6625   -2.7125    0.0000 Br  0  0  0  0  0  0  0  0  0  0  0  0
    4.3500   -3.7792    0.0000 C   0  0  0  0  0  0  0  0  0  0  0  0
    5.5792   -3.0667    0.0000 C   0  0  0  0  0  0  0  0  0  0  0  0
    7.4167   -6.2542    0.0000 C   0  0  0  0  0  0  0  0  0  0  0  0
    6.2042   -6.2542    0.0000 C   0  0  0  0  0  0  0  0  0  0  0  0
    4.3500   -3.0667    0.0000 C   0  0  0  0  0  0  0  0  0  0  0  0
    4.9667   -2.7125    0.0000 C   0  0  0  0  0  0  0  0  0  0  0  0
  2  1  1  0
  3  5  2  0
  4  1  1  0
  5  1  1  0
  6  4  2  0
  7  4  1  0
  8  2  1  0
  9  8  1  0
 10 11  1  0
 11  7  2  0
 12  6  1  0
 13 10  1  0
 14  3  1  0
 15  5  1  0
 16  9  1  0
 17  9  1  0
 18 19  1  0
 19 15  2  0
 10 12  2  0
 18 14  2  0
M  END
> <chembl_id>
CHEMBL811

> <chembl_pref_name>
BROMPHENIRAMINE
