
     RDKit          2D

 27 29  0  0  0  0  0  0  0  0999 V2000
   -5.5098   -0.7955    0.0000 C   0  0  0  0  0  0  0  0  0  0  0  0
   -6.2243   -1.2080    0.0000 C   0  0  0  0  0  0  0  0  0  0  0  0
   -6.2243   -2.0330    0.0000 C   0  0  0  0  0  0  0  0  0  0  0  0
   -5.5098   -2.4455    0.0000 C   0  0  0  0  0  0  0  0  0  0  0  0
   -4.7953   -2.0330    0.0000 C   0  0  0  0  0  0  0  0  0  0  0  0
   -4.7953   -1.2080    0.0000 C   0  0  0  0  0  0  0  0  0  0  0  0
   -6.9388   -2.4455    0.0000 Cl  0  0  0  0  0  0  0  0  0  0  0  0
   -4.0809   -0.7955    0.0000 C   0  0  0  0  0  0  0  0  0  0  0  0
   -3.3664   -1.2080    0.0000 O   0  0  0  0  0  0  0  0  0  0  0  0
   -4.4934   -0.0811    0.0000 C   0  0  0  0  0  0  0  0  0  0  0  0
   -4.0808    0.6334    0.0000 N   0  0  0  0  0  0  0  0  0  0  0  0
   -4.4933    1.3479    0.0000 C   0  0  0  0  0  0  0  0  0  0  0  0
   -5.3184    1.3479    0.0000 C   0  0  0  0  0  0  0  0  0  0  0  0
   -5.7309    0.6334    0.0000 C   0  0  0  0  0  0  0  0  0  0  0  0
   -5.3184   -0.0811    0.0000 C   0  0  0  0  0  0  0  0  0  0  0  0
   -2.6519   -0.7955    0.0000 C   0  0  0  0  0  0  0  0  0  0  0  0
   -1.9374   -1.2080    0.0000 C   0  0  0  0  0  0  0  0  0  0  0  0
   -1.2229   -0.7955    0.0000 C   0  0  0  0  0  0  0  0  0  0  0  0
   -1.2229    0.0295    0.0000 N   0  0  0  0  0  0  0  0  0  0  0  0
   -1.9374    0.4420    0.0000 C   0  0  0  0  0  0  0  0  0  0  0  0
   -2.6519    0.0295    0.0000 C   0  0  0  0  0  0  0  0  0  0  0  0
   -0.5085    0.4420    0.0000 C   0  0  0  0  0  0  0  0  0  0  0  0
    0.2060    0.0295    0.0000 C   0  0  0  0  0  0  0  0  0  0  0  0
    0.9205    0.4420    0.0000 C   0  0  0  0  0  0  0  0  0  0  0  0
    1.6349    0.0295    0.0000 C   0  0  0  0  0  0  0  0  0  0  0  0
    2.3494    0.4420    0.0000 O   0  0  0  0  0  0  0  0  0  0  0  0
    1.6349   -0.7955    0.0000 O   0  0  0  0  0  0  0  0  0  0  0  0
  1  2  1  0
  1  6  2  0
  2  3  2  0
  3  4  1  0
  4  5  2  0
  5  6  1  0
  3  7  1  0
  6  8  1  0
  8  9  1  1
  8 10  1  0
 10 11  1  0
 10 15  2  0
 11 12  2  0
 12 13  1  0
 13 14  2  0
 14 15  1  0
  9 16  1  0
 16 17  1  0
 21 16  1  0
 17 18  1  0
 18 19  1  0
 19 20  1  0
 20 21  1  0
 19 22  1  0
 22 23  1  0
 23 24  1  0
 24 25  1  0
 25 26  1  0
 25 27  2  0
M  END
> <chembl_id>
CHEMBL1201758

> <chembl_pref_name>
BEPOTASTINE
