
     RDKit          2D

 22 23  0  0  0  0  0  0  0  0999 V2000
  -14.5259  -16.5589    0.0000 Br  0  0  0  0  0  0  0  0  0  0  0  0
  -20.3009  -14.9384    0.0000 C   0  0  0  0  0  0  0  0  0  0  0  0
  -21.0154  -15.3509    0.0000 C   0  0  0  0  0  0  0  0  0  0  0  0
  -21.0154  -16.1759    0.0000 C   0  0  0  0  0  0  0  0  0  0  0  0
  -20.3009  -16.5884    0.0000 C   0  0  0  0  0  0  0  0  0  0  0  0
  -19.5864  -16.1759    0.0000 C   0  0  0  0  0  0  0  0  0  0  0  0
  -19.5864  -15.3509    0.0000 C   0  0  0  0  0  0  0  0  0  0  0  0
  -21.7299  -16.5884    0.0000 C   0  0  0  0  0  0  0  0  0  0  0  0
  -18.8719  -16.5884    0.0000 C   0  0  0  0  0  0  0  0  0  0  0  0
  -18.8719  -14.9384    0.0000 S   0  0  0  0  0  0  0  0  0  0  0  0
  -18.8719  -14.1134    0.0000 C   0  0  0  0  0  0  0  0  0  0  0  0
  -18.1574  -13.7009    0.0000 C   0  0  0  0  0  0  0  0  0  0  0  0
  -18.1574  -12.8759    0.0000 C   0  0  0  0  0  0  0  0  0  0  0  0
  -18.8719  -12.4634    0.0000 C   0  0  0  0  0  0  0  0  0  0  0  0
  -19.5864  -12.8759    0.0000 C   0  0  0  0  0  0  0  0  0  0  0  0
  -19.5864  -13.7009    0.0000 C   0  0  0  0  0  0  0  0  0  0  0  0
  -17.4430  -14.1134    0.0000 N   0  0  0  0  0  0  0  0  0  0  0  0
  -17.4430  -14.9384    0.0000 C   0  0  0  0  0  0  0  0  0  0  0  0
  -16.7285  -15.3509    0.0000 C   0  0  0  0  0  0  0  0  0  0  0  0
  -16.0140  -14.9384    0.0000 N   0  0  0  0  0  0  0  0  0  0  0  0
  -16.0140  -14.1134    0.0000 C   0  0  0  0  0  0  0  0  0  0  0  0
  -16.7285  -13.7009    0.0000 C   0  0  0  0  0  0  0  0  0  0  0  0
  2  3  1  0
  2  7  2  0
  3  4  2  0
  4  5  1  0
  5  6  2  0
  6  7  1  0
  4  8  1  0
  6  9  1  0
  7 10  1  0
 10 11  1  0
 11 12  1  0
 11 16  2  0
 12 13  2  0
 13 14  1  0
 14 15  2  0
 15 16  1  0
 12 17  1  0
 17 18  1  0
 22 17  1  0
 18 19  1  0
 19 20  1  0
 20 21  1  0
 21 22  1  0
M  END
> <chembl_id>
CHEMBL2107387

> <chembl_pref_name>
VORTIOXETINE HYDROBROMIDE
