
     RDKit          2D

 22 22  0  0  0  0  0  0  0  0999 V2000
    2.2250   -7.3458    0.0000 C   0  0  0  0  0  0  0  0  0  0  0  0
    2.8375   -6.9917    0.0000 C   0  0  0  0  0  0  0  0  0  0  0  0
    4.6750   -5.9208    0.0000 C   0  0  0  0  0  0  0  0  0  0  0  0
    4.6708   -5.2125    0.0000 N   0  0  0  0  0  0  0  0  0  0  0  0
    4.0625   -6.2792    0.0000 C   0  0  0  0  0  0  0  0  0  0  0  0
    2.8375   -6.2792    0.0000 C   0  0  0  0  0  0  0  0  0  0  0  0
    3.4500   -7.3458    0.0000 C   0  0  0  0  0  0  0  0  0  0  0  0
    1.8667   -7.9542    0.0000 F   0  0  0  0  0  0  0  0  0  0  0  0
    1.6083   -6.9917    0.0000 F   0  0  0  0  0  0  0  0  0  0  0  0
    2.5750   -7.9542    0.0000 F   0  0  0  0  0  0  0  0  0  0  0  0
    4.0625   -6.9917    0.0000 C   0  0  0  0  0  0  0  0  0  0  0  0
    3.4500   -5.9250    0.0000 C   0  0  0  0  0  0  0  0  0  0  0  0
    5.2833   -4.8583    0.0000 O   0  0  0  0  0  0  0  0  0  0  0  0
    7.1250   -5.2042    0.0000 N   0  0  0  0  0  0  0  0  0  0  0  0
    5.9000   -5.2083    0.0000 C   0  0  0  0  0  0  0  0  0  0  0  0
    7.7417   -6.2667    0.0000 O   0  0  0  0  0  0  0  0  0  0  0  0
    5.2875   -6.2750    0.0000 C   0  0  0  0  0  0  0  0  0  0  0  0
    6.5083   -4.8542    0.0000 C   0  0  0  0  0  0  0  0  0  0  0  0
    7.1292   -5.9125    0.0000 C   0  0  0  0  0  0  0  0  0  0  0  0
    8.3542   -5.9083    0.0000 C   0  0  0  0  0  0  0  0  0  0  0  0
    5.9000   -5.9167    0.0000 C   0  0  0  0  0  0  0  0  0  0  0  0
    6.5167   -6.2708    0.0000 C   0  0  0  0  0  0  0  0  0  0  0  0
  2  1  1  0
  3  5  1  0
  4  3  2  0
  5 11  1  0
  6  2  2  0
  7  2  1  0
  8  1  1  0
  9  1  1  0
 10  1  1  0
 11  7  2  0
 12  6  1  0
 13  4  1  0
 14 18  1  0
 15 13  1  0
 16 19  1  0
 17  3  1  0
 18 15  1  0
 19 22  1  0
 20 16  1  0
 21 17  1  0
 22 21  1  0
 12  5  2  0
M  END
> <chembl_id>
CHEMBL814

> <chembl_pref_name>
FLUVOXAMINE
