
     RDKit          2D

 12 11  0  0  0  0  0  0  0  0999 V2000
   -7.6607  -20.2714    0.0000 Cl  0  0  0  0  0  0  0  0  0  0  0  0
   -9.3623  -20.6839    0.0000 N   0  0  0  0  0  0  0  0  0  0  0  0
   -9.3623  -19.8589    0.0000 C   0  0  0  0  0  0  0  0  0  0  0  0
  -10.0768  -19.4464    0.0000 C   0  0  0  0  0  0  0  0  0  0  0  0
  -10.7913  -19.8589    0.0000 C   0  0  0  0  0  0  0  0  0  0  0  0
  -10.7913  -20.6839    0.0000 C   0  0  0  0  0  0  0  0  0  0  0  0
  -10.0768  -21.0964    0.0000 C   0  0  0  0  0  0  0  0  0  0  0  0
  -10.0768  -21.9214    0.0000 C   0  0  0  0  0  0  0  0  0  0  0  0
  -10.7913  -22.3339    0.0000 O   0  0  0  0  0  0  0  0  0  0  0  0
  -11.5057  -21.0964    0.0000 O   0  0  0  0  0  0  0  0  0  0  0  0
  -11.5057  -19.4464    0.0000 O   0  0  0  0  0  0  0  0  0  0  0  0
  -10.0768  -18.6214    0.0000 O   0  0  0  0  0  0  0  0  0  0  0  0
  2  3  1  0
  7  2  1  0
  3  4  1  0
  4  5  1  0
  5  6  1  0
  6  7  1  0
  7  8  1  6
  8  9  1  0
  6 10  1  6
  5 11  1  6
  4 12  1  1
M  END
> <chembl_id>
CHEMBL2107355

> <chembl_pref_name>
MIGALASTAT HYDROCHLORIDE
