
     RDKit          2D

 29 32  0  0  1  0  0  0  0  0999 V2000
   -2.9205  -13.0377    0.0000 C   0  0  0  0  0  0  0  0  0  0  0  0
   -2.9216  -13.8646    0.0000 C   0  0  0  0  0  0  0  0  0  0  0  0
   -2.2072  -14.2772    0.0000 C   0  0  0  0  0  0  0  0  0  0  0  0
   -2.2090  -12.6251    0.0000 C   0  0  0  0  0  0  0  0  0  0  0  0
   -1.4941  -13.0341    0.0000 C   0  0  0  0  0  0  0  0  0  0  0  0
   -1.4939  -13.8646    0.0000 C   0  0  0  0  0  0  0  0  0  0  0  0
   -0.7038  -14.1211    0.0000 N   0  0  0  0  0  0  0  0  0  0  0  0
   -0.7042  -12.7773    0.0000 C   0  0  0  0  0  0  0  0  0  0  0  0
   -0.2146  -13.4528    0.0000 C   0  0  0  0  0  0  0  0  0  0  0  0
    0.5792  -13.1958    0.0000 C   0  0  0  0  0  0  0  0  0  0  0  0
    0.5801  -12.3614    0.0000 C   0  0  0  0  0  0  0  0  0  0  0  0
   -0.2132  -12.1028    0.0000 C   0  0  0  0  0  0  0  0  0  0  0  0
   -0.4505  -14.9056    0.0000 C   0  0  0  0  0  0  0  0  0  0  0  0
    0.3558  -15.0784    0.0000 C   0  0  0  0  0  0  0  0  0  0  0  0
    0.6051  -15.8652    0.0000 C   0  0  0  0  0  0  0  0  0  0  0  0
    1.4105  -16.0381    0.0000 C   0  0  0  0  0  0  0  0  0  0  0  0
    1.9641  -15.4261    0.0000 C   0  0  0  0  0  0  0  0  0  0  0  0
    1.7068  -14.6383    0.0000 C   0  0  0  0  0  0  0  0  0  0  0  0
    0.9020  -14.4690    0.0000 C   0  0  0  0  0  0  0  0  0  0  0  0
    2.7704  -15.5978    0.0000 Cl  0  0  0  0  0  0  0  0  0  0  0  0
   -3.6346  -12.6256    0.0000 F   0  0  0  0  0  0  0  0  0  0  0  0
    1.2457  -13.6812    0.0000 C   0  0  0  0  0  0  0  0  0  0  0  0
    1.9992  -13.3466    0.0000 C   0  0  0  0  0  0  0  0  0  0  0  0
    2.6659  -13.8319    0.0000 O   0  0  0  0  0  0  0  0  0  0  0  0
    2.0864  -12.5267    0.0000 O   0  0  0  0  0  0  0  0  0  0  0  0
   -2.2070  -15.1016    0.0000 S   0  0  0  0  0  0  0  0  0  0  0  0
   -1.3867  -15.0989    0.0000 O   0  0  0  0  0  0  0  0  0  0  0  0
   -3.0356  -15.0989    0.0000 O   0  0  0  0  0  0  0  0  0  0  0  0
   -2.2153  -15.9234    0.0000 C   0  0  0  0  0  0  0  0  0  0  0  0
  3  6  2  0
 13 14  1  0
  6  7  1  0
 14 15  2  0
  7  9  1  0
 15 16  1  0
  8  5  1  0
 16 17  2  0
  8  9  2  0
 17 18  1  0
  1  2  2  0
 18 19  2  0
 19 14  1  0
  5  4  2  0
 17 20  1  0
  4  1  1  0
  1 21  1  0
  5  6  1  0
 10 22  1  6
 22 23  1  0
  9 10  1  0
 23 24  1  0
 10 11  1  0
 23 25  2  0
 11 12  1  0
  3 26  1  0
 12  8  1  0
 26 27  2  0
  2  3  1  0
 26 28  2  0
  7 13  1  0
 26 29  1  0
M  END
> <chembl_id>
CHEMBL426559

> <chembl_pref_name>
LAROPIPRANT
