
     RDKit          2D

 14 13  0  0  1  0  0  0  0  0999 V2000
    3.3167    0.3083    0.0000 C   0  0  0  0  0  0  0  0  0  0  0  0
   -3.2708   -0.2292    0.0000 C   0  0  0  0  0  0  0  0  0  0  0  0
   -2.3208    0.3083    0.0000 C   0  0  0  0  0  0  0  0  0  0  0  0
    2.3792   -0.2292    0.0000 C   0  0  0  0  0  0  0  0  0  0  0  0
    3.3167    1.3958    0.0000 O   0  0  0  0  0  0  0  0  0  0  0  0
   -3.2708   -1.3167    0.0000 O   0  0  0  0  0  0  0  0  0  0  0  0
   -1.3833   -0.2292    0.0000 C   0  0  0  0  0  0  0  0  0  0  0  0
    1.4375    0.3083    0.0000 C   0  0  0  0  0  0  0  0  0  0  0  0
   -2.3208    1.3958    0.0000 N   0  0  0  0  0  0  0  0  0  0  0  0
    2.3792   -1.3167    0.0000 N   0  0  0  0  0  0  0  0  0  0  0  0
   -0.4458    0.3083    0.0000 S   0  0  0  0  0  0  0  0  0  0  0  0
    0.5000   -0.2292    0.0000 S   0  0  0  0  0  0  0  0  0  0  0  0
   -4.2083    0.3083    0.0000 O   0  0  0  0  0  0  0  0  0  0  0  0
    4.2625   -0.2292    0.0000 O   0  0  0  0  0  0  0  0  0  0  0  0
  2  3  1  0
  3  7  1  0
  4  1  1  0
  5  1  2  0
  6  2  2  0
  7 11  1  0
  8  4  1  0
  3  9  1  1
  4 10  1  1
 11 12  1  0
 12  8  1  0
 13  2  1  0
 14  1  1  0
M  END
> <chembl_id>
CHEMBL590540

> <chembl_pref_name>
CYSTINE
