
     RDKit          2D

 27 30  0  0  0  0  0  0  0  0999 V2000
   18.8187   -2.4342    0.0000 C   0  0  0  0  0  0  0  0  0  0  0  0
   19.0318   -1.5818    0.0000 C   0  0  0  0  0  0  0  0  0  0  0  0
   19.5189   -0.3033    0.0000 N   0  0  0  0  0  0  0  0  0  0  0  0
   18.1795   -1.8406    0.0000 O   0  0  0  0  0  0  0  0  0  0  0  0
   19.8537   -1.0948    0.0000 C   0  0  0  0  0  0  0  0  0  0  0  0
   19.5189   -1.9471    0.0000 C   0  0  0  0  0  0  0  0  0  0  0  0
   21.6497   -3.2256    0.0000 C   0  0  0  0  0  0  0  0  0  0  0  0
   22.3651   -3.6518    0.0000 C   0  0  0  0  0  0  0  0  0  0  0  0
   20.2799   -2.2363    0.0000 C   0  0  0  0  0  0  0  0  0  0  0  0
   20.6452   -1.3535    0.0000 C   0  0  0  0  0  0  0  0  0  0  0  0
   20.9648   -1.9928    0.0000 C   0  0  0  0  0  0  0  0  0  0  0  0
   21.6649   -2.4037    0.0000 O   0  0  0  0  0  0  0  0  0  0  0  0
   20.9496   -3.6366    0.0000 O   0  0  0  0  0  0  0  0  0  0  0  0
   23.0804   -3.2256    0.0000 C   0  0  0  0  0  0  0  0  0  0  0  0
   18.8035    0.1837    0.0000 C   0  0  0  0  0  0  0  0  0  0  0  0
   20.0059    0.4273    0.0000 C   0  0  0  0  0  0  0  0  0  0  0  0
   22.3651   -4.4737    0.0000 C   0  0  0  0  0  0  0  0  0  0  0  0
   23.0804   -4.8847    0.0000 O   0  0  0  0  0  0  0  0  0  0  0  0
   23.0804   -2.4037    0.0000 C   0  0  0  0  0  0  0  0  0  0  0  0
   23.7958   -3.6366    0.0000 C   0  0  0  0  0  0  0  0  0  0  0  0
   24.5112   -3.2256    0.0000 C   0  0  0  0  0  0  0  0  0  0  0  0
   23.7958   -1.9928    0.0000 C   0  0  0  0  0  0  0  0  0  0  0  0
   24.5112   -2.3885    0.0000 C   0  0  0  0  0  0  0  0  0  0  0  0
   18.3469   -3.1191    0.0000 H   0  0  0  0  0  0  0  0  0  0  0  0
   18.6969   -0.8208    0.0000 H   0  0  0  0  0  0  0  0  0  0  0  0
   19.5189   -2.8147    0.0000 H   0  0  0  0  0  0  0  0  0  0  0  0
   20.4930   -0.4099    0.0000 H   0  0  0  0  0  0  0  0  0  0  0  0
  2  1  1  0
  3  6  1  0
  4  1  1  0
  5  2  1  0
  6  1  1  0
  7 12  1  0
  8  7  1  0
  9  6  1  0
 10  5  1  0
 11  9  1  0
 11 12  1  6
 13  7  2  0
 14  8  1  0
 15  3  1  0
 16  3  1  0
  8 17  1  1
 18 17  1  0
 19 14  2  0
 20 14  1  0
 21 20  2  0
 22 19  1  0
 23 22  2  0
  1 24  1  6
  2 25  1  6
  6 26  1  1
  5 27  1  6
  4  2  1  0
  3  5  1  0
 11 10  1  0
 23 21  1  0
M  CHG  1   3   1
M  END
> <chembl_id>
CHEMBL376897

> <chembl_pref_name>
METHSCOPOLAMINE
