
     RDKit          2D

 10  9  0  0  0  0  0  0  0  0999 V2000
    0.2292   -0.0292    0.0000 C   0  0  0  0  0  0  0  0  0  0  0  0
    0.2542    0.6792    0.0000 O   0  0  0  0  0  0  0  0  0  0  0  0
    2.0292   -1.1583    0.0000 O   0  0  0  0  0  0  0  0  0  0  0  0
    2.0542   -0.4458    0.0000 C   0  0  0  0  0  0  0  0  0  0  0  0
    0.8250   -0.4042    0.0000 C   0  0  0  0  0  0  0  0  0  0  0  0
    1.4542   -0.0708    0.0000 C   0  0  0  0  0  0  0  0  0  0  0  0
   -0.4000   -0.3542    0.0000 O   0  0  0  0  0  0  0  0  0  0  0  0
    3.2833   -0.4958    0.0000 N   0  0  0  0  0  0  0  0  0  0  0  0
    2.6875   -0.1167    0.0000 C   0  0  0  0  0  0  0  0  0  0  0  0
   -1.0000    0.0208    0.0000 C   0  0  0  0  0  0  0  0  0  0  0  0
  2  1  2  0
  3  4  2  0
  4  6  1  0
  5  1  1  0
  6  5  1  0
  7  1  1  0
  8  9  1  0
  9  4  1  0
 10  7  1  0
M  END
> <chembl_id>
CHEMBL1096562

> <chembl_pref_name>
METHYL AMINOLEVULINATE
