
     RDKit          2D

 14 14  0  0  0  0  0  0  0  0999 V2000
    0.6417   -1.7042    0.0000 C   0  0  0  0  0  0  0  0  0  0  0  0
   -2.1583   -1.2667    0.0000 N   0  0  0  0  0  0  0  0  0  0  0  0
    1.4000   -1.4292    0.0000 N   0  0  0  0  0  0  0  0  0  0  0  0
    0.0167   -1.2000    0.0000 N   0  0  0  0  0  0  0  0  0  0  0  0
    0.5125   -2.5000    0.0000 N   0  0  0  0  0  0  0  0  0  0  0  0
   -0.7333   -1.4917    0.0000 C   0  0  0  0  0  0  0  0  0  0  0  0
   -1.3833   -0.9792    0.0000 C   0  0  0  0  0  0  0  0  0  0  0  0
   -2.1583   -2.0792    0.0000 C   0  0  0  0  0  0  0  0  0  0  0  0
   -2.7333   -0.7000    0.0000 C   0  0  0  0  0  0  0  0  0  0  0  0
   -2.7333   -2.6542    0.0000 C   0  0  0  0  0  0  0  0  0  0  0  0
   -3.5500   -0.7000    0.0000 C   0  0  0  0  0  0  0  0  0  0  0  0
   -3.5458   -2.6542    0.0000 C   0  0  0  0  0  0  0  0  0  0  0  0
   -4.1333   -1.2792    0.0000 C   0  0  0  0  0  0  0  0  0  0  0  0
   -4.1333   -2.0792    0.0000 C   0  0  0  0  0  0  0  0  0  0  0  0
  2  7  1  0
  3  1  2  0
  4  1  1  0
  5  1  1  0
  6  4  1  0
  7  6  1  0
  8  2  1  0
  9  2  1  0
 10  8  1  0
 11  9  1  0
 12 10  1  0
 13 11  1  0
 14 13  1  0
 12 14  1  0
M  END
> <chembl_id>
CHEMBL765

> <chembl_pref_name>
GUANETHIDINE
