
     RDKit          2D

 25 28  0  0  0  0  0  0  0  0999 V2000
   -1.0539    0.6446    0.0000 C   0  0  0  0  0  0  0  0  0  0  0  0
   -1.7465   -0.8328    0.0000 C   0  0  0  0  0  0  0  0  0  0  0  0
   -1.0249   -0.4309    0.0000 C   0  0  0  0  0  0  0  0  0  0  0  0
   -0.3172   -0.8507    0.0000 C   0  0  0  0  0  0  0  0  0  0  0  0
   -0.3285   -1.6756    0.0000 C   0  0  0  0  0  0  0  0  0  0  0  0
    0.3820   -2.0987    0.0000 C   0  0  0  0  0  0  0  0  0  0  0  0
    0.3708   -2.9237    0.0000 C   0  0  0  0  0  0  0  0  0  0  0  0
   -0.3508   -3.3257    0.0000 C   0  0  0  0  0  0  0  0  0  0  0  0
   -1.0585   -2.9059    0.0000 C   0  0  0  0  0  0  0  0  0  0  0  0
   -1.0474   -2.0809    0.0000 C   0  0  0  0  0  0  0  0  0  0  0  0
   -1.7544   -1.6551    0.0000 O   0  0  0  0  0  0  0  0  0  0  0  0
   -2.5164   -0.5411    0.0000 O   0  0  0  0  0  0  0  0  0  0  0  0
    0.4043   -0.4488    0.0000 O   0  0  0  0  0  0  0  0  0  0  0  0
   -2.5785    2.5375    0.0000 C   0  0  0  0  0  0  0  0  0  0  0  0
   -2.5662    1.7143    0.0000 C   0  0  0  0  0  0  0  0  0  0  0  0
   -3.2734    1.2927    0.0000 C   0  0  0  0  0  0  0  0  0  0  0  0
   -3.9929    1.6944    0.0000 C   0  0  0  0  0  0  0  0  0  0  0  0
   -4.7021    1.2691    0.0000 C   0  0  0  0  0  0  0  0  0  0  0  0
   -5.4216    1.6707    0.0000 C   0  0  0  0  0  0  0  0  0  0  0  0
   -5.4319    2.4977    0.0000 C   0  0  0  0  0  0  0  0  0  0  0  0
   -4.7248    2.9192    0.0000 C   0  0  0  0  0  0  0  0  0  0  0  0
   -4.0052    2.5176    0.0000 C   0  0  0  0  0  0  0  0  0  0  0  0
   -3.2981    2.9391    0.0000 O   0  0  0  0  0  0  0  0  0  0  0  0
   -1.8714    2.9591    0.0000 O   0  0  0  0  0  0  0  0  0  0  0  0
   -3.2776    0.3363    0.0000 O   0  0  0  0  0  0  0  0  0  0  0  0
  2  3  1  0
  3  4  2  0
  4  5  1  0
  5  6  1  0
  6  7  2  0
  7  8  1  0
  8  9  2  0
  9 10  1  0
  5 10  2  0
 10 11  1  0
  2 11  1  0
  2 12  2  0
  4 13  1  0
  1  3  1  0
 14 15  1  0
 15 16  2  0
 16 17  1  0
 17 18  1  0
 18 19  2  0
 19 20  1  0
 20 21  2  0
 21 22  1  0
 17 22  2  0
 22 23  1  0
 14 23  1  0
 14 24  2  0
 16 25  1  0
  1 15  1  0
M  END
> <chembl_id>
CHEMBL1466

> <chembl_pref_name>
DICUMAROL
