
     RDKit          2D

 17 17  0  0  0  0  0  0  0  0999 V2000
    1.7692   -1.5642    0.0000 O   0  0  0  0  0  0  0  0  0  0  0  0
    1.3567   -0.8497    0.0000 P   0  0  0  0  0  0  0  0  0  0  0  0
    2.0711   -0.4372    0.0000 O   0  0  0  0  0  0  0  0  0  0  0  0
    0.6422   -1.2622    0.0000 O   0  0  0  0  0  0  0  0  0  0  0  0
    0.9442   -0.1353    0.0000 C   0  0  0  0  0  0  0  0  0  0  0  0
    1.6586    0.2772    0.0000 O   0  0  0  0  0  0  0  0  0  0  0  0
    0.5317    0.5792    0.0000 P   0  0  0  0  0  0  0  0  0  0  0  0
    1.2461    0.9917    0.0000 O   0  0  0  0  0  0  0  0  0  0  0  0
   -0.1828    0.1667    0.0000 O   0  0  0  0  0  0  0  0  0  0  0  0
    0.1192    1.2937    0.0000 O   0  0  0  0  0  0  0  0  0  0  0  0
    0.2297   -0.5478    0.0000 C   0  0  0  0  0  0  0  0  0  0  0  0
    0.2297   -1.3728    0.0000 C   0  0  0  0  0  0  0  0  0  0  0  0
    0.9442   -1.7853    0.0000 C   0  0  0  0  0  0  0  0  0  0  0  0
    0.9442   -2.6103    0.0000 C   0  0  0  0  0  0  0  0  0  0  0  0
    0.2297   -3.0228    0.0000 C   0  0  0  0  0  0  0  0  0  0  0  0
   -0.4848   -2.6103    0.0000 N   0  0  0  0  0  0  0  0  0  0  0  0
   -0.4848   -1.7853    0.0000 C   0  0  0  0  0  0  0  0  0  0  0  0
  1  2  1  0
  3  2  2  0
  4  2  1  0
  5  2  1  0
  5  6  1  0
  5  7  1  0
 11  5  1  0
  8  7  1  0
  9  7  1  0
 10  7  2  0
 12 11  1  0
 13 12  2  0
 12 17  1  0
 13 14  1  0
 15 14  2  0
 15 16  1  0
 17 16  2  0
M  END
> <chembl_id>
CHEMBL923

> <chembl_pref_name>
RISEDRONIC ACID
