
     RDKit          2D

 32 34  0  0  1  0  0  0  0  0999 V2000
    3.6292   -9.8125    0.0000 N   0  0  0  0  0  0  0  0  0  0  0  0
    4.0375  -10.3917    0.0000 C   0  0  0  0  0  0  0  0  0  0  0  0
    3.6250   -9.1042    0.0000 C   0  0  0  0  0  0  0  0  0  0  0  0
    2.9417  -10.0250    0.0000 C   0  0  0  0  0  0  0  0  0  0  0  0
    3.6125  -10.9542    0.0000 C   0  0  0  0  0  0  0  0  0  0  0  0
    4.7417  -10.4042    0.0000 C   0  0  0  0  0  0  0  0  0  0  0  0
    2.3917   -9.1125    0.0000 N   0  0  0  0  0  0  0  0  0  0  0  0
    2.9417  -10.7292    0.0000 C   0  0  0  0  0  0  0  0  0  0  0  0
    3.0042   -8.7542    0.0000 C   0  0  0  0  0  0  0  0  0  0  0  0
    1.7750   -8.0542    0.0000 C   0  0  0  0  0  0  0  0  0  0  0  0
    1.7792   -8.7625    0.0000 C   0  0  0  0  0  0  0  0  0  0  0  0
    4.2292   -8.7417    0.0000 O   0  0  0  0  0  0  0  0  0  0  0  0
    5.1042   -9.7917    0.0000 O   0  0  0  0  0  0  0  0  0  0  0  0
    2.3792   -7.6917    0.0000 O   0  0  0  0  0  0  0  0  0  0  0  0
    1.1667   -9.1167    0.0000 C   0  0  0  0  0  0  0  0  0  0  0  0
    5.0875  -11.0250    0.0000 O   0  0  0  0  0  0  0  0  0  0  0  0
    1.1542   -7.7042    0.0000 O   0  0  0  0  0  0  0  0  0  0  0  0
    0.5542   -8.7667    0.0000 C   0  0  0  0  0  0  0  0  0  0  0  0
    2.2792   -9.8042    0.0000 C   0  0  0  0  0  0  0  0  0  0  0  0
   -0.0625   -9.1167    0.0000 C   0  0  0  0  0  0  0  0  0  0  0  0
    2.2667  -10.9417    0.0000 C   0  0  0  0  0  0  0  0  0  0  0  0
    1.8542  -10.3667    0.0000 C   0  0  0  0  0  0  0  0  0  0  0  0
    3.0000   -8.0417    0.0000 C   0  0  0  0  0  0  0  0  0  0  0  0
    0.5417   -8.0625    0.0000 C   0  0  0  0  0  0  0  0  0  0  0  0
   -0.0583   -9.8250    0.0000 C   0  0  0  0  0  0  0  0  0  0  0  0
   -0.6708   -8.7625    0.0000 C   0  0  0  0  0  0  0  0  0  0  0  0
   -0.0708   -7.7125    0.0000 C   0  0  0  0  0  0  0  0  0  0  0  0
   -0.6708  -10.1792    0.0000 C   0  0  0  0  0  0  0  0  0  0  0  0
   -1.2833   -9.1167    0.0000 C   0  0  0  0  0  0  0  0  0  0  0  0
   -1.2833   -9.8250    0.0000 C   0  0  0  0  0  0  0  0  0  0  0  0
    2.9417   -9.3167    0.0000 H   0  0  0  0  0  0  0  0  0  0  0  0
    2.9375  -11.4417    0.0000 H   0  0  0  0  0  0  0  0  0  0  0  0
  2  1  1  0
  3  1  1  0
  4  1  1  0
  5  2  1  0
  2  6  1  6
  7  9  1  0
  8  4  1  0
  9  3  1  0
 11 10  1  1
 11  7  1  0
 12  3  2  0
 13  6  2  0
 14 10  2  0
 15 11  1  0
 16  6  1  0
 17 10  1  0
 18 15  1  0
 19  4  1  0
 20 18  1  0
 21  8  1  0
 22 19  1  0
  9 23  1  1
 24 17  1  0
 25 20  1  0
 26 20  2  0
 27 24  1  0
 28 25  2  0
 29 26  1  0
 30 29  2  0
  4 31  1  1
  8 32  1  1
  5  8  1  0
 21 22  1  0
 30 28  1  0
M  END
> <chembl_id>
CHEMBL1168

> <chembl_pref_name>
RAMIPRIL
