
     RDKit          2D

 28 31  0  0  0  0  0  0  0  0999 V2000
   -0.8571    1.2819    0.0000 N   0  0  0  0  0  0  0  0  0  0  0  0
   -1.6004    0.9239    0.0000 C   0  0  0  0  0  0  0  0  0  0  0  0
   -1.7840    0.1196    0.0000 C   0  0  0  0  0  0  0  0  0  0  0  0
   -1.2696   -0.5254    0.0000 C   0  0  0  0  0  0  0  0  0  0  0  0
   -0.4447   -0.5254    0.0000 N   0  0  0  0  0  0  0  0  0  0  0  0
    0.0697    0.1196    0.0000 C   0  0  0  0  0  0  0  0  0  0  0  0
   -0.1138    0.9239    0.0000 C   0  0  0  0  0  0  0  0  0  0  0  0
   -2.5724   -0.1236    0.0000 C   0  0  0  0  0  0  0  0  0  0  0  0
   -3.1772    0.4375    0.0000 C   0  0  0  0  0  0  0  0  0  0  0  0
   -2.9936    1.2418    0.0000 C   0  0  0  0  0  0  0  0  0  0  0  0
   -2.2052    1.4850    0.0000 C   0  0  0  0  0  0  0  0  0  0  0  0
   -1.6276   -1.2687    0.0000 C   0  0  0  0  0  0  0  0  0  0  0  0
   -2.4503   -1.3303    0.0000 N   0  0  0  0  0  0  0  0  0  0  0  0
   -2.8083   -2.0736    0.0000 C   0  0  0  0  0  0  0  0  0  0  0  0
   -2.3435   -2.7553    0.0000 C   0  0  0  0  0  0  0  0  0  0  0  0
   -1.5209   -2.6937    0.0000 C   0  0  0  0  0  0  0  0  0  0  0  0
   -1.1629   -1.9504    0.0000 C   0  0  0  0  0  0  0  0  0  0  0  0
   -0.7464    2.0994    0.0000 C   0  0  0  0  0  0  0  0  0  0  0  0
    0.0653    2.2467    0.0000 C   0  0  0  0  0  0  0  0  0  0  0  0
    0.4563    1.5202    0.0000 N   0  0  0  0  0  0  0  0  0  0  0  0
   -1.3595    2.6514    0.0000 C   0  0  0  0  0  0  0  0  0  0  0  0
   -3.9474    0.1419    0.0000 Br  0  0  0  0  0  0  0  0  0  0  0  0
    0.8740   -0.0639    0.0000 C   0  0  0  0  0  0  0  0  0  0  0  0
    1.0756   -0.8639    0.0000 C   0  0  0  0  0  0  0  0  0  0  0  0
    1.8799   -1.0475    0.0000 C   0  0  0  0  0  0  0  0  0  0  0  0
    2.4411   -0.4427    0.0000 O   0  0  0  0  0  0  0  0  0  0  0  0
    2.1231   -1.8358    0.0000 O   0  0  0  0  0  0  0  0  0  0  0  0
    2.9167   -2.0612    0.0000 C   0  0  0  0  0  0  0  0  0  0  0  0
  1  2  1  0
  2  3  1  0
  3  4  1  0
  4  5  2  0
  5  6  1  0
  6  7  1  0
  7  1  1  0
  8  9  1  0
  9 10  2  0
 10 11  1  0
  2 11  2  0
  3  8  2  0
 12 13  2  0
 13 14  1  0
 14 15  2  0
 15 16  1  0
 16 17  2  0
 12 17  1  0
 18 19  2  0
 19 20  1  0
  7 20  2  0
  1 18  1  0
 18 21  1  0
  9 22  1  0
  4 12  1  0
  6 23  1  6
 23 24  1  0
 24 25  1  0
 25 26  2  0
 25 27  1  0
 27 28  1  0
M  END
> <chembl_id>
CHEMBL4297526

> <chembl_pref_name>
REMIMAZOLAM
