
     RDKit          2D

 27 30  0  0  0  0  0  0  0  0999 V2000
   -0.0833    1.7208    0.0000 C   0  0  0  0  0  0  0  0  0  0  0  0
   -0.8958    2.1875    0.0000 N   0  0  0  0  0  0  0  0  0  0  0  0
   -0.8958    0.3208    0.0000 C   0  0  0  0  0  0  0  0  0  0  0  0
    0.7167    2.1875    0.0000 N   0  0  0  0  0  0  0  0  0  0  0  0
   -0.0833    0.7833    0.0000 C   0  0  0  0  0  0  0  0  0  0  0  0
   -1.7083    0.7833    0.0000 C   0  0  0  0  0  0  0  0  0  0  0  0
   -1.7000    1.7208    0.0000 C   0  0  0  0  0  0  0  0  0  0  0  0
    2.3417    3.1208    0.0000 N   0  0  0  0  0  0  0  0  0  0  0  0
   -0.8958   -0.6167    0.0000 C   0  0  0  0  0  0  0  0  0  0  0  0
    0.7167    3.1208    0.0000 C   0  0  0  0  0  0  0  0  0  0  0  0
    1.5292    1.7208    0.0000 C   0  0  0  0  0  0  0  0  0  0  0  0
   -1.7083   -1.0792    0.0000 C   0  0  0  0  0  0  0  0  0  0  0  0
   -0.0875   -1.0792    0.0000 C   0  0  0  0  0  0  0  0  0  0  0  0
    1.5292    3.5875    0.0000 C   0  0  0  0  0  0  0  0  0  0  0  0
    2.3375    2.1833    0.0000 C   0  0  0  0  0  0  0  0  0  0  0  0
   -0.9000   -2.4792    0.0000 C   0  0  0  0  0  0  0  0  0  0  0  0
   -0.0875   -2.0167    0.0000 C   0  0  0  0  0  0  0  0  0  0  0  0
   -1.7125   -2.0167    0.0000 C   0  0  0  0  0  0  0  0  0  0  0  0
   -0.9083   -3.4167    0.0000 F   0  0  0  0  0  0  0  0  0  0  0  0
   -2.3625    0.1250    0.0000 C   0  0  0  0  0  0  0  0  0  0  0  0
    3.1500    3.5958    0.0000 C   0  0  0  0  0  0  0  0  0  0  0  0
   -2.3625    2.3833    0.0000 C   0  0  0  0  0  0  0  0  0  0  0  0
    3.9542    3.1250    0.0000 C   0  0  0  0  0  0  0  0  0  0  0  0
   -3.3000    0.1250    0.0000 C   0  0  0  0  0  0  0  0  0  0  0  0
   -3.3000    2.3833    0.0000 C   0  0  0  0  0  0  0  0  0  0  0  0
   -3.9625    0.7833    0.0000 C   0  0  0  0  0  0  0  0  0  0  0  0
   -3.9625    1.7208    0.0000 C   0  0  0  0  0  0  0  0  0  0  0  0
  2  1  2  0
  3  5  2  0
  4  1  1  0
  5  1  1  0
  6  3  1  0
  7  2  1  0
  8 15  1  0
  9  3  1  0
 10  4  1  0
 11  4  1  0
 12  9  2  0
 13  9  1  0
 14 10  1  0
 15 11  1  0
 16 17  1  0
 17 13  2  0
 18 12  1  0
 19 16  1  0
 20  6  1  0
 21  8  1  0
 22  7  1  0
 23 21  1  0
 24 20  1  0
 25 22  1  0
 26 24  1  0
 27 25  1  0
  7  6  2  0
 14  8  1  0
 18 16  2  0
 27 26  1  0
M  END
> <chembl_id>
CHEMBL178803

> <chembl_pref_name>
BLONANSERIN
