
     RDKit          2D

 40 39  0  0  0  0  0  0  0  0999 V2000
   -1.5583   -3.5250    0.0000 O   0  0  0  0  0  0  0  0  0  0  0  0
    0.4542   -0.0792    0.0000 O   0  0  0  0  0  0  0  0  0  0  0  0
    1.1167    1.0583    0.0000 O   0  0  0  0  0  0  0  0  0  0  0  0
    0.2250   -0.7417    0.0000 O   0  0  0  0  0  0  0  0  0  0  0  0
    1.5667    1.5708    0.0000 O   0  0  0  0  0  0  0  0  0  0  0  0
   -0.2208   -1.2375    0.0000 O   0  0  0  0  0  0  0  0  0  0  0  0
   -0.4500   -1.8792    0.0000 O   0  0  0  0  0  0  0  0  0  0  0  0
   -0.8875   -2.3917    0.0000 O   0  0  0  0  0  0  0  0  0  0  0  0
   -1.1208   -3.0292    0.0000 O   0  0  0  0  0  0  0  0  0  0  0  0
    0.9042    0.4125    0.0000 O   0  0  0  0  0  0  0  0  0  0  0  0
   -1.3458   -3.4000    0.0000 C   0  0  0  0  0  0  0  0  0  0  0  0
   -1.3458   -3.1542    0.0000 C   0  0  0  0  0  0  0  0  0  0  0  0
    1.3667    1.4375    0.0000 C   0  0  0  0  0  0  0  0  0  0  0  0
    0.0000   -1.1042    0.0000 C   0  0  0  0  0  0  0  0  0  0  0  0
    0.9042    0.6833    0.0000 C   0  0  0  0  0  0  0  0  0  0  0  0
    0.4542   -0.3375    0.0000 C   0  0  0  0  0  0  0  0  0  0  0  0
   -0.2208   -1.4917    0.0000 C   0  0  0  0  0  0  0  0  0  0  0  0
   -0.4500   -1.6292    0.0000 C   0  0  0  0  0  0  0  0  0  0  0  0
    1.1167    0.7958    0.0000 C   0  0  0  0  0  0  0  0  0  0  0  0
   -0.6625   -2.0042    0.0000 C   0  0  0  0  0  0  0  0  0  0  0  0
   -0.6625   -2.2542    0.0000 C   0  0  0  0  0  0  0  0  0  0  0  0
    0.2250   -0.4792    0.0000 C   0  0  0  0  0  0  0  0  0  0  0  0
   -0.8875   -2.6500    0.0000 C   0  0  0  0  0  0  0  0  0  0  0  0
   -1.1208   -2.7542    0.0000 C   0  0  0  0  0  0  0  0  0  0  0  0
    0.6792    0.2833    0.0000 C   0  0  0  0  0  0  0  0  0  0  0  0
    0.6792    0.0458    0.0000 C   0  0  0  0  0  0  0  0  0  0  0  0
    1.3667    1.1833    0.0000 C   0  0  0  0  0  0  0  0  0  0  0  0
    0.0000   -0.8667    0.0000 C   0  0  0  0  0  0  0  0  0  0  0  0
    1.1667    1.5708    0.0000 C   0  0  0  0  0  0  0  0  0  0  0  0
    0.9542    1.6958    0.0000 C   0  0  0  0  0  0  0  0  0  0  0  0
    0.0625    3.4708    0.0000 C   0  0  0  0  0  0  0  0  0  0  0  0
    0.0625    3.2208    0.0000 C   0  0  0  0  0  0  0  0  0  0  0  0
    0.2792    3.0958    0.0000 C   0  0  0  0  0  0  0  0  0  0  0  0
    0.5042    2.4625    0.0000 C   0  0  0  0  0  0  0  0  0  0  0  0
    0.9542    1.9375    0.0000 C   0  0  0  0  0  0  0  0  0  0  0  0
    0.5042    2.7083    0.0000 C   0  0  0  0  0  0  0  0  0  0  0  0
    0.7167    2.3333    0.0000 C   0  0  0  0  0  0  0  0  0  0  0  0
    0.2792    2.8375    0.0000 C   0  0  0  0  0  0  0  0  0  0  0  0
    0.7167    2.0625    0.0000 C   0  0  0  0  0  0  0  0  0  0  0  0
   -0.1625    3.5958    0.0000 C   0  0  0  0  0  0  0  0  0  0  0  0
  2 16  1  0
  3 19  1  0
  4 28  1  0
  5 13  1  0
  6 17  1  0
  7 20  1  0
  8 23  1  0
  9 12  1  0
 10 25  1  0
 11  1  1  0
 12 11  1  0
 13 27  1  0
 14  6  1  0
 15 10  1  0
 16 22  1  0
 17 18  1  0
 18  7  1  0
 19 15  1  0
 20 21  1  0
 21  8  1  0
 22  4  1  0
 23 24  1  0
 24  9  1  0
 25 26  1  0
 26  2  1  0
 27  3  1  0
 28 14  1  0
 29  5  1  0
 30 29  1  0
 31 32  1  0
 32 33  1  0
 33 38  1  0
 34 37  1  0
 35 30  1  0
 36 34  1  0
 37 39  1  0
 38 36  1  0
 39 35  1  0
 40 31  1  0
M  END
> <chembl_id>
CHEMBL1231723

> <chembl_pref_name>
POLIDOCANOL
