
     RDKit          2D

 46 48  0  0  0  0  0  0  0  0999 V2000
   -4.7732   -3.5063    0.0000 Na  0  0  0  0  0 15  0  0  0  0  0  0
    1.1772   -1.0509    0.0000 C   0  0  0  0  0  0  0  0  0  0  0  0
    2.0022   -1.0509    0.0000 C   0  0  0  0  0  0  0  0  0  0  0  0
    2.4147   -0.3364    0.0000 C   0  0  0  0  0  0  0  0  0  0  0  0
    2.0022    0.3781    0.0000 C   0  0  0  0  0  0  0  0  0  0  0  0
    1.1772    0.3781    0.0000 C   0  0  0  0  0  0  0  0  0  0  0  0
    0.7647    1.0926    0.0000 C   0  0  0  0  0  0  0  0  0  0  0  0
   -0.0603    1.0926    0.0000 C   0  0  0  0  0  0  0  0  0  0  0  0
   -0.4728    0.3781    0.0000 C   0  0  0  0  0  0  0  0  0  0  0  0
   -0.0603   -0.3364    0.0000 C   0  0  0  0  0  0  0  0  0  0  0  0
    0.7647   -0.3364    0.0000 C   0  0  0  0  0  0  0  0  0  0  0  0
   -0.4728   -1.0509    0.0000 C   0  0  0  0  0  0  0  0  0  0  0  0
   -1.2978   -1.0509    0.0000 C   0  0  0  0  0  0  0  0  0  0  0  0
   -1.7103   -0.3364    0.0000 C   0  0  0  0  0  0  0  0  0  0  0  0
   -1.2978    0.3781    0.0000 C   0  0  0  0  0  0  0  0  0  0  0  0
   -1.7103    1.0926    0.0000 C   0  0  0  0  0  0  0  0  0  0  0  0
   -2.5353    1.0926    0.0000 C   0  0  0  0  0  0  0  0  0  0  0  0
   -2.9478    0.3781    0.0000 C   0  0  0  0  0  0  0  0  0  0  0  0
   -2.5353   -0.3364    0.0000 C   0  0  0  0  0  0  0  0  0  0  0  0
    0.3522   -1.0509    0.0000 C   0  0  0  0  0  0  0  0  0  0  0  0
   -2.9478   -1.0509    0.0000 C   0  0  0  0  0  0  0  0  0  0  0  0
   -3.7728   -1.0509    0.0000 C   0  0  0  0  0  0  0  0  0  0  0  0
   -4.1853   -0.3364    0.0000 C   0  0  0  0  0  0  0  0  0  0  0  0
   -3.7728    0.3781    0.0000 C   0  0  0  0  0  0  0  0  0  0  0  0
    2.7019    0.8153    0.0000 C   0  0  0  0  0  0  0  0  0  0  0  0
    2.0310    1.2026    0.0000 C   0  0  0  0  0  0  0  0  0  0  0  0
   -0.8853    1.0926    0.0000 C   0  0  0  0  0  0  0  0  0  0  0  0
   -1.3840    1.1986    0.0000 C   0  0  0  0  0  0  0  0  0  0  0  0
   -3.3603    1.0926    0.0000 C   0  0  0  0  0  0  0  0  0  0  0  0
    3.6522    0.3781    0.0000 C   0  0  0  0  0  0  0  0  0  0  0  0
    4.4772    0.3781    0.0000 C   0  0  0  0  0  0  0  0  0  0  0  0
    4.8897    1.0926    0.0000 C   0  0  0  0  0  0  0  0  0  0  0  0
    5.7147    1.0926    0.0000 C   0  0  0  0  0  0  0  0  0  0  0  0
   -4.4724   -1.4880    0.0000 C   0  0  0  0  0  0  0  0  0  0  0  0
   -3.8016   -1.8754    0.0000 C   0  0  0  0  0  0  0  0  0  0  0  0
    3.2397   -0.3364    0.0000 O   0  0  0  0  0  0  0  0  0  0  0  0
   -0.0603   -1.7653    0.0000 O   0  0  0  0  0  0  0  0  0  0  0  0
    3.2397    1.0926    0.0000 O   0  0  0  0  0  0  0  0  0  0  0  0
    6.1272    1.8070    0.0000 O   0  0  0  0  0  0  0  0  0  0  0  0
    6.1272    0.3781    0.0000 O   0  0  0  0  0  0  0  0  0  0  0  0
   -5.2008   -1.1007    0.0000 O   0  0  0  0  0  0  0  0  0  0  0  0
   -4.4436   -2.3125    0.0000 O   0  0  0  0  0  0  0  0  0  0  0  0
   -2.0353   -1.2024    0.0000 H   0  0  0  0  0  0  0  0  0  0  0  0
    0.4397   -1.2024    0.0000 H   0  0  0  0  0  0  0  0  0  0  0  0
    1.6772    1.2441    0.0000 H   0  0  0  0  0  0  0  0  0  0  0  0
    6.8357   -0.7071    0.0000 Na  0  0  0  0  0 15  0  0  0  0  0  0
  2  3  1  0
  2 11  1  0
  3  4  1  0
  4  5  1  0
  4 36  1  1
  5  6  1  0
 25  5  1  0
 26  5  1  0
  6  7  1  0
 11  6  1  0
  7  8  1  0
  8  9  1  0
  9 10  1  0
 15  9  1  0
  9 27  1  1
 11 10  1  0
 10 12  1  0
 11 20  1  1
 12 13  1  0
 12 37  2  0
 13 14  2  0
 14 15  1  0
 19 14  1  0
 15 16  1  0
 15 28  1  6
 16 17  1  0
 17 18  1  0
 18 19  1  0
 18 24  1  0
 18 29  1  1
 19 21  1  0
 21 22  1  0
 22 23  1  0
 22 34  1  0
 22 35  1  6
 23 24  1  0
 30 31  1  0
 30 36  1  0
 30 38  2  0
 31 32  1  0
 32 33  1  0
 33 39  2  0
 33 40  1  0
 34 41  2  0
 34 42  1  0
 19 43  1  1
 10 44  1  6
  6 45  1  6
M  CHG  4   1   1  40  -1  42  -1  46   1
M  END
> <chembl_id>
CHEMBL1697717

> <chembl_pref_name>
CARBENOXOLONE SODIUM
