
     RDKit          2D

 37 38  0  0  0  0  0  0  0  0999 V2000
    8.1046   -3.8632    0.0000 O   0  0  0  0  0  0  0  0  0  0  0  0
    1.5699   -1.3571    0.0000 C   0  0  0  0  0  0  0  0  0  0  0  0
    2.2844   -1.7696    0.0000 C   0  0  0  0  0  0  0  0  0  0  0  0
    2.9989   -2.1821    0.0000 C   0  0  0  0  0  0  0  0  0  0  0  0
    2.9989   -3.0071    0.0000 C   0  0  0  0  0  0  0  0  0  0  0  0
    3.7134   -3.4196    0.0000 C   0  0  0  0  0  0  0  0  0  0  0  0
    3.7134   -4.2446    0.0000 N   0  0  0  0  0  0  0  0  0  0  0  0
    4.4278   -3.0071    0.0000 C   0  0  0  0  0  0  0  0  0  0  0  0
    4.4278   -2.1821    0.0000 C   0  0  0  0  0  0  0  0  0  0  0  0
    5.1423   -1.7696    0.0000 C   0  0  0  0  0  0  0  0  0  0  0  0
    5.1423   -0.9446    0.0000 C   0  0  0  0  0  0  0  0  0  0  0  0
    5.8568   -0.5321    0.0000 C   0  0  0  0  0  0  0  0  0  0  0  0
    8.0002   -0.9446    0.0000 C   0  0  0  0  0  0  0  0  0  0  0  0
    8.7147   -0.5321    0.0000 N   0  0  0  0  0  0  0  0  0  0  0  0
    8.0002   -1.7696    0.0000 C   0  0  0  0  0  0  0  0  0  0  0  0
    7.2857   -2.1821    0.0000 C   0  0  0  0  0  0  0  0  0  0  0  0
    6.5712   -1.7696    0.0000 C   0  0  0  0  0  0  0  0  0  0  0  0
    5.8568   -2.1821    0.0000 C   0  0  0  0  0  0  0  0  0  0  0  0
    3.7134   -1.7696    0.0000 C   0  0  0  0  0  0  0  0  0  0  0  0
    4.4278   -0.5321    0.0000 C   0  0  0  0  0  0  0  0  0  0  0  0
    3.7134   -0.9446    0.0000 O   0  0  0  0  0  0  0  0  0  0  0  0
    1.8719   -2.4841    0.0000 C   0  0  0  0  0  0  0  0  0  0  0  0
    2.6969   -1.0552    0.0000 C   0  0  0  0  0  0  0  0  0  0  0  0
    6.5712   -0.9446    0.0000 C   0  0  0  0  0  0  0  0  0  0  0  0
    7.2857   -0.5321    0.0000 C   0  0  0  0  0  0  0  0  0  0  0  0
    4.4278   -5.4821    0.0000 N   0  0  0  0  0  0  0  0  0  0  0  0
    4.4278   -4.6571    0.0000 C   0  0  0  0  0  0  0  0  0  0  0  0
    5.1423   -4.2446    0.0000 O   0  0  0  0  0  0  0  0  0  0  0  0
    3.7134   -6.7196    0.0000 O   0  0  0  0  0  0  0  0  0  0  0  0
    3.7134   -5.8946    0.0000 C   0  0  0  0  0  0  0  0  0  0  0  0
    2.9989   -5.4821    0.0000 C   0  0  0  0  0  0  0  0  0  0  0  0
    2.9989   -4.6571    0.0000 C   0  0  0  0  0  0  0  0  0  0  0  0
    8.7147    0.2929    0.0000 S   0  0  0  0  0  0  0  0  0  0  0  0
    8.7147    1.1179    0.0000 C   0  0  0  0  0  0  0  0  0  0  0  0
    9.5397    0.2929    0.0000 O   0  0  0  0  0  0  0  0  0  0  0  0
    7.8897    0.2929    0.0000 O   0  0  0  0  0  0  0  0  0  0  0  0
    8.0699   -5.3693    0.0000 Na  0  0  0  0  0 15  0  0  0  0  0  0
  2  3  1  0
  3 22  1  0
  4  3  1  0
  4 19  1  0
  5  4  2  0
  5  6  1  0
  6  8  2  0
  7  6  1  0
  7 27  1  0
  9 10  1  0
  9  8  1  0
 10 18  2  0
 11 10  1  0
 11 12  2  0
 12 24  1  0
 13 14  1  0
 13 15  1  0
 14 33  1  0
 16 15  2  0
 17 16  1  0
 18 17  1  0
 19  9  2  0
 21 20  1  0
 21 19  1  0
 23  3  1  0
 24 17  2  0
 24 25  1  0
 25 13  2  0
 26 27  1  0
 27 28  2  0
 29 30  2  0
 30 31  1  0
 30 26  1  0
 31 32  2  0
 32  7  1  0
 33 34  1  0
 33 35  2  0
 33 36  2  0
M  CHG  2  26  -1  37   1
M  END
> <chembl_id>
CHEMBL3544985

> <chembl_pref_name>
DASABUVIR SODIUM MONOHYDRATE
