
     RDKit          2D

 38 41  0  0  0  0  0  0  0  0999 V2000
   -0.8575   -2.6170    0.0000 C   0  0  0  0  0  0  0  0  0  0  0  0
   -1.6825   -2.6170    0.0000 C   0  0  0  0  0  0  0  0  0  0  0  0
   -0.4450   -3.3315    0.0000 C   0  0  0  0  0  0  0  0  0  0  0  0
   -2.0950   -3.3315    0.0000 C   0  0  0  0  0  0  0  0  0  0  0  0
   -2.9200   -3.3315    0.0000 O   0  0  0  0  0  0  0  0  0  0  0  0
   -1.6825   -4.0460    0.0000 O   0  0  0  0  0  0  0  0  0  0  0  0
    0.3800   -3.3315    0.0000 O   0  0  0  0  0  0  0  0  0  0  0  0
   -0.8575   -4.0460    0.0000 O   0  0  0  0  0  0  0  0  0  0  0  0
   -4.0651    0.3082    0.0000 C   0  0  0  0  0  0  0  0  0  0  0  0
   -4.0651    1.1332    0.0000 S   0  0  0  0  0  0  0  0  0  0  0  0
   -3.3507    1.5457    0.0000 C   0  0  0  0  0  0  0  0  0  0  0  0
   -2.6362    1.1333    0.0000 C   0  0  0  0  0  0  0  0  0  0  0  0
   -2.6362    0.3083    0.0000 N   0  0  0  0  0  0  0  0  0  0  0  0
   -3.3507   -0.1043    0.0000 C   0  0  0  0  0  0  0  0  0  0  0  0
   -1.9217   -0.1042    0.0000 C   0  0  0  0  0  0  0  0  0  0  0  0
   -1.2073    0.3083    0.0000 C   0  0  0  0  0  0  0  0  0  0  0  0
   -1.2073    1.1333    0.0000 C   0  0  0  0  0  0  0  0  0  0  0  0
   -0.4928    1.5458    0.0000 C   0  0  0  0  0  0  0  0  0  0  0  0
   -0.4928   -0.1042    0.0000 C   0  0  0  0  0  0  0  0  0  0  0  0
    0.2217    0.3083    0.0000 C   0  0  0  0  0  0  0  0  0  0  0  0
    0.2217    1.1333    0.0000 C   0  0  0  0  0  0  0  0  0  0  0  0
    1.6506    2.7833    0.0000 C   0  0  0  0  0  0  0  0  0  0  0  0
    0.9362    2.3708    0.0000 C   0  0  0  0  0  0  0  0  0  0  0  0
    0.9362    1.5458    0.0000 C   0  0  0  0  0  0  0  0  0  0  0  0
    1.6506    1.1333    0.0000 N   0  0  0  0  0  0  0  0  0  0  0  0
    2.3651    1.5458    0.0000 C   0  0  0  0  0  0  0  0  0  0  0  0
    2.3651    2.3708    0.0000 C   0  0  0  0  0  0  0  0  0  0  0  0
   -4.8896    1.1620    0.0000 O   0  0  0  0  0  0  0  0  0  0  0  0
   -4.5023    1.8329    0.0000 O   0  0  0  0  0  0  0  0  0  0  0  0
    1.8221    0.3263    0.0000 N   0  0  0  0  0  0  0  0  0  0  0  0
    2.6426    0.2401    0.0000 C   0  0  0  0  0  0  0  0  0  0  0  0
    2.9782    0.9937    0.0000 N   0  0  0  0  0  0  0  0  0  0  0  0
    3.0551   -0.4744    0.0000 N   0  0  0  0  0  0  0  0  0  0  0  0
    3.8801   -0.4744    0.0000 C   0  0  0  0  0  0  0  0  0  0  0  0
    4.2926    0.2401    0.0000 O   0  0  0  0  0  0  0  0  0  0  0  0
    4.2926   -1.1889    0.0000 C   0  0  0  0  0  0  0  0  0  0  0  0
    5.0071   -1.6014    0.0000 C   0  0  0  0  0  0  0  0  0  0  0  0
    4.2926   -2.0139    0.0000 C   0  0  0  0  0  0  0  0  0  0  0  0
  1  2  2  0
  1  3  1  0
  2  4  1  0
  4  5  2  0
  4  6  1  0
  3  7  2  0
  3  8  1  0
  9 10  1  0
 10 11  1  0
 11 12  1  0
 12 13  1  0
 13 14  1  0
  9 14  1  0
 15 16  1  0
 16 17  2  0
 13 15  1  0
 19 20  2  0
 20 21  1  0
 18 21  2  0
 16 19  1  0
 18 17  1  0
 22 23  1  0
 23 24  2  0
 24 25  1  0
 25 26  1  0
 26 27  1  0
 22 27  2  0
 10 28  2  0
 10 29  2  0
 21 24  1  0
 30 31  2  0
 31 32  1  0
 25 30  1  0
 26 32  2  0
 31 33  1  0
 33 34  1  0
 34 35  2  0
 34 36  1  0
 36 37  1  0
 37 38  1  0
 38 36  1  0
M  END
> <chembl_id>
CHEMBL4298167

> <chembl_pref_name>
FILGOTINIB MALEATE
