
     RDKit          2D

 10  9  0  0  0  0  0  0  0  0999 V2000
    3.8167    2.2125    0.0000 N   0  0  0  0  0  0  0  0  0  0  0  0
   -3.0208   -0.8542    0.0000 C   0  0  0  0  0  0  0  0  0  0  0  0
   -3.7375    0.3708    0.0000 O   0  0  0  0  0  0  0  0  0  0  0  0
   -1.5833   -0.8542    0.0000 C   0  0  0  0  0  0  0  0  0  0  0  0
   -3.7375   -2.1167    0.0000 O   0  0  0  0  0  0  0  0  0  0  0  0
   -0.8750   -2.1167    0.0000 C   0  0  0  0  0  0  0  0  0  0  0  0
   -0.8750    0.3708    0.0000 C   0  0  0  0  0  0  0  0  0  0  0  0
    0.5542    0.3708    0.0000 C   0  0  0  0  0  0  0  0  0  0  0  0
    0.5542   -2.1167    0.0000 C   0  0  0  0  0  0  0  0  0  0  0  0
    1.2792   -0.8542    0.0000 C   0  0  0  0  0  0  0  0  0  0  0  0
  3  2  2  0
  4  2  1  0
  5  2  1  0
  6  4  2  0
  7  4  1  0
  8  7  2  0
  9  6  1  0
 10  9  2  0
  8 10  1  0
M  END
> <chembl_id>
CHEMBL2105970

> <chembl_pref_name>
AMMONIUM BENZOATE
