
     RDKit          2D

 13 12  0  0  0  0  0  0  0  0999 V2000
    2.6167   -5.0000    0.0000 C   0  0  0  0  0  0  0  0  0  0  0  0
    7.5292   -5.0292    0.0000 C   0  0  0  0  0  0  0  0  0  0  0  0
    2.6167   -4.2917    0.0000 O   0  0  0  0  0  0  0  0  0  0  0  0
    7.5250   -4.3167    0.0000 O   0  0  0  0  0  0  0  0  0  0  0  0
    8.1417   -5.3750    0.0000 O   0  0  0  0  0  0  0  0  0  0  0  0
    2.0000   -5.3542    0.0000 O   0  0  0  0  0  0  0  0  0  0  0  0
    6.9167   -5.3875    0.0000 C   0  0  0  0  0  0  0  0  0  0  0  0
    3.2292   -5.3542    0.0000 C   0  0  0  0  0  0  0  0  0  0  0  0
    3.8500   -5.0000    0.0000 C   0  0  0  0  0  0  0  0  0  0  0  0
    6.2917   -5.0000    0.0000 C   0  0  0  0  0  0  0  0  0  0  0  0
    5.6792   -5.3542    0.0000 C   0  0  0  0  0  0  0  0  0  0  0  0
    4.4667   -5.3542    0.0000 C   0  0  0  0  0  0  0  0  0  0  0  0
    5.0667   -5.0000    0.0000 C   0  0  0  0  0  0  0  0  0  0  0  0
  2  7  1  0
  3  1  2  0
  4  2  2  0
  5  2  1  0
  6  1  1  0
  7 10  1  0
  8  1  1  0
  9  8  1  0
 10 11  1  0
 11 13  1  0
 12  9  1  0
 13 12  1  0
M  END
> <chembl_id>
CHEMBL1238

> <chembl_pref_name>
AZELAIC ACID
