
     RDKit          2D

 27 26  0  0  0  0  0  0  0  0999 V2000
    3.6917   -0.3417    0.0000 C   0  0  0  0  0  0  0  0  0  0  0  0
    1.1375   -2.0417    0.0000 C   0  0  0  0  0  0  0  0  0  0  0  0
   -2.5708    1.1208    0.0000 C   0  0  0  0  0  0  0  0  0  0  0  0
   -2.2375   -2.0250    0.0000 C   0  0  0  0  0  0  0  0  0  0  0  0
   -0.5458    2.8125    0.0000 C   0  0  0  0  0  0  0  0  0  0  0  0
    1.9667   -0.5875    0.0000 N   0  0  0  0  0  0  0  0  0  0  0  0
   -1.4125   -0.5667    0.0000 N   0  0  0  0  0  0  0  0  0  0  0  0
   -1.3958    2.3208    0.0000 O   0  0  0  0  0  0  0  0  0  0  0  0
    4.5500    0.1458    0.0000 O   0  0  0  0  0  0  0  0  0  0  0  0
    0.2917   -1.5542    0.0000 O   0  0  0  0  0  0  0  0  0  0  0  0
   -1.7208    1.6208    0.0000 O   0  0  0  0  0  0  0  0  0  0  0  0
   -2.2375   -3.0125    0.0000 O   0  0  0  0  0  0  0  0  0  0  0  0
    2.8542    0.1583    0.0000 C   0  0  0  0  0  0  0  0  0  0  0  0
    1.9625   -1.5542    0.0000 C   0  0  0  0  0  0  0  0  0  0  0  0
   -2.5708    0.1583    0.0000 C   0  0  0  0  0  0  0  0  0  0  0  0
   -1.4125   -1.5542    0.0000 C   0  0  0  0  0  0  0  0  0  0  0  0
    0.3000    1.3583    0.0000 N   0  0  0  0  0  0  0  0  0  0  0  0
    0.3000    2.3208    0.0000 C   0  0  0  0  0  0  0  0  0  0  0  0
    1.1250   -0.0917    0.0000 C   0  0  0  0  0  0  0  0  0  0  0  0
   -0.5625   -0.0917    0.0000 C   0  0  0  0  0  0  0  0  0  0  0  0
    3.6917   -1.0917    0.0000 O   0  0  0  0  0  0  0  0  0  0  0  0
   -3.4083    1.6208    0.0000 O   0  0  0  0  0  0  0  0  0  0  0  0
   -0.5250    3.7833    0.0000 O   0  0  0  0  0  0  0  0  0  0  0  0
   -3.0833   -1.5542    0.0000 O   0  0  0  0  0  0  0  0  0  0  0  0
    1.1375   -3.0042    0.0000 O   0  0  0  0  0  0  0  0  0  0  0  0
    1.1250    0.8833    0.0000 C   0  0  0  0  0  0  0  0  0  0  0  0
   -0.5625    0.8833    0.0000 C   0  0  0  0  0  0  0  0  0  0  0  0
  2 14  1  0
  3 15  1  0
  4 16  1  0
  5 18  1  0
  6 13  1  0
  7 20  1  0
  8  5  2  0
  9  1  2  0
 10  2  2  0
 11  3  2  0
 12  4  2  0
 13  1  1  0
 14  6  1  0
 15  7  1  0
 16  7  1  0
 17 26  1  0
 18 17  1  0
 19  6  1  0
 20 27  1  0
 21  1  1  0
 22  3  1  0
 23  5  1  0
 24  4  1  0
 25  2  1  0
 26 19  1  0
 27 17  1  0
M  END
> <chembl_id>
CHEMBL780

> <chembl_pref_name>
PENTETIC ACID
