
     RDKit          2D

  9  8  0  0  0  0  0  0  0  0999 V2000
   -0.4875   -6.9167    0.0000 C   0  0  0  0  0  0  0  0  0  0  0  0
   -0.8458   -6.3000    0.0000 C   0  0  0  0  0  0  0  0  0  0  0  0
   -0.1333   -7.5292    0.0000 C   0  0  0  0  0  0  0  0  0  0  0  0
    0.4792   -7.8917    0.0000 C   0  0  0  0  0  0  0  0  0  0  0  0
    1.0917   -7.5292    0.0000 C   0  0  0  0  0  0  0  0  0  0  0  0
    1.7042   -7.8917    0.0000 Cl  0  0  0  0  0  0  0  0  0  0  0  0
    0.2167   -6.9167    0.0000 O   0  0  0  0  0  0  0  0  0  0  0  0
   -0.7458   -7.8917    0.0000 C   0  0  0  0  0  0  0  0  0  0  0  0
   -1.3708   -7.5292    0.0000 C   0  0  0  0  0  0  0  0  0  0  0  0
  2  1  3  0
  3  1  1  0
  4  3  1  0
  5  4  2  0
  6  5  1  0
  7  3  1  0
  8  3  1  0
  9  8  1  0
M  END
> <chembl_id>
CHEMBL591

> <chembl_pref_name>
ETHCHLORVYNOL
