
     RDKit          2D

 27 30  0  0  0  0  0  0  0  0999 V2000
   -1.1786   -1.2080    0.0000 N   0  0  0  0  0  0  0  0  0  0  0  0
   -1.8930   -1.6205    0.0000 C   0  0  0  0  0  0  0  0  0  0  0  0
   -1.3097   -2.2039    0.0000 C   0  0  0  0  0  0  0  0  0  0  0  0
   -0.5952   -1.7914    0.0000 C   0  0  0  0  0  0  0  0  0  0  0  0
    0.2017   -2.0049    0.0000 C   0  0  0  0  0  0  0  0  0  0  0  0
   -0.2108   -1.2905    0.0000 C   0  0  0  0  0  0  0  0  0  0  0  0
   -1.1786   -0.3830    0.0000 C   0  0  0  0  0  0  0  0  0  0  0  0
   -0.3536   -0.3830    0.0000 C   0  0  0  0  0  0  0  0  0  0  0  0
   -2.6075   -2.0330    0.0000 C   0  0  0  0  0  0  0  0  0  0  0  0
   -2.6075   -2.8580    0.0000 C   0  0  0  0  0  0  0  0  0  0  0  0
   -3.3220   -3.2705    0.0000 C   0  0  0  0  0  0  0  0  0  0  0  0
   -3.3220   -4.0956    0.0000 C   0  0  0  0  0  0  0  0  0  0  0  0
   -2.6075   -4.5081    0.0000 N   0  0  0  0  0  0  0  0  0  0  0  0
   -1.8930   -4.0956    0.0000 C   0  0  0  0  0  0  0  0  0  0  0  0
   -1.8930   -3.2705    0.0000 C   0  0  0  0  0  0  0  0  0  0  0  0
   -4.0365   -2.8580    0.0000 C   0  0  0  0  0  0  0  0  0  0  0  0
   -4.7509   -3.2705    0.0000 C   0  0  0  0  0  0  0  0  0  0  0  0
   -4.7509   -4.0955    0.0000 C   0  0  0  0  0  0  0  0  0  0  0  0
   -4.0365   -4.5080    0.0000 C   0  0  0  0  0  0  0  0  0  0  0  0
   -2.3055   -0.9061    0.0000 H   0  0  0  0  0  0  0  0  0  0  0  0
   -3.0200   -1.3186    0.0000 H   0  0  0  0  0  0  0  0  0  0  0  0
   -3.4044   -2.2466    0.0000 O   0  0  0  0  0  0  0  0  0  0  0  0
   -5.4654   -2.8580    0.0000 O   0  0  0  0  0  0  0  0  0  0  0  0
   -6.1799   -3.2705    0.0000 C   0  0  0  0  0  0  0  0  0  0  0  0
    0.9162   -1.5924    0.0000 H   0  0  0  0  0  0  0  0  0  0  0  0
    0.2017   -2.8299    0.0000 C   0  0  0  0  0  0  0  0  0  0  0  0
    0.9162   -3.2424    0.0000 C   0  0  0  0  0  0  0  0  0  0  0  0
  1  2  1  0
  2  3  1  0
  3  4  1  0
  4  5  1  0
  5  6  1  0
  6  1  1  0
  1  7  1  0
  7  8  1  0
  4  8  1  6
  2  9  1  0
  9 10  1  0
 10 11  1  0
 15 10  2  0
 12 13  1  0
 13 14  2  0
 14 15  1  0
 11 16  2  0
 12 11  1  0
 19 12  2  0
 16 17  1  0
 17 18  2  0
 18 19  1  0
  2 20  1  6
  9 21  1  6
  9 22  1  0
 17 23  1  0
 23 24  1  0
  5 25  1  1
  5 26  1  0
 26 27  2  0
M  END
> <chembl_id>
CHEMBL170

> <chembl_pref_name>
QUININE
