
     RDKit          2D

 20 22  0  0  0  0  0  0  0  0999 V2000
    5.2167   -4.5667    0.0000 C   0  0  0  0  0  0  0  0  0  0  0  0
    5.7750   -3.4125    0.0000 N   0  0  0  0  0  0  0  0  0  0  0  0
    5.2167   -3.8542    0.0000 C   0  0  0  0  0  0  0  0  0  0  0  0
    5.7750   -5.0042    0.0000 C   0  0  0  0  0  0  0  0  0  0  0  0
    6.4542   -4.8417    0.0000 N   0  0  0  0  0  0  0  0  0  0  0  0
    6.4542   -3.5750    0.0000 C   0  0  0  0  0  0  0  0  0  0  0  0
    6.7625   -4.2125    0.0000 C   0  0  0  0  0  0  0  0  0  0  0  0
    4.6042   -3.5000    0.0000 C   0  0  0  0  0  0  0  0  0  0  0  0
    4.6042   -4.9167    0.0000 C   0  0  0  0  0  0  0  0  0  0  0  0
    5.4167   -5.6042    0.0000 C   0  0  0  0  0  0  0  0  0  0  0  0
    6.9042   -3.0125    0.0000 O   0  0  0  0  0  0  0  0  0  0  0  0
    3.9917   -4.5542    0.0000 C   0  0  0  0  0  0  0  0  0  0  0  0
    3.9917   -3.8542    0.0000 C   0  0  0  0  0  0  0  0  0  0  0  0
    5.6292   -2.7000    0.0000 C   0  0  0  0  0  0  0  0  0  0  0  0
    3.3542   -4.9000    0.0000 Cl  0  0  0  0  0  0  0  0  0  0  0  0
    5.7750   -6.2250    0.0000 C   0  0  0  0  0  0  0  0  0  0  0  0
    4.7167   -5.6042    0.0000 C   0  0  0  0  0  0  0  0  0  0  0  0
    5.4167   -6.8375    0.0000 C   0  0  0  0  0  0  0  0  0  0  0  0
    4.3667   -6.2250    0.0000 C   0  0  0  0  0  0  0  0  0  0  0  0
    4.7167   -6.8292    0.0000 C   0  0  0  0  0  0  0  0  0  0  0  0
  2  3  1  0
  3  1  2  0
  4  1  1  0
  5  4  2  0
  6  2  1  0
  7  5  1  0
  8  3  1  0
  9  1  1  0
 10  4  1  0
 11  6  2  0
 12  9  2  0
 13 12  1  0
 14  2  1  0
 15 12  1  0
 16 10  1  0
 17 10  2  0
 18 16  2  0
 19 17  1  0
 20 19  2  0
 13  8  2  0
  6  7  1  0
 20 18  1  0
M  END
> <chembl_id>
CHEMBL12

> <chembl_pref_name>
DIAZEPAM
