
     RDKit          2D

 33 34  0  0  0  0  0  0  0  0999 V2000
    2.9691   -2.5929    0.0000 C   0  0  0  0  0  0  0  0  0  0  0  0
    3.6836   -3.0054    0.0000 C   0  0  0  0  0  0  0  0  0  0  0  0
    4.3981   -2.5929    0.0000 C   0  0  0  0  0  0  0  0  0  0  0  0
    5.1125   -3.0054    0.0000 C   0  0  0  0  0  0  0  0  0  0  0  0
    5.8270   -2.5929    0.0000 O   0  0  0  0  0  0  0  0  0  0  0  0
    5.1125   -3.8304    0.0000 O   0  0  0  0  0  0  0  0  0  0  0  0
    2.2547   -3.0054    0.0000 O   0  0  0  0  0  0  0  0  0  0  0  0
    2.9691   -1.7679    0.0000 O   0  0  0  0  0  0  0  0  0  0  0  0
   -2.1867   -0.0406    0.0000 C   0  0  0  0  0  0  0  0  0  0  0  0
   -2.9011   -0.4531    0.0000 C   0  0  0  0  0  0  0  0  0  0  0  0
   -3.5142    0.0989    0.0000 C   0  0  0  0  0  0  0  0  0  0  0  0
   -3.1787    0.8526    0.0000 C   0  0  0  0  0  0  0  0  0  0  0  0
   -2.3582    0.7664    0.0000 O   0  0  0  0  0  0  0  0  0  0  0  0
   -2.9011   -1.2781    0.0000 C   0  0  0  0  0  0  0  0  0  0  0  0
   -2.1867   -1.6906    0.0000 C   0  0  0  0  0  0  0  0  0  0  0  0
   -1.4722   -1.2781    0.0000 C   0  0  0  0  0  0  0  0  0  0  0  0
   -1.4722   -0.4531    0.0000 C   0  0  0  0  0  0  0  0  0  0  0  0
   -2.1867   -2.5156    0.0000 Cl  0  0  0  0  0  0  0  0  0  0  0  0
   -3.6156   -1.6906    0.0000 N   0  0  0  0  0  0  0  0  0  0  0  0
   -0.7577   -0.0406    0.0000 C   0  0  0  0  0  0  0  0  0  0  0  0
   -0.7577    0.7844    0.0000 O   0  0  0  0  0  0  0  0  0  0  0  0
   -0.0433   -0.4531    0.0000 N   0  0  0  0  0  0  0  0  0  0  0  0
    0.6712   -0.0406    0.0000 C   0  0  0  0  0  0  0  0  0  0  0  0
    2.1002   -0.0406    0.0000 C   0  0  0  0  0  0  0  0  0  0  0  0
    1.3857   -0.4531    0.0000 C   0  0  0  0  0  0  0  0  0  0  0  0
    0.6712    0.7844    0.0000 C   0  0  0  0  0  0  0  0  0  0  0  0
    1.3857    1.1969    0.0000 C   0  0  0  0  0  0  0  0  0  0  0  0
    2.1002    0.7844    0.0000 N   0  0  0  0  0  0  0  0  0  0  0  0
    2.8146    1.1969    0.0000 C   0  0  0  0  0  0  0  0  0  0  0  0
    3.5291    0.7844    0.0000 C   0  0  0  0  0  0  0  0  0  0  0  0
    4.2436    1.1969    0.0000 C   0  0  0  0  0  0  0  0  0  0  0  0
    4.9580    0.7844    0.0000 O   0  0  0  0  0  0  0  0  0  0  0  0
    5.6725    1.1969    0.0000 C   0  0  0  0  0  0  0  0  0  0  0  0
  1  2  1  0
  2  3  1  0
  3  4  1  0
  4  5  1  0
  4  6  2  0
  1  7  1  0
  1  8  2  0
  9 13  1  0
 10 11  1  0
 11 12  1  0
 12 13  1  0
  9 17  2  0
  9 10  1  0
 10 14  2  0
 14 15  1  0
 15 16  2  0
 16 17  1  0
 15 18  1  0
 14 19  1  0
 17 20  1  0
 20 21  2  0
 20 22  1  0
 22 23  1  0
 25 23  1  0
 23 26  1  0
 24 25  1  0
 24 28  1  0
 26 27  1  0
 27 28  1  0
 28 29  1  0
 29 30  1  0
 30 31  1  0
 31 32  1  0
 32 33  1  0
M  END
> <chembl_id>
CHEMBL2105748

> <chembl_pref_name>
PRUCALOPRIDE SUCCINATE
