
     RDKit          2D

 21 24  0  0  0  0  0  0  0  0999 V2000
    0.8222   -9.2820    0.0000 C   0  0  0  0  0  0  0  0  0  0  0  0
    0.9743  -10.0929    0.0000 C   0  0  0  0  0  0  0  0  0  0  0  0
    1.7348  -10.4127    0.0000 N   0  0  0  0  0  0  0  0  0  0  0  0
    1.6656  -11.2348    0.0000 N   0  0  0  0  0  0  0  0  0  0  0  0
    0.8624  -11.4231    0.0000 C   0  0  0  0  0  0  0  0  0  0  0  0
    0.4351  -10.7173    0.0000 N   0  0  0  0  0  0  0  0  0  0  0  0
   -0.3893  -10.6851    0.0000 C   0  0  0  0  0  0  0  0  0  0  0  0
   -0.8781  -10.0205    0.0000 C   0  0  0  0  0  0  0  0  0  0  0  0
   -1.6980  -10.1116    0.0000 C   0  0  0  0  0  0  0  0  0  0  0  0
   -2.0292  -10.8672    0.0000 C   0  0  0  0  0  0  0  0  0  0  0  0
   -1.5404  -11.5318    0.0000 C   0  0  0  0  0  0  0  0  0  0  0  0
   -0.7204  -11.4408    0.0000 C   0  0  0  0  0  0  0  0  0  0  0  0
   -2.8491  -10.9582    0.0000 Cl  0  0  0  0  0  0  0  0  0  0  0  0
   -0.6632   -9.2240    0.0000 C   0  0  0  0  0  0  0  0  0  0  0  0
    0.0935   -8.8953    0.0000 N   0  0  0  0  0  0  0  0  0  0  0  0
   -1.2877   -8.6848    0.0000 C   0  0  0  0  0  0  0  0  0  0  0  0
   -2.0668   -8.9560    0.0000 C   0  0  0  0  0  0  0  0  0  0  0  0
   -2.6913   -8.4169    0.0000 C   0  0  0  0  0  0  0  0  0  0  0  0
   -2.5366   -7.6065    0.0000 C   0  0  0  0  0  0  0  0  0  0  0  0
   -1.7574   -7.3353    0.0000 C   0  0  0  0  0  0  0  0  0  0  0  0
   -1.1330   -7.8745    0.0000 C   0  0  0  0  0  0  0  0  0  0  0  0
  1  2  1  0
  2  3  2  0
  3  4  1  0
  4  5  2  0
  5  6  1  0
  2  6  1  0
  6  7  1  0
  7  8  2  0
  8  9  1  0
  9 10  2  0
 10 11  1  0
 11 12  2  0
  7 12  1  0
 10 13  1  0
  8 14  1  0
 14 15  2  0
  1 15  1  0
 14 16  1  0
 16 17  2  0
 17 18  1  0
 18 19  2  0
 19 20  1  0
 20 21  2  0
 16 21  1  0
M  END
> <chembl_id>
CHEMBL285674

> <chembl_pref_name>
ESTAZOLAM
