
     RDKit          2D

 19 19  0  0  0  0  0  0  0  0999 V2000
    0.0000    1.6477    0.0000 C   0  0  0  0  0  0  0  0  0  0  0  0
    1.4283    0.0000    0.0000 N   0  0  0  0  0  0  0  0  0  0  0  0
    2.1443    2.8834    0.0000 O   0  0  0  0  0  0  0  0  0  0  0  0
    0.7155    2.8845    0.0000 O   0  0  0  0  0  0  0  0  0  0  0  0
    5.9259    2.5096    0.0000 F   0  0  0  0  0  0  0  0  0  0  0  0
    5.7107    4.1284    0.0000 F   0  0  0  0  0  0  0  0  0  0  0  0
    6.4298    2.8936    0.0000 F   0  0  0  0  0  0  0  0  0  0  0  0
    1.4289    0.8249    0.0000 C   0  0  0  0  0  0  0  0  0  0  0  0
    4.2873    1.6445    0.0000 C   0  0  0  0  0  0  0  0  0  0  0  0
    5.0037    2.0578    0.0000 C   0  0  0  0  0  0  0  0  0  0  0  0
    4.2855    3.2974    0.0000 C   0  0  0  0  0  0  0  0  0  0  0  0
    3.5737    2.8846    0.0000 C   0  0  0  0  0  0  0  0  0  0  0  0
    2.8578    1.6454    0.0000 N   0  0  0  0  0  0  0  0  0  0  0  0
    0.7148    2.0596    0.0000 C   0  0  0  0  0  0  0  0  0  0  0  0
    2.1437    2.0585    0.0000 C   0  0  0  0  0  0  0  0  0  0  0  0
    1.4289    1.6465    0.0000 C   0  0  0  0  0  0  0  0  0  0  0  0
    5.0008    2.8882    0.0000 C   0  0  0  0  0  0  0  0  0  0  0  0
    3.5725    2.0573    0.0000 C   0  0  0  0  0  0  0  0  0  0  0  0
    5.7138    3.3034    0.0000 C   0  0  0  0  0  0  0  0  0  0  0  0
  1 14  1  0
  2  8  3  0
  3 15  2  0
  4 14  1  0
  5 19  1  0
  6 19  1  0
  7 19  1  0
  8 16  1  0
  9 10  2  0
  9 18  1  0
 10 17  1  0
 11 12  1  0
 11 17  2  0
 12 18  2  0
 13 15  1  0
 13 18  1  0
 14 16  2  0
 15 16  1  0
 17 19  1  0
M  END
> <chembl_id>
CHEMBL973

> <chembl_pref_name>
TERIFLUNOMIDE
