
     RDKit          2D

186211  0  0  0  0  0  0  0  0999 V2000
    6.7742   -6.7681    0.0000 C   0  0  0  0  0  0  0  0  0  0  0  0
    6.7442   -8.4159    0.0000 C   0  0  0  0  0  0  0  0  0  0  0  0
    7.4783   -7.1875    0.0000 C   0  0  0  0  0  0  0  0  0  0  0  0
    6.0551   -7.2025    0.0000 C   0  0  0  0  0  0  0  0  0  0  0  0
    8.1973   -6.7231    0.0000 N   0  0  0  0  0  0  0  0  0  0  0  0
    7.4483   -5.4798    0.0000 C   0  0  0  0  0  0  0  0  0  0  0  0
    6.0551   -8.0114    0.0000 C   0  0  0  0  0  0  0  0  0  0  0  0
    7.4483   -4.6559    0.0000 C   0  0  0  0  0  0  0  0  0  0  0  0
    7.4633   -7.9965    0.0000 C   0  0  0  0  0  0  0  0  0  0  0  0
    6.7742   -5.9592    0.0000 C   0  0  0  0  0  0  0  0  0  0  0  0
    6.5795   -9.2248    0.0000 C   0  0  0  0  0  0  0  0  0  0  0  0
    5.5458   -9.2248    0.0000 N   0  0  0  0  0  0  0  0  0  0  0  0
    8.1973   -5.8992    0.0000 C   0  0  0  0  0  0  0  0  0  0  0  0
    8.2423   -4.2215    0.0000 N   0  0  0  0  0  0  0  0  0  0  0  0
    5.3361   -8.4159    0.0000 C   0  0  0  0  0  0  0  0  0  0  0  0
    6.5795   -4.1615    0.0000 O   0  0  0  0  0  0  0  0  0  0  0  0
    5.3361   -6.7980    0.0000 C   0  0  0  0  0  0  0  0  0  0  0  0
    8.9313   -7.0977    0.0000 C   0  0  0  0  0  0  0  0  0  0  0  0
    8.9913   -4.5810    0.0000 C   0  0  0  0  0  0  0  0  0  0  0  0
    4.6320   -7.2025    0.0000 C   0  0  0  0  0  0  0  0  0  0  0  0
    4.6320   -8.0264    0.0000 C   0  0  0  0  0  0  0  0  0  0  0  0
    8.0925   -7.5770    0.0000 H   0  0  0  0  0  0  0  0  0  0  0  0
    5.8304   -6.2737    0.0000 H   0  0  0  0  0  0  0  0  0  0  0  0
    9.1396   -5.3925    0.0000 C   0  0  0  0  0  0  0  0  0  0  0  0
    9.9573   -5.5022    0.0000 N   0  0  0  0  0  0  0  0  0  0  0  0
   10.3143   -4.7585    0.0000 C   0  0  0  0  0  0  0  0  0  0  0  0
    9.7173   -4.1891    0.0000 O   0  0  0  0  0  0  0  0  0  0  0  0
    8.5703   -5.9896    0.0000 O   0  0  0  0  0  0  0  0  0  0  0  0
   11.1369   -4.6957    0.0000 C   0  0  0  0  0  0  0  0  0  0  0  0
   11.6025   -5.3768    0.0000 N   0  0  0  0  0  0  0  0  0  0  0  0
   11.2455   -6.1205    0.0000 C   0  0  0  0  0  0  0  0  0  0  0  0
   10.4229   -6.1833    0.0000 C   0  0  0  0  0  0  0  0  0  0  0  0
    9.6260   -6.3968    0.0000 H   0  0  0  0  0  0  0  0  0  0  0  0
   10.8354   -6.8977    0.0000 C   0  0  0  0  0  0  0  0  0  0  0  0
   12.3941   -5.1444    0.0000 C   0  0  0  0  0  0  0  0  0  0  0  0
   12.4177   -4.3198    0.0000 C   0  0  0  0  0  0  0  0  0  0  0  0
   11.6407   -4.0425    0.0000 C   0  0  0  0  0  0  0  0  0  0  0  0
   10.7268   -4.0440    0.0000 O   0  0  0  0  0  0  0  0  0  0  0  0
    8.9913   -3.7560    0.0000 C   0  0  0  0  0  0  0  0  0  0  0  0
    8.4079   -3.1726    0.0000 C   0  0  0  0  0  0  0  0  0  0  0  0
    9.5746   -3.1726    0.0000 C   0  0  0  0  0  0  0  0  0  0  0  0
   11.7111   -6.8016    0.0000 O   0  0  0  0  0  0  0  0  0  0  0  0
   10.3332   -7.5522    0.0000 C   0  0  0  0  0  0  0  0  0  0  0  0
   10.7244   -5.4102    0.0000 H   0  0  0  0  0  0  0  0  0  0  0  0
   11.6323   -7.1113    0.0000 C   0  0  0  0  0  0  0  0  0  0  0  0
   10.6489   -8.3144    0.0000 C   0  0  0  0  0  0  0  0  0  0  0  0
   -9.2624    1.0979    0.0000 C   0  0  0  0  0  0  0  0  0  0  0  0
   -9.2924   -0.5499    0.0000 C   0  0  0  0  0  0  0  0  0  0  0  0
   -8.5584    0.6785    0.0000 C   0  0  0  0  0  0  0  0  0  0  0  0
   -9.9815    0.6635    0.0000 C   0  0  0  0  0  0  0  0  0  0  0  0
   -7.8393    1.1429    0.0000 N   0  0  0  0  0  0  0  0  0  0  0  0
   -8.5883    2.3862    0.0000 C   0  0  0  0  0  0  0  0  0  0  0  0
   -9.9815   -0.1454    0.0000 C   0  0  0  0  0  0  0  0  0  0  0  0
   -8.5883    3.2101    0.0000 C   0  0  0  0  0  0  0  0  0  0  0  0
   -8.5733   -0.1304    0.0000 C   0  0  0  0  0  0  0  0  0  0  0  0
   -9.2624    1.9069    0.0000 C   0  0  0  0  0  0  0  0  0  0  0  0
   -9.4572   -1.3588    0.0000 C   0  0  0  0  0  0  0  0  0  0  0  0
  -10.4908   -1.3588    0.0000 N   0  0  0  0  0  0  0  0  0  0  0  0
   -7.8393    1.9668    0.0000 C   0  0  0  0  0  0  0  0  0  0  0  0
   -7.7944    3.6446    0.0000 N   0  0  0  0  0  0  0  0  0  0  0  0
  -10.7005   -0.5499    0.0000 C   0  0  0  0  0  0  0  0  0  0  0  0
   -9.4572    3.7045    0.0000 O   0  0  0  0  0  0  0  0  0  0  0  0
  -10.7005    1.0680    0.0000 C   0  0  0  0  0  0  0  0  0  0  0  0
   -7.1053    0.7684    0.0000 C   0  0  0  0  0  0  0  0  0  0  0  0
   -7.0454    3.2850    0.0000 C   0  0  0  0  0  0  0  0  0  0  0  0
  -11.4046    0.6635    0.0000 C   0  0  0  0  0  0  0  0  0  0  0  0
  -11.4046   -0.1604    0.0000 C   0  0  0  0  0  0  0  0  0  0  0  0
   -7.9442    0.2890    0.0000 H   0  0  0  0  0  0  0  0  0  0  0  0
  -10.2062    1.5923    0.0000 H   0  0  0  0  0  0  0  0  0  0  0  0
   -6.8970    2.4735    0.0000 C   0  0  0  0  0  0  0  0  0  0  0  0
   -6.0794    2.3638    0.0000 N   0  0  0  0  0  0  0  0  0  0  0  0
   -5.7224    3.1076    0.0000 C   0  0  0  0  0  0  0  0  0  0  0  0
   -6.3194    3.6769    0.0000 O   0  0  0  0  0  0  0  0  0  0  0  0
   -7.4663    1.8765    0.0000 O   0  0  0  0  0  0  0  0  0  0  0  0
   -4.8997    3.1703    0.0000 C   0  0  0  0  0  0  0  0  0  0  0  0
   -4.4341    2.4892    0.0000 N   0  0  0  0  0  0  0  0  0  0  0  0
   -4.7911    1.7455    0.0000 C   0  0  0  0  0  0  0  0  0  0  0  0
   -5.6137    1.6828    0.0000 C   0  0  0  0  0  0  0  0  0  0  0  0
   -6.4106    1.4692    0.0000 H   0  0  0  0  0  0  0  0  0  0  0  0
   -5.2012    0.9683    0.0000 C   0  0  0  0  0  0  0  0  0  0  0  0
   -3.6425    2.7216    0.0000 C   0  0  0  0  0  0  0  0  0  0  0  0
   -3.6189    3.5463    0.0000 C   0  0  0  0  0  0  0  0  0  0  0  0
   -4.3959    3.8235    0.0000 C   0  0  0  0  0  0  0  0  0  0  0  0
   -5.3099    3.8220    0.0000 O   0  0  0  0  0  0  0  0  0  0  0  0
   -7.0454    4.1100    0.0000 C   0  0  0  0  0  0  0  0  0  0  0  0
   -7.6287    4.6934    0.0000 C   0  0  0  0  0  0  0  0  0  0  0  0
   -6.4620    4.6934    0.0000 C   0  0  0  0  0  0  0  0  0  0  0  0
   -4.3255    1.0644    0.0000 O   0  0  0  0  0  0  0  0  0  0  0  0
   -4.4043    0.7548    0.0000 C   0  0  0  0  0  0  0  0  0  0  0  0
   -5.7035    0.3138    0.0000 C   0  0  0  0  0  0  0  0  0  0  0  0
   -5.3122    2.4558    0.0000 H   0  0  0  0  0  0  0  0  0  0  0  0
    2.4429    2.9551    0.0000 C   0  0  0  0  0  0  0  0  0  0  0  0
    2.4130    1.3073    0.0000 C   0  0  0  0  0  0  0  0  0  0  0  0
    3.1470    2.5357    0.0000 C   0  0  0  0  0  0  0  0  0  0  0  0
    1.7239    2.5207    0.0000 C   0  0  0  0  0  0  0  0  0  0  0  0
    3.8661    3.0001    0.0000 N   0  0  0  0  0  0  0  0  0  0  0  0
    3.1171    4.2434    0.0000 C   0  0  0  0  0  0  0  0  0  0  0  0
    1.7239    1.7118    0.0000 C   0  0  0  0  0  0  0  0  0  0  0  0
    3.1171    5.0673    0.0000 C   0  0  0  0  0  0  0  0  0  0  0  0
    3.1320    1.7268    0.0000 C   0  0  0  0  0  0  0  0  0  0  0  0
    2.4429    3.7641    0.0000 C   0  0  0  0  0  0  0  0  0  0  0  0
    2.2482    0.4984    0.0000 C   0  0  0  0  0  0  0  0  0  0  0  0
    1.2146    0.4984    0.0000 N   0  0  0  0  0  0  0  0  0  0  0  0
    3.8661    3.8240    0.0000 C   0  0  0  0  0  0  0  0  0  0  0  0
    3.9110    5.5018    0.0000 N   0  0  0  0  0  0  0  0  0  0  0  0
    1.0048    1.3073    0.0000 C   0  0  0  0  0  0  0  0  0  0  0  0
    2.2482    5.5617    0.0000 O   0  0  0  0  0  0  0  0  0  0  0  0
    1.0048    2.9252    0.0000 C   0  0  0  0  0  0  0  0  0  0  0  0
    4.6001    2.6256    0.0000 C   0  0  0  0  0  0  0  0  0  0  0  0
    4.6600    5.1422    0.0000 C   0  0  0  0  0  0  0  0  0  0  0  0
    0.3008    2.5207    0.0000 C   0  0  0  0  0  0  0  0  0  0  0  0
    0.3008    1.6968    0.0000 C   0  0  0  0  0  0  0  0  0  0  0  0
    3.7612    2.1462    0.0000 H   0  0  0  0  0  0  0  0  0  0  0  0
    1.4992    3.4495    0.0000 H   0  0  0  0  0  0  0  0  0  0  0  0
    4.8084    4.3307    0.0000 C   0  0  0  0  0  0  0  0  0  0  0  0
    5.6260    4.2210    0.0000 N   0  0  0  0  0  0  0  0  0  0  0  0
    5.9830    4.9648    0.0000 C   0  0  0  0  0  0  0  0  0  0  0  0
    5.3860    5.5341    0.0000 O   0  0  0  0  0  0  0  0  0  0  0  0
    4.2390    3.7336    0.0000 O   0  0  0  0  0  0  0  0  0  0  0  0
    6.8056    5.0275    0.0000 C   0  0  0  0  0  0  0  0  0  0  0  0
    7.2713    4.3464    0.0000 N   0  0  0  0  0  0  0  0  0  0  0  0
    6.9143    3.6027    0.0000 C   0  0  0  0  0  0  0  0  0  0  0  0
    6.0916    3.5400    0.0000 C   0  0  0  0  0  0  0  0  0  0  0  0
    5.2948    3.3264    0.0000 H   0  0  0  0  0  0  0  0  0  0  0  0
    6.5041    2.8255    0.0000 C   0  0  0  0  0  0  0  0  0  0  0  0
    8.0628    4.5788    0.0000 C   0  0  0  0  0  0  0  0  0  0  0  0
    8.0865    5.4035    0.0000 C   0  0  0  0  0  0  0  0  0  0  0  0
    7.3095    5.6807    0.0000 C   0  0  0  0  0  0  0  0  0  0  0  0
    6.3955    5.6792    0.0000 O   0  0  0  0  0  0  0  0  0  0  0  0
    4.6600    5.9672    0.0000 C   0  0  0  0  0  0  0  0  0  0  0  0
    4.0767    6.5506    0.0000 C   0  0  0  0  0  0  0  0  0  0  0  0
    5.2434    6.5506    0.0000 C   0  0  0  0  0  0  0  0  0  0  0  0
    7.3799    2.9216    0.0000 O   0  0  0  0  0  0  0  0  0  0  0  0
    6.0019    2.1710    0.0000 C   0  0  0  0  0  0  0  0  0  0  0  0
    6.3931    4.3130    0.0000 H   0  0  0  0  0  0  0  0  0  0  0  0
    5.1840    2.2787    0.0000 C   0  0  0  0  0  0  0  0  0  0  0  0
    4.6817    1.6242    0.0000 C   0  0  0  0  0  0  0  0  0  0  0  0
    4.9975    0.8619    0.0000 C   0  0  0  0  0  0  0  0  0  0  0  0
    5.8154    0.7542    0.0000 C   0  0  0  0  0  0  0  0  0  0  0  0
    6.3177    1.4088    0.0000 C   0  0  0  0  0  0  0  0  0  0  0  0
   15.1715    2.6899    0.0000 C   0  0  0  0  0  0  0  0  0  0  0  0
   15.1416    1.0421    0.0000 C   0  0  0  0  0  0  0  0  0  0  0  0
   15.8756    2.2705    0.0000 C   0  0  0  0  0  0  0  0  0  0  0  0
   14.4525    2.2555    0.0000 C   0  0  0  0  0  0  0  0  0  0  0  0
   16.5946    2.7349    0.0000 N   0  0  0  0  0  0  0  0  0  0  0  0
   15.8456    3.9782    0.0000 C   0  0  0  0  0  0  0  0  0  0  0  0
   14.4525    1.4466    0.0000 C   0  0  0  0  0  0  0  0  0  0  0  0
   15.8456    4.8022    0.0000 C   0  0  0  0  0  0  0  0  0  0  0  0
   15.8606    1.4616    0.0000 C   0  0  0  0  0  0  0  0  0  0  0  0
   15.1715    3.4989    0.0000 C   0  0  0  0  0  0  0  0  0  0  0  0
   14.9768    0.2332    0.0000 C   0  0  0  0  0  0  0  0  0  0  0  0
   13.9431    0.2332    0.0000 N   0  0  0  0  0  0  0  0  0  0  0  0
   16.5946    3.5588    0.0000 C   0  0  0  0  0  0  0  0  0  0  0  0
   16.6396    5.2366    0.0000 N   0  0  0  0  0  0  0  0  0  0  0  0
   13.7334    1.0421    0.0000 C   0  0  0  0  0  0  0  0  0  0  0  0
   14.9768    5.2965    0.0000 O   0  0  0  0  0  0  0  0  0  0  0  0
   13.7334    2.6600    0.0000 C   0  0  0  0  0  0  0  0  0  0  0  0
   17.3287    2.3604    0.0000 C   0  0  0  0  0  0  0  0  0  0  0  0
   17.3886    4.8771    0.0000 C   0  0  0  0  0  0  0  0  0  0  0  0
   13.0294    2.2555    0.0000 C   0  0  0  0  0  0  0  0  0  0  0  0
   13.0294    1.4316    0.0000 C   0  0  0  0  0  0  0  0  0  0  0  0
   16.4898    1.8810    0.0000 H   0  0  0  0  0  0  0  0  0  0  0  0
   14.2278    3.1843    0.0000 H   0  0  0  0  0  0  0  0  0  0  0  0
   17.5370    4.0655    0.0000 C   0  0  0  0  0  0  0  0  0  0  0  0
   18.3546    3.9558    0.0000 N   0  0  0  0  0  0  0  0  0  0  0  0
   18.7116    4.6996    0.0000 C   0  0  0  0  0  0  0  0  0  0  0  0
   18.1146    5.2689    0.0000 O   0  0  0  0  0  0  0  0  0  0  0  0
   16.9676    3.4685    0.0000 O   0  0  0  0  0  0  0  0  0  0  0  0
   19.5342    4.7623    0.0000 C   0  0  0  0  0  0  0  0  0  0  0  0
   19.9998    4.0813    0.0000 N   0  0  0  0  0  0  0  0  0  0  0  0
   19.6428    3.3375    0.0000 C   0  0  0  0  0  0  0  0  0  0  0  0
   18.8202    3.2748    0.0000 C   0  0  0  0  0  0  0  0  0  0  0  0
   18.0233    3.0613    0.0000 H   0  0  0  0  0  0  0  0  0  0  0  0
   19.2327    2.5603    0.0000 C   0  0  0  0  0  0  0  0  0  0  0  0
   20.7914    4.3136    0.0000 C   0  0  0  0  0  0  0  0  0  0  0  0
   20.8150    5.1383    0.0000 C   0  0  0  0  0  0  0  0  0  0  0  0
   20.0381    5.4156    0.0000 C   0  0  0  0  0  0  0  0  0  0  0  0
   19.1241    5.4141    0.0000 O   0  0  0  0  0  0  0  0  0  0  0  0
   17.3886    5.7021    0.0000 C   0  0  0  0  0  0  0  0  0  0  0  0
   16.8052    6.2854    0.0000 C   0  0  0  0  0  0  0  0  0  0  0  0
   17.9720    6.2854    0.0000 C   0  0  0  0  0  0  0  0  0  0  0  0
   20.1085    2.6564    0.0000 O   0  0  0  0  0  0  0  0  0  0  0  0
   18.7305    1.9058    0.0000 C   0  0  0  0  0  0  0  0  0  0  0  0
   19.1217    4.0478    0.0000 H   0  0  0  0  0  0  0  0  0  0  0  0
   19.0462    1.1436    0.0000 C   0  0  0  0  0  0  0  0  0  0  0  0
   17.9336    1.6923    0.0000 C   0  0  0  0  0  0  0  0  0  0  0  0
  2  7  1  0
  3  1  1  0
  4  1  1  0
  5  3  1  0
  6 10  1  0
  7  4  2  0
  6  8  1  1
  9  3  1  0
 10  1  1  0
 11  2  2  0
 12 15  1  0
 13  6  1  0
 14  8  1  0
 15  7  1  0
 16  8  2  0
 17  4  1  0
 18  5  1  0
 19 14  1  6
 20 17  2  0
 21 15  2  0
  3 22  1  1
  1 23  1  6
  9  2  1  0
  5 13  1  0
 21 20  1  0
 11 12  1  0
 19 24  1  0
 19 27  1  0
 24 25  1  0
 26 27  1  0
 24 28  2  0
 32 25  1  0
 25 26  1  0
 26 29  1  0
 30 31  1  0
 31 32  1  0
 32 33  1  1
 32 34  1  0
 30 35  1  0
 29 30  1  0
 29 37  1  0
 35 36  1  0
 36 37  1  0
 26 38  1  6
 19 39  1  1
 39 40  1  0
 39 41  1  0
 31 42  2  0
 34 43  1  0
 29 44  1  1
 34 45  1  0
 43 46  1  0
 48 53  1  0
 49 47  1  0
 50 47  1  0
 51 49  1  0
 52 56  1  0
 53 50  2  0
 52 54  1  1
 55 49  1  0
 56 47  1  0
 57 48  2  0
 58 61  1  0
 59 52  1  0
 60 54  1  0
 61 53  1  0
 62 54  2  0
 63 50  1  0
 64 51  1  0
 65 60  1  6
 66 63  2  0
 67 61  2  0
 49 68  1  1
 47 69  1  6
 55 48  1  0
 51 59  1  0
 67 66  1  0
 57 58  1  0
 65 70  1  0
 65 73  1  0
 70 71  1  0
 72 73  1  0
 70 74  2  0
 78 71  1  0
 71 72  1  0
 72 75  1  0
 76 77  1  0
 77 78  1  0
 78 79  1  1
 78 80  1  0
 76 81  1  0
 75 76  1  0
 75 83  1  0
 81 82  1  0
 82 83  1  0
 72 84  1  6
 65 85  1  1
 85 86  1  0
 85 87  1  0
 77 88  2  0
 80 89  1  0
 80 90  1  0
 75 91  1  1
 93 98  1  0
 94 92  1  0
 95 92  1  0
 96 94  1  0
 97101  1  0
 98 95  2  0
 97 99  1  1
100 94  1  0
101 92  1  0
102 93  2  0
103106  1  0
104 97  1  0
105 99  1  0
106 98  1  0
107 99  2  0
108 95  1  0
109 96  1  0
110105  1  6
111108  2  0
112106  2  0
 94113  1  1
 92114  1  6
100 93  1  0
 96104  1  0
112111  1  0
102103  1  0
110115  1  0
110118  1  0
115116  1  0
117118  1  0
115119  2  0
123116  1  0
116117  1  0
117120  1  0
121122  1  0
122123  1  0
123124  1  1
123125  1  0
121126  1  0
120121  1  0
120128  1  0
126127  1  0
127128  1  0
117129  1  6
110130  1  1
130131  1  0
130132  1  0
122133  2  0
125134  1  0
120135  1  1
134136  1  0
134140  2  0
136137  2  0
137138  1  0
138139  2  0
139140  1  0
142147  1  0
143141  1  0
144141  1  0
145143  1  0
146150  1  0
147144  2  0
146148  1  1
149143  1  0
150141  1  0
151142  2  0
152155  1  0
153146  1  0
154148  1  0
155147  1  0
156148  2  0
157144  1  0
158145  1  0
159154  1  6
160157  2  0
161155  2  0
143162  1  1
141163  1  6
149142  1  0
145153  1  0
161160  1  0
151152  1  0
159164  1  0
159167  1  0
164165  1  0
166167  1  0
164168  2  0
172165  1  0
165166  1  0
166169  1  0
170171  1  0
171172  1  0
172173  1  1
172174  1  0
170175  1  0
169170  1  0
169177  1  0
175176  1  0
176177  1  0
166178  1  6
159179  1  1
179180  1  0
179181  1  0
171182  2  0
174183  1  0
169184  1  1
183185  1  0
183186  1  0
M  END
> <chembl_id>
CHEMBL2364968

> <chembl_pref_name>
ERGOLOID
