
     RDKit          2D

 28 29  0  0  0  0  0  0  0  0999 V2000
    3.6542    0.9000    0.0000 N   0  0  0  0  0  0  0  0  0  0  0  0
    2.1417    0.7750    0.0000 C   0  0  0  0  0  0  0  0  0  0  0  0
    1.4542    0.3750    0.0000 C   0  0  0  0  0  0  0  0  0  0  0  0
    2.8542    0.3958    0.0000 C   0  0  0  0  0  0  0  0  0  0  0  0
    4.3417    0.3333    0.0000 C   0  0  0  0  0  0  0  0  0  0  0  0
    1.4542   -0.4250    0.0000 C   0  0  0  0  0  0  0  0  0  0  0  0
    0.7792    0.7583    0.0000 C   0  0  0  0  0  0  0  0  0  0  0  0
    2.8792   -0.4042    0.0000 C   0  0  0  0  0  0  0  0  0  0  0  0
    0.7792   -0.8250    0.0000 C   0  0  0  0  0  0  0  0  0  0  0  0
    0.0917    0.3750    0.0000 C   0  0  0  0  0  0  0  0  0  0  0  0
    0.0917   -0.4250    0.0000 C   0  0  0  0  0  0  0  0  0  0  0  0
   -3.8083    0.1458    0.0000 C   0  0  0  0  0  0  0  0  0  0  0  0
   -2.6583   -0.5250    0.0000 C   0  0  0  0  0  0  0  0  0  0  0  0
   -3.0458    0.1458    0.0000 C   0  0  0  0  0  0  0  0  0  0  0  0
   -4.1958   -0.5250    0.0000 N   0  0  0  0  0  0  0  0  0  0  0  0
   -3.0458   -1.2042    0.0000 N   0  0  0  0  0  0  0  0  0  0  0  0
   -3.8083   -1.2042    0.0000 C   0  0  0  0  0  0  0  0  0  0  0  0
   -1.8833   -0.5250    0.0000 O   0  0  0  0  0  0  0  0  0  0  0  0
   -4.0833    0.5750    0.0000 O   0  0  0  0  0  0  0  0  0  0  0  0
   -2.6833    0.7833    0.0000 C   0  0  0  0  0  0  0  0  0  0  0  0
   -4.1958   -1.8750    0.0000 O   0  0  0  0  0  0  0  0  0  0  0  0
   -2.1000    0.1458    0.0000 C   0  0  0  0  0  0  0  0  0  0  0  0
   -3.0458    1.4333    0.0000 C   0  0  0  0  0  0  0  0  0  0  0  0
   -1.9333    0.7750    0.0000 C   0  0  0  0  0  0  0  0  0  0  0  0
   -1.5458    0.4833    0.0000 C   0  0  0  0  0  0  0  0  0  0  0  0
   -2.6833    2.0708    0.0000 C   0  0  0  0  0  0  0  0  0  0  0  0
   -1.5625    1.4333    0.0000 C   0  0  0  0  0  0  0  0  0  0  0  0
   -1.9333    2.0708    0.0000 C   0  0  0  0  0  0  0  0  0  0  0  0
  2  4  1  0
  3  2  1  0
  4  1  1  0
  5  1  1  0
  6  3  1  0
  7  3  1  0
  8  4  1  0
  9  6  1  0
 10  7  1  0
 11 10  1  0
  9 11  1  0
 13 14  1  0
 14 12  1  0
 15 12  1  0
 16 17  1  0
 17 15  1  0
 18 13  2  0
 19 12  2  0
 20 14  1  0
 21 17  2  0
 22 14  1  0
 23 20  1  0
 24 20  2  0
 25 22  1  0
 26 23  2  0
 27 24  1  0
 28 27  2  0
 13 16  1  0
 26 28  1  0
M  END
> <chembl_id>
CHEMBL3833301

> <chembl_pref_name>
BARBEXACLONE
