
     RDKit          2D

 16 16  0  0  0  0  0  0  0  0999 V2000
    0.4750    0.2625    0.0000 C   0  0  0  0  0  0  0  0  0  0  0  0
   -0.1375    0.6208    0.0000 N   0  0  0  0  0  0  0  0  0  0  0  0
   -0.7583    0.2625    0.0000 C   0  0  0  0  0  0  0  0  0  0  0  0
    0.4750   -0.4500    0.0000 O   0  0  0  0  0  0  0  0  0  0  0  0
    1.0917    0.6125    0.0000 C   0  0  0  0  0  0  0  0  0  0  0  0
   -1.3708    0.6250    0.0000 C   0  0  0  0  0  0  0  0  0  0  0  0
    1.7042    0.2500    0.0000 N   0  0  0  0  0  0  0  0  0  0  0  0
   -0.7583   -0.4500    0.0000 C   0  0  0  0  0  0  0  0  0  0  0  0
   -1.3625    1.3375    0.0000 C   0  0  0  0  0  0  0  0  0  0  0  0
   -1.9750    0.2750    0.0000 C   0  0  0  0  0  0  0  0  0  0  0  0
    2.3375    0.5958    0.0000 C   0  0  0  0  0  0  0  0  0  0  0  0
    1.0875    1.3125    0.0000 C   0  0  0  0  0  0  0  0  0  0  0  0
    2.9417    0.2250    0.0000 C   0  0  0  0  0  0  0  0  0  0  0  0
   -1.3708   -0.8000    0.0000 C   0  0  0  0  0  0  0  0  0  0  0  0
    3.5667    0.5625    0.0000 C   0  0  0  0  0  0  0  0  0  0  0  0
   -1.9750   -0.4375    0.0000 C   0  0  0  0  0  0  0  0  0  0  0  0
  2  1  1  0
  3  2  1  0
  4  1  2  0
  5  1  1  0
  6  3  2  0
  7  5  1  0
  8  3  1  0
  9  6  1  0
 10  6  1  0
 11  7  1  0
 12  5  1  0
 13 11  1  0
 14  8  2  0
 15 13  1  0
 16 14  1  0
 16 10  2  0
M  END
> <chembl_id>
CHEMBL1194

> <chembl_pref_name>
PRILOCAINE
