
     RDKit          2D

 30 29  0  0  0  0  0  0  0  0999 V2000
   -5.0297    0.5014    0.0000 C   0  0  0  0  0  0  0  0  0  0  0  0
   -4.3152    0.0890    0.0000 C   0  0  0  0  0  0  0  0  0  0  0  0
   -3.6007    0.5014    0.0000 C   0  0  0  0  0  0  0  0  0  0  0  0
   -2.8862    0.0890    0.0000 C   0  0  0  0  0  0  0  0  0  0  0  0
   -2.1718    0.5014    0.0000 C   0  0  0  0  0  0  0  0  0  0  0  0
   -1.4573    0.0890    0.0000 C   0  0  0  0  0  0  0  0  0  0  0  0
   -0.7428    0.5014    0.0000 C   0  0  0  0  0  0  0  0  0  0  0  0
   -0.0284    0.0890    0.0000 O   0  0  0  0  0  0  0  0  0  0  0  0
    0.6861    0.5014    0.0000 C   0  0  0  0  0  0  0  0  0  0  0  0
    1.4006    0.0890    0.0000 C   0  0  0  0  0  0  0  0  0  0  0  0
    2.1151    0.5014    0.0000 C   0  0  0  0  0  0  0  0  0  0  0  0
    2.8295    0.0890    0.0000 O   0  0  0  0  0  0  0  0  0  0  0  0
    3.5440    0.5014    0.0000 C   0  0  0  0  0  0  0  0  0  0  0  0
    4.2585    0.0890    0.0000 C   0  0  0  0  0  0  0  0  0  0  0  0
    4.9729    0.5014    0.0000 C   0  0  0  0  0  0  0  0  0  0  0  0
    5.6874    0.0890    0.0000 C   0  0  0  0  0  0  0  0  0  0  0  0
    6.4019    0.5014    0.0000 C   0  0  0  0  0  0  0  0  0  0  0  0
    7.1164    0.0890    0.0000 C   0  0  0  0  0  0  0  0  0  0  0  0
    7.8308    0.5014    0.0000 C   0  0  0  0  0  0  0  0  0  0  0  0
    1.4006   -0.7360    0.0000 O   0  0  0  0  0  0  0  0  0  0  0  0
    2.1151   -1.1484    0.0000 C   0  0  0  0  0  0  0  0  0  0  0  0
    2.8295   -0.7360    0.0000 C   0  0  0  0  0  0  0  0  0  0  0  0
    3.5440   -1.1484    0.0000 C   0  0  0  0  0  0  0  0  0  0  0  0
    4.2585   -0.7360    0.0000 C   0  0  0  0  0  0  0  0  0  0  0  0
    4.9729   -1.1484    0.0000 C   0  0  0  0  0  0  0  0  0  0  0  0
    5.6874   -0.7360    0.0000 C   0  0  0  0  0  0  0  0  0  0  0  0
    6.4019   -1.1484    0.0000 C   0  0  0  0  0  0  0  0  0  0  0  0
   -0.7428    1.3264    0.0000 O   0  0  0  0  0  0  0  0  0  0  0  0
    3.5440    1.3264    0.0000 O   0  0  0  0  0  0  0  0  0  0  0  0
    2.1151   -1.9734    0.0000 O   0  0  0  0  0  0  0  0  0  0  0  0
  1  2  1  0
  2  3  1  0
  3  4  1  0
  4  5  1  0
  5  6  1  0
  6  7  1  0
  7  8  1  0
  8  9  1  0
  9 10  1  0
 10 11  1  0
 11 12  1  0
 12 13  1  0
 13 14  1  0
 14 15  1  0
 15 16  1  0
 16 17  1  0
 17 18  1  0
 18 19  1  0
 20 21  1  0
 10 20  1  0
 22 23  1  0
 23 24  1  0
 24 25  1  0
 25 26  1  0
 26 27  1  0
 21 22  1  0
  7 28  2  0
 13 29  2  0
 21 30  2  0
M  END
> <chembl_id>
CHEMBL4297585

> <chembl_pref_name>
TRIHEPTANOIN
