
     RDKit          2D

 21 22  0  0  0  0  0  0  0  0999 V2000
    7.4792   -4.3125    0.0000 N   0  0  0  0  0  0  0  0  0  0  0  0
    3.8042   -5.7417    0.0000 C   0  0  0  0  0  0  0  0  0  0  0  0
    4.4167   -5.3917    0.0000 C   0  0  0  0  0  0  0  0  0  0  0  0
    5.0417   -5.7375    0.0000 N   0  0  0  0  0  0  0  0  0  0  0  0
    6.8667   -4.6667    0.0000 C   0  0  0  0  0  0  0  0  0  0  0  0
    6.2542   -4.3167    0.0000 C   0  0  0  0  0  0  0  0  0  0  0  0
    5.6417   -5.3875    0.0000 C   0  0  0  0  0  0  0  0  0  0  0  0
    5.6417   -4.6792    0.0000 C   0  0  0  0  0  0  0  0  0  0  0  0
    3.1875   -5.3917    0.0000 C   0  0  0  0  0  0  0  0  0  0  0  0
    7.4792   -3.6125    0.0000 O   0  0  0  0  0  0  0  0  0  0  0  0
    3.7917   -6.4542    0.0000 C   0  0  0  0  0  0  0  0  0  0  0  0
    8.1000   -4.6625    0.0000 O   0  0  0  0  0  0  0  0  0  0  0  0
    4.4167   -4.6792    0.0000 O   0  0  0  0  0  0  0  0  0  0  0  0
    6.8792   -5.3875    0.0000 C   0  0  0  0  0  0  0  0  0  0  0  0
    6.2625   -5.7417    0.0000 C   0  0  0  0  0  0  0  0  0  0  0  0
    2.5667   -5.7417    0.0000 C   0  0  0  0  0  0  0  0  0  0  0  0
    3.1917   -6.8042    0.0000 C   0  0  0  0  0  0  0  0  0  0  0  0
    5.0167   -4.3208    0.0000 Cl  0  0  0  0  0  0  0  0  0  0  0  0
    2.5750   -6.4542    0.0000 C   0  0  0  0  0  0  0  0  0  0  0  0
    3.1917   -4.6667    0.0000 O   0  0  0  0  0  0  0  0  0  0  0  0
    3.1917   -7.5250    0.0000 Cl  0  0  0  0  0  0  0  0  0  0  0  0
  2  3  1  0
  3  4  1  0
  4  7  1  0
  5  1  1  0
  6  5  1  0
  7 15  2  0
  8  6  2  0
  9  2  2  0
 10  1  1  0
 11  2  1  0
 12  1  2  0
 13  3  2  0
 14  5  2  0
 15 14  1  0
 16  9  1  0
 17 11  2  0
 18  8  1  0
 19 17  1  0
 20  9  1  0
 21 17  1  0
  8  7  1  0
 19 16  2  0
M  CHG  2   1   1  10  -1
M  END
> <chembl_id>
CHEMBL1448

> <chembl_pref_name>
NICLOSAMIDE
