
     RDKit          2D

 22 25  0  0  0  0  0  0  0  0999 V2000
   -2.6333    0.2625    0.0000 C   0  0  0  0  0  0  0  0  0  0  0  0
   -1.7708   -0.2167    0.0000 N   0  0  0  0  0  0  0  0  0  0  0  0
   -0.0708   -1.2250    0.0000 N   0  0  0  0  0  0  0  0  0  0  0  0
    2.6000    0.1958    0.0000 C   0  0  0  0  0  0  0  0  0  0  0  0
   -3.4875   -0.2167    0.0000 N   0  0  0  0  0  0  0  0  0  0  0  0
   -2.6333    1.2625    0.0000 N   0  0  0  0  0  0  0  0  0  0  0  0
    3.3417   -0.3250    0.0000 C   0  0  0  0  0  0  0  0  0  0  0  0
    2.7292    1.1750    0.0000 O   0  0  0  0  0  0  0  0  0  0  0  0
    4.2292    0.1625    0.0000 O   0  0  0  0  0  0  0  0  0  0  0  0
    3.8250    1.2625    0.0000 C   0  0  0  0  0  0  0  0  0  0  0  0
    1.6542   -0.2667    0.0000 C   0  0  0  0  0  0  0  0  0  0  0  0
   -0.9125    0.2750    0.0000 C   0  0  0  0  0  0  0  0  0  0  0  0
   -1.7708   -1.2125    0.0000 C   0  0  0  0  0  0  0  0  0  0  0  0
    1.6542   -1.2667    0.0000 C   0  0  0  0  0  0  0  0  0  0  0  0
    0.7750   -1.7292    0.0000 C   0  0  0  0  0  0  0  0  0  0  0  0
    3.3542   -1.3542    0.0000 C   0  0  0  0  0  0  0  0  0  0  0  0
   -0.0833   -0.2542    0.0000 C   0  0  0  0  0  0  0  0  0  0  0  0
   -0.9458   -1.7042    0.0000 C   0  0  0  0  0  0  0  0  0  0  0  0
    2.4542   -1.7792    0.0000 C   0  0  0  0  0  0  0  0  0  0  0  0
   -4.3458    1.2625    0.0000 C   0  0  0  0  0  0  0  0  0  0  0  0
   -3.4875    1.7833    0.0000 C   0  0  0  0  0  0  0  0  0  0  0  0
   -4.3458    0.2625    0.0000 C   0  0  0  0  0  0  0  0  0  0  0  0
  2  1  1  0
  3 18  1  0
  4 11  2  0
  5  1  1  0
  6  1  2  0
  7 16  2  0
  8  4  1  0
  9  7  1  0
 10  8  1  0
 11 14  1  0
 12  2  1  0
 13  2  1  0
 14 15  1  0
 15  3  1  0
 16 19  1  0
 17 12  1  0
 18 13  1  0
 19 14  2  0
 20 21  2  0
 21  6  1  0
 22  5  2  0
 22 20  1  0
  3 17  1  0
  4  7  1  0
  9 10  1  0
M  END
> <chembl_id>
CHEMBL1371770

> <chembl_pref_name>
PIRIBEDIL
