
     RDKit          2D

 24 24  0  0  1  0  0  0  0  0999 V2000
   -1.3458   -1.6542    0.0000 C   0  0  0  0  0  0  0  0  0  0  0  0
   -0.6375   -1.6625    0.0000 O   0  0  0  0  0  0  0  0  0  0  0  0
   -1.7000   -2.2667    0.0000 C   0  0  0  0  0  0  0  0  0  0  0  0
   -0.2958   -2.2750    0.0000 C   0  0  0  0  0  0  0  0  0  0  0  0
   -0.6500   -2.8875    0.0000 C   0  0  0  0  0  0  0  0  0  0  0  0
   -1.3583   -2.8792    0.0000 C   0  0  0  0  0  0  0  0  0  0  0  0
   -1.7000   -1.0375    0.0000 C   0  0  0  0  0  0  0  0  0  0  0  0
   -1.3708   -4.1042    0.0000 C   0  0  0  0  0  0  0  0  0  0  0  0
   -1.7208   -3.4875    0.0000 N   0  0  0  0  0  0  0  0  0  0  0  0
    0.4167   -2.2750    0.0000 C   0  0  0  0  0  0  0  0  0  0  0  0
   -2.4125   -2.2500    0.0000 N   0  0  0  0  0  0  0  0  0  0  0  0
   -2.7833   -2.8625    0.0000 C   0  0  0  0  0  0  0  0  0  0  0  0
   -1.7333   -4.7167    0.0000 N   0  0  0  0  0  0  0  0  0  0  0  0
   -1.3375   -0.4250    0.0000 C   0  0  0  0  0  0  0  0  0  0  0  0
    0.7792   -1.6667    0.0000 O   0  0  0  0  0  0  0  0  0  0  0  0
   -2.4375   -3.4792    0.0000 O   0  0  0  0  0  0  0  0  0  0  0  0
   -0.6583   -4.1000    0.0000 N   0  0  0  0  0  0  0  0  0  0  0  0
   -2.4125   -1.0250    0.0000 O   0  0  0  0  0  0  0  0  0  0  0  0
    0.7667   -2.8917    0.0000 O   0  0  0  0  0  0  0  0  0  0  0  0
   -0.6333   -0.4292    0.0000 O   0  0  0  0  0  0  0  0  0  0  0  0
   -1.3250    0.8000    0.0000 O   0  0  0  0  0  0  0  0  0  0  0  0
   -1.6875    0.1875    0.0000 C   0  0  0  0  0  0  0  0  0  0  0  0
   -3.4875   -2.8417    0.0000 C   0  0  0  0  0  0  0  0  0  0  0  0
   -0.9875   -1.0417    0.0000 H   0  0  0  0  0  0  0  0  0  0  0  0
  2  1  1  0
  3  1  1  0
  4  2  1  0
  5  6  1  0
  6  3  1  0
  7  1  1  0
  8  9  1  0
  6  9  1  6
 10  4  1  0
  3 11  1  1
 12 11  1  0
 13  8  2  0
 14  7  1  0
 15 10  2  0
 16 12  2  0
 17  8  1  0
  7 18  1  6
 19 10  1  0
 14 20  1  1
 21 22  1  0
 22 14  1  0
 23 12  1  0
  1 24  1  1
  4  5  2  0
M  END
> <chembl_id>
CHEMBL222813

> <chembl_pref_name>
ZANAMIVIR
