
     RDKit          2D

 18 18  0  0  0  0  0  0  0  0999 V2000
   -1.0585   -2.8698    0.0000 C   0  0  0  0  0  0  0  0  0  0  0  0
   -1.0585   -3.7001    0.0000 C   0  0  0  0  0  0  0  0  0  0  0  0
   -0.3156   -2.4619    0.0000 C   0  0  0  0  0  0  0  0  0  0  0  0
   -1.7626   -2.4619    0.0000 C   0  0  0  0  0  0  0  0  0  0  0  0
   -1.7626   -4.1129    0.0000 C   0  0  0  0  0  0  0  0  0  0  0  0
    2.5493   -2.4813    0.0000 N   0  0  0  0  0  0  0  0  0  0  0  0
   -0.3156   -1.6364    0.0000 O   0  0  0  0  0  0  0  0  0  0  0  0
   -2.4764   -3.6904    0.0000 C   0  0  0  0  0  0  0  0  0  0  0  0
   -0.3447   -4.1129    0.0000 Cl  0  0  0  0  0  0  0  0  0  0  0  0
    0.3836   -2.8698    0.0000 O   0  0  0  0  0  0  0  0  0  0  0  0
   -2.4764   -2.8698    0.0000 C   0  0  0  0  0  0  0  0  0  0  0  0
   -3.2145   -4.1129    0.0000 N   0  0  0  0  0  0  0  0  0  0  0  0
    1.8258   -2.8892    0.0000 C   0  0  0  0  0  0  0  0  0  0  0  0
    1.1120   -2.4619    0.0000 C   0  0  0  0  0  0  0  0  0  0  0  0
    2.5493   -1.6607    0.0000 C   0  0  0  0  0  0  0  0  0  0  0  0
    3.2534   -2.8892    0.0000 C   0  0  0  0  0  0  0  0  0  0  0  0
    1.8355   -1.2431    0.0000 C   0  0  0  0  0  0  0  0  0  0  0  0
    3.9672   -2.4813    0.0000 C   0  0  0  0  0  0  0  0  0  0  0  0
  2  1  1  0
  3  1  1  0
  4  1  2  0
  5  2  2  0
  6 13  1  0
  7  3  2  0
  8 11  2  0
  9  2  1  0
 10  3  1  0
 11  4  1  0
 12  8  1  0
 13 14  1  0
 14 10  1  0
 15  6  1  0
 16  6  1  0
 17 15  1  0
 18 16  1  0
  5  8  1  0
M  END
> <chembl_id>
CHEMBL1179047

> <chembl_pref_name>
CHLOROPROCAINE
