
     RDKit          2D

  8  8  0  0  0  0  0  0  0  0999 V2000
    0.0667    1.3083    0.0000 C   0  0  0  0  0  0  0  0  0  0  0  0
   -1.1708    0.5958    0.0000 C   0  0  0  0  0  0  0  0  0  0  0  0
    1.3042    0.5958    0.0000 C   0  0  0  0  0  0  0  0  0  0  0  0
   -2.4250    1.3083    0.0000 O   0  0  0  0  0  0  0  0  0  0  0  0
    2.5417    1.3250    0.0000 O   0  0  0  0  0  0  0  0  0  0  0  0
    0.0667   -1.5417    0.0000 C   0  0  0  0  0  0  0  0  0  0  0  0
   -1.1708   -0.8292    0.0000 C   0  0  0  0  0  0  0  0  0  0  0  0
    1.3042   -0.8292    0.0000 C   0  0  0  0  0  0  0  0  0  0  0  0
  2  1  1  0
  3  1  2  0
  4  2  1  0
  5  3  1  0
  6  8  2  0
  7  2  2  0
  8  3  1  0
  7  6  1  0
M  END
> <chembl_id>
CHEMBL24147

> <chembl_pref_name>
RESORCINOL
