
     RDKit          2D

 29 31  0  0  0  0  0  0  0  0999 V2000
   -0.9208   -0.7417    0.0000 C   0  0  0  0  0  0  0  0  0  0  0  0
   -1.5333   -0.3792    0.0000 C   0  0  0  0  0  0  0  0  0  0  0  0
   -0.2958   -0.3792    0.0000 C   0  0  0  0  0  0  0  0  0  0  0  0
   -0.9083   -1.4542    0.0000 C   0  0  0  0  0  0  0  0  0  0  0  0
   -1.5333    0.3208    0.0000 C   0  0  0  0  0  0  0  0  0  0  0  0
    0.3167   -0.7417    0.0000 C   0  0  0  0  0  0  0  0  0  0  0  0
   -0.2833    0.3208    0.0000 C   0  0  0  0  0  0  0  0  0  0  0  0
    3.3917    0.2958    0.0000 N   0  0  0  0  0  0  0  0  0  0  0  0
    0.9292    0.3208    0.0000 C   0  0  0  0  0  0  0  0  0  0  0  0
    0.9292   -0.3792    0.0000 C   0  0  0  0  0  0  0  0  0  0  0  0
    0.3292    0.6958    0.0000 C   0  0  0  0  0  0  0  0  0  0  0  0
   -2.1458   -0.7417    0.0000 C   0  0  0  0  0  0  0  0  0  0  0  0
    1.5417    0.6708    0.0000 O   0  0  0  0  0  0  0  0  0  0  0  0
   -3.3583   -0.7542    0.0000 Cl  0  0  0  0  0  0  0  0  0  0  0  0
    2.1542    0.3083    0.0000 C   0  0  0  0  0  0  0  0  0  0  0  0
    2.7917    0.6333    0.0000 C   0  0  0  0  0  0  0  0  0  0  0  0
   -1.5333   -1.8167    0.0000 C   0  0  0  0  0  0  0  0  0  0  0  0
   -2.1333    0.6833    0.0000 C   0  0  0  0  0  0  0  0  0  0  0  0
   -0.9208    0.6833    0.0000 C   0  0  0  0  0  0  0  0  0  0  0  0
   -0.2958   -1.8042    0.0000 C   0  0  0  0  0  0  0  0  0  0  0  0
   -2.7583   -0.3917    0.0000 C   0  0  0  0  0  0  0  0  0  0  0  0
    3.9917    0.6333    0.0000 C   0  0  0  0  0  0  0  0  0  0  0  0
    3.3792   -0.4167    0.0000 C   0  0  0  0  0  0  0  0  0  0  0  0
   -1.5208   -2.5292    0.0000 C   0  0  0  0  0  0  0  0  0  0  0  0
   -2.1333    1.3958    0.0000 C   0  0  0  0  0  0  0  0  0  0  0  0
   -0.9083    1.3958    0.0000 C   0  0  0  0  0  0  0  0  0  0  0  0
   -0.2833   -2.5167    0.0000 C   0  0  0  0  0  0  0  0  0  0  0  0
   -1.5208    1.7458    0.0000 C   0  0  0  0  0  0  0  0  0  0  0  0
   -0.9083   -2.8792    0.0000 C   0  0  0  0  0  0  0  0  0  0  0  0
  2  1  2  0
  3  1  1  0
  4  1  1  0
  5  2  1  0
  6  3  1  0
  7  3  2  0
  8 16  1  0
  9 10  1  0
 10  6  2  0
 11  7  1  0
 12  2  1  0
 13  9  1  0
 14 21  1  0
 15 13  1  0
 16 15  1  0
 17  4  2  0
 18  5  1  0
 19  5  2  0
 20  4  1  0
 21 12  1  0
 22  8  1  0
 23  8  1  0
 24 17  1  0
 25 18  2  0
 26 19  1  0
 27 20  2  0
 28 26  2  0
 29 24  2  0
 11  9  2  0
 27 29  1  0
 25 28  1  0
M  END
> <chembl_id>
CHEMBL1655

> <chembl_pref_name>
TOREMIFENE
