
     RDKit          2D

 21 23  0  0  1  0  0  0  0  0999 V2000
   14.3280   -9.5377    0.0000 N   0  0  0  0  0  0  0  0  0  0  0  0
   13.3051   -8.9472    0.0000 C   0  0  0  0  0  0  0  0  0  0  0  0
   13.3051   -7.7661    0.0000 C   0  0  0  0  0  0  0  0  0  0  0  0
   12.2823   -7.1755    0.0000 C   0  0  0  0  0  0  0  0  0  0  0  0
   11.2594   -7.7661    0.0000 C   0  0  0  0  0  0  0  0  0  0  0  0
   10.2365   -7.1755    0.0000 C   0  0  0  0  0  0  0  0  0  0  0  0
   11.2594   -8.9472    0.0000 N   0  0  0  0  0  0  0  0  0  0  0  0
   10.2365   -9.5377    0.0000 C   0  0  0  0  0  0  0  0  0  0  0  0
   10.2365  -10.7188    0.0000 O   0  0  0  0  0  0  0  0  0  0  0  0
    9.2137   -8.9472    0.0000 C   0  0  0  0  0  0  0  0  0  0  0  0
    8.1908   -9.5377    0.0000 C   0  0  0  0  0  0  0  0  0  0  0  0
   12.2823   -9.5377    0.0000 C   0  0  0  0  0  0  0  0  0  0  0  0
   14.3280  -10.7188    0.0000 C   0  0  0  0  0  0  0  0  0  0  0  0
   13.3051  -11.3094    0.0000 N   0  0  0  0  0  0  0  0  0  0  0  0
   13.3051  -12.4905    0.0000 C   0  0  0  0  0  0  0  0  0  0  0  0
   14.3280  -13.0810    0.0000 N   0  0  0  0  0  0  0  0  0  0  0  0
   15.3509  -12.4905    0.0000 C   0  0  0  0  0  0  0  0  0  0  0  0
   16.4742  -12.8555    0.0000 N   0  0  0  0  0  0  0  0  0  0  0  0
   17.1684  -11.8999    0.0000 C   0  0  0  0  0  0  0  0  0  0  0  0
   16.4742  -10.9444    0.0000 C   0  0  0  0  0  0  0  0  0  0  0  0
   15.3509  -11.3094    0.0000 C   0  0  0  0  0  0  0  0  0  0  0  0
  2  1  1  1
  2  3  1  0
  3  4  1  0
  4  5  1  0
  5  6  1  1
  7  5  1  0
  7  8  1  0
  8  9  2  0
  8 10  1  0
 10 11  2  0
 12  7  1  0
  2 12  1  0
  1 13  1  0
 13 14  1  0
 14 15  2  0
 15 16  1  0
 17 16  2  0
 17 18  1  0
 18 19  1  0
 20 19  2  0
 21 20  1  0
 21 17  1  0
 13 21  2  0
M  END
> <chembl_id>
CHEMBL4085457

> <chembl_pref_name>
RITLECITINIB
