
     RDKit          2D

 33 36  0  0  0  0  0  0  0  0999 V2000
   -2.0330    0.8544    0.0000 Br  0  0  0  0  0  0  0  0  0  0  0  0
   -6.4527    1.4732    0.0000 C   0  0  0  0  0  0  0  0  0  0  0  0
   -7.1671    1.0607    0.0000 C   0  0  0  0  0  0  0  0  0  0  0  0
   -7.1671    0.2357    0.0000 C   0  0  0  0  0  0  0  0  0  0  0  0
   -6.4527   -0.1768    0.0000 C   0  0  0  0  0  0  0  0  0  0  0  0
   -5.7382    0.2357    0.0000 C   0  0  0  0  0  0  0  0  0  0  0  0
   -5.7382    1.0607    0.0000 C   0  0  0  0  0  0  0  0  0  0  0  0
   -5.0237   -0.1768    0.0000 C   0  0  0  0  0  0  0  0  0  0  0  0
   -5.4362   -0.8913    0.0000 C   0  0  0  0  0  0  0  0  0  0  0  0
   -6.1507   -1.3038    0.0000 C   0  0  0  0  0  0  0  0  0  0  0  0
   -6.1507   -2.1288    0.0000 C   0  0  0  0  0  0  0  0  0  0  0  0
   -5.4362   -2.5413    0.0000 C   0  0  0  0  0  0  0  0  0  0  0  0
   -4.7218   -2.1288    0.0000 C   0  0  0  0  0  0  0  0  0  0  0  0
   -4.7218   -1.3038    0.0000 C   0  0  0  0  0  0  0  0  0  0  0  0
   -4.4404   -0.7602    0.0000 O   0  0  0  0  0  0  0  0  0  0  0  0
   -4.3093    0.2357    0.0000 C   0  0  0  0  0  0  0  0  0  0  0  0
   -2.6592    0.2357    0.0000 N   0  0  0  0  0  0  0  0  0  0  0  0
   -3.0717    0.9502    0.0000 C   0  0  0  0  0  0  0  0  0  0  0  0
   -3.8968    0.9502    0.0000 C   0  0  0  0  0  0  0  0  0  0  0  0
   -3.8968   -0.4788    0.0000 C   0  0  0  0  0  0  0  0  0  0  0  0
   -3.0717   -0.4788    0.0000 C   0  0  0  0  0  0  0  0  0  0  0  0
   -3.5948    0.6482    0.0000 C   0  0  0  0  0  0  0  0  0  0  0  0
   -3.3813   -0.1487    0.0000 C   0  0  0  0  0  0  0  0  0  0  0  0
   -1.8342    0.2357    0.0000 C   0  0  0  0  0  0  0  0  0  0  0  0
   -1.4217   -0.4788    0.0000 C   0  0  0  0  0  0  0  0  0  0  0  0
   -0.5967   -0.4788    0.0000 O   0  0  0  0  0  0  0  0  0  0  0  0
   -0.1842   -1.1932    0.0000 C   0  0  0  0  0  0  0  0  0  0  0  0
    0.6408   -1.1932    0.0000 C   0  0  0  0  0  0  0  0  0  0  0  0
    1.0533   -0.4788    0.0000 C   0  0  0  0  0  0  0  0  0  0  0  0
    1.0533   -1.9077    0.0000 C   0  0  0  0  0  0  0  0  0  0  0  0
    1.8783   -1.9077    0.0000 C   0  0  0  0  0  0  0  0  0  0  0  0
    2.2908   -1.1933    0.0000 C   0  0  0  0  0  0  0  0  0  0  0  0
    1.8783   -0.4788    0.0000 C   0  0  0  0  0  0  0  0  0  0  0  0
  2  3  1  0
  2  7  2  0
  3  4  2  0
  4  5  1  0
  5  6  2  0
  6  7  1  0
  6  8  1  0
  8  9  1  0
  9 10  1  0
  9 14  2  0
 10 11  2  0
 11 12  1  0
 12 13  2  0
 13 14  1  0
  8 15  1  0
  8 16  1  0
 19 16  1  0
 16 20  1  0
 17 18  1  0
 17 21  1  0
 18 19  1  0
 20 21  1  0
 16 22  1  0
 22 23  1  0
 23 17  1  0
 17 24  1  0
 24 25  1  0
 25 26  1  0
 26 27  1  0
 27 28  1  0
 29 28  2  0
 28 30  1  0
 29 33  1  0
 30 31  2  0
 31 32  1  0
 32 33  2  0
M  CHG  2   1  -1  17   1
M  END
> <chembl_id>
CHEMBL523299

> <chembl_pref_name>
UMECLIDINIUM BROMIDE
