
     RDKit          2D

 26 30  0  0  1  0  0  0  0  0999 V2000
    2.5250   -5.9917    0.0000 C   0  0  0  0  0  0  0  0  0  0  0  0
    2.8792   -5.3792    0.0000 C   0  0  0  0  0  0  0  0  0  0  0  0
    1.8167   -5.9917    0.0000 C   0  0  0  0  0  0  0  0  0  0  0  0
    2.8667   -6.6042    0.0000 C   0  0  0  0  0  0  0  0  0  0  0  0
    1.4667   -6.6042    0.0000 C   0  0  0  0  0  0  0  0  0  0  0  0
    2.1417   -6.9542    0.0000 O   0  0  0  0  0  0  0  0  0  0  0  0
    2.5292   -4.7750    0.0000 C   0  0  0  0  0  0  0  0  0  0  0  0
    1.4667   -5.3792    0.0000 C   0  0  0  0  0  0  0  0  0  0  0  0
    2.8792   -4.1625    0.0000 N   0  0  0  0  0  0  0  0  0  0  0  0
    1.8167   -4.7667    0.0000 C   0  0  0  0  0  0  0  0  0  0  0  0
    2.1667   -5.3750    0.0000 C   0  0  0  0  0  0  0  0  0  0  0  0
    3.5792   -5.3875    0.0000 C   0  0  0  0  0  0  0  0  0  0  0  0
    3.5750   -6.6042    0.0000 C   0  0  0  0  0  0  0  0  0  0  0  0
    0.7625   -6.6042    0.0000 C   0  0  0  0  0  0  0  0  0  0  0  0
    2.1750   -4.1625    0.0000 C   0  0  0  0  0  0  0  0  0  0  0  0
    0.7625   -5.3792    0.0000 C   0  0  0  0  0  0  0  0  0  0  0  0
    3.9292   -6.0000    0.0000 C   0  0  0  0  0  0  0  0  0  0  0  0
    3.2292   -4.7667    0.0000 O   0  0  0  0  0  0  0  0  0  0  0  0
    3.9250   -7.2250    0.0000 O   0  0  0  0  0  0  0  0  0  0  0  0
    0.4125   -5.9917    0.0000 C   0  0  0  0  0  0  0  0  0  0  0  0
    4.1042   -4.1625    0.0000 C   0  0  0  0  0  0  0  0  0  0  0  0
    4.7250   -3.8042    0.0000 C   0  0  0  0  0  0  0  0  0  0  0  0
    3.4917   -3.8042    0.0000 C   0  0  0  0  0  0  0  0  0  0  0  0
    0.4042   -7.2167    0.0000 O   0  0  0  0  0  0  0  0  0  0  0  0
    2.0323   -3.9072    0.0000 H   0  0  0  0  0  0  0  0  0  0  0  0
    3.0897   -7.5790    0.0000 H   0  0  0  0  0  0  0  0  0  0  0  0
  2  1  1  0
  3  1  1  0
  4  1  1  0
  5  3  1  0
  4  6  1  0
  7  2  1  0
  8  3  2  0
  9 15  1  0
 10  8  1  0
  1 11  1  1
 12  2  1  0
 13  4  1  0
 14  5  2  0
 15 11  1  0
 16  8  1  0
 17 13  1  0
  2 18  1  1
 19 13  2  0
 20 16  2  0
 21 23  1  0
 22 21  2  0
 23  9  1  0
 24 14  1  0
  6  5  1  0
  7  9  1  0
 17 12  1  0
 10  7  1  0
 20 14  1  0
  7 25  1  6
  4 26  1  1
M  END
> <chembl_id>
CHEMBL80

> <chembl_pref_name>
NALOXONE
