
     RDKit          2D

 32 36  0  0  0  0  0  0  0  0999 V2000
    3.4624   -3.8244    0.0000 C   0  0  0  0  0  0  0  0  0  0  0  0
    3.4624   -5.1622    0.0000 C   0  0  0  0  0  0  0  0  0  0  0  0
    4.6113   -5.8232    0.0000 C   0  0  0  0  0  0  0  0  0  0  0  0
    5.7602   -5.1622    0.0000 C   0  0  0  0  0  0  0  0  0  0  0  0
    5.7602   -3.8244    0.0000 C   0  0  0  0  0  0  0  0  0  0  0  0
    4.6113   -3.1634    0.0000 N   0  0  0  0  0  0  0  0  0  0  0  0
    2.2978   -5.8232    0.0000 N   0  0  0  0  0  0  0  0  0  0  0  0
    1.1489   -5.1622    0.0000 C   0  0  0  0  0  0  0  0  0  0  0  0
    0.0000   -5.8232    0.0000 C   0  0  0  0  0  0  0  0  0  0  0  0
    0.0000   -7.1609    0.0000 N   0  0  0  0  0  0  0  0  0  0  0  0
    1.1489   -7.8220    0.0000 C   0  0  0  0  0  0  0  0  0  0  0  0
    2.2978   -7.1609    0.0000 C   0  0  0  0  0  0  0  0  0  0  0  0
    6.9091   -3.1634    0.0000 N   0  0  0  0  0  0  0  0  0  0  0  0
    8.0738   -3.8244    0.0000 C   0  0  0  0  0  0  0  0  0  0  0  0
    8.0738   -5.1622    0.0000 N   0  0  0  0  0  0  0  0  0  0  0  0
    9.2227   -5.8232    0.0000 C   0  0  0  0  0  0  0  0  0  0  0  0
   10.3716   -5.1622    0.0000 C   0  0  0  0  0  0  0  0  0  0  0  0
   10.3716   -3.8244    0.0000 C   0  0  0  0  0  0  0  0  0  0  0  0
    9.2227   -3.1634    0.0000 N   0  0  0  0  0  0  0  0  0  0  0  0
   11.6464   -5.5714    0.0000 C   0  0  0  0  0  0  0  0  0  0  0  0
   12.4175   -4.5012    0.0000 C   0  0  0  0  0  0  0  0  0  0  0  0
   11.6464   -3.4152    0.0000 N   0  0  0  0  0  0  0  0  0  0  0  0
   12.0556   -2.1562    0.0000 C   0  0  0  0  0  0  0  0  0  0  0  0
   13.3146   -1.7470    0.0000 C   0  0  0  0  0  0  0  0  0  0  0  0
   13.3146   -0.4092    0.0000 C   0  0  0  0  0  0  0  0  0  0  0  0
   12.0556    0.0000    0.0000 C   0  0  0  0  0  0  0  0  0  0  0  0
   11.2687   -1.0859    0.0000 C   0  0  0  0  0  0  0  0  0  0  0  0
   13.7553   -4.5012    0.0000 C   0  0  0  0  0  0  0  0  0  0  0  0
   14.4163   -3.3523    0.0000 O   0  0  0  0  0  0  0  0  0  0  0  0
   14.4163   -5.6501    0.0000 N   0  0  0  0  0  0  0  0  0  0  0  0
   13.7553   -6.7990    0.0000 C   0  0  0  0  0  0  0  0  0  0  0  0
   15.7383   -5.6501    0.0000 C   0  0  0  0  0  0  0  0  0  0  0  0
  1  2  2  0
  1  6  1  0
  2  3  1  0
  2  7  1  0
  3  4  2  0
  4  5  1  0
  5  6  2  0
  5 13  1  0
  7  8  1  0
  7 12  1  0
  8  9  1  0
  9 10  1  0
 10 11  1  0
 11 12  1  0
 13 14  1  0
 14 15  2  0
 14 19  1  0
 15 16  1  0
 16 17  2  0
 17 18  1  0
 17 20  1  0
 18 19  2  0
 18 22  1  0
 20 21  2  0
 21 22  1  0
 21 28  1  0
 22 23  1  0
 23 24  1  0
 23 27  1  0
 24 25  1  0
 25 26  1  0
 26 27  1  0
 28 29  2  0
 28 30  1  0
 30 31  1  0
 30 32  1  0
M  END
> <chembl_id>
CHEMBL3545110

> <chembl_pref_name>
RIBOCICLIB
