
     RDKit          2D

 39 45  0  0  1  0  0  0  0  0999 V2000
   -5.1528   -2.4367    0.0000 S   0  0  0  0  0  0  0  0  0  0  0  0
    1.6545    0.2977    0.0000 O   0  0  0  0  0  0  0  0  0  0  0  0
    0.2064    2.8059    0.0000 O   0  0  0  0  0  0  0  0  0  0  0  0
    0.7355    1.4392    0.0000 N   0  0  0  0  0  0  0  0  0  0  0  0
   -2.1225   -0.2108    0.0000 N   0  0  0  0  0  0  0  0  0  0  0  0
   -3.5515   -1.0359    0.0000 N   0  0  0  0  0  0  0  0  0  0  0  0
   -4.3510   -2.2641    0.0000 N   0  0  0  0  0  0  0  0  0  0  0  0
    2.0347    1.7130    0.0000 C   0  0  0  0  0  0  0  0  0  0  0  0
    1.6222    2.4276    0.0000 C   0  0  0  0  0  0  0  0  0  0  0  0
    1.4844    1.1050    0.0000 C   0  0  0  0  0  0  0  0  0  0  0  0
    0.8205    2.2550    0.0000 C   0  0  0  0  0  0  0  0  0  0  0  0
    0.0210    1.0267    0.0000 C   0  0  0  0  0  0  0  0  0  0  0  0
   -0.6935    1.4392    0.0000 C   0  0  0  0  0  0  0  0  0  0  0  0
   -1.4080    1.0267    0.0000 C   0  0  0  0  0  0  0  0  0  0  0  0
   -0.6935    2.2642    0.0000 C   0  0  0  0  0  0  0  0  0  0  0  0
   -2.1225    1.4392    0.0000 C   0  0  0  0  0  0  0  0  0  0  0  0
   -1.4080    2.6767    0.0000 C   0  0  0  0  0  0  0  0  0  0  0  0
   -1.4080    0.2017    0.0000 C   0  0  0  0  0  0  0  0  0  0  0  0
   -2.1225    2.2642    0.0000 C   0  0  0  0  0  0  0  0  0  0  0  0
   -2.1225   -1.0359    0.0000 C   0  0  0  0  0  0  0  0  0  0  0  0
   -2.8370    0.2017    0.0000 C   0  0  0  0  0  0  0  0  0  0  0  0
   -2.8370   -1.4484    0.0000 C   0  0  0  0  0  0  0  0  0  0  0  0
   -3.5515   -0.2108    0.0000 C   0  0  0  0  0  0  0  0  0  0  0  0
   -4.2660   -1.4484    0.0000 C   0  0  0  0  0  0  0  0  0  0  0  0
   -5.0149   -1.1141    0.0000 C   0  0  0  0  0  0  0  0  0  0  0  0
   -5.5659   -1.7281    0.0000 C   0  0  0  0  0  0  0  0  0  0  0  0
   -5.2712   -0.3299    0.0000 C   0  0  0  0  0  0  0  0  0  0  0  0
   -6.3731   -1.5580    0.0000 C   0  0  0  0  0  0  0  0  0  0  0  0
   -6.0785   -0.1598    0.0000 C   0  0  0  0  0  0  0  0  0  0  0  0
   -6.6295   -0.7738    0.0000 C   0  0  0  0  0  0  0  0  0  0  0  0
    2.0348    3.1419    0.0000 C   0  0  0  0  0  0  0  0  0  0  0  0
    2.8598    3.1419    0.0000 C   0  0  0  0  0  0  0  0  0  0  0  0
    3.2723    2.4274    0.0000 C   0  0  0  0  0  0  0  0  0  0  0  0
    2.8597    1.7129    0.0000 C   0  0  0  0  0  0  0  0  0  0  0  0
    2.6182    2.5586    0.0000 C   0  0  0  0  0  0  0  0  0  0  0  0
    2.3598    2.5790    0.0000 H   0  0  0  0  0  0  0  0  0  0  0  0
    2.5347    2.2758    0.0000 H   0  0  0  0  0  0  0  0  0  0  0  0
    1.0334    3.2359    0.0000 H   0  0  0  0  0  0  0  0  0  0  0  0
    2.4402    0.7989    0.0000 H   0  0  0  0  0  0  0  0  0  0  0  0
  1  7  1  0
  1 26  1  0
  2 10  2  0
  3 11  2  0
  4 10  1  0
  4 11  1  0
  4 12  1  0
  5 18  1  0
  5 20  1  0
  5 21  1  0
  6 22  1  0
  6 23  1  0
  6 24  1  0
  7 24  2  0
  8 10  1  0
  9 11  1  0
 13 12  1  1
 13 14  1  0
 13 15  1  0
 14 16  1  0
 14 18  1  6
 15 17  1  0
 16 19  1  0
 17 19  1  0
 20 22  1  0
 21 23  1  0
 24 25  1  0
 25 26  1  0
 25 27  2  0
 26 28  2  0
 27 29  1  0
 28 30  1  0
 29 30  2  0
 34  8  1  0
  8  9  1  0
  9 31  1  0
 31 32  1  0
 32 33  1  0
 33 34  1  0
 31 35  1  0
 34 35  1  0
 34 36  1  1
 31 37  1  1
  9 38  1  6
  8 39  1  6
M  END
> <chembl_id>
CHEMBL1237021

> <chembl_pref_name>
LURASIDONE
