
     RDKit          2D

 19 20  0  0  0  0  0  0  0  0999 V2000
   -7.3475   -1.0944    0.0000 O   0  0  0  0  0  0  0  0  0  0  0  0
   -6.8477   -0.4380    0.0000 S   0  0  0  0  0  0  0  0  0  0  0  0
   -7.5041    0.0617    0.0000 O   0  0  0  0  0  0  0  0  0  0  0  0
   -6.1913   -0.9378    0.0000 O   0  0  0  0  0  0  0  0  0  0  0  0
   -6.3479    0.2184    0.0000 O   0  0  0  0  0  0  0  0  0  0  0  0
   -5.5296    0.1137    0.0000 N   0  0  0  0  0  0  0  0  0  0  0  0
   -5.0802    0.8056    0.0000 C   0  0  0  0  0  0  0  0  0  0  0  0
   -4.2591    0.8857    0.0000 N   0  0  0  0  0  0  0  0  0  0  0  0
   -5.2688   -0.6690    0.0000 C   0  0  0  0  0  0  0  0  0  0  0  0
   -3.6846    0.2937    0.0000 C   0  0  0  0  0  0  0  0  0  0  0  0
   -4.4942   -0.9531    0.0000 C   0  0  0  0  0  0  0  0  0  0  0  0
   -4.5696   -0.0178    0.0000 C   0  0  0  0  0  0  0  0  0  0  0  0
   -3.7892   -0.5246    0.0000 C   0  0  0  0  0  0  0  0  0  0  0  0
   -3.0973   -0.9740    0.0000 C   0  0  0  0  0  0  0  0  0  0  0  0
   -5.2968   -1.4935    0.0000 H   0  0  0  0  0  0  0  0  0  0  0  0
   -5.5087    1.5107    0.0000 O   0  0  0  0  0  0  0  0  0  0  0  0
   -2.9019    0.5545    0.0000 C   0  0  0  0  0  0  0  0  0  0  0  0
   -2.2847    0.0071    0.0000 O   0  0  0  0  0  0  0  0  0  0  0  0
   -2.7364    1.3627    0.0000 N   0  0  0  0  0  0  0  0  0  0  0  0
  1  2  1  0
  2  3  2  0
  2  4  2  0
  2  5  1  0
  5  6  1  0
  6  7  1  0
  7  8  1  0
  6  9  1  0
  8 10  1  0
  9 11  1  0
  8 12  1  0
 12  9  1  0
 10 13  1  0
 13 11  2  0
 13 14  1  0
  9 15  1  6
  7 16  2  0
 10 17  1  6
 17 18  2  0
 17 19  1  0
M  END
> <chembl_id>
CHEMBL4298137

> <chembl_pref_name>
DURLOBACTAM
