
     RDKit          2D

 29 31  0  0  0  0  0  0  0  0999 V2000
    1.5110   -5.5174    0.0000 Br  0  0  0  0  0  0  0  0  0  0  0  0
    1.3101   -6.7369    0.0000 O   0  0  0  0  0  0  0  0  0  0  0  0
    0.8969   -7.4509    0.0000 C   0  0  0  0  0  0  0  0  0  0  0  0
    0.0719   -7.4501    0.0000 O   0  0  0  0  0  0  0  0  0  0  0  0
    1.3087   -8.1658    0.0000 C   0  0  0  0  0  0  0  0  0  0  0  0
    0.8955   -8.8799    0.0000 C   0  0  0  0  0  0  0  0  0  0  0  0
    1.3073   -9.5948    0.0000 C   0  0  0  0  0  0  0  0  0  0  0  0
    0.8941  -10.3088    0.0000 C   0  0  0  0  0  0  0  0  0  0  0  0
    0.0691  -10.3080    0.0000 C   0  0  0  0  0  0  0  0  0  0  0  0
   -0.3427   -9.5931    0.0000 C   0  0  0  0  0  0  0  0  0  0  0  0
    0.0705   -8.8791    0.0000 C   0  0  0  0  0  0  0  0  0  0  0  0
    2.1337   -8.1666    0.0000 C   0  0  0  0  0  0  0  0  0  0  0  0
    2.5455   -8.8815    0.0000 O   0  0  0  0  0  0  0  0  0  0  0  0
    0.4851   -6.7369    0.0000 C   0  0  0  0  0  0  0  0  0  0  0  0
    0.0726   -6.0224    0.0000 C   0  0  0  0  0  0  0  0  0  0  0  0
   -0.7243   -6.2359    0.0000 C   0  0  0  0  0  0  0  0  0  0  0  0
   -0.3118   -6.5234    0.0000 C   0  0  0  0  0  0  0  0  0  0  0  0
   -1.0263   -6.9359    0.0000 C   0  0  0  0  0  0  0  0  0  0  0  0
   -0.9378   -5.4390    0.0000 N   0  0  0  0  0  0  0  0  0  0  0  0
   -1.7407   -6.5234    0.0000 C   0  0  0  0  0  0  0  0  0  0  0  0
   -1.5212   -6.0224    0.0000 C   0  0  0  0  0  0  0  0  0  0  0  0
   -2.3241   -5.9400    0.0000 O   0  0  0  0  0  0  0  0  0  0  0  0
   -1.5212   -4.8557    0.0000 C   0  0  0  0  0  0  0  0  0  0  0  0
   -0.7243   -4.6422    0.0000 C   0  0  0  0  0  0  0  0  0  0  0  0
    0.0726   -4.4286    0.0000 C   0  0  0  0  0  0  0  0  0  0  0  0
   -0.5420   -5.4547    0.0000 H   0  0  0  0  0  0  0  0  0  0  0  0
   -1.1540   -7.3948    0.0000 H   0  0  0  0  0  0  0  0  0  0  0  0
   -1.5746   -5.4922    0.0000 H   0  0  0  0  0  0  0  0  0  0  0  0
   -1.9344   -6.9884    0.0000 H   0  0  0  0  0  0  0  0  0  0  0  0
  2  3  1  0
  3  4  2  0
  3  5  1  0
  5  6  1  0
  6  7  2  0
  7  8  1  0
  8  9  2  0
  9 10  1  0
 10 11  2  0
  6 11  1  0
  5 12  1  6
 12 13  1  0
 14  2  1  0
 14 15  1  0
 15 16  1  0
 14 17  1  0
 17 18  1  0
 16 19  1  0
 18 20  1  0
 16 21  1  0
 21 20  1  0
 20 22  1  0
 21 22  1  0
 19 23  1  0
 19 24  1  0
 24 25  1  0
 16 26  1  6
 18 27  1  1
 21 28  1  6
 20 29  1  6
 19 18  1  0
M  CHG  2   1  -1  19   1
M  END
> <chembl_id>
CHEMBL4297109

> <chembl_pref_name>
OXITROPIUM BROMIDE
