
     RDKit          2D

 23 23  0  0  0  0  0  0  0  0999 V2000
    3.9292   -2.8750    0.0000 Cl  0  0  0  0  0  0  0  0  0  0  0  0
    3.7250   -1.2167    0.0000 C   0  0  0  0  0  0  0  0  0  0  0  0
    4.3250   -0.8625    0.0000 C   0  0  0  0  0  0  0  0  0  0  0  0
    0.6792   -2.3167    0.0000 C   0  0  0  0  0  0  0  0  0  0  0  0
    0.0500   -2.6667    0.0000 C   0  0  0  0  0  0  0  0  0  0  0  0
    0.6792   -1.6042    0.0000 C   0  0  0  0  0  0  0  0  0  0  0  0
    3.1167   -1.5750    0.0000 C   0  0  0  0  0  0  0  0  0  0  0  0
    4.9292   -0.5042    0.0000 C   0  0  0  0  0  0  0  0  0  0  0  0
    2.5083   -1.2375    0.0000 C   0  0  0  0  0  0  0  0  0  0  0  0
    1.2917   -1.2417    0.0000 N   0  0  0  0  0  0  0  0  0  0  0  0
    0.0500   -3.3792    0.0000 C   0  0  0  0  0  0  0  0  0  0  0  0
    1.3042   -2.6667    0.0000 C   0  0  0  0  0  0  0  0  0  0  0  0
    1.9125   -1.5917    0.0000 C   0  0  0  0  0  0  0  0  0  0  0  0
    1.3042   -3.3792    0.0000 C   0  0  0  0  0  0  0  0  0  0  0  0
   -0.5750   -2.3167    0.0000 C   0  0  0  0  0  0  0  0  0  0  0  0
    0.6792   -3.7417    0.0000 C   0  0  0  0  0  0  0  0  0  0  0  0
    5.2500    0.1583    0.0000 C   0  0  0  0  0  0  0  0  0  0  0  0
    5.5375   -0.8417    0.0000 C   0  0  0  0  0  0  0  0  0  0  0  0
    4.7000    0.1750    0.0000 C   0  0  0  0  0  0  0  0  0  0  0  0
    1.2917   -0.5500    0.0000 C   0  0  0  0  0  0  0  0  0  0  0  0
   -0.5750   -3.7417    0.0000 C   0  0  0  0  0  0  0  0  0  0  0  0
   -1.2000   -2.6667    0.0000 C   0  0  0  0  0  0  0  0  0  0  0  0
   -1.2000   -3.3792    0.0000 C   0  0  0  0  0  0  0  0  0  0  0  0
  3  2  3  0
  4  6  1  0
  5  4  2  0
  6 10  1  0
  7  2  1  0
  8  3  1  0
  9  7  2  0
 10 13  1  0
 11  5  1  0
 12  4  1  0
 13  9  1  0
 14 12  2  0
 15  5  1  0
 16 14  1  0
 17  8  1  0
 18  8  1  0
 19  8  1  0
 20 10  1  0
 21 11  1  0
 22 15  2  0
 23 22  1  0
 11 16  2  0
 21 23  2  0
M  END
> <chembl_id>
CHEMBL1200832

> <chembl_pref_name>
TERBINAFINE HYDROCHLORIDE
