
     RDKit          2D

 16 16  0  0  0  0  0  0  0  0999 V2000
   -3.3333    0.0000    0.0000 C   0  0  0  0  0  0  0  0  0  0  0  0
   -2.3583   -0.5167    0.0000 C   0  0  0  0  0  0  0  0  0  0  0  0
   -1.4083    0.0500    0.0000 C   0  0  0  0  0  0  0  0  0  0  0  0
   -0.4333   -0.4625    0.0000 C   0  0  0  0  0  0  0  0  0  0  0  0
   -4.0958   -0.8000    0.0000 F   0  0  0  0  0  0  0  0  0  0  0  0
   -2.7333    0.9208    0.0000 F   0  0  0  0  0  0  0  0  0  0  0  0
   -4.2083    0.6708    0.0000 F   0  0  0  0  0  0  0  0  0  0  0  0
    0.4917    0.1125    0.0000 C   0  0  0  0  0  0  0  0  0  0  0  0
    2.4125    0.1708    0.0000 N   0  0  0  0  0  0  0  0  0  0  0  0
   -2.3208   -1.6292    0.0000 C   0  0  0  0  0  0  0  0  0  0  0  0
    1.4667   -0.4000    0.0000 C   0  0  0  0  0  0  0  0  0  0  0  0
   -1.3458   -2.1542    0.0000 C   0  0  0  0  0  0  0  0  0  0  0  0
   -0.4000   -1.5667    0.0000 C   0  0  0  0  0  0  0  0  0  0  0  0
    3.3917   -0.3375    0.0000 C   0  0  0  0  0  0  0  0  0  0  0  0
    1.5042   -1.5042    0.0000 C   0  0  0  0  0  0  0  0  0  0  0  0
    4.3417    0.2375    0.0000 C   0  0  0  0  0  0  0  0  0  0  0  0
  2  1  1  0
  3  2  1  0
  4  3  2  0
  5  1  1  0
  6  1  1  0
  7  1  1  0
  8  4  1  0
  9 11  1  0
 10  2  2  0
 11  8  1  0
 12 10  1  0
 13 12  2  0
 14  9  1  0
 15 11  1  0
 16 14  1  0
  4 13  1  0
M  END
> <chembl_id>
CHEMBL87493

> <chembl_pref_name>
FENFLURAMINE
