
     RDKit          2D

 46 49  0  0  0  0  0  0  0  0999 V2000
    3.2762    0.5571    0.0000 C   0  0  0  0  0  0  0  0  0  0  0  0
    4.1012    0.5571    0.0000 C   0  0  0  0  0  0  0  0  0  0  0  0
    3.6887    1.2716    0.0000 C   0  0  0  0  0  0  0  0  0  0  0  0
    4.8156    0.9696    0.0000 C   0  0  0  0  0  0  0  0  0  0  0  0
    4.1012   -0.2679    0.0000 O   0  0  0  0  0  0  0  0  0  0  0  0
    3.3867   -0.6804    0.0000 N   0  0  0  0  0  0  0  0  0  0  0  0
    3.3867   -1.5054    0.0000 C   0  0  0  0  0  0  0  0  0  0  0  0
    2.8033   -2.0887    0.0000 C   0  0  0  0  0  0  0  0  0  0  0  0
    1.9829   -2.0025    0.0000 N   0  0  0  0  0  0  0  0  0  0  0  0
    1.6473   -2.7562    0.0000 S   0  0  0  0  0  0  0  0  0  0  0  0
    2.2604   -3.3082    0.0000 C   0  0  0  0  0  0  0  0  0  0  0  0
    2.9749   -2.8957    0.0000 N   0  0  0  0  0  0  0  0  0  0  0  0
    2.0469   -4.1051    0.0000 N   0  0  0  0  0  0  0  0  0  0  0  0
    4.1012   -1.9179    0.0000 C   0  0  0  0  0  0  0  0  0  0  0  0
    4.1012   -2.7429    0.0000 O   0  0  0  0  0  0  0  0  0  0  0  0
    4.8156   -1.5054    0.0000 N   0  0  0  0  0  0  0  0  0  0  0  0
    5.6406   -1.5054    0.0000 C   0  0  0  0  0  0  0  0  0  0  0  0
    5.6406   -0.6804    0.0000 C   0  0  0  0  0  0  0  0  0  0  0  0
    4.9262   -0.2679    0.0000 O   0  0  0  0  0  0  0  0  0  0  0  0
    6.4656   -1.5054    0.0000 C   0  0  0  0  0  0  0  0  0  0  0  0
    7.1801   -0.2679    0.0000 C   0  0  0  0  0  0  0  0  0  0  0  0
    6.4656   -0.6804    0.0000 N   0  0  0  0  0  0  0  0  0  0  0  0
    7.1801   -1.9179    0.0000 S   0  0  0  0  0  0  0  0  0  0  0  0
    7.8946   -1.5054    0.0000 C   0  0  0  0  0  0  0  0  0  0  0  0
    7.8946   -0.6804    0.0000 C   0  0  0  0  0  0  0  0  0  0  0  0
    7.1801    0.5571    0.0000 C   0  0  0  0  0  0  0  0  0  0  0  0
    8.6091   -0.2679    0.0000 C   0  0  0  0  0  0  0  0  0  0  0  0
    9.3235   -0.6804    0.0000 N   0  0  0  0  0  0  0  0  0  0  0  0
   10.1440   -0.5941    0.0000 C   0  0  0  0  0  0  0  0  0  0  0  0
    9.1520   -1.4873    0.0000 N   0  0  0  0  0  0  0  0  0  0  0  0
    9.8665   -1.8998    0.0000 C   0  0  0  0  0  0  0  0  0  0  0  0
   10.4795   -1.3478    0.0000 C   0  0  0  0  0  0  0  0  0  0  0  0
    8.5686   -2.0707    0.0000 C   0  0  0  0  0  0  0  0  0  0  0  0
    9.9549   -2.7027    0.0000 N   0  0  0  0  0  0  0  0  0  0  0  0
   11.3045   -1.3478    0.0000 N   0  0  0  0  0  0  0  0  0  0  0  0
   11.7170   -0.6333    0.0000 C   0  0  0  0  0  0  0  0  0  0  0  0
   11.3045    0.0812    0.0000 O   0  0  0  0  0  0  0  0  0  0  0  0
   12.5420   -0.6333    0.0000 N   0  0  0  0  0  0  0  0  0  0  0  0
   12.9545    0.0812    0.0000 C   0  0  0  0  0  0  0  0  0  0  0  0
   13.7795    0.0812    0.0000 C   0  0  0  0  0  0  0  0  0  0  0  0
   14.1920    0.7956    0.0000 N   0  0  0  0  0  0  0  0  0  0  0  0
    4.8156    1.7946    0.0000 O   0  0  0  0  0  0  0  0  0  0  0  0
    5.5301    0.5571    0.0000 O   0  0  0  0  0  0  0  0  0  0  0  0
    6.5967    1.1405    0.0000 O   0  0  0  0  0  0  0  0  0  0  0  0
    7.8946    0.9696    0.0000 O   0  0  0  0  0  0  0  0  0  0  0  0
    6.2068   -2.4713    0.0000 H   0  0  0  0  0  0  0  0  0  0  0  0
  1  2  1  0
  2  3  1  0
  2  4  1  0
  2  5  1  0
  5  6  1  0
  6  7  2  0
  7  8  1  0
 12  8  1  0
  9  8  2  0
  9 10  1  0
 10 11  1  0
 11 12  2  0
 11 13  1  0
  7 14  1  0
 14 15  2  0
 14 16  1  0
 17 18  1  0
 18 19  2  0
 17 20  1  0
 22 20  1  0
 20 23  1  0
 21 22  1  0
 21 25  2  0
 23 24  1  0
 24 25  1  0
 18 22  1  0
 21 26  1  0
 25 27  1  0
 27 28  1  0
 29 28  2  0
 28 30  1  0
 29 32  1  0
 30 31  1  0
 31 32  2  0
 30 33  1  0
 31 34  1  0
 32 35  1  0
 35 36  1  0
 36 37  2  0
 36 38  1  0
 38 39  1  0
 39 40  1  0
 40 41  1  0
 17 16  1  6
  4 42  1  0
  4 43  2  0
 26 44  2  0
 26 45  1  0
 20 46  1  1
M  CHG  2  28   1  42  -1
M  END
> <chembl_id>
CHEMBL2103872

> <chembl_pref_name>
CEFTOLOZANE
