
     RDKit          2D

 33 35  0  0  0  0  0  0  0  0999 V2000
    0.4125   -6.2759    0.0000 O   0  0  0  0  0  0  0  0  0  0  0  0
    0.6261   -2.9464    0.0000 C   0  0  0  0  0  0  0  0  0  0  0  0
   -0.0884   -2.5339    0.0000 C   0  0  0  0  0  0  0  0  0  0  0  0
   -0.8029   -2.9464    0.0000 C   0  0  0  0  0  0  0  0  0  0  0  0
   -0.8029   -3.7714    0.0000 C   0  0  0  0  0  0  0  0  0  0  0  0
   -0.0884   -4.1839    0.0000 C   0  0  0  0  0  0  0  0  0  0  0  0
    0.6261   -3.7714    0.0000 N   0  0  0  0  0  0  0  0  0  0  0  0
    1.3406   -2.5339    0.0000 C   0  0  0  0  0  0  0  0  0  0  0  0
    2.0551   -2.9464    0.0000 C   0  0  0  0  0  0  0  0  0  0  0  0
    2.0550   -3.7714    0.0000 C   0  0  0  0  0  0  0  0  0  0  0  0
    1.3406   -4.1839    0.0000 C   0  0  0  0  0  0  0  0  0  0  0  0
    2.7695   -4.1839    0.0000 O   0  0  0  0  0  0  0  0  0  0  0  0
    2.7695   -2.5339    0.0000 H   0  0  0  0  0  0  0  0  0  0  0  0
    0.6261   -2.1214    0.0000 H   0  0  0  0  0  0  0  0  0  0  0  0
   -0.0884   -5.0089    0.0000 H   0  0  0  0  0  0  0  0  0  0  0  0
   -1.5173   -2.5339    0.0000 O   0  0  0  0  0  0  0  0  0  0  0  0
   -2.2318   -2.9464    0.0000 C   0  0  0  0  0  0  0  0  0  0  0  0
   -2.9463   -2.5339    0.0000 C   0  0  0  0  0  0  0  0  0  0  0  0
   -2.2318   -3.7714    0.0000 O   0  0  0  0  0  0  0  0  0  0  0  0
   -3.0325   -1.7135    0.0000 C   0  0  0  0  0  0  0  0  0  0  0  0
   -3.8395   -1.5419    0.0000 N   0  0  0  0  0  0  0  0  0  0  0  0
   -4.2520   -2.2564    0.0000 C   0  0  0  0  0  0  0  0  0  0  0  0
   -3.7000   -2.8695    0.0000 C   0  0  0  0  0  0  0  0  0  0  0  0
   -5.0590   -2.4279    0.0000 C   0  0  0  0  0  0  0  0  0  0  0  0
   -5.3139   -3.2125    0.0000 C   0  0  0  0  0  0  0  0  0  0  0  0
   -4.7619   -3.8256    0.0000 C   0  0  0  0  0  0  0  0  0  0  0  0
   -3.9549   -3.6541    0.0000 C   0  0  0  0  0  0  0  0  0  0  0  0
   -0.3019   -3.3870    0.0000 C   0  0  0  0  0  0  0  0  0  0  0  0
   -3.5357   -5.5688    0.0000 S   0  0  0  0  0  0  0  0  0  0  0  0
   -3.9482   -4.8543    0.0000 O   0  0  0  0  0  0  0  0  0  0  0  0
   -2.9524   -4.9854    0.0000 O   0  0  0  0  0  0  0  0  0  0  0  0
   -4.2502   -5.9813    0.0000 O   0  0  0  0  0  0  0  0  0  0  0  0
   -2.9524   -6.1521    0.0000 C   0  0  0  0  0  0  0  0  0  0  0  0
  2  3  1  0
  3  4  1  0
  4  5  1  0
  5  6  1  0
  6  7  1  0
  2  8  1  0
  7  2  1  0
 11  7  1  0
  8  9  1  0
  9 10  1  0
 10 11  1  0
 10 12  2  0
  9 13  1  1
  2 14  1  1
  6 15  1  6
  4 16  1  6
 16 17  1  0
 17 18  1  0
 17 19  2  0
 18 20  2  0
 18 23  1  0
 20 21  1  0
 21 22  1  0
 22 24  1  0
 23 22  2  0
 27 23  1  0
 24 25  2  0
 25 26  1  0
 26 27  2  0
  6 28  1  0
  9 28  1  0
 29 30  2  0
 29 31  2  0
 29 32  1  0
 29 33  1  0
M  END
> <chembl_id>
CHEMBL2368924

> <chembl_pref_name>
DOLASETRON MESYLATE
