
     RDKit          2D

 33 35  0  0  0  0  0  0  0  0999 V2000
    4.9417   -5.9500    0.0000 S   0  0  0  0  0  0  0  0  0  0  0  0
    5.5542   -6.3000    0.0000 N   0  0  0  0  0  0  0  0  0  0  0  0
    0.0417   -7.3833    0.0000 C   0  0  0  0  0  0  0  0  0  0  0  0
    6.1667   -5.9417    0.0000 C   0  0  0  0  0  0  0  0  0  0  0  0
    0.6542   -7.0250    0.0000 C   0  0  0  0  0  0  0  0  0  0  0  0
    4.3292   -6.3083    0.0000 C   0  0  0  0  0  0  0  0  0  0  0  0
    5.2917   -5.3292    0.0000 O   0  0  0  0  0  0  0  0  0  0  0  0
    4.5792   -5.3292    0.0000 O   0  0  0  0  0  0  0  0  0  0  0  0
    0.0417   -8.0958    0.0000 C   0  0  0  0  0  0  0  0  0  0  0  0
    6.7833   -6.2958    0.0000 N   0  0  0  0  0  0  0  0  0  0  0  0
   -0.5708   -7.0292    0.0000 C   0  0  0  0  0  0  0  0  0  0  0  0
    6.1625   -5.2375    0.0000 O   0  0  0  0  0  0  0  0  0  0  0  0
    0.6500   -6.3167    0.0000 O   0  0  0  0  0  0  0  0  0  0  0  0
    1.2667   -7.3792    0.0000 N   0  0  0  0  0  0  0  0  0  0  0  0
    3.7083   -5.9542    0.0000 C   0  0  0  0  0  0  0  0  0  0  0  0
    4.3292   -7.0167    0.0000 C   0  0  0  0  0  0  0  0  0  0  0  0
   -0.5708   -8.4500    0.0000 C   0  0  0  0  0  0  0  0  0  0  0  0
   -1.1833   -7.3875    0.0000 C   0  0  0  0  0  0  0  0  0  0  0  0
   -1.1833   -8.0958    0.0000 C   0  0  0  0  0  0  0  0  0  0  0  0
    3.1000   -6.3125    0.0000 C   0  0  0  0  0  0  0  0  0  0  0  0
    3.7167   -7.3708    0.0000 C   0  0  0  0  0  0  0  0  0  0  0  0
    3.1083   -7.0167    0.0000 C   0  0  0  0  0  0  0  0  0  0  0  0
   -1.7958   -7.0292    0.0000 Cl  0  0  0  0  0  0  0  0  0  0  0  0
    7.3958   -5.9375    0.0000 C   0  0  0  0  0  0  0  0  0  0  0  0
    0.6583   -8.4500    0.0000 O   0  0  0  0  0  0  0  0  0  0  0  0
    1.8792   -7.0208    0.0000 C   0  0  0  0  0  0  0  0  0  0  0  0
    2.4958   -7.3750    0.0000 C   0  0  0  0  0  0  0  0  0  0  0  0
    0.6583   -9.1583    0.0000 C   0  0  0  0  0  0  0  0  0  0  0  0
    8.0083   -6.2917    0.0000 C   0  0  0  0  0  0  0  0  0  0  0  0
    7.3875   -5.2292    0.0000 C   0  0  0  0  0  0  0  0  0  0  0  0
    8.0000   -4.8750    0.0000 C   0  0  0  0  0  0  0  0  0  0  0  0
    8.6167   -5.9375    0.0000 C   0  0  0  0  0  0  0  0  0  0  0  0
    8.6167   -5.2292    0.0000 C   0  0  0  0  0  0  0  0  0  0  0  0
  2  1  1  0
  3  5  1  0
  4  2  1  0
  5 14  1  0
  6  1  1  0
  7  1  2  0
  8  1  2  0
  9  3  1  0
 10  4  1  0
 11  3  2  0
 12  4  2  0
 13  5  2  0
 14 26  1  0
 15  6  1  0
 16  6  2  0
 17  9  2  0
 18 11  1  0
 19 18  2  0
 20 15  2  0
 21 16  1  0
 22 20  1  0
 23 18  1  0
 24 10  1  0
 25  9  1  0
 26 27  1  0
 27 22  1  0
 28 25  1  0
 29 24  1  0
 30 24  1  0
 31 30  1  0
 32 29  1  0
 33 31  1  0
 21 22  2  0
 33 32  1  0
 17 19  1  0
M  END
> <chembl_id>
CHEMBL472

> <chembl_pref_name>
GLYBURIDE
