
     RDKit          2D

 38 38  0  0  0  0  0  0  0  0999 V2000
   -7.0804   -4.9692    0.0000 N   0  0  0  0  0  0  0  0  0  0  0  0
   -6.3660   -4.5567    0.0000 C   0  0  0  0  0  0  0  0  0  0  0  0
   -6.3660   -3.7317    0.0000 N   0  0  0  0  0  0  0  0  0  0  0  0
   -2.7936   -3.3192    0.0000 P   0  0  0  0  0  0  0  0  0  0  0  0
   -7.7949   -4.5567    0.0000 C   0  0  0  0  0  0  0  0  0  0  0  0
   -7.7949   -3.7317    0.0000 C   0  0  0  0  0  0  0  0  0  0  0  0
   -7.0804   -3.3192    0.0000 C   0  0  0  0  0  0  0  0  0  0  0  0
   -3.5081   -3.7317    0.0000 C   0  0  0  0  0  0  0  0  0  0  0  0
   -5.6515   -3.3192    0.0000 C   0  0  0  0  0  0  0  0  0  0  0  0
   -5.6515   -4.9692    0.0000 O   0  0  0  0  0  0  0  0  0  0  0  0
   -2.0791   -2.9067    0.0000 O   0  0  0  0  0  0  0  0  0  0  0  0
   -4.2226   -3.3192    0.0000 O   0  0  0  0  0  0  0  0  0  0  0  0
   -2.3811   -4.0337    0.0000 O   0  0  0  0  0  0  0  0  0  0  0  0
   -3.2061   -2.6048    0.0000 O   0  0  0  0  0  0  0  0  0  0  0  0
   -4.9370   -3.7317    0.0000 C   0  0  0  0  0  0  0  0  0  0  0  0
   -8.5094   -4.9692    0.0000 N   0  0  0  0  0  0  0  0  0  0  0  0
   -4.2226   -4.9692    0.0000 O   0  0  0  0  0  0  0  0  0  0  0  0
   -4.9370   -4.5567    0.0000 C   0  0  0  0  0  0  0  0  0  0  0  0
   -1.3647   -3.3192    0.0000 C   0  0  0  0  0  0  0  0  0  0  0  0
   -0.6502   -2.9067    0.0000 C   0  0  0  0  0  0  0  0  0  0  0  0
    0.0643   -3.3192    0.0000 C   0  0  0  0  0  0  0  0  0  0  0  0
    0.7787   -2.9067    0.0000 O   0  0  0  0  0  0  0  0  0  0  0  0
    1.4932   -3.3192    0.0000 C   0  0  0  0  0  0  0  0  0  0  0  0
    2.2077   -2.9067    0.0000 C   0  0  0  0  0  0  0  0  0  0  0  0
    2.9222   -3.3192    0.0000 C   0  0  0  0  0  0  0  0  0  0  0  0
    3.6366   -2.9067    0.0000 C   0  0  0  0  0  0  0  0  0  0  0  0
    4.3511   -3.3192    0.0000 C   0  0  0  0  0  0  0  0  0  0  0  0
    5.0656   -2.9067    0.0000 C   0  0  0  0  0  0  0  0  0  0  0  0
    5.7800   -3.3192    0.0000 C   0  0  0  0  0  0  0  0  0  0  0  0
    6.4945   -2.9067    0.0000 C   0  0  0  0  0  0  0  0  0  0  0  0
    7.2090   -3.3192    0.0000 C   0  0  0  0  0  0  0  0  0  0  0  0
    7.9235   -2.9067    0.0000 C   0  0  0  0  0  0  0  0  0  0  0  0
    8.6379   -3.3192    0.0000 C   0  0  0  0  0  0  0  0  0  0  0  0
    9.3524   -2.9067    0.0000 C   0  0  0  0  0  0  0  0  0  0  0  0
   10.0669   -3.3192    0.0000 C   0  0  0  0  0  0  0  0  0  0  0  0
   10.7813   -2.9067    0.0000 C   0  0  0  0  0  0  0  0  0  0  0  0
   11.4958   -3.3192    0.0000 C   0  0  0  0  0  0  0  0  0  0  0  0
   12.2103   -2.9067    0.0000 C   0  0  0  0  0  0  0  0  0  0  0  0
 11 19  1  0
  2  1  1  0
 19 20  1  0
  3  2  1  0
 20 21  1  0
  4  8  1  0
 21 22  1  0
  5  1  2  0
 22 23  1  0
  6  5  1  0
 23 24  1  0
  7  6  2  0
 24 25  1  0
  8 12  1  0
 25 26  1  0
  9  3  1  0
 26 27  1  0
 10  2  2  0
 27 28  1  0
 11  4  1  0
 28 29  1  0
 15 12  1  0
 29 30  1  0
 13  4  2  0
 30 31  1  0
 14  4  1  0
 31 32  1  0
 15  9  1  0
 32 33  1  0
 16  5  1  0
 33 34  1  0
 17 18  1  0
 34 35  1  0
 15 18  1  6
 35 36  1  0
  7  3  1  0
 36 37  1  0
 37 38  1  0
M  END
> <chembl_id>
CHEMBL203321

> <chembl_pref_name>
BRINCIDOFOVIR
