
     RDKit          2D

 30 33  0  0  0  0  0  0  0  0999 V2000
   -2.3083    0.1625    0.0000 N   0  0  0  0  0  0  0  0  0  0  0  0
   -1.6958    0.4708    0.0000 C   0  0  0  0  0  0  0  0  0  0  0  0
   -2.9250    0.4708    0.0000 C   0  0  0  0  0  0  0  0  0  0  0  0
    0.8375   -0.9167    0.0000 C   0  0  0  0  0  0  0  0  0  0  0  0
    1.4667   -0.5750    0.0000 C   0  0  0  0  0  0  0  0  0  0  0  0
   -1.4958    1.2000    0.0000 C   0  0  0  0  0  0  0  0  0  0  0  0
   -3.1333    1.1750    0.0000 C   0  0  0  0  0  0  0  0  0  0  0  0
    0.2042   -0.5542    0.0000 C   0  0  0  0  0  0  0  0  0  0  0  0
    0.8375   -1.6417    0.0000 O   0  0  0  0  0  0  0  0  0  0  0  0
   -1.9083    1.7833    0.0000 C   0  0  0  0  0  0  0  0  0  0  0  0
   -2.6958    1.7833    0.0000 C   0  0  0  0  0  0  0  0  0  0  0  0
   -2.3083   -0.5542    0.0000 C   0  0  0  0  0  0  0  0  0  0  0  0
    1.4667    0.1625    0.0000 C   0  0  0  0  0  0  0  0  0  0  0  0
    2.1000   -0.9375    0.0000 C   0  0  0  0  0  0  0  0  0  0  0  0
   -0.4208   -0.9167    0.0000 N   0  0  0  0  0  0  0  0  0  0  0  0
   -1.6833   -0.9167    0.0000 C   0  0  0  0  0  0  0  0  0  0  0  0
    2.7292    0.1625    0.0000 C   0  0  0  0  0  0  0  0  0  0  0  0
    2.7292   -0.5750    0.0000 C   0  0  0  0  0  0  0  0  0  0  0  0
    2.1000    0.5250    0.0000 C   0  0  0  0  0  0  0  0  0  0  0  0
    3.3542    0.5458    0.0000 Cl  0  0  0  0  0  0  0  0  0  0  0  0
   -1.1833   -0.0250    0.0000 C   0  0  0  0  0  0  0  0  0  0  0  0
   -3.4500   -0.0500    0.0000 C   0  0  0  0  0  0  0  0  0  0  0  0
   -1.0500   -0.5542    0.0000 C   0  0  0  0  0  0  0  0  0  0  0  0
   -0.8000    1.3708    0.0000 C   0  0  0  0  0  0  0  0  0  0  0  0
   -3.8208    1.3625    0.0000 C   0  0  0  0  0  0  0  0  0  0  0  0
   -0.4208   -1.6417    0.0000 C   0  0  0  0  0  0  0  0  0  0  0  0
   -4.1708    0.1458    0.0000 C   0  0  0  0  0  0  0  0  0  0  0  0
   -0.4708    0.1583    0.0000 C   0  0  0  0  0  0  0  0  0  0  0  0
   -0.2750    0.8625    0.0000 C   0  0  0  0  0  0  0  0  0  0  0  0
   -4.3458    0.8583    0.0000 C   0  0  0  0  0  0  0  0  0  0  0  0
  2  1  1  0
  3  1  1  0
  4  8  1  0
  5  4  1  0
  6  2  1  0
  7  3  1  0
  8 15  1  0
  9  4  2  0
 10  6  1  0
 11  7  1  0
 12  1  1  0
 13  5  1  0
 14  5  2  0
 15 23  1  0
 16 12  1  0
 17 18  2  0
 18 14  1  0
 19 13  2  0
 20 17  1  0
 21  2  2  0
 22  3  2  0
 23 16  1  0
 24  6  2  0
 25  7  2  0
 26 15  1  0
 27 22  1  0
 28 21  1  0
 29 28  2  0
 30 27  2  0
 10 11  1  0
 25 30  1  0
 24 29  1  0
 19 17  1  0
M  END
> <chembl_id>
CHEMBL87708

> <chembl_pref_name>
LOFEPRAMINE
