
     RDKit          2D

 25 26  0  0  0  0  0  0  0  0999 V2000
    9.2667   -1.8917    0.0000 S   0  0  0  0  0  0  0  0  0  0  0  0
    9.8833   -2.2500    0.0000 N   0  0  0  0  0  0  0  0  0  0  0  0
    8.6542   -2.2500    0.0000 C   0  0  0  0  0  0  0  0  0  0  0  0
    6.8167   -1.8958    0.0000 S   0  0  0  0  0  0  0  0  0  0  0  0
    7.4292   -2.2500    0.0000 C   0  0  0  0  0  0  0  0  0  0  0  0
    9.8833   -2.9625    0.0000 C   0  0  0  0  0  0  0  0  0  0  0  0
    8.6542   -2.9625    0.0000 C   0  0  0  0  0  0  0  0  0  0  0  0
    9.2667   -3.3167    0.0000 N   0  0  0  0  0  0  0  0  0  0  0  0
    8.0417   -1.8958    0.0000 C   0  0  0  0  0  0  0  0  0  0  0  0
    7.4292   -2.9625    0.0000 C   0  0  0  0  0  0  0  0  0  0  0  0
    8.0417   -3.3167    0.0000 C   0  0  0  0  0  0  0  0  0  0  0  0
    8.9042   -1.2750    0.0000 O   0  0  0  0  0  0  0  0  0  0  0  0
    9.6167   -1.2750    0.0000 O   0  0  0  0  0  0  0  0  0  0  0  0
   12.3375   -2.9667    0.0000 C   0  0  0  0  0  0  0  0  0  0  0  0
    6.4542   -1.2792    0.0000 O   0  0  0  0  0  0  0  0  0  0  0  0
    7.1667   -1.2792    0.0000 O   0  0  0  0  0  0  0  0  0  0  0  0
    6.2042   -2.2500    0.0000 N   0  0  0  0  0  0  0  0  0  0  0  0
   10.4958   -1.8958    0.0000 C   0  0  0  0  0  0  0  0  0  0  0  0
   11.1083   -2.9625    0.0000 S   0  0  0  0  0  0  0  0  0  0  0  0
   12.9500   -3.3208    0.0000 F   0  0  0  0  0  0  0  0  0  0  0  0
   12.6875   -2.3500    0.0000 F   0  0  0  0  0  0  0  0  0  0  0  0
   11.9792   -2.3500    0.0000 F   0  0  0  0  0  0  0  0  0  0  0  0
    6.8167   -3.3167    0.0000 Cl  0  0  0  0  0  0  0  0  0  0  0  0
   10.4958   -3.3167    0.0000 C   0  0  0  0  0  0  0  0  0  0  0  0
   11.7208   -3.3208    0.0000 C   0  0  0  0  0  0  0  0  0  0  0  0
  2  1  1  0
  3  1  1  0
  4  5  1  0
  5  9  1  0
  6  2  1  0
  7  3  1  0
  8  6  1  0
  9  3  2  0
 10 11  1  0
 11  7  2  0
 12  1  2  0
 13  1  2  0
 14 25  1  0
 15  4  2  0
 16  4  2  0
 17  4  1  0
 18  2  1  0
 19 24  1  0
 20 14  1  0
 21 14  1  0
 22 14  1  0
 23 10  1  0
 24  6  1  0
 25 19  1  0
  8  7  1  0
 10  5  2  0
M  END
> <chembl_id>
CHEMBL1587

> <chembl_pref_name>
POLYTHIAZIDE
