
     RDKit          2D

 31 35  0  0  0  0  0  0  0  0999 V2000
   -3.6340    0.4626    0.0000 C   0  0  0  0  0  0  0  0  0  0  0  0
   -3.5478    1.2831    0.0000 C   0  0  0  0  0  0  0  0  0  0  0  0
   -2.7941    1.6186    0.0000 C   0  0  0  0  0  0  0  0  0  0  0  0
   -2.1267    1.1337    0.0000 C   0  0  0  0  0  0  0  0  0  0  0  0
   -2.2129    0.3133    0.0000 C   0  0  0  0  0  0  0  0  0  0  0  0
   -2.9666   -0.0223    0.0000 C   0  0  0  0  0  0  0  0  0  0  0  0
   -0.9642   -1.4771    0.0000 N   0  0  0  0  0  0  0  0  0  0  0  0
   -1.6317   -0.9922    0.0000 C   0  0  0  0  0  0  0  0  0  0  0  0
   -1.5454   -0.1717    0.0000 C   0  0  0  0  0  0  0  0  0  0  0  0
   -0.7918    0.1639    0.0000 N   0  0  0  0  0  0  0  0  0  0  0  0
   -0.1243   -0.3210    0.0000 N   0  0  0  0  0  0  0  0  0  0  0  0
   -0.2106   -1.1415    0.0000 C   0  0  0  0  0  0  0  0  0  0  0  0
    0.6826   -0.1495    0.0000 C   0  0  0  0  0  0  0  0  0  0  0  0
    0.5431   -1.4770    0.0000 N   0  0  0  0  0  0  0  0  0  0  0  0
    1.0951   -0.8639    0.0000 C   0  0  0  0  0  0  0  0  0  0  0  0
    3.1441    0.1092    0.0000 C   0  0  0  0  0  0  0  0  0  0  0  0
    2.3236    0.0230    0.0000 C   0  0  0  0  0  0  0  0  0  0  0  0
    1.8387    0.6904    0.0000 C   0  0  0  0  0  0  0  0  0  0  0  0
    2.1742    1.4441    0.0000 C   0  0  0  0  0  0  0  0  0  0  0  0
    2.9947    1.5303    0.0000 C   0  0  0  0  0  0  0  0  0  0  0  0
    3.4796    0.8629    0.0000 C   0  0  0  0  0  0  0  0  0  0  0  0
    4.3001    0.9491    0.0000 N   0  0  0  0  0  0  0  0  0  0  0  0
    3.3302    2.2840    0.0000 C   0  0  0  0  0  0  0  0  0  0  0  0
    4.1507    2.3702    0.0000 C   0  0  0  0  0  0  0  0  0  0  0  0
    4.6357    1.7028    0.0000 C   0  0  0  0  0  0  0  0  0  0  0  0
   -4.4186    0.2076    0.0000 F   0  0  0  0  0  0  0  0  0  0  0  0
   -4.1889    1.8022    0.0000 C   0  0  0  0  0  0  0  0  0  0  0  0
   -4.9591    1.5066    0.0000 O   0  0  0  0  0  0  0  0  0  0  0  0
   -4.0599    2.6171    0.0000 N   0  0  0  0  0  0  0  0  0  0  0  0
   -4.7274    3.1020    0.0000 C   0  0  0  0  0  0  0  0  0  0  0  0
    1.0182    0.6042    0.0000 C   0  0  0  0  0  0  0  0  0  0  0  0
  1  2  2  0
  2  3  1  0
  3  4  2  0
  4  5  1  0
  5  6  2  0
  1  6  1  0
  7  8  2  0
  8  9  1  0
  9 10  2  0
 10 11  1  0
 11 12  1  0
  7 12  1  0
 14 15  1  0
 13 15  2  0
 12 14  2  0
 13 11  1  0
 16 17  2  0
 17 18  1  0
 18 19  2  0
 19 20  1  0
 20 21  2  0
 16 21  1  0
 23 24  2  0
 24 25  1  0
 22 25  2  0
 20 23  1  0
 22 21  1  0
  1 26  1  0
  2 27  1  0
 27 28  2  0
 27 29  1  0
 29 30  1  0
  5  9  1  0
 13 31  1  0
 31 18  1  0
M  END
> <chembl_id>
CHEMBL3188267

> <chembl_pref_name>
CAPMATINIB
