
     RDKit          2D

 27 29  0  0  0  0  0  0  0  0999 V2000
    1.5750   -3.3542    0.0000 C   0  0  0  0  0  0  0  0  0  0  0  0
    1.0000   -2.9292    0.0000 C   0  0  0  0  0  0  0  0  0  0  0  0
    1.5417   -1.7667    0.0000 N   0  0  0  0  0  0  0  0  0  0  0  0
    0.9875   -2.2292    0.0000 C   0  0  0  0  0  0  0  0  0  0  0  0
    2.2667   -3.1917    0.0000 N   0  0  0  0  0  0  0  0  0  0  0  0
    1.2125   -3.9667    0.0000 C   0  0  0  0  0  0  0  0  0  0  0  0
    2.2500   -1.9125    0.0000 C   0  0  0  0  0  0  0  0  0  0  0  0
    1.2292   -1.0917    0.0000 C   0  0  0  0  0  0  0  0  0  0  0  0
    2.6000   -2.5625    0.0000 C   0  0  0  0  0  0  0  0  0  0  0  0
    0.3667   -1.8750    0.0000 C   0  0  0  0  0  0  0  0  0  0  0  0
    0.4000   -3.2875    0.0000 C   0  0  0  0  0  0  0  0  0  0  0  0
    1.5542   -4.5875    0.0000 C   0  0  0  0  0  0  0  0  0  0  0  0
    2.6750   -1.3417    0.0000 O   0  0  0  0  0  0  0  0  0  0  0  0
   -0.2333   -2.9417    0.0000 C   0  0  0  0  0  0  0  0  0  0  0  0
    0.5500   -1.0667    0.0000 C   0  0  0  0  0  0  0  0  0  0  0  0
    0.2417   -0.4292    0.0000 N   0  0  0  0  0  0  0  0  0  0  0  0
   -0.2458   -2.2167    0.0000 C   0  0  0  0  0  0  0  0  0  0  0  0
    2.2667   -4.5792    0.0000 F   0  0  0  0  0  0  0  0  0  0  0  0
   -0.8375   -3.3042    0.0000 Cl  0  0  0  0  0  0  0  0  0  0  0  0
    0.4917   -3.9500    0.0000 C   0  0  0  0  0  0  0  0  0  0  0  0
    1.2125   -5.1917    0.0000 C   0  0  0  0  0  0  0  0  0  0  0  0
   -0.4583   -0.4125    0.0000 C   0  0  0  0  0  0  0  0  0  0  0  0
    0.6292    0.1458    0.0000 C   0  0  0  0  0  0  0  0  0  0  0  0
    0.1250   -4.5667    0.0000 C   0  0  0  0  0  0  0  0  0  0  0  0
   -0.8833   -0.9917    0.0000 C   0  0  0  0  0  0  0  0  0  0  0  0
    0.3417    0.7708    0.0000 C   0  0  0  0  0  0  0  0  0  0  0  0
    0.4917   -5.1792    0.0000 C   0  0  0  0  0  0  0  0  0  0  0  0
  2  1  1  0
  3  4  1  0
  4  2  2  0
  5  1  2  0
  6  1  1  0
  7  9  1  0
  8  3  1  0
  9  5  1  0
 10  4  1  0
 11  2  1  0
 12  6  1  0
 13  7  2  0
 14 11  2  0
 15  8  1  0
 16 15  1  0
 17 14  1  0
 18 12  1  0
 19 14  1  0
 20  6  2  0
 21 12  2  0
 22 16  1  0
 23 16  1  0
 24 20  1  0
 25 22  1  0
 26 23  1  0
 27 24  2  0
  3  7  1  0
 21 27  1  0
 10 17  2  0
M  END
> <chembl_id>
CHEMBL968

> <chembl_pref_name>
FLURAZEPAM
