
     RDKit          2D

 24 25  0  0  1  0  0  0  0  0999 V2000
   -1.0122   -0.6531    0.0000 C   0  0  0  0  0  0  0  0  0  0  0  0
   -1.0122    0.1719    0.0000 C   0  0  0  0  0  0  0  0  0  0  0  0
   -1.7266    0.5844    0.0000 C   0  0  0  0  0  0  0  0  0  0  0  0
   -2.4411    0.1719    0.0000 C   0  0  0  0  0  0  0  0  0  0  0  0
   -3.1556    0.5844    0.0000 C   0  0  0  0  0  0  0  0  0  0  0  0
   -3.8701    0.1719    0.0000 C   0  0  0  0  0  0  0  0  0  0  0  0
   -4.5845    0.5844    0.0000 C   0  0  0  0  0  0  0  0  0  0  0  0
   -4.5845    1.4094    0.0000 C   0  0  0  0  0  0  0  0  0  0  0  0
   -3.8701    1.8219    0.0000 C   0  0  0  0  0  0  0  0  0  0  0  0
   -3.1556    1.4094    0.0000 C   0  0  0  0  0  0  0  0  0  0  0  0
   -0.2977    0.5844    0.0000 N   0  0  0  0  0  0  0  0  0  0  0  0
    0.4168    0.1719    0.0000 C   0  0  0  0  0  0  0  0  0  0  0  0
    1.1312    0.5844    0.0000 C   0  0  0  0  0  0  0  0  0  0  0  0
    1.1312    1.4094    0.0000 O   0  0  0  0  0  0  0  0  0  0  0  0
    1.8457    0.1719    0.0000 C   0  0  0  0  0  0  0  0  0  0  0  0
    2.5602    0.5844    0.0000 C   0  0  0  0  0  0  0  0  0  0  0  0
    3.2747    0.1719    0.0000 C   0  0  0  0  0  0  0  0  0  0  0  0
    3.2747   -0.6531    0.0000 C   0  0  0  0  0  0  0  0  0  0  0  0
    3.9891   -1.0656    0.0000 O   0  0  0  0  0  0  0  0  0  0  0  0
    2.5602   -1.0656    0.0000 C   0  0  0  0  0  0  0  0  0  0  0  0
    1.8457   -0.6531    0.0000 C   0  0  0  0  0  0  0  0  0  0  0  0
    2.5602   -1.8906    0.0000 C   0  0  0  0  0  0  0  0  0  0  0  0
    1.8457   -2.3031    0.0000 O   0  0  0  0  0  0  0  0  0  0  0  0
    3.2747   -2.3031    0.0000 N   0  0  0  0  0  0  0  0  0  0  0  0
  2  1  1  6
  2  3  1  0
  3  4  1  0
  4  5  1  0
  5  6  2  0
  6  7  1  0
  7  8  2  0
  8  9  1  0
  9 10  2  0
  5 10  1  0
  2 11  1  0
 11 12  1  0
 12 13  1  0
 13 14  1  6
 13 15  1  0
 15 16  2  0
 16 17  1  0
 17 18  2  0
 18 19  1  0
 18 20  1  0
 20 21  2  0
 15 21  1  0
 20 22  1  0
 22 23  2  0
 22 24  1  0
M  END
> <chembl_id>
CHEMBL27193

> <chembl_pref_name>
DILEVALOL
