
     RDKit          2D

 17 19  0  0  0  0  0  0  0  0999 V2000
    4.7167   -5.1667    0.0000 C   0  0  0  0  0  0  0  0  0  0  0  0
    4.7167   -4.4625    0.0000 C   0  0  0  0  0  0  0  0  0  0  0  0
    3.4792   -5.1792    0.0000 N   0  0  0  0  0  0  0  0  0  0  0  0
    2.2417   -5.2125    0.0000 C   0  0  0  0  0  0  0  0  0  0  0  0
    5.3792   -4.2417    0.0000 S   0  0  0  0  0  0  0  0  0  0  0  0
    4.1042   -5.5292    0.0000 C   0  0  0  0  0  0  0  0  0  0  0  0
    2.8667   -5.5500    0.0000 C   0  0  0  0  0  0  0  0  0  0  0  0
    5.7792   -4.8042    0.0000 C   0  0  0  0  0  0  0  0  0  0  0  0
    4.1042   -4.1000    0.0000 C   0  0  0  0  0  0  0  0  0  0  0  0
    5.3792   -5.3875    0.0000 C   0  0  0  0  0  0  0  0  0  0  0  0
    2.2167   -4.5042    0.0000 C   0  0  0  0  0  0  0  0  0  0  0  0
    3.4792   -4.4417    0.0000 C   0  0  0  0  0  0  0  0  0  0  0  0
    2.8417   -4.1250    0.0000 Cl  0  0  0  0  0  0  0  0  0  0  0  0
    1.6500   -5.5875    0.0000 C   0  0  0  0  0  0  0  0  0  0  0  0
    1.5917   -4.1750    0.0000 C   0  0  0  0  0  0  0  0  0  0  0  0
    1.0167   -5.2625    0.0000 C   0  0  0  0  0  0  0  0  0  0  0  0
    0.9917   -4.5542    0.0000 C   0  0  0  0  0  0  0  0  0  0  0  0
  2  1  2  0
  3  6  1  0
  4  7  1  0
  5  2  1  0
  6  1  1  0
  7  3  1  0
  8 10  2  0
  9  2  1  0
 10  1  1  0
 11  4  2  0
 12  3  1  0
 13 11  1  0
 14  4  1  0
 15 11  1  0
 16 14  2  0
 17 16  1  0
  8  5  1  0
 12  9  1  0
 17 15  2  0
M  END
> <chembl_id>
CHEMBL833

> <chembl_pref_name>
TICLOPIDINE
