
     RDKit          2D

 20 19  0  0  0  0  0  0  0  0999 V2000
   -0.0958   -4.1250    0.0000 Cl  0  0  0  0  0  0  0  0  0  0  0  0
    0.4250   -2.0375    0.0000 N   0  0  0  0  0  0  0  0  0  0  0  0
    0.9917   -2.4500    0.0000 C   0  0  0  0  0  0  0  0  0  0  0  0
    0.6542   -1.3625    0.0000 C   0  0  0  0  0  0  0  0  0  0  0  0
   -1.4417   -0.9167    0.0000 N   0  0  0  0  0  0  0  0  0  0  0  0
   -0.8250   -1.9708    0.0000 C   0  0  0  0  0  0  0  0  0  0  0  0
   -0.8250   -1.2583    0.0000 C   0  0  0  0  0  0  0  0  0  0  0  0
    1.3542   -1.3667    0.0000 S   0  0  0  0  0  0  0  0  0  0  0  0
   -0.2167   -2.3208    0.0000 C   0  0  0  0  0  0  0  0  0  0  0  0
    1.5667   -2.0458    0.0000 C   0  0  0  0  0  0  0  0  0  0  0  0
   -2.0500   -1.9708    0.0000 N   0  0  0  0  0  0  0  0  0  0  0  0
   -2.0500   -1.2625    0.0000 C   0  0  0  0  0  0  0  0  0  0  0  0
   -1.4375   -2.3250    0.0000 C   0  0  0  0  0  0  0  0  0  0  0  0
   -0.2167   -0.9125    0.0000 N   0  0  0  0  0  0  0  0  0  0  0  0
    2.2208   -2.3333    0.0000 C   0  0  0  0  0  0  0  0  0  0  0  0
    0.9833   -3.1583    0.0000 C   0  0  0  0  0  0  0  0  0  0  0  0
    3.4750   -2.3417    0.0000 O   0  0  0  0  0  0  0  0  0  0  0  0
   -2.6583   -0.9167    0.0000 C   0  0  0  0  0  0  0  0  0  0  0  0
    2.8125   -1.9625    0.0000 C   0  0  0  0  0  0  0  0  0  0  0  0
   -0.0958   -3.0958    0.0000 Cl  0  0  0  0  0  0  0  0  0  0  0  0
  3  2  1  0
  4  2  2  0
  5  7  2  0
  6  9  1  0
  7  6  1  0
  8  4  1  0
  9  2  1  0
 10  3  2  0
 11 13  1  0
 12 11  2  0
 13  6  2  0
 14  7  1  0
 15 10  1  0
 16  3  1  0
 17 19  1  0
 18 12  1  0
 19 15  1  0
  8 10  1  0
 12  5  1  0
M  CHG  2   2   1  20  -1
M  END
> <chembl_id>
CHEMBL1200941

> <chembl_pref_name>
THIAMINE HYDROCHLORIDE
