
     RDKit          2D

 17 18  0  0  0  0  0  0  0  0999 V2000
    3.8375   -5.1917    0.0000 C   0  0  0  0  0  0  0  0  0  0  0  0
    3.6125   -5.8750    0.0000 N   0  0  0  0  0  0  0  0  0  0  0  0
    3.2417   -4.7625    0.0000 C   0  0  0  0  0  0  0  0  0  0  0  0
    4.4750   -4.8500    0.0000 C   0  0  0  0  0  0  0  0  0  0  0  0
    2.9375   -5.8750    0.0000 O   0  0  0  0  0  0  0  0  0  0  0  0
    2.6792   -5.1917    0.0000 C   0  0  0  0  0  0  0  0  0  0  0  0
    4.4750   -4.1542    0.0000 O   0  0  0  0  0  0  0  0  0  0  0  0
    5.0667   -5.1917    0.0000 N   0  0  0  0  0  0  0  0  0  0  0  0
    5.7000   -4.8500    0.0000 N   0  0  0  0  0  0  0  0  0  0  0  0
    6.9167   -4.8500    0.0000 C   0  0  0  0  0  0  0  0  0  0  0  0
    6.2917   -5.1917    0.0000 C   0  0  0  0  0  0  0  0  0  0  0  0
    2.0042   -4.8500    0.0000 C   0  0  0  0  0  0  0  0  0  0  0  0
    6.9042   -4.1292    0.0000 C   0  0  0  0  0  0  0  0  0  0  0  0
    7.5250   -5.2000    0.0000 C   0  0  0  0  0  0  0  0  0  0  0  0
    7.5250   -3.7792    0.0000 C   0  0  0  0  0  0  0  0  0  0  0  0
    8.1375   -4.8417    0.0000 C   0  0  0  0  0  0  0  0  0  0  0  0
    8.1375   -4.1292    0.0000 C   0  0  0  0  0  0  0  0  0  0  0  0
  2  1  2  0
  3  1  1  0
  4  1  1  0
  5  2  1  0
  6  3  2  0
  7  4  2  0
  8  4  1  0
  9  8  1  0
 10 11  1  0
 11  9  1  0
 12  6  1  0
 13 10  1  0
 14 10  2  0
 15 13  2  0
 16 14  1  0
 17 16  2  0
  5  6  1  0
 17 15  1  0
M  END
> <chembl_id>
CHEMBL1201168

> <chembl_pref_name>
ISOCARBOXAZID
