
     RDKit          2D

 29 31  0  0  0  0  0  0  0  0999 V2000
    3.7333   -3.9000    0.0000 S   0  0  0  0  0  0  0  0  0  0  0  0
    4.0792   -3.2792    0.0000 O   0  0  0  0  0  0  0  0  0  0  0  0
    3.3750   -3.2792    0.0000 O   0  0  0  0  0  0  0  0  0  0  0  0
    4.3458   -4.2542    0.0000 O   0  0  0  0  0  0  0  0  0  0  0  0
    3.1167   -4.2542    0.0000 C   0  0  0  0  0  0  0  0  0  0  0  0
    0.7917   -3.5667    0.0000 C   0  0  0  0  0  0  0  0  0  0  0  0
    0.7917   -2.1875    0.0000 C   0  0  0  0  0  0  0  0  0  0  0  0
    1.3917   -2.5250    0.0000 C   0  0  0  0  0  0  0  0  0  0  0  0
    0.1875   -2.5250    0.0000 C   0  0  0  0  0  0  0  0  0  0  0  0
    1.9917   -2.1875    0.0000 N   0  0  0  0  0  0  0  0  0  0  0  0
    0.1875   -3.2167    0.0000 C   0  0  0  0  0  0  0  0  0  0  0  0
    1.3917   -3.2167    0.0000 C   0  0  0  0  0  0  0  0  0  0  0  0
    0.6000   -4.2125    0.0000 C   0  0  0  0  0  0  0  0  0  0  0  0
   -0.1125   -4.2125    0.0000 N   0  0  0  0  0  0  0  0  0  0  0  0
   -0.4083   -3.5667    0.0000 C   0  0  0  0  0  0  0  0  0  0  0  0
    1.9917   -1.5042    0.0000 C   0  0  0  0  0  0  0  0  0  0  0  0
    0.7917   -1.5042    0.0000 C   0  0  0  0  0  0  0  0  0  0  0  0
    1.3917   -1.1542    0.0000 C   0  0  0  0  0  0  0  0  0  0  0  0
   -0.4083   -2.1875    0.0000 C   0  0  0  0  0  0  0  0  0  0  0  0
    2.6292   -2.5542    0.0000 C   0  0  0  0  0  0  0  0  0  0  0  0
    2.0250   -0.0500    0.0000 S   0  0  0  0  0  0  0  0  0  0  0  0
    1.3917   -0.4292    0.0000 C   0  0  0  0  0  0  0  0  0  0  0  0
   -1.0083   -2.5250    0.0000 C   0  0  0  0  0  0  0  0  0  0  0  0
   -1.0083   -3.2167    0.0000 C   0  0  0  0  0  0  0  0  0  0  0  0
    2.6667   -0.4000    0.0000 C   0  0  0  0  0  0  0  0  0  0  0  0
    3.2542   -2.1875    0.0000 C   0  0  0  0  0  0  0  0  0  0  0  0
    3.8750   -2.5375    0.0000 C   0  0  0  0  0  0  0  0  0  0  0  0
    2.1333   -2.9625    0.0000 H   0  0  0  0  0  0  0  0  0  0  0  0
    0.0542   -1.7667    0.0000 H   0  0  0  0  0  0  0  0  0  0  0  0
  2  1  2  0
  3  1  2  0
  4  1  1  0
  5  1  1  0
  7  8  1  0
  8 12  1  0
  9 11  1  0
 10  8  1  0
 11  6  1  0
 12  6  1  0
 13  6  2  0
 14 13  1  0
 15 11  2  0
 16 10  1  0
 17  7  1  0
 18 16  1  0
 19  9  2  0
 20 10  1  0
 21 22  1  0
 18 22  1  1
 23 19  1  0
 24 15  1  0
 25 21  1  0
 26 20  1  0
 27 26  1  0
  8 28  1  1
  7 29  1  6
  7  9  1  0
 14 15  1  0
 24 23  2  0
 17 18  1  0
M  END
> <chembl_id>
CHEMBL1275

> <chembl_pref_name>
PERGOLIDE MESYLATE
