
     RDKit          2D

 69 77  0  0  0  0  0  0  0  0999 V2000
   -6.8458    0.1219    0.0000 C   0  0  0  0  0  0  0  0  0  0  0  0
   -7.6707    0.1345    0.0000 C   0  0  0  0  0  0  0  0  0  0  0  0
   -8.0723    0.8551    0.0000 C   0  0  0  0  0  0  0  0  0  0  0  0
   -7.6490    1.5632    0.0000 C   0  0  0  0  0  0  0  0  0  0  0  0
   -6.8241    1.5507    0.0000 C   0  0  0  0  0  0  0  0  0  0  0  0
   -6.4225    0.8300    0.0000 C   0  0  0  0  0  0  0  0  0  0  0  0
   -8.8972    0.8677    0.0000 C   0  0  0  0  0  0  0  0  0  0  0  0
   -9.3205    0.1596    0.0000 C   0  0  0  0  0  0  0  0  0  0  0  0
   -8.9190   -0.5611    0.0000 C   0  0  0  0  0  0  0  0  0  0  0  0
   -8.0940   -0.5737    0.0000 C   0  0  0  0  0  0  0  0  0  0  0  0
   -9.3423   -1.2692    0.0000 O   0  0  0  0  0  0  0  0  0  0  0  0
  -10.1672   -1.2567    0.0000 C   0  0  0  0  0  0  0  0  0  0  0  0
  -10.5688   -0.5360    0.0000 C   0  0  0  0  0  0  0  0  0  0  0  0
  -10.1454    0.1721    0.0000 C   0  0  0  0  0  0  0  0  0  0  0  0
  -11.3937   -0.5235    0.0000 C   0  0  0  0  0  0  0  0  0  0  0  0
  -11.7953    0.1972    0.0000 C   0  0  0  0  0  0  0  0  0  0  0  0
  -11.3719    0.9053    0.0000 C   0  0  0  0  0  0  0  0  0  0  0  0
  -10.5470    0.8928    0.0000 C   0  0  0  0  0  0  0  0  0  0  0  0
   -6.3032   -0.4995    0.0000 N   0  0  0  0  0  0  0  0  0  0  0  0
   -5.5445   -0.1755    0.0000 C   0  0  0  0  0  0  0  0  0  0  0  0
   -5.6182    0.6462    0.0000 N   0  0  0  0  0  0  0  0  0  0  0  0
   -4.8364   -0.5988    0.0000 C   0  0  0  0  0  0  0  0  0  0  0  0
   -4.0777   -0.2747    0.0000 N   0  0  0  0  0  0  0  0  0  0  0  0
   -3.5350   -0.8961    0.0000 C   0  0  0  0  0  0  0  0  0  0  0  0
   -3.9584   -1.6042    0.0000 C   0  0  0  0  0  0  0  0  0  0  0  0
   -4.7626   -1.4205    0.0000 C   0  0  0  0  0  0  0  0  0  0  0  0
  -12.6202    0.2097    0.0000 C   0  0  0  0  0  0  0  0  0  0  0  0
  -13.0949    0.8845    0.0000 N   0  0  0  0  0  0  0  0  0  0  0  0
  -13.8833    0.6415    0.0000 C   0  0  0  0  0  0  0  0  0  0  0  0
  -13.8958   -0.1834    0.0000 N   0  0  0  0  0  0  0  0  0  0  0  0
  -13.1152   -0.4502    0.0000 C   0  0  0  0  0  0  0  0  0  0  0  0
  -14.5433    1.1365    0.0000 C   0  0  0  0  0  0  0  0  0  0  0  0
  -15.3317    0.8935    0.0000 N   0  0  0  0  0  0  0  0  0  0  0  0
  -15.8064    1.5683    0.0000 C   0  0  0  0  0  0  0  0  0  0  0  0
  -15.3114    2.2283    0.0000 C   0  0  0  0  0  0  0  0  0  0  0  0
  -14.5307    1.9614    0.0000 C   0  0  0  0  0  0  0  0  0  0  0  0
  -15.8267    0.2336    0.0000 C   0  0  0  0  0  0  0  0  0  0  0  0
  -15.7529   -0.5881    0.0000 C   0  0  0  0  0  0  0  0  0  0  0  0
  -16.5752    0.5805    0.0000 O   0  0  0  0  0  0  0  0  0  0  0  0
  -16.4277   -1.0629    0.0000 N   0  0  0  0  0  0  0  0  0  0  0  0
  -15.0045   -0.9351    0.0000 C   0  0  0  0  0  0  0  0  0  0  0  0
  -14.3297   -0.4604    0.0000 C   0  0  0  0  0  0  0  0  0  0  0  0
  -13.5812   -0.8074    0.0000 C   0  0  0  0  0  0  0  0  0  0  0  0
  -13.5075   -1.6291    0.0000 C   0  0  0  0  0  0  0  0  0  0  0  0
  -14.1822   -2.1038    0.0000 C   0  0  0  0  0  0  0  0  0  0  0  0
  -14.9307   -1.7568    0.0000 C   0  0  0  0  0  0  0  0  0  0  0  0
   -3.8939    0.5296    0.0000 C   0  0  0  0  0  0  0  0  0  0  0  0
   -3.1055    0.7725    0.0000 C   0  0  0  0  0  0  0  0  0  0  0  0
   -4.4985    1.0909    0.0000 O   0  0  0  0  0  0  0  0  0  0  0  0
   -2.5009    0.2112    0.0000 N   0  0  0  0  0  0  0  0  0  0  0  0
   -2.9217    1.5768    0.0000 C   0  0  0  0  0  0  0  0  0  0  0  0
   -3.5263    2.1381    0.0000 C   0  0  0  0  0  0  0  0  0  0  0  0
   -2.1333    1.8198    0.0000 C   0  0  0  0  0  0  0  0  0  0  0  0
   -1.7125    0.4542    0.0000 C   0  0  0  0  0  0  0  0  0  0  0  0
   -1.1078   -0.1071    0.0000 O   0  0  0  0  0  0  0  0  0  0  0  0
   -1.5287    1.2585    0.0000 O   0  0  0  0  0  0  0  0  0  0  0  0
   -0.3194    0.1359    0.0000 C   0  0  0  0  0  0  0  0  0  0  0  0
   -2.7133   -0.8224    0.0000 C   0  0  0  0  0  0  0  0  0  0  0  0
   -4.7807    0.2243    0.0000 H   0  0  0  0  0  0  0  0  0  0  0  0
   -3.2277   -0.1305    0.0000 H   0  0  0  0  0  0  0  0  0  0  0  0
  -14.6847    0.3237    0.0000 H   0  0  0  0  0  0  0  0  0  0  0  0
  -15.5544    3.0167    0.0000 C   0  0  0  0  0  0  0  0  0  0  0  0
  -16.1242    2.3697    0.0000 H   0  0  0  0  0  0  0  0  0  0  0  0
  -16.3586    3.2005    0.0000 O   0  0  0  0  0  0  0  0  0  0  0  0
  -16.6016    3.9889    0.0000 C   0  0  0  0  0  0  0  0  0  0  0  0
  -17.1762   -0.7159    0.0000 C   0  0  0  0  0  0  0  0  0  0  0  0
  -17.8509   -1.1906    0.0000 O   0  0  0  0  0  0  0  0  0  0  0  0
  -17.2499    0.1058    0.0000 O   0  0  0  0  0  0  0  0  0  0  0  0
  -18.5994   -0.8436    0.0000 C   0  0  0  0  0  0  0  0  0  0  0  0
  1  2  1  0
  3  4  1  0
  4  5  2  0
  5  6  1  0
  2 10  1  0
  2  3  2  0
  3  7  1  0
  7  8  2  0
  9 10  2  0
 14  8  1  0
  8  9  1  0
  9 11  1  0
 11 12  1  0
 12 13  1  0
 13 15  1  0
 14 13  2  0
 14 18  1  0
 15 16  2  0
 16 17  1  0
 17 18  2  0
  1 19  1  0
  1  6  2  0
  6 21  1  0
 19 20  1  0
 20 21  2  0
 22 20  1  0
 22 23  1  0
 22 26  1  0
 23 24  1  0
 24 25  1  0
 25 26  1  0
 16 27  1  0
 27 28  1  0
 27 31  2  0
 28 29  2  0
 29 30  1  0
 30 31  1  0
 32 29  1  1
 32 33  1  0
 32 36  1  0
 33 34  1  0
 34 35  1  0
 35 36  1  0
 33 37  1  0
 37 38  1  0
 37 39  2  0
 38 40  1  0
 38 41  1  1
 41 42  1  0
 41 46  2  0
 42 43  2  0
 43 44  1  0
 44 45  2  0
 45 46  1  0
 23 47  1  0
 47 48  1  0
 47 49  2  0
 48 50  1  0
 48 51  1  6
 51 52  1  0
 51 53  1  0
 50 54  1  0
 54 55  1  0
 54 56  2  0
 55 57  1  0
 24 58  1  1
 22 59  1  6
 24 60  1  6
 32 61  1  6
 35 62  1  1
 35 63  1  6
 62 64  1  0
 64 65  1  0
 40 66  1  0
 66 67  1  0
 66 68  2  0
 67 69  1  0
M  END
> <chembl_id>
CHEMBL3545062

> <chembl_pref_name>
VELPATASVIR
