
     RDKit          2D

 11 10  0  0  0  0  0  0  0  0999 V2000
   10.2485   -9.5113    0.0000 O   0  0  0  0  0  0  0  0  0  0  0  0
   10.9630   -9.0988    0.0000 Si  0  0  0  0  0  4  0  0  0  0  0  0
   11.6775   -8.6863    0.0000 O   0  0  0  0  0  0  0  0  0  0  0  0
   10.5505   -8.3843    0.0000 O   0  0  0  0  0  0  0  0  0  0  0  0
   10.9630   -7.6699    0.0000 Si  0  0  0  0  0  4  0  0  0  0  0  0
   10.5505   -6.9554    0.0000 O   0  0  0  0  0  0  0  0  0  0  0  0
   11.7880   -7.6699    0.0000 O   0  0  0  0  0  0  0  0  0  0  0  0
   11.3755   -9.8133    0.0000 O   0  0  0  0  0  0  0  0  0  0  0  0
   10.9630  -10.5278    0.0000 Si  0  0  0  0  0  4  0  0  0  0  0  0
   11.3755  -11.2422    0.0000 O   0  0  0  0  0  0  0  0  0  0  0  0
   10.1380  -10.5278    0.0000 O   0  0  0  0  0  0  0  0  0  0  0  0
  1  2  1  0
  2  3  1  0
  2  4  1  0
  4  5  1  0
  5  6  2  0
  5  7  1  0
  2  8  1  0
  8  9  1  0
  9 10  2  0
  9 11  1  0
M  END
> <chembl_id>
CHEMBL2109882

> <chembl_pref_name>
TRISILICATE
