
     RDKit          2D

 29 28  0  0  0  0  0  0  0  0999 V2000
   10.5879   -7.3430    0.0000 C   0  0  0  0  0  0  0  0  0  0  0  0
   11.3021   -6.9252    0.0000 N   0  0  0  0  0  0  0  0  0  0  0  0
    9.8737   -6.9301    0.0000 C   0  0  0  0  0  0  0  0  0  0  0  0
    9.1595   -7.3479    0.0000 C   0  0  0  0  0  0  0  0  0  0  0  0
   10.1652   -8.0524    0.0000 C   0  0  0  0  0  0  0  0  0  0  0  0
   10.9960   -8.0524    0.0000 C   0  0  0  0  0  0  0  0  0  0  0  0
   12.0210   -7.3382    0.0000 C   0  0  0  0  0  0  0  0  0  0  0  0
    8.4453   -6.9349    0.0000 C   0  0  0  0  0  0  0  0  0  0  0  0
    9.1595   -8.1787    0.0000 C   0  0  0  0  0  0  0  0  0  0  0  0
    7.7312   -7.3479    0.0000 C   0  0  0  0  0  0  0  0  0  0  0  0
    8.4453   -8.5917    0.0000 C   0  0  0  0  0  0  0  0  0  0  0  0
    7.7312   -8.1787    0.0000 C   0  0  0  0  0  0  0  0  0  0  0  0
    5.4414   -5.9272    0.0000 C   0  0  0  0  0  0  0  0  0  0  0  0
    6.1556   -5.5094    0.0000 N   0  0  0  0  0  0  0  0  0  0  0  0
    4.7272   -5.5143    0.0000 C   0  0  0  0  0  0  0  0  0  0  0  0
    4.0131   -5.9321    0.0000 C   0  0  0  0  0  0  0  0  0  0  0  0
    5.0187   -6.6366    0.0000 C   0  0  0  0  0  0  0  0  0  0  0  0
    5.8495   -6.6366    0.0000 C   0  0  0  0  0  0  0  0  0  0  0  0
    6.8746   -5.9224    0.0000 C   0  0  0  0  0  0  0  0  0  0  0  0
    3.2989   -5.5191    0.0000 C   0  0  0  0  0  0  0  0  0  0  0  0
    4.0131   -6.7629    0.0000 C   0  0  0  0  0  0  0  0  0  0  0  0
    2.5847   -5.9321    0.0000 C   0  0  0  0  0  0  0  0  0  0  0  0
    3.2989   -7.1759    0.0000 C   0  0  0  0  0  0  0  0  0  0  0  0
    2.5847   -6.7629    0.0000 C   0  0  0  0  0  0  0  0  0  0  0  0
   10.3753   -5.3434    0.0000 S   0  0  0  0  0  0  0  0  0  0  0  0
   10.7786   -4.6147    0.0000 O   0  0  0  0  0  0  0  0  0  0  0  0
    9.9575   -4.6147    0.0000 O   0  0  0  0  0  0  0  0  0  0  0  0
    9.6563   -5.7515    0.0000 O   0  0  0  0  0  0  0  0  0  0  0  0
   11.0895   -5.7515    0.0000 O   0  0  0  0  0  0  0  0  0  0  0  0
  2  1  1  0
  3  1  1  0
  4  3  1  0
  5  1  1  0
  6  1  1  0
  7  2  1  0
  8  4  2  0
  9  4  1  0
 10  8  1  0
 11  9  2  0
 12 11  1  0
 12 10  2  0
 14 13  1  0
 15 13  1  0
 16 15  1  0
 17 13  1  0
 18 13  1  0
 19 14  1  0
 20 16  2  0
 21 16  1  0
 22 20  1  0
 23 21  2  0
 24 23  1  0
 24 22  2  0
 26 25  2  0
 27 25  2  0
 28 25  1  0
 29 25  1  0
M  END
> <chembl_id>
CHEMBL3184799

> <chembl_pref_name>
MEPHENTERMINE SULFATE
