
     RDKit          2D

 20 21  0  0  0  0  0  0  0  0999 V2000
    1.0875   -0.7125    0.0000 C   0  0  0  0  0  0  0  0  0  0  0  0
    2.2375   -0.1042    0.0000 P   0  0  0  0  0  0  0  0  0  0  0  0
    1.0875   -2.0292    0.0000 P   0  0  0  0  0  0  0  0  0  0  0  0
   -0.0208   -0.0417    0.0000 C   0  0  0  0  0  0  0  0  0  0  0  0
   -0.0208    1.2458    0.0000 C   0  0  0  0  0  0  0  0  0  0  0  0
   -1.2750    1.6208    0.0000 N   0  0  0  0  0  0  0  0  0  0  0  0
   -0.0208    3.3333    0.0000 N   0  0  0  0  0  0  0  0  0  0  0  0
   -1.2833    2.9583    0.0000 C   0  0  0  0  0  0  0  0  0  0  0  0
    0.7125    2.2833    0.0000 C   0  0  0  0  0  0  0  0  0  0  0  0
    2.2375    1.1833    0.0000 O   0  0  0  0  0  0  0  0  0  0  0  0
   -0.0083   -2.6875    0.0000 O   0  0  0  0  0  0  0  0  0  0  0  0
   -2.3958    0.9750    0.0000 C   0  0  0  0  0  0  0  0  0  0  0  0
    2.2292   -1.4042    0.0000 O   0  0  0  0  0  0  0  0  0  0  0  0
   -2.3958    3.5958    0.0000 C   0  0  0  0  0  0  0  0  0  0  0  0
   -3.5208    1.6208    0.0000 C   0  0  0  0  0  0  0  0  0  0  0  0
    3.3375   -0.7750    0.0000 O   0  0  0  0  0  0  0  0  0  0  0  0
    1.0875   -3.3542    0.0000 O   0  0  0  0  0  0  0  0  0  0  0  0
    2.2167   -2.6792    0.0000 O   0  0  0  0  0  0  0  0  0  0  0  0
    3.4167    0.5208    0.0000 O   0  0  0  0  0  0  0  0  0  0  0  0
   -3.5083    2.9083    0.0000 C   0  0  0  0  0  0  0  0  0  0  0  0
  2  1  1  0
  3  1  1  0
  4  1  1  0
  5  4  1  0
  6  5  1  0
  7  9  1  0
  8  6  1  0
  9  5  2  0
 10  2  2  0
 11  3  2  0
 12  6  1  0
 13  1  1  0
 14  8  1  0
 15 12  2  0
 16  2  1  0
 17  3  1  0
 18  3  1  0
 19  2  1  0
 20 15  1  0
  8  7  2  0
 14 20  2  0
M  END
> <chembl_id>
CHEMBL319144

> <chembl_pref_name>
MINODRONIC ACID
