
     RDKit          2D

 20 22  0  0  0  0  0  0  0  0999 V2000
    5.8292   -3.5000    0.0000 Cl  0  0  0  0  0  0  0  0  0  0  0  0
    5.9000   -0.9542    0.0000 N   0  0  0  0  0  0  0  0  0  0  0  0
    6.6042   -1.1042    0.0000 C   0  0  0  0  0  0  0  0  0  0  0  0
    5.8250   -0.2417    0.0000 C   0  0  0  0  0  0  0  0  0  0  0  0
    6.4833    0.0542    0.0000 N   0  0  0  0  0  0  0  0  0  0  0  0
    5.3458   -1.4083    0.0000 C   0  0  0  0  0  0  0  0  0  0  0  0
    6.9208   -1.7500    0.0000 C   0  0  0  0  0  0  0  0  0  0  0  0
    6.9667   -0.4833    0.0000 C   0  0  0  0  0  0  0  0  0  0  0  0
    5.3458   -2.1208    0.0000 C   0  0  0  0  0  0  0  0  0  0  0  0
    6.6125   -2.4000    0.0000 C   0  0  0  0  0  0  0  0  0  0  0  0
    5.9125   -2.5667    0.0000 C   0  0  0  0  0  0  0  0  0  0  0  0
    5.2042    0.1125    0.0000 N   0  0  0  0  0  0  0  0  0  0  0  0
    4.7333   -1.0542    0.0000 C   0  0  0  0  0  0  0  0  0  0  0  0
    7.6292   -1.6875    0.0000 C   0  0  0  0  0  0  0  0  0  0  0  0
    4.7333   -2.4750    0.0000 C   0  0  0  0  0  0  0  0  0  0  0  0
    7.0208   -2.9875    0.0000 C   0  0  0  0  0  0  0  0  0  0  0  0
    4.1208   -1.4125    0.0000 C   0  0  0  0  0  0  0  0  0  0  0  0
    8.0417   -2.2750    0.0000 C   0  0  0  0  0  0  0  0  0  0  0  0
    7.7375   -2.9292    0.0000 C   0  0  0  0  0  0  0  0  0  0  0  0
    4.1208   -2.1208    0.0000 C   0  0  0  0  0  0  0  0  0  0  0  0
  3  2  1  0
  4  2  1  0
  5  4  2  0
  6  2  1  0
  7  3  1  0
  8  3  1  0
  9  6  1  0
 10  7  2  0
 11  9  1  0
 12  4  1  0
 13  6  2  0
 14  7  1  0
 15  9  2  0
 16 10  1  0
 17 13  1  0
 18 14  2  0
 19 18  1  0
 20 15  1  0
  5  8  1  0
 10 11  1  0
 20 17  2  0
 19 16  2  0
M  END
> <chembl_id>
CHEMBL1200491

> <chembl_pref_name>
EPINASTINE HYDROCHLORIDE
