
     RDKit          2D

 17 17  0  0  0  0  0  0  0  0999 V2000
   -3.0208    0.6875    0.0000 C   0  0  0  0  0  0  0  0  0  0  0  0
   -3.0208   -0.5250    0.0000 C   0  0  0  0  0  0  0  0  0  0  0  0
   -1.9958    1.2958    0.0000 C   0  0  0  0  0  0  0  0  0  0  0  0
   -0.9083   -0.5250    0.0000 C   0  0  0  0  0  0  0  0  0  0  0  0
   -1.9958   -1.1375    0.0000 C   0  0  0  0  0  0  0  0  0  0  0  0
   -0.9083    0.6875    0.0000 C   0  0  0  0  0  0  0  0  0  0  0  0
    2.2917   -1.0667    0.0000 N   0  0  0  0  0  0  0  0  0  0  0  0
    0.1792   -1.1375    0.0000 C   0  0  0  0  0  0  0  0  0  0  0  0
    3.3167   -0.4292    0.0000 C   0  0  0  0  0  0  0  0  0  0  0  0
    1.2375   -0.4917    0.0000 C   0  0  0  0  0  0  0  0  0  0  0  0
   -4.1083    1.3250    0.0000 N   0  0  0  0  0  0  0  0  0  0  0  0
   -4.1083   -1.1667    0.0000 Cl  0  0  0  0  0  0  0  0  0  0  0  0
   -1.9958    2.5208    0.0000 Cl  0  0  0  0  0  0  0  0  0  0  0  0
    0.1625   -2.4000    0.0000 O   0  0  0  0  0  0  0  0  0  0  0  0
    3.9542   -1.4875    0.0000 C   0  0  0  0  0  0  0  0  0  0  0  0
    4.3417    0.2083    0.0000 C   0  0  0  0  0  0  0  0  0  0  0  0
    2.6417    0.5958    0.0000 C   0  0  0  0  0  0  0  0  0  0  0  0
  2  1  2  0
  3  1  1  0
  4  6  1  0
  5  2  1  0
  6  3  2  0
  7 10  1  0
  8  4  1  0
  9  7  1  0
 10  8  1  0
 11  1  1  0
 12  2  1  0
 13  3  1  0
 14  8  1  0
 15  9  1  0
 16  9  1  0
 17  9  1  0
  5  4  2  0
M  END
> <chembl_id>
CHEMBL49080

> <chembl_pref_name>
CLENBUTEROL
