
     RDKit          2D

 58 63  0  0  0  0  0  0  0  0999 V2000
   12.7833   -6.5250    0.0000 C   0  0  0  0  0  0  0  0  0  0  0  0
   -0.7875   -3.6375    0.0000 C   0  0  0  0  0  0  0  0  0  0  0  0
   13.4958   -6.1125    0.0000 S   0  0  0  0  0  0  0  0  0  0  0  0
   -1.5042   -4.0500    0.0000 S   0  0  0  0  0  0  0  0  0  0  0  0
   12.0667   -8.5875    0.0000 S   0  0  0  0  0  0  0  0  0  0  0  0
   -0.0750   -1.5750    0.0000 S   0  0  0  0  0  0  0  0  0  0  0  0
   11.3542   -6.5250    0.0000 C   0  0  0  0  0  0  0  0  0  0  0  0
    0.6333   -3.6375    0.0000 C   0  0  0  0  0  0  0  0  0  0  0  0
   12.0667   -6.1125    0.0000 C   0  0  0  0  0  0  0  0  0  0  0  0
   -0.0750   -4.0500    0.0000 C   0  0  0  0  0  0  0  0  0  0  0  0
   12.0667   -7.7625    0.0000 C   0  0  0  0  0  0  0  0  0  0  0  0
   -0.0750   -2.4000    0.0000 C   0  0  0  0  0  0  0  0  0  0  0  0
   11.3542   -7.3500    0.0000 C   0  0  0  0  0  0  0  0  0  0  0  0
    0.6333   -2.8125    0.0000 C   0  0  0  0  0  0  0  0  0  0  0  0
   12.7833   -7.3500    0.0000 C   0  0  0  0  0  0  0  0  0  0  0  0
   -0.7875   -2.8125    0.0000 C   0  0  0  0  0  0  0  0  0  0  0  0
   10.6375   -6.1125    0.0000 C   0  0  0  0  0  0  0  0  0  0  0  0
    1.3500   -4.0500    0.0000 C   0  0  0  0  0  0  0  0  0  0  0  0
    9.2083   -6.1125    0.0000 N   0  0  0  0  0  0  0  0  0  0  0  0
    2.7792   -4.0500    0.0000 N   0  0  0  0  0  0  0  0  0  0  0  0
    8.4958   -6.5250    0.0000 N   0  0  0  0  0  0  0  0  0  0  0  0
    3.4917   -3.6375    0.0000 N   0  0  0  0  0  0  0  0  0  0  0  0
    9.9250   -6.5250    0.0000 C   0  0  0  0  0  0  0  0  0  0  0  0
    2.0625   -3.6375    0.0000 C   0  0  0  0  0  0  0  0  0  0  0  0
   10.6375   -7.7625    0.0000 C   0  0  0  0  0  0  0  0  0  0  0  0
    1.3500   -2.4000    0.0000 C   0  0  0  0  0  0  0  0  0  0  0  0
    6.3500   -5.2875    0.0000 C   0  0  0  0  0  0  0  0  0  0  0  0
    5.6375   -4.8750    0.0000 C   0  0  0  0  0  0  0  0  0  0  0  0
    6.3500   -6.1125    0.0000 C   0  0  0  0  0  0  0  0  0  0  0  0
    5.6375   -4.0500    0.0000 C   0  0  0  0  0  0  0  0  0  0  0  0
   -2.2167   -4.4625    0.0000 O   0  0  0  0  0  0  0  0  0  0  0  0
   -1.9167   -3.3375    0.0000 O   0  0  0  0  0  0  0  0  0  0  0  0
   14.2083   -5.7000    0.0000 O   0  0  0  0  0  0  0  0  0  0  0  0
   13.9083   -6.8250    0.0000 O   0  0  0  0  0  0  0  0  0  0  0  0
   -0.0750   -0.7542    0.0000 O   0  0  0  0  0  0  0  0  0  0  0  0
    0.7458   -1.5750    0.0000 O   0  0  0  0  0  0  0  0  0  0  0  0
   12.0667   -9.4125    0.0000 O   0  0  0  0  0  0  0  0  0  0  0  0
   12.8917   -8.5875    0.0000 O   0  0  0  0  0  0  0  0  0  0  0  0
    7.7792   -6.1125    0.0000 C   0  0  0  0  0  0  0  0  0  0  0  0
    4.2083   -4.0500    0.0000 C   0  0  0  0  0  0  0  0  0  0  0  0
    7.0667   -6.5250    0.0000 C   0  0  0  0  0  0  0  0  0  0  0  0
    4.9208   -3.6375    0.0000 C   0  0  0  0  0  0  0  0  0  0  0  0
    9.9250   -7.3500    0.0000 C   0  0  0  0  0  0  0  0  0  0  0  0
    2.0625   -2.8125    0.0000 C   0  0  0  0  0  0  0  0  0  0  0  0
   13.0833   -5.4000    0.0000 O   0  0  0  0  0  0  0  0  0  0  0  0
   -1.0917   -4.7625    0.0000 O   0  0  0  0  0  0  0  0  0  0  0  0
   11.2417   -8.5875    0.0000 O   0  0  0  0  0  0  0  0  0  0  0  0
   -0.9000   -1.5750    0.0000 O   0  0  0  0  0  0  0  0  0  0  0  0
   12.0667   -5.2875    0.0000 N   0  0  0  0  0  0  0  0  0  0  0  0
   -0.0750   -4.8750    0.0000 N   0  0  0  0  0  0  0  0  0  0  0  0
    7.0667   -4.8750    0.0000 C   0  0  0  0  0  0  0  0  0  0  0  0
    4.9208   -5.2875    0.0000 C   0  0  0  0  0  0  0  0  0  0  0  0
    7.7792   -5.2875    0.0000 C   0  0  0  0  0  0  0  0  0  0  0  0
    4.2083   -4.8750    0.0000 C   0  0  0  0  0  0  0  0  0  0  0  0
   10.6375   -5.2875    0.0000 O   0  0  0  0  0  0  0  0  0  0  0  0
    1.3500   -4.8750    0.0000 O   0  0  0  0  0  0  0  0  0  0  0  0
    4.9208   -2.8125    0.0000 C   0  0  0  0  0  0  0  0  0  0  0  0
    7.0667   -7.3500    0.0000 C   0  0  0  0  0  0  0  0  0  0  0  0
  2 10  2  0
  3  1  1  0
  4  2  1  0
  5 11  1  0
  6 12  1  0
  7  9  1  0
  8 18  1  0
  9  1  2  0
 10  8  1  0
 11 15  2  0
 12 14  1  0
 13 11  1  0
 14 26  1  0
 15  1  1  0
 16 12  2  0
 17  7  1  0
 18 24  2  0
 19 23  1  0
 20 22  2  0
 21 19  2  0
 22 40  1  0
 23 17  2  0
 24 20  1  0
 25 13  1  0
 26 44  2  0
 27 51  2  0
 28 27  1  0
 29 41  2  0
 30 28  1  0
 31  4  2  0
 32  4  2  0
 33  3  2  0
 34  3  2  0
 35  6  2  0
 36  6  2  0
 37  5  2  0
 38  5  2  0
 39 21  1  0
 40 54  2  0
 41 39  1  0
 42 30  2  0
 43 25  2  0
 44 24  1  0
 45  3  1  0
 46  4  1  0
 47  5  1  0
 48  6  1  0
 49  9  1  0
 50 10  1  0
 51 53  1  0
 52 28  2  0
 53 39  2  0
 54 52  1  0
 55 17  1  0
 56 18  1  0
 57 42  1  0
 58 41  1  0
 13  7  2  0
 43 23  1  0
 29 27  1  0
 42 40  1  0
 14  8  2  0
 16  2  1  0
M  END
> <chembl_id>
CHEMBL1015

> <chembl_pref_name>
EVANS BLUE FREE ACID
