
     RDKit          2D

 37 40  0  0  0  0  0  0  0  0999 V2000
    3.7292    0.3096    0.0000 C   0  0  0  0  0  0  0  0  0  0  0  0
    3.0147   -0.1029    0.0000 C   0  0  0  0  0  0  0  0  0  0  0  0
    3.0147   -0.9279    0.0000 C   0  0  0  0  0  0  0  0  0  0  0  0
    3.7292   -1.3404    0.0000 N   0  0  0  0  0  0  0  0  0  0  0  0
    4.4437   -0.9279    0.0000 C   0  0  0  0  0  0  0  0  0  0  0  0
    4.4437   -0.1029    0.0000 C   0  0  0  0  0  0  0  0  0  0  0  0
    5.1582    0.3096    0.0000 Cl  0  0  0  0  0  0  0  0  0  0  0  0
    2.3002   -1.3404    0.0000 N   0  0  0  0  0  0  0  0  0  0  0  0
    1.5858   -0.9279    0.0000 C   0  0  0  0  0  0  0  0  0  0  0  0
    0.8713   -1.3404    0.0000 C   0  0  0  0  0  0  0  0  0  0  0  0
    1.5858   -0.1029    0.0000 O   0  0  0  0  0  0  0  0  0  0  0  0
    0.1568   -0.9279    0.0000 N   0  0  0  0  0  0  0  0  0  0  0  0
    0.8713   -2.1654    0.0000 O   0  0  0  0  0  0  0  0  0  0  0  0
    0.1568   -0.1029    0.0000 C   0  0  0  0  0  0  0  0  0  0  0  0
    0.8713    0.3096    0.0000 C   0  0  0  0  0  0  0  0  0  0  0  0
    0.8713    1.1346    0.0000 C   0  0  0  0  0  0  0  0  0  0  0  0
    0.1568    1.5471    0.0000 C   0  0  0  0  0  0  0  0  0  0  0  0
   -0.5576    1.1346    0.0000 C   0  0  0  0  0  0  0  0  0  0  0  0
   -0.5576    0.3096    0.0000 C   0  0  0  0  0  0  0  0  0  0  0  0
    0.5693    2.2616    0.0000 C   0  0  0  0  0  0  0  0  0  0  0  0
    0.1568    2.9761    0.0000 O   0  0  0  0  0  0  0  0  0  0  0  0
    1.3943    2.2616    0.0000 N   0  0  0  0  0  0  0  0  0  0  0  0
    1.8068    2.9761    0.0000 C   0  0  0  0  0  0  0  0  0  0  0  0
    1.8068    1.5471    0.0000 C   0  0  0  0  0  0  0  0  0  0  0  0
   -1.2721   -0.1029    0.0000 N   0  0  0  0  0  0  0  0  0  0  0  0
   -1.9866    0.3096    0.0000 C   0  0  0  0  0  0  0  0  0  0  0  0
   -2.7011   -0.1029    0.0000 C   0  0  0  0  0  0  0  0  0  0  0  0
   -1.9866    1.1346    0.0000 O   0  0  0  0  0  0  0  0  0  0  0  0
   -3.4547    0.2326    0.0000 N   0  0  0  0  0  0  0  0  0  0  0  0
   -4.0067   -0.3804    0.0000 C   0  0  0  0  0  0  0  0  0  0  0  0
   -3.5942   -1.0949    0.0000 C   0  0  0  0  0  0  0  0  0  0  0  0
   -2.7873   -0.9234    0.0000 S   0  0  0  0  0  0  0  0  0  0  0  0
   -4.8318   -0.3804    0.0000 C   0  0  0  0  0  0  0  0  0  0  0  0
   -5.2443   -1.0949    0.0000 C   0  0  0  0  0  0  0  0  0  0  0  0
   -4.8318   -1.8094    0.0000 N   0  0  0  0  0  0  0  0  0  0  0  0
   -4.0068   -1.8094    0.0000 C   0  0  0  0  0  0  0  0  0  0  0  0
   -5.2443   -2.5238    0.0000 C   0  0  0  0  0  0  0  0  0  0  0  0
  1  2  1  0
  1  6  2  0
  2  3  2  0
  3  4  1  0
  4  5  2  0
  5  6  1  0
  6  7  1  0
  3  8  1  0
  8  9  1  0
  9 10  1  0
  9 11  2  0
 10 12  1  0
 10 13  2  0
 14 12  1  6
 14 15  1  0
 19 14  1  0
 15 16  1  0
 16 17  1  0
 17 18  1  0
 18 19  1  0
 17 20  1  1
 20 21  2  0
 20 22  1  0
 22 23  1  0
 22 24  1  0
 19 25  1  6
 25 26  1  0
 26 27  1  0
 26 28  2  0
 27 29  2  0
 27 32  1  0
 29 30  1  0
 31 32  1  0
 30 33  1  0
 31 30  2  0
 36 31  1  0
 33 34  1  0
 34 35  1  0
 35 36  1  0
 35 37  1  0
M  END
> <chembl_id>
CHEMBL1269025

> <chembl_pref_name>
EDOXABAN
