
     RDKit          2D

 16 15  0  0  0  0  0  0  0  0999 V2000
    0.5409   -4.8290    0.0000 C   0  0  0  0  0  0  0  0  0  0  0  0
    0.9502   -4.0981    0.0000 N   0  0  0  0  0  0  0  0  0  0  0  0
    1.2572   -5.2383    0.0000 C   0  0  0  0  0  0  0  0  0  0  0  0
   -0.1754   -5.2383    0.0000 C   0  0  0  0  0  0  0  0  0  0  0  0
    0.1219   -4.0981    0.0000 C   0  0  0  0  0  0  0  0  0  0  0  0
    0.5312   -3.3818    0.0000 O   0  0  0  0  0  0  0  0  0  0  0  0
    1.9735   -4.8290    0.0000 O   0  0  0  0  0  0  0  0  0  0  0  0
   -0.8966   -4.8290    0.0000 O   0  0  0  0  0  0  0  0  0  0  0  0
    4.2686   -4.0542    0.0000 C   0  0  0  0  0  0  0  0  0  0  0  0
    4.6828   -3.3427    0.0000 O   0  0  0  0  0  0  0  0  0  0  0  0
    3.5426   -4.4635    0.0000 P   0  0  0  0  0  0  0  0  0  0  0  0
    5.0921   -4.0542    0.0000 C   0  0  0  0  0  0  0  0  0  0  0  0
    2.8311   -4.0444    0.0000 O   0  0  0  0  0  0  0  0  0  0  0  0
    3.9519   -5.1798    0.0000 O   0  0  0  0  0  0  0  0  0  0  0  0
    3.1283   -5.1798    0.0000 O   0  0  0  0  0  0  0  0  0  0  0  0
    5.8084   -4.4732    0.0000 C   0  0  0  0  0  0  0  0  0  0  0  0
  2  1  1  0
  3  1  1  0
  4  1  1  0
  5  1  1  0
  6  5  1  0
  7  3  1  0
  8  4  1  0
 10  9  1  0
  9 11  1  1
 12  9  1  0
 13 11  1  0
 14 11  2  0
 15 11  1  0
 12 16  1  1
 12 10  1  0
M  END
> <chembl_id>
CHEMBL1200331

> <chembl_pref_name>
FOSFOMYCIN TROMETHAMINE
