
     RDKit          2D

 38 38  0  0  0  0  0  0  0  0999 V2000
    5.8292   -4.9167    0.0000 C   0  0  0  0  0  0  0  0  0  0  0  0
    6.5417   -4.5042    0.0000 C   0  0  0  0  0  0  0  0  0  0  0  0
    7.2542   -3.2667    0.0000 C   0  0  0  0  0  0  0  0  0  0  0  0
    6.5417   -3.6792    0.0000 O   0  0  0  0  0  0  0  0  0  0  0  0
    5.1167   -4.5042    0.0000 C   0  0  0  0  0  0  0  0  0  0  0  0
    2.9750   -4.9167    0.0000 N   0  0  0  0  0  0  0  0  0  0  0  0
    3.6875   -4.5042    0.0000 C   0  0  0  0  0  0  0  0  0  0  0  0
    4.4042   -4.9167    0.0000 C   0  0  0  0  0  0  0  0  0  0  0  0
    5.8292   -5.7417    0.0000 C   0  0  0  0  0  0  0  0  0  0  0  0
    7.2542   -2.4417    0.0000 O   0  0  0  0  0  0  0  0  0  0  0  0
    7.2542   -4.9167    0.0000 C   0  0  0  0  0  0  0  0  0  0  0  0
    5.1167   -3.6792    0.0000 C   0  0  0  0  0  0  0  0  0  0  0  0
    7.9667   -3.6792    0.0000 C   0  0  0  0  0  0  0  0  0  0  0  0
    2.2542   -4.5042    0.0000 C   0  0  0  0  0  0  0  0  0  0  0  0
    2.9750   -5.7417    0.0000 C   0  0  0  0  0  0  0  0  0  0  0  0
    6.5417   -6.1542    0.0000 C   0  0  0  0  0  0  0  0  0  0  0  0
    7.2542   -5.7417    0.0000 C   0  0  0  0  0  0  0  0  0  0  0  0
    7.2542   -7.3917    0.0000 O   0  0  0  0  0  0  0  0  0  0  0  0
    6.5417   -6.9792    0.0000 C   0  0  0  0  0  0  0  0  0  0  0  0
    5.8292   -3.2667    0.0000 C   0  0  0  0  0  0  0  0  0  0  0  0
    4.4000   -3.2667    0.0000 C   0  0  0  0  0  0  0  0  0  0  0  0
    8.6875   -3.2667    0.0000 C   0  0  0  0  0  0  0  0  0  0  0  0
    7.9667   -4.5042    0.0000 C   0  0  0  0  0  0  0  0  0  0  0  0
    3.6875   -6.1542    0.0000 C   0  0  0  0  0  0  0  0  0  0  0  0
    2.2542   -3.6792    0.0000 C   0  0  0  0  0  0  0  0  0  0  0  0
    1.5417   -4.9167    0.0000 C   0  0  0  0  0  0  0  0  0  0  0  0
    2.2542   -6.1542    0.0000 C   0  0  0  0  0  0  0  0  0  0  0  0
    4.4000   -2.4417    0.0000 C   0  0  0  0  0  0  0  0  0  0  0  0
    5.8292   -2.4417    0.0000 C   0  0  0  0  0  0  0  0  0  0  0  0
    5.1167   -2.0292    0.0000 C   0  0  0  0  0  0  0  0  0  0  0  0
   -0.2000   -7.6125    0.0000 C   0  0  0  0  0  0  0  0  0  0  0  0
    1.9417   -8.0167    0.0000 C   0  0  0  0  0  0  0  0  0  0  0  0
    1.2292   -7.6042    0.0000 C   0  0  0  0  0  0  0  0  0  0  0  0
    0.5167   -8.0167    0.0000 C   0  0  0  0  0  0  0  0  0  0  0  0
    1.9417   -8.8417    0.0000 O   0  0  0  0  0  0  0  0  0  0  0  0
   -0.2083   -6.7792    0.0000 O   0  0  0  0  0  0  0  0  0  0  0  0
   -0.9208   -8.0250    0.0000 O   0  0  0  0  0  0  0  0  0  0  0  0
    2.6625   -7.6042    0.0000 O   0  0  0  0  0  0  0  0  0  0  0  0
  2  1  1  0
  3  4  1  0
  4  2  1  0
  5  1  1  0
  6  7  1  0
  7  8  1  0
  8  5  1  0
  9  1  2  0
 10  3  2  0
 11  2  2  0
  5 12  1  6
 13  3  1  0
 14  6  1  0
 15  6  1  0
 16  9  1  0
 17 11  1  0
 18 19  1  0
 19 16  1  0
 20 12  2  0
 21 12  1  0
 22 13  1  0
 23 13  1  0
 24 15  1  0
 25 14  1  0
 26 14  1  0
 27 15  1  0
 28 21  2  0
 29 20  1  0
 30 28  1  0
 17 16  2  0
 29 30  2  0
 32 33  1  0
 33 34  2  0
 34 31  1  0
 35 32  2  0
 36 31  2  0
 37 31  1  0
 38 32  1  0
M  END
> <chembl_id>
CHEMBL1201765

> <chembl_pref_name>
FESOTERODINE FUMARATE
