
     RDKit          2D

 13 13  0  0  0  0  0  0  0  0999 V2000
    5.3042   -4.8917    0.0000 C   0  0  0  0  0  0  0  0  0  0  0  0
    4.6792   -4.5167    0.0000 C   0  0  0  0  0  0  0  0  0  0  0  0
    5.3042   -5.6167    0.0000 C   0  0  0  0  0  0  0  0  0  0  0  0
    4.6667   -5.9792    0.0000 N   0  0  0  0  0  0  0  0  0  0  0  0
    4.0375   -4.8792    0.0000 C   0  0  0  0  0  0  0  0  0  0  0  0
    4.0375   -5.6042    0.0000 C   0  0  0  0  0  0  0  0  0  0  0  0
    4.6667   -3.7917    0.0000 O   0  0  0  0  0  0  0  0  0  0  0  0
    5.9375   -5.9917    0.0000 O   0  0  0  0  0  0  0  0  0  0  0  0
    5.3167   -4.1292    0.0000 C   0  0  0  0  0  0  0  0  0  0  0  0
    5.8917   -4.5917    0.0000 C   0  0  0  0  0  0  0  0  0  0  0  0
    3.4292   -4.5250    0.0000 C   0  0  0  0  0  0  0  0  0  0  0  0
    5.8125   -3.7042    0.0000 C   0  0  0  0  0  0  0  0  0  0  0  0
    6.4625   -4.8667    0.0000 C   0  0  0  0  0  0  0  0  0  0  0  0
  2  1  1  0
  3  1  1  0
  4  3  1  0
  5  2  1  0
  6  4  1  0
  7  2  2  0
  8  3  2  0
  9  1  1  0
 10  1  1  0
 11  5  1  0
 12  9  1  0
 13 10  1  0
  6  5  1  0
M  END
> <chembl_id>
CHEMBL1200790

> <chembl_pref_name>
METHYPRYLON
