
     RDKit          2D

 34 37  0  0  1  0  0  0  0  0999 V2000
    5.1417   -4.6917    0.0000 C   0  0  0  0  0  0  0  0  0  0  0  0
    3.9083   -5.3875    0.0000 C   0  0  0  0  0  0  0  0  0  0  0  0
    5.8167   -4.4792    0.0000 C   0  0  0  0  0  0  0  0  0  0  0  0
    3.2958   -5.7417    0.0000 C   0  0  0  0  0  0  0  0  0  0  0  0
    5.1333   -5.3958    0.0000 C   0  0  0  0  0  0  0  0  0  0  0  0
    4.5208   -5.7458    0.0000 C   0  0  0  0  0  0  0  0  0  0  0  0
    3.2958   -6.4500    0.0000 C   0  0  0  0  0  0  0  0  0  0  0  0
    3.9125   -4.6792    0.0000 C   0  0  0  0  0  0  0  0  0  0  0  0
    4.5292   -4.3292    0.0000 C   0  0  0  0  0  0  0  0  0  0  0  0
    6.2250   -5.0542    0.0000 C   0  0  0  0  0  0  0  0  0  0  0  0
    2.6833   -5.3875    0.0000 C   0  0  0  0  0  0  0  0  0  0  0  0
    5.8042   -5.6250    0.0000 C   0  0  0  0  0  0  0  0  0  0  0  0
    2.6833   -6.8042    0.0000 C   0  0  0  0  0  0  0  0  0  0  0  0
    5.8125   -3.7667    0.0000 C   0  0  0  0  0  0  0  0  0  0  0  0
    6.4292   -4.1167    0.0000 O   0  0  0  0  0  0  0  0  0  0  0  0
    4.5167   -6.4542    0.0000 C   0  0  0  0  0  0  0  0  0  0  0  0
    2.0708   -5.7417    0.0000 C   0  0  0  0  0  0  0  0  0  0  0  0
    2.0708   -6.4500    0.0000 C   0  0  0  0  0  0  0  0  0  0  0  0
    7.1375   -4.1167    0.0000 C   0  0  0  0  0  0  0  0  0  0  0  0
    3.9042   -6.8042    0.0000 C   0  0  0  0  0  0  0  0  0  0  0  0
    3.9042   -6.0917    0.0000 F   0  0  0  0  0  0  0  0  0  0  0  0
    5.1958   -3.4208    0.0000 O   0  0  0  0  0  0  0  0  0  0  0  0
    7.4917   -4.7333    0.0000 O   0  0  0  0  0  0  0  0  0  0  0  0
    1.4583   -6.8000    0.0000 O   0  0  0  0  0  0  0  0  0  0  0  0
    5.1375   -3.9792    0.0000 C   0  0  0  0  0  0  0  0  0  0  0  0
    3.3000   -4.3208    0.0000 O   0  0  0  0  0  0  0  0  0  0  0  0
    3.2917   -5.0292    0.0000 C   0  0  0  0  0  0  0  0  0  0  0  0
    6.4208   -3.4083    0.0000 C   0  0  0  0  0  0  0  0  0  0  0  0
    6.4167   -2.7000    0.0000 Cl  0  0  0  0  0  0  0  0  0  0  0  0
    6.9333   -5.0625    0.0000 C   0  0  0  0  0  0  0  0  0  0  0  0
    7.4917   -3.5042    0.0000 C   0  0  0  0  0  0  0  0  0  0  0  0
    8.2000   -3.5042    0.0000 C   0  0  0  0  0  0  0  0  0  0  0  0
    4.5167   -5.0375    0.0000 H   0  0  0  0  0  0  0  0  0  0  0  0
    5.1292   -6.1042    0.0000 H   0  0  0  0  0  0  0  0  0  0  0  0
  2  6  1  0
  3  1  1  0
  4  2  1  0
  5  1  1  0
  6  5  1  0
  7  4  1  0
  8  9  1  0
  9  1  1  0
 10  3  1  0
 11  4  1  0
 12  5  1  0
 13  7  2  0
 14  3  1  0
  3 15  1  6
 16  6  1  0
 17 11  2  0
 18 13  1  0
 19 15  1  0
 20 16  1  0
  2 21  1  6
 22 14  2  0
 23 19  2  0
 24 18  2  0
  1 25  1  1
  8 26  1  1
  4 27  1  1
 28 14  1  0
 29 28  1  0
 10 30  1  1
 31 19  1  0
 32 31  1  0
  6 33  1  1
  5 34  1  6
 10 12  1  0
  8  2  1  0
 20  7  1  0
 18 17  1  0
M  END
> <chembl_id>
CHEMBL1159650

> <chembl_pref_name>
CLOBETASOL PROPIONATE
