
     RDKit          2D

 20 20  0  0  0  0  0  0  0  0999 V2000
    3.7125   -6.5000    0.0000 Cl  0  0  0  0  0  0  0  0  0  0  0  0
    5.4250   -5.5042    0.0000 C   0  0  0  0  0  0  0  0  0  0  0  0
    6.0292   -5.1375    0.0000 C   0  0  0  0  0  0  0  0  0  0  0  0
    5.4292   -6.2042    0.0000 C   0  0  0  0  0  0  0  0  0  0  0  0
    2.9625   -5.5167    0.0000 N   0  0  0  0  0  0  0  0  0  0  0  0
    4.8125   -5.1417    0.0000 O   0  0  0  0  0  0  0  0  0  0  0  0
    4.1917   -5.5125    0.0000 C   0  0  0  0  0  0  0  0  0  0  0  0
    3.5792   -5.1625    0.0000 C   0  0  0  0  0  0  0  0  0  0  0  0
    6.0417   -6.5500    0.0000 C   0  0  0  0  0  0  0  0  0  0  0  0
    4.8250   -6.5625    0.0000 C   0  0  0  0  0  0  0  0  0  0  0  0
    6.0292   -4.4292    0.0000 C   0  0  0  0  0  0  0  0  0  0  0  0
    6.6542   -5.4792    0.0000 C   0  0  0  0  0  0  0  0  0  0  0  0
    2.3417   -5.1667    0.0000 C   0  0  0  0  0  0  0  0  0  0  0  0
    2.9667   -6.2167    0.0000 C   0  0  0  0  0  0  0  0  0  0  0  0
    4.8292   -7.2750    0.0000 C   0  0  0  0  0  0  0  0  0  0  0  0
    6.6417   -4.0667    0.0000 C   0  0  0  0  0  0  0  0  0  0  0  0
    7.2750   -5.1292    0.0000 C   0  0  0  0  0  0  0  0  0  0  0  0
    6.0500   -7.2667    0.0000 C   0  0  0  0  0  0  0  0  0  0  0  0
    7.2667   -4.4167    0.0000 C   0  0  0  0  0  0  0  0  0  0  0  0
    5.4375   -7.6292    0.0000 C   0  0  0  0  0  0  0  0  0  0  0  0
  3  2  1  0
  4  2  1  0
  5  8  1  0
  6  2  1  0
  7  6  1  0
  8  7  1  0
  9  4  1  0
 10  4  2  0
 11  3  1  0
 12  3  2  0
 13  5  1  0
 14  5  1  0
 15 10  1  0
 16 11  2  0
 17 12  1  0
 18  9  2  0
 19 16  1  0
 20 15  2  0
 20 18  1  0
 19 17  2  0
M  END
> <chembl_id>
CHEMBL1620

> <chembl_pref_name>
DIPHENHYDRAMINE HYDROCHLORIDE
