
     RDKit          2D

 24 26  0  0  0  0  0  0  0  0999 V2000
   -2.9805    2.3445    0.0000 N   0  0  0  0  0  0  0  0  0  0  0  0
   -3.6950    1.9320    0.0000 C   0  0  0  0  0  0  0  0  0  0  0  0
   -3.6950    1.1070    0.0000 C   0  0  0  0  0  0  0  0  0  0  0  0
   -2.9805    0.6945    0.0000 C   0  0  0  0  0  0  0  0  0  0  0  0
   -2.2661    1.1070    0.0000 C   0  0  0  0  0  0  0  0  0  0  0  0
   -2.2661    1.9320    0.0000 C   0  0  0  0  0  0  0  0  0  0  0  0
   -1.9577   -0.8805    0.0000 C   0  0  0  0  0  0  0  0  0  0  0  0
   -2.4567   -1.5375    0.0000 C   0  0  0  0  0  0  0  0  0  0  0  0
   -2.1372   -2.2981    0.0000 C   0  0  0  0  0  0  0  0  0  0  0  0
   -1.3188   -2.4018    0.0000 C   0  0  0  0  0  0  0  0  0  0  0  0
   -0.8198   -1.7448    0.0000 C   0  0  0  0  0  0  0  0  0  0  0  0
   -1.1392   -0.9842    0.0000 C   0  0  0  0  0  0  0  0  0  0  0  0
   -0.0442    0.8484    0.0000 C   0  0  0  0  0  0  0  0  0  0  0  0
   -0.7587    0.4359    0.0000 N   0  0  0  0  0  0  0  0  0  0  0  0
   -0.5872   -0.3711    0.0000 C   0  0  0  0  0  0  0  0  0  0  0  0
    0.2333   -0.4573    0.0000 C   0  0  0  0  0  0  0  0  0  0  0  0
    0.5688    0.2963    0.0000 C   0  0  0  0  0  0  0  0  0  0  0  0
   -1.5124    0.7714    0.0000 S   0  0  0  0  0  0  0  0  0  0  0  0
   -1.1768    1.5251    0.0000 O   0  0  0  0  0  0  0  0  0  0  0  0
   -1.8479    0.0177    0.0000 O   0  0  0  0  0  0  0  0  0  0  0  0
   -0.0013   -1.8485    0.0000 F   0  0  0  0  0  0  0  0  0  0  0  0
    1.3758    0.4678    0.0000 C   0  0  0  0  0  0  0  0  0  0  0  0
    1.6308    1.2524    0.0000 N   0  0  0  0  0  0  0  0  0  0  0  0
    2.4456    1.3815    0.0000 C   0  0  0  0  0  0  0  0  0  0  0  0
  1  2  1  0
  2  3  2  0
  3  4  1  0
  4  5  2  0
  5  6  1  0
  1  6  2  0
  7  8  1  0
  8  9  2  0
  9 10  1  0
 10 11  2  0
 11 12  1  0
  7 12  2  0
 13 14  1  0
 14 15  1  0
 15 16  2  0
 16 17  1  0
 13 17  2  0
  5 18  1  0
 18 14  1  0
 18 19  2  0
 18 20  2  0
 15 12  1  0
 11 21  1  0
 17 22  1  0
 22 23  1  0
 23 24  1  0
M  END
> <chembl_id>
CHEMBL2079130

> <chembl_pref_name>
VONOPRAZAN
