
     RDKit          2D

 26 27  0  0  0  0  0  0  0  0999 V2000
    3.6792    0.4958    0.0000 C   0  0  0  0  0  0  0  0  0  0  0  0
    2.4292    1.2083    0.0000 C   0  0  0  0  0  0  0  0  0  0  0  0
    3.0542    0.1250    0.0000 C   0  0  0  0  0  0  0  0  0  0  0  0
    2.4292    0.4833    0.0000 C   0  0  0  0  0  0  0  0  0  0  0  0
    3.6875    1.2083    0.0000 O   0  0  0  0  0  0  0  0  0  0  0  0
    1.8042    1.5583    0.0000 O   0  0  0  0  0  0  0  0  0  0  0  0
    3.0542    1.5583    0.0000 O   0  0  0  0  0  0  0  0  0  0  0  0
    4.2917    0.1250    0.0000 O   0  0  0  0  0  0  0  0  0  0  0  0
   -3.0583   -1.0375    0.0000 C   0  0  0  0  0  0  0  0  0  0  0  0
   -3.0583   -0.3000    0.0000 C   0  0  0  0  0  0  0  0  0  0  0  0
   -2.4083    0.0625    0.0000 C   0  0  0  0  0  0  0  0  0  0  0  0
   -1.7625   -1.0375    0.0000 N   0  0  0  0  0  0  0  0  0  0  0  0
   -2.4083   -1.4042    0.0000 C   0  0  0  0  0  0  0  0  0  0  0  0
   -1.7625   -0.3000    0.0000 C   0  0  0  0  0  0  0  0  0  0  0  0
   -3.7000   -1.4042    0.0000 C   0  0  0  0  0  0  0  0  0  0  0  0
   -2.4083    0.7958    0.0000 C   0  0  0  0  0  0  0  0  0  0  0  0
   -3.7000   -2.1292    0.0000 N   0  0  0  0  0  0  0  0  0  0  0  0
   -3.7000    0.0625    0.0000 C   0  0  0  0  0  0  0  0  0  0  0  0
   -1.1333   -1.3917    0.0000 C   0  0  0  0  0  0  0  0  0  0  0  0
   -4.3458   -0.3000    0.0000 C   0  0  0  0  0  0  0  0  0  0  0  0
   -4.3458   -1.0375    0.0000 C   0  0  0  0  0  0  0  0  0  0  0  0
   -1.8000    1.1458    0.0000 C   0  0  0  0  0  0  0  0  0  0  0  0
   -3.0625    1.1458    0.0000 C   0  0  0  0  0  0  0  0  0  0  0  0
   -3.0625    1.8833    0.0000 C   0  0  0  0  0  0  0  0  0  0  0  0
   -1.8000    1.9208    0.0000 C   0  0  0  0  0  0  0  0  0  0  0  0
   -2.4208    2.2708    0.0000 C   0  0  0  0  0  0  0  0  0  0  0  0
  2  4  1  0
  3  1  1  0
  4  3  2  0
  5  1  2  0
  6  2  2  0
  7  2  1  0
  8  1  1  0
 10  9  1  0
 11 10  1  0
 12 13  1  0
 13  9  1  0
 14 12  1  0
 15  9  2  0
 16 11  1  0
 17 15  1  0
 18 10  2  0
 19 12  1  0
 20 21  2  0
 21 15  1  0
 22 16  2  0
 23 16  1  0
 24 23  2  0
 25 22  1  0
 26 24  1  0
 18 20  1  0
 11 14  1  0
 25 26  2  0
M  END
> <chembl_id>
CHEMBL1256842

> <chembl_pref_name>
NOMIFENSINE MALEATE
