
     RDKit          2D

  9  9  0  0  0  0  0  0  0  0999 V2000
    5.6875   -4.6542    0.0000 C   0  0  0  0  0  0  0  0  0  0  0  0
    5.0750   -5.0125    0.0000 C   0  0  0  0  0  0  0  0  0  0  0  0
    5.6875   -3.9417    0.0000 O   0  0  0  0  0  0  0  0  0  0  0  0
    4.4625   -6.0792    0.0000 N   0  0  0  0  0  0  0  0  0  0  0  0
    6.3042   -5.0125    0.0000 O   0  0  0  0  0  0  0  0  0  0  0  0
    5.0750   -5.7167    0.0000 C   0  0  0  0  0  0  0  0  0  0  0  0
    4.4625   -4.6542    0.0000 C   0  0  0  0  0  0  0  0  0  0  0  0
    3.8417   -5.7167    0.0000 C   0  0  0  0  0  0  0  0  0  0  0  0
    3.8417   -5.0125    0.0000 C   0  0  0  0  0  0  0  0  0  0  0  0
  2  1  1  0
  3  1  2  0
  4  6  2  0
  5  1  1  0
  6  2  1  0
  7  2  2  0
  8  9  2  0
  9  7  1  0
  8  4  1  0
M  END
> <chembl_id>
CHEMBL573

> <chembl_pref_name>
NIACIN
