
     RDKit          2D

  7  7  0  0  0  0  0  0  0  0999 V2000
   -0.0083    0.6083    0.0000 C   0  0  0  0  0  0  0  0  0  0  0  0
   -0.0083    2.0833    0.0000 O   0  0  0  0  0  0  0  0  0  0  0  0
    1.2375   -0.1167    0.0000 C   0  0  0  0  0  0  0  0  0  0  0  0
   -1.2458   -0.0667    0.0000 C   0  0  0  0  0  0  0  0  0  0  0  0
   -1.2458   -1.5000    0.0000 C   0  0  0  0  0  0  0  0  0  0  0  0
    1.2375   -1.5000    0.0000 C   0  0  0  0  0  0  0  0  0  0  0  0
   -0.0083   -2.2417    0.0000 C   0  0  0  0  0  0  0  0  0  0  0  0
  2  1  1  0
  3  1  1  0
  4  1  2  0
  5  4  1  0
  6  3  2  0
  7  5  2  0
  6  7  1  0
M  END
> <chembl_id>
CHEMBL14060

> <chembl_pref_name>
PHENOL
