
     RDKit          2D

 18 19  0  0  0  0  0  0  0  0999 V2000
   -1.2958    0.8083    0.0000 C   0  0  0  0  0  0  0  0  0  0  0  0
   -2.1458    1.7000    0.0000 C   0  0  0  0  0  0  0  0  0  0  0  0
   -3.3333    1.4208    0.0000 C   0  0  0  0  0  0  0  0  0  0  0  0
   -0.0875    1.0875    0.0000 C   0  0  0  0  0  0  0  0  0  0  0  0
    0.7417    0.2083    0.0000 N   0  0  0  0  0  0  0  0  0  0  0  0
   -3.6958    0.2500    0.0000 C   0  0  0  0  0  0  0  0  0  0  0  0
   -1.6458   -0.3542    0.0000 C   0  0  0  0  0  0  0  0  0  0  0  0
   -2.8458   -0.6417    0.0000 C   0  0  0  0  0  0  0  0  0  0  0  0
    1.9417    0.4833    0.0000 C   0  0  0  0  0  0  0  0  0  0  0  0
   -1.7833    2.8833    0.0000 N   0  0  0  0  0  0  0  0  0  0  0  0
   -4.1875    2.3125    0.0000 Br  0  0  0  0  0  0  0  0  0  0  0  0
   -3.2000   -1.8292    0.0000 Br  0  0  0  0  0  0  0  0  0  0  0  0
    0.3917   -0.9667    0.0000 C   0  0  0  0  0  0  0  0  0  0  0  0
    2.2917    1.6583    0.0000 C   0  0  0  0  0  0  0  0  0  0  0  0
    2.7917   -0.4042    0.0000 C   0  0  0  0  0  0  0  0  0  0  0  0
    3.4917    1.9458    0.0000 C   0  0  0  0  0  0  0  0  0  0  0  0
    3.9792   -0.1167    0.0000 C   0  0  0  0  0  0  0  0  0  0  0  0
    4.3417    1.0500    0.0000 C   0  0  0  0  0  0  0  0  0  0  0  0
  2  1  2  0
  3  2  1  0
  4  1  1  0
  5  4  1  0
  6  8  1  0
  7  1  1  0
  8  7  2  0
  9  5  1  0
 10  2  1  0
 11  3  1  0
 12  8  1  0
 13  5  1  0
 14  9  1  0
 15  9  1  0
 16 14  1  0
 17 15  1  0
 18 16  1  0
  3  6  2  0
 17 18  1  0
M  END
> <chembl_id>
CHEMBL253376

> <chembl_pref_name>
BROMHEXINE
