
     RDKit          2D

 15 14  0  0  0  0  0  0  0  0999 V2000
    5.9292   -7.3125    0.0000 O   0  0  0  0  0  0  0  0  0  0  0  0
    5.7042   -5.9417    0.0000 P   0  0  0  0  0  0  0  0  0  0  0  0
    5.6917   -5.2375    0.0000 N   0  0  0  0  0  0  0  0  0  0  0  0
    5.0042   -5.9417    0.0000 N   0  0  0  0  0  0  0  0  0  0  0  0
    6.3167   -6.2917    0.0000 O   0  0  0  0  0  0  0  0  0  0  0  0
    5.4667   -6.6167    0.0000 O   0  0  0  0  0  0  0  0  0  0  0  0
    4.6417   -6.5667    0.0000 C   0  0  0  0  0  0  0  0  0  0  0  0
    4.6417   -5.3417    0.0000 C   0  0  0  0  0  0  0  0  0  0  0  0
    3.5875   -7.1917    0.0000 Cl  0  0  0  0  0  0  0  0  0  0  0  0
    3.5667   -4.7292    0.0000 Cl  0  0  0  0  0  0  0  0  0  0  0  0
    6.3125   -4.8750    0.0000 C   0  0  0  0  0  0  0  0  0  0  0  0
    6.9375   -5.2250    0.0000 C   0  0  0  0  0  0  0  0  0  0  0  0
    6.9375   -5.9292    0.0000 C   0  0  0  0  0  0  0  0  0  0  0  0
    3.9417   -6.5667    0.0000 C   0  0  0  0  0  0  0  0  0  0  0  0
    3.9292   -5.3417    0.0000 C   0  0  0  0  0  0  0  0  0  0  0  0
  3  2  1  0
  4  2  1  0
  5  2  1  0
  6  2  2  0
  7  4  1  0
  8  4  1  0
  9 14  1  0
 10 15  1  0
 11  3  1  0
 12 13  1  0
 13  5  1  0
 14  7  1  0
 15  8  1  0
 12 11  1  0
M  END
> <chembl_id>
CHEMBL1200796

> <chembl_pref_name>
CYCLOPHOSPHAMIDE
