
     RDKit          2D

 29 29  0  0  0  0  0  0  0  0999 V2000
    9.3402  -18.6214    0.0000 O   0  0  0  0  0  0  0  0  0  0  0  0
    6.9875  -16.2708    0.0000 N   0  0  0  0  0  0  0  0  0  0  0  0
    6.9792  -17.0958    0.0000 C   0  0  0  0  0  0  0  0  0  0  0  0
    6.1625  -16.2625    0.0000 C   0  0  0  0  0  0  0  0  0  0  0  0
    6.1542  -17.0875    0.0000 C   0  0  0  0  0  0  0  0  0  0  0  0
    7.7708  -16.0250    0.0000 C   0  0  0  0  0  0  0  0  0  0  0  0
    7.7583  -17.3542    0.0000 S   0  0  0  0  0  0  0  0  0  0  0  0
    8.2542  -16.6958    0.0000 C   0  0  0  0  0  0  0  0  0  0  0  0
    4.7250  -17.0833    0.0000 C   0  0  0  0  0  0  0  0  0  0  0  0
    5.4417  -17.4958    0.0000 N   0  0  0  0  0  0  0  0  0  0  0  0
    4.0083  -17.4958    0.0000 C   0  0  0  0  0  0  0  0  0  0  0  0
    8.1917  -15.3167    0.0000 C   0  0  0  0  0  0  0  0  0  0  0  0
    5.5833  -15.6750    0.0000 O   0  0  0  0  0  0  0  0  0  0  0  0
    4.7250  -16.2583    0.0000 O   0  0  0  0  0  0  0  0  0  0  0  0
    3.2917  -17.0792    0.0000 C   0  0  0  0  0  0  0  0  0  0  0  0
    4.0042  -18.3208    0.0000 C   0  0  0  0  0  0  0  0  0  0  0  0
    9.0167  -15.3208    0.0000 O   0  0  0  0  0  0  0  0  0  0  0  0
    7.7875  -14.5917    0.0000 O   0  0  0  0  0  0  0  0  0  0  0  0
    8.8583  -17.2500    0.0000 C   0  0  0  0  0  0  0  0  0  0  0  0
    8.8708  -16.1458    0.0000 C   0  0  0  0  0  0  0  0  0  0  0  0
    3.2958  -16.2542    0.0000 O   0  0  0  0  0  0  0  0  0  0  0  0
    4.7208  -18.7333    0.0000 O   0  0  0  0  0  0  0  0  0  0  0  0
    2.5792  -18.3167    0.0000 C   0  0  0  0  0  0  0  0  0  0  0  0
    3.2875  -18.7292    0.0000 C   0  0  0  0  0  0  0  0  0  0  0  0
    2.5792  -17.4917    0.0000 C   0  0  0  0  0  0  0  0  0  0  0  0
    2.5833  -15.8417    0.0000 C   0  0  0  0  0  0  0  0  0  0  0  0
    4.7208  -19.5583    0.0000 C   0  0  0  0  0  0  0  0  0  0  0  0
    6.9875  -17.9208    0.0000 H   0  0  0  0  0  0  0  0  0  0  0  0
    7.1706  -19.3299    0.0000 Na  0  0  0  0  0 15  0  0  0  0  0  0
  3  2  1  0
  4  2  1  0
  5  3  1  0
  6  2  1  0
  7  3  1  0
  8  6  1  0
  9 10  1  0
  5 10  1  6
 11  9  1  0
  6 12  1  1
 13  4  2  0
 14  9  2  0
 15 11  2  0
 16 11  1  0
 17 12  2  0
 18 12  1  0
 19  8  1  0
 20  8  1  0
 21 15  1  0
 22 16  1  0
 23 25  2  0
 24 16  2  0
 25 15  1  0
 26 21  1  0
 27 22  1  0
  3 28  1  1
  4  5  1  0
  7  8  1  0
 23 24  1  0
M  CHG  2  18  -1  29   1
M  END
> <chembl_id>
CHEMBL3181832

> <chembl_pref_name>
METHICILLIN SODIUM
