
     RDKit          2D

 33 35  0  0  0  0  0  0  0  0999 V2000
    9.0792   -3.2417    0.0000 C   0  0  0  0  0  0  0  0  0  0  0  0
    8.4667   -3.6042    0.0000 C   0  0  0  0  0  0  0  0  0  0  0  0
    9.0792   -2.5375    0.0000 C   0  0  0  0  0  0  0  0  0  0  0  0
   11.5292   -3.2375    0.0000 N   0  0  0  0  0  0  0  0  0  0  0  0
    9.6917   -3.6000    0.0000 O   0  0  0  0  0  0  0  0  0  0  0  0
   10.3042   -3.2417    0.0000 C   0  0  0  0  0  0  0  0  0  0  0  0
   10.9250   -3.5917    0.0000 C   0  0  0  0  0  0  0  0  0  0  0  0
    8.4667   -2.1792    0.0000 C   0  0  0  0  0  0  0  0  0  0  0  0
    8.4750   -4.3167    0.0000 C   0  0  0  0  0  0  0  0  0  0  0  0
    7.8542   -3.2542    0.0000 C   0  0  0  0  0  0  0  0  0  0  0  0
    9.6792   -2.1792    0.0000 C   0  0  0  0  0  0  0  0  0  0  0  0
   12.1542   -3.5875    0.0000 C   0  0  0  0  0  0  0  0  0  0  0  0
   11.5292   -2.5167    0.0000 C   0  0  0  0  0  0  0  0  0  0  0  0
    7.8625   -4.6750    0.0000 C   0  0  0  0  0  0  0  0  0  0  0  0
    7.2375   -3.6125    0.0000 C   0  0  0  0  0  0  0  0  0  0  0  0
    9.6792   -1.4667    0.0000 C   0  0  0  0  0  0  0  0  0  0  0  0
    8.4542   -1.4750    0.0000 C   0  0  0  0  0  0  0  0  0  0  0  0
    9.0667   -1.1167    0.0000 C   0  0  0  0  0  0  0  0  0  0  0  0
    7.2417   -4.3167    0.0000 C   0  0  0  0  0  0  0  0  0  0  0  0
    5.0917   -3.1417    0.0000 C   0  0  0  0  0  0  0  0  0  0  0  0
    5.0917   -2.4292    0.0000 C   0  0  0  0  0  0  0  0  0  0  0  0
    4.4792   -3.4917    0.0000 N   0  0  0  0  0  0  0  0  0  0  0  0
    3.8667   -2.4292    0.0000 N   0  0  0  0  0  0  0  0  0  0  0  0
    3.8667   -3.1417    0.0000 C   0  0  0  0  0  0  0  0  0  0  0  0
    4.4792   -2.0792    0.0000 C   0  0  0  0  0  0  0  0  0  0  0  0
    5.7625   -3.3625    0.0000 N   0  0  0  0  0  0  0  0  0  0  0  0
    5.7625   -2.2125    0.0000 N   0  0  0  0  0  0  0  0  0  0  0  0
    6.1792   -2.7875    0.0000 C   0  0  0  0  0  0  0  0  0  0  0  0
    3.2542   -3.4917    0.0000 O   0  0  0  0  0  0  0  0  0  0  0  0
    4.4792   -1.3667    0.0000 O   0  0  0  0  0  0  0  0  0  0  0  0
    4.4792   -4.2042    0.0000 C   0  0  0  0  0  0  0  0  0  0  0  0
    6.8917   -2.7875    0.0000 Cl  0  0  0  0  0  0  0  0  0  0  0  0
    3.2542   -2.0792    0.0000 C   0  0  0  0  0  0  0  0  0  0  0  0
  2  1  1  0
  3  1  1  0
  4  7  1  0
  5  1  1  0
  6  5  1  0
  7  6  1  0
  8  3  2  0
  9  2  2  0
 10  2  1  0
 11  3  1  0
 12  4  1  0
 13  4  1  0
 14  9  1  0
 15 10  2  0
 16 11  2  0
 17  8  1  0
 18 16  1  0
 19 15  1  0
 18 17  2  0
 19 14  2  0
 21 20  2  0
 22 20  1  0
 23 24  1  0
 24 22  1  0
 25 21  1  0
 26 20  1  0
 27 21  1  0
 28 26  2  0
 29 24  2  0
 30 25  2  0
 31 22  1  0
 32 28  1  0
 33 23  1  0
 28 27  1  0
 23 25  1  0
M  END
> <chembl_id>
CHEMBL1200406

> <chembl_pref_name>
DIMENHYDRINATE
