
     RDKit          2D

 17 18  0  0  1  0  0  0  0  0999 V2000
    5.5667   -5.0417    0.0000 C   0  0  0  0  0  0  0  0  0  0  0  0
    6.8042   -5.0542    0.0000 C   0  0  0  0  0  0  0  0  0  0  0  0
    4.9500   -5.4042    0.0000 C   0  0  0  0  0  0  0  0  0  0  0  0
    6.1792   -5.4042    0.0000 C   0  0  0  0  0  0  0  0  0  0  0  0
    4.3417   -5.0500    0.0000 C   0  0  0  0  0  0  0  0  0  0  0  0
    4.3417   -4.3500    0.0000 C   0  0  0  0  0  0  0  0  0  0  0  0
    5.5667   -4.3417    0.0000 C   0  0  0  0  0  0  0  0  0  0  0  0
    6.8292   -4.3417    0.0000 O   0  0  0  0  0  0  0  0  0  0  0  0
    3.7167   -3.9917    0.0000 C   0  0  0  0  0  0  0  0  0  0  0  0
    4.9417   -3.9875    0.0000 C   0  0  0  0  0  0  0  0  0  0  0  0
    3.7167   -5.4042    0.0000 C   0  0  0  0  0  0  0  0  0  0  0  0
    3.1042   -4.3500    0.0000 C   0  0  0  0  0  0  0  0  0  0  0  0
    7.4125   -5.4167    0.0000 O   0  0  0  0  0  0  0  0  0  0  0  0
    3.1042   -5.0542    0.0000 C   0  0  0  0  0  0  0  0  0  0  0  0
    2.4917   -3.9875    0.0000 O   0  0  0  0  0  0  0  0  0  0  0  0
    6.1875   -6.1125    0.0000 C   0  0  0  0  0  0  0  0  0  0  0  0
    1.8667   -4.3375    0.0000 C   0  0  0  0  0  0  0  0  0  0  0  0
  2  4  1  0
  3  1  1  0
  4  1  1  0
  5  3  2  0
  6 10  2  0
  7  1  2  0
  8  2  2  0
  9  6  1  0
 10  7  1  0
 11  5  1  0
 12  9  2  0
 13  2  1  0
 14 11  2  0
 15 12  1  0
  4 16  1  1
 17 15  1  0
  6  5  1  0
 12 14  1  0
M  END
> <chembl_id>
CHEMBL154

> <chembl_pref_name>
NAPROXEN
