
     RDKit          2D

 14 14  0  0  0  0  0  0  0  0999 V2000
    0.6875    0.0625    0.0000 N   0  0  0  0  0  0  0  0  0  0  0  0
    1.3792   -1.1375    0.0000 C   0  0  0  0  0  0  0  0  0  0  0  0
   -0.7458    0.0625    0.0000 C   0  0  0  0  0  0  0  0  0  0  0  0
    0.6375   -2.3375    0.0000 O   0  0  0  0  0  0  0  0  0  0  0  0
   -1.4458    1.3083    0.0000 C   0  0  0  0  0  0  0  0  0  0  0  0
   -1.4875   -1.1375    0.0000 C   0  0  0  0  0  0  0  0  0  0  0  0
    2.7667   -1.1375    0.0000 C   0  0  0  0  0  0  0  0  0  0  0  0
    3.5042    0.0625    0.0000 N   0  0  0  0  0  0  0  0  0  0  0  0
   -3.6208    0.0625    0.0000 C   0  0  0  0  0  0  0  0  0  0  0  0
   -2.8750    1.3583    0.0000 C   0  0  0  0  0  0  0  0  0  0  0  0
   -2.9208   -1.1375    0.0000 C   0  0  0  0  0  0  0  0  0  0  0  0
   -0.7000    2.6083    0.0000 C   0  0  0  0  0  0  0  0  0  0  0  0
   -0.7458   -2.4292    0.0000 C   0  0  0  0  0  0  0  0  0  0  0  0
    3.5042   -2.3875    0.0000 C   0  0  0  0  0  0  0  0  0  0  0  0
  2  1  1  0
  3  1  1  0
  4  2  2  0
  5  3  2  0
  6  3  1  0
  7  2  1  0
  8  7  1  0
  9 11  1  0
 10  5  1  0
 11  6  2  0
 12  5  1  0
 13  6  1  0
 14  7  1  0
 10  9  2  0
M  END
> <chembl_id>
CHEMBL1762

> <chembl_pref_name>
TOCAINIDE
