
     RDKit          2D

 27 30  0  0  0  0  0  0  0  0999 V2000
    4.9625   -4.3292    0.0000 N   0  0  0  0  0  0  0  0  0  0  0  0
    4.9625   -5.0250    0.0000 N   0  0  0  0  0  0  0  0  0  0  0  0
    4.3542   -3.9792    0.0000 C   0  0  0  0  0  0  0  0  0  0  0  0
    4.3542   -5.3667    0.0000 C   0  0  0  0  0  0  0  0  0  0  0  0
    3.7417   -4.3292    0.0000 C   0  0  0  0  0  0  0  0  0  0  0  0
    3.7417   -5.0250    0.0000 C   0  0  0  0  0  0  0  0  0  0  0  0
    5.7417   -3.9417    0.0000 C   0  0  0  0  0  0  0  0  0  0  0  0
    6.7417   -2.7667    0.0000 N   0  0  0  0  0  0  0  0  0  0  0  0
    4.3625   -3.3250    0.0000 O   0  0  0  0  0  0  0  0  0  0  0  0
    4.3542   -6.0875    0.0000 C   0  0  0  0  0  0  0  0  0  0  0  0
    5.6292   -3.2500    0.0000 C   0  0  0  0  0  0  0  0  0  0  0  0
    6.0042   -2.7542    0.0000 C   0  0  0  0  0  0  0  0  0  0  0  0
    4.9625   -6.4417    0.0000 C   0  0  0  0  0  0  0  0  0  0  0  0
    6.1917   -7.1417    0.0000 C   0  0  0  0  0  0  0  0  0  0  0  0
    6.8542   -7.5000    0.0000 Cl  0  0  0  0  0  0  0  0  0  0  0  0
    3.1292   -3.9792    0.0000 C   0  0  0  0  0  0  0  0  0  0  0  0
    4.9625   -7.1417    0.0000 C   0  0  0  0  0  0  0  0  0  0  0  0
    5.5875   -6.0875    0.0000 C   0  0  0  0  0  0  0  0  0  0  0  0
    6.1917   -6.4292    0.0000 C   0  0  0  0  0  0  0  0  0  0  0  0
    5.5875   -7.4917    0.0000 C   0  0  0  0  0  0  0  0  0  0  0  0
    7.1792   -3.3250    0.0000 C   0  0  0  0  0  0  0  0  0  0  0  0
    3.1292   -5.3667    0.0000 C   0  0  0  0  0  0  0  0  0  0  0  0
    7.2042   -2.1542    0.0000 C   0  0  0  0  0  0  0  0  0  0  0  0
    7.0417   -3.9667    0.0000 C   0  0  0  0  0  0  0  0  0  0  0  0
    6.3542   -4.2792    0.0000 C   0  0  0  0  0  0  0  0  0  0  0  0
    2.5167   -4.3292    0.0000 C   0  0  0  0  0  0  0  0  0  0  0  0
    2.5167   -5.0250    0.0000 C   0  0  0  0  0  0  0  0  0  0  0  0
  2  1  1  0
  3  1  1  0
  4  2  2  0
  5  3  1  0
  6  5  2  0
  7  1  1  0
  8 12  1  0
  9  3  2  0
 10  4  1  0
 11  7  1  0
 12 11  1  0
 13 10  1  0
 14 20  1  0
 15 14  1  0
 16  5  1  0
 17 13  1  0
 18 13  2  0
 19 18  1  0
 20 17  2  0
 21 24  1  0
 22  6  1  0
 23  8  1  0
 24 25  1  0
 25  7  1  0
 26 16  2  0
 27 26  1  0
  4  6  1  0
  8 21  1  0
 27 22  2  0
 14 19  2  0
M  END
> <chembl_id>
CHEMBL639

> <chembl_pref_name>
AZELASTINE
