
     RDKit          2D

 34 35  0  0  0  0  0  0  0  0999 V2000
    2.6043   -8.0220    0.0000 O   0  0  0  0  0  0  0  0  0  0  0  0
    1.1343   -7.7194    0.0000 C   0  0  0  0  0  0  0  0  0  0  0  0
    0.7566   -6.5804    0.0000 O   0  0  0  0  0  0  0  0  0  0  0  0
    0.1365   -8.8405    0.0000 C   0  0  0  0  0  0  0  0  0  0  0  0
   -1.0388   -8.5985    0.0000 C   0  0  0  0  0  0  0  0  0  0  0  0
    0.5143   -9.9795    0.0000 C   0  0  0  0  0  0  0  0  0  0  0  0
   -0.6608   -9.7372    0.0000 C   0  0  0  0  0  0  0  0  0  0  0  0
    9.4817   -8.1150    0.0000 O   0  0  0  0  0  0  0  0  0  0  0  0
    9.9542   -9.5395    0.0000 C   0  0  0  0  0  0  0  0  0  0  0  0
   11.4239   -9.8435    0.0000 C   0  0  0  0  0  0  0  0  0  0  0  0
    9.1564  -10.4359    0.0000 O   0  0  0  0  0  0  0  0  0  0  0  0
   11.8017  -10.9825    0.0000 C   0  0  0  0  0  0  0  0  0  0  0  0
   12.5992  -10.0861    0.0000 C   0  0  0  0  0  0  0  0  0  0  0  0
   12.2217   -8.9471    0.0000 C   0  0  0  0  0  0  0  0  0  0  0  0
   -2.3155    0.7475    0.0000 N   0  0  0  0  0  0  0  0  0  0  0  0
   -2.3155   -0.7475    0.0000 C   0  0  0  0  0  0  0  0  0  0  0  0
   -1.0028   -1.5132    0.0000 N   0  0  0  0  0  0  0  0  0  0  0  0
   -1.0028    1.5132    0.0000 C   0  0  0  0  0  0  0  0  0  0  0  0
    0.2917    0.7475    0.0000 C   0  0  0  0  0  0  0  0  0  0  0  0
    0.2917   -0.7475    0.0000 C   0  0  0  0  0  0  0  0  0  0  0  0
    1.7138   -1.2033    0.0000 N   0  0  0  0  0  0  0  0  0  0  0  0
    2.5889    0.0182    0.0000 C   0  0  0  0  0  0  0  0  0  0  0  0
    1.7138    1.2033    0.0000 N   0  0  0  0  0  0  0  0  0  0  0  0
    2.1855   -2.6254    0.0000 C   0  0  0  0  0  0  0  0  0  0  0  0
    3.6552   -2.9294    0.0000 C   0  0  0  0  0  0  0  0  0  0  0  0
    4.1277   -4.3539    0.0000 O   0  0  0  0  0  0  0  0  0  0  0  0
    5.5974   -4.6579    0.0000 C   0  0  0  0  0  0  0  0  0  0  0  0
    6.0699   -6.0824    0.0000 P   0  0  0  0  0  0  0  0  0  0  0  0
    7.5396   -6.3865    0.0000 O   0  0  0  0  0  0  0  0  0  0  0  0
    6.8677   -5.1860    0.0000 O   0  0  0  0  0  0  0  0  0  0  0  0
    5.0721   -7.2035    0.0000 O   0  0  0  0  0  0  0  0  0  0  0  0
    8.0120   -7.8110    0.0000 C   0  0  0  0  0  0  0  0  0  0  0  0
    3.6021   -6.9009    0.0000 C   0  0  0  0  0  0  0  0  0  0  0  0
   -0.9991    2.7132    0.0000 N   0  0  0  0  0  0  0  0  0  0  0  0
  1  2  1  0
  2  3  2  0
  2  4  1  0
  4  5  1  0
  4  6  1  0
  4  7  1  0
  8  9  1  0
  9 10  1  0
  9 11  2  0
 10 12  1  0
 10 13  1  0
 10 14  1  0
 15 16  2  0
 16 17  1  0
 15 18  1  0
 18 19  2  0
 17 20  2  0
 19 20  1  0
 20 21  1  0
 21 22  1  0
 19 23  1  0
 22 23  2  0
 21 24  1  0
 24 25  1  0
 25 26  1  0
 26 27  1  0
 27 28  1  0
 28 29  1  0
 28 30  2  0
 28 31  1  0
  8 32  1  0
 29 32  1  0
  1 33  1  0
 31 33  1  0
 18 34  1  0
M  END
> <chembl_id>
CHEMBL922

> <chembl_pref_name>
ADEFOVIR DIPIVOXIL
