
     RDKit          2D

 19 11  0  0  0  0  0  0  0  0999 V2000
    2.2232   -0.0804    0.0000 O   0  0  0  0  0  0  0  0  0  0  0  0
   -3.4286    0.8571    0.0000 Mg  0  0  0  0  0  2  0  0  0  0  0  0
   -2.6036    0.8571    0.0000 O   0  0  0  0  0  0  0  0  0  0  0  0
   -3.5464   -0.0804    0.0000 Mg  0  0  0  0  0  2  0  0  0  0  0  0
   -2.7214   -0.0804    0.0000 O   0  0  0  0  0  0  0  0  0  0  0  0
   -3.4929   -1.0446    0.0000 Mg  0  0  0  0  0  2  0  0  0  0  0  0
   -2.6679   -1.0446    0.0000 O   0  0  0  0  0  0  0  0  0  0  0  0
   -0.2143    0.1071    0.0000 Si  0  0  0  0  0  4  0  0  0  0  0  0
    0.6107    0.1071    0.0000 O   0  0  0  0  0  0  0  0  0  0  0  0
   -1.0393    0.1071    0.0000 O   0  0  0  0  0  0  0  0  0  0  0  0
   -0.1339   -0.5089    0.0000 Si  0  0  0  0  0  4  0  0  0  0  0  0
    0.6911   -0.5089    0.0000 O   0  0  0  0  0  0  0  0  0  0  0  0
   -0.9589   -0.5089    0.0000 O   0  0  0  0  0  0  0  0  0  0  0  0
   -0.4018    0.7500    0.0000 Si  0  0  0  0  0  4  0  0  0  0  0  0
    0.4232    0.7500    0.0000 O   0  0  0  0  0  0  0  0  0  0  0  0
   -1.2268    0.7500    0.0000 O   0  0  0  0  0  0  0  0  0  0  0  0
   -0.2143   -1.4732    0.0000 Si  0  0  0  0  0  4  0  0  0  0  0  0
    0.6107   -1.4732    0.0000 O   0  0  0  0  0  0  0  0  0  0  0  0
   -1.0393   -1.4732    0.0000 O   0  0  0  0  0  0  0  0  0  0  0  0
  2  3  2  0
  4  5  2  0
  6  7  2  0
  8  9  2  0
  8 10  2  0
 11 12  2  0
 11 13  2  0
 14 15  2  0
 14 16  2  0
 17 18  2  0
 17 19  2  0
M  END
> <chembl_id>
CHEMBL3989756

> <chembl_pref_name>
TALC
