
     RDKit          2D

 26 29  0  0  0  0  0  0  0  0999 V2000
    1.5474  -23.0529    0.0000 C   0  0  0  0  0  0  0  0  0  0  0  0
    2.2500  -23.4802    0.0000 C   0  0  0  0  0  0  0  0  0  0  0  0
    2.9729  -23.0864    0.0000 C   0  0  0  0  0  0  0  0  0  0  0  0
    1.5612  -22.2253    0.0000 O   0  0  0  0  0  0  0  0  0  0  0  0
    0.8213  -23.4481    0.0000 O   0  0  0  0  0  0  0  0  0  0  0  0
    2.2330  -24.3050    0.0000 C   0  0  0  0  0  0  0  0  0  0  0  0
    1.5101  -24.6988    0.0000 C   0  0  0  0  0  0  0  0  0  0  0  0
    1.4931  -25.5277    0.0000 C   0  0  0  0  0  0  0  0  0  0  0  0
    2.1957  -25.9550    0.0000 C   0  0  0  0  0  0  0  0  0  0  0  0
    2.9218  -25.5598    0.0000 C   0  0  0  0  0  0  0  0  0  0  0  0
    2.9356  -24.7323    0.0000 C   0  0  0  0  0  0  0  0  0  0  0  0
    0.1147  -23.0209    0.0000 C   0  0  0  0  0  0  0  0  0  0  0  0
   -0.9735  -22.2002    0.0000 C   0  0  0  0  0  0  0  0  0  0  0  0
   -0.4118  -22.5845    0.0000 C   0  0  0  0  0  0  0  0  0  0  0  0
   -1.4053  -22.5845    0.0000 C   0  0  0  0  0  0  0  0  0  0  0  0
   -1.5470  -21.7567    0.0000 N   0  0  0  0  0  0  0  0  0  0  0  0
   -0.0249  -22.1871    0.0000 C   0  0  0  0  0  0  0  0  0  0  0  0
   -2.1281  -22.1702    0.0000 H   0  0  0  0  0  0  0  0  0  0  0  0
   -1.3016  -22.9289    0.0000 C   0  0  0  0  0  0  0  0  0  0  0  0
   -1.9322  -23.3121    0.0000 C   0  0  0  0  0  0  0  0  0  0  0  0
   -1.2806  -23.6696    0.0000 O   0  0  0  0  0  0  0  0  0  0  0  0
   -2.3553  -24.0293    0.0000 H   0  0  0  0  0  0  0  0  0  0  0  0
   -0.5856  -23.3408    0.0000 H   0  0  0  0  0  0  0  0  0  0  0  0
   -0.5664  -21.4797    0.0000 H   0  0  0  0  0  0  0  0  0  0  0  0
   -1.9738  -21.0433    0.0000 C   0  0  0  0  0  0  0  0  0  0  0  0
    3.6794  -23.5136    0.0000 O   0  0  0  0  0  0  0  0  0  0  0  0
 10 11  1  0
  6 11  2  0
  2  6  1  0
 12  5  1  1
 12 14  1  0
 14 15  1  0
 15 16  1  0
 16 13  1  0
 13 17  1  0
 17 12  1  0
 15 20  1  0
 13 19  1  0
 15 18  1  6
 20 19  1  0
 21 20  1  0
 19 21  1  0
 20 22  1  6
 19 23  1  6
 13 24  1  1
 16 25  1  0
  1  2  1  0
  2  3  1  6
  1  4  2  0
  1  5  1  0
  6  7  1  0
  3 26  1  0
  7  8  2  0
  8  9  1  0
  9 10  2  0
M  END
> <chembl_id>
CHEMBL569713

> <chembl_pref_name>
SCOPOLAMINE
