
     RDKit          2D

 40 42  0  0  1  0  0  0  0  0999 V2000
    9.6035   -2.6170    0.0000 O   0  0  0  0  0  0  0  0  0  0  0  0
   10.0362   -3.3187    0.0000 C   0  0  0  0  0  0  0  0  0  0  0  0
   10.8676   -3.3090    0.0000 C   0  0  0  0  0  0  0  0  0  0  0  0
    9.6493   -4.0492    0.0000 C   0  0  0  0  0  0  0  0  0  0  0  0
   11.3004   -4.0108    0.0000 C   0  0  0  0  0  0  0  0  0  0  0  0
   11.2572   -2.5771    0.0000 N   0  0  0  0  0  0  0  0  0  0  0  0
   10.0820   -4.7509    0.0000 C   0  0  0  0  0  0  0  0  0  0  0  0
    8.9342   -4.1576    0.0000 O   0  0  0  0  0  0  0  0  0  0  0  0
   10.9037   -4.7435    0.0000 C   0  0  0  0  0  0  0  0  0  0  0  0
   12.0568   -3.9991    0.0000 O   0  0  0  0  0  0  0  0  0  0  0  0
   10.8060   -1.9390    0.0000 C   0  0  0  0  0  0  0  0  0  0  0  0
    9.6855   -5.4837    0.0000 O   0  0  0  0  0  0  0  0  0  0  0  0
   11.3371   -5.4449    0.0000 N   0  0  0  0  0  0  0  0  0  0  0  0
    9.9329   -1.9392    0.0000 N   0  0  0  0  0  0  0  0  0  0  0  0
   11.0880   -1.1877    0.0000 N   0  0  0  0  0  0  0  0  0  0  0  0
   12.1805   -5.4352    0.0000 C   0  0  0  0  0  0  0  0  0  0  0  0
   12.5253   -4.7817    0.0000 N   0  0  0  0  0  0  0  0  0  0  0  0
   12.6209   -6.1523    0.0000 N   0  0  0  0  0  0  0  0  0  0  0  0
    8.1542   -2.9611    0.0000 C   0  0  0  0  0  0  0  0  0  0  0  0
    8.7964   -2.4234    0.0000 C   0  0  0  0  0  0  0  0  0  0  0  0
    7.4554   -2.5225    0.0000 C   0  0  0  0  0  0  0  0  0  0  0  0
    8.1899   -3.7804    0.0000 O   0  0  0  0  0  0  0  0  0  0  0  0
    8.4757   -1.6773    0.0000 O   0  0  0  0  0  0  0  0  0  0  0  0
    7.6627   -1.7209    0.0000 C   0  0  0  0  0  0  0  0  0  0  0  0
    6.7760   -2.9997    0.0000 O   0  0  0  0  0  0  0  0  0  0  0  0
    7.4726   -4.1783    0.0000 C   0  0  0  0  0  0  0  0  0  0  0  0
    7.4328   -5.0004    0.0000 C   0  0  0  0  0  0  0  0  0  0  0  0
    6.7738   -3.7397    0.0000 O   0  0  0  0  0  0  0  0  0  0  0  0
    6.7137   -5.4012    0.0000 C   0  0  0  0  0  0  0  0  0  0  0  0
    8.1297   -5.4418    0.0000 N   0  0  0  0  0  0  0  0  0  0  0  0
    6.0353   -4.1234    0.0000 C   0  0  0  0  0  0  0  0  0  0  0  0
    6.0735   -4.9560    0.0000 C   0  0  0  0  0  0  0  0  0  0  0  0
    6.6635   -6.2162    0.0000 O   0  0  0  0  0  0  0  0  0  0  0  0
    8.1120   -6.3908    0.0000 C   0  0  0  0  0  0  0  0  0  0  0  0
    5.3764   -3.6886    0.0000 C   0  0  0  0  0  0  0  0  0  0  0  0
    5.2755   -5.3419    0.0000 O   0  0  0  0  0  0  0  0  0  0  0  0
    4.6867   -4.1942    0.0000 O   0  0  0  0  0  0  0  0  0  0  0  0
    6.7688   -2.0667    0.0000 C   0  0  0  0  0  0  0  0  0  0  0  0
    6.0286   -2.4348    0.0000 O   0  0  0  0  0  0  0  0  0  0  0  0
    7.2940   -0.8577    0.0000 C   0  0  0  0  0  0  0  0  0  0  0  0
  2  4  1  0
  3  5  1  0
  3  6  1  1
  4  7  1  0
  4  8  1  1
  5  9  1  0
  5 10  1  6
  6 11  2  0
  7 12  1  6
  9 13  1  1
 11 14  1  0
 11 15  1  0
 13 16  2  0
 16 17  1  0
 16 18  1  0
  7  9  1  0
  2  1  1  6
 21 25  1  0
 26 22  1  1
 26 27  1  0
 26 28  1  0
 27 29  1  0
 27 30  1  1
 28 31  1  0
 29 32  1  0
 29 33  1  6
 30 34  1  0
 31 35  1  6
 32 36  1  1
 35 37  1  0
 23 24  1  0
 31 32  1  0
 19 20  1  0
 19 21  1  0
 19 22  1  6
 21 38  1  1
 20 23  1  0
 38 39  2  0
 21 24  1  0
 20  1  1  1
  2  3  1  0
 24 40  1  6
M  END
> <chembl_id>
CHEMBL372795

> <chembl_pref_name>
STREPTOMYCIN
