
     RDKit          2D

 22 21  0  0  0  0  0  0  0  0999 V2000
    8.2921  -10.2963    0.0000 O   0  0  0  0  0  0  0  0  0  0  0  0
    9.0100  -11.5360    0.0000 O   0  0  0  0  0  0  0  0  0  0  0  0
   11.8763  -10.7078    0.0000 O   0  0  0  0  0  0  0  0  0  0  0  0
   11.1584   -9.4681    0.0000 O   0  0  0  0  0  0  0  0  0  0  0  0
    9.7277   -9.4681    0.0000 O   0  0  0  0  0  0  0  0  0  0  0  0
   10.4407  -11.5360    0.0000 O   0  0  0  0  0  0  0  0  0  0  0  0
    9.0125  -10.7083    0.0000 C   0  0  0  0  0  0  0  0  0  0  0  0
    9.7270  -10.2958    0.0000 C   0  0  0  0  0  0  0  0  0  0  0  0
   10.4414  -10.7083    0.0000 C   0  0  0  0  0  0  0  0  0  0  0  0
   11.1559  -10.2958    0.0000 C   0  0  0  0  0  0  0  0  0  0  0  0
   15.1988  -10.5477    0.0000 C   0  0  0  0  0  0  0  0  0  0  0  0
   14.4869  -10.1410    0.0000 C   0  0  0  0  0  0  0  0  0  0  0  0
   15.8962  -10.1313    0.0000 C   0  0  0  0  0  0  0  0  0  0  0  0
   13.7606  -10.5624    0.0000 C   0  0  0  0  0  0  0  0  0  0  0  0
   16.6226  -10.5380    0.0000 C   0  0  0  0  0  0  0  0  0  0  0  0
   13.7897  -11.3808    0.0000 N   0  0  0  0  0  0  0  0  0  0  0  0
   14.4771   -9.3178    0.0000 O   0  0  0  0  0  0  0  0  0  0  0  0
   17.3247  -10.1167    0.0000 O   0  0  0  0  0  0  0  0  0  0  0  0
   15.1989  -11.3662    0.0000 C   0  0  0  0  0  0  0  0  0  0  0  0
   15.9156  -11.7826    0.0000 C   0  0  0  0  0  0  0  0  0  0  0  0
   16.6226  -11.3612    0.0000 C   0  0  0  0  0  0  0  0  0  0  0  0
   13.0534  -10.1460    0.0000 C   0  0  0  0  0  0  0  0  0  0  0  0
  7  2  2  0
  8  5  1  0
  9  6  1  0
  7  1  1  0
  9 10  1  0
  8  9  1  0
 10  3  1  0
  7  8  1  0
 10  4  2  0
 20 19  1  0
 21 20  2  0
 22 14  1  0
 21 15  1  0
 12 11  1  0
 13 11  1  0
 14 12  1  0
 15 13  2  0
 14 16  1  1
 12 17  1  6
 18 15  1  0
 19 11  2  0
M  END
> <chembl_id>
CHEMBL2062262

> <chembl_pref_name>
METARAMINOL BITARTRATE
