
     RDKit          2D

 43 47  0  0  0  0  0  0  0  0999 V2000
   -0.6792    1.5042    0.0000 K   0  0  0  0  0 15  0  0  0  0  0  0
    0.2292   -1.0625    0.0000 N   0  0  0  0  0  0  0  0  0  0  0  0
   -2.1375    1.7167    0.0000 N   0  0  0  0  0  0  0  0  0  0  0  0
   -0.2542   -1.7333    0.0000 C   0  0  0  0  0  0  0  0  0  0  0  0
   -2.9542    1.8042    0.0000 C   0  0  0  0  0  0  0  0  0  0  0  0
    0.2292   -2.4000    0.0000 N   0  0  0  0  0  0  0  0  0  0  0  0
    1.0125   -1.3208    0.0000 C   0  0  0  0  0  0  0  0  0  0  0  0
    1.7292   -0.9083    0.0000 C   0  0  0  0  0  0  0  0  0  0  0  0
   -3.1292    2.6125    0.0000 N   0  0  0  0  0  0  0  0  0  0  0  0
    3.8708    0.3292    0.0000 C   0  0  0  0  0  0  0  0  0  0  0  0
   -1.8000    2.4708    0.0000 C   0  0  0  0  0  0  0  0  0  0  0  0
    4.7667    1.3208    0.0000 C   0  0  0  0  0  0  0  0  0  0  0  0
    1.0125   -2.1458    0.0000 C   0  0  0  0  0  0  0  0  0  0  0  0
    3.9583    1.1500    0.0000 O   0  0  0  0  0  0  0  0  0  0  0  0
    5.1792    0.6083    0.0000 O   0  0  0  0  0  0  0  0  0  0  0  0
    4.6250   -0.0042    0.0000 C   0  0  0  0  0  0  0  0  0  0  0  0
   -3.5083    1.1917    0.0000 C   0  0  0  0  0  0  0  0  0  0  0  0
    1.7292   -0.0833    0.0000 C   0  0  0  0  0  0  0  0  0  0  0  0
   -2.4125    3.0250    0.0000 O   0  0  0  0  0  0  0  0  0  0  0  0
   -3.2542    0.4083    0.0000 C   0  0  0  0  0  0  0  0  0  0  0  0
   -0.0250   -0.2792    0.0000 C   0  0  0  0  0  0  0  0  0  0  0  0
    2.4417    0.3292    0.0000 O   0  0  0  0  0  0  0  0  0  0  0  0
    3.1583   -0.0833    0.0000 C   0  0  0  0  0  0  0  0  0  0  0  0
   -2.4458    0.2333    0.0000 C   0  0  0  0  0  0  0  0  0  0  0  0
    5.1000    2.0750    0.0000 O   0  0  0  0  0  0  0  0  0  0  0  0
   -0.9917    2.6417    0.0000 O   0  0  0  0  0  0  0  0  0  0  0  0
    1.0125    0.3292    0.0000 O   0  0  0  0  0  0  0  0  0  0  0  0
   -1.0792   -1.7333    0.0000 O   0  0  0  0  0  0  0  0  0  0  0  0
   -2.1917   -0.5500    0.0000 C   0  0  0  0  0  0  0  0  0  0  0  0
   -1.8958    0.8500    0.0000 C   0  0  0  0  0  0  0  0  0  0  0  0
   -0.8333   -0.1083    0.0000 C   0  0  0  0  0  0  0  0  0  0  0  0
    2.4417   -1.3208    0.0000 C   0  0  0  0  0  0  0  0  0  0  0  0
   -1.0875    0.6750    0.0000 C   0  0  0  0  0  0  0  0  0  0  0  0
   -1.3833   -0.7208    0.0000 C   0  0  0  0  0  0  0  0  0  0  0  0
    1.7292   -2.5583    0.0000 C   0  0  0  0  0  0  0  0  0  0  0  0
    4.7958   -0.8125    0.0000 C   0  0  0  0  0  0  0  0  0  0  0  0
   -4.3167    1.3625    0.0000 C   0  0  0  0  0  0  0  0  0  0  0  0
   -3.8042   -0.2083    0.0000 C   0  0  0  0  0  0  0  0  0  0  0  0
    2.4417   -2.1458    0.0000 C   0  0  0  0  0  0  0  0  0  0  0  0
   -1.4917   -2.4458    0.0000 C   0  0  0  0  0  0  0  0  0  0  0  0
   -4.8667    0.7500    0.0000 C   0  0  0  0  0  0  0  0  0  0  0  0
   -4.6125   -0.0333    0.0000 C   0  0  0  0  0  0  0  0  0  0  0  0
   -1.0792   -3.1625    0.0000 C   0  0  0  0  0  0  0  0  0  0  0  0
  3  5  1  0
  4  2  1  0
  5 17  1  0
  6  4  2  0
  7  2  1  0
  8  7  2  0
  9  5  2  0
 10 23  1  0
 11  3  1  0
 12 14  1  0
 13  7  1  0
 14 10  1  0
 15 16  1  0
 16 10  2  0
 17 20  1  0
 18  8  1  0
 19  9  1  0
 20 24  1  0
 21  2  1  0
 22 18  1  0
 23 22  1  0
 24 29  2  0
 25 12  2  0
 26 11  2  0
 27 18  2  0
 28  4  1  0
 29 34  1  0
 30 33  2  0
 31 21  1  0
 32  8  1  0
 33 31  1  0
 34 31  2  0
 35 13  2  0
 36 16  1  0
 37 17  2  0
 38 20  2  0
 39 35  1  0
 40 28  1  0
 41 42  2  0
 42 38  1  0
 43 40  1  0
  6 13  1  0
 30 24  1  0
 32 39  2  0
 15 12  1  0
 37 41  1  0
 19 11  1  0
M  CHG  2   1   1   3  -1
M  END
> <chembl_id>
CHEMBL2103795

> <chembl_pref_name>
AZILSARTAN KAMEDOXOMIL
