
     RDKit          2D

 56  8  0  0  0  0  0  0  0  0999 V2000
   -2.2500    9.5753    0.0000 S   0  0  0  0  0  0  0  0  0  0  0  0
   -2.2500   11.0753    0.0000 O   0  0  0  0  0  0  0  0  0  0  0  0
   -0.7500    9.5753    0.0000 O   0  0  0  0  0  0  0  0  0  0  0  0
   -3.7500    9.5753    0.0000 O   0  0  0  0  0  0  0  0  0  0  0  0
   -2.2500    8.0753    0.0000 O   0  0  0  0  0  0  0  0  0  0  0  0
  -12.7500    5.0754    0.0000 O   0  0  0  0  0  0  0  0  0  0  0  0
  -12.7500    3.5754    0.0000 O   0  0  0  0  0  0  0  0  0  0  0  0
   -0.7500    6.5753    0.0000 Mg  0  0  0  0  0 15  0  0  0  0  0  0
   -5.2500   14.0753    0.0000 Al  0  0  0  0  0 15  0  0  0  0  0  0
   -5.2500    9.5753    0.0000 O   0  0  0  0  0  0  0  0  0  0  0  0
   -2.2500    6.5753    0.0000 O   0  0  0  0  0  0  0  0  0  0  0  0
   -2.2500    5.0753    0.0000 O   0  0  0  0  0  0  0  0  0  0  0  0
   -6.7500   14.0754    0.0000 Al  0  0  0  0  0 15  0  0  0  0  0  0
   -6.7500    9.5754    0.0000 Al  0  0  0  0  0 15  0  0  0  0  0  0
   -3.7500    6.5753    0.0000 Al  0  0  0  0  0 15  0  0  0  0  0  0
   -3.7500    5.0753    0.0000 Al  0  0  0  0  0 15  0  0  0  0  0  0
   -8.2500   14.0754    0.0000 Mg  0  0  0  0  0 15  0  0  0  0  0  0
   -8.2500    9.5754    0.0000 Mg  0  0  0  0  0 15  0  0  0  0  0  0
   -5.2500    6.5753    0.0000 Mg  0  0  0  0  0 15  0  0  0  0  0  0
   -5.2500    5.0753    0.0000 Mg  0  0  0  0  0 15  0  0  0  0  0  0
   -9.7500   14.0754    0.0000 Mg  0  0  0  0  0 15  0  0  0  0  0  0
   -9.7500    9.5754    0.0000 Mg  0  0  0  0  0 15  0  0  0  0  0  0
   -6.7500    6.5754    0.0000 Mg  0  0  0  0  0 15  0  0  0  0  0  0
   -6.7500    5.0754    0.0000 Mg  0  0  0  0  0 15  0  0  0  0  0  0
   -8.2500    6.5754    0.0000 Mg  0  0  0  0  0 15  0  0  0  0  0  0
   -8.2500    5.0754    0.0000 O   0  0  0  0  0  0  0  0  0  0  0  0
   -9.7500    6.5754    0.0000 O   0  0  0  0  0  0  0  0  0  0  0  0
   -9.7500    5.0754    0.0000 O   0  0  0  0  0  0  0  0  0  0  0  0
   -0.7500    3.5753    0.0000 O   0  0  0  0  0  0  0  0  0  0  0  0
   -2.2500    3.5753    0.0000 O   0  0  0  0  0  0  0  0  0  0  0  0
   -3.7500    3.5753    0.0000 O   0  0  0  0  0  0  0  0  0  0  0  0
   -5.2500    3.5753    0.0000 O   0  0  0  0  0  0  0  0  0  0  0  0
   -6.7500    3.5754    0.0000 O   0  0  0  0  0  0  0  0  0  0  0  0
   -8.2500    3.5754    0.0000 O   0  0  0  0  0  0  0  0  0  0  0  0
   -9.7500    3.5754    0.0000 O   0  0  0  0  0  0  0  0  0  0  0  0
  -11.2500   14.0754    0.0000 O   0  0  0  0  0  0  0  0  0  0  0  0
  -11.2500    9.5754    0.0000 O   0  0  0  0  0  0  0  0  0  0  0  0
  -11.2500    6.5754    0.0000 O   0  0  0  0  0  0  0  0  0  0  0  0
  -11.2500    5.0754    0.0000 O   0  0  0  0  0  0  0  0  0  0  0  0
  -11.2500    3.5754    0.0000 O   0  0  0  0  0  0  0  0  0  0  0  0
   -0.7500    2.0753    0.0000 O   0  0  0  0  0  0  0  0  0  0  0  0
   -2.2500    2.0753    0.0000 O   0  0  0  0  0  0  0  0  0  0  0  0
   -3.7500    2.0753    0.0000 O   0  0  0  0  0  0  0  0  0  0  0  0
   -5.2500    2.0753    0.0000 O   0  0  0  0  0  0  0  0  0  0  0  0
   -6.7500    2.0754    0.0000 O   0  0  0  0  0  0  0  0  0  0  0  0
   -8.2500    2.0754    0.0000 O   0  0  0  0  0  0  0  0  0  0  0  0
   -9.7500    2.0754    0.0000 O   0  0  0  0  0  0  0  0  0  0  0  0
  -11.2500    2.0754    0.0000 O   0  0  0  0  0  0  0  0  0  0  0  0
  -12.7500   14.0754    0.0000 O   0  0  0  0  0  0  0  0  0  0  0  0
  -12.7500    9.5754    0.0000 O   0  0  0  0  0  0  0  0  0  0  0  0
  -12.7500    6.5754    0.0000 O   0  0  0  0  0  0  0  0  0  0  0  0
   -2.2500   14.0753    0.0000 S   0  0  0  0  0  0  0  0  0  0  0  0
   -2.2500   15.5753    0.0000 O   0  0  0  0  0  0  0  0  0  0  0  0
   -0.7500   14.0753    0.0000 O   0  0  0  0  0  0  0  0  0  0  0  0
   -3.7500   14.0753    0.0000 O   0  0  0  0  0  0  0  0  0  0  0  0
   -2.2500   12.5753    0.0000 O   0  0  0  0  0  0  0  0  0  0  0  0
  1  2  2  0
  1  3  1  0
  1  4  2  0
  1  5  1  0
 52 53  2  0
 52 54  1  0
 52 55  2  0
 52 56  1  0
M  CHG  8   3  -1   5  -1   6  -1   7  -1   8   2   9   3  10  -1  11  -1
M  CHG  8  12  -1  13   3  14   3  15   3  16   3  17   2  18   2  19   2
M  CHG  8  20   2  21   2  22   2  23   2  24   2  25   2  26  -1  27  -1
M  CHG  8  28  -1  29  -1  30  -1  31  -1  32  -1  33  -1  34  -1  35  -1
M  CHG  8  36  -1  37  -1  38  -1  39  -1  40  -1  41  -1  42  -1  43  -1
M  CHG  8  44  -1  45  -1  46  -1  47  -1  48  -1  49  -1  50  -1  51  -1
M  CHG  2  54  -1  56  -1
M  END
> <chembl_id>
CHEMBL3833408

> <chembl_pref_name>
MAGALDRATE
