
     RDKit          2D

 34 38  0  0  1  0  0  0  0  0999 V2000
    5.4167   -3.4125    0.0000 C   0  0  0  0  0  0  0  0  0  0  0  0
    4.7417   -3.6250    0.0000 C   0  0  0  0  0  0  0  0  0  0  0  0
    3.5042   -4.3167    0.0000 C   0  0  0  0  0  0  0  0  0  0  0  0
    2.8917   -4.6750    0.0000 C   0  0  0  0  0  0  0  0  0  0  0  0
    4.7292   -4.3292    0.0000 C   0  0  0  0  0  0  0  0  0  0  0  0
    4.1167   -4.6792    0.0000 C   0  0  0  0  0  0  0  0  0  0  0  0
    5.8250   -3.9792    0.0000 C   0  0  0  0  0  0  0  0  0  0  0  0
    2.8917   -5.3792    0.0000 C   0  0  0  0  0  0  0  0  0  0  0  0
    5.8292   -2.8417    0.0000 O   0  0  0  0  0  0  0  0  0  0  0  0
    3.5125   -3.6125    0.0000 C   0  0  0  0  0  0  0  0  0  0  0  0
    4.1292   -3.2625    0.0000 C   0  0  0  0  0  0  0  0  0  0  0  0
    6.5000   -3.0667    0.0000 C   0  0  0  0  0  0  0  0  0  0  0  0
    6.5000   -3.7667    0.0000 O   0  0  0  0  0  0  0  0  0  0  0  0
    2.2792   -4.3167    0.0000 C   0  0  0  0  0  0  0  0  0  0  0  0
    5.4042   -4.5542    0.0000 C   0  0  0  0  0  0  0  0  0  0  0  0
    5.4125   -2.7042    0.0000 C   0  0  0  0  0  0  0  0  0  0  0  0
    2.2792   -5.7375    0.0000 C   0  0  0  0  0  0  0  0  0  0  0  0
    4.1167   -5.3875    0.0000 C   0  0  0  0  0  0  0  0  0  0  0  0
    1.6750   -4.6750    0.0000 C   0  0  0  0  0  0  0  0  0  0  0  0
    1.6750   -5.3792    0.0000 C   0  0  0  0  0  0  0  0  0  0  0  0
    3.5042   -5.7375    0.0000 C   0  0  0  0  0  0  0  0  0  0  0  0
    3.5042   -5.0292    0.0000 F   0  0  0  0  0  0  0  0  0  0  0  0
    4.7917   -2.3542    0.0000 O   0  0  0  0  0  0  0  0  0  0  0  0
    1.0542   -5.7292    0.0000 O   0  0  0  0  0  0  0  0  0  0  0  0
    4.7375   -2.9167    0.0000 C   0  0  0  0  0  0  0  0  0  0  0  0
    2.9000   -3.2542    0.0000 O   0  0  0  0  0  0  0  0  0  0  0  0
    2.8917   -3.9667    0.0000 C   0  0  0  0  0  0  0  0  0  0  0  0
    6.0167   -2.3417    0.0000 C   0  0  0  0  0  0  0  0  0  0  0  0
    6.8500   -2.4500    0.0000 C   0  0  0  0  0  0  0  0  0  0  0  0
    7.2042   -3.0667    0.0000 C   0  0  0  0  0  0  0  0  0  0  0  0
    6.0167   -1.6292    0.0000 O   0  0  0  0  0  0  0  0  0  0  0  0
    6.4077   -4.7919    0.0000 H   0  0  0  0  0  0  0  0  0  0  0  0
    4.9816   -5.1811    0.0000 H   0  0  0  0  0  0  0  0  0  0  0  0
    4.8277   -5.3243    0.0000 H   0  0  0  0  0  0  0  0  0  0  0  0
  2  1  1  0
  3 10  1  0
  4  3  1  0
  5  2  1  0
  6  5  1  0
  7  1  1  0
  8  4  1  0
  1  9  1  0
 10 11  1  0
 11  2  1  0
 12  9  1  0
  7 13  1  0
 14  4  1  0
 15  7  1  0
  1 16  1  1
 17  8  2  0
 18  6  1  0
 19 14  2  0
 20 19  1  0
 21 18  1  0
  3 22  1  6
 23 16  2  0
 24 20  2  0
  2 25  1  1
 10 26  1  1
  4 27  1  1
 28 16  1  0
 29 12  1  0
 30 12  1  0
 31 28  1  0
 15  5  1  0
 12 13  1  0
  3  6  1  0
 21  8  1  0
 20 17  1  0
  7 32  1  1
  6 33  1  1
  5 34  1  6
M  END
> <chembl_id>
CHEMBL1504

> <chembl_pref_name>
TRIAMCINOLONE ACETONIDE
