
     RDKit          2D

 25 26  0  0  0  0  0  0  0  0999 V2000
    5.9292   -6.5917    0.0000 Cl  0  0  0  0  0  0  0  0  0  0  0  0
    3.3625   -5.3583    0.0000 N   0  0  0  0  0  0  0  0  0  0  0  0
    3.9792   -5.7167    0.0000 C   0  0  0  0  0  0  0  0  0  0  0  0
    3.3625   -6.7833    0.0000 S   0  0  0  0  0  0  0  0  0  0  0  0
    5.8167   -5.3667    0.0000 C   0  0  0  0  0  0  0  0  0  0  0  0
    3.9750   -6.4250    0.0000 C   0  0  0  0  0  0  0  0  0  0  0  0
    2.7500   -5.7167    0.0000 C   0  0  0  0  0  0  0  0  0  0  0  0
    2.7500   -6.4292    0.0000 C   0  0  0  0  0  0  0  0  0  0  0  0
    4.5917   -5.3667    0.0000 C   0  0  0  0  0  0  0  0  0  0  0  0
    5.2042   -5.7167    0.0000 C   0  0  0  0  0  0  0  0  0  0  0  0
    4.5875   -6.7833    0.0000 C   0  0  0  0  0  0  0  0  0  0  0  0
    5.2042   -6.4292    0.0000 C   0  0  0  0  0  0  0  0  0  0  0  0
    6.4292   -5.7208    0.0000 F   0  0  0  0  0  0  0  0  0  0  0  0
    6.1667   -4.7500    0.0000 F   0  0  0  0  0  0  0  0  0  0  0  0
    5.4542   -4.7500    0.0000 F   0  0  0  0  0  0  0  0  0  0  0  0
    3.3625   -4.6500    0.0000 C   0  0  0  0  0  0  0  0  0  0  0  0
    3.9750   -4.2958    0.0000 C   0  0  0  0  0  0  0  0  0  0  0  0
    4.5875   -3.2333    0.0000 N   0  0  0  0  0  0  0  0  0  0  0  0
    2.1375   -5.3625    0.0000 C   0  0  0  0  0  0  0  0  0  0  0  0
    2.1375   -6.7833    0.0000 C   0  0  0  0  0  0  0  0  0  0  0  0
    3.9750   -3.5875    0.0000 C   0  0  0  0  0  0  0  0  0  0  0  0
    5.2000   -3.5875    0.0000 C   0  0  0  0  0  0  0  0  0  0  0  0
    4.5875   -2.5250    0.0000 C   0  0  0  0  0  0  0  0  0  0  0  0
    1.5250   -5.7167    0.0000 C   0  0  0  0  0  0  0  0  0  0  0  0
    1.5250   -6.4292    0.0000 C   0  0  0  0  0  0  0  0  0  0  0  0
  3  2  1  0
  4  6  1  0
  5 10  1  0
  6  3  2  0
  7  2  1  0
  8  7  1  0
  9  3  1  0
 10  9  2  0
 11  6  1  0
 12 11  2  0
 13  5  1  0
 14  5  1  0
 15  5  1  0
 16  2  1  0
 17 16  1  0
 18 21  1  0
 19  7  2  0
 20  8  2  0
 21 17  1  0
 22 18  1  0
 23 18  1  0
 24 19  1  0
 25 24  2  0
  4  8  1  0
 10 12  1  0
 20 25  1  0
M  END
> <chembl_id>
CHEMBL1201102

> <chembl_pref_name>
TRIFLUPROMAZINE HYDROCHLORIDE
