
     RDKit          2D

 13 10  0  0  0  0  0  0  0  0999 V2000
    1.6792   -8.2792    0.0000 Na  0  0  0  0  0 15  0  0  0  0  0  0
    4.0542   -8.2167    0.0000 C   0  0  0  0  0  0  0  0  0  0  0  0
    4.6667   -7.8625    0.0000 P   0  0  0  0  0  0  0  0  0  0  0  0
    3.4375   -7.8625    0.0000 P   0  0  0  0  0  0  0  0  0  0  0  0
    5.2792   -8.2167    0.0000 O   0  0  0  0  0  0  0  0  0  0  0  0
    2.8250   -8.2167    0.0000 O   0  0  0  0  0  0  0  0  0  0  0  0
    4.3042   -7.2417    0.0000 O   0  0  0  0  0  0  0  0  0  0  0  0
    3.7875   -7.2417    0.0000 O   0  0  0  0  0  0  0  0  0  0  0  0
    4.4042   -8.8292    0.0000 O   0  0  0  0  0  0  0  0  0  0  0  0
    3.0792   -7.2417    0.0000 O   0  0  0  0  0  0  0  0  0  0  0  0
    5.0167   -7.2417    0.0000 O   0  0  0  0  0  0  0  0  0  0  0  0
    3.6917   -8.8292    0.0000 C   0  0  0  0  0  0  0  0  0  0  0  0
    6.1417   -8.2792    0.0000 Na  0  0  0  0  0 15  0  0  0  0  0  0
  3  2  1  0
  4  2  1  0
  5  3  1  0
  6  4  1  0
  7  3  2  0
  8  4  2  0
  9  2  1  0
 10  4  1  0
 11  3  1  0
 12  2  1  0
M  CHG  4   1   1   5  -1   6  -1  13   1
M  END
> <chembl_id>
CHEMBL1201042

> <chembl_pref_name>
ETIDRONATE DISODIUM
