
     RDKit          2D

 27 29  0  0  0  0  0  0  0  0999 V2000
   -0.3583    0.0333    0.0000 N   0  0  0  0  0  0  0  0  0  0  0  0
   -1.0750    0.4458    0.0000 C   0  0  0  0  0  0  0  0  0  0  0  0
    1.0708   -0.7917    0.0000 N   0  0  0  0  0  0  0  0  0  0  0  0
    4.6417   -1.2042    0.0000 C   0  0  0  0  0  0  0  0  0  0  0  0
   -1.7875    0.0333    0.0000 C   0  0  0  0  0  0  0  0  0  0  0  0
   -0.3583   -0.7917    0.0000 C   0  0  0  0  0  0  0  0  0  0  0  0
    0.3542    0.4458    0.0000 C   0  0  0  0  0  0  0  0  0  0  0  0
    5.3583   -0.7917    0.0000 O   0  0  0  0  0  0  0  0  0  0  0  0
   -1.0750    1.2708    0.0000 C   0  0  0  0  0  0  0  0  0  0  0  0
   -2.5042    0.4458    0.0000 C   0  0  0  0  0  0  0  0  0  0  0  0
   -1.7875   -0.7917    0.0000 C   0  0  0  0  0  0  0  0  0  0  0  0
    1.0708    0.0333    0.0000 C   0  0  0  0  0  0  0  0  0  0  0  0
    0.3542   -1.2042    0.0000 C   0  0  0  0  0  0  0  0  0  0  0  0
   -3.2167   -0.7917    0.0000 C   0  0  0  0  0  0  0  0  0  0  0  0
    4.6417   -2.0292    0.0000 O   0  0  0  0  0  0  0  0  0  0  0  0
   -3.2167    0.0333    0.0000 C   0  0  0  0  0  0  0  0  0  0  0  0
   -2.5042   -1.2042    0.0000 C   0  0  0  0  0  0  0  0  0  0  0  0
   -3.9333   -1.2042    0.0000 Cl  0  0  0  0  0  0  0  0  0  0  0  0
    1.7833   -1.2042    0.0000 C   0  0  0  0  0  0  0  0  0  0  0  0
    3.9292   -0.7917    0.0000 C   0  0  0  0  0  0  0  0  0  0  0  0
    3.2125   -1.2042    0.0000 O   0  0  0  0  0  0  0  0  0  0  0  0
   -0.3583    1.6833    0.0000 C   0  0  0  0  0  0  0  0  0  0  0  0
   -1.7875    1.6833    0.0000 C   0  0  0  0  0  0  0  0  0  0  0  0
    2.5000   -0.7917    0.0000 C   0  0  0  0  0  0  0  0  0  0  0  0
   -0.3583    2.5083    0.0000 C   0  0  0  0  0  0  0  0  0  0  0  0
   -1.7875    2.5083    0.0000 C   0  0  0  0  0  0  0  0  0  0  0  0
   -1.0750    2.9208    0.0000 C   0  0  0  0  0  0  0  0  0  0  0  0
  2  1  1  1
  3 12  1  0
  4 20  1  0
  5  2  1  0
  6  1  1  0
  7  1  1  0
  8  4  2  0
  2  9  1  0
 10  5  2  0
 11  5  1  0
 12  7  1  0
 13  6  1  0
 14 17  1  0
 15  4  1  0
 16 10  1  0
 17 11  2  0
 18 14  1  0
 19  3  1  0
 20 21  1  0
 21 24  1  0
 22  9  1  0
 23  9  2  0
 24 19  1  0
 25 22  2  0
 26 23  1  0
 27 25  1  0
 13  3  1  0
 16 14  2  0
 27 26  2  0
M  END
> <chembl_id>
CHEMBL1201191

> <chembl_pref_name>
LEVOCETIRIZINE
