
     RDKit          2D

 60 59  0  0  0  0  0  0  0  0999 V2000
   11.4085   -6.1848    0.0000 C   0  0  0  0  0  0  0  0  0  0  0  0
   10.6940   -6.5973    0.0000 C   0  0  0  0  0  0  0  0  0  0  0  0
   10.6940   -7.4223    0.0000 O   0  0  0  0  0  0  0  0  0  0  0  0
    9.9796   -6.1848    0.0000 C   0  0  0  0  0  0  0  0  0  0  0  0
    9.9796   -5.3598    0.0000 O   0  0  0  0  0  0  0  0  0  0  0  0
    9.2651   -6.5973    0.0000 C   0  0  0  0  0  0  0  0  0  0  0  0
    9.2651   -7.4223    0.0000 O   0  0  0  0  0  0  0  0  0  0  0  0
    8.5506   -6.1848    0.0000 C   0  0  0  0  0  0  0  0  0  0  0  0
    8.5506   -5.3598    0.0000 O   0  0  0  0  0  0  0  0  0  0  0  0
    7.8362   -6.5973    0.0000 C   0  0  0  0  0  0  0  0  0  0  0  0
    7.1217   -6.1848    0.0000 O   0  0  0  0  0  0  0  0  0  0  0  0
   11.4085   -5.3598    0.0000 O   0  0  0  0  0  0  0  0  0  0  0  0
   12.1230   -6.5973    0.0000 O   0  0  0  0  0  0  0  0  0  0  0  0
   -1.6598   -1.8458    0.0000 C   0  0  0  0  0  0  0  0  0  0  0  0
   -1.6609   -2.6732    0.0000 C   0  0  0  0  0  0  0  0  0  0  0  0
   -0.9461   -3.0860    0.0000 C   0  0  0  0  0  0  0  0  0  0  0  0
   -0.2297   -2.6727    0.0000 C   0  0  0  0  0  0  0  0  0  0  0  0
   -0.2325   -1.8422    0.0000 C   0  0  0  0  0  0  0  0  0  0  0  0
   -0.9479   -1.4330    0.0000 C   0  0  0  0  0  0  0  0  0  0  0  0
   -2.3743   -1.4335    0.0000 Cl  0  0  0  0  0  0  0  0  0  0  0  0
    0.4855   -3.0841    0.0000 N   0  0  0  0  0  0  0  0  0  0  0  0
    1.1993   -2.6704    0.0000 C   0  0  0  0  0  0  0  0  0  0  0  0
    1.9144   -3.0818    0.0000 N   0  0  0  0  0  0  0  0  0  0  0  0
    1.1980   -1.8454    0.0000 N   0  0  0  0  0  0  0  0  0  0  0  0
    2.6282   -2.6682    0.0000 C   0  0  0  0  0  0  0  0  0  0  0  0
    3.3433   -3.0796    0.0000 N   0  0  0  0  0  0  0  0  0  0  0  0
    2.6269   -1.8432    0.0000 N   0  0  0  0  0  0  0  0  0  0  0  0
    4.0572   -2.6660    0.0000 C   0  0  0  0  0  0  0  0  0  0  0  0
    4.7723   -3.0773    0.0000 C   0  0  0  0  0  0  0  0  0  0  0  0
    5.4861   -2.6637    0.0000 C   0  0  0  0  0  0  0  0  0  0  0  0
    6.2012   -3.0751    0.0000 C   0  0  0  0  0  0  0  0  0  0  0  0
    6.9150   -2.6615    0.0000 C   0  0  0  0  0  0  0  0  0  0  0  0
    7.6302   -3.0729    0.0000 C   0  0  0  0  0  0  0  0  0  0  0  0
    8.3440   -2.6592    0.0000 N   0  0  0  0  0  0  0  0  0  0  0  0
    9.0591   -3.0706    0.0000 C   0  0  0  0  0  0  0  0  0  0  0  0
    9.7729   -2.6570    0.0000 N   0  0  0  0  0  0  0  0  0  0  0  0
    9.0604   -3.8956    0.0000 N   0  0  0  0  0  0  0  0  0  0  0  0
   10.4880   -3.0684    0.0000 C   0  0  0  0  0  0  0  0  0  0  0  0
   11.2019   -2.6547    0.0000 N   0  0  0  0  0  0  0  0  0  0  0  0
   10.4893   -3.8934    0.0000 N   0  0  0  0  0  0  0  0  0  0  0  0
   11.9170   -3.0661    0.0000 C   0  0  0  0  0  0  0  0  0  0  0  0
   11.9152   -3.8886    0.0000 C   0  0  0  0  0  0  0  0  0  0  0  0
   12.6295   -4.2999    0.0000 C   0  0  0  0  0  0  0  0  0  0  0  0
   13.3443   -3.8862    0.0000 C   0  0  0  0  0  0  0  0  0  0  0  0
   13.3403   -3.0569    0.0000 C   0  0  0  0  0  0  0  0  0  0  0  0
   12.6255   -2.6494    0.0000 C   0  0  0  0  0  0  0  0  0  0  0  0
   14.0599   -4.2966    0.0000 Cl  0  0  0  0  0  0  0  0  0  0  0  0
    4.5399   -6.0684    0.0000 C   0  0  0  0  0  0  0  0  0  0  0  0
    3.8255   -6.4809    0.0000 C   0  0  0  0  0  0  0  0  0  0  0  0
    3.8255   -7.3059    0.0000 O   0  0  0  0  0  0  0  0  0  0  0  0
    3.1110   -6.0684    0.0000 C   0  0  0  0  0  0  0  0  0  0  0  0
    3.1110   -5.2434    0.0000 O   0  0  0  0  0  0  0  0  0  0  0  0
    2.3965   -6.4809    0.0000 C   0  0  0  0  0  0  0  0  0  0  0  0
    2.3965   -7.3059    0.0000 O   0  0  0  0  0  0  0  0  0  0  0  0
    1.6821   -6.0684    0.0000 C   0  0  0  0  0  0  0  0  0  0  0  0
    1.6821   -5.2434    0.0000 O   0  0  0  0  0  0  0  0  0  0  0  0
    0.9676   -6.4809    0.0000 C   0  0  0  0  0  0  0  0  0  0  0  0
    0.2531   -6.0684    0.0000 O   0  0  0  0  0  0  0  0  0  0  0  0
    4.5399   -5.2434    0.0000 O   0  0  0  0  0  0  0  0  0  0  0  0
    5.2544   -6.4809    0.0000 O   0  0  0  0  0  0  0  0  0  0  0  0
  1  2  1  0
  2  3  1  6
  2  4  1  0
  4  5  1  6
  4  6  1  0
  6  7  1  6
  6  8  1  0
  8  9  1  1
  8 10  1  0
 10 11  1  0
  1 12  2  0
  1 13  1  0
 35 36  1  0
 22 24  2  0
 35 37  2  0
 36 38  1  0
 23 25  1  0
 38 39  1  0
 18 19  2  0
 38 40  2  0
 25 26  1  0
 39 41  1  0
 19 14  1  0
 41 42  2  0
 25 27  2  0
 42 43  1  0
 15 16  1  0
 43 44  2  0
 26 28  1  0
 44 45  1  0
 14 20  1  0
 45 46  2  0
 46 41  1  0
 28 29  1  0
 44 47  1  0
 29 30  1  0
 17 21  1  0
 30 31  1  0
 16 17  2  0
 31 32  1  0
 21 22  1  0
 32 33  1  0
 14 15  2  0
 33 34  1  0
 22 23  1  0
 34 35  1  0
 17 18  1  0
 48 49  1  0
 49 50  1  6
 49 51  1  0
 51 52  1  6
 51 53  1  0
 53 54  1  6
 53 55  1  0
 55 56  1  1
 55 57  1  0
 57 58  1  0
 48 59  2  0
 48 60  1  0
M  END
> <chembl_id>
CHEMBL4297088

> <chembl_pref_name>
CHLORHEXIDINE GLUCONATE
