
     RDKit          2D

 25 27  0  0  0  0  0  0  0  0999 V2000
    6.2417   -5.9042    0.0000 Cl  0  0  0  0  0  0  0  0  0  0  0  0
    5.5250   -4.1917    0.0000 C   0  0  0  0  0  0  0  0  0  0  0  0
    4.9125   -5.2500    0.0000 N   0  0  0  0  0  0  0  0  0  0  0  0
    4.3000   -4.1917    0.0000 C   0  0  0  0  0  0  0  0  0  0  0  0
    4.3000   -4.9000    0.0000 C   0  0  0  0  0  0  0  0  0  0  0  0
    4.9125   -3.8417    0.0000 C   0  0  0  0  0  0  0  0  0  0  0  0
    5.5250   -4.8875    0.0000 C   0  0  0  0  0  0  0  0  0  0  0  0
    3.6875   -5.2500    0.0000 C   0  0  0  0  0  0  0  0  0  0  0  0
    3.0750   -4.8875    0.0000 C   0  0  0  0  0  0  0  0  0  0  0  0
    4.9125   -5.9417    0.0000 C   0  0  0  0  0  0  0  0  0  0  0  0
    3.6875   -3.8417    0.0000 C   0  0  0  0  0  0  0  0  0  0  0  0
    6.1542   -3.8625    0.0000 C   0  0  0  0  0  0  0  0  0  0  0  0
    3.0750   -4.1917    0.0000 C   0  0  0  0  0  0  0  0  0  0  0  0
    2.4625   -5.2292    0.0000 N   0  0  0  0  0  0  0  0  0  0  0  0
    4.4667   -6.5375    0.0000 C   0  0  0  0  0  0  0  0  0  0  0  0
    5.2542   -6.5625    0.0000 C   0  0  0  0  0  0  0  0  0  0  0  0
    4.9125   -3.1292    0.0000 O   0  0  0  0  0  0  0  0  0  0  0  0
    1.2417   -5.9375    0.0000 N   0  0  0  0  0  0  0  0  0  0  0  0
    6.1875   -3.1500    0.0000 O   0  0  0  0  0  0  0  0  0  0  0  0
    2.4417   -3.8625    0.0000 F   0  0  0  0  0  0  0  0  0  0  0  0
    6.7542   -4.2292    0.0000 O   0  0  0  0  0  0  0  0  0  0  0  0
    2.4625   -5.9375    0.0000 C   0  0  0  0  0  0  0  0  0  0  0  0
    1.8542   -4.8750    0.0000 C   0  0  0  0  0  0  0  0  0  0  0  0
    1.8542   -6.2875    0.0000 C   0  0  0  0  0  0  0  0  0  0  0  0
    1.2417   -5.2250    0.0000 C   0  0  0  0  0  0  0  0  0  0  0  0
  3  7  1  0
  4  6  1  0
  5  3  1  0
  6  2  1  0
  7  2  2  0
  8  5  1  0
  9  8  2  0
 10  3  1  0
 11  4  1  0
 12  2  1  0
 13 11  2  0
 14  9  1  0
 15 10  1  0
 16 10  1  0
 17  6  2  0
 18 24  1  0
 19 12  2  0
 20 13  1  0
 21 12  1  0
 22 14  1  0
 23 14  1  0
 24 22  1  0
 25 23  1  0
  5  4  2  0
 16 15  1  0
  9 13  1  0
 18 25  1  0
M  END
> <chembl_id>
CHEMBL1202

> <chembl_pref_name>
CIPROFLOXACIN HYDROCHLORIDE
