
     RDKit          2D

 18 18  0  0  0  0  0  0  0  0999 V2000
    3.0803    2.5322    0.0000 Na  0  0  0  0  0 15  0  0  0  0  0  0
    4.8864    4.1293    0.0000 N   0  0  0  0  0  0  0  0  0  0  0  0
    5.5705    4.5343    0.0000 C   0  0  0  0  0  0  0  0  0  0  0  0
    4.8452    5.7598    0.0000 C   0  0  0  0  0  0  0  0  0  0  0  0
    5.5814    5.3581    0.0000 C   0  0  0  0  0  0  0  0  0  0  0  0
    4.1611    5.3548    0.0000 N   0  0  0  0  0  0  0  0  0  0  0  0
    4.1639    4.5192    0.0000 C   0  0  0  0  0  0  0  0  0  0  0  0
    6.3037    4.1375    0.0000 O   0  0  0  0  0  0  0  0  0  0  0  0
    4.8560    6.5836    0.0000 O   0  0  0  0  0  0  0  0  0  0  0  0
    3.4503    4.0967    0.0000 O   0  0  0  0  0  0  0  0  0  0  0  0
    6.3965    5.3620    0.0000 C   0  0  0  0  0  0  0  0  0  0  0  0
    5.9740    6.0757    0.0000 C   0  0  0  0  0  0  0  0  0  0  0  0
    6.8019    6.0805    0.0000 C   0  0  0  0  0  0  0  0  0  0  0  0
    6.8072    4.6681    0.0000 C   0  0  0  0  0  0  0  0  0  0  0  0
    5.5488    6.7942    0.0000 C   0  0  0  0  0  0  0  0  0  0  0  0
    7.6466    6.1019    0.0000 C   0  0  0  0  0  0  0  0  0  0  0  0
    7.6379    4.6680    0.0000 C   0  0  0  0  0  0  0  0  0  0  0  0
    8.0573    5.4080    0.0000 C   0  0  0  0  0  0  0  0  0  0  0  0
  3  2  1  0
  4  6  1  0
  5  3  1  0
  6  7  2  0
  7  2  1  0
  8  3  2  0
  9  4  2  0
 10  7  1  0
 11  5  1  0
 12  5  1  0
 13 11  2  0
 14 11  1  0
 15 12  1  0
 16 13  1  0
 17 14  2  0
 18 16  2  0
  4  5  1  0
 17 18  1  0
M  CHG  2   1   1  10  -1
M  END
> <chembl_id>
CHEMBL149972

> <chembl_pref_name>
PHENOBARBITAL SODIUM
