
     RDKit          2D

 24 27  0  0  0  0  0  0  0  0999 V2000
   -4.3909  -15.5072    0.0000 C   0  0  0  0  0  0  0  0  0  0  0  0
   -4.3922  -16.3348    0.0000 C   0  0  0  0  0  0  0  0  0  0  0  0
   -3.6793  -16.7476    0.0000 C   0  0  0  0  0  0  0  0  0  0  0  0
   -2.9632  -15.5032    0.0000 C   0  0  0  0  0  0  0  0  0  0  0  0
   -3.6813  -15.0944    0.0000 C   0  0  0  0  0  0  0  0  0  0  0  0
   -5.1072  -16.7461    0.0000 Cl  0  0  0  0  0  0  0  0  0  0  0  0
   -5.1058  -15.0953    0.0000 S   0  0  0  0  0  0  0  0  0  0  0  0
   -5.8198  -15.5084    0.0000 N   0  0  0  0  0  0  0  0  0  0  0  0
   -4.7010  -14.3798    0.0000 O   0  0  0  0  0  0  0  0  0  0  0  0
   -5.5259  -14.3798    0.0000 O   0  0  0  0  0  0  0  0  0  0  0  0
   -2.2508  -15.0871    0.0000 S   0  0  0  0  0  0  0  0  0  0  0  0
   -1.5343  -15.4961    0.0000 N   0  0  0  0  0  0  0  0  0  0  0  0
   -1.5303  -16.3210    0.0000 C   0  0  0  0  0  0  0  0  0  0  0  0
   -2.2427  -16.7370    0.0000 N   0  0  0  0  0  0  0  0  0  0  0  0
   -2.9591  -16.3282    0.0000 C   0  0  0  0  0  0  0  0  0  0  0  0
   -1.8458  -14.3707    0.0000 O   0  0  0  0  0  0  0  0  0  0  0  0
   -2.6708  -14.3707    0.0000 O   0  0  0  0  0  0  0  0  0  0  0  0
   -0.8139  -16.7300    0.0000 C   0  0  0  0  0  0  0  0  0  0  0  0
   -0.0170  -16.9435    0.0000 C   0  0  0  0  0  0  0  0  0  0  0  0
    0.7799  -16.7300    0.0000 C   0  0  0  0  0  0  0  0  0  0  0  0
    1.1924  -17.4444    0.0000 C   0  0  0  0  0  0  0  0  0  0  0  0
    0.4779  -17.8569    0.0000 C   0  0  0  0  0  0  0  0  0  0  0  0
   -0.6004  -17.5269    0.0000 C   0  0  0  0  0  0  0  0  0  0  0  0
    0.0654  -18.5714    0.0000 C   0  0  0  0  0  0  0  0  0  0  0  0
  5  1  1  0
 11 12  1  0
  2  3  1  0
 12 13  1  0
  2  6  1  0
 13 14  1  0
  3 15  2  0
 14 15  1  0
  1  7  1  0
 11 16  2  0
  1  2  2  0
 11 17  2  0
  7  8  1  0
 13 18  1  0
 15  4  1  0
  7  9  2  0
  7 10  2  0
  4  5  2  0
  4 11  1  0
 18 19  1  0
 19 20  1  0
 20 21  2  0
 21 22  1  0
 18 23  1  0
 23 22  1  0
 22 24  1  0
 19 24  1  0
M  END
> <chembl_id>
CHEMBL61593

> <chembl_pref_name>
CYCLOTHIAZIDE
