
     RDKit          2D

 12 12  0  0  0  0  0  0  0  0999 V2000
    2.5631    1.5224    0.0000 C   0  0  0  0  0  0  0  0  0  0  0  0
    1.2990   -0.7500    0.0000 C   0  0  0  0  0  0  0  0  0  0  0  0
    3.6023    2.1226    0.0000 O   0  0  0  0  0  0  0  0  0  0  0  0
    2.5625    0.0216    0.0000 C   0  0  0  0  0  0  0  0  0  0  0  0
    1.5240    2.1225    0.0000 O   0  0  0  0  0  0  0  0  0  0  0  0
    2.3015   -2.8311    0.0000 N   0  0  0  0  0  0  0  0  0  0  0  0
    1.2628   -2.2303    0.0000 C   0  0  0  0  0  0  0  0  0  0  0  0
    1.2990    0.7500    0.0000 C   0  0  0  0  0  0  0  0  0  0  0  0
    0.0000   -1.5000    0.0000 C   0  0  0  0  0  0  0  0  0  0  0  0
   -1.2990   -0.7500    0.0000 C   0  0  0  0  0  0  0  0  0  0  0  0
    0.0000    1.5000    0.0000 C   0  0  0  0  0  0  0  0  0  0  0  0
   -1.2990    0.7500    0.0000 C   0  0  0  0  0  0  0  0  0  0  0  0
  1  3  2  0
  1  4  1  0
  2  4  1  0
  1  5  1  0
  2  7  1  0
  6  7  1  0
  2  8  1  0
  2  9  1  0
  9 10  1  0
  8 11  1  0
 10 12  1  0
 11 12  1  0
M  END
> <chembl_id>
CHEMBL940

> <chembl_pref_name>
GABAPENTIN
