
     RDKit          2D

 28 30  0  0  0  0  0  0  0  0999 V2000
   -2.8875    1.0902    0.0000 C   0  0  0  0  0  0  0  0  0  0  0  0
   -2.1730    1.5027    0.0000 O   0  0  0  0  0  0  0  0  0  0  0  0
   -1.4586    1.0902    0.0000 C   0  0  0  0  0  0  0  0  0  0  0  0
   -0.7441    1.5027    0.0000 C   0  0  0  0  0  0  0  0  0  0  0  0
   -1.4586    0.2652    0.0000 C   0  0  0  0  0  0  0  0  0  0  0  0
   -0.7441   -0.1473    0.0000 C   0  0  0  0  0  0  0  0  0  0  0  0
   -0.0296    0.2652    0.0000 C   0  0  0  0  0  0  0  0  0  0  0  0
   -0.0296    1.0902    0.0000 C   0  0  0  0  0  0  0  0  0  0  0  0
    0.6848   -0.1473    0.0000 C   0  0  0  0  0  0  0  0  0  0  0  0
    1.3993    0.2652    0.0000 C   0  0  0  0  0  0  0  0  0  0  0  0
    2.1138   -0.1473    0.0000 N   0  0  0  0  0  0  0  0  0  0  0  0
    2.8283    0.2652    0.0000 C   0  0  0  0  0  0  0  0  0  0  0  0
    3.5427   -0.1473    0.0000 C   0  0  0  0  0  0  0  0  0  0  0  0
    4.2572    0.2652    0.0000 C   0  0  0  0  0  0  0  0  0  0  0  0
    4.9717    1.5027    0.0000 C   0  0  0  0  0  0  0  0  0  0  0  0
    4.2572    1.0902    0.0000 C   0  0  0  0  0  0  0  0  0  0  0  0
    4.9717   -0.1473    0.0000 C   0  0  0  0  0  0  0  0  0  0  0  0
    5.6861    0.2652    0.0000 C   0  0  0  0  0  0  0  0  0  0  0  0
    5.6861    1.0902    0.0000 C   0  0  0  0  0  0  0  0  0  0  0  0
    4.9717   -0.9723    0.0000 O   0  0  0  0  0  0  0  0  0  0  0  0
    5.6861   -1.3848    0.0000 C   0  0  0  0  0  0  0  0  0  0  0  0
    6.4006   -0.9723    0.0000 C   0  0  0  0  0  0  0  0  0  0  0  0
    6.4006   -0.1473    0.0000 N   0  0  0  0  0  0  0  0  0  0  0  0
    7.1151   -1.3848    0.0000 O   0  0  0  0  0  0  0  0  0  0  0  0
    4.9717    2.3277    0.0000 O   0  0  0  0  0  0  0  0  0  0  0  0
    0.8160    0.8485    0.0000 C   0  0  0  0  0  0  0  0  0  0  0  0
    1.8118    0.9796    0.0000 C   0  0  0  0  0  0  0  0  0  0  0  0
    3.5427   -0.9723    0.0000 O   0  0  0  0  0  0  0  0  0  0  0  0
  1  2  1  0
  2  3  1  0
  4  3  2  0
  3  5  1  0
  4  8  1  0
  5  6  2  0
  6  7  1  0
  7  8  2  0
  7  9  1  0
  9 10  1  0
 10 11  1  0
 11 12  1  0
 12 13  1  0
 13 14  1  0
 16 14  1  0
 14 17  2  0
 15 16  2  0
 15 19  1  0
 18 19  2  0
 18 23  1  0
 17 18  1  0
 17 20  1  0
 20 21  1  0
 21 22  1  0
 22 23  1  0
 22 24  2  0
 15 25  1  0
 10 26  1  0
 10 27  1  0
 13 28  1  1
M  END
> <chembl_id>
CHEMBL605846

> <chembl_pref_name>
OLODATEROL
