
     RDKit          2D

 31 34  0  0  0  0  0  0  0  0999 V2000
    2.4667   -5.2708    0.0000 C   0  0  0  0  0  0  0  0  0  0  0  0
    3.0833   -5.6250    0.0000 C   0  0  0  0  0  0  0  0  0  0  0  0
    2.4667   -4.5625    0.0000 C   0  0  0  0  0  0  0  0  0  0  0  0
    1.8542   -5.6292    0.0000 C   0  0  0  0  0  0  0  0  0  0  0  0
    3.6958   -5.2667    0.0000 N   0  0  0  0  0  0  0  0  0  0  0  0
    1.8542   -4.2083    0.0000 C   0  0  0  0  0  0  0  0  0  0  0  0
    3.0833   -6.3333    0.0000 N   0  0  0  0  0  0  0  0  0  0  0  0
    1.2417   -5.2750    0.0000 C   0  0  0  0  0  0  0  0  0  0  0  0
    1.2417   -4.5625    0.0000 C   0  0  0  0  0  0  0  0  0  0  0  0
    4.3125   -7.7417    0.0000 C   0  0  0  0  0  0  0  0  0  0  0  0
    3.0750   -4.2042    0.0000 N   0  0  0  0  0  0  0  0  0  0  0  0
    3.6958   -7.3917    0.0000 C   0  0  0  0  0  0  0  0  0  0  0  0
   -1.8250   -5.6292    0.0000 N   0  0  0  0  0  0  0  0  0  0  0  0
    3.6917   -4.5542    0.0000 C   0  0  0  0  0  0  0  0  0  0  0  0
    3.6958   -6.6833    0.0000 C   0  0  0  0  0  0  0  0  0  0  0  0
    4.9250   -7.3875    0.0000 C   0  0  0  0  0  0  0  0  0  0  0  0
   -3.0542   -6.3292    0.0000 O   0  0  0  0  0  0  0  0  0  0  0  0
    4.9208   -6.6750    0.0000 C   0  0  0  0  0  0  0  0  0  0  0  0
    4.3125   -8.4500    0.0000 Cl  0  0  0  0  0  0  0  0  0  0  0  0
    4.3042   -6.3250    0.0000 C   0  0  0  0  0  0  0  0  0  0  0  0
    5.5375   -7.7375    0.0000 F   0  0  0  0  0  0  0  0  0  0  0  0
    0.6292   -5.6292    0.0000 O   0  0  0  0  0  0  0  0  0  0  0  0
    0.6292   -4.2083    0.0000 O   0  0  0  0  0  0  0  0  0  0  0  0
   -1.2125   -5.2750    0.0000 C   0  0  0  0  0  0  0  0  0  0  0  0
   -0.6000   -5.6292    0.0000 C   0  0  0  0  0  0  0  0  0  0  0  0
   -2.4375   -5.2708    0.0000 C   0  0  0  0  0  0  0  0  0  0  0  0
   -1.8250   -6.3333    0.0000 C   0  0  0  0  0  0  0  0  0  0  0  0
   -2.4417   -6.6875    0.0000 C   0  0  0  0  0  0  0  0  0  0  0  0
   -3.0500   -5.6208    0.0000 C   0  0  0  0  0  0  0  0  0  0  0  0
    0.0125   -5.2750    0.0000 C   0  0  0  0  0  0  0  0  0  0  0  0
    0.0167   -4.5625    0.0000 C   0  0  0  0  0  0  0  0  0  0  0  0
  2  1  1  0
  3  1  1  0
  4  1  2  0
  5  2  2  0
  6  3  2  0
  7  2  1  0
  8  4  1  0
  9  8  2  0
 10 12  1  0
 11  3  1  0
 12 15  2  0
 13 24  1  0
 14  5  1  0
 15  7  1  0
 16 10  2  0
 17 28  1  0
 18 20  2  0
 19 10  1  0
 20 15  1  0
 21 16  1  0
 22  8  1  0
 23  9  1  0
 24 25  1  0
 25 30  1  0
 26 13  1  0
 27 13  1  0
 28 27  1  0
 29 26  1  0
 30 22  1  0
 31 23  1  0
 11 14  2  0
  9  6  1  0
 18 16  1  0
 17 29  1  0
M  END
> <chembl_id>
CHEMBL939

> <chembl_pref_name>
GEFITINIB
