
     RDKit          2D

 28 29  0  0  0  0  0  0  0  0999 V2000
   -1.8958   -1.2167    0.0000 C   0  0  0  0  0  0  0  0  0  0  0  0
   -0.6708   -0.5042    0.0000 C   0  0  0  0  0  0  0  0  0  0  0  0
   -0.0583   -0.1500    0.0000 C   0  0  0  0  0  0  0  0  0  0  0  0
   -1.2625   -1.5667    0.0000 C   0  0  0  0  0  0  0  0  0  0  0  0
   -1.9042   -0.5042    0.0000 C   0  0  0  0  0  0  0  0  0  0  0  0
   -1.2958   -0.1542    0.0000 C   0  0  0  0  0  0  0  0  0  0  0  0
   -0.6625   -1.2042    0.0000 C   0  0  0  0  0  0  0  0  0  0  0  0
    0.5667   -0.4917    0.0000 N   0  0  0  0  0  0  0  0  0  0  0  0
   -0.0583    0.5625    0.0000 O   0  0  0  0  0  0  0  0  0  0  0  0
    1.1792   -0.1292    0.0000 C   0  0  0  0  0  0  0  0  0  0  0  0
   -2.5083   -1.5792    0.0000 O   0  0  0  0  0  0  0  0  0  0  0  0
   -2.5250   -0.1500    0.0000 O   0  0  0  0  0  0  0  0  0  0  0  0
   -1.2708   -2.2792    0.0000 O   0  0  0  0  0  0  0  0  0  0  0  0
    5.4792   -1.1917    0.0000 N   0  0  0  0  0  0  0  0  0  0  0  0
    1.7875   -0.4792    0.0000 C   0  0  0  0  0  0  0  0  0  0  0  0
    3.0292   -1.1792    0.0000 C   0  0  0  0  0  0  0  0  0  0  0  0
    2.4042   -0.1167    0.0000 C   0  0  0  0  0  0  0  0  0  0  0  0
    1.7917   -1.1917    0.0000 C   0  0  0  0  0  0  0  0  0  0  0  0
    3.0125   -0.4667    0.0000 C   0  0  0  0  0  0  0  0  0  0  0  0
    2.4167   -1.5292    0.0000 C   0  0  0  0  0  0  0  0  0  0  0  0
    3.6500   -1.5375    0.0000 O   0  0  0  0  0  0  0  0  0  0  0  0
    4.2500   -1.1917    0.0000 C   0  0  0  0  0  0  0  0  0  0  0  0
    4.8667   -1.5500    0.0000 C   0  0  0  0  0  0  0  0  0  0  0  0
    6.0917   -1.5542    0.0000 C   0  0  0  0  0  0  0  0  0  0  0  0
    5.4917   -0.4792    0.0000 C   0  0  0  0  0  0  0  0  0  0  0  0
   -3.1333   -1.2292    0.0000 C   0  0  0  0  0  0  0  0  0  0  0  0
   -2.5333    0.5375    0.0000 C   0  0  0  0  0  0  0  0  0  0  0  0
   -1.8875   -2.6167    0.0000 C   0  0  0  0  0  0  0  0  0  0  0  0
  2  6  2  0
  3  2  1  0
  4  1  1  0
  5  1  2  0
  6  5  1  0
  7  4  2  0
  8  3  1  0
  9  3  2  0
 10  8  1  0
 11  1  1  0
 12  5  1  0
 13  4  1  0
 14 23  1  0
 15 10  1  0
 16 19  1  0
 17 15  1  0
 18 15  2  0
 19 17  2  0
 20 18  1  0
 21 16  1  0
 22 21  1  0
 23 22  1  0
 24 14  1  0
 25 14  1  0
 26 11  1  0
 27 12  1  0
 28 13  1  0
  7  2  1  0
 20 16  2  0
M  END
> <chembl_id>
CHEMBL1201256

> <chembl_pref_name>
TRIMETHOBENZAMIDE
