
     RDKit          2D

 19 19  0  0  0  0  0  0  0  0999 V2000
   -2.7458   -0.0792    0.0000 N   0  0  0  0  0  0  0  0  0  0  0  0
   -1.7458    0.5000    0.0000 C   0  0  0  0  0  0  0  0  0  0  0  0
   -2.7458   -1.2292    0.0000 C   0  0  0  0  0  0  0  0  0  0  0  0
   -0.7458   -0.0792    0.0000 C   0  0  0  0  0  0  0  0  0  0  0  0
   -1.7458   -1.8042    0.0000 N   0  0  0  0  0  0  0  0  0  0  0  0
   -0.7458   -1.2292    0.0000 C   0  0  0  0  0  0  0  0  0  0  0  0
    1.0042    0.8833    0.0000 C   0  0  0  0  0  0  0  0  0  0  0  0
    2.1542    0.8583    0.0000 C   0  0  0  0  0  0  0  0  0  0  0  0
   -1.7458    1.6500    0.0000 O   0  0  0  0  0  0  0  0  0  0  0  0
   -0.1458    0.9083    0.0000 C   0  0  0  0  0  0  0  0  0  0  0  0
   -3.7375   -1.8042    0.0000 O   0  0  0  0  0  0  0  0  0  0  0  0
    0.2542   -1.8042    0.0000 O   0  0  0  0  0  0  0  0  0  0  0  0
    0.3917   -0.2792    0.0000 C   0  0  0  0  0  0  0  0  0  0  0  0
   -3.7375    0.5000    0.0000 C   0  0  0  0  0  0  0  0  0  0  0  0
    0.7875   -1.3625    0.0000 C   0  0  0  0  0  0  0  0  0  0  0  0
    1.9167   -1.5625    0.0000 C   0  0  0  0  0  0  0  0  0  0  0  0
    3.3125    0.8333    0.0000 C   0  0  0  0  0  0  0  0  0  0  0  0
   -0.7000    1.9208    0.0000 C   0  0  0  0  0  0  0  0  0  0  0  0
    3.8667   -0.1792    0.0000 C   0  0  0  0  0  0  0  0  0  0  0  0
  2  1  1  0
  3  1  1  0
  4  2  1  0
  5  3  1  0
  6  5  1  0
  7 10  1  0
  8  7  3  0
  9  2  2  0
 10  4  1  0
 11  3  2  0
 12  6  2  0
 13  4  1  0
 14  1  1  0
 15 13  1  0
 16 15  2  0
 17  8  1  0
 18 10  1  0
 19 17  1  0
  4  6  1  0
M  END
> <chembl_id>
CHEMBL7413

> <chembl_pref_name>
METHOHEXITAL
