
     RDKit          2D

 23 23  0  0  0  0  0  0  0  0999 V2000
    9.0311   -7.7000    0.0000 C   0  0  0  0  0  0  0  0  0  0  0  0
    8.5521   -7.0098    0.0000 O   0  0  0  0  0  0  0  0  0  0  0  0
    7.7284   -7.0529    0.0000 C   0  0  0  0  0  0  0  0  0  0  0  0
    7.3538   -7.7880    0.0000 C   0  0  0  0  0  0  0  0  0  0  0  0
    7.8031   -8.4799    0.0000 C   0  0  0  0  0  0  0  0  0  0  0  0
    8.6270   -8.4367    0.0000 C   0  0  0  0  0  0  0  0  0  0  0  0
    7.2790   -6.3611    0.0000 C   0  0  0  0  0  0  0  0  0  0  0  0
    6.5299   -7.8312    0.0000 O   0  0  0  0  0  0  0  0  0  0  0  0
    9.0677   -6.6145    0.0000 O   0  0  0  0  0  0  0  0  0  0  0  0
    7.4286   -9.2150    0.0000 O   0  0  0  0  0  0  0  0  0  0  0  0
    9.0764   -9.1286    0.0000 O   0  0  0  0  0  0  0  0  0  0  0  0
    6.4551   -6.4042    0.0000 O   0  0  0  0  0  0  0  0  0  0  0  0
   10.5514   -5.0135    0.0000 O   0  0  0  0  0  0  0  0  0  0  0  0
    9.8234   -5.4017    0.0000 C   0  0  0  0  0  0  0  0  0  0  0  0
    9.7957   -6.2263    0.0000 C   0  0  0  0  0  0  0  0  0  0  0  0
   10.4958   -6.6626    0.0000 C   0  0  0  0  0  0  0  0  0  0  0  0
   11.2238   -6.2744    0.0000 C   0  0  0  0  0  0  0  0  0  0  0  0
    9.1233   -4.9654    0.0000 C   0  0  0  0  0  0  0  0  0  0  0  0
   11.2516   -5.4499    0.0000 O   0  0  0  0  0  0  0  0  0  0  0  0
   10.4681   -7.4871    0.0000 O   0  0  0  0  0  0  0  0  0  0  0  0
    9.1511   -4.1409    0.0000 O   0  0  0  0  0  0  0  0  0  0  0  0
   11.9240   -6.7107    0.0000 C   0  0  0  0  0  0  0  0  0  0  0  0
   12.6519   -6.3225    0.0000 O   0  0  0  0  0  0  0  0  0  0  0  0
  1  2  1  0
  6  1  1  0
  2  3  1  0
  3  4  1  0
  4  5  1  0
  5  6  1  0
  3  7  1  1
  4  8  1  1
  1  9  1  1
  5 10  1  1
  6 11  1  6
  7 12  1  0
 14 13  1  1
 14 15  1  0
 15 16  1  0
 16 17  1  0
 15  9  1  6
 14 18  1  0
 17 19  1  1
 16 20  1  1
 18 21  1  0
 17 22  1  0
 22 23  1  0
M  END
> <chembl_id>
CHEMBL1661

> <chembl_pref_name>
LACTITOL
