
     RDKit          2D

 28 31  0  0  0  0  0  0  0  0999 V2000
    0.2875    0.1708    0.0000 N   0  0  0  0  0  0  0  0  0  0  0  0
    1.5250    0.9000    0.0000 N   0  0  0  0  0  0  0  0  0  0  0  0
   -0.3208   -0.1583    0.0000 C   0  0  0  0  0  0  0  0  0  0  0  0
   -0.9375    0.1958    0.0000 C   0  0  0  0  0  0  0  0  0  0  0  0
    0.9167   -0.1875    0.0000 C   0  0  0  0  0  0  0  0  0  0  0  0
    0.2875    0.9000    0.0000 C   0  0  0  0  0  0  0  0  0  0  0  0
    2.1250    1.2583    0.0000 C   0  0  0  0  0  0  0  0  0  0  0  0
   -0.3208   -0.8667    0.0000 C   0  0  0  0  0  0  0  0  0  0  0  0
    2.7500    0.9208    0.0000 C   0  0  0  0  0  0  0  0  0  0  0  0
   -0.9375    0.9083    0.0000 C   0  0  0  0  0  0  0  0  0  0  0  0
   -1.5375   -0.1583    0.0000 C   0  0  0  0  0  0  0  0  0  0  0  0
    1.5250    0.1708    0.0000 C   0  0  0  0  0  0  0  0  0  0  0  0
    0.9167    1.2458    0.0000 C   0  0  0  0  0  0  0  0  0  0  0  0
    3.3750    1.2708    0.0000 C   0  0  0  0  0  0  0  0  0  0  0  0
   -2.1625    0.9083    0.0000 C   0  0  0  0  0  0  0  0  0  0  0  0
   -1.5375    1.2708    0.0000 C   0  0  0  0  0  0  0  0  0  0  0  0
   -2.1625    0.1958    0.0000 C   0  0  0  0  0  0  0  0  0  0  0  0
   -2.7833    1.2583    0.0000 Cl  0  0  0  0  0  0  0  0  0  0  0  0
    3.9875    0.9208    0.0000 C   0  0  0  0  0  0  0  0  0  0  0  0
    3.3750   -0.1417    0.0000 C   0  0  0  0  0  0  0  0  0  0  0  0
    2.7500    0.1958    0.0000 C   0  0  0  0  0  0  0  0  0  0  0  0
   -0.9208   -1.2292    0.0000 C   0  0  0  0  0  0  0  0  0  0  0  0
    0.3000   -1.2292    0.0000 C   0  0  0  0  0  0  0  0  0  0  0  0
    3.9875    0.1958    0.0000 C   0  0  0  0  0  0  0  0  0  0  0  0
    4.5875    1.2833    0.0000 C   0  0  0  0  0  0  0  0  0  0  0  0
   -0.9208   -1.9542    0.0000 C   0  0  0  0  0  0  0  0  0  0  0  0
    0.3000   -1.9542    0.0000 C   0  0  0  0  0  0  0  0  0  0  0  0
   -0.3208   -2.3000    0.0000 C   0  0  0  0  0  0  0  0  0  0  0  0
  2 13  1  0
  3  1  1  0
  4  3  1  0
  5  1  1  0
  6  1  1  0
  7  2  1  0
  8  3  1  0
  9  7  1  0
 10  4  2  0
 11  4  1  0
 12  5  1  0
 13  6  1  0
 14  9  2  0
 15 17  1  0
 16 10  1  0
 17 11  2  0
 18 15  1  0
 19 14  1  0
 20 21  2  0
 21  9  1  0
 22  8  2  0
 23  8  1  0
 24 20  1  0
 25 19  1  0
 26 22  1  0
 27 23  2  0
 28 27  1  0
  2 12  1  0
 15 16  2  0
 28 26  2  0
 24 19  2  0
M  END
> <chembl_id>
CHEMBL1623

> <chembl_pref_name>
MECLIZINE
