
     RDKit          2D

 38 42  0  0  1  0  0  0  0  0999 V2000
    1.0042   -1.5125    0.0000 C   0  0  0  0  0  0  0  0  0  0  0  0
    1.6792   -1.3000    0.0000 C   0  0  0  0  0  0  0  0  0  0  0  0
   -0.2333   -2.2042    0.0000 C   0  0  0  0  0  0  0  0  0  0  0  0
   -0.8458   -2.5625    0.0000 C   0  0  0  0  0  0  0  0  0  0  0  0
    0.9917   -2.2167    0.0000 C   0  0  0  0  0  0  0  0  0  0  0  0
    0.3792   -2.5667    0.0000 C   0  0  0  0  0  0  0  0  0  0  0  0
   -0.8458   -3.2667    0.0000 C   0  0  0  0  0  0  0  0  0  0  0  0
    2.2917   -0.9417    0.0000 O   0  0  0  0  0  0  0  0  0  0  0  0
   -0.2250   -1.5000    0.0000 C   0  0  0  0  0  0  0  0  0  0  0  0
    0.3917   -1.1500    0.0000 C   0  0  0  0  0  0  0  0  0  0  0  0
    2.0875   -1.8750    0.0000 C   0  0  0  0  0  0  0  0  0  0  0  0
   -1.4583   -2.2042    0.0000 C   0  0  0  0  0  0  0  0  0  0  0  0
    1.6667   -2.4417    0.0000 C   0  0  0  0  0  0  0  0  0  0  0  0
    3.0000   -0.9417    0.0000 C   0  0  0  0  0  0  0  0  0  0  0  0
   -1.4583   -3.6250    0.0000 C   0  0  0  0  0  0  0  0  0  0  0  0
    1.6750   -0.5917    0.0000 C   0  0  0  0  0  0  0  0  0  0  0  0
    0.3792   -3.2750    0.0000 C   0  0  0  0  0  0  0  0  0  0  0  0
   -2.0625   -2.5625    0.0000 C   0  0  0  0  0  0  0  0  0  0  0  0
   -2.0625   -3.2667    0.0000 C   0  0  0  0  0  0  0  0  0  0  0  0
   -0.2333   -3.6250    0.0000 C   0  0  0  0  0  0  0  0  0  0  0  0
    3.3542   -1.5542    0.0000 O   0  0  0  0  0  0  0  0  0  0  0  0
   -0.2333   -2.9167    0.0000 F   0  0  0  0  0  0  0  0  0  0  0  0
    3.3542   -0.3250    0.0000 C   0  0  0  0  0  0  0  0  0  0  0  0
    1.0542   -0.2417    0.0000 O   0  0  0  0  0  0  0  0  0  0  0  0
   -2.6833   -3.6167    0.0000 O   0  0  0  0  0  0  0  0  0  0  0  0
    1.0000   -0.8042    0.0000 C   0  0  0  0  0  0  0  0  0  0  0  0
   -0.8375   -1.1417    0.0000 O   0  0  0  0  0  0  0  0  0  0  0  0
   -0.8458   -1.8542    0.0000 C   0  0  0  0  0  0  0  0  0  0  0  0
    2.2792   -0.2292    0.0000 C   0  0  0  0  0  0  0  0  0  0  0  0
    2.7917   -1.8792    0.0000 C   0  0  0  0  0  0  0  0  0  0  0  0
    2.2792    0.4833    0.0000 O   0  0  0  0  0  0  0  0  0  0  0  0
    2.9917    0.2833    0.0000 C   0  0  0  0  0  0  0  0  0  0  0  0
    4.0542   -0.3292    0.0000 C   0  0  0  0  0  0  0  0  0  0  0  0
    4.4125    0.2833    0.0000 C   0  0  0  0  0  0  0  0  0  0  0  0
    3.3417    0.8958    0.0000 C   0  0  0  0  0  0  0  0  0  0  0  0
    4.0542    0.9000    0.0000 C   0  0  0  0  0  0  0  0  0  0  0  0
    0.9917   -2.9250    0.0000 H   0  0  0  0  0  0  0  0  0  0  0  0
    0.3792   -1.8542    0.0000 H   0  0  0  0  0  0  0  0  0  0  0  0
  2  1  1  0
  3  9  1  0
  4  3  1  0
  5  1  1  0
  6  5  1  0
  7  4  1  0
  2  8  1  6
  9 10  1  0
 10  1  1  0
 11  2  1  0
 12  4  1  0
 13  5  1  0
 14  8  1  0
 15  7  2  0
 16  2  1  0
 17  6  1  0
 18 12  2  0
 19 18  1  0
 20 17  1  0
 21 14  2  0
  3 22  1  6
 23 14  1  0
 24 16  2  0
 25 19  2  0
  1 26  1  1
  9 27  1  1
  4 28  1  1
 29 16  1  0
 11 30  1  1
 31 29  1  0
 32 23  1  0
 33 23  2  0
 34 33  1  0
 35 32  2  0
 36 34  2  0
  5 37  1  6
  6 38  1  1
 11 13  1  0
  3  6  1  0
 20  7  1  0
 19 15  1  0
 36 35  1  0
M  END
> <chembl_id>
CHEMBL1200376

> <chembl_pref_name>
BETAMETHASONE BENZOATE
