
     RDKit          2D

 28 30  0  0  0  0  0  0  0  0999 V2000
   -6.2912  -65.9707    0.0000 C   0  0  0  0  0  0  0  0  0  0  0  0
   -7.0057  -66.3832    0.0000 C   0  0  0  0  0  0  0  0  0  0  0  0
   -7.0057  -67.2082    0.0000 C   0  0  0  0  0  0  0  0  0  0  0  0
   -6.2912  -67.6207    0.0000 C   0  0  0  0  0  0  0  0  0  0  0  0
   -5.5767  -67.2082    0.0000 C   0  0  0  0  0  0  0  0  0  0  0  0
   -5.5767  -66.3832    0.0000 C   0  0  0  0  0  0  0  0  0  0  0  0
   -6.2912  -65.1457    0.0000 C   0  0  0  0  0  0  0  0  0  0  0  0
   -5.5767  -64.7332    0.0000 C   0  0  0  0  0  0  0  0  0  0  0  0
   -5.5767  -63.9082    0.0000 C   0  0  0  0  0  0  0  0  0  0  0  0
   -6.2912  -63.4957    0.0000 C   0  0  0  0  0  0  0  0  0  0  0  0
   -7.0057  -63.9082    0.0000 C   0  0  0  0  0  0  0  0  0  0  0  0
   -7.0057  -64.7332    0.0000 C   0  0  0  0  0  0  0  0  0  0  0  0
   -6.2912  -62.6707    0.0000 C   0  0  0  0  0  0  0  0  0  0  0  0
   -7.0057  -62.2582    0.0000 O   0  0  0  0  0  0  0  0  0  0  0  0
   -5.5767  -62.2582    0.0000 C   0  0  0  0  0  0  0  0  0  0  0  0
   -5.5767  -61.4332    0.0000 N   0  0  0  0  0  0  0  0  0  0  0  0
   -4.8622  -62.6707    0.0000 O   0  0  0  0  0  0  0  0  0  0  0  0
   -4.1478  -62.2582    0.0000 C   0  0  0  0  0  0  0  0  0  0  0  0
   -3.4333  -62.6707    0.0000 C   0  0  0  0  0  0  0  0  0  0  0  0
   -4.8622  -61.0207    0.0000 C   0  0  0  0  0  0  0  0  0  0  0  0
   -4.1478  -61.4332    0.0000 C   0  0  0  0  0  0  0  0  0  0  0  0
   -3.4333  -61.0207    0.0000 C   0  0  0  0  0  0  0  0  0  0  0  0
   -3.4333  -60.1957    0.0000 C   0  0  0  0  0  0  0  0  0  0  0  0
   -4.1478  -59.7831    0.0000 C   0  0  0  0  0  0  0  0  0  0  0  0
   -4.8623  -60.1956    0.0000 C   0  0  0  0  0  0  0  0  0  0  0  0
   -2.7188  -59.7832    0.0000 C   0  0  0  0  0  0  0  0  0  0  0  0
   -2.7188  -58.9582    0.0000 O   0  0  0  0  0  0  0  0  0  0  0  0
   -2.0044  -60.1957    0.0000 O   0  0  0  0  0  0  0  0  0  0  0  0
  1  2  2  0
  1  6  1  0
  2  3  1  0
  3  4  2  0
  4  5  1  0
  5  6  2  0
  1  7  1  0
  7  8  2  0
  7 12  1  0
  8  9  1  0
  9 10  2  0
 10 11  1  0
 11 12  2  0
 10 13  1  0
 13 14  2  0
 13 15  1  0
 15 16  1  0
 15 17  1  0
 17 18  1  0
 18 19  1  0
 16 20  1  0
 20 21  1  0
 20 25  2  0
 21 22  2  0
 22 23  1  0
 23 24  2  0
 24 25  1  0
 23 26  1  0
 26 27  1  0
 26 28  2  0
M  END
> <chembl_id>
CHEMBL1909289

> <chembl_pref_name>
XENAZOIC ACID
