
     RDKit          2D

 34 36  0  0  1  0  0  0  0  0999 V2000
   -1.2250   -0.4042    0.0000 N   0  0  0  0  0  0  0  0  0  0  0  0
    3.7750   -1.8417    0.0000 S   0  0  0  0  0  0  0  0  0  0  0  0
   -1.8333   -0.8250    0.0000 C   0  0  0  0  0  0  0  0  0  0  0  0
    4.3792   -1.4542    0.0000 N   0  0  0  0  0  0  0  0  0  0  0  0
   -2.3958   -0.3667    0.0000 C   0  0  0  0  0  0  0  0  0  0  0  0
   -0.5458   -0.7667    0.0000 C   0  0  0  0  0  0  0  0  0  0  0  0
   -1.4833    0.2750    0.0000 C   0  0  0  0  0  0  0  0  0  0  0  0
   -2.1458    0.2750    0.0000 C   0  0  0  0  0  0  0  0  0  0  0  0
    5.0125   -1.8417    0.0000 C   0  0  0  0  0  0  0  0  0  0  0  0
    3.1292   -1.4542    0.0000 C   0  0  0  0  0  0  0  0  0  0  0  0
    4.1500   -2.4917    0.0000 O   0  0  0  0  0  0  0  0  0  0  0  0
    3.3917   -2.4917    0.0000 O   0  0  0  0  0  0  0  0  0  0  0  0
    5.6417   -1.4542    0.0000 N   0  0  0  0  0  0  0  0  0  0  0  0
   -1.8333   -1.4917    0.0000 O   0  0  0  0  0  0  0  0  0  0  0  0
   -0.5458   -1.4042    0.0000 O   0  0  0  0  0  0  0  0  0  0  0  0
    5.0125   -2.5417    0.0000 O   0  0  0  0  0  0  0  0  0  0  0  0
    0.0667   -0.4042    0.0000 N   0  0  0  0  0  0  0  0  0  0  0  0
    3.1292   -0.7667    0.0000 C   0  0  0  0  0  0  0  0  0  0  0  0
    2.5083   -1.8417    0.0000 C   0  0  0  0  0  0  0  0  0  0  0  0
    6.2542   -1.8417    0.0000 C   0  0  0  0  0  0  0  0  0  0  0  0
   -2.9583   -0.6625    0.0000 C   0  0  0  0  0  0  0  0  0  0  0  0
    1.9125   -1.4542    0.0000 C   0  0  0  0  0  0  0  0  0  0  0  0
    2.5083   -0.4042    0.0000 C   0  0  0  0  0  0  0  0  0  0  0  0
    1.9125   -0.7667    0.0000 C   0  0  0  0  0  0  0  0  0  0  0  0
   -2.6250    0.6708    0.0000 C   0  0  0  0  0  0  0  0  0  0  0  0
    0.6875   -0.7667    0.0000 C   0  0  0  0  0  0  0  0  0  0  0  0
    6.8875   -1.4542    0.0000 C   0  0  0  0  0  0  0  0  0  0  0  0
    6.2542   -2.5417    0.0000 C   0  0  0  0  0  0  0  0  0  0  0  0
    7.5042   -1.8125    0.0000 C   0  0  0  0  0  0  0  0  0  0  0  0
    6.8875   -2.8917    0.0000 C   0  0  0  0  0  0  0  0  0  0  0  0
    7.5042   -2.5417    0.0000 C   0  0  0  0  0  0  0  0  0  0  0  0
    1.3042   -0.4042    0.0000 C   0  0  0  0  0  0  0  0  0  0  0  0
    8.1167   -2.8917    0.0000 C   0  0  0  0  0  0  0  0  0  0  0  0
   -3.5625   -0.4042    0.0000 C   0  0  0  0  0  0  0  0  0  0  0  0
  2 10  1  0
  3  1  1  0
  4  2  1  0
  5  3  1  0
  6  1  1  0
  7  1  1  0
  8  7  1  0
  9  4  1  0
 10 18  2  0
 11  2  2  0
 12  2  2  0
 13  9  1  0
 14  3  2  0
 15  6  2  0
 16  9  2  0
 17  6  1  0
 18 23  1  0
 19 22  2  0
 20 13  1  1
 21  5  1  0
 22 24  1  0
 23 24  2  0
 24 32  1  0
 25  8  1  0
 26 17  1  0
 27 20  1  0
 28 20  1  0
 29 27  1  0
 30 28  1  0
 31 30  1  0
 32 26  1  0
 31 33  1  6
 34 21  1  0
  5  8  2  0
 19 10  1  0
 29 31  1  0
M  END
> <chembl_id>
CHEMBL1481

> <chembl_pref_name>
GLIMEPIRIDE
