
     RDKit          2D

 10  6  0  0  0  0  0  0  0  0999 V2000
    2.4375   -2.9196    0.0000 S   0  0  0  0  0  0  0  0  0  0  0  0
    2.4375   -2.0946    0.0000 S   0  0  0  0  0  0  0  0  0  0  0  0
    2.4375   -3.7446    0.0000 O   0  0  0  0  0  0  0  0  0  0  0  0
    3.2625   -2.9196    0.0000 O   0  0  0  0  0  0  0  0  0  0  0  0
    1.6125   -2.9196    0.0000 O   0  0  0  0  0  0  0  0  0  0  0  0
   -3.5089   -1.3393    0.0000 K   0  0  0  0  0 15  0  0  0  0  0  0
   -3.4018   -2.5982    0.0000 K   0  0  0  0  0 15  0  0  0  0  0  0
   -0.5625   -1.8750    0.0000 K   0  0  0  0  0  1  0  0  0  0  0  0
    0.1520   -1.4625    0.0000 S   0  0  0  0  0  0  0  0  0  0  0  0
    0.8664   -1.8750    0.0000 K   0  0  0  0  0  1  0  0  0  0  0  0
  1  2  2  0
  1  3  2  0
  1  4  1  0
  1  5  1  0
  8  9  1  0
  9 10  1  0
M  CHG  4   4  -1   5  -1   6   1   7   1
M  END
> <chembl_id>
CHEMBL3989545

> <chembl_pref_name>
POTASH, SULFURATED
