
     RDKit          2D

 24 26  0  0  1  0  0  0  0  0999 V2000
    2.1333   -7.1083    0.0000 C   0  0  0  0  0  0  0  0  0  0  0  0
    1.5625   -7.5292    0.0000 N   0  0  0  0  0  0  0  0  0  0  0  0
    2.7083   -7.5292    0.0000 O   0  0  0  0  0  0  0  0  0  0  0  0
    0.9458   -7.1750    0.0000 C   0  0  0  0  0  0  0  0  0  0  0  0
   -0.2792   -6.4625    0.0000 C   0  0  0  0  0  0  0  0  0  0  0  0
    0.3333   -7.5292    0.0000 C   0  0  0  0  0  0  0  0  0  0  0  0
   -0.2792   -7.1750    0.0000 C   0  0  0  0  0  0  0  0  0  0  0  0
   -0.8917   -6.1125    0.0000 N   0  0  0  0  0  0  0  0  0  0  0  0
    2.4875   -8.2000    0.0000 C   0  0  0  0  0  0  0  0  0  0  0  0
    1.7792   -8.2000    0.0000 C   0  0  0  0  0  0  0  0  0  0  0  0
    0.3333   -6.1083    0.0000 C   0  0  0  0  0  0  0  0  0  0  0  0
    2.1333   -6.4000    0.0000 O   0  0  0  0  0  0  0  0  0  0  0  0
    4.3250   -8.5542    0.0000 C   0  0  0  0  0  0  0  0  0  0  0  0
    0.9458   -6.4625    0.0000 C   0  0  0  0  0  0  0  0  0  0  0  0
    3.7125   -8.2000    0.0000 N   0  0  0  0  0  0  0  0  0  0  0  0
    4.3250   -9.2625    0.0000 O   0  0  0  0  0  0  0  0  0  0  0  0
   -2.1125   -5.4000    0.0000 O   0  0  0  0  0  0  0  0  0  0  0  0
    3.1000   -8.5542    0.0000 C   0  0  0  0  0  0  0  0  0  0  0  0
   -0.8917   -7.5292    0.0000 F   0  0  0  0  0  0  0  0  0  0  0  0
   -0.8875   -5.4042    0.0000 C   0  0  0  0  0  0  0  0  0  0  0  0
   -1.5000   -6.4708    0.0000 C   0  0  0  0  0  0  0  0  0  0  0  0
    4.9375   -8.2042    0.0000 C   0  0  0  0  0  0  0  0  0  0  0  0
   -1.5000   -5.0500    0.0000 C   0  0  0  0  0  0  0  0  0  0  0  0
   -2.1167   -6.1125    0.0000 C   0  0  0  0  0  0  0  0  0  0  0  0
  2  1  1  0
  3  1  1  0
  4  2  1  0
  5 11  1  0
  6  4  2  0
  7  6  1  0
  8  5  1  0
  9  3  1  0
 10  2  1  0
 11 14  2  0
 12  1  2  0
 13 15  1  0
 14  4  1  0
 15 18  1  0
 16 13  2  0
 17 23  1  0
  9 18  1  1
 19  7  1  0
 20  8  1  0
 21  8  1  0
 22 13  1  0
 23 20  1  0
 24 21  1  0
  9 10  1  0
  7  5  2  0
 24 17  1  0
M  END
> <chembl_id>
CHEMBL126

> <chembl_pref_name>
LINEZOLID
