
     RDKit          2D

 28 32  0  0  0  0  0  0  0  0999 V2000
    3.6923   -6.4688    0.0000 F   0  0  0  0  0  0  0  0  0  0  0  0
    3.6923   -5.6438    0.0000 C   0  0  0  0  0  0  0  0  0  0  0  0
    4.4068   -5.2313    0.0000 C   0  0  0  0  0  0  0  0  0  0  0  0
    3.6923   -3.9938    0.0000 C   0  0  0  0  0  0  0  0  0  0  0  0
    4.4068   -4.4063    0.0000 C   0  0  0  0  0  0  0  0  0  0  0  0
    2.9778   -5.2313    0.0000 C   0  0  0  0  0  0  0  0  0  0  0  0
    2.9778   -4.4063    0.0000 C   0  0  0  0  0  0  0  0  0  0  0  0
    2.9778   -2.7563    0.0000 C   0  0  0  0  0  0  0  0  0  0  0  0
    1.5097   -2.8333    0.0000 N   0  0  0  0  0  0  0  0  0  0  0  0
    2.2634   -3.1688    0.0000 C   0  0  0  0  0  0  0  0  0  0  0  0
    2.1771   -3.9893    0.0000 N   0  0  0  0  0  0  0  0  0  0  0  0
    2.2634   -1.5188    0.0000 N   0  0  0  0  0  0  0  0  0  0  0  0
    2.9778   -1.9313    0.0000 C   0  0  0  0  0  0  0  0  0  0  0  0
    2.9778   -0.2813    0.0000 C   0  0  0  0  0  0  0  0  0  0  0  0
    3.6923   -0.6938    0.0000 C   0  0  0  0  0  0  0  0  0  0  0  0
    2.2634   -0.6938    0.0000 N   0  0  0  0  0  0  0  0  0  0  0  0
    2.9778    0.5437    0.0000 O   0  0  0  0  0  0  0  0  0  0  0  0
    4.4068   -0.2813    0.0000 C   0  0  0  0  0  0  0  0  0  0  0  0
    5.1213   -0.6938    0.0000 C   0  0  0  0  0  0  0  0  0  0  0  0
    5.8357   -0.2813    0.0000 F   0  0  0  0  0  0  0  0  0  0  0  0
    5.1213   -1.5188    0.0000 C   0  0  0  0  0  0  0  0  0  0  0  0
    4.4068   -1.9313    0.0000 C   0  0  0  0  0  0  0  0  0  0  0  0
    4.4068   -2.7563    0.0000 N   0  0  0  0  0  0  0  0  0  0  0  0
    3.6923   -1.5188    0.0000 C   0  0  0  0  0  0  0  0  0  0  0  0
    3.6923   -3.1688    0.0000 C   0  0  0  0  0  0  0  0  0  0  0  0
    1.3702   -4.1608    0.0000 C   0  0  0  0  0  0  0  0  0  0  0  0
    0.9577   -3.4464    0.0000 N   0  0  0  0  0  0  0  0  0  0  0  0
    1.3382   -2.0263    0.0000 C   0  0  0  0  0  0  0  0  0  0  0  0
  1  2  1  0
  2  6  2  0
  3  2  1  0
  3  5  2  0
  4  5  1  0
 25  4  1  6
  6  7  1  0
  7  4  2  0
  8 10  1  1
  8 25  1  0
  9 10  1  0
  9 28  1  0
  9 27  1  0
 10 11  2  0
 12 13  2  0
 13 24  1  0
 13  8  1  0
 14 15  1  0
 14 17  2  0
 15 18  2  0
 15 24  1  0
 16 14  1  0
 16 12  1  0
 19 18  1  0
 19 20  1  0
 21 19  2  0
 22 23  1  0
 22 21  1  0
 24 22  2  0
 25 23  1  0
 26 11  1  0
 27 26  2  0
M  END
> <chembl_id>
CHEMBL3137320

> <chembl_pref_name>
TALAZOPARIB
