
     RDKit          2D

 10  9  0  0  1  0  0  0  0  0999 V2000
    0.5792   -3.5292    0.0000 C   0  0  0  0  0  0  0  0  0  0  0  0
    1.1875   -3.1792    0.0000 C   0  0  0  0  0  0  0  0  0  0  0  0
   -0.0458   -3.1875    0.0000 C   0  0  0  0  0  0  0  0  0  0  0  0
    1.8042   -3.5250    0.0000 C   0  0  0  0  0  0  0  0  0  0  0  0
   -0.0458   -2.4750    0.0000 O   0  0  0  0  0  0  0  0  0  0  0  0
    1.8167   -4.2292    0.0000 O   0  0  0  0  0  0  0  0  0  0  0  0
    0.5875   -4.2417    0.0000 O   0  0  0  0  0  0  0  0  0  0  0  0
    1.1792   -2.4625    0.0000 O   0  0  0  0  0  0  0  0  0  0  0  0
    2.4167   -3.1625    0.0000 O   0  0  0  0  0  0  0  0  0  0  0  0
   -0.6583   -3.5375    0.0000 O   0  0  0  0  0  0  0  0  0  0  0  0
  2  1  1  0
  3  1  1  0
  4  2  1  0
  5  3  2  0
  6  4  2  0
  1  7  1  6
  2  8  1  6
  9  4  1  0
 10  3  1  0
M  END
> <chembl_id>
CHEMBL1200861

> <chembl_pref_name>
TARTARIC ACID
