
     RDKit          2D

 38 41  0  0  0  0  0  0  0  0999 V2000
    3.6375  -16.6750    0.0000 S   0  0  0  0  0  0  0  0  0  0  0  0
    3.9875  -16.0542    0.0000 O   0  0  0  0  0  0  0  0  0  0  0  0
    3.2792  -16.0542    0.0000 O   0  0  0  0  0  0  0  0  0  0  0  0
    4.2500  -17.0292    0.0000 O   0  0  0  0  0  0  0  0  0  0  0  0
    3.0250  -17.0292    0.0000 C   0  0  0  0  0  0  0  0  0  0  0  0
    0.0167  -14.8292    0.0000 C   0  0  0  0  0  0  0  0  0  0  0  0
    0.0167  -15.5500    0.0000 N   0  0  0  0  0  0  0  0  0  0  0  0
   -1.2208  -15.5500    0.0000 C   0  0  0  0  0  0  0  0  0  0  0  0
   -0.6083  -15.9125    0.0000 C   0  0  0  0  0  0  0  0  0  0  0  0
   -0.6083  -14.4667    0.0000 N   0  0  0  0  0  0  0  0  0  0  0  0
    3.0792  -13.7542    0.0000 C   0  0  0  0  0  0  0  0  0  0  0  0
   -1.2208  -14.8292    0.0000 C   0  0  0  0  0  0  0  0  0  0  0  0
    2.4792  -13.4042    0.0000 C   0  0  0  0  0  0  0  0  0  0  0  0
    3.7042  -13.4167    0.0000 O   0  0  0  0  0  0  0  0  0  0  0  0
    0.6417  -14.4667    0.0000 N   0  0  0  0  0  0  0  0  0  0  0  0
    1.8667  -13.7542    0.0000 N   0  0  0  0  0  0  0  0  0  0  0  0
   -1.8333  -15.9125    0.0000 C   0  0  0  0  0  0  0  0  0  0  0  0
   -1.8333  -14.4667    0.0000 C   0  0  0  0  0  0  0  0  0  0  0  0
    3.6792  -14.8167    0.0000 O   0  0  0  0  0  0  0  0  0  0  0  0
    4.3042  -13.7667    0.0000 C   0  0  0  0  0  0  0  0  0  0  0  0
   -2.4583  -15.5500    0.0000 C   0  0  0  0  0  0  0  0  0  0  0  0
   -2.4583  -14.8292    0.0000 C   0  0  0  0  0  0  0  0  0  0  0  0
    3.0667  -14.4667    0.0000 C   0  0  0  0  0  0  0  0  0  0  0  0
    4.2917  -14.4667    0.0000 C   0  0  0  0  0  0  0  0  0  0  0  0
    0.6417  -13.7667    0.0000 C   0  0  0  0  0  0  0  0  0  0  0  0
    1.2542  -14.8167    0.0000 C   0  0  0  0  0  0  0  0  0  0  0  0
    1.2417  -13.4167    0.0000 C   0  0  0  0  0  0  0  0  0  0  0  0
    1.8667  -14.4667    0.0000 C   0  0  0  0  0  0  0  0  0  0  0  0
    2.4792  -12.7042    0.0000 O   0  0  0  0  0  0  0  0  0  0  0  0
   -0.6083  -16.6125    0.0000 N   0  0  0  0  0  0  0  0  0  0  0  0
   -3.0833  -15.9125    0.0000 O   0  0  0  0  0  0  0  0  0  0  0  0
   -3.0833  -14.4667    0.0000 O   0  0  0  0  0  0  0  0  0  0  0  0
    4.9417  -13.4250    0.0000 C   0  0  0  0  0  0  0  0  0  0  0  0
    4.9167  -14.8292    0.0000 C   0  0  0  0  0  0  0  0  0  0  0  0
   -3.6875  -14.8125    0.0000 C   0  0  0  0  0  0  0  0  0  0  0  0
   -3.6833  -15.5500    0.0000 C   0  0  0  0  0  0  0  0  0  0  0  0
    5.5542  -13.7875    0.0000 C   0  0  0  0  0  0  0  0  0  0  0  0
    5.5417  -14.4875    0.0000 C   0  0  0  0  0  0  0  0  0  0  0  0
  2  1  2  0
  3  1  2  0
  4  1  1  0
  5  1  1  0
  7  6  1  0
  8 12  2  0
  9  7  2  0
 10  6  2  0
 11 13  1  0
 12 10  1  0
 13 16  1  0
 14 11  1  0
 15  6  1  0
 16 27  1  0
 17  8  1  0
 18 12  1  0
 19 23  1  0
 20 14  1  0
 21 17  2  0
 22 18  2  0
 23 11  1  0
 24 19  1  0
 25 15  1  0
 26 15  1  0
 27 25  1  0
 28 26  1  0
 29 13  2  0
 30  9  1  0
 31 21  1  0
 32 22  1  0
 33 20  1  0
 34 24  1  0
 35 32  1  0
 36 31  1  0
 37 33  2  0
 38 34  2  0
  9  8  1  0
 28 16  1  0
 22 21  1  0
 20 24  2  0
 37 38  1  0
M  END
> <chembl_id>
CHEMBL1200561

> <chembl_pref_name>
DOXAZOSIN MESYLATE
