
     RDKit          2D

 94 98  0  0  0  0  0  0  0  0999 V2000
    5.6125   -6.6750    0.0000 S   0  0  0  0  0  0  0  0  0  0  0  0
    4.3875   -3.8458    0.0000 N   0  0  0  0  0  0  0  0  0  0  0  0
    5.0000   -3.4875    0.0000 C   0  0  0  0  0  0  0  0  0  0  0  0
    9.2958   -2.4333    0.0000 C   0  0  0  0  0  0  0  0  0  0  0  0
    3.7750   -3.4875    0.0000 C   0  0  0  0  0  0  0  0  0  0  0  0
    1.9333   -3.8458    0.0000 C   0  0  0  0  0  0  0  0  0  0  0  0
   10.5250   -5.9750    0.0000 C   0  0  0  0  0  0  0  0  0  0  0  0
    9.2958   -3.8500    0.0000 C   0  0  0  0  0  0  0  0  0  0  0  0
   -1.7500   -3.8500    0.0000 C   0  0  0  0  0  0  0  0  0  0  0  0
   -2.9375   -3.9125    0.0000 N   0  0  0  0  0  0  0  0  0  0  0  0
    0.0875   -3.4875    0.0000 C   0  0  0  0  0  0  0  0  0  0  0  0
   10.5125   -4.5500    0.0000 C   0  0  0  0  0  0  0  0  0  0  0  0
   10.4375   -2.4500    0.0000 N   0  0  0  0  0  0  0  0  0  0  0  0
    5.6125   -3.8458    0.0000 C   0  0  0  0  0  0  0  0  0  0  0  0
    0.7000   -3.8458    0.0000 N   0  0  0  0  0  0  0  0  0  0  0  0
   11.1250   -4.9000    0.0000 N   0  0  0  0  0  0  0  0  0  0  0  0
    2.5458   -3.4875    0.0000 N   0  0  0  0  0  0  0  0  0  0  0  0
   10.5250   -6.6833    0.0000 N   0  0  0  0  0  0  0  0  0  0  0  0
    1.3125   -3.4875    0.0000 C   0  0  0  0  0  0  0  0  0  0  0  0
   11.1375   -5.6125    0.0000 C   0  0  0  0  0  0  0  0  0  0  0  0
    9.8625   -2.8583    0.0000 C   0  0  0  0  0  0  0  0  0  0  0  0
   -1.1375   -3.4875    0.0000 N   0  0  0  0  0  0  0  0  0  0  0  0
    9.9042   -3.4958    0.0000 N   0  0  0  0  0  0  0  0  0  0  0  0
    1.3125   -2.7833    0.0000 C   0  0  0  0  0  0  0  0  0  0  0  0
   11.7500   -5.9583    0.0000 C   0  0  0  0  0  0  0  0  0  0  0  0
    8.6750   -3.4958    0.0000 C   0  0  0  0  0  0  0  0  0  0  0  0
    3.1583   -3.8458    0.0000 C   0  0  0  0  0  0  0  0  0  0  0  0
   -2.3625   -3.5000    0.0000 C   0  0  0  0  0  0  0  0  0  0  0  0
    9.9125   -7.0333    0.0000 C   0  0  0  0  0  0  0  0  0  0  0  0
   -3.5125   -3.5000    0.0000 C   0  0  0  0  0  0  0  0  0  0  0  0
    9.3000   -6.6750    0.0000 C   0  0  0  0  0  0  0  0  0  0  0  0
    9.5250   -1.7625    0.0000 C   0  0  0  0  0  0  0  0  0  0  0  0
    8.6750   -2.7875    0.0000 C   0  0  0  0  0  0  0  0  0  0  0  0
    8.0625   -3.8500    0.0000 N   0  0  0  0  0  0  0  0  0  0  0  0
   -0.5250   -3.8458    0.0000 C   0  0  0  0  0  0  0  0  0  0  0  0
   10.5125   -3.8375    0.0000 C   0  0  0  0  0  0  0  0  0  0  0  0
   12.3583   -5.5958    0.0000 C   0  0  0  0  0  0  0  0  0  0  0  0
    1.9333   -2.4250    0.0000 C   0  0  0  0  0  0  0  0  0  0  0  0
    7.4500   -3.4958    0.0000 C   0  0  0  0  0  0  0  0  0  0  0  0
    6.2250   -3.4958    0.0000 N   0  0  0  0  0  0  0  0  0  0  0  0
    5.6125   -5.9708    0.0000 O   0  0  0  0  0  0  0  0  0  0  0  0
   10.2333   -1.7750    0.0000 C   0  0  0  0  0  0  0  0  0  0  0  0
    5.2583   -7.2875    0.0000 O   0  0  0  0  0  0  0  0  0  0  0  0
    4.9083   -6.6750    0.0000 O   0  0  0  0  0  0  0  0  0  0  0  0
    0.0875   -5.6125    0.0000 C   0  0  0  0  0  0  0  0  0  0  0  0
    3.7750   -2.7833    0.0000 O   0  0  0  0  0  0  0  0  0  0  0  0
    9.9042   -5.6250    0.0000 O   0  0  0  0  0  0  0  0  0  0  0  0
    1.9333   -4.5500    0.0000 O   0  0  0  0  0  0  0  0  0  0  0  0
    9.2958   -4.5583    0.0000 O   0  0  0  0  0  0  0  0  0  0  0  0
   -1.7417   -4.5583    0.0000 O   0  0  0  0  0  0  0  0  0  0  0  0
    0.0875   -2.7833    0.0000 O   0  0  0  0  0  0  0  0  0  0  0  0
    9.9000   -4.9000    0.0000 O   0  0  0  0  0  0  0  0  0  0  0  0
    3.1583   -4.5500    0.0000 C   0  0  0  0  0  0  0  0  0  0  0  0
    9.9125   -7.7375    0.0000 C   0  0  0  0  0  0  0  0  0  0  0  0
    5.6125   -4.5500    0.0000 O   0  0  0  0  0  0  0  0  0  0  0  0
    9.3083   -5.9625    0.0000 O   0  0  0  0  0  0  0  0  0  0  0  0
   -4.1250   -3.8500    0.0000 O   0  0  0  0  0  0  0  0  0  0  0  0
    6.2250   -7.0250    0.0000 O   0  0  0  0  0  0  0  0  0  0  0  0
    5.0000   -2.7833    0.0000 C   0  0  0  0  0  0  0  0  0  0  0  0
    1.9333   -1.7208    0.0000 O   0  0  0  0  0  0  0  0  0  0  0  0
   12.3583   -4.8875    0.0000 O   0  0  0  0  0  0  0  0  0  0  0  0
    7.4500   -2.7875    0.0000 O   0  0  0  0  0  0  0  0  0  0  0  0
   -0.5250   -5.9708    0.0000 O   0  0  0  0  0  0  0  0  0  0  0  0
   -2.5875   -2.8250    0.0000 C   0  0  0  0  0  0  0  0  0  0  0  0
   -0.5250   -4.5500    0.0000 C   0  0  0  0  0  0  0  0  0  0  0  0
    6.8375   -3.8500    0.0000 C   0  0  0  0  0  0  0  0  0  0  0  0
    8.6875   -7.0250    0.0000 N   0  0  0  0  0  0  0  0  0  0  0  0
   -3.2875   -2.8250    0.0000 C   0  0  0  0  0  0  0  0  0  0  0  0
    0.0875   -4.9083    0.0000 C   0  0  0  0  0  0  0  0  0  0  0  0
    4.9958   -5.6125    0.0000 C   0  0  0  0  0  0  0  0  0  0  0  0
    0.7000   -5.9708    0.0000 N   0  0  0  0  0  0  0  0  0  0  0  0
    3.7750   -4.9083    0.0000 C   0  0  0  0  0  0  0  0  0  0  0  0
   11.1250   -3.4875    0.0000 C   0  0  0  0  0  0  0  0  0  0  0  0
   12.9708   -5.9500    0.0000 O   0  0  0  0  0  0  0  0  0  0  0  0
    2.5458   -2.7833    0.0000 O   0  0  0  0  0  0  0  0  0  0  0  0
    9.2958   -8.0875    0.0000 C   0  0  0  0  0  0  0  0  0  0  0  0
   12.3583   -3.4875    0.0000 S   0  0  0  0  0  0  0  0  0  0  0  0
    3.7750   -5.6125    0.0000 C   0  0  0  0  0  0  0  0  0  0  0  0
    4.3875   -4.5500    0.0000 C   0  0  0  0  0  0  0  0  0  0  0  0
    4.9958   -4.9083    0.0000 C   0  0  0  0  0  0  0  0  0  0  0  0
    4.3875   -5.9708    0.0000 C   0  0  0  0  0  0  0  0  0  0  0  0
    5.6125   -2.4250    0.0000 O   0  0  0  0  0  0  0  0  0  0  0  0
    9.1750   -1.1375    0.0000 C   0  0  0  0  0  0  0  0  0  0  0  0
   11.7375   -3.8458    0.0000 C   0  0  0  0  0  0  0  0  0  0  0  0
   10.6000   -1.1708    0.0000 C   0  0  0  0  0  0  0  0  0  0  0  0
    4.3875   -2.4250    0.0000 C   0  0  0  0  0  0  0  0  0  0  0  0
   12.9708   -3.8375    0.0000 C   0  0  0  0  0  0  0  0  0  0  0  0
    9.2875   -8.8000    0.0000 C   0  0  0  0  0  0  0  0  0  0  0  0
    8.6875   -7.7375    0.0000 C   0  0  0  0  0  0  0  0  0  0  0  0
    9.5458   -0.5375    0.0000 C   0  0  0  0  0  0  0  0  0  0  0  0
   10.2583   -0.5500    0.0000 C   0  0  0  0  0  0  0  0  0  0  0  0
    8.0708   -8.0875    0.0000 C   0  0  0  0  0  0  0  0  0  0  0  0
    8.6750   -9.1500    0.0000 C   0  0  0  0  0  0  0  0  0  0  0  0
    8.0708   -8.7958    0.0000 C   0  0  0  0  0  0  0  0  0  0  0  0
  2  5  1  0
  3  2  1  1
  4 33  1  0
  5 27  1  0
  6 17  1  0
  7 20  1  0
  8 26  1  0
  9 22  1  0
 10 28  1  0
 11 15  1  0
 12 36  1  0
 13 21  1  0
 14  3  1  0
 19 15  1  1
 16 12  1  0
 27 17  1  6
 18  7  1  0
 19  6  1  0
 20 16  1  1
 21  4  2  0
 35 22  1  6
 23  8  1  0
 19 24  1  0
 20 25  1  0
 26 34  1  1
 27 53  1  0
 28  9  1  1
 29 18  1  1
 30 10  1  0
 31 29  1  0
 32  4  1  0
 26 33  1  0
 34 39  1  0
 35 11  1  0
 36 23  1  1
 37 25  1  0
 38 24  1  0
 39 66  1  0
 40 14  1  0
 41  1  1  0
 42 32  2  0
 43  1  2  0
 44  1  2  0
 45 69  1  0
 46  5  2  0
 47  7  2  0
 48  6  2  0
 49  8  2  0
 50  9  2  0
 51 11  2  0
 52 12  2  0
 53 72  1  0
 29 54  1  0
 55 14  2  0
 56 31  2  0
 57 30  2  0
 58  1  1  0
 59  3  1  0
 60 38  2  0
 61 37  2  0
 62 39  2  0
 63 45  2  0
 64 28  1  0
 35 65  1  0
 66 40  1  0
 67 31  1  0
 68 64  1  0
 69 65  1  0
 70 41  1  0
 71 45  1  0
 72 79  2  0
 36 73  1  0
 74 37  1  0
 75 38  1  0
 76 54  1  0
 77 84  1  0
 78 81  2  0
 79 80  1  0
 80 70  2  0
 81 70  1  0
 59 82  1  1
 83 32  1  0
 84 73  1  0
 85 42  1  0
 86 59  1  0
 87 77  1  0
 88 76  1  0
 89 76  2  0
 90 83  2  0
 91 90  1  0
 92 89  1  0
 93 88  2  0
 94 93  1  0
 72 78  1  0
 68 30  1  0
 42 13  1  0
 91 85  2  0
 92 94  2  0
M  END
> <chembl_id>
CHEMBL1201355

> <chembl_pref_name>
CERULETIDE
