
     RDKit          2D

 16 16  0  0  0  0  0  0  0  0999 V2000
    7.3487   -9.0781    0.0000 N   0  0  0  0  0  0  0  0  0  0  0  0
    6.6270   -9.5044    0.0000 C   0  0  0  0  0  0  0  0  0  0  0  0
    5.9100   -8.2886    0.0000 C   0  0  0  0  0  0  0  0  0  0  0  0
    5.9148   -9.0879    0.0000 C   0  0  0  0  0  0  0  0  0  0  0  0
    6.6173   -7.8622    0.0000 N   0  0  0  0  0  0  0  0  0  0  0  0
    7.3439   -8.2788    0.0000 C   0  0  0  0  0  0  0  0  0  0  0  0
    8.0753   -7.8817    0.0000 S   0  0  0  0  0  0  0  0  0  0  0  0
    6.6318  -10.3328    0.0000 O   0  0  0  0  0  0  0  0  0  0  0  0
    5.1786   -7.8574    0.0000 O   0  0  0  0  0  0  0  0  0  0  0  0
    5.5176   -9.8193    0.0000 C   0  0  0  0  0  0  0  0  0  0  0  0
    5.0865   -9.1072    0.0000 C   0  0  0  0  0  0  0  0  0  0  0  0
    4.6941   -9.8242    0.0000 C   0  0  0  0  0  0  0  0  0  0  0  0
    5.9294  -10.5412    0.0000 C   0  0  0  0  0  0  0  0  0  0  0  0
    4.6747   -8.4145    0.0000 C   0  0  0  0  0  0  0  0  0  0  0  0
    4.2872  -10.5412    0.0000 C   0  0  0  0  0  0  0  0  0  0  0  0
    3.4637  -10.5459    0.0000 C   0  0  0  0  0  0  0  0  0  0  0  0
  2  1  1  0
  3  4  1  0
  4  2  1  0
  5  6  1  0
  6  1  1  0
  7  6  2  0
  8  2  2  0
  9  3  2  0
 10  4  1  0
 11  4  1  0
 12 10  1  0
 13 10  1  0
 14 11  1  0
 15 12  1  0
 16 15  1  0
  5  3  1  0
M  END
> <chembl_id>
CHEMBL441

> <chembl_pref_name>
THIOPENTAL
