
     RDKit          2D

 13 13  0  0  0  0  0  0  0  0999 V2000
   -2.5458   -9.4750    0.0000 C   0  0  0  0  0  0  0  0  0  0  0  0
   -3.3708   -9.4750    0.0000 C   0  0  0  0  0  0  0  0  0  0  0  0
   -2.2875   -8.6917    0.0000 C   0  0  0  0  0  0  0  0  0  0  0  0
   -3.6208   -8.6917    0.0000 C   0  0  0  0  0  0  0  0  0  0  0  0
   -2.9583   -8.2042    0.0000 O   0  0  0  0  0  0  0  0  0  0  0  0
   -4.3583   -8.3125    0.0000 C   0  0  0  0  0  0  0  0  0  0  0  0
   -1.5000   -8.4375    0.0000 O   0  0  0  0  0  0  0  0  0  0  0  0
   -2.0583  -10.1417    0.0000 O   0  0  0  0  0  0  0  0  0  0  0  0
   -3.8500  -10.1417    0.0000 O   0  0  0  0  0  0  0  0  0  0  0  0
   -5.0500   -8.7542    0.0000 O   0  0  0  0  0  0  0  0  0  0  0  0
   -3.6958   -7.0417    0.0000 O   0  0  0  0  0  0  0  0  0  0  0  0
   -4.3958   -7.4875    0.0000 C   0  0  0  0  0  0  0  0  0  0  0  0
   -4.2083   -9.2667    0.0000 H   0  0  0  0  0  0  0  0  0  0  0  0
  2  1  2  0
  3  1  1  0
  4  2  1  0
  5  3  1  0
  6  4  1  0
  7  3  2  0
  8  1  1  0
  9  2  1  0
  6 10  1  1
 11 12  1  0
 12  6  1  0
  4 13  1  6
  5  4  1  0
M  END
> <chembl_id>
CHEMBL196

> <chembl_pref_name>
ASCORBIC ACID
