
     RDKit          2D

 43 47  0  0  0  0  0  0  0  0999 V2000
    7.2000   -5.7667    0.0000 Br  0  0  0  0  0  0  0  0  0  0  0  0
    5.6417   -6.0167    0.0000 C   0  0  0  0  0  0  0  0  0  0  0  0
    3.8375   -7.0292    0.0000 C   0  0  0  0  0  0  0  0  0  0  0  0
    5.6417   -6.6875    0.0000 C   0  0  0  0  0  0  0  0  0  0  0  0
    6.2875   -5.8000    0.0000 C   0  0  0  0  0  0  0  0  0  0  0  0
    6.6667   -6.3667    0.0000 C   0  0  0  0  0  0  0  0  0  0  0  0
    4.4500   -6.7042    0.0000 C   0  0  0  0  0  0  0  0  0  0  0  0
    5.0542   -7.0417    0.0000 C   0  0  0  0  0  0  0  0  0  0  0  0
    7.3542   -6.3542    0.0000 N   0  0  0  0  0  0  0  0  0  0  0  0
    6.2917   -6.9000    0.0000 C   0  0  0  0  0  0  0  0  0  0  0  0
    3.2292   -6.6750    0.0000 C   0  0  0  0  0  0  0  0  0  0  0  0
    2.6125   -7.0417    0.0000 C   0  0  0  0  0  0  0  0  0  0  0  0
    3.8375   -7.7292    0.0000 C   0  0  0  0  0  0  0  0  0  0  0  0
    1.9667   -6.6750    0.0000 N   0  0  0  0  0  0  0  0  0  0  0  0
    5.0542   -5.6667    0.0000 C   0  0  0  0  0  0  0  0  0  0  0  0
    2.6125   -7.6917    0.0000 C   0  0  0  0  0  0  0  0  0  0  0  0
    6.3167   -5.0167    0.0000 O   0  0  0  0  0  0  0  0  0  0  0  0
    4.4500   -6.0042    0.0000 C   0  0  0  0  0  0  0  0  0  0  0  0
    3.2167   -8.0667    0.0000 C   0  0  0  0  0  0  0  0  0  0  0  0
    5.0542   -7.7292    0.0000 C   0  0  0  0  0  0  0  0  0  0  0  0
    6.9042   -4.6625    0.0000 C   0  0  0  0  0  0  0  0  0  0  0  0
    4.4417   -8.0792    0.0000 C   0  0  0  0  0  0  0  0  0  0  0  0
    6.9042   -3.9917    0.0000 O   0  0  0  0  0  0  0  0  0  0  0  0
    0.7875   -6.0042    0.0000 O   0  0  0  0  0  0  0  0  0  0  0  0
    7.2042   -7.6375    0.0000 C   0  0  0  0  0  0  0  0  0  0  0  0
    6.9042   -6.9875    0.0000 C   0  0  0  0  0  0  0  0  0  0  0  0
    7.9000   -7.6375    0.0000 C   0  0  0  0  0  0  0  0  0  0  0  0
    5.5750   -5.2875    0.0000 C   0  0  0  0  0  0  0  0  0  0  0  0
    3.7625   -6.2750    0.0000 C   0  0  0  0  0  0  0  0  0  0  0  0
    2.0000   -8.0167    0.0000 O   0  0  0  0  0  0  0  0  0  0  0  0
    7.8542   -6.9000    0.0000 C   0  0  0  0  0  0  0  0  0  0  0  0
    7.7667   -5.6542    0.0000 C   0  0  0  0  0  0  0  0  0  0  0  0
    1.9667   -5.9792    0.0000 C   0  0  0  0  0  0  0  0  0  0  0  0
    1.3792   -7.0292    0.0000 C   0  0  0  0  0  0  0  0  0  0  0  0
    7.5000   -5.0167    0.0000 C   0  0  0  0  0  0  0  0  0  0  0  0
    1.3792   -5.6375    0.0000 C   0  0  0  0  0  0  0  0  0  0  0  0
    0.7875   -6.6750    0.0000 C   0  0  0  0  0  0  0  0  0  0  0  0
    8.5125   -6.6875    0.0000 C   0  0  0  0  0  0  0  0  0  0  0  0
    8.5125   -5.9042    0.0000 C   0  0  0  0  0  0  0  0  0  0  0  0
    3.8500   -8.5000    0.0000 H   0  0  0  0  0  0  0  0  0  0  0  0
    5.6417   -7.4417    0.0000 H   0  0  0  0  0  0  0  0  0  0  0  0
    5.0542   -6.2917    0.0000 H   0  0  0  0  0  0  0  0  0  0  0  0
    4.4667   -7.4042    0.0000 H   0  0  0  0  0  0  0  0  0  0  0  0
  3  7  1  0
  4  2  1  0
  5  2  1  0
  6  5  1  0
  7 18  1  0
  8  4  1  0
  6  9  1  1
 10  4  1  0
 11  3  1  0
 12 11  1  0
 13  3  1  0
 12 14  1  1
 15  2  1  0
 16 19  1  0
  5 17  1  1
 18 15  1  0
 19 13  1  0
 20  8  1  0
 21 17  1  0
 22 20  1  0
 23 21  2  0
 24 36  1  0
 25 26  1  0
 26  9  1  0
 27 25  2  0
  2 28  1  1
  3 29  1  1
 16 30  1  6
 31  9  1  0
 32  9  1  0
 33 14  1  0
 34 14  1  0
 35 21  1  0
 36 33  1  0
 37 34  1  0
 38 31  1  0
 39 32  1  0
 13 40  1  6
  4 41  1  6
  8 42  1  1
  7 43  1  6
 10  6  1  0
  7  8  1  0
 13 22  1  0
 39 38  1  0
 16 12  1  0
 24 37  1  0
M  CHG  2   1  -1   9   1
M  END
> <chembl_id>
CHEMBL1200648

> <chembl_pref_name>
ROCURONIUM BROMIDE
