
     RDKit          2D

 10 11  0  0  0  0  0  0  0  0999 V2000
    0.2917    0.7475    0.0000 C   0  0  0  0  0  0  0  0  0  0  0  0
    1.7138   -1.2033    0.0000 N   0  0  0  0  0  0  0  0  0  0  0  0
    0.2917   -0.7475    0.0000 C   0  0  0  0  0  0  0  0  0  0  0  0
   -1.0028    1.5132    0.0000 C   0  0  0  0  0  0  0  0  0  0  0  0
    1.7138    1.2033    0.0000 N   0  0  0  0  0  0  0  0  0  0  0  0
   -1.0028   -1.5132    0.0000 N   0  0  0  0  0  0  0  0  0  0  0  0
    2.5889    0.0182    0.0000 C   0  0  0  0  0  0  0  0  0  0  0  0
   -2.3155    0.7475    0.0000 N   0  0  0  0  0  0  0  0  0  0  0  0
   -2.3155   -0.7475    0.0000 C   0  0  0  0  0  0  0  0  0  0  0  0
   -0.9991    2.7132    0.0000 S   0  0  0  0  0  0  0  0  0  0  0  0
  2  3  1  0
  3  1  2  0
  4  1  1  0
  5  1  1  0
  6  3  1  0
  7  5  1  0
  8  4  2  0
  9  8  1  0
 10  4  1  0
  7  2  2  0
  9  6  2  0
M  END
> <chembl_id>
CHEMBL1425

> <chembl_pref_name>
MERCAPTOPURINE ANHYDROUS
