
     RDKit          2D

 34 37  0  0  0  0  0  0  0  0999 V2000
   -4.7437    5.0384    0.0000 C   0  0  0  0  0  0  0  0  0  0  0  0
   -5.4582    4.6259    0.0000 C   0  0  0  0  0  0  0  0  0  0  0  0
   -5.4582    3.8009    0.0000 C   0  0  0  0  0  0  0  0  0  0  0  0
   -4.7437    3.3884    0.0000 C   0  0  0  0  0  0  0  0  0  0  0  0
   -4.0292    3.8009    0.0000 C   0  0  0  0  0  0  0  0  0  0  0  0
   -4.0292    4.6259    0.0000 C   0  0  0  0  0  0  0  0  0  0  0  0
   -6.1727    5.0384    0.0000 Cl  0  0  0  0  0  0  0  0  0  0  0  0
   -6.1727    3.3884    0.0000 O   0  0  0  0  0  0  0  0  0  0  0  0
   -6.8872    3.8009    0.0000 C   0  0  0  0  0  0  0  0  0  0  0  0
   -3.3148    5.0384    0.0000 C   0  0  0  0  0  0  0  0  0  0  0  0
   -2.6003    4.6259    0.0000 N   0  0  0  0  0  0  0  0  0  0  0  0
   -1.8858    5.0384    0.0000 C   0  0  0  0  0  0  0  0  0  0  0  0
   -1.1714    4.6259    0.0000 C   0  0  0  0  0  0  0  0  0  0  0  0
   -0.4569    5.0384    0.0000 C   0  0  0  0  0  0  0  0  0  0  0  0
   -0.4569    5.8634    0.0000 N   0  0  0  0  0  0  0  0  0  0  0  0
   -1.1714    6.2759    0.0000 C   0  0  0  0  0  0  0  0  0  0  0  0
   -1.8859    5.8634    0.0000 N   0  0  0  0  0  0  0  0  0  0  0  0
   -1.1714    3.8009    0.0000 C   0  0  0  0  0  0  0  0  0  0  0  0
   -0.4569    3.3884    0.0000 N   0  0  0  0  0  0  0  0  0  0  0  0
   -1.8858    3.3884    0.0000 O   0  0  0  0  0  0  0  0  0  0  0  0
    0.2576    3.8009    0.0000 C   0  0  0  0  0  0  0  0  0  0  0  0
    0.9720    3.3884    0.0000 C   0  0  0  0  0  0  0  0  0  0  0  0
    0.9720    2.5633    0.0000 N   0  0  0  0  0  0  0  0  0  0  0  0
    1.6865    2.1508    0.0000 C   0  0  0  0  0  0  0  0  0  0  0  0
    2.4010    2.5634    0.0000 C   0  0  0  0  0  0  0  0  0  0  0  0
    2.4010    3.3884    0.0000 C   0  0  0  0  0  0  0  0  0  0  0  0
    1.6865    3.8009    0.0000 N   0  0  0  0  0  0  0  0  0  0  0  0
   -1.1714    7.1009    0.0000 N   0  0  0  0  0  0  0  0  0  0  0  0
   -0.5039    7.5859    0.0000 C   0  0  0  0  0  0  0  0  0  0  0  0
   -0.7589    8.3704    0.0000 C   0  0  0  0  0  0  0  0  0  0  0  0
   -1.5839    8.3704    0.0000 C   0  0  0  0  0  0  0  0  0  0  0  0
   -1.8388    7.5859    0.0000 C   0  0  0  0  0  0  0  0  0  0  0  0
    0.2807    7.3309    0.0000 C   0  0  0  0  0  0  0  0  0  0  0  0
    0.4942    6.5340    0.0000 O   0  0  0  0  0  0  0  0  0  0  0  0
  1  2  1  0
  1  6  2  0
  2  3  2  0
  3  4  1  0
  4  5  2  0
  5  6  1  0
  2  7  1  0
  3  8  1  0
  8  9  1  0
  6 10  1  0
 10 11  1  0
 11 12  1  0
 12 13  1  0
 12 17  2  0
 13 14  2  0
 14 15  1  0
 15 16  2  0
 16 17  1  0
 13 18  1  0
 18 19  1  0
 18 20  2  0
 19 21  1  0
 21 22  1  0
 22 23  1  0
 22 27  2  0
 23 24  2  0
 24 25  1  0
 25 26  2  0
 26 27  1  0
 16 28  1  0
 28 29  1  0
 28 32  1  0
 29 30  1  0
 30 31  1  0
 31 32  1  0
 29 33  1  1
 33 34  1  0
M  END
> <chembl_id>
CHEMBL1963681

> <chembl_pref_name>
AVANAFIL
