
     RDKit          2D

 27 28  0  0  0  0  0  0  0  0999 V2000
    2.9170   -1.8562    0.0000 K   0  0  0  0  0 15  0  0  0  0  0  0
    0.1226    1.3788    0.0000 C   0  0  0  0  0  0  0  0  0  0  0  0
   -0.7024    1.3788    0.0000 C   0  0  0  0  0  0  0  0  0  0  0  0
   -0.7024    0.5538    0.0000 C   0  0  0  0  0  0  0  0  0  0  0  0
    0.1226    0.5538    0.0000 N   0  0  0  0  0  0  0  0  0  0  0  0
    0.9072    0.2989    0.0000 C   0  0  0  0  0  0  0  0  0  0  0  0
    1.3921    0.9663    0.0000 C   0  0  0  0  0  0  0  0  0  0  0  0
    0.9072    1.6337    0.0000 S   0  0  0  0  0  0  0  0  0  0  0  0
   -1.2858    1.9622    0.0000 N   0  0  0  0  0  0  0  0  0  0  0  0
   -1.2858   -0.0295    0.0000 O   0  0  0  0  0  0  0  0  0  0  0  0
    1.1621   -0.4857    0.0000 C   0  0  0  0  0  0  0  0  0  0  0  0
    1.9691   -0.6573    0.0000 O   0  0  0  0  0  0  0  0  0  0  0  0
    0.6100   -1.0988    0.0000 O   0  0  0  0  0  0  0  0  0  0  0  0
    1.9755    1.5497    0.0000 C   0  0  0  0  0  0  0  0  0  0  0  0
    2.1066    0.5538    0.0000 C   0  0  0  0  0  0  0  0  0  0  0  0
    0.1226    2.2038    0.0000 H   0  0  0  0  0  0  0  0  0  0  0  0
   -2.0827    1.7487    0.0000 C   0  0  0  0  0  0  0  0  0  0  0  0
   -2.6660    2.3320    0.0000 C   0  0  0  0  0  0  0  0  0  0  0  0
   -2.2962    0.9518    0.0000 O   0  0  0  0  0  0  0  0  0  0  0  0
   -3.4629    2.1185    0.0000 O   0  0  0  0  0  0  0  0  0  0  0  0
   -2.4525    3.1289    0.0000 C   0  0  0  0  0  0  0  0  0  0  0  0
   -4.0463    2.7019    0.0000 C   0  0  0  0  0  0  0  0  0  0  0  0
   -3.8327    3.4988    0.0000 C   0  0  0  0  0  0  0  0  0  0  0  0
   -4.4161    4.0822    0.0000 C   0  0  0  0  0  0  0  0  0  0  0  0
   -5.2130    3.8686    0.0000 C   0  0  0  0  0  0  0  0  0  0  0  0
   -5.4265    3.0717    0.0000 C   0  0  0  0  0  0  0  0  0  0  0  0
   -4.8432    2.4883    0.0000 C   0  0  0  0  0  0  0  0  0  0  0  0
  2  3  1  0
  3  4  1  0
  4  5  1  0
  5  6  1  0
  2  5  1  0
  2  8  1  0
  6  7  1  0
  7  8  1  0
  3  9  1  1
  4 10  2  0
  6 11  1  6
 11 12  1  0
 11 13  2  0
  7 14  1  0
  7 15  1  0
  2 16  1  6
  9 17  1  0
 17 18  1  0
 17 19  2  0
 18 20  1  0
 18 21  1  0
 20 22  1  0
 22 23  1  0
 22 27  2  0
 23 24  2  0
 24 25  1  0
 25 26  2  0
 26 27  1  0
M  CHG  2   1   1  12  -1
M  END
> <chembl_id>
CHEMBL2364720

> <chembl_pref_name>
PHENETHICILLIN POTASSIUM
