
     RDKit          2D

 22 24  0  0  0  0  0  0  0  0999 V2000
    1.8414   -0.1105    0.0000 O   0  0  0  0  0  0  0  0  0  0  0  0
    1.4289   -0.8250    0.0000 C   0  0  0  0  0  0  0  0  0  0  0  0
    2.1434   -1.2375    0.0000 C   0  0  0  0  0  0  0  0  0  0  0  0
    2.8579   -0.8250    0.0000 N   0  0  0  0  0  0  0  0  0  0  0  0
    3.6116   -1.1606    0.0000 C   0  0  0  0  0  0  0  0  0  0  0  0
    4.1636   -0.5475    0.0000 N   0  0  0  0  0  0  0  0  0  0  0  0
    3.7511    0.1670    0.0000 C   0  0  0  0  0  0  0  0  0  0  0  0
    2.9441   -0.0045    0.0000 N   0  0  0  0  0  0  0  0  0  0  0  0
    1.0164   -1.5395    0.0000 C   0  0  0  0  0  0  0  0  0  0  0  0
    1.4289   -2.2540    0.0000 N   0  0  0  0  0  0  0  0  0  0  0  0
    1.0934   -3.0076    0.0000 C   0  0  0  0  0  0  0  0  0  0  0  0
    1.7065   -3.5597    0.0000 N   0  0  0  0  0  0  0  0  0  0  0  0
    2.4209   -3.1472    0.0000 C   0  0  0  0  0  0  0  0  0  0  0  0
    2.2494   -2.3402    0.0000 N   0  0  0  0  0  0  0  0  0  0  0  0
    0.7145   -0.4125    0.0000 C   0  0  0  0  0  0  0  0  0  0  0  0
    0.7145    0.4125    0.0000 C   0  0  0  0  0  0  0  0  0  0  0  0
   -0.0000    0.8250    0.0000 C   0  0  0  0  0  0  0  0  0  0  0  0
   -0.7145    0.4125    0.0000 C   0  0  0  0  0  0  0  0  0  0  0  0
   -1.4289    0.8250    0.0000 F   0  0  0  0  0  0  0  0  0  0  0  0
   -0.7145   -0.4125    0.0000 C   0  0  0  0  0  0  0  0  0  0  0  0
   -0.0000   -0.8250    0.0000 C   0  0  0  0  0  0  0  0  0  0  0  0
   -0.0000   -1.6500    0.0000 F   0  0  0  0  0  0  0  0  0  0  0  0
  1  2  1  0
  2  3  1  0
  3  4  1  0
  4  5  1  0
  5  6  2  0
  6  7  1  0
  7  8  2  0
  8  4  1  0
  2  9  1  0
  9 10  1  0
 10 11  1  0
 11 12  2  0
 12 13  1  0
 13 14  2  0
 14 10  1  0
  2 15  1  0
 15 16  2  0
 16 17  1  0
 17 18  2  0
 18 19  1  0
 18 20  1  0
 20 21  2  0
 21 15  1  0
 21 22  1  0
M  END
> <chembl_id>
CHEMBL106

> <chembl_pref_name>
FLUCONAZOLE
