
     RDKit          2D

  5  4  0  0  0  0  0  0  0  0999 V2000
    9.1542   -2.2125    0.0000 C   0  0  0  0  0  0  0  0  0  0  0  0
    8.3292   -2.2125    0.0000 Cl  0  0  0  0  0  0  0  0  0  0  0  0
    9.1542   -1.3875    0.0000 Cl  0  0  0  0  0  0  0  0  0  0  0  0
    9.9792   -2.2125    0.0000 Cl  0  0  0  0  0  0  0  0  0  0  0  0
    9.1542   -3.0375    0.0000 C   0  0  0  0  0  0  0  0  0  0  0  0
  2  1  1  0
  3  1  1  0
  4  1  1  0
  5  1  1  0
M  END
> <chembl_id>
CHEMBL16080

> <chembl_pref_name>
TRICHLOROETHANE
