
     RDKit          2D

 60 59  0  0  0  0  0  0  0  0999 V2000
   12.8569  -13.4877    0.0000 O   0  0  0  0  0  0  0  0  0  0  0  0
   13.5676  -11.4067    0.0000 O   0  0  0  0  0  0  0  0  0  0  0  0
   10.7049  -12.2485    0.0000 N   0  0  0  0  0  0  0  0  0  0  0  0
   12.1312  -11.4104    0.0000 O   0  0  0  0  0  0  0  0  0  0  0  0
   14.2883  -13.4792    0.0000 O   0  0  0  0  0  0  0  0  0  0  0  0
   11.4254  -12.6616    0.0000 C   0  0  0  0  0  0  0  0  0  0  0  0
   15.7148  -12.6506    0.0000 O   0  0  0  0  0  0  0  0  0  0  0  0
   15.0038  -12.2327    0.0000 C   0  0  0  0  0  0  0  0  0  0  0  0
    9.9940  -12.6604    0.0000 C   0  0  0  0  0  0  0  0  0  0  0  0
   12.1397  -12.2438    0.0000 C   0  0  0  0  0  0  0  0  0  0  0  0
   12.8547  -12.6536    0.0000 C   0  0  0  0  0  0  0  0  0  0  0  0
   13.5697  -12.2396    0.0000 C   0  0  0  0  0  0  0  0  0  0  0  0
   14.2847  -12.6494    0.0000 C   0  0  0  0  0  0  0  0  0  0  0  0
    7.1691  -10.4529    0.0000 C   0  0  0  0  0  0  0  0  0  0  0  0
   16.4490  -10.0144    0.0000 C   0  0  0  0  0  0  0  0  0  0  0  0
    7.8800  -10.0362    0.0000 C   0  0  0  0  0  0  0  0  0  0  0  0
   15.7333  -10.4262    0.0000 C   0  0  0  0  0  0  0  0  0  0  0  0
    8.5957  -10.4444    0.0000 C   0  0  0  0  0  0  0  0  0  0  0  0
   15.0272  -10.0132    0.0000 C   0  0  0  0  0  0  0  0  0  0  0  0
    7.1741  -11.2827    0.0000 C   0  0  0  0  0  0  0  0  0  0  0  0
   16.4489   -9.1847    0.0000 C   0  0  0  0  0  0  0  0  0  0  0  0
   15.0176   -9.1884    0.0000 C   0  0  0  0  0  0  0  0  0  0  0  0
    8.6006  -11.2741    0.0000 C   0  0  0  0  0  0  0  0  0  0  0  0
   15.7332   -8.7766    0.0000 C   0  0  0  0  0  0  0  0  0  0  0  0
    7.8898  -11.6909    0.0000 C   0  0  0  0  0  0  0  0  0  0  0  0
    6.4535  -10.0447    0.0000 C   0  0  0  0  0  0  0  0  0  0  0  0
   17.1647  -10.4276    0.0000 C   0  0  0  0  0  0  0  0  0  0  0  0
   14.3116  -10.4250    0.0000 N   0  0  0  0  0  0  0  0  0  0  0  0
    9.3113  -10.0277    0.0000 N   0  0  0  0  0  0  0  0  0  0  0  0
   10.0271  -10.4408    0.0000 C   0  0  0  0  0  0  0  0  0  0  0  0
   13.5959  -10.0168    0.0000 C   0  0  0  0  0  0  0  0  0  0  0  0
    6.4486   -9.2199    0.0000 O   0  0  0  0  0  0  0  0  0  0  0  0
   17.1599  -11.2525    0.0000 O   0  0  0  0  0  0  0  0  0  0  0  0
    7.8799   -9.2114    0.0000 I   0  0  0  0  0  0  0  0  0  0  0  0
   15.7333  -11.2512    0.0000 I   0  0  0  0  0  0  0  0  0  0  0  0
   13.5958   -9.1920    0.0000 O   0  0  0  0  0  0  0  0  0  0  0  0
   10.0271  -11.2657    0.0000 O   0  0  0  0  0  0  0  0  0  0  0  0
    6.4633  -11.6993    0.0000 I   0  0  0  0  0  0  0  0  0  0  0  0
   17.1646   -8.7728    0.0000 I   0  0  0  0  0  0  0  0  0  0  0  0
   14.3019   -8.7802    0.0000 I   0  0  0  0  0  0  0  0  0  0  0  0
    9.3163  -11.6872    0.0000 I   0  0  0  0  0  0  0  0  0  0  0  0
    5.7379  -10.4615    0.0000 O   0  0  0  0  0  0  0  0  0  0  0  0
   17.8756  -10.0157    0.0000 O   0  0  0  0  0  0  0  0  0  0  0  0
   12.8851  -10.4335    0.0000 C   0  0  0  0  0  0  0  0  0  0  0  0
   10.7379  -10.0241    0.0000 C   0  0  0  0  0  0  0  0  0  0  0  0
   12.1694  -10.0205    0.0000 C   0  0  0  0  0  0  0  0  0  0  0  0
   11.4537  -10.4372    0.0000 C   0  0  0  0  0  0  0  0  0  0  0  0
   11.4341   -7.9675    0.0000 O   0  0  0  0  0  0  0  0  0  0  0  0
   12.1448   -5.8865    0.0000 O   0  0  0  0  0  0  0  0  0  0  0  0
    9.2821   -6.7284    0.0000 N   0  0  0  0  0  0  0  0  0  0  0  0
   10.7084   -5.8902    0.0000 O   0  0  0  0  0  0  0  0  0  0  0  0
   12.8655   -7.9590    0.0000 O   0  0  0  0  0  0  0  0  0  0  0  0
   10.0026   -7.1414    0.0000 C   0  0  0  0  0  0  0  0  0  0  0  0
   14.2920   -7.1305    0.0000 O   0  0  0  0  0  0  0  0  0  0  0  0
   13.5810   -6.7125    0.0000 C   0  0  0  0  0  0  0  0  0  0  0  0
    8.5712   -7.1402    0.0000 C   0  0  0  0  0  0  0  0  0  0  0  0
   10.7169   -6.7236    0.0000 C   0  0  0  0  0  0  0  0  0  0  0  0
   11.4319   -7.1334    0.0000 C   0  0  0  0  0  0  0  0  0  0  0  0
   12.1469   -6.7194    0.0000 C   0  0  0  0  0  0  0  0  0  0  0  0
   12.8619   -7.1293    0.0000 C   0  0  0  0  0  0  0  0  0  0  0  0
  3  6  1  0
  7  8  1  0
  9  3  1  0
 13  8  1  0
 10 11  1  0
 10  4  1  6
 11 12  1  0
 11  1  1  6
  6 10  1  0
 12  2  1  6
 12 13  1  0
 13  5  1  1
 15 17  2  0
 16 14  1  0
 17 19  1  0
 18 16  2  0
 19 28  1  0
 20 14  2  0
 21 15  1  0
 22 19  2  0
 23 18  1  0
 24 22  1  0
 25 20  1  0
 26 14  1  0
 27 15  1  0
 28 31  1  0
 29 18  1  0
 30 29  1  0
 31 44  1  0
 32 26  2  0
 33 27  2  0
 34 16  1  0
 35 17  1  0
 36 31  2  0
 37 30  2  0
 38 20  1  0
 39 21  1  0
 40 22  1  0
 41 23  1  0
 42 26  1  0
 43 27  1  0
 44 46  1  0
 45 30  1  0
 46 47  1  0
 47 45  1  0
 25 23  2  0
 21 24  2  0
 50 53  1  0
 54 55  1  0
 56 50  1  0
 60 55  1  0
 57 58  1  0
 57 51  1  6
 58 59  1  0
 58 48  1  6
 53 57  1  0
 59 49  1  6
 59 60  1  0
 60 52  1  1
M  END
> <chembl_id>
CHEMBL3989806

> <chembl_pref_name>
IODIPAMIDE MEGLUMINE
