
     RDKit          2D

 11 10  0  0  0  0  0  0  0  0999 V2000
   -0.4833    0.4958    0.0000 C   0  0  0  0  0  0  0  0  0  0  0  0
    0.7542    1.2125    0.0000 P   0  0  0  0  0  0  0  0  0  0  0  0
   -0.4833   -0.9375    0.0000 P   0  0  0  0  0  0  0  0  0  0  0  0
    0.0292    2.4625    0.0000 O   0  0  0  0  0  0  0  0  0  0  0  0
   -0.4958   -2.3625    0.0000 O   0  0  0  0  0  0  0  0  0  0  0  0
   -1.7208    1.2125    0.0000 O   0  0  0  0  0  0  0  0  0  0  0  0
    1.9917    1.9458    0.0000 O   0  0  0  0  0  0  0  0  0  0  0  0
   -1.9208   -0.9250    0.0000 O   0  0  0  0  0  0  0  0  0  0  0  0
    0.9500   -0.9292    0.0000 O   0  0  0  0  0  0  0  0  0  0  0  0
    1.4625   -0.0167    0.0000 O   0  0  0  0  0  0  0  0  0  0  0  0
   -0.8583    1.8833    0.0000 C   0  0  0  0  0  0  0  0  0  0  0  0
  2  1  1  0
  3  1  1  0
  4  2  2  0
  5  3  2  0
  6  1  1  0
  7  2  1  0
  8  3  1  0
  9  3  1  0
 10  2  1  0
 11  1  1  0
M  END
> <chembl_id>
CHEMBL871

> <chembl_pref_name>
ETIDRONIC ACID
