
     RDKit          2D

 27 29  0  0  1  0  0  0  0  0999 V2000
    1.7504   -0.4764    0.0000 S   0  0  0  0  0  0  0  0  0  0  0  0
   -0.2732    0.8863    0.0000 N   0  0  0  0  0  0  0  0  0  0  0  0
   -0.9934    0.4837    0.0000 C   0  0  0  0  0  0  0  0  0  0  0  0
   -0.9934   -0.3250    0.0000 C   0  0  0  0  0  0  0  0  0  0  0  0
    1.1005   -0.0148    0.0000 N   0  0  0  0  0  0  0  0  0  0  0  0
   -2.4225   -0.3434    0.0000 C   0  0  0  0  0  0  0  0  0  0  0  0
   -1.7061   -0.7534    0.0000 C   0  0  0  0  0  0  0  0  0  0  0  0
   -1.7061    0.9047    0.0000 C   0  0  0  0  0  0  0  0  0  0  0  0
    0.4432   -0.3250    0.0000 C   0  0  0  0  0  0  0  0  0  0  0  0
   -2.4225    0.4948    0.0000 C   0  0  0  0  0  0  0  0  0  0  0  0
    2.4484   -0.9011    0.0000 N   0  0  0  0  0  0  0  0  0  0  0  0
    0.4432    0.4837    0.0000 C   0  0  0  0  0  0  0  0  0  0  0  0
    2.1493    0.1773    0.0000 O   0  0  0  0  0  0  0  0  0  0  0  0
    1.3184   -1.1559    0.0000 O   0  0  0  0  0  0  0  0  0  0  0  0
   -0.2732   -0.7423    0.0000 C   0  0  0  0  0  0  0  0  0  0  0  0
   -3.1426   -0.7534    0.0000 C   0  0  0  0  0  0  0  0  0  0  0  0
   -0.2732    1.6951    0.0000 C   0  0  0  0  0  0  0  0  0  0  0  0
   -3.1426   -1.5769    0.0000 O   0  0  0  0  0  0  0  0  0  0  0  0
   -3.1426    0.9047    0.0000 C   0  0  0  0  0  0  0  0  0  0  0  0
   -3.8517    0.4837    0.0000 C   0  0  0  0  0  0  0  0  0  0  0  0
    3.1501   -0.5207    0.0000 C   0  0  0  0  0  0  0  0  0  0  0  0
    2.4484   -1.6988    0.0000 C   0  0  0  0  0  0  0  0  0  0  0  0
   -3.8517   -0.3250    0.0000 C   0  0  0  0  0  0  0  0  0  0  0  0
    0.4247    2.0939    0.0000 C   0  0  0  0  0  0  0  0  0  0  0  0
    3.8481   -0.9343    0.0000 C   0  0  0  0  0  0  0  0  0  0  0  0
    1.7504   -2.0865    0.0000 C   0  0  0  0  0  0  0  0  0  0  0  0
    1.1338    1.6951    0.0000 C   0  0  0  0  0  0  0  0  0  0  0  0
  2 12  1  0
  3  4  1  0
  4 15  1  0
  5  1  1  0
  6  7  1  0
  4  7  1  0
  3  8  1  0
  9  5  1  0
 10  6  2  0
 11  1  1  0
 12  9  1  0
 13  1  2  0
 14  1  2  0
 15  9  1  0
 16  6  1  0
 17  2  1  0
 18 16  1  0
 19 10  1  0
 20 23  1  0
 21 11  1  0
 22 11  1  0
 23 16  2  0
 24 17  1  0
 25 21  1  0
 26 22  1  0
 27 24  1  0
  3  2  1  0
 10  8  1  0
 19 20  2  0
M  END
> <chembl_id>
CHEMBL2218861

> <chembl_pref_name>
QUINAGOLIDE
