
     RDKit          2D

 19 19  0  0  0  0  0  0  0  0999 V2000
    3.7167   -4.4750    0.0000 C   0  0  0  0  0  0  0  0  0  0  0  0
    3.1000   -4.8167    0.0000 C   0  0  0  0  0  0  0  0  0  0  0  0
    4.3292   -4.8250    0.0000 C   0  0  0  0  0  0  0  0  0  0  0  0
    2.4917   -4.4667    0.0000 C   0  0  0  0  0  0  0  0  0  0  0  0
    3.7042   -3.7625    0.0000 C   0  0  0  0  0  0  0  0  0  0  0  0
    4.9417   -4.4750    0.0000 C   0  0  0  0  0  0  0  0  0  0  0  0
    2.4917   -3.7542    0.0000 C   0  0  0  0  0  0  0  0  0  0  0  0
    0.6250   -3.4125    0.0000 C   0  0  0  0  0  0  0  0  0  0  0  0
    4.3292   -5.5292    0.0000 O   0  0  0  0  0  0  0  0  0  0  0  0
    1.8625   -3.4000    0.0000 O   0  0  0  0  0  0  0  0  0  0  0  0
    3.1042   -3.4042    0.0000 C   0  0  0  0  0  0  0  0  0  0  0  0
    0.6125   -2.6917    0.0000 O   0  0  0  0  0  0  0  0  0  0  0  0
    3.0917   -5.5375    0.0000 Cl  0  0  0  0  0  0  0  0  0  0  0  0
    1.8667   -4.8292    0.0000 Cl  0  0  0  0  0  0  0  0  0  0  0  0
    4.9417   -3.7542    0.0000 C   0  0  0  0  0  0  0  0  0  0  0  0
    1.2542   -3.7625    0.0000 C   0  0  0  0  0  0  0  0  0  0  0  0
    0.0125   -3.7792    0.0000 O   0  0  0  0  0  0  0  0  0  0  0  0
    5.5667   -4.8292    0.0000 C   0  0  0  0  0  0  0  0  0  0  0  0
    6.1875   -4.4792    0.0000 C   0  0  0  0  0  0  0  0  0  0  0  0
  2  1  2  0
  3  1  1  0
  4  2  1  0
  5  1  1  0
  6  3  1  0
  7 11  1  0
  8 16  1  0
  9  3  2  0
 10  7  1  0
 11  5  2  0
 12  8  2  0
 13  2  1  0
 14  4  1  0
 15  6  2  0
 16 10  1  0
 17  8  1  0
 18  6  1  0
 19 18  1  0
  7  4  2  0
M  END
> <chembl_id>
CHEMBL456

> <chembl_pref_name>
ETHACRYNIC ACID
