
     RDKit          2D

 15 16  0  0  0  0  0  0  0  0999 V2000
    0.0000    1.4458    0.0000 C   0  0  0  0  0  0  0  0  0  0  0  0
    1.2375   -0.6792    0.0000 C   0  0  0  0  0  0  0  0  0  0  0  0
    1.2375    0.7333    0.0000 O   0  0  0  0  0  0  0  0  0  0  0  0
    0.0000   -1.3917    0.0000 C   0  0  0  0  0  0  0  0  0  0  0  0
   -1.2458    0.7333    0.0000 O   0  0  0  0  0  0  0  0  0  0  0  0
    0.0000    2.8708    0.0000 N   0  0  0  0  0  0  0  0  0  0  0  0
    0.0000   -2.8625    0.0000 C   0  0  0  0  0  0  0  0  0  0  0  0
    2.4792   -1.4375    0.0000 C   0  0  0  0  0  0  0  0  0  0  0  0
    2.4792   -2.8167    0.0000 C   0  0  0  0  0  0  0  0  0  0  0  0
   -1.2458   -0.6792    0.0000 C   0  0  0  0  0  0  0  0  0  0  0  0
    1.2375   -3.5750    0.0000 C   0  0  0  0  0  0  0  0  0  0  0  0
   -1.2458    3.5833    0.0000 C   0  0  0  0  0  0  0  0  0  0  0  0
   -1.2458   -3.5750    0.0000 C   0  0  0  0  0  0  0  0  0  0  0  0
   -2.4875   -1.4375    0.0000 C   0  0  0  0  0  0  0  0  0  0  0  0
   -2.4875   -2.8167    0.0000 C   0  0  0  0  0  0  0  0  0  0  0  0
  2  3  1  0
  3  1  1  0
  4  2  2  0
  5  1  2  0
  6  1  1  0
  7  4  1  0
  8  2  1  0
  9  8  2  0
 10  4  1  0
 11  9  1  0
 12  6  1  0
 13  7  1  0
 14 10  2  0
 15 14  1  0
  7 11  2  0
 13 15  2  0
M  END
> <chembl_id>
CHEMBL46917

> <chembl_pref_name>
CARBARIL
