
     RDKit          2D

 21 23  0  0  0  0  0  0  0  0999 V2000
    4.7500   -5.0125    0.0000 C   0  0  0  0  0  0  0  0  0  0  0  0
    5.3625   -5.3542    0.0000 C   0  0  0  0  0  0  0  0  0  0  0  0
    4.7500   -6.4167    0.0000 S   0  0  0  0  0  0  0  0  0  0  0  0
    5.3625   -6.0667    0.0000 C   0  0  0  0  0  0  0  0  0  0  0  0
    4.1375   -5.3542    0.0000 C   0  0  0  0  0  0  0  0  0  0  0  0
    4.1375   -6.0667    0.0000 C   0  0  0  0  0  0  0  0  0  0  0  0
    4.7500   -4.2917    0.0000 C   0  0  0  0  0  0  0  0  0  0  0  0
    5.9792   -5.0125    0.0000 C   0  0  0  0  0  0  0  0  0  0  0  0
    5.9792   -6.4167    0.0000 C   0  0  0  0  0  0  0  0  0  0  0  0
    6.5917   -5.3542    0.0000 C   0  0  0  0  0  0  0  0  0  0  0  0
    6.6167   -3.9292    0.0000 N   0  0  0  0  0  0  0  0  0  0  0  0
    6.5917   -6.0667    0.0000 C   0  0  0  0  0  0  0  0  0  0  0  0
    7.2042   -4.9917    0.0000 Cl  0  0  0  0  0  0  0  0  0  0  0  0
    5.3917   -3.9292    0.0000 C   0  0  0  0  0  0  0  0  0  0  0  0
    3.5250   -5.0125    0.0000 C   0  0  0  0  0  0  0  0  0  0  0  0
    3.5250   -6.4167    0.0000 C   0  0  0  0  0  0  0  0  0  0  0  0
    6.0125   -4.2792    0.0000 C   0  0  0  0  0  0  0  0  0  0  0  0
    7.2292   -4.2792    0.0000 C   0  0  0  0  0  0  0  0  0  0  0  0
    6.6167   -3.2292    0.0000 C   0  0  0  0  0  0  0  0  0  0  0  0
    2.9042   -5.3542    0.0000 C   0  0  0  0  0  0  0  0  0  0  0  0
    2.9042   -6.0667    0.0000 C   0  0  0  0  0  0  0  0  0  0  0  0
  2  1  1  0
  3  6  1  0
  4  2  2  0
  5  1  1  0
  6  5  2  0
  7  1  2  0
  8  2  1  0
  9  4  1  0
 10  8  2  0
 11 17  1  0
 12 10  1  0
 13 10  1  0
 14  7  1  0
 15  5  1  0
 16  6  1  0
 17 14  1  0
 18 11  1  0
 19 11  1  0
 20 15  2  0
 21 20  1  0
  3  4  1  0
 21 16  2  0
 12  9  2  0
M  END
> <chembl_id>
CHEMBL908

> <chembl_pref_name>
CHLORPROTHIXENE
