
     RDKit          2D

 21 23  0  0  0  0  0  0  0  0999 V2000
    5.4125   -4.4417    0.0000 C   0  0  0  0  0  0  0  0  0  0  0  0
    4.8500   -4.8667    0.0000 N   0  0  0  0  0  0  0  0  0  0  0  0
    5.1792   -3.7792    0.0000 C   0  0  0  0  0  0  0  0  0  0  0  0
    6.1292   -4.5625    0.0000 C   0  0  0  0  0  0  0  0  0  0  0  0
    4.2875   -4.4625    0.0000 C   0  0  0  0  0  0  0  0  0  0  0  0
    4.4917   -3.7792    0.0000 C   0  0  0  0  0  0  0  0  0  0  0  0
    6.1167   -5.3167    0.0000 C   0  0  0  0  0  0  0  0  0  0  0  0
    6.7167   -5.6625    0.0000 C   0  0  0  0  0  0  0  0  0  0  0  0
    6.5917   -4.0417    0.0000 O   0  0  0  0  0  0  0  0  0  0  0  0
    3.5917   -4.6167    0.0000 C   0  0  0  0  0  0  0  0  0  0  0  0
    6.7167   -6.3750    0.0000 O   0  0  0  0  0  0  0  0  0  0  0  0
    5.6875   -3.2375    0.0000 C   0  0  0  0  0  0  0  0  0  0  0  0
    7.2875   -5.2750    0.0000 O   0  0  0  0  0  0  0  0  0  0  0  0
    6.3667   -3.3792    0.0000 C   0  0  0  0  0  0  0  0  0  0  0  0
    4.0042   -3.2792    0.0000 C   0  0  0  0  0  0  0  0  0  0  0  0
    6.8417   -4.9292    0.0000 C   0  0  0  0  0  0  0  0  0  0  0  0
    3.3250   -3.4292    0.0000 C   0  0  0  0  0  0  0  0  0  0  0  0
    3.1250   -4.0917    0.0000 C   0  0  0  0  0  0  0  0  0  0  0  0
    3.3667   -5.2917    0.0000 C   0  0  0  0  0  0  0  0  0  0  0  0
    7.4625   -4.6875    0.0000 C   0  0  0  0  0  0  0  0  0  0  0  0
    2.6792   -5.4292    0.0000 C   0  0  0  0  0  0  0  0  0  0  0  0
  2  1  1  0
  3  1  2  0
  4  1  1  0
  5  2  1  0
  6  3  1  0
  7  4  1  0
  8  7  1  0
  9  4  1  0
 10  5  1  0
 11  8  2  0
 12  3  1  0
 13  8  1  0
 14  9  1  0
 15  6  1  0
 16  4  1  0
 17 15  2  0
 18 10  2  0
 19 10  1  0
 20 16  1  0
 21 19  1  0
  5  6  2  0
 14 12  1  0
 18 17  1  0
M  END
> <chembl_id>
CHEMBL622

> <chembl_pref_name>
ETODOLAC
