
     RDKit          2D

 19 18  0  0  0  0  0  0  0  0999 V2000
    3.2917   -3.0917    0.0000 S   0  0  0  0  0  0  0  0  0  0  0  0
    3.9292   -3.4042    0.0000 O   0  0  0  0  0  0  0  0  0  0  0  0
    2.7042   -3.4875    0.0000 O   0  0  0  0  0  0  0  0  0  0  0  0
    3.6417   -2.4792    0.0000 O   0  0  0  0  0  0  0  0  0  0  0  0
    2.9375   -2.4792    0.0000 O   0  0  0  0  0  0  0  0  0  0  0  0
    2.0875   -3.1792    0.0000 C   0  0  0  0  0  0  0  0  0  0  0  0
    2.0542   -2.4625    0.0000 C   0  0  0  0  0  0  0  0  0  0  0  0
    1.4792   -3.5542    0.0000 C   0  0  0  0  0  0  0  0  0  0  0  0
    0.8625   -3.2000    0.0000 C   0  0  0  0  0  0  0  0  0  0  0  0
    1.4042   -2.1500    0.0000 C   0  0  0  0  0  0  0  0  0  0  0  0
    0.2375   -3.5375    0.0000 C   0  0  0  0  0  0  0  0  0  0  0  0
    0.2500   -4.2542    0.0000 C   0  0  0  0  0  0  0  0  0  0  0  0
   -0.3625   -3.1917    0.0000 C   0  0  0  0  0  0  0  0  0  0  0  0
   -1.5958   -3.1667    0.0000 C   0  0  0  0  0  0  0  0  0  0  0  0
   -0.9833   -3.5250    0.0000 C   0  0  0  0  0  0  0  0  0  0  0  0
    0.8167   -2.5250    0.0000 C   0  0  0  0  0  0  0  0  0  0  0  0
    1.3750   -1.4292    0.0000 C   0  0  0  0  0  0  0  0  0  0  0  0
    0.8375   -4.6167    0.0000 C   0  0  0  0  0  0  0  0  0  0  0  0
   -2.2208   -3.5292    0.0000 C   0  0  0  0  0  0  0  0  0  0  0  0
  2  1  1  0
  3  1  1  0
  4  1  2  0
  5  1  2  0
  6  3  1  0
  7  6  1  0
  8  6  1  0
  9  8  1  0
 10  7  1  0
 11  9  1  0
 12 11  1  0
 13 11  1  0
 14 15  1  0
 15 13  1  0
 16 10  1  0
 17 10  1  0
 18 12  1  0
 19 14  1  0
M  END
> <chembl_id>
CHEMBL1201345

> <chembl_pref_name>
TETRADECYL SULFURIC ACID
