
     RDKit          2D

 17 17  0  0  0  0  0  0  0  0999 V2000
    5.2417   -2.9042    0.0000 Na  0  0  0  0  0 15  0  0  0  0  0  0
    3.9417   -0.6292    0.0000 S   0  0  0  0  0  0  0  0  0  0  0  0
    3.2667   -1.5542    0.0000 N   0  0  0  0  0  0  0  0  0  0  0  0
    4.3583   -1.2042    0.0000 C   0  0  0  0  0  0  0  0  0  0  0  0
    3.2667   -0.8500    0.0000 C   0  0  0  0  0  0  0  0  0  0  0  0
    3.9417   -1.7750    0.0000 C   0  0  0  0  0  0  0  0  0  0  0  0
    2.5625   -1.5542    0.0000 C   0  0  0  0  0  0  0  0  0  0  0  0
    2.5625   -0.8500    0.0000 C   0  0  0  0  0  0  0  0  0  0  0  0
    3.9375   -2.4792    0.0000 C   0  0  0  0  0  0  0  0  0  0  0  0
    3.5792   -0.0125    0.0000 O   0  0  0  0  0  0  0  0  0  0  0  0
    4.2917   -0.0125    0.0000 O   0  0  0  0  0  0  0  0  0  0  0  0
    2.0583   -2.0583    0.0000 O   0  0  0  0  0  0  0  0  0  0  0  0
    4.5458   -2.8417    0.0000 O   0  0  0  0  0  0  0  0  0  0  0  0
    3.3167   -2.8292    0.0000 O   0  0  0  0  0  0  0  0  0  0  0  0
    4.9667   -1.5542    0.0000 C   0  0  0  0  0  0  0  0  0  0  0  0
    4.9667   -0.8417    0.0000 C   0  0  0  0  0  0  0  0  0  0  0  0
    3.2625   -0.1375    0.0000 H   0  0  0  0  0  0  0  0  0  0  0  0
  3  5  1  0
  4  2  1  0
  5  2  1  0
  6  4  1  0
  7  8  1  0
  8  5  1  0
  6  9  1  6
 10  2  2  0
 11  2  2  0
 12  7  2  0
 13  9  1  0
 14  9  2  0
 15  4  1  0
 16  4  1  0
  5 17  1  6
  6  3  1  0
  3  7  1  0
M  CHG  2   1   1  13  -1
M  END
> <chembl_id>
CHEMBL1200944

> <chembl_pref_name>
SULBACTAM SODIUM
