
     RDKit          2D

 27 27  0  0  1  0  0  0  0  0999 V2000
   -2.1583   -1.3625    0.0000 C   0  0  0  0  0  0  0  0  0  0  0  0
   -1.4833   -2.3125    0.0000 C   0  0  0  0  0  0  0  0  0  0  0  0
   -2.5958   -1.9167    0.0000 C   0  0  0  0  0  0  0  0  0  0  0  0
   -1.4833   -1.5667    0.0000 C   0  0  0  0  0  0  0  0  0  0  0  0
   -2.1708   -2.5292    0.0000 C   0  0  0  0  0  0  0  0  0  0  0  0
   -0.8708   -2.6542    0.0000 C   0  0  0  0  0  0  0  0  0  0  0  0
    2.8042   -1.2125    0.0000 C   0  0  0  0  0  0  0  0  0  0  0  0
   -2.3833   -0.6667    0.0000 O   0  0  0  0  0  0  0  0  0  0  0  0
   -0.2458   -2.3000    0.0000 C   0  0  0  0  0  0  0  0  0  0  0  0
    2.8042   -0.5042    0.0000 O   0  0  0  0  0  0  0  0  0  0  0  0
    1.0042   -2.3000    0.0000 C   0  0  0  0  0  0  0  0  0  0  0  0
   -2.3833   -3.2167    0.0000 O   0  0  0  0  0  0  0  0  0  0  0  0
    3.4167   -1.5667    0.0000 O   0  0  0  0  0  0  0  0  0  0  0  0
    1.3875   -1.8000    0.0000 O   0  0  0  0  0  0  0  0  0  0  0  0
    0.3792   -2.6542    0.0000 C   0  0  0  0  0  0  0  0  0  0  0  0
   -0.8708   -1.2125    0.0000 C   0  0  0  0  0  0  0  0  0  0  0  0
    2.1917   -1.5667    0.0000 C   0  0  0  0  0  0  0  0  0  0  0  0
    1.6167   -2.6542    0.0000 C   0  0  0  0  0  0  0  0  0  0  0  0
    0.6292   -1.7667    0.0000 C   0  0  0  0  0  0  0  0  0  0  0  0
    4.0375   -1.2125    0.0000 C   0  0  0  0  0  0  0  0  0  0  0  0
   -0.2583   -1.5667    0.0000 C   0  0  0  0  0  0  0  0  0  0  0  0
    1.5792   -1.2125    0.0000 C   0  0  0  0  0  0  0  0  0  0  0  0
    2.2417   -2.3000    0.0000 C   0  0  0  0  0  0  0  0  0  0  0  0
    2.8667   -2.6542    0.0000 C   0  0  0  0  0  0  0  0  0  0  0  0
    0.9667   -1.5667    0.0000 C   0  0  0  0  0  0  0  0  0  0  0  0
    0.3542   -1.2125    0.0000 C   0  0  0  0  0  0  0  0  0  0  0  0
    3.4792   -2.2917    0.0000 C   0  0  0  0  0  0  0  0  0  0  0  0
  2  4  1  0
  3  1  1  0
  4  1  1  0
  5  3  1  0
  2  6  1  1
  7 17  1  0
  8  1  2  0
  9  6  2  0
 10  7  2  0
 11 15  1  0
  5 12  1  6
 13  7  1  0
 14 11  1  0
 15  9  1  0
  4 16  1  6
 17 22  1  0
 18 11  1  0
 19 11  1  0
 20 13  1  0
 21 16  1  0
 22 25  1  0
 23 18  1  0
 24 23  1  0
 25 26  1  0
 26 21  1  0
 27 24  1  0
  5  2  1  0
M  END
> <chembl_id>
CHEMBL606

> <chembl_pref_name>
MISOPROSTOL
