
     RDKit          2D

  6  4  0  0  0  0  0  0  0  0999 V2000
    0.7792   -2.4792    0.0000 Zn  0  0  0  0  0 15  0  0  0  0  0  0
    0.9542   -1.2083    0.0000 S   0  0  0  0  0  0  0  0  0  0  0  0
    1.3042   -0.5833    0.0000 O   0  0  0  0  0  0  0  0  0  0  0  0
    0.5958   -0.5833    0.0000 O   0  0  0  0  0  0  0  0  0  0  0  0
    0.3417   -1.5583    0.0000 O   0  0  0  0  0  0  0  0  0  0  0  0
    1.5667   -1.5583    0.0000 O   0  0  0  0  0  0  0  0  0  0  0  0
  3  2  2  0
  4  2  2  0
  5  2  1  0
  6  2  1  0
M  CHG  3   1   2   5  -1   6  -1
M  END
> <chembl_id>
CHEMBL1200929

> <chembl_pref_name>
ZINC SULFATE
