
     RDKit          2D

 25 28  0  0  1  0  0  0  0  0999 V2000
   -0.5375   -0.6375    0.0000 C   0  0  0  0  0  0  0  0  0  0  0  0
   -1.4458   -1.1542    0.0000 C   0  0  0  0  0  0  0  0  0  0  0  0
    1.2792    0.4000    0.0000 C   0  0  0  0  0  0  0  0  0  0  0  0
   -1.4625   -2.1917    0.0000 C   0  0  0  0  0  0  0  0  0  0  0  0
    0.3542   -1.1542    0.0000 C   0  0  0  0  0  0  0  0  0  0  0  0
    1.2625   -0.6375    0.0000 C   0  0  0  0  0  0  0  0  0  0  0  0
    2.2667    0.7250    0.0000 C   0  0  0  0  0  0  0  0  0  0  0  0
   -2.3625   -2.7292    0.0000 C   0  0  0  0  0  0  0  0  0  0  0  0
   -0.5375    0.4000    0.0000 C   0  0  0  0  0  0  0  0  0  0  0  0
    0.3542    0.9208    0.0000 C   0  0  0  0  0  0  0  0  0  0  0  0
    4.2667    2.8000    0.0000 N   0  0  0  0  0  0  0  0  0  0  0  0
   -2.3625   -0.6375    0.0000 C   0  0  0  0  0  0  0  0  0  0  0  0
    0.3542   -2.2042    0.0000 C   0  0  0  0  0  0  0  0  0  0  0  0
    2.2667   -0.9625    0.0000 C   0  0  0  0  0  0  0  0  0  0  0  0
    3.8792    1.8458    0.0000 C   0  0  0  0  0  0  0  0  0  0  0  0
   -0.5375   -2.7292    0.0000 C   0  0  0  0  0  0  0  0  0  0  0  0
   -3.2833   -2.2042    0.0000 C   0  0  0  0  0  0  0  0  0  0  0  0
    2.8750   -0.0917    0.0000 C   0  0  0  0  0  0  0  0  0  0  0  0
    3.4750    0.8833    0.0000 C   0  0  0  0  0  0  0  0  0  0  0  0
   -4.2208   -2.7292    0.0000 O   0  0  0  0  0  0  0  0  0  0  0  0
   -3.2833   -1.1542    0.0000 C   0  0  0  0  0  0  0  0  0  0  0  0
    2.2542    1.7708    0.0000 O   0  0  0  0  0  0  0  0  0  0  0  0
    1.1417    1.4000    0.0000 C   0  0  0  0  0  0  0  0  0  0  0  0
    1.6542   -1.6167    0.0000 H   0  0  0  0  0  0  0  0  0  0  0  0
    0.3542   -0.1167    0.0000 H   0  0  0  0  0  0  0  0  0  0  0  0
  2  1  2  0
  3 10  1  0
  4  2  1  0
  5  1  1  0
  6  5  1  0
  7  3  1  0
  8  4  2  0
  9  1  1  0
 10  9  1  0
 11 15  3  0
 12  2  1  0
 13  5  1  0
 14  6  1  0
 15 19  1  0
 16 13  1  0
 17 21  1  0
 18 14  1  0
  7 19  1  6
 20 17  2  0
 21 12  1  0
  7 22  1  1
  3 23  1  1
  6 24  1  6
  5 25  1  1
  3  6  1  0
  4 16  1  0
  7 18  1  0
  8 17  1  0
M  END
> <chembl_id>
CHEMBL1201864

> <chembl_pref_name>
DIENOGEST
