
     RDKit          2D

 10 10  0  0  0  0  0  0  0  0999 V2000
    4.6917   -5.1000    0.0000 N   0  0  0  0  0  0  0  0  0  0  0  0
    4.4750   -4.4292    0.0000 C   0  0  0  0  0  0  0  0  0  0  0  0
    5.3917   -5.1000    0.0000 C   0  0  0  0  0  0  0  0  0  0  0  0
    5.0417   -4.0042    0.0000 O   0  0  0  0  0  0  0  0  0  0  0  0
    5.6167   -4.4292    0.0000 C   0  0  0  0  0  0  0  0  0  0  0  0
    3.7917   -4.2042    0.0000 O   0  0  0  0  0  0  0  0  0  0  0  0
    5.8167   -5.6750    0.0000 O   0  0  0  0  0  0  0  0  0  0  0  0
    4.2750   -5.6750    0.0000 C   0  0  0  0  0  0  0  0  0  0  0  0
    6.2667   -4.7167    0.0000 C   0  0  0  0  0  0  0  0  0  0  0  0
    5.9750   -3.8125    0.0000 C   0  0  0  0  0  0  0  0  0  0  0  0
  2  1  1  0
  3  1  1  0
  4  2  1  0
  5  3  1  0
  6  2  2  0
  7  3  2  0
  8  1  1  0
  9  5  1  0
 10  5  1  0
  4  5  1  0
M  END
> <chembl_id>
CHEMBL695

> <chembl_pref_name>
TRIMETHADIONE
