
     RDKit          2D

 40 44  0  0  0  0  0  0  0  0999 V2000
    3.6707   -2.1948    0.0000 N   0  0  0  0  0  0  0  0  0  0  0  0
    4.2228   -1.5817    0.0000 C   0  0  0  0  0  0  0  0  0  0  0  0
    3.9678   -0.7970    0.0000 C   0  0  0  0  0  0  0  0  0  0  0  0
    4.5199   -0.1840    0.0000 N   0  0  0  0  0  0  0  0  0  0  0  0
    5.0297   -1.7532    0.0000 O   0  0  0  0  0  0  0  0  0  0  0  0
    5.3268   -0.3555    0.0000 C   0  0  0  0  0  0  0  0  0  0  0  0
    5.8789    0.2576    0.0000 C   0  0  0  0  0  0  0  0  0  0  0  0
    5.6239    1.0422    0.0000 N   0  0  0  0  0  0  0  0  0  0  0  0
    4.2649    0.6007    0.0000 C   0  0  0  0  0  0  0  0  0  0  0  0
    4.8170    1.2138    0.0000 C   0  0  0  0  0  0  0  0  0  0  0  0
    3.3736   -3.5925    0.0000 C   0  0  0  0  0  0  0  0  0  0  0  0
    3.9257   -2.9794    0.0000 C   0  0  0  0  0  0  0  0  0  0  0  0
    3.6286   -4.3771    0.0000 C   0  0  0  0  0  0  0  0  0  0  0  0
    4.4356   -4.5486    0.0000 C   0  0  0  0  0  0  0  0  0  0  0  0
    4.6905   -5.3332    0.0000 N   0  0  0  0  0  0  0  0  0  0  0  0
    4.9876   -3.9355    0.0000 C   0  0  0  0  0  0  0  0  0  0  0  0
    4.7326   -3.1509    0.0000 C   0  0  0  0  0  0  0  0  0  0  0  0
    7.1536   -3.6655    0.0000 C   0  0  0  0  0  0  0  0  0  0  0  0
    5.7946   -4.1071    0.0000 C   0  0  0  0  0  0  0  0  0  0  0  0
    6.0495   -4.8917    0.0000 C   0  0  0  0  0  0  0  0  0  0  0  0
    5.4975   -5.5048    0.0000 C   0  0  0  0  0  0  0  0  0  0  0  0
    6.5370   -6.5443    0.0000 C   0  0  0  0  0  0  0  0  0  0  0  0
    5.7524   -6.2894    0.0000 C   0  0  0  0  0  0  0  0  0  0  0  0
    7.2515   -6.1318    0.0000 C   0  0  0  0  0  0  0  0  0  0  0  0
    7.9660   -6.5443    0.0000 C   0  0  0  0  0  0  0  0  0  0  0  0
    7.9660   -7.3693    0.0000 C   0  0  0  0  0  0  0  0  0  0  0  0
    8.6804   -7.7818    0.0000 C   0  0  0  0  0  0  0  0  0  0  0  0
    8.6804   -8.6068    0.0000 O   0  0  0  0  0  0  0  0  0  0  0  0
    9.3949   -7.3693    0.0000 O   0  0  0  0  0  0  0  0  0  0  0  0
    7.2515   -7.7818    0.0000 C   0  0  0  0  0  0  0  0  0  0  0  0
    6.5370   -7.3693    0.0000 C   0  0  0  0  0  0  0  0  0  0  0  0
    5.7524   -7.6243    0.0000 N   0  0  0  0  0  0  0  0  0  0  0  0
    5.2675   -6.9568    0.0000 C   0  0  0  0  0  0  0  0  0  0  0  0
    4.4425   -6.9568    0.0000 O   0  0  0  0  0  0  0  0  0  0  0  0
    7.4085   -4.4501    0.0000 C   0  0  0  0  0  0  0  0  0  0  0  0
    6.8565   -5.0632    0.0000 C   0  0  0  0  0  0  0  0  0  0  0  0
    2.8638   -2.0232    0.0000 C   0  0  0  0  0  0  0  0  0  0  0  0
    6.1760    1.6553    0.0000 C   0  0  0  0  0  0  0  0  0  0  0  0
    9.3949   -9.0193    0.0000 C   0  0  0  0  0  0  0  0  0  0  0  0
    6.3466   -3.4940    0.0000 C   0  0  0  0  0  0  0  0  0  0  0  0
  1  2  1  0
  1 37  1  0
  2  5  2  0
  3  2  1  0
  4  3  1  0
  6  4  1  0
  6  7  1  0
  7  8  1  0
  8 38  1  0
  9  4  1  0
  9 10  1  0
 10  8  1  0
 11 12  2  0
 11 13  1  0
 12  1  1  0
 13 14  2  0
 14 15  1  0
 14 16  1  0
 16 17  2  0
 17 12  1  0
 18 35  1  0
 19 20  2  0
 21 20  1  0
 21 15  1  0
 22 23  1  0
 22 24  1  0
 23 21  2  0
 25 24  2  0
 25 26  1  0
 26 30  2  0
 27 26  1  0
 27 28  1  0
 29 27  2  0
 30 31  1  0
 31 22  2  0
 32 31  1  0
 32 33  1  0
 33 23  1  0
 33 34  2  0
 35 36  2  0
 36 20  1  0
 39 28  1  0
 40 18  2  0
 19 40  1  0
M  END
> <chembl_id>
CHEMBL502835

> <chembl_pref_name>
NINTEDANIB
