
     RDKit          2D

 37 39  0  0  0  0  0  0  0  0999 V2000
    6.9875   -1.4375    0.0000 Na  0  0  0  0  0 15  0  0  0  0  0  0
    1.1667   -2.7000    0.0000 C   0  0  0  0  0  0  0  0  0  0  0  0
    1.8417   -2.4792    0.0000 C   0  0  0  0  0  0  0  0  0  0  0  0
   -0.6458   -3.8125    0.0000 C   0  0  0  0  0  0  0  0  0  0  0  0
    0.5750   -3.7792    0.0000 C   0  0  0  0  0  0  0  0  0  0  0  0
    1.1875   -3.4000    0.0000 C   0  0  0  0  0  0  0  0  0  0  0  0
   -0.0333   -3.4292    0.0000 C   0  0  0  0  0  0  0  0  0  0  0  0
   -0.6250   -4.5042    0.0000 C   0  0  0  0  0  0  0  0  0  0  0  0
    0.5417   -2.3667    0.0000 C   0  0  0  0  0  0  0  0  0  0  0  0
   -0.0458   -2.7167    0.0000 C   0  0  0  0  0  0  0  0  0  0  0  0
    1.8375   -1.7750    0.0000 C   0  0  0  0  0  0  0  0  0  0  0  0
   -1.2458   -4.8792    0.0000 C   0  0  0  0  0  0  0  0  0  0  0  0
    2.2750   -3.0250    0.0000 C   0  0  0  0  0  0  0  0  0  0  0  0
    1.8750   -3.6167    0.0000 C   0  0  0  0  0  0  0  0  0  0  0  0
    0.5750   -4.4917    0.0000 C   0  0  0  0  0  0  0  0  0  0  0  0
   -1.2625   -3.4542    0.0000 C   0  0  0  0  0  0  0  0  0  0  0  0
    5.5167   -1.7500    0.0000 C   0  0  0  0  0  0  0  0  0  0  0  0
   -0.0125   -4.8667    0.0000 C   0  0  0  0  0  0  0  0  0  0  0  0
    3.6750   -1.4042    0.0000 C   0  0  0  0  0  0  0  0  0  0  0  0
   -1.8708   -4.5417    0.0000 C   0  0  0  0  0  0  0  0  0  0  0  0
    2.4417   -1.4167    0.0000 C   0  0  0  0  0  0  0  0  0  0  0  0
    6.1292   -1.3917    0.0000 O   0  0  0  0  0  0  0  0  0  0  0  0
    1.2167   -1.4167    0.0000 O   0  0  0  0  0  0  0  0  0  0  0  0
    3.0625   -1.7667    0.0000 O   0  0  0  0  0  0  0  0  0  0  0  0
    5.5167   -2.4542    0.0000 O   0  0  0  0  0  0  0  0  0  0  0  0
    3.6667   -0.7000    0.0000 O   0  0  0  0  0  0  0  0  0  0  0  0
   -2.4958   -4.9167    0.0000 O   0  0  0  0  0  0  0  0  0  0  0  0
    2.4542   -2.1167    0.0000 O   0  0  0  0  0  0  0  0  0  0  0  0
    1.1792   -1.9917    0.0000 C   0  0  0  0  0  0  0  0  0  0  0  0
   -1.8875   -3.8292    0.0000 C   0  0  0  0  0  0  0  0  0  0  0  0
   -0.6833   -2.4000    0.0000 O   0  0  0  0  0  0  0  0  0  0  0  0
    4.9000   -1.4000    0.0000 C   0  0  0  0  0  0  0  0  0  0  0  0
    4.2875   -1.7542    0.0000 C   0  0  0  0  0  0  0  0  0  0  0  0
   -0.6583   -3.1042    0.0000 C   0  0  0  0  0  0  0  0  0  0  0  0
    0.5542   -3.0417    0.0000 H   0  0  0  0  0  0  0  0  0  0  0  0
   -0.0208   -4.1042    0.0000 H   0  0  0  0  0  0  0  0  0  0  0  0
    1.2042   -4.0375    0.0000 H   0  0  0  0  0  0  0  0  0  0  0  0
  3  2  1  0
  4  7  1  0
  5  6  1  0
  6  2  1  0
  7 10  1  0
  8  4  1  0
  9  2  1  0
 10  9  1  0
 11  3  1  0
 12  8  2  0
 13  3  1  0
 14  6  1  0
 15  5  1  0
 16  4  1  0
 17 32  1  0
 18 15  1  0
 19 24  1  0
 20 30  1  0
 21 11  1  0
 22 17  1  0
 23 11  2  0
 24 21  1  0
 25 17  2  0
 26 19  2  0
 27 20  2  0
  3 28  1  6
  2 29  1  1
 30 16  1  0
 10 31  1  1
 32 33  1  0
 33 19  1  0
  4 34  1  1
  5 35  1  1
  7 36  1  6
  6 37  1  6
 13 14  1  0
  7  5  1  0
  8 18  1  0
 20 12  1  0
M  CHG  2   1   1  22  -1
M  END
> <chembl_id>
CHEMBL1200495

> <chembl_pref_name>
HYDROCORTISONE SODIUM SUCCINATE
