
     RDKit          2D

 29 24  0  0  0  0  0  0  0  0999 V2000
    5.2676  -11.3363    0.0000 C   0  0  0  0  0  0  0  0  0  0  0  0
    5.9810  -11.7440    0.0000 C   0  0  0  0  0  0  0  0  0  0  0  0
    4.5493  -11.7489    0.0000 C   0  0  0  0  0  0  0  0  0  0  0  0
    5.6849  -10.6132    0.0000 C   0  0  0  0  0  0  0  0  0  0  0  0
    5.9810  -12.5642    0.0000 C   0  0  0  0  0  0  0  0  0  0  0  0
    3.8358  -11.3363    0.0000 C   0  0  0  0  0  0  0  0  0  0  0  0
    6.5148  -10.6132    0.0000 O   0  0  0  0  0  0  0  0  0  0  0  0
    6.6944  -12.9864    0.0000 O   0  0  0  0  0  0  0  0  0  0  0  0
    5.2676   -9.8998    0.0000 O   0  0  0  0  0  0  0  0  0  0  0  0
    5.2627  -12.9719    0.0000 O   0  0  0  0  0  0  0  0  0  0  0  0
    3.8358  -10.5113    0.0000 O   0  0  0  0  0  0  0  0  0  0  0  0
    4.8599  -10.6132    0.0000 O   0  0  0  0  0  0  0  0  0  0  0  0
    3.1224  -11.7489    0.0000 O   0  0  0  0  0  0  0  0  0  0  0  0
    4.6057   -7.4981    0.0000 C   0  0  0  0  0  0  0  0  0  0  0  0
    5.3191   -7.9058    0.0000 C   0  0  0  0  0  0  0  0  0  0  0  0
    3.8874   -7.9107    0.0000 C   0  0  0  0  0  0  0  0  0  0  0  0
    5.0230   -6.7751    0.0000 C   0  0  0  0  0  0  0  0  0  0  0  0
    5.3191   -8.7260    0.0000 C   0  0  0  0  0  0  0  0  0  0  0  0
    3.1740   -7.4981    0.0000 C   0  0  0  0  0  0  0  0  0  0  0  0
    5.8529   -6.7751    0.0000 O   0  0  0  0  0  0  0  0  0  0  0  0
    6.0325   -9.1483    0.0000 O   0  0  0  0  0  0  0  0  0  0  0  0
    4.6057   -6.0616    0.0000 O   0  0  0  0  0  0  0  0  0  0  0  0
    4.6008   -9.1337    0.0000 O   0  0  0  0  0  0  0  0  0  0  0  0
    3.1740   -6.6731    0.0000 O   0  0  0  0  0  0  0  0  0  0  0  0
    4.1980   -6.7751    0.0000 O   0  0  0  0  0  0  0  0  0  0  0  0
    2.4606   -7.9107    0.0000 O   0  0  0  0  0  0  0  0  0  0  0  0
    7.1536   -8.1873    0.0000 Mg  0  0  0  0  0 15  0  0  0  0  0  0
    8.2500   -8.7321    0.0000 Mg  0  0  0  0  0 15  0  0  0  0  0  0
    7.4732   -9.9375    0.0000 Mg  0  0  0  0  0 15  0  0  0  0  0  0
  2  1  1  0
  3  1  1  0
  4  1  1  0
  5  2  1  0
  6  3  1  0
  7  4  1  0
  8  5  1  0
  9  4  2  0
 10  5  2  0
 11  6  2  0
 12  1  1  0
 13  6  1  0
 15 14  1  0
 16 14  1  0
 17 14  1  0
 18 15  1  0
 19 16  1  0
 20 17  1  0
 21 18  1  0
 22 17  2  0
 23 18  2  0
 24 19  2  0
 25 14  1  0
 26 19  1  0
M  CHG  8   7  -1   8  -1  13  -1  20  -1  21  -1  26  -1  27   2  28   2
M  CHG  1  29   2
M  END
> <chembl_id>
CHEMBL3989480

> <chembl_pref_name>
MAGNESIUM CITRATE
