
     RDKit          2D

 10  9  0  0  0  0  0  0  0  0999 V2000
   15.7815   -9.3626    0.0000 C   0  0  0  0  0  0  0  0  0  0  0  0
   15.0670   -9.7751    0.0000 C   0  0  0  0  0  0  0  0  0  0  0  0
   15.0670  -10.6001    0.0000 C   0  0  0  0  0  0  0  0  0  0  0  0
   14.3525  -11.0126    0.0000 C   0  0  0  0  0  0  0  0  0  0  0  0
   14.3525  -11.8376    0.0000 C   0  0  0  0  0  0  0  0  0  0  0  0
   13.6381  -10.6001    0.0000 C   0  0  0  0  0  0  0  0  0  0  0  0
   13.6381   -9.7751    0.0000 C   0  0  0  0  0  0  0  0  0  0  0  0
   12.9236   -9.3626    0.0000 C   0  0  0  0  0  0  0  0  0  0  0  0
   13.6381  -12.2501    0.0000 O   0  0  0  0  0  0  0  0  0  0  0  0
   15.0670  -12.2501    0.0000 O   0  0  0  0  0  0  0  0  0  0  0  0
  1  2  1  0
  2  3  1  0
  3  4  1  0
  4  5  1  0
  4  6  1  0
  6  7  1  0
  7  8  1  0
  5  9  2  0
  5 10  1  0
M  END
> <chembl_id>
CHEMBL109

> <chembl_pref_name>
VALPROIC ACID
