
     RDKit          2D

  4  3  0  0  0  0  0  0  0  0999 V2000
    4.9292   -4.8667    0.0000 C   0  0  0  0  0  0  0  0  0  0  0  0
    4.9167   -4.1625    0.0000 O   0  0  0  0  0  0  0  0  0  0  0  0
    4.3167   -5.2500    0.0000 N   0  0  0  0  0  0  0  0  0  0  0  0
    5.5500   -5.2125    0.0000 N   0  0  0  0  0  0  0  0  0  0  0  0
  2  1  2  0
  3  1  1  0
  4  1  1  0
M  END
> <chembl_id>
CHEMBL985

> <chembl_pref_name>
UREA
