
     RDKit          2D

 27 28  0  0  1  0  0  0  0  0999 V2000
    2.3375   -6.8917    0.0000 N   0  0  0  0  0  0  0  0  0  0  0  0
    1.7250   -6.5417    0.0000 C   0  0  0  0  0  0  0  0  0  0  0  0
    2.5500   -7.5667    0.0000 C   0  0  0  0  0  0  0  0  0  0  0  0
    0.5000   -6.5417    0.0000 N   0  0  0  0  0  0  0  0  0  0  0  0
    1.1167   -6.8917    0.0000 C   0  0  0  0  0  0  0  0  0  0  0  0
    2.1958   -8.1875    0.0000 C   0  0  0  0  0  0  0  0  0  0  0  0
   -0.1208   -7.6042    0.0000 C   0  0  0  0  0  0  0  0  0  0  0  0
   -0.1125   -6.8917    0.0000 C   0  0  0  0  0  0  0  0  0  0  0  0
    1.7250   -5.8292    0.0000 O   0  0  0  0  0  0  0  0  0  0  0  0
    2.5542   -8.7917    0.0000 O   0  0  0  0  0  0  0  0  0  0  0  0
    0.4917   -7.9625    0.0000 O   0  0  0  0  0  0  0  0  0  0  0  0
   -0.7250   -6.5417    0.0000 C   0  0  0  0  0  0  0  0  0  0  0  0
    2.9125   -6.4792    0.0000 C   0  0  0  0  0  0  0  0  0  0  0  0
    1.4917   -8.1917    0.0000 O   0  0  0  0  0  0  0  0  0  0  0  0
   -0.7333   -7.9500    0.0000 O   0  0  0  0  0  0  0  0  0  0  0  0
   -1.3375   -6.8917    0.0000 C   0  0  0  0  0  0  0  0  0  0  0  0
    3.2542   -7.5750    0.0000 C   0  0  0  0  0  0  0  0  0  0  0  0
   -1.9583   -6.5417    0.0000 C   0  0  0  0  0  0  0  0  0  0  0  0
    3.4792   -6.9042    0.0000 C   0  0  0  0  0  0  0  0  0  0  0  0
    1.1167   -7.6042    0.0000 C   0  0  0  0  0  0  0  0  0  0  0  0
   -1.3458   -7.5917    0.0000 C   0  0  0  0  0  0  0  0  0  0  0  0
   -2.5625   -6.8917    0.0000 C   0  0  0  0  0  0  0  0  0  0  0  0
   -1.9500   -5.8292    0.0000 C   0  0  0  0  0  0  0  0  0  0  0  0
   -1.9667   -7.9375    0.0000 C   0  0  0  0  0  0  0  0  0  0  0  0
   -2.5625   -5.4792    0.0000 C   0  0  0  0  0  0  0  0  0  0  0  0
   -3.1750   -6.5417    0.0000 C   0  0  0  0  0  0  0  0  0  0  0  0
   -3.1833   -5.8292    0.0000 C   0  0  0  0  0  0  0  0  0  0  0  0
  2  1  1  0
  3  1  1  0
  5  4  1  0
  5  2  1  0
  3  6  1  1
  8  7  1  0
  8  4  1  6
  9  2  2  0
 10  6  2  0
 11  7  2  0
 12  8  1  0
 13  1  1  0
 14  6  1  0
 15  7  1  0
 16 12  1  0
 17  3  1  0
 18 16  1  0
 19 13  1  0
  5 20  1  6
 21 15  1  0
 22 18  1  0
 23 18  2  0
 24 21  1  0
 25 23  1  0
 26 22  2  0
 27 25  2  0
 19 17  1  0
 27 26  1  0
M  END
> <chembl_id>
CHEMBL578

> <chembl_pref_name>
ENALAPRIL
