
     RDKit          2D

 71 78  0  0  0  0  0  0  0  0999 V2000
    6.2578    1.2462    0.0000 C   0  0  0  0  0  0  0  0  0  0  0  0
    6.9712    1.6581    0.0000 S   0  0  0  0  0  0  0  0  0  0  0  0
    7.6846    1.2462    0.0000 O   0  0  0  0  0  0  0  0  0  0  0  0
    6.5532    2.3778    0.0000 O   0  0  0  0  0  0  0  0  0  0  0  0
    7.3769    2.3778    0.0000 O   0  0  0  0  0  0  0  0  0  0  0  0
    3.2167   -0.4708    0.0000 C   0  0  0  0  0  0  0  0  0  0  0  0
    3.9287   -0.8792    0.0000 C   0  0  0  0  0  0  0  0  0  0  0  0
    4.6407   -0.4708    0.0000 C   0  0  0  0  0  0  0  0  0  0  0  0
    4.6407    0.3542    0.0000 O   0  0  0  0  0  0  0  0  0  0  0  0
    3.2167    0.3542    0.0000 C   0  0  0  0  0  0  0  0  0  0  0  0
    3.9287    0.7708    0.0000 C   0  0  0  0  0  0  0  0  0  0  0  0
    3.9239    1.5912    0.0000 C   0  0  0  0  0  0  0  0  0  0  0  0
    3.2087    2.0012    0.0000 C   0  0  0  0  0  0  0  0  0  0  0  0
    2.4967    1.5845    0.0000 C   0  0  0  0  0  0  0  0  0  0  0  0
    2.4998    0.7579    0.0000 O   0  0  0  0  0  0  0  0  0  0  0  0
    1.7802    1.9936    0.0000 C   0  0  0  0  0  0  0  0  0  0  0  0
    1.0677    1.5776    0.0000 C   0  0  0  0  0  0  0  0  0  0  0  0
    0.3513    1.9866    0.0000 C   0  0  0  0  0  0  0  0  0  0  0  0
    1.0717    0.7526    0.0000 O   0  0  0  0  0  0  0  0  0  0  0  0
   -0.3612    1.5707    0.0000 C   0  0  0  0  0  0  0  0  0  0  0  0
   -1.1175    1.9079    0.0000 C   0  0  0  0  0  0  0  0  0  0  0  0
   -1.6666    1.2921    0.0000 C   0  0  0  0  0  0  0  0  0  0  0  0
   -1.2506    0.5796    0.0000 O   0  0  0  0  0  0  0  0  0  0  0  0
   -0.4445    0.7551    0.0000 C   0  0  0  0  0  0  0  0  0  0  0  0
   -1.2908    2.7145    0.0000 O   0  0  0  0  0  0  0  0  0  0  0  0
   -0.6789    3.2678    0.0000 C   0  0  0  0  0  0  0  0  0  0  0  0
   -2.4875    1.3743    0.0000 C   0  0  0  0  0  0  0  0  0  0  0  0
   -2.8267    2.1264    0.0000 C   0  0  0  0  0  0  0  0  0  0  0  0
   -3.6476    2.2086    0.0000 C   0  0  0  0  0  0  0  0  0  0  0  0
   -3.9868    2.9607    0.0000 N   0  0  0  0  0  0  0  0  0  0  0  0
   -2.3450    2.7962    0.0000 O   0  0  0  0  0  0  0  0  0  0  0  0
    0.1707    0.2055    0.0000 C   0  0  0  0  0  0  0  0  0  0  0  0
    0.0024   -0.6021    0.0000 C   0  0  0  0  0  0  0  0  0  0  0  0
   -0.7814   -0.8553    0.0000 O   0  0  0  0  0  0  0  0  0  0  0  0
   -0.9509   -1.6591    0.0000 C   0  0  0  0  0  0  0  0  0  0  0  0
   -0.3382   -2.2121    0.0000 C   0  0  0  0  0  0  0  0  0  0  0  0
    0.4469   -1.9556    0.0000 C   0  0  0  0  0  0  0  0  0  0  0  0
    0.6194   -1.1462    0.0000 C   0  0  0  0  0  0  0  0  0  0  0  0
    0.7125   -0.1833    0.0000 H   0  0  0  0  0  0  0  0  0  0  0  0
   -1.7355   -1.9141    0.0000 C   0  0  0  0  0  0  0  0  0  0  0  0
    1.4027   -0.8873    0.0000 C   0  0  0  0  0  0  0  0  0  0  0  0
    1.0603   -2.5073    0.0000 C   0  0  0  0  0  0  0  0  0  0  0  0
   -1.7417   -2.7375    0.0000 C   0  0  0  0  0  0  0  0  0  0  0  0
   -1.0303   -3.1554    0.0000 C   0  0  0  0  0  0  0  0  0  0  0  0
   -0.9488   -3.9776    0.0000 C   0  0  0  0  0  0  0  0  0  0  0  0
   -0.1432   -4.1552    0.0000 C   0  0  0  0  0  0  0  0  0  0  0  0
    0.2740   -3.4448    0.0000 C   0  0  0  0  0  0  0  0  0  0  0  0
   -0.2728   -2.8266    0.0000 O   0  0  0  0  0  0  0  0  0  0  0  0
   -1.5656   -4.5255    0.0000 C   0  0  0  0  0  0  0  0  0  0  0  0
    1.0851   -3.5953    0.0000 C   0  0  0  0  0  0  0  0  0  0  0  0
    1.6214   -2.9680    0.0000 C   0  0  0  0  0  0  0  0  0  0  0  0
    4.6375    1.1875    0.0000 H   0  0  0  0  0  0  0  0  0  0  0  0
    2.5000   -0.0542    0.0000 H   0  0  0  0  0  0  0  0  0  0  0  0
    2.5028   -0.8844    0.0000 O   0  0  0  0  0  0  0  0  0  0  0  0
    2.8417   -2.2417    0.0000 C   0  0  0  0  0  0  0  0  0  0  0  0
    5.3546   -0.8844    0.0000 C   0  0  0  0  0  0  0  0  0  0  0  0
    4.9500   -2.0375    0.0000 C   0  0  0  0  0  0  0  0  0  0  0  0
    4.2333   -2.4458    0.0000 C   0  0  0  0  0  0  0  0  0  0  0  0
    3.4375   -1.4583    0.0000 O   0  0  0  0  0  0  0  0  0  0  0  0
    3.9208   -1.7042    0.0000 O   0  0  0  0  0  0  0  0  0  0  0  0
    6.1117   -0.5567    0.0000 H   0  0  0  0  0  0  0  0  0  0  0  0
    5.3500   -0.0542    0.0000 H   0  0  0  0  0  0  0  0  0  0  0  0
    3.9208   -0.0542    0.0000 H   0  0  0  0  0  0  0  0  0  0  0  0
    2.3917   -0.4667    0.0000 H   0  0  0  0  0  0  0  0  0  0  0  0
   -0.3667    2.3958    0.0000 H   0  0  0  0  0  0  0  0  0  0  0  0
    2.4917    2.4125    0.0000 H   0  0  0  0  0  0  0  0  0  0  0  0
   -0.8625    0.0458    0.0000 H   0  0  0  0  0  0  0  0  0  0  0  0
   -1.6708   -1.2458    0.0000 H   0  0  0  0  0  0  0  0  0  0  0  0
   -1.7500   -3.5625    0.0000 H   0  0  0  0  0  0  0  0  0  0  0  0
    0.6792   -4.1542    0.0000 H   0  0  0  0  0  0  0  0  0  0  0  0
    5.5835   -2.5660    0.0000 H   0  0  0  0  0  0  0  0  0  0  0  0
  1  2  1  0
  2  3  1  0
  2  4  2  0
  2  5  2  0
 34 35  1  0
 35 36  1  0
 36 37  1  0
 37 38  1  0
  8  9  1  0
 33 39  1  1
 11  9  1  0
 35 40  1  0
 10 15  1  0
 38 41  2  0
 11 12  1  0
 37 42  1  6
 21 22  1  0
 40 43  1  0
 22 23  1  0
 44 43  1  0
 44 45  1  0
 23 24  1  0
 24 20  1  0
 12 13  1  0
 21 25  1  6
 45 46  1  0
 46 47  1  0
 47 48  1  0
 48 44  1  0
 13 14  1  0
 45 49  2  0
 25 26  1  0
 47 50  1  0
 14 15  1  0
 50 51  1  0
 22 27  1  6
 11 52  1  1
 10 11  1  0
 10 53  1  6
 27 28  1  0
  6 54  1  0
 14 16  1  0
 54 55  1  0
 51 55  1  0
 28 29  1  0
 56  8  1  0
 57 56  1  0
 29 30  1  0
 57 58  1  0
 55 58  1  0
 16 17  1  0
 55 59  1  1
 56 59  1  0
 28 31  1  1
  7 60  1  0
  6 10  1  0
 56 61  1  1
 24 32  1  0
  8 62  1  6
 57 60  1  0
 17 18  1  0
 32 33  1  0
  7 63  1  6
 33 34  1  0
  6 64  1  6
  7  6  1  0
 20 65  1  6
 17 19  2  0
 14 66  1  6
  8  7  1  0
 24 67  1  1
 20 18  1  0
 35 68  1  1
 20 21  1  0
 44 69  1  1
 33 38  1  0
 47 70  1  6
 57 71  1  6
M  END
> <chembl_id>
CHEMBL1683544

> <chembl_pref_name>
ERIBULIN MESYLATE
