
     RDKit          2D

 74 77  0  0  0  0  0  0  0  0999 V2000
   12.6302   -3.8507    0.0000 C   0  0  0  0  0  0  0  0  0  0  0  0
   13.3446   -4.2632    0.0000 C   0  0  0  0  0  0  0  0  0  0  0  0
   13.3446   -5.0882    0.0000 C   0  0  0  0  0  0  0  0  0  0  0  0
   12.6302   -5.5007    0.0000 C   0  0  0  0  0  0  0  0  0  0  0  0
   11.9157   -5.0882    0.0000 C   0  0  0  0  0  0  0  0  0  0  0  0
   11.9157   -4.2632    0.0000 C   0  0  0  0  0  0  0  0  0  0  0  0
   14.0591   -5.5007    0.0000 O   0  0  0  0  0  0  0  0  0  0  0  0
   12.6302   -6.3257    0.0000 Cl  0  0  0  0  0  0  0  0  0  0  0  0
   11.2012   -5.5007    0.0000 C   0  0  0  0  0  0  0  0  0  0  0  0
   10.4868   -5.0882    0.0000 C   0  0  0  0  0  0  0  0  0  0  0  0
   12.6302   -3.0257    0.0000 O   0  0  0  0  0  0  0  0  0  0  0  0
   14.0591   -3.8507    0.0000 Cl  0  0  0  0  0  0  0  0  0  0  0  0
   11.2012   -3.8507    0.0000 C   0  0  0  0  0  0  0  0  0  0  0  0
   10.4868   -4.2632    0.0000 O   0  0  0  0  0  0  0  0  0  0  0  0
    8.3433   -1.3757    0.0000 O   0  0  0  0  0  0  0  0  0  0  0  0
    9.7723   -0.5507    0.0000 O   0  0  0  0  0  0  0  0  0  0  0  0
   11.2012   -1.3757    0.0000 O   0  0  0  0  0  0  0  0  0  0  0  0
   11.2012   -3.0257    0.0000 O   0  0  0  0  0  0  0  0  0  0  0  0
    9.0578   -2.6132    0.0000 O   0  0  0  0  0  0  0  0  0  0  0  0
    9.0578   -1.7882    0.0000 C   0  0  0  0  0  0  0  0  0  0  0  0
    9.7723   -1.3757    0.0000 C   0  0  0  0  0  0  0  0  0  0  0  0
   10.4868   -1.7882    0.0000 C   0  0  0  0  0  0  0  0  0  0  0  0
   10.4868   -2.6132    0.0000 C   0  0  0  0  0  0  0  0  0  0  0  0
    9.7723   -3.0257    0.0000 C   0  0  0  0  0  0  0  0  0  0  0  0
    9.7723   -3.8507    0.0000 C   0  0  0  0  0  0  0  0  0  0  0  0
   10.4868   -0.1382    0.0000 C   0  0  0  0  0  0  0  0  0  0  0  0
    6.9144   -1.3757    0.0000 C   0  0  0  0  0  0  0  0  0  0  0  0
    6.1999   -1.7882    0.0000 C   0  0  0  0  0  0  0  0  0  0  0  0
    6.9144   -0.5507    0.0000 C   0  0  0  0  0  0  0  0  0  0  0  0
    6.1999   -2.6132    0.0000 O   0  0  0  0  0  0  0  0  0  0  0  0
    5.4855   -1.3757    0.0000 O   0  0  0  0  0  0  0  0  0  0  0  0
    7.6289   -0.1382    0.0000 C   0  0  0  0  0  0  0  0  0  0  0  0
    7.6289    0.6868    0.0000 C   0  0  0  0  0  0  0  0  0  0  0  0
    8.3433    1.0993    0.0000 C   0  0  0  0  0  0  0  0  0  0  0  0
    8.3433    1.9243    0.0000 C   0  0  0  0  0  0  0  0  0  0  0  0
    7.6289    2.3368    0.0000 C   0  0  0  0  0  0  0  0  0  0  0  0
    9.0578    2.3368    0.0000 O   0  0  0  0  0  0  0  0  0  0  0  0
    6.9144    1.9243    0.0000 C   0  0  0  0  0  0  0  0  0  0  0  0
    7.6289    3.1618    0.0000 C   0  0  0  0  0  0  0  0  0  0  0  0
    6.1999    2.3368    0.0000 C   0  0  0  0  0  0  0  0  0  0  0  0
    5.4855    1.9243    0.0000 C   0  0  0  0  0  0  0  0  0  0  0  0
    6.1999    3.1618    0.0000 C   0  0  0  0  0  0  0  0  0  0  0  0
    5.4855    1.0993    0.0000 C   0  0  0  0  0  0  0  0  0  0  0  0
    4.7710    0.6868    0.0000 C   0  0  0  0  0  0  0  0  0  0  0  0
    6.1999    0.6868    0.0000 C   0  0  0  0  0  0  0  0  0  0  0  0
    4.7710   -0.1382    0.0000 C   0  0  0  0  0  0  0  0  0  0  0  0
    5.4855   -0.5507    0.0000 C   0  0  0  0  0  0  0  0  0  0  0  0
    4.0565   -0.5507    0.0000 C   0  0  0  0  0  0  0  0  0  0  0  0
    4.0565   -1.3757    0.0000 C   0  0  0  0  0  0  0  0  0  0  0  0
    4.7710   -1.7882    0.0000 C   0  0  0  0  0  0  0  0  0  0  0  0
    4.7710   -2.6132    0.0000 C   0  0  0  0  0  0  0  0  0  0  0  0
    5.4855   -3.0257    0.0000 C   0  0  0  0  0  0  0  0  0  0  0  0
    4.0565   -3.0257    0.0000 O   0  0  0  0  0  0  0  0  0  0  0  0
    4.7710    2.3368    0.0000 O   0  0  0  0  0  0  0  0  0  0  0  0
    3.3420    3.1618    0.0000 O   0  0  0  0  0  0  0  0  0  0  0  0
    1.9131    2.3368    0.0000 O   0  0  0  0  0  0  0  0  0  0  0  0
    1.9131    0.6868    0.0000 O   0  0  0  0  0  0  0  0  0  0  0  0
    4.0565    1.0993    0.0000 O   0  0  0  0  0  0  0  0  0  0  0  0
    4.0565    1.9243    0.0000 C   0  0  0  0  0  0  0  0  0  0  0  0
    3.3420    2.3368    0.0000 C   0  0  0  0  0  0  0  0  0  0  0  0
    2.6276    1.9243    0.0000 C   0  0  0  0  0  0  0  0  0  0  0  0
    2.6276    1.0993    0.0000 C   0  0  0  0  0  0  0  0  0  0  0  0
    3.3420    0.6868    0.0000 C   0  0  0  0  0  0  0  0  0  0  0  0
    3.7294   -0.0416    0.0000 C   0  0  0  0  0  0  0  0  0  0  0  0
    1.1986    1.0993    0.0000 C   0  0  0  0  0  0  0  0  0  0  0  0
    1.1986    1.9243    0.0000 O   0  0  0  0  0  0  0  0  0  0  0  0
    0.4842    0.6868    0.0000 C   0  0  0  0  0  0  0  0  0  0  0  0
    0.4842   -0.1382    0.0000 C   0  0  0  0  0  0  0  0  0  0  0  0
   -0.2303    1.0993    0.0000 C   0  0  0  0  0  0  0  0  0  0  0  0
    7.6289   -1.7882    0.0000 C   0  0  0  0  0  0  0  0  0  0  0  0
    2.9547   -0.0416    0.0000 C   0  0  0  0  0  0  0  0  0  0  0  0
    5.4855    3.5743    0.0000 C   0  0  0  0  0  0  0  0  0  0  0  0
    4.0565   -2.2007    0.0000 H   0  0  0  0  0  0  0  0  0  0  0  0
    5.3564    2.7391    0.0000 H   0  0  0  0  0  0  0  0  0  0  0  0
 21 16  1  1
 22 17  1  1
 23 18  1  6
 16 26  1  0
 13 18  1  0
  1  2  2  0
  2  3  1  0
  3  4  2  0
  4  5  1  0
  5  6  2  0
  6  1  1  0
  3  7  1  0
  4  8  1  0
  5  9  1  0
  9 10  1  0
  1 11  1  0
  2 12  1  0
  6 13  1  0
 13 14  2  0
 24 19  1  0
 20 19  1  0
 21 20  1  0
 21 22  1  0
 22 23  1  0
 23 24  1  0
 35 37  1  1
 36 38  2  0
 36 39  1  0
 40 38  1  0
 40 41  1  0
 40 42  1  1
 41 43  1  0
 43 44  2  0
 43 45  1  0
 44 46  1  0
 46 47  1  0
 46 48  2  0
 48 49  1  0
 50 49  1  0
 50 51  1  0
 41 54  1  0
 51 52  1  0
 51 53  1  1
 50 31  1  0
 27 28  1  0
 27 29  2  0
 28 30  2  0
 28 31  1  0
 63 58  1  0
 59 58  1  0
 60 59  1  0
 60 61  1  0
 61 62  1  0
 62 63  1  0
 63 64  1  0
 60 55  1  6
 61 56  1  6
 62 57  1  1
 29 32  1  0
 57 65  1  0
 32 33  2  0
 65 66  2  0
 33 34  1  0
 65 67  1  0
 35 34  1  0
 67 68  1  0
 35 36  1  0
 67 69  1  0
 59 54  1  6
 24 25  1  1
 27 70  1  0
 15 70  1  0
 63 71  1  0
 20 15  1  1
 42 72  1  0
 50 73  1  1
 41 74  1  1
M  END
> <chembl_id>
CHEMBL1255800

> <chembl_pref_name>
FIDAXOMICIN
