
     RDKit          2D

 27 27  0  0  0  0  0  0  0  0999 V2000
    2.7292   -5.0750    0.0000 C   0  0  0  0  0  0  0  0  0  0  0  0
    2.7292   -4.3625    0.0000 C   0  0  0  0  0  0  0  0  0  0  0  0
    1.4875   -5.1042    0.0000 N   0  0  0  0  0  0  0  0  0  0  0  0
    3.3417   -5.4417    0.0000 C   0  0  0  0  0  0  0  0  0  0  0  0
    2.1000   -5.4500    0.0000 C   0  0  0  0  0  0  0  0  0  0  0  0
    3.3542   -6.1542    0.0000 C   0  0  0  0  0  0  0  0  0  0  0  0
    3.9542   -5.0750    0.0000 C   0  0  0  0  0  0  0  0  0  0  0  0
    2.1125   -4.0167    0.0000 C   0  0  0  0  0  0  0  0  0  0  0  0
    2.1000   -3.3042    0.0000 N   0  0  0  0  0  0  0  0  0  0  0  0
    4.5792   -6.1417    0.0000 C   0  0  0  0  0  0  0  0  0  0  0  0
    4.5667   -5.4292    0.0000 C   0  0  0  0  0  0  0  0  0  0  0  0
    3.9750   -6.4917    0.0000 C   0  0  0  0  0  0  0  0  0  0  0  0
    5.2042   -6.5042    0.0000 Cl  0  0  0  0  0  0  0  0  0  0  0  0
    0.8792   -5.4667    0.0000 C   0  0  0  0  0  0  0  0  0  0  0  0
    2.1000   -6.1667    0.0000 C   0  0  0  0  0  0  0  0  0  0  0  0
    2.7042   -2.9417    0.0000 C   0  0  0  0  0  0  0  0  0  0  0  0
    1.4875   -2.9667    0.0000 C   0  0  0  0  0  0  0  0  0  0  0  0
    0.8792   -6.1917    0.0000 C   0  0  0  0  0  0  0  0  0  0  0  0
    1.5000   -6.5292    0.0000 C   0  0  0  0  0  0  0  0  0  0  0  0
    6.5667   -5.3750    0.0000 C   0  0  0  0  0  0  0  0  0  0  0  0
    6.5667   -3.9375    0.0000 C   0  0  0  0  0  0  0  0  0  0  0  0
    5.9500   -5.0167    0.0000 C   0  0  0  0  0  0  0  0  0  0  0  0
    5.9500   -4.3000    0.0000 C   0  0  0  0  0  0  0  0  0  0  0  0
    6.5417   -6.0667    0.0000 O   0  0  0  0  0  0  0  0  0  0  0  0
    6.5500   -3.2292    0.0000 O   0  0  0  0  0  0  0  0  0  0  0  0
    7.1667   -4.2917    0.0000 O   0  0  0  0  0  0  0  0  0  0  0  0
    7.1667   -5.0000    0.0000 O   0  0  0  0  0  0  0  0  0  0  0  0
  2  1  1  0
  3  5  2  0
  4  1  1  0
  5  1  1  0
  6  4  2  0
  7  4  1  0
  8  2  1  0
  9  8  1  0
 10 11  1  0
 11  7  2  0
 12  6  1  0
 13 10  1  0
 14  3  1  0
 15  5  1  0
 16  9  1  0
 17  9  1  0
 18 19  1  0
 19 15  2  0
 10 12  2  0
 18 14  2  0
 21 23  1  0
 22 20  1  0
 23 22  2  0
 24 20  2  0
 25 21  2  0
 26 21  1  0
 27 20  1  0
M  END
> <chembl_id>
CHEMBL1659

> <chembl_pref_name>
CHLORPHENIRAMINE MALEATE
