
     RDKit          2D

 29 29  0  0  0  0  0  0  0  0999 V2000
    0.0000   -3.6792    0.0000 Cl  0  0  0  0  0  0  0  0  0  0  0  0
   -0.3583    0.0333    0.0000 N   0  0  0  0  0  0  0  0  0  0  0  0
   -1.0750    0.4458    0.0000 C   0  0  0  0  0  0  0  0  0  0  0  0
    1.0708   -0.7917    0.0000 N   0  0  0  0  0  0  0  0  0  0  0  0
    4.6417   -1.2042    0.0000 C   0  0  0  0  0  0  0  0  0  0  0  0
   -1.7875    0.0333    0.0000 C   0  0  0  0  0  0  0  0  0  0  0  0
   -0.3583   -0.7917    0.0000 C   0  0  0  0  0  0  0  0  0  0  0  0
    0.3542    0.4458    0.0000 C   0  0  0  0  0  0  0  0  0  0  0  0
    5.3583   -0.7917    0.0000 O   0  0  0  0  0  0  0  0  0  0  0  0
   -1.0750    1.2708    0.0000 C   0  0  0  0  0  0  0  0  0  0  0  0
   -2.5042    0.4458    0.0000 C   0  0  0  0  0  0  0  0  0  0  0  0
   -1.7875   -0.7917    0.0000 C   0  0  0  0  0  0  0  0  0  0  0  0
    1.0708    0.0333    0.0000 C   0  0  0  0  0  0  0  0  0  0  0  0
    0.3542   -1.2042    0.0000 C   0  0  0  0  0  0  0  0  0  0  0  0
   -3.2167   -0.7917    0.0000 C   0  0  0  0  0  0  0  0  0  0  0  0
    4.6417   -2.0292    0.0000 O   0  0  0  0  0  0  0  0  0  0  0  0
   -3.2167    0.0333    0.0000 C   0  0  0  0  0  0  0  0  0  0  0  0
   -2.5042   -1.2042    0.0000 C   0  0  0  0  0  0  0  0  0  0  0  0
   -3.9333   -1.2042    0.0000 Cl  0  0  0  0  0  0  0  0  0  0  0  0
    1.7833   -1.2042    0.0000 C   0  0  0  0  0  0  0  0  0  0  0  0
    3.9292   -0.7917    0.0000 C   0  0  0  0  0  0  0  0  0  0  0  0
    3.2125   -1.2042    0.0000 O   0  0  0  0  0  0  0  0  0  0  0  0
   -0.3583    1.6833    0.0000 C   0  0  0  0  0  0  0  0  0  0  0  0
   -1.7875    1.6833    0.0000 C   0  0  0  0  0  0  0  0  0  0  0  0
    2.5000   -0.7917    0.0000 C   0  0  0  0  0  0  0  0  0  0  0  0
   -0.3583    2.5083    0.0000 C   0  0  0  0  0  0  0  0  0  0  0  0
   -1.7875    2.5083    0.0000 C   0  0  0  0  0  0  0  0  0  0  0  0
   -1.0750    2.9208    0.0000 C   0  0  0  0  0  0  0  0  0  0  0  0
    7.5958    0.0000    0.0000 Cl  0  0  0  0  0  0  0  0  0  0  0  0
  3  2  1  1
  4 13  1  0
  5 21  1  0
  6  3  1  0
  7  2  1  0
  8  2  1  0
  9  5  2  0
  3 10  1  0
 11  6  2  0
 12  6  1  0
 13  8  1  0
 14  7  1  0
 15 18  1  0
 16  5  1  0
 17 11  1  0
 18 12  2  0
 19 15  1  0
 20  4  1  0
 21 22  1  0
 22 25  1  0
 23 10  1  0
 24 10  2  0
 25 20  1  0
 26 23  2  0
 27 24  1  0
 28 26  1  0
 14  4  1  0
 17 15  2  0
 28 27  2  0
M  END
> <chembl_id>
CHEMBL1201190

> <chembl_pref_name>
LEVOCETIRIZINE DIHYDROCHLORIDE
