
     RDKit          2D

 37 40  0  0  1  0  0  0  0  0999 V2000
    4.4875   -4.2417    0.0000 N   0  0  0  0  0  0  0  0  0  0  0  0
    4.4875   -3.5375    0.0000 C   0  0  0  0  0  0  0  0  0  0  0  0
    0.0875   -3.5375    0.0000 N   0  0  0  0  0  0  0  0  0  0  0  0
    3.7750   -4.2500    0.0000 C   0  0  0  0  0  0  0  0  0  0  0  0
    3.7750   -3.5375    0.0000 C   0  0  0  0  0  0  0  0  0  0  0  0
    0.0917   -4.2417    0.0000 C   0  0  0  0  0  0  0  0  0  0  0  0
    5.1625   -4.4625    0.0000 C   0  0  0  0  0  0  0  0  0  0  0  0
    0.7042   -3.1792    0.0000 C   0  0  0  0  0  0  0  0  0  0  0  0
    5.1542   -3.3167    0.0000 S   0  0  0  0  0  0  0  0  0  0  0  0
    5.5792   -3.8875    0.0000 C   0  0  0  0  0  0  0  0  0  0  0  0
   -0.5250   -4.5917    0.0000 C   0  0  0  0  0  0  0  0  0  0  0  0
    3.1542   -3.1792    0.0000 N   0  0  0  0  0  0  0  0  0  0  0  0
    1.3167   -3.5375    0.0000 N   0  0  0  0  0  0  0  0  0  0  0  0
    2.5417   -3.5375    0.0000 C   0  0  0  0  0  0  0  0  0  0  0  0
   -1.1375   -4.2375    0.0000 N   0  0  0  0  0  0  0  0  0  0  0  0
    1.9292   -3.1792    0.0000 C   0  0  0  0  0  0  0  0  0  0  0  0
    5.1542   -5.1667    0.0000 C   0  0  0  0  0  0  0  0  0  0  0  0
   -0.5208   -3.1792    0.0000 C   0  0  0  0  0  0  0  0  0  0  0  0
    3.2750   -4.7500    0.0000 O   0  0  0  0  0  0  0  0  0  0  0  0
    0.7042   -4.5917    0.0000 O   0  0  0  0  0  0  0  0  0  0  0  0
    0.7042   -2.4750    0.0000 O   0  0  0  0  0  0  0  0  0  0  0  0
   -1.1333   -3.5292    0.0000 C   0  0  0  0  0  0  0  0  0  0  0  0
   -0.5250   -5.3000    0.0000 O   0  0  0  0  0  0  0  0  0  0  0  0
    2.5417   -4.2417    0.0000 O   0  0  0  0  0  0  0  0  0  0  0  0
    5.7667   -5.5292    0.0000 O   0  0  0  0  0  0  0  0  0  0  0  0
    4.5375   -5.5167    0.0000 O   0  0  0  0  0  0  0  0  0  0  0  0
    1.9292   -2.4750    0.0000 C   0  0  0  0  0  0  0  0  0  0  0  0
    6.1917   -4.2417    0.0000 C   0  0  0  0  0  0  0  0  0  0  0  0
    6.1917   -3.5292    0.0000 C   0  0  0  0  0  0  0  0  0  0  0  0
   -1.7500   -4.5875    0.0000 C   0  0  0  0  0  0  0  0  0  0  0  0
    2.5417   -2.1167    0.0000 C   0  0  0  0  0  0  0  0  0  0  0  0
    1.3167   -2.1250    0.0000 C   0  0  0  0  0  0  0  0  0  0  0  0
   -2.3625   -4.2292    0.0000 C   0  0  0  0  0  0  0  0  0  0  0  0
    2.5417   -1.4125    0.0000 C   0  0  0  0  0  0  0  0  0  0  0  0
    1.3167   -1.4167    0.0000 C   0  0  0  0  0  0  0  0  0  0  0  0
    1.9292   -1.0542    0.0000 C   0  0  0  0  0  0  0  0  0  0  0  0
    4.4792   -2.8292    0.0000 H   0  0  0  0  0  0  0  0  0  0  0  0
  2  1  1  0
  3  8  1  0
  4  1  1  0
  5  4  1  0
  6  3  1  0
  7  1  1  0
  8 13  1  0
  9  2  1  0
 10  7  1  0
 11  6  1  0
  5 12  1  1
 13 16  1  0
 14 12  1  0
 15 22  1  0
 16 14  1  0
  7 17  1  6
 18  3  1  0
 19  4  2  0
 20  6  2  0
 21  8  2  0
 22 18  1  0
 23 11  2  0
 24 14  2  0
 25 17  1  0
 26 17  2  0
 16 27  1  6
 28 10  1  0
 29 10  1  0
 30 15  1  0
 31 27  2  0
 32 27  1  0
 33 30  1  0
 34 31  1  0
 35 32  2  0
 36 34  2  0
  2 37  1  6
  9 10  1  0
  5  2  1  0
 36 35  1  0
 15 11  1  0
M  END
> <chembl_id>
CHEMBL702

> <chembl_pref_name>
PIPERACILLIN
