
     RDKit          2D

 10  9  0  0  1  0  0  0  0  0999 V2000
    4.8375   -4.8042    0.0000 C   0  0  0  0  0  0  0  0  0  0  0  0
    5.4542   -5.1542    0.0000 C   0  0  0  0  0  0  0  0  0  0  0  0
    4.2292   -5.1417    0.0000 N   0  0  0  0  0  0  0  0  0  0  0  0
    3.6125   -4.7667    0.0000 C   0  0  0  0  0  0  0  0  0  0  0  0
    5.4417   -5.8750    0.0000 O   0  0  0  0  0  0  0  0  0  0  0  0
    3.6292   -4.0500    0.0000 O   0  0  0  0  0  0  0  0  0  0  0  0
    6.0667   -4.8167    0.0000 O   0  0  0  0  0  0  0  0  0  0  0  0
    4.2417   -3.7250    0.0000 S   0  0  0  0  0  0  0  0  0  0  0  0
    4.8417   -4.0875    0.0000 C   0  0  0  0  0  0  0  0  0  0  0  0
    2.9917   -5.1042    0.0000 C   0  0  0  0  0  0  0  0  0  0  0  0
  2  1  1  0
  3  1  1  0
  4  3  1  0
  5  2  2  0
  6  4  2  0
  7  2  1  0
  8  9  1  0
  1  9  1  1
 10  4  1  0
M  END
> <chembl_id>
CHEMBL600

> <chembl_pref_name>
ACETYLCYSTEINE
