
     RDKit          2D

 13 10  0  0  0  0  0  0  0  0999 V2000
    5.5687   -0.1069    0.0000 C   0  0  0  0  0  0  0  0  0  0  0  0
    5.9812   -0.8213    0.0000 C   0  0  0  0  0  0  0  0  0  0  0  0
    6.8062   -0.8213    0.0000 O   0  0  0  0  0  0  0  0  0  0  0  0
    5.5687   -1.5358    0.0000 C   0  0  0  0  0  0  0  0  0  0  0  0
    5.9812   -2.2503    0.0000 O   0  0  0  0  0  0  0  0  0  0  0  0
    4.7437   -1.5358    0.0000 O   0  0  0  0  0  0  0  0  0  0  0  0
   -0.2063    1.0717    0.0000 C   0  0  0  0  0  0  0  0  0  0  0  0
    0.2062    0.3572    0.0000 C   0  0  0  0  0  0  0  0  0  0  0  0
    1.0312    0.3572    0.0000 O   0  0  0  0  0  0  0  0  0  0  0  0
   -0.2062   -0.3572    0.0000 C   0  0  0  0  0  0  0  0  0  0  0  0
    0.2063   -1.0717    0.0000 O   0  0  0  0  0  0  0  0  0  0  0  0
   -1.0312   -0.3572    0.0000 O   0  0  0  0  0  0  0  0  0  0  0  0
    3.3884    0.0000    0.0000 Mg  0  0  0  0  0 15  0  0  0  0  0  0
  1  2  1  0
  2  3  1  0
  2  4  1  0
  4  5  1  0
  4  6  2  0
  7  8  1  0
  8  9  1  0
  8 10  1  0
 10 11  1  0
 10 12  2  0
M  CHG  3   5  -1  11  -1  13   2
M  END
> <chembl_id>
CHEMBL3707281

> <chembl_pref_name>
MAGNESIUM LACTATE
