
     RDKit          2D

 19 21  0  0  0  0  0  0  0  0999 V2000
    4.4750   -4.1125    0.0000 C   0  0  0  0  0  0  0  0  0  0  0  0
    4.4667   -4.8125    0.0000 C   0  0  0  0  0  0  0  0  0  0  0  0
    3.8625   -3.7500    0.0000 N   0  0  0  0  0  0  0  0  0  0  0  0
    3.2375   -4.8000    0.0000 N   0  0  0  0  0  0  0  0  0  0  0  0
    5.1000   -3.7542    0.0000 N   0  0  0  0  0  0  0  0  0  0  0  0
    5.0750   -5.1667    0.0000 N   0  0  0  0  0  0  0  0  0  0  0  0
    3.8417   -5.1542    0.0000 C   0  0  0  0  0  0  0  0  0  0  0  0
    3.2375   -4.0917    0.0000 C   0  0  0  0  0  0  0  0  0  0  0  0
    5.7000   -4.1167    0.0000 C   0  0  0  0  0  0  0  0  0  0  0  0
    5.6917   -4.8292    0.0000 C   0  0  0  0  0  0  0  0  0  0  0  0
    6.3042   -5.1917    0.0000 C   0  0  0  0  0  0  0  0  0  0  0  0
    3.8417   -5.8792    0.0000 N   0  0  0  0  0  0  0  0  0  0  0  0
    6.3167   -3.7667    0.0000 N   0  0  0  0  0  0  0  0  0  0  0  0
    2.6250   -3.7292    0.0000 N   0  0  0  0  0  0  0  0  0  0  0  0
    6.3000   -5.9000    0.0000 C   0  0  0  0  0  0  0  0  0  0  0  0
    6.9250   -4.8500    0.0000 C   0  0  0  0  0  0  0  0  0  0  0  0
    6.9125   -6.2625    0.0000 C   0  0  0  0  0  0  0  0  0  0  0  0
    7.5417   -5.2042    0.0000 C   0  0  0  0  0  0  0  0  0  0  0  0
    7.5375   -5.9125    0.0000 C   0  0  0  0  0  0  0  0  0  0  0  0
  2  1  1  0
  3  1  2  0
  4  8  2  0
  5  1  1  0
  6  2  1  0
  7  2  2  0
  8  3  1  0
  9  5  2  0
 10  9  1  0
 11 10  1  0
 12  7  1  0
 13  9  1  0
 14  8  1  0
 15 11  2  0
 16 11  1  0
 17 15  1  0
 18 16  2  0
 19 18  1  0
  4  7  1  0
 10  6  2  0
 19 17  2  0
M  END
> <chembl_id>
CHEMBL585

> <chembl_pref_name>
TRIAMTERENE
