
     RDKit          2D

 19 20  0  0  0  0  0  0  0  0999 V2000
   -7.0717    1.1312    0.0000 C   0  0  0  0  0  0  0  0  0  0  0  0
   -7.6237    1.7443    0.0000 N   0  0  0  0  0  0  0  0  0  0  0  0
   -7.2112    2.4588    0.0000 C   0  0  0  0  0  0  0  0  0  0  0  0
   -6.4043    2.2873    0.0000 C   0  0  0  0  0  0  0  0  0  0  0  0
   -6.3180    1.4668    0.0000 N   0  0  0  0  0  0  0  0  0  0  0  0
   -7.3266    0.3466    0.0000 N   0  0  0  0  0  0  0  0  0  0  0  0
   -5.6035    1.0543    0.0000 C   0  0  0  0  0  0  0  0  0  0  0  0
   -4.8891    1.4668    0.0000 C   0  0  0  0  0  0  0  0  0  0  0  0
   -4.1746    1.0543    0.0000 N   0  0  0  0  0  0  0  0  0  0  0  0
   -3.4601    1.4668    0.0000 C   0  0  0  0  0  0  0  0  0  0  0  0
   -4.8891    2.2918    0.0000 O   0  0  0  0  0  0  0  0  0  0  0  0
   -2.7457    1.0543    0.0000 C   0  0  0  0  0  0  0  0  0  0  0  0
   -2.0312    1.4668    0.0000 C   0  0  0  0  0  0  0  0  0  0  0  0
   -2.7457    0.2293    0.0000 C   0  0  0  0  0  0  0  0  0  0  0  0
   -2.0312   -0.1832    0.0000 C   0  0  0  0  0  0  0  0  0  0  0  0
   -1.3167    0.2293    0.0000 C   0  0  0  0  0  0  0  0  0  0  0  0
   -1.3167    1.0543    0.0000 C   0  0  0  0  0  0  0  0  0  0  0  0
   -6.7746   -0.2665    0.0000 O   0  0  0  0  0  0  0  0  0  0  0  0
   -8.1336    0.1751    0.0000 O   0  0  0  0  0  0  0  0  0  0  0  0
  1  2  2  0
  2  3  1  0
  4  5  1  0
  1  5  1  0
  3  4  2  0
  1  6  1  0
  5  7  1  0
  7  8  1  0
  8  9  1  0
  9 10  1  0
  8 11  2  0
 10 12  1  0
 14 15  1  0
 15 16  2  0
 16 17  1  0
 13 17  2  0
 13 12  1  0
 12 14  2  0
  6 18  1  0
  6 19  2  0
M  CHG  2   6   1  18  -1
M  END
> <chembl_id>
CHEMBL110

> <chembl_pref_name>
BENZNIDAZOLE
