
     RDKit          2D

 25 26  0  0  0  0  0  0  0  0999 V2000
   -1.4250    2.2458    0.0000 C   0  0  0  0  0  0  0  0  0  0  0  0
   -3.3458   -2.3167    0.0000 C   0  0  0  0  0  0  0  0  0  0  0  0
   -2.1083   -2.3375    0.0000 C   0  0  0  0  0  0  0  0  0  0  0  0
   -0.2083    1.8583    0.0000 C   0  0  0  0  0  0  0  0  0  0  0  0
   -2.2708    1.4458    0.0000 N   0  0  0  0  0  0  0  0  0  0  0  0
   -3.9208   -1.2542    0.0000 N   0  0  0  0  0  0  0  0  0  0  0  0
   -1.4833   -1.2750    0.0000 C   0  0  0  0  0  0  0  0  0  0  0  0
    0.0667    0.6625    0.0000 C   0  0  0  0  0  0  0  0  0  0  0  0
    0.7042    2.6458    0.0000 C   0  0  0  0  0  0  0  0  0  0  0  0
   -1.4833   -3.3917    0.0000 C   0  0  0  0  0  0  0  0  0  0  0  0
   -3.9333   -3.3667    0.0000 N   0  0  0  0  0  0  0  0  0  0  0  0
   -1.6458    3.4583    0.0000 N   0  0  0  0  0  0  0  0  0  0  0  0
    2.1667    1.1208    0.0000 C   0  0  0  0  0  0  0  0  0  0  0  0
    0.3667   -2.3792    0.0000 C   0  0  0  0  0  0  0  0  0  0  0  0
   -0.2208   -3.3917    0.0000 C   0  0  0  0  0  0  0  0  0  0  0  0
   -0.2500   -1.2750    0.0000 C   0  0  0  0  0  0  0  0  0  0  0  0
    1.2000    0.3875    0.0000 C   0  0  0  0  0  0  0  0  0  0  0  0
    1.9042    2.3083    0.0000 C   0  0  0  0  0  0  0  0  0  0  0  0
    1.6500   -2.3792    0.0000 O   0  0  0  0  0  0  0  0  0  0  0  0
    3.2750    0.8208    0.0000 O   0  0  0  0  0  0  0  0  0  0  0  0
    4.0875   -0.3375    0.0000 C   0  0  0  0  0  0  0  0  0  0  0  0
    2.2417   -3.4375    0.0000 C   0  0  0  0  0  0  0  0  0  0  0  0
    3.5042   -3.4375    0.0000 C   0  0  0  0  0  0  0  0  0  0  0  0
    3.3750   -1.3167    0.0000 C   0  0  0  0  0  0  0  0  0  0  0  0
    4.0667   -2.3792    0.0000 C   0  0  0  0  0  0  0  0  0  0  0  0
  2  3  1  0
  3  7  2  0
  4  1  1  0
  5  1  2  0
  6  2  2  0
  7 16  1  0
  8  4  2  0
  9  4  1  0
 10 15  2  0
 11  2  1  0
 12  1  1  0
 13 18  1  0
 14 19  1  0
 15 14  1  0
 16 14  2  0
 17  8  1  0
 18  9  2  0
 19 22  1  0
 20 13  1  0
 21 20  1  0
 22 23  1  0
 23 25  1  0
 24 21  1  0
 25 24  1  0
 17 13  2  0
 10  3  1  0
M  END
> <chembl_id>
CHEMBL55

> <chembl_pref_name>
PENTAMIDINE
