
     RDKit          2D

 14 13  0  0  0  0  0  0  0  0999 V2000
    5.2269  -13.4357    0.0000 C   0  0  0  0  0  0  0  0  0  0  0  0
    5.9413  -13.0232    0.0000 C   0  0  0  0  0  0  0  0  0  0  0  0
    6.6558  -13.4357    0.0000 N   0  0  0  0  0  0  0  0  0  0  0  0
    7.3703  -13.0232    0.0000 C   0  0  0  0  0  0  0  0  0  0  0  0
    8.0848  -13.4357    0.0000 C   0  0  0  0  0  0  0  0  0  0  0  0
    8.7992  -13.0232    0.0000 N   0  0  0  0  0  0  0  0  0  0  0  0
    9.5137  -13.4357    0.0000 C   0  0  0  0  0  0  0  0  0  0  0  0
   10.2282  -13.0232    0.0000 C   0  0  0  0  0  0  0  0  0  0  0  0
   10.9426  -13.4357    0.0000 C   0  0  0  0  0  0  0  0  0  0  0  0
    9.5137  -14.2607    0.0000 C   0  0  0  0  0  0  0  0  0  0  0  0
    8.7992  -14.6732    0.0000 O   0  0  0  0  0  0  0  0  0  0  0  0
    5.9413  -12.1982    0.0000 C   0  0  0  0  0  0  0  0  0  0  0  0
    6.6558  -11.7857    0.0000 O   0  0  0  0  0  0  0  0  0  0  0  0
    5.2269  -14.2607    0.0000 C   0  0  0  0  0  0  0  0  0  0  0  0
  3  4  1  0
  7  8  1  0
  8  9  1  0
  4  5  1  0
  7 10  1  1
  2  3  1  0
 10 11  1  0
  5  6  1  0
  2 12  1  1
  1  2  1  0
 12 13  1  0
  6  7  1  0
  1 14  1  0
M  END
> <chembl_id>
CHEMBL44884

> <chembl_pref_name>
ETHAMBUTOL
