
     RDKit          2D

 31 34  0  0  1  0  0  0  0  0999 V2000
   -1.6458   -1.4500    0.0000 C   0  0  0  0  0  0  0  0  0  0  0  0
   -1.6583   -0.4500    0.0000 C   0  0  0  0  0  0  0  0  0  0  0  0
    0.9167    1.0583    0.0000 C   0  0  0  0  0  0  0  0  0  0  0  0
    1.8542    1.3625    0.0000 C   0  0  0  0  0  0  0  0  0  0  0  0
    0.0500   -0.4417    0.0000 C   0  0  0  0  0  0  0  0  0  0  0  0
   -0.7708   -1.9292    0.0000 C   0  0  0  0  0  0  0  0  0  0  0  0
    0.0625   -1.4167    0.0000 C   0  0  0  0  0  0  0  0  0  0  0  0
   -0.8000    0.0458    0.0000 C   0  0  0  0  0  0  0  0  0  0  0  0
    0.9167    0.0583    0.0000 C   0  0  0  0  0  0  0  0  0  0  0  0
   -2.4833   -1.9542    0.0000 C   0  0  0  0  0  0  0  0  0  0  0  0
    0.0375    1.5625    0.0000 C   0  0  0  0  0  0  0  0  0  0  0  0
    2.4125    0.5833    0.0000 C   0  0  0  0  0  0  0  0  0  0  0  0
    2.5917    2.0333    0.0000 O   0  0  0  0  0  0  0  0  0  0  0  0
   -0.8000    1.0583    0.0000 C   0  0  0  0  0  0  0  0  0  0  0  0
    1.8625   -0.2167    0.0000 C   0  0  0  0  0  0  0  0  0  0  0  0
   -2.5125    0.0208    0.0000 C   0  0  0  0  0  0  0  0  0  0  0  0
    1.6542    2.3375    0.0000 C   0  0  0  0  0  0  0  0  0  0  0  0
    3.5292    1.7208    0.0000 C   0  0  0  0  0  0  0  0  0  0  0  0
   -3.3458   -1.4542    0.0000 C   0  0  0  0  0  0  0  0  0  0  0  0
    4.2667    2.3833    0.0000 O   0  0  0  0  0  0  0  0  0  0  0  0
    2.3792    3.0000    0.0000 O   0  0  0  0  0  0  0  0  0  0  0  0
   -0.7583   -2.9292    0.0000 Cl  0  0  0  0  0  0  0  0  0  0  0  0
   -4.2208   -1.9542    0.0000 O   0  0  0  0  0  0  0  0  0  0  0  0
   -3.3625   -0.4875    0.0000 C   0  0  0  0  0  0  0  0  0  0  0  0
   -1.6708    0.5458    0.0000 C   0  0  0  0  0  0  0  0  0  0  0  0
    0.9042    2.0458    0.0000 C   0  0  0  0  0  0  0  0  0  0  0  0
    3.7375    0.7500    0.0000 C   0  0  0  0  0  0  0  0  0  0  0  0
    0.7042    2.6458    0.0000 C   0  0  0  0  0  0  0  0  0  0  0  0
    0.9417   -0.9167    0.0000 H   0  0  0  0  0  0  0  0  0  0  0  0
    0.0500    0.5708    0.0000 H   0  0  0  0  0  0  0  0  0  0  0  0
   -0.7958   -0.9417    0.0000 H   0  0  0  0  0  0  0  0  0  0  0  0
  2  1  1  0
  3  9  1  0
  4  3  1  0
  5  7  1  0
  6  1  1  0
  7  6  2  0
  8  2  1  0
  9  5  1  0
 10  1  2  0
 11 14  1  0
 12 15  1  0
 13  4  1  0
 14  8  1  0
 15  9  1  0
 16  2  1  0
  4 17  1  1
 18 13  1  0
 19 10  1  0
 20 18  2  0
 21 17  2  0
 22  6  1  0
 23 19  2  0
 24 19  1  0
  2 25  1  1
  3 26  1  1
 27 18  1  0
 28 17  1  0
  9 29  1  6
  5 30  1  1
  8 31  1  6
  5  8  1  0
 16 24  1  0
  3 11  1  0
  4 12  1  0
M  END
> <chembl_id>
CHEMBL110691

> <chembl_pref_name>
CHLORMADINONE ACETATE
