
     RDKit          2D

  7  4  0  0  0  0  0  0  0  0999 V2000
    3.5542   -8.1417    0.0000 Na  0  0  0  0  0 15  0  0  0  0  0  0
    4.9792   -7.8167    0.0000 S   0  0  0  0  0  0  0  0  0  0  0  0
    4.3667   -8.1750    0.0000 O   0  0  0  0  0  0  0  0  0  0  0  0
    5.5917   -8.1750    0.0000 O   0  0  0  0  0  0  0  0  0  0  0  0
    5.3292   -7.2000    0.0000 O   0  0  0  0  0  0  0  0  0  0  0  0
    4.6167   -7.2000    0.0000 O   0  0  0  0  0  0  0  0  0  0  0  0
    6.2042   -8.2375    0.0000 Na  0  0  0  0  0 15  0  0  0  0  0  0
  3  2  1  0
  4  2  1  0
  5  2  2  0
  6  2  2  0
M  CHG  4   1   1   3  -1   4  -1   7   1
M  END
> <chembl_id>
CHEMBL233406

> <chembl_pref_name>
SODIUM SULFATE ANHYDROUS
