
     RDKit          2D

 23 25  0  0  0  0  0  0  0  0999 V2000
    6.1417   -4.8125    0.0000 C   0  0  0  0  0  0  0  0  0  0  0  0
    5.5167   -5.1625    0.0000 N   0  0  0  0  0  0  0  0  0  0  0  0
    4.3292   -5.1625    0.0000 C   0  0  0  0  0  0  0  0  0  0  0  0
    6.1417   -4.0792    0.0000 O   0  0  0  0  0  0  0  0  0  0  0  0
    6.7667   -5.1625    0.0000 C   0  0  0  0  0  0  0  0  0  0  0  0
    4.3292   -5.8792    0.0000 O   0  0  0  0  0  0  0  0  0  0  0  0
    4.9292   -4.8125    0.0000 C   0  0  0  0  0  0  0  0  0  0  0  0
    3.7000   -4.8125    0.0000 O   0  0  0  0  0  0  0  0  0  0  0  0
    6.7667   -5.8667    0.0000 C   0  0  0  0  0  0  0  0  0  0  0  0
    7.3792   -4.8125    0.0000 C   0  0  0  0  0  0  0  0  0  0  0  0
    7.3792   -6.2250    0.0000 C   0  0  0  0  0  0  0  0  0  0  0  0
    8.0000   -5.1625    0.0000 C   0  0  0  0  0  0  0  0  0  0  0  0
    8.0000   -5.8875    0.0000 C   0  0  0  0  0  0  0  0  0  0  0  0
    1.5542   -5.4792    0.0000 N   0  0  0  0  0  0  0  0  0  0  0  0
    2.7000   -5.4792    0.0000 N   0  0  0  0  0  0  0  0  0  0  0  0
    1.7042   -5.9750    0.0000 N   0  0  0  0  0  0  0  0  0  0  0  0
    2.1292   -4.5042    0.0000 N   0  0  0  0  0  0  0  0  0  0  0  0
    2.1292   -5.8292    0.0000 C   0  0  0  0  0  0  0  0  0  0  0  0
    1.1500   -6.1792    0.0000 C   0  0  0  0  0  0  0  0  0  0  0  0
    1.5542   -4.8375    0.0000 C   0  0  0  0  0  0  0  0  0  0  0  0
    2.3125   -6.2292    0.0000 C   0  0  0  0  0  0  0  0  0  0  0  0
    2.7000   -4.8375    0.0000 C   0  0  0  0  0  0  0  0  0  0  0  0
    1.7042   -4.9667    0.0000 C   0  0  0  0  0  0  0  0  0  0  0  0
  2  1  1  0
  3  7  1  0
  4  1  2  0
  5  1  1  0
  6  3  2  0
  7  2  1  0
  8  3  1  0
  9  5  1  0
 10  5  2  0
 11  9  2  0
 12 10  1  0
 13 12  2  0
 13 11  1  0
 15 18  1  0
 16 19  1  0
 17 20  1  0
 18 14  1  0
 19 14  1  0
 20 14  1  0
 21 16  1  0
 22 17  1  0
 23 17  1  0
 23 16  1  0
 22 15  1  0
 21 15  1  0
M  END
> <chembl_id>
CHEMBL1201104

> <chembl_pref_name>
METHENAMINE HIPPURATE
