
     RDKit          2D

 20 21  0  0  0  0  0  0  0  0999 V2000
   -2.8000    0.4333    0.0000 C   0  0  0  0  0  0  0  0  0  0  0  0
   -3.5958    0.1458    0.0000 N   0  0  0  0  0  0  0  0  0  0  0  0
   -2.0958   -0.0500    0.0000 O   0  0  0  0  0  0  0  0  0  0  0  0
   -2.5458    1.2833    0.0000 C   0  0  0  0  0  0  0  0  0  0  0  0
   -1.4000    0.4833    0.0000 C   0  0  0  0  0  0  0  0  0  0  0  0
    1.0375   -0.1375    0.0000 C   0  0  0  0  0  0  0  0  0  0  0  0
   -0.3500   -0.5250    0.0000 N   0  0  0  0  0  0  0  0  0  0  0  0
   -1.6958    1.2833    0.0000 C   0  0  0  0  0  0  0  0  0  0  0  0
   -4.2458    0.6875    0.0000 O   0  0  0  0  0  0  0  0  0  0  0  0
   -3.7208   -0.6750    0.0000 O   0  0  0  0  0  0  0  0  0  0  0  0
   -0.5833    0.2750    0.0000 C   0  0  0  0  0  0  0  0  0  0  0  0
    1.8542   -0.3167    0.0000 C   0  0  0  0  0  0  0  0  0  0  0  0
    0.4542   -0.7375    0.0000 N   0  0  0  0  0  0  0  0  0  0  0  0
    0.7875    0.6458    0.0000 O   0  0  0  0  0  0  0  0  0  0  0  0
    2.1167   -1.1000    0.0000 C   0  0  0  0  0  0  0  0  0  0  0  0
    2.4042    0.3000    0.0000 C   0  0  0  0  0  0  0  0  0  0  0  0
    3.4792   -0.6667    0.0000 C   0  0  0  0  0  0  0  0  0  0  0  0
    3.2292    0.1208    0.0000 C   0  0  0  0  0  0  0  0  0  0  0  0
    2.9417   -1.2792    0.0000 C   0  0  0  0  0  0  0  0  0  0  0  0
    4.2792   -0.8667    0.0000 O   0  0  0  0  0  0  0  0  0  0  0  0
  2  1  1  0
  3  1  1  0
  4  1  2  0
  5  3  1  0
  6 13  1  0
  7 11  2  0
  8  4  1  0
  9  2  1  0
 10  2  2  0
 11  5  1  0
 12  6  1  0
 13  7  1  0
 14  6  2  0
 15 12  2  0
 16 12  1  0
 17 18  1  0
 18 16  2  0
 19 15  1  0
 20 17  1  0
  5  8  2  0
 19 17  2  0
M  CHG  2   2   1   9  -1
M  END
> <chembl_id>
CHEMBL244888

> <chembl_pref_name>
NIFUROXAZIDE
