
     RDKit          2D

 24 26  0  0  0  0  0  0  0  0999 V2000
    2.4292   -9.0625    0.0000 Cl  0  0  0  0  0  0  0  0  0  0  0  0
    2.2792   -7.6875    0.0000 C   0  0  0  0  0  0  0  0  0  0  0  0
    1.6667   -8.0500    0.0000 C   0  0  0  0  0  0  0  0  0  0  0  0
    1.0417   -7.6792    0.0000 C   0  0  0  0  0  0  0  0  0  0  0  0
    2.8917   -8.0417    0.0000 C   0  0  0  0  0  0  0  0  0  0  0  0
    0.5292   -8.0375    0.0000 C   0  0  0  0  0  0  0  0  0  0  0  0
    4.1167   -8.0417    0.0000 N   0  0  0  0  0  0  0  0  0  0  0  0
    0.2417   -8.5542    0.0000 C   0  0  0  0  0  0  0  0  0  0  0  0
    1.4292   -8.5375    0.0000 C   0  0  0  0  0  0  0  0  0  0  0  0
    0.9167   -7.0375    0.0000 C   0  0  0  0  0  0  0  0  0  0  0  0
    0.8542   -8.2500    0.0000 C   0  0  0  0  0  0  0  0  0  0  0  0
    2.6292   -7.0750    0.0000 C   0  0  0  0  0  0  0  0  0  0  0  0
    3.5042   -7.6875    0.0000 C   0  0  0  0  0  0  0  0  0  0  0  0
    1.9167   -7.0750    0.0000 O   0  0  0  0  0  0  0  0  0  0  0  0
    4.1125   -8.7500    0.0000 C   0  0  0  0  0  0  0  0  0  0  0  0
    4.7250   -7.6833    0.0000 C   0  0  0  0  0  0  0  0  0  0  0  0
    3.3333   -7.0708    0.0000 C   0  0  0  0  0  0  0  0  0  0  0  0
    2.2708   -6.4667    0.0000 C   0  0  0  0  0  0  0  0  0  0  0  0
    5.3417   -8.0417    0.0000 C   0  0  0  0  0  0  0  0  0  0  0  0
    4.7208   -9.1042    0.0000 C   0  0  0  0  0  0  0  0  0  0  0  0
    2.6208   -5.8542    0.0000 C   0  0  0  0  0  0  0  0  0  0  0  0
    3.6833   -6.4625    0.0000 C   0  0  0  0  0  0  0  0  0  0  0  0
    3.3292   -5.8500    0.0000 C   0  0  0  0  0  0  0  0  0  0  0  0
    5.3375   -8.7542    0.0000 C   0  0  0  0  0  0  0  0  0  0  0  0
  3  2  1  0
  4  3  1  0
  5  2  1  0
  6  4  1  0
  7 13  1  0
  8 11  1  0
  9  3  1  0
 10  4  1  0
 11  9  1  0
 12  2  1  0
 13  5  1  0
 14  2  1  0
 15  7  1  0
 16  7  1  0
 17 12  2  0
 18 12  1  0
 19 16  1  0
 20 15  1  0
 21 18  2  0
 22 17  1  0
 23 21  1  0
 24 19  1  0
 11 10  1  0
 23 22  2  0
  8  6  2  0
 24 20  1  0
M  END
> <chembl_id>
CHEMBL1201035

> <chembl_pref_name>
BIPERIDEN HYDROCHLORIDE
