
     RDKit          2D

  6  6  0  0  0  0  0  0  0  0999 V2000
    4.2750   -4.2917    0.0000 N   0  0  0  0  0  0  0  0  0  0  0  0
    4.8500   -3.9000    0.0000 N   0  0  0  0  0  0  0  0  0  0  0  0
    5.1792   -5.0000    0.0000 C   0  0  0  0  0  0  0  0  0  0  0  0
    5.4167   -4.3375    0.0000 C   0  0  0  0  0  0  0  0  0  0  0  0
    4.4792   -4.9792    0.0000 C   0  0  0  0  0  0  0  0  0  0  0  0
    5.5792   -5.5917    0.0000 C   0  0  0  0  0  0  0  0  0  0  0  0
  2  1  1  0
  3  5  1  0
  4  2  1  0
  5  1  2  0
  6  3  1  0
  4  3  2  0
M  END
> <chembl_id>
CHEMBL1308

> <chembl_pref_name>
FOMEPIZOLE
