
     RDKit          2D

 28 28  0  0  0  0  0  0  0  0999 V2000
    8.4417   -3.1917    0.0000 C   0  0  0  0  0  0  0  0  0  0  0  0
   10.2875   -2.7792    0.0000 C   0  0  0  0  0  0  0  0  0  0  0  0
    8.4292   -3.8917    0.0000 O   0  0  0  0  0  0  0  0  0  0  0  0
   10.2792   -2.0417    0.0000 O   0  0  0  0  0  0  0  0  0  0  0  0
    9.0625   -2.7917    0.0000 C   0  0  0  0  0  0  0  0  0  0  0  0
    9.6375   -3.1042    0.0000 C   0  0  0  0  0  0  0  0  0  0  0  0
   10.9292   -3.1042    0.0000 O   0  0  0  0  0  0  0  0  0  0  0  0
    7.8292   -2.8417    0.0000 O   0  0  0  0  0  0  0  0  0  0  0  0
    6.7292   -4.3417    0.0000 C   0  0  0  0  0  0  0  0  0  0  0  0
    6.1292   -4.6917    0.0000 C   0  0  0  0  0  0  0  0  0  0  0  0
    5.5167   -4.3292    0.0000 N   0  0  0  0  0  0  0  0  0  0  0  0
    7.3417   -4.6917    0.0000 C   0  0  0  0  0  0  0  0  0  0  0  0
    6.4000   -3.7167    0.0000 O   0  0  0  0  0  0  0  0  0  0  0  0
    6.7625   -1.8917    0.0000 N   0  0  0  0  0  0  0  0  0  0  0  0
    6.7542   -3.1292    0.0000 C   0  0  0  0  0  0  0  0  0  0  0  0
    7.1167   -3.7500    0.0000 C   0  0  0  0  0  0  0  0  0  0  0  0
    4.9042   -4.7000    0.0000 C   0  0  0  0  0  0  0  0  0  0  0  0
    6.4125   -2.4917    0.0000 C   0  0  0  0  0  0  0  0  0  0  0  0
    6.1417   -5.4125    0.0000 C   0  0  0  0  0  0  0  0  0  0  0  0
    7.9542   -4.3625    0.0000 C   0  0  0  0  0  0  0  0  0  0  0  0
    7.3417   -5.4042    0.0000 C   0  0  0  0  0  0  0  0  0  0  0  0
    6.4042   -1.2667    0.0000 C   0  0  0  0  0  0  0  0  0  0  0  0
    7.4667   -1.8917    0.0000 C   0  0  0  0  0  0  0  0  0  0  0  0
    4.9000   -5.4125    0.0000 C   0  0  0  0  0  0  0  0  0  0  0  0
    8.5792   -4.7042    0.0000 C   0  0  0  0  0  0  0  0  0  0  0  0
    7.9542   -5.7750    0.0000 C   0  0  0  0  0  0  0  0  0  0  0  0
    5.5250   -5.7750    0.0000 C   0  0  0  0  0  0  0  0  0  0  0  0
    8.5667   -5.4250    0.0000 C   0  0  0  0  0  0  0  0  0  0  0  0
  2  6  1  0
  3  1  2  0
  4  2  2  0
  5  1  1  0
  6  5  1  0
  7  2  1  0
  8  1  1  0
 10  9  1  0
 11 10  2  0
 12  9  1  0
 13  9  1  0
 14 18  1  0
 15 13  1  0
 16  9  1  0
 17 11  1  0
 18 15  1  0
 19 10  1  0
 20 12  2  0
 21 12  1  0
 22 14  1  0
 23 14  1  0
 24 17  2  0
 25 20  1  0
 26 21  2  0
 27 19  2  0
 28 26  1  0
 27 24  1  0
 28 25  2  0
M  END
> <chembl_id>
CHEMBL1200392

> <chembl_pref_name>
DOXYLAMINE SUCCINATE
