
     RDKit          2D

 13 13  0  0  0  0  0  0  0  0999 V2000
    5.4415   -1.1706    0.0000 Cl  0  0  0  0  0  0  0  0  0  0  0  0
    7.1171   -2.8288    0.0000 N   0  0  0  0  0  0  0  0  0  0  0  0
    7.8316   -2.4163    0.0000 N   0  0  0  0  0  0  0  0  0  0  0  0
    7.8316   -1.5913    0.0000 C   0  0  0  0  0  0  0  0  0  0  0  0
    7.1171   -1.1788    0.0000 N   0  0  0  0  0  0  0  0  0  0  0  0
    7.1171   -0.3538    0.0000 N   0  0  0  0  0  0  0  0  0  0  0  0
    7.8316    0.0587    0.0000 C   0  0  0  0  0  0  0  0  0  0  0  0
    8.5461   -0.3538    0.0000 C   0  0  0  0  0  0  0  0  0  0  0  0
    9.2605    0.0587    0.0000 C   0  0  0  0  0  0  0  0  0  0  0  0
    9.9750   -0.3538    0.0000 C   0  0  0  0  0  0  0  0  0  0  0  0
    9.9750   -1.1788    0.0000 C   0  0  0  0  0  0  0  0  0  0  0  0
    9.2605   -1.5913    0.0000 C   0  0  0  0  0  0  0  0  0  0  0  0
    8.5461   -1.1788    0.0000 C   0  0  0  0  0  0  0  0  0  0  0  0
  2  3  1  0
  3  4  1  0
  4  5  2  0
  5  6  1  0
  6  7  2  0
  7  8  1  0
  8  9  2  0
  9 10  1  0
 10 11  2  0
 11 12  1  0
 12 13  2  0
  4 13  1  0
  8 13  1  0
M  END
> <chembl_id>
CHEMBL542541

> <chembl_pref_name>
HYDRALAZINE HYDROCHLORIDE
