
     RDKit          2D

 23 24  0  0  0  0  0  0  0  0999 V2000
   -1.3833   -0.6417    0.0000 C   0  0  0  0  0  0  0  0  0  0  0  0
   -1.7458   -0.0250    0.0000 C   0  0  0  0  0  0  0  0  0  0  0  0
   -1.0333   -0.0250    0.0000 C   0  0  0  0  0  0  0  0  0  0  0  0
   -2.4500   -0.0250    0.0000 C   0  0  0  0  0  0  0  0  0  0  0  0
   -0.7708   -0.9917    0.0000 C   0  0  0  0  0  0  0  0  0  0  0  0
   -1.9958   -1.0000    0.0000 C   0  0  0  0  0  0  0  0  0  0  0  0
   -2.8083    0.5875    0.0000 N   0  0  0  0  0  0  0  0  0  0  0  0
   -1.3958    0.5875    0.0000 O   0  0  0  0  0  0  0  0  0  0  0  0
   -0.3250   -0.0167    0.0000 C   0  0  0  0  0  0  0  0  0  0  0  0
   -3.5208    0.5875    0.0000 C   0  0  0  0  0  0  0  0  0  0  0  0
   -2.4583    1.2083    0.0000 C   0  0  0  0  0  0  0  0  0  0  0  0
   -2.8083   -0.6375    0.0000 C   0  0  0  0  0  0  0  0  0  0  0  0
   -0.7708   -1.7042    0.0000 C   0  0  0  0  0  0  0  0  0  0  0  0
   -0.1625   -0.6375    0.0000 C   0  0  0  0  0  0  0  0  0  0  0  0
   -1.9958   -1.7125    0.0000 C   0  0  0  0  0  0  0  0  0  0  0  0
   -2.6083   -0.6417    0.0000 C   0  0  0  0  0  0  0  0  0  0  0  0
    0.0167    0.6000    0.0000 C   0  0  0  0  0  0  0  0  0  0  0  0
   -3.2208   -1.0000    0.0000 C   0  0  0  0  0  0  0  0  0  0  0  0
   -2.6083   -2.0667    0.0000 C   0  0  0  0  0  0  0  0  0  0  0  0
   -0.1583   -2.0542    0.0000 C   0  0  0  0  0  0  0  0  0  0  0  0
    0.4500   -0.9875    0.0000 C   0  0  0  0  0  0  0  0  0  0  0  0
    0.4542   -1.7000    0.0000 C   0  0  0  0  0  0  0  0  0  0  0  0
   -3.2208   -1.7125    0.0000 C   0  0  0  0  0  0  0  0  0  0  0  0
  2  1  1  0
  3  1  1  0
  4  2  1  0
  5  1  1  0
  6  1  1  0
  7  4  1  0
  8  3  2  0
  9  3  1  0
 10  7  1  0
 11  7  1  0
 12  4  1  0
 13  5  2  0
 14  5  1  0
 15  6  1  0
 16  6  2  0
 17  9  1  0
 18 16  1  0
 19 15  2  0
 20 13  1  0
 21 14  2  0
 22 21  1  0
 23 19  1  0
 23 18  2  0
 22 20  2  0
M  END
> <chembl_id>
CHEMBL651

> <chembl_pref_name>
METHADONE
