
     RDKit          2D

 21 23  0  0  0  0  0  0  0  0999 V2000
   -1.6750   -1.6917    0.0000 C   0  0  0  0  0  0  0  0  0  0  0  0
   -1.6750   -2.3625    0.0000 C   0  0  0  0  0  0  0  0  0  0  0  0
   -2.2708   -2.7250    0.0000 C   0  0  0  0  0  0  0  0  0  0  0  0
   -2.8750   -2.3750    0.0000 C   0  0  0  0  0  0  0  0  0  0  0  0
   -2.2708   -1.3125    0.0000 C   0  0  0  0  0  0  0  0  0  0  0  0
   -2.8750   -1.6667    0.0000 C   0  0  0  0  0  0  0  0  0  0  0  0
   -1.1375   -1.2667    0.0000 C   0  0  0  0  0  0  0  0  0  0  0  0
   -1.1375   -0.4167    0.0000 C   0  0  0  0  0  0  0  0  0  0  0  0
   -0.1333   -2.0167    0.0000 N   0  0  0  0  0  0  0  0  0  0  0  0
   -2.2708   -3.4417    0.0000 Cl  0  0  0  0  0  0  0  0  0  0  0  0
   -1.7333   -0.0917    0.0000 C   0  0  0  0  0  0  0  0  0  0  0  0
   -0.5458   -0.0917    0.0000 C   0  0  0  0  0  0  0  0  0  0  0  0
   -3.5083   -2.7417    0.0000 O   0  0  0  0  0  0  0  0  0  0  0  0
   -3.4958   -1.2667    0.0000 O   0  0  0  0  0  0  0  0  0  0  0  0
   -0.4625   -1.3667    0.0000 C   0  0  0  0  0  0  0  0  0  0  0  0
   -1.1375    0.9833    0.0000 C   0  0  0  0  0  0  0  0  0  0  0  0
   -0.5458    0.6583    0.0000 C   0  0  0  0  0  0  0  0  0  0  0  0
   -1.7333    0.6583    0.0000 C   0  0  0  0  0  0  0  0  0  0  0  0
   -1.0875   -2.8292    0.0000 C   0  0  0  0  0  0  0  0  0  0  0  0
   -1.1375    1.6500    0.0000 O   0  0  0  0  0  0  0  0  0  0  0  0
   -0.3875   -2.6292    0.0000 C   0  0  0  0  0  0  0  0  0  0  0  0
  2  1  2  0
  3  2  1  0
  4  6  1  0
  5  1  1  0
  6  5  2  0
  7  1  1  0
  8  7  1  0
  9 15  1  0
 10  3  1  0
 11  8  2  0
 12  8  1  0
 13  4  1  0
 14  6  1  0
 15  7  1  0
 16 17  1  0
 17 12  2  0
 18 11  1  0
 19  2  1  0
 20 16  1  0
 21 19  1  0
  3  4  2  0
  9 21  1  0
 18 16  2  0
M  END
> <chembl_id>
CHEMBL588

> <chembl_pref_name>
FENOLDOPAM
