
     RDKit          2D

 17 16  0  0  0  0  0  0  0  0999 V2000
    3.6750   -1.8542    0.0000 Br  0  0  0  0  0  0  0  0  0  0  0  0
   -3.1583    0.1750    0.0000 C   0  0  0  0  0  0  0  0  0  0  0  0
    3.0875    0.8750    0.0000 N   0  0  0  0  0  0  0  0  0  0  0  0
   -1.9083    0.8625    0.0000 O   0  0  0  0  0  0  0  0  0  0  0  0
    1.8417    0.1583    0.0000 C   0  0  0  0  0  0  0  0  0  0  0  0
    0.5750    0.8625    0.0000 C   0  0  0  0  0  0  0  0  0  0  0  0
   -3.1583   -0.9375    0.0000 N   0  0  0  0  0  0  0  0  0  0  0  0
   -4.0833    0.6458    0.0000 O   0  0  0  0  0  0  0  0  0  0  0  0
   -0.6458    0.1458    0.0000 C   0  0  0  0  0  0  0  0  0  0  0  0
    3.7417    2.1208    0.0000 C   0  0  0  0  0  0  0  0  0  0  0  0
    2.3667    2.1208    0.0000 C   0  0  0  0  0  0  0  0  0  0  0  0
    4.3417    0.2083    0.0000 C   0  0  0  0  0  0  0  0  0  0  0  0
    1.8417   -1.2792    0.0000 C   0  0  0  0  0  0  0  0  0  0  0  0
    0.5917   -2.0167    0.0000 C   0  0  0  0  0  0  0  0  0  0  0  0
   -1.8458   -1.5167    0.0000 C   0  0  0  0  0  0  0  0  0  0  0  0
   -4.3458   -1.7000    0.0000 C   0  0  0  0  0  0  0  0  0  0  0  0
   -0.6458   -1.2792    0.0000 C   0  0  0  0  0  0  0  0  0  0  0  0
  3  5  1  0
  4  2  1  0
  5  6  1  0
  6  9  2  0
  7  2  1  0
  8  2  2  0
  9  4  1  0
 10  3  1  0
 11  3  1  0
 12  3  1  0
 13 14  1  0
 14 17  2  0
 15  7  1  0
 16  7  1  0
 17  9  1  0
  5 13  2  0
M  CHG  2   1  -1   3   1
M  END
> <chembl_id>
CHEMBL54126

> <chembl_pref_name>
NEOSTIGMINE BROMIDE
