
     RDKit          2D

 24 25  0  0  1  0  0  0  0  0999 V2000
   -0.9208    1.5375    0.0000 C   0  0  0  0  0  0  0  0  0  0  0  0
   -0.3333    0.4833    0.0000 C   0  0  0  0  0  0  0  0  0  0  0  0
    2.0667   -1.5792    0.0000 N   0  0  0  0  0  0  0  0  0  0  0  0
    1.4792   -0.5500    0.0000 C   0  0  0  0  0  0  0  0  0  0  0  0
    0.2917   -0.5500    0.0000 C   0  0  0  0  0  0  0  0  0  0  0  0
   -0.3333    2.5708    0.0000 C   0  0  0  0  0  0  0  0  0  0  0  0
   -2.1083    1.5375    0.0000 C   0  0  0  0  0  0  0  0  0  0  0  0
   -1.3583   -0.1167    0.0000 C   0  0  0  0  0  0  0  0  0  0  0  0
   -0.9208    3.5958    0.0000 C   0  0  0  0  0  0  0  0  0  0  0  0
    3.2542   -1.5792    0.0000 C   0  0  0  0  0  0  0  0  0  0  0  0
    1.4792   -2.5792    0.0000 C   0  0  0  0  0  0  0  0  0  0  0  0
   -2.7000    2.5708    0.0000 C   0  0  0  0  0  0  0  0  0  0  0  0
   -2.1083    3.5958    0.0000 C   0  0  0  0  0  0  0  0  0  0  0  0
    0.7917    2.5708    0.0000 O   0  0  0  0  0  0  0  0  0  0  0  0
   -2.3875    0.4833    0.0000 C   0  0  0  0  0  0  0  0  0  0  0  0
   -1.3583   -1.3000    0.0000 C   0  0  0  0  0  0  0  0  0  0  0  0
    3.8792   -2.5792    0.0000 C   0  0  0  0  0  0  0  0  0  0  0  0
    3.8292   -0.5500    0.0000 C   0  0  0  0  0  0  0  0  0  0  0  0
    0.2917   -2.5792    0.0000 C   0  0  0  0  0  0  0  0  0  0  0  0
    2.0875   -3.5917    0.0000 C   0  0  0  0  0  0  0  0  0  0  0  0
   -3.8833    2.5708    0.0000 C   0  0  0  0  0  0  0  0  0  0  0  0
   -2.3875   -1.8917    0.0000 C   0  0  0  0  0  0  0  0  0  0  0  0
   -3.4208   -0.1167    0.0000 C   0  0  0  0  0  0  0  0  0  0  0  0
   -3.4458   -1.3000    0.0000 C   0  0  0  0  0  0  0  0  0  0  0  0
  2  1  1  0
  3  4  1  0
  4  5  1  0
  2  5  1  6
  6  1  1  0
  7  1  2  0
  8  2  1  0
  9  6  2  0
 10  3  1  0
 11  3  1  0
 12  7  1  0
 13 12  2  0
 14  6  1  0
 15  8  2  0
 16  8  1  0
 17 10  1  0
 18 10  1  0
 19 11  1  0
 20 11  1  0
 21 12  1  0
 22 16  2  0
 23 15  1  0
 24 22  1  0
  9 13  1  0
 23 24  2  0
M  END
> <chembl_id>
CHEMBL1382

> <chembl_pref_name>
TOLTERODINE
