
     RDKit          2D

 22 23  0  0  0  0  0  0  0  0999 V2000
    6.6292   -4.2792    0.0000 C   0  0  0  0  0  0  0  0  0  0  0  0
    7.2292   -3.9250    0.0000 C   0  0  0  0  0  0  0  0  0  0  0  0
    3.5875   -5.3792    0.0000 C   0  0  0  0  0  0  0  0  0  0  0  0
    2.9542   -5.7292    0.0000 C   0  0  0  0  0  0  0  0  0  0  0  0
    3.5875   -4.6667    0.0000 C   0  0  0  0  0  0  0  0  0  0  0  0
    6.0250   -4.6375    0.0000 C   0  0  0  0  0  0  0  0  0  0  0  0
    7.8375   -3.5667    0.0000 C   0  0  0  0  0  0  0  0  0  0  0  0
    5.4167   -4.3000    0.0000 C   0  0  0  0  0  0  0  0  0  0  0  0
    4.2000   -4.3042    0.0000 N   0  0  0  0  0  0  0  0  0  0  0  0
    2.9542   -6.4417    0.0000 C   0  0  0  0  0  0  0  0  0  0  0  0
    4.2125   -5.7292    0.0000 C   0  0  0  0  0  0  0  0  0  0  0  0
    4.8167   -4.6542    0.0000 C   0  0  0  0  0  0  0  0  0  0  0  0
    4.2125   -6.4417    0.0000 C   0  0  0  0  0  0  0  0  0  0  0  0
    2.3292   -5.3792    0.0000 C   0  0  0  0  0  0  0  0  0  0  0  0
    3.5875   -6.8042    0.0000 C   0  0  0  0  0  0  0  0  0  0  0  0
    7.6042   -2.8875    0.0000 C   0  0  0  0  0  0  0  0  0  0  0  0
    8.1542   -2.9042    0.0000 C   0  0  0  0  0  0  0  0  0  0  0  0
    8.4417   -3.9042    0.0000 C   0  0  0  0  0  0  0  0  0  0  0  0
    4.2000   -3.6125    0.0000 C   0  0  0  0  0  0  0  0  0  0  0  0
    2.3292   -6.8042    0.0000 C   0  0  0  0  0  0  0  0  0  0  0  0
    1.7042   -5.7292    0.0000 C   0  0  0  0  0  0  0  0  0  0  0  0
    1.7042   -6.4417    0.0000 C   0  0  0  0  0  0  0  0  0  0  0  0
  2  1  3  0
  3  5  1  0
  4  3  2  0
  5  9  1  0
  6  1  1  0
  7  2  1  0
  8  6  2  0
  9 12  1  0
 10  4  1  0
 11  3  1  0
 12  8  1  0
 13 11  2  0
 14  4  1  0
 15 13  1  0
 16  7  1  0
 17  7  1  0
 18  7  1  0
 19  9  1  0
 20 10  1  0
 21 14  2  0
 22 21  1  0
 15 10  2  0
 22 20  2  0
M  END
> <chembl_id>
CHEMBL822

> <chembl_pref_name>
TERBINAFINE
