
     RDKit          2D

 23 25  0  0  1  0  0  0  0  0999 V2000
   -3.2958    2.1000    0.0000 N   0  0  0  0  0  0  0  0  0  0  0  0
    0.3167   -1.6667    0.0000 C   0  0  0  0  0  0  0  0  0  0  0  0
    0.9042   -0.6917    0.0000 C   0  0  0  0  0  0  0  0  0  0  0  0
   -2.9625    0.2708    0.0000 C   0  0  0  0  0  0  0  0  0  0  0  0
   -2.6583    0.7750    0.0000 C   0  0  0  0  0  0  0  0  0  0  0  0
   -1.2500   -0.9250    0.0000 C   0  0  0  0  0  0  0  0  0  0  0  0
   -0.8208   -1.6667    0.0000 O   0  0  0  0  0  0  0  0  0  0  0  0
   -1.5083    0.1333    0.0000 C   0  0  0  0  0  0  0  0  0  0  0  0
   -1.8083   -0.3542    0.0000 C   0  0  0  0  0  0  0  0  0  0  0  0
    0.8917   -2.6417    0.0000 O   0  0  0  0  0  0  0  0  0  0  0  0
    2.0500   -0.7000    0.0000 C   0  0  0  0  0  0  0  0  0  0  0  0
   -4.3458   -0.2792    0.0000 C   0  0  0  0  0  0  0  0  0  0  0  0
   -4.0000    0.2708    0.0000 C   0  0  0  0  0  0  0  0  0  0  0  0
   -2.5250    2.8708    0.0000 C   0  0  0  0  0  0  0  0  0  0  0  0
    0.3542    0.3000    0.0000 C   0  0  0  0  0  0  0  0  0  0  0  0
   -0.7875    0.3208    0.0000 O   0  0  0  0  0  0  0  0  0  0  0  0
    2.6167   -1.7042    0.0000 C   0  0  0  0  0  0  0  0  0  0  0  0
    2.6167    0.2833    0.0000 C   0  0  0  0  0  0  0  0  0  0  0  0
    3.7667    0.2708    0.0000 C   0  0  0  0  0  0  0  0  0  0  0  0
    3.7792   -1.7042    0.0000 C   0  0  0  0  0  0  0  0  0  0  0  0
    4.3417   -0.7292    0.0000 C   0  0  0  0  0  0  0  0  0  0  0  0
   -2.0208    1.6375    0.0000 H   0  0  0  0  0  0  0  0  0  0  0  0
   -3.2625   -0.8792    0.0000 H   0  0  0  0  0  0  0  0  0  0  0  0
  2  7  1  0
  3  2  1  0
  4  1  1  0
  5  1  1  0
  6  8  1  0
  6  7  1  6
  8  5  1  0
  9  4  1  0
 10  2  2  0
 11  3  1  0
 12  4  1  0
 13  5  1  0
 14  1  1  0
  3 15  1  6
 16 15  1  0
 17 11  2  0
 18 11  1  0
 19 18  2  0
 20 17  1  0
 21 19  1  0
  5 22  1  6
  4 23  1  1
 13 12  1  0
  9  6  1  0
 20 21  2  0
M  END
> <chembl_id>
CHEMBL1331216

> <chembl_pref_name>
HYOSCYAMINE
