
     RDKit          2D

 37 40  0  0  0  0  0  0  0  0999 V2000
    4.1250   -9.6667    0.0000 C   0  0  0  0  0  0  0  0  0  0  0  0
    4.8000   -9.4542    0.0000 C   0  0  0  0  0  0  0  0  0  0  0  0
    2.2792  -10.7167    0.0000 C   0  0  0  0  0  0  0  0  0  0  0  0
    3.5042  -10.7208    0.0000 C   0  0  0  0  0  0  0  0  0  0  0  0
    4.1167  -10.3708    0.0000 C   0  0  0  0  0  0  0  0  0  0  0  0
    2.8917  -10.3625    0.0000 C   0  0  0  0  0  0  0  0  0  0  0  0
    2.2792  -11.4250    0.0000 C   0  0  0  0  0  0  0  0  0  0  0  0
    3.5125   -9.3042    0.0000 C   0  0  0  0  0  0  0  0  0  0  0  0
    2.8958   -9.6542    0.0000 C   0  0  0  0  0  0  0  0  0  0  0  0
    4.7917   -8.7417    0.0000 C   0  0  0  0  0  0  0  0  0  0  0  0
    1.6667  -11.7792    0.0000 C   0  0  0  0  0  0  0  0  0  0  0  0
    5.2083  -10.0292    0.0000 C   0  0  0  0  0  0  0  0  0  0  0  0
    4.7875  -10.6000    0.0000 C   0  0  0  0  0  0  0  0  0  0  0  0
    3.5000  -11.4292    0.0000 C   0  0  0  0  0  0  0  0  0  0  0  0
    1.6667  -10.3625    0.0000 C   0  0  0  0  0  0  0  0  0  0  0  0
    6.6333   -8.3750    0.0000 C   0  0  0  0  0  0  0  0  0  0  0  0
    2.8875  -11.7792    0.0000 C   0  0  0  0  0  0  0  0  0  0  0  0
    1.0542  -11.4250    0.0000 C   0  0  0  0  0  0  0  0  0  0  0  0
    5.4042   -8.3833    0.0000 C   0  0  0  0  0  0  0  0  0  0  0  0
    4.1792   -8.3958    0.0000 O   0  0  0  0  0  0  0  0  0  0  0  0
    6.0208   -8.7333    0.0000 O   0  0  0  0  0  0  0  0  0  0  0  0
    6.6250   -7.6667    0.0000 O   0  0  0  0  0  0  0  0  0  0  0  0
    0.4417  -11.7750    0.0000 O   0  0  0  0  0  0  0  0  0  0  0  0
    5.4125   -9.0917    0.0000 O   0  0  0  0  0  0  0  0  0  0  0  0
    7.2458   -8.7250    0.0000 C   0  0  0  0  0  0  0  0  0  0  0  0
    4.1167   -8.9542    0.0000 C   0  0  0  0  0  0  0  0  0  0  0  0
    1.0542  -10.7167    0.0000 C   0  0  0  0  0  0  0  0  0  0  0  0
    2.2833   -9.2958    0.0000 O   0  0  0  0  0  0  0  0  0  0  0  0
    7.8583   -8.3667    0.0000 N   0  0  0  0  0  0  0  0  0  0  0  0
    2.2750  -10.0042    0.0000 C   0  0  0  0  0  0  0  0  0  0  0  0
    8.4750   -8.7167    0.0000 C   0  0  0  0  0  0  0  0  0  0  0  0
    7.8542   -7.6583    0.0000 C   0  0  0  0  0  0  0  0  0  0  0  0
    9.0833   -8.3583    0.0000 C   0  0  0  0  0  0  0  0  0  0  0  0
    8.4625   -7.3000    0.0000 C   0  0  0  0  0  0  0  0  0  0  0  0
    2.8875  -11.0667    0.0000 H   0  0  0  0  0  0  0  0  0  0  0  0
    4.1125  -11.0792    0.0000 H   0  0  0  0  0  0  0  0  0  0  0  0
    3.5000  -10.0125    0.0000 H   0  0  0  0  0  0  0  0  0  0  0  0
  2  1  1  0
  3  6  1  0
  4  5  1  0
  5  1  1  0
  6  4  1  0
  7  3  1  0
  8  1  1  0
  9  8  1  0
 10  2  1  0
 11  7  2  0
 12  2  1  0
 13  5  1  0
 14  4  1  0
 15  3  1  0
 16 21  1  0
 17 14  1  0
 18 11  1  0
 19 10  1  0
 20 10  2  0
 21 19  1  0
 22 16  2  0
 23 18  2  0
  2 24  1  6
 25 16  1  0
  1 26  1  1
 27 15  1  0
  9 28  1  1
 29 25  1  0
  3 30  1  1
 31 29  1  0
 32 29  1  0
 33 31  1  0
 34 32  1  0
  6 35  1  6
  5 36  1  6
  4 37  1  1
 12 13  1  0
  9  6  1  0
 17  7  1  0
 18 27  1  0
M  END
> <chembl_id>
CHEMBL1201263

> <chembl_pref_name>
HYDROCORTAMATE
