
     RDKit          2D

134145  0  0  0  0  0  0  0  0999 V2000
    8.0218  -15.7128    0.0000 Cl  0  0  0  0  0  0  0  0  0  0  0  0
    4.0765   -9.1840    0.0000 C   0  0  0  0  0  0  0  0  0  0  0  0
    3.5884   -9.8537    0.0000 C   0  0  0  0  0  0  0  0  0  0  0  0
    3.9565  -10.5948    0.0000 C   0  0  0  0  0  0  0  0  0  0  0  0
    4.7866  -10.6635    0.0000 C   0  0  0  0  0  0  0  0  0  0  0  0
    5.2461   -9.9689    0.0000 C   0  0  0  0  0  0  0  0  0  0  0  0
    4.9043   -9.2180    0.0000 C   0  0  0  0  0  0  0  0  0  0  0  0
    2.8130   -9.5367    0.0000 O   0  0  0  0  0  0  0  0  0  0  0  0
    3.4975  -11.2714    0.0000 O   0  0  0  0  0  0  0  0  0  0  0  0
    5.3047  -11.3195    0.0000 O   0  0  0  0  0  0  0  0  0  0  0  0
    5.4694   -8.5893    0.0000 C   0  0  0  0  0  0  0  0  0  0  0  0
    6.2963   -8.4723    0.0000 C   0  0  0  0  0  0  0  0  0  0  0  0
    5.1674   -7.8100    0.0000 N   0  0  0  0  0  0  0  0  0  0  0  0
    5.0875   -6.9856    0.0000 C   0  0  0  0  0  0  0  0  0  0  0  0
    5.0173   -6.1545    0.0000 C   0  0  0  0  0  0  0  0  0  0  0  0
    4.2733   -7.0596    0.0000 O   0  0  0  0  0  0  0  0  0  0  0  0
    4.2045   -5.9560    0.0000 N   0  0  0  0  0  0  0  0  0  0  0  0
    5.7786   -5.7810    0.0000 C   0  0  0  0  0  0  0  0  0  0  0  0
    6.4925   -6.2065    0.0000 C   0  0  0  0  0  0  0  0  0  0  0  0
    7.2226   -5.8288    0.0000 C   0  0  0  0  0  0  0  0  0  0  0  0
    7.2579   -5.0079    0.0000 C   0  0  0  0  0  0  0  0  0  0  0  0
    6.5671   -4.5532    0.0000 C   0  0  0  0  0  0  0  0  0  0  0  0
    5.8388   -4.9541    0.0000 C   0  0  0  0  0  0  0  0  0  0  0  0
    3.3801   -6.0775    0.0000 C   0  0  0  0  0  0  0  0  0  0  0  0
    2.5773   -5.8171    0.0000 C   0  0  0  0  0  0  0  0  0  0  0  0
    3.3118   -6.8922    0.0000 O   0  0  0  0  0  0  0  0  0  0  0  0
    2.6956   -4.9758    0.0000 N   0  0  0  0  0  0  0  0  0  0  0  0
    1.9897   -6.4396    0.0000 C   0  0  0  0  0  0  0  0  0  0  0  0
    1.8359   -7.2833    0.0000 C   0  0  0  0  0  0  0  0  0  0  0  0
    2.6177   -7.5563    0.0000 C   0  0  0  0  0  0  0  0  0  0  0  0
    2.8060   -8.3510    0.0000 C   0  0  0  0  0  0  0  0  0  0  0  0
    2.2198   -8.9360    0.0000 C   0  0  0  0  0  0  0  0  0  0  0  0
    1.4232   -8.6879    0.0000 C   0  0  0  0  0  0  0  0  0  0  0  0
    1.2444   -7.8764    0.0000 C   0  0  0  0  0  0  0  0  0  0  0  0
    2.6821  -11.2120    0.0000 C   0  0  0  0  0  0  0  0  0  0  0  0
    2.2231  -11.8885    0.0000 C   0  0  0  0  0  0  0  0  0  0  0  0
    1.4076  -11.8293    0.0000 C   0  0  0  0  0  0  0  0  0  0  0  0
    1.0512  -11.0935    0.0000 C   0  0  0  0  0  0  0  0  0  0  0  0
    1.5103  -10.4169    0.0000 C   0  0  0  0  0  0  0  0  0  0  0  0
    2.3257  -10.4762    0.0000 O   0  0  0  0  0  0  0  0  0  0  0  0
    2.5794  -12.6244    0.0000 N   0  0  0  0  0  0  0  0  0  0  0  0
    0.9486  -12.5058    0.0000 O   0  0  0  0  0  0  0  0  0  0  0  0
    0.2359  -11.0342    0.0000 O   0  0  0  0  0  0  0  0  0  0  0  0
    1.1539   -9.6811    0.0000 C   0  0  0  0  0  0  0  0  0  0  0  0
    1.6130   -9.0046    0.0000 O   0  0  0  0  0  0  0  0  0  0  0  0
    0.3385   -9.6219    0.0000 O   0  0  0  0  0  0  0  0  0  0  0  0
    2.1203  -13.3009    0.0000 C   0  0  0  0  0  0  0  0  0  0  0  0
    2.4767  -14.0367    0.0000 C   0  0  0  0  0  0  0  0  0  0  0  0
    1.3049  -13.2416    0.0000 O   0  0  0  0  0  0  0  0  0  0  0  0
    2.0176  -14.7132    0.0000 C   0  0  0  0  0  0  0  0  0  0  0  0
    2.3740  -15.4491    0.0000 C   0  0  0  0  0  0  0  0  0  0  0  0
    1.9150  -16.1256    0.0000 C   0  0  0  0  0  0  0  0  0  0  0  0
    2.2713  -16.8614    0.0000 C   0  0  0  0  0  0  0  0  0  0  0  0
    1.8123  -17.5378    0.0000 C   0  0  0  0  0  0  0  0  0  0  0  0
    0.9969  -17.4786    0.0000 C   0  0  0  0  0  0  0  0  0  0  0  0
    0.6406  -16.7428    0.0000 C   0  0  0  0  0  0  0  0  0  0  0  0
   -0.1749  -16.6835    0.0000 C   0  0  0  0  0  0  0  0  0  0  0  0
   -0.5313  -15.9477    0.0000 C   0  0  0  0  0  0  0  0  0  0  0  0
   -0.6339  -17.3601    0.0000 C   0  0  0  0  0  0  0  0  0  0  0  0
    3.1833   -4.2970    0.0000 C   0  0  0  0  0  0  0  0  0  0  0  0
    3.6565   -3.6139    0.0000 C   0  0  0  0  0  0  0  0  0  0  0  0
    3.0785   -3.0358    0.0000 N   0  0  0  0  0  0  0  0  0  0  0  0
    2.2888   -3.2473    0.0000 C   0  0  0  0  0  0  0  0  0  0  0  0
    4.3462   -3.1364    0.0000 C   0  0  0  0  0  0  0  0  0  0  0  0
    5.0505   -3.5756    0.0000 C   0  0  0  0  0  0  0  0  0  0  0  0
    5.8008   -3.2154    0.0000 C   0  0  0  0  0  0  0  0  0  0  0  0
    5.8339   -2.3870    0.0000 C   0  0  0  0  0  0  0  0  0  0  0  0
    5.1457   -1.9328    0.0000 C   0  0  0  0  0  0  0  0  0  0  0  0
    4.4092   -2.3061    0.0000 C   0  0  0  0  0  0  0  0  0  0  0  0
    6.4681   -7.0238    0.0000 Cl  0  0  0  0  0  0  0  0  0  0  0  0
    7.9117   -6.2687    0.0000 O   0  0  0  0  0  0  0  0  0  0  0  0
    6.0721  -11.6492    0.0000 C   0  0  0  0  0  0  0  0  0  0  0  0
    6.4816  -12.3679    0.0000 C   0  0  0  0  0  0  0  0  0  0  0  0
    7.3083  -12.3889    0.0000 C   0  0  0  0  0  0  0  0  0  0  0  0
    7.7481  -11.6795    0.0000 C   0  0  0  0  0  0  0  0  0  0  0  0
    7.3262  -10.9649    0.0000 C   0  0  0  0  0  0  0  0  0  0  0  0
    6.5105  -10.9493    0.0000 C   0  0  0  0  0  0  0  0  0  0  0  0
    6.0620  -13.0695    0.0000 Cl  0  0  0  0  0  0  0  0  0  0  0  0
    8.4935  -11.2833    0.0000 C   0  0  0  0  0  0  0  0  0  0  0  0
    8.8065  -10.5003    0.0000 C   0  0  0  0  0  0  0  0  0  0  0  0
    9.1021  -11.8294    0.0000 O   0  0  0  0  0  0  0  0  0  0  0  0
    9.6313  -10.6516    0.0000 C   0  0  0  0  0  0  0  0  0  0  0  0
    8.3978   -9.7600    0.0000 N   0  0  0  0  0  0  0  0  0  0  0  0
    7.0274   -8.0838    0.0000 N   0  0  0  0  0  0  0  0  0  0  0  0
    6.5492   -9.2498    0.0000 O   0  0  0  0  0  0  0  0  0  0  0  0
    7.8492   -8.2411    0.0000 C   0  0  0  0  0  0  0  0  0  0  0  0
    7.9064   -9.0824    0.0000 C   0  0  0  0  0  0  0  0  0  0  0  0
    7.1378   -9.3609    0.0000 O   0  0  0  0  0  0  0  0  0  0  0  0
   10.3481  -10.2366    0.0000 N   0  0  0  0  0  0  0  0  0  0  0  0
    9.7710  -11.4572    0.0000 O   0  0  0  0  0  0  0  0  0  0  0  0
   10.4737   -9.4217    0.0000 C   0  0  0  0  0  0  0  0  0  0  0  0
    8.4986   -7.6872    0.0000 C   0  0  0  0  0  0  0  0  0  0  0  0
    9.2706   -7.9917    0.0000 C   0  0  0  0  0  0  0  0  0  0  0  0
    9.9479   -7.5107    0.0000 C   0  0  0  0  0  0  0  0  0  0  0  0
    9.8440   -6.6875    0.0000 C   0  0  0  0  0  0  0  0  0  0  0  0
    9.0912   -6.3585    0.0000 C   0  0  0  0  0  0  0  0  0  0  0  0
    8.4353   -6.8579    0.0000 C   0  0  0  0  0  0  0  0  0  0  0  0
   10.6682   -7.9336    0.0000 C   0  0  0  0  0  0  0  0  0  0  0  0
   10.9096   -8.7147    0.0000 C   0  0  0  0  0  0  0  0  0  0  0  0
   11.7067   -8.8963    0.0000 C   0  0  0  0  0  0  0  0  0  0  0  0
   12.2625   -8.2967    0.0000 C   0  0  0  0  0  0  0  0  0  0  0  0
   12.0211   -7.5156    0.0000 C   0  0  0  0  0  0  0  0  0  0  0  0
   11.2240   -7.3341    0.0000 C   0  0  0  0  0  0  0  0  0  0  0  0
   11.2409   -9.7041    0.0000 C   0  0  0  0  0  0  0  0  0  0  0  0
   11.8691   -9.1809    0.0000 O   0  0  0  0  0  0  0  0  0  0  0  0
   11.3799  -10.5098    0.0000 N   0  0  0  0  0  0  0  0  0  0  0  0
   12.1471  -10.7922    0.0000 C   0  0  0  0  0  0  0  0  0  0  0  0
   12.2861  -11.5979    0.0000 C   0  0  0  0  0  0  0  0  0  0  0  0
   13.0533  -11.8803    0.0000 C   0  0  0  0  0  0  0  0  0  0  0  0
   13.1924  -12.6860    0.0000 N   0  0  0  0  0  0  0  0  0  0  0  0
   13.9596  -12.9684    0.0000 C   0  0  0  0  0  0  0  0  0  0  0  0
   12.5641  -13.2092    0.0000 C   0  0  0  0  0  0  0  0  0  0  0  0
   13.0597   -8.4783    0.0000 O   0  0  0  0  0  0  0  0  0  0  0  0
   10.9827   -6.5529    0.0000 O   0  0  0  0  0  0  0  0  0  0  0  0
   11.5384   -5.9533    0.0000 C   0  0  0  0  0  0  0  0  0  0  0  0
   12.3356   -6.1349    0.0000 O   0  0  0  0  0  0  0  0  0  0  0  0
   12.8914   -5.5353    0.0000 C   0  0  0  0  0  0  0  0  0  0  0  0
   12.6500   -4.7541    0.0000 C   0  0  0  0  0  0  0  0  0  0  0  0
   11.8529   -4.5726    0.0000 C   0  0  0  0  0  0  0  0  0  0  0  0
   11.2971   -5.1722    0.0000 C   0  0  0  0  0  0  0  0  0  0  0  0
   10.4988   -6.1978    0.0000 O   0  0  0  0  0  0  0  0  0  0  0  0
   10.5000   -4.9907    0.0000 O   0  0  0  0  0  0  0  0  0  0  0  0
   11.6116   -3.7915    0.0000 O   0  0  0  0  0  0  0  0  0  0  0  0
   13.2059   -4.1546    0.0000 O   0  0  0  0  0  0  0  0  0  0  0  0
   13.6886   -5.7169    0.0000 C   0  0  0  0  0  0  0  0  0  0  0  0
   14.2443   -5.1172    0.0000 O   0  0  0  0  0  0  0  0  0  0  0  0
    3.8513   -4.7683    0.0000 O   0  0  0  0  0  0  0  0  0  0  0  0
    7.6402   -7.4508    0.0000 H   0  0  0  0  0  0  0  0  0  0  0  0
    9.2018  -11.2160    0.0000 H   0  0  0  0  0  0  0  0  0  0  0  0
    1.8404   -5.4629    0.0000 H   0  0  0  0  0  0  0  0  0  0  0  0
    5.7287   -6.5573    0.0000 H   0  0  0  0  0  0  0  0  0  0  0  0
    5.8830   -7.8840    0.0000 H   0  0  0  0  0  0  0  0  0  0  0  0
    6.4681   -3.7225    0.0000 O   0  0  0  0  0  0  0  0  0  0  0  0
    6.5614   -2.0140    0.0000 O   0  0  0  0  0  0  0  0  0  0  0  0
  2  3  1  0
  2  7  2  0
  3  4  2  0
  4  5  1  0
  5  6  2  0
  6  7  1  0
  3  8  1  0
  4  9  1  0
  5 10  1  0
  7 11  1  0
 11 12  1  0
 11 13  1  0
 13 14  1  0
 14 15  1  0
 14 16  2  0
 15 17  1  0
 15 18  1  0
 18 19  1  0
 18 23  2  0
 19 20  2  0
 20 21  1  0
 21 22  2  0
 22 23  1  0
 17 24  1  0
 24 25  1  0
 24 26  2  0
 25 27  1  0
 25 28  1  0
 28 29  1  0
 29 30  1  0
 29 34  2  0
 30 31  2  0
 31 32  1  0
 32 33  2  0
 33 34  1  0
 32  8  1  0
 35  9  1  1
 35 36  1  0
 40 35  1  0
 36 37  1  0
 37 38  1  0
 38 39  1  0
 39 40  1  0
 36 41  1  6
 37 42  1  1
 38 43  1  6
 39 44  1  1
 44 45  2  0
 44 46  1  0
 41 47  1  0
 47 48  1  0
 47 49  2  0
 48 50  1  0
 50 51  1  0
 51 52  1  0
 52 53  1  0
 53 54  1  0
 54 55  1  0
 55 56  1  0
 56 57  1  0
 57 58  1  0
 57 59  1  0
 27 60  1  0
 60 61  1  0
 61 62  1  6
 62 63  1  0
 61 64  1  0
 64 65  1  0
 64 69  2  0
 65 66  2  0
 66 67  1  0
 67 68  2  0
 68 69  1  0
 19 70  1  0
 20 71  1  0
 10 72  1  0
 72 73  1  0
 72 77  2  0
 73 74  2  0
 74 75  1  0
 75 76  2  0
 76 77  1  0
 73 78  1  0
 75 79  1  0
 79 80  1  0
 79 81  1  6
 80 82  1  0
 80 83  1  0
 12 84  1  0
 12 85  2  0
 86 84  1  0
 86 87  1  0
 87 83  1  0
 87 88  2  0
 82 89  1  0
 82 90  2  0
 89 91  1  0
 86 92  1  0
 92 93  1  0
 92 97  2  0
 93 94  2  0
 94 95  1  0
 95 96  2  0
 96 97  1  0
 94 98  1  0
 98 99  1  0
 98103  2  0
 99100  2  0
100101  1  0
101102  2  0
102103  1  0
 91 99  1  0
 91104  1  6
104105  2  0
104106  1  0
106107  1  0
107108  1  0
108109  1  0
109110  1  0
110111  1  0
110112  1  0
101113  1  0
103114  1  0
115114  1  6
115116  1  0
120115  1  0
116117  1  0
117118  1  0
118119  1  0
119120  1  0
 95121  1  0
120122  1  1
119123  1  1
118124  1  6
117125  1  1
125126  1  0
 60127  2  0
 86128  1  1
 80129  1  1
 25130  1  6
 15131  1  6
 11132  1  6
 22133  1  0
 67134  1  0
 66133  1  0
M  END
> <chembl_id>
CHEMBL3301650

> <chembl_pref_name>
DALBAVANCIN HYDROCHLORIDE
