
     RDKit          2D

 28 32  0  0  1  0  0  0  0  0999 V2000
   -1.3125   -1.4792    0.0000 C   0  0  0  0  0  0  0  0  0  0  0  0
    1.5750    0.0875    0.0000 C   0  0  0  0  0  0  0  0  0  0  0  0
   -1.3125   -2.6000    0.0000 C   0  0  0  0  0  0  0  0  0  0  0  0
    2.8042    0.3958    0.0000 C   0  0  0  0  0  0  0  0  0  0  0  0
    0.6000   -1.5000    0.0000 C   0  0  0  0  0  0  0  0  0  0  0  0
   -0.3458   -0.9417    0.0000 C   0  0  0  0  0  0  0  0  0  0  0  0
    1.5542   -0.9792    0.0000 C   0  0  0  0  0  0  0  0  0  0  0  0
    0.5625   -2.6542    0.0000 C   0  0  0  0  0  0  0  0  0  0  0  0
    2.4292    1.6333    0.0000 O   0  0  0  0  0  0  0  0  0  0  0  0
   -0.3708   -3.1875    0.0000 C   0  0  0  0  0  0  0  0  0  0  0  0
   -2.2833   -3.1375    0.0000 C   0  0  0  0  0  0  0  0  0  0  0  0
    0.6292    0.6708    0.0000 C   0  0  0  0  0  0  0  0  0  0  0  0
    3.4042    2.2250    0.0000 C   0  0  0  0  0  0  0  0  0  0  0  0
   -0.3000    0.1583    0.0000 C   0  0  0  0  0  0  0  0  0  0  0  0
   -2.2375   -0.9000    0.0000 C   0  0  0  0  0  0  0  0  0  0  0  0
    2.5917   -1.3792    0.0000 C   0  0  0  0  0  0  0  0  0  0  0  0
    3.4167   -0.5750    0.0000 C   0  0  0  0  0  0  0  0  0  0  0  0
   -3.2458   -2.5667    0.0000 C   0  0  0  0  0  0  0  0  0  0  0  0
    4.2167    0.6208    0.0000 C   0  0  0  0  0  0  0  0  0  0  0  0
    3.4042    3.1708    0.0000 O   0  0  0  0  0  0  0  0  0  0  0  0
   -4.2083   -3.0917    0.0000 O   0  0  0  0  0  0  0  0  0  0  0  0
    4.3417    1.5625    0.0000 C   0  0  0  0  0  0  0  0  0  0  0  0
   -3.2208   -1.4167    0.0000 C   0  0  0  0  0  0  0  0  0  0  0  0
   -1.3125   -0.3417    0.0000 C   0  0  0  0  0  0  0  0  0  0  0  0
    1.5625    1.2458    0.0000 C   0  0  0  0  0  0  0  0  0  0  0  0
    1.5167   -2.0500    0.0000 H   0  0  0  0  0  0  0  0  0  0  0  0
    0.6292   -0.2792    0.0000 H   0  0  0  0  0  0  0  0  0  0  0  0
   -0.3833   -2.0667    0.0000 H   0  0  0  0  0  0  0  0  0  0  0  0
  2 12  1  0
  3  1  1  0
  4  2  1  0
  5  6  1  0
  6  1  1  0
  7  5  1  0
  8  5  1  0
  4  9  1  1
 10  3  1  0
 11  3  2  0
 12 14  1  0
 13  9  1  0
 14  6  1  0
 15  1  1  0
 16  7  1  0
 17 16  1  0
 18 23  1  0
 19  4  1  0
 20 13  2  0
 21 18  2  0
 22 19  1  0
 23 15  1  0
  1 24  1  1
  2 25  1  1
  7 26  1  6
  5 27  1  1
  6 28  1  6
 10  8  2  0
 11 18  1  0
  2  7  1  0
  4 17  1  0
 13 22  1  0
M  END
> <chembl_id>
CHEMBL1463345

> <chembl_pref_name>
CANRENONE
