
     RDKit          2D

 19 18  0  0  0  0  0  0  0  0999 V2000
    0.9167   -5.3292    0.0000 P   0  0  0  0  0  0  0  0  0  0  0  0
    2.1458   -5.3292    0.0000 C   0  0  0  0  0  0  0  0  0  0  0  0
    1.5292   -5.6792    0.0000 S   0  0  0  0  0  0  0  0  0  0  0  0
    2.1458   -4.6167    0.0000 C   0  0  0  0  0  0  0  0  0  0  0  0
    2.7583   -5.6792    0.0000 C   0  0  0  0  0  0  0  0  0  0  0  0
    2.7583   -4.2667    0.0000 C   0  0  0  0  0  0  0  0  0  0  0  0
    1.2667   -4.7125    0.0000 S   0  0  0  0  0  0  0  0  0  0  0  0
    2.7583   -6.3917    0.0000 O   0  0  0  0  0  0  0  0  0  0  0  0
    2.7583   -3.5542    0.0000 O   0  0  0  0  0  0  0  0  0  0  0  0
    0.5542   -4.7125    0.0000 O   0  0  0  0  0  0  0  0  0  0  0  0
    0.3042   -5.6792    0.0000 O   0  0  0  0  0  0  0  0  0  0  0  0
    3.3708   -5.3292    0.0000 O   0  0  0  0  0  0  0  0  0  0  0  0
    3.3708   -4.6167    0.0000 O   0  0  0  0  0  0  0  0  0  0  0  0
    3.9833   -5.6792    0.0000 C   0  0  0  0  0  0  0  0  0  0  0  0
    3.9833   -4.2667    0.0000 C   0  0  0  0  0  0  0  0  0  0  0  0
   -0.1500   -4.7167    0.0000 C   0  0  0  0  0  0  0  0  0  0  0  0
   -0.3083   -5.3292    0.0000 C   0  0  0  0  0  0  0  0  0  0  0  0
    4.6000   -5.3292    0.0000 C   0  0  0  0  0  0  0  0  0  0  0  0
    4.6000   -4.6167    0.0000 C   0  0  0  0  0  0  0  0  0  0  0  0
  2  3  1  0
  3  1  1  0
  4  2  1  0
  5  2  1  0
  6  4  1  0
  7  1  2  0
  8  5  2  0
  9  6  2  0
 10  1  1  0
 11  1  1  0
 12  5  1  0
 13  6  1  0
 14 12  1  0
 15 13  1  0
 16 10  1  0
 17 11  1  0
 18 14  1  0
 19 15  1  0
M  END
> <chembl_id>
CHEMBL1200468

> <chembl_pref_name>
MALATHION
