
     RDKit          2D

 27 27  0  0  0  0  0  0  0  0999 V2000
    3.2750   -1.3125    0.0000 Na  0  0  0  0  0 15  0  0  0  0  0  0
   -0.1833   -0.2667    0.0000 N   0  0  0  0  0  0  0  0  0  0  0  0
   -0.8625   -0.4750    0.0000 C   0  0  0  0  0  0  0  0  0  0  0  0
   -0.1833    0.4250    0.0000 C   0  0  0  0  0  0  0  0  0  0  0  0
   -1.2583    0.0875    0.0000 C   0  0  0  0  0  0  0  0  0  0  0  0
   -0.8500    0.6500    0.0000 N   0  0  0  0  0  0  0  0  0  0  0  0
    1.8292   -0.6542    0.0000 P   0  0  0  0  0  0  0  0  0  0  0  0
    0.4792   -0.6542    0.0000 C   0  0  0  0  0  0  0  0  0  0  0  0
    1.1500   -0.2667    0.0000 O   0  0  0  0  0  0  0  0  0  0  0  0
   -1.0000   -1.1167    0.0000 O   0  0  0  0  0  0  0  0  0  0  0  0
    0.4167    0.7833    0.0000 O   0  0  0  0  0  0  0  0  0  0  0  0
    2.4917   -0.2417    0.0000 O   0  0  0  0  0  0  0  0  0  0  0  0
    2.2167   -1.3292    0.0000 O   0  0  0  0  0  0  0  0  0  0  0  0
   -1.7583    0.6833    0.0000 C   0  0  0  0  0  0  0  0  0  0  0  0
   -1.7958   -0.3292    0.0000 C   0  0  0  0  0  0  0  0  0  0  0  0
    1.4375   -1.3250    0.0000 O   0  0  0  0  0  0  0  0  0  0  0  0
   -1.7958   -1.0167    0.0000 C   0  0  0  0  0  0  0  0  0  0  0  0
   -2.3833    0.0375    0.0000 C   0  0  0  0  0  0  0  0  0  0  0  0
   -2.4625    0.6708    0.0000 C   0  0  0  0  0  0  0  0  0  0  0  0
   -1.4208    1.2625    0.0000 C   0  0  0  0  0  0  0  0  0  0  0  0
   -3.0000   -0.3250    0.0000 C   0  0  0  0  0  0  0  0  0  0  0  0
   -2.8000    1.2833    0.0000 C   0  0  0  0  0  0  0  0  0  0  0  0
   -1.7500    1.8833    0.0000 C   0  0  0  0  0  0  0  0  0  0  0  0
   -2.3958   -1.3667    0.0000 C   0  0  0  0  0  0  0  0  0  0  0  0
   -3.0000   -1.0042    0.0000 C   0  0  0  0  0  0  0  0  0  0  0  0
   -2.4583    1.8750    0.0000 C   0  0  0  0  0  0  0  0  0  0  0  0
    3.2750   -0.2167    0.0000 Na  0  0  0  0  0 15  0  0  0  0  0  0
  3  2  1  0
  4  2  1  0
  5  3  1  0
  6  4  1  0
  7  9  1  0
  8  2  1  0
  9  8  1  0
 10  3  2  0
 11  4  2  0
 12  7  1  0
 13  7  1  0
 14  5  1  0
 15  5  1  0
 16  7  2  0
 17 15  1  0
 18 15  2  0
 19 14  2  0
 20 14  1  0
 21 18  1  0
 22 19  1  0
 23 20  2  0
 24 17  2  0
 25 21  2  0
 26 23  1  0
  5  6  1  0
 22 26  2  0
 24 25  1  0
M  CHG  4   1   1  12  -1  13  -1  27   1
M  END
> <chembl_id>
CHEMBL919

> <chembl_pref_name>
FOSPHENYTOIN SODIUM
