
     RDKit          2D

 18 19  0  0  0  0  0  0  0  0999 V2000
    0.4000   -2.9417    0.0000 S   0  0  0  0  0  0  0  0  0  0  0  0
    1.6250   -2.9333    0.0000 C   0  0  0  0  0  0  0  0  0  0  0  0
    1.0125   -2.5833    0.0000 N   0  0  0  0  0  0  0  0  0  0  0  0
    1.8417   -3.6083    0.0000 C   0  0  0  0  0  0  0  0  0  0  0  0
    2.7708   -2.9333    0.0000 N   0  0  0  0  0  0  0  0  0  0  0  0
    2.1958   -2.5167    0.0000 O   0  0  0  0  0  0  0  0  0  0  0  0
    2.5500   -3.6083    0.0000 C   0  0  0  0  0  0  0  0  0  0  0  0
   -0.2167   -2.5875    0.0000 C   0  0  0  0  0  0  0  0  0  0  0  0
    0.7500   -3.5542    0.0000 O   0  0  0  0  0  0  0  0  0  0  0  0
    0.0417   -3.5542    0.0000 O   0  0  0  0  0  0  0  0  0  0  0  0
   -0.8292   -2.9417    0.0000 C   0  0  0  0  0  0  0  0  0  0  0  0
   -0.2167   -1.8750    0.0000 C   0  0  0  0  0  0  0  0  0  0  0  0
    1.2250   -3.9542    0.0000 C   0  0  0  0  0  0  0  0  0  0  0  0
   -1.4417   -1.8750    0.0000 C   0  0  0  0  0  0  0  0  0  0  0  0
   -2.0542   -1.5208    0.0000 N   0  0  0  0  0  0  0  0  0  0  0  0
   -1.4417   -2.5875    0.0000 C   0  0  0  0  0  0  0  0  0  0  0  0
   -0.8292   -1.5208    0.0000 C   0  0  0  0  0  0  0  0  0  0  0  0
    3.1625   -3.9625    0.0000 C   0  0  0  0  0  0  0  0  0  0  0  0
  2  3  1  0
  3  1  1  0
  4  2  2  0
  5  6  1  0
  6  2  1  0
  7  4  1  0
  8  1  1  0
  9  1  2  0
 10  1  2  0
 11  8  2  0
 12  8  1  0
 13  4  1  0
 14 16  2  0
 15 14  1  0
 16 11  1  0
 17 12  2  0
 18  7  1  0
 14 17  1  0
  5  7  2  0
M  END
> <chembl_id>
CHEMBL453

> <chembl_pref_name>
SULFISOXAZOLE
