
     RDKit          2D

 21 21  0  0  0  0  0  0  0  0999 V2000
    5.4917   -7.4667    0.0000 Cl  0  0  0  0  0  0  0  0  0  0  0  0
    5.0750   -6.1125    0.0000 C   0  0  0  0  0  0  0  0  0  0  0  0
    5.6875   -5.7667    0.0000 C   0  0  0  0  0  0  0  0  0  0  0  0
    4.7292   -5.4917    0.0000 C   0  0  0  0  0  0  0  0  0  0  0  0
    6.2917   -6.1250    0.0000 C   0  0  0  0  0  0  0  0  0  0  0  0
    4.4542   -6.4542    0.0000 C   0  0  0  0  0  0  0  0  0  0  0  0
    4.0167   -5.4875    0.0000 C   0  0  0  0  0  0  0  0  0  0  0  0
    5.4250   -6.7292    0.0000 O   0  0  0  0  0  0  0  0  0  0  0  0
    3.6750   -4.8750    0.0000 N   0  0  0  0  0  0  0  0  0  0  0  0
    6.2875   -6.8417    0.0000 Cl  0  0  0  0  0  0  0  0  0  0  0  0
    5.6917   -5.0542    0.0000 C   0  0  0  0  0  0  0  0  0  0  0  0
    6.9125   -5.7792    0.0000 C   0  0  0  0  0  0  0  0  0  0  0  0
    4.4500   -7.1667    0.0000 C   0  0  0  0  0  0  0  0  0  0  0  0
    3.8417   -6.0917    0.0000 C   0  0  0  0  0  0  0  0  0  0  0  0
    4.0375   -4.2583    0.0000 C   0  0  0  0  0  0  0  0  0  0  0  0
    2.9667   -4.8625    0.0000 C   0  0  0  0  0  0  0  0  0  0  0  0
    6.3042   -4.7042    0.0000 C   0  0  0  0  0  0  0  0  0  0  0  0
    6.9167   -5.0667    0.0000 C   0  0  0  0  0  0  0  0  0  0  0  0
    3.8292   -7.5125    0.0000 C   0  0  0  0  0  0  0  0  0  0  0  0
    3.2292   -6.4375    0.0000 C   0  0  0  0  0  0  0  0  0  0  0  0
    3.2292   -7.1500    0.0000 C   0  0  0  0  0  0  0  0  0  0  0  0
  3  2  1  0
  4  2  1  0
  5  3  2  0
  6  2  1  0
  7  4  1  0
  8  2  1  0
  9  7  1  0
 10  5  1  0
 11  3  1  0
 12  5  1  0
 13  6  1  0
 14  6  2  0
 15  9  1  0
 16  9  1  0
 17 11  2  0
 18 17  1  0
 19 13  2  0
 20 14  1  0
 21 19  1  0
 21 20  2  0
 18 12  2  0
M  END
> <chembl_id>
CHEMBL1200972

> <chembl_pref_name>
CHLOPHEDIANOL HYDROCHLORIDE
