
     RDKit          2D

 36 38  0  0  0  0  0  0  0  0999 V2000
    6.8875   -3.2792    0.0000 Cl  0  0  0  0  0  0  0  0  0  0  0  0
    3.8208   -4.2292    0.0000 C   0  0  0  0  0  0  0  0  0  0  0  0
    2.6000   -4.2042    0.0000 C   0  0  0  0  0  0  0  0  0  0  0  0
    3.8250   -3.5292    0.0000 C   0  0  0  0  0  0  0  0  0  0  0  0
    5.0583   -4.2542    0.0000 C   0  0  0  0  0  0  0  0  0  0  0  0
    3.2125   -4.5667    0.0000 C   0  0  0  0  0  0  0  0  0  0  0  0
    2.6125   -3.5042    0.0000 C   0  0  0  0  0  0  0  0  0  0  0  0
    4.4250   -4.5917    0.0000 C   0  0  0  0  0  0  0  0  0  0  0  0
    5.0708   -3.5542    0.0000 C   0  0  0  0  0  0  0  0  0  0  0  0
    1.9708   -4.5417    0.0000 C   0  0  0  0  0  0  0  0  0  0  0  0
    2.0000   -3.1417    0.0000 C   0  0  0  0  0  0  0  0  0  0  0  0
    4.4583   -3.1917    0.0000 C   0  0  0  0  0  0  0  0  0  0  0  0
    3.2375   -3.1667    0.0000 C   0  0  0  0  0  0  0  0  0  0  0  0
    1.3583   -4.1792    0.0000 C   0  0  0  0  0  0  0  0  0  0  0  0
    1.3750   -3.4792    0.0000 C   0  0  0  0  0  0  0  0  0  0  0  0
    5.6708   -4.6167    0.0000 C   0  0  0  0  0  0  0  0  0  0  0  0
    5.6958   -3.2042    0.0000 O   0  0  0  0  0  0  0  0  0  0  0  0
    4.4750   -2.4667    0.0000 N   0  0  0  0  0  0  0  0  0  0  0  0
    4.4125   -5.3042    0.0000 O   0  0  0  0  0  0  0  0  0  0  0  0
    1.9583   -5.2667    0.0000 O   0  0  0  0  0  0  0  0  0  0  0  0
    0.7375   -4.5167    0.0000 C   0  0  0  0  0  0  0  0  0  0  0  0
    3.8000   -4.9417    0.0000 O   0  0  0  0  0  0  0  0  0  0  0  0
    5.6625   -5.3292    0.0000 O   0  0  0  0  0  0  0  0  0  0  0  0
    3.2000   -5.2792    0.0000 O   0  0  0  0  0  0  0  0  0  0  0  0
    1.6458   -2.5250    0.0000 O   0  0  0  0  0  0  0  0  0  0  0  0
    3.2375   -2.4417    0.0000 O   0  0  0  0  0  0  0  0  0  0  0  0
    6.2875   -4.2667    0.0000 N   0  0  0  0  0  0  0  0  0  0  0  0
    2.3500   -2.5250    0.0000 C   0  0  0  0  0  0  0  0  0  0  0  0
    0.7625   -3.1167    0.0000 C   0  0  0  0  0  0  0  0  0  0  0  0
    0.7208   -5.2292    0.0000 O   0  0  0  0  0  0  0  0  0  0  0  0
    0.1333   -3.4542    0.0000 C   0  0  0  0  0  0  0  0  0  0  0  0
    0.1083   -4.1542    0.0000 C   0  0  0  0  0  0  0  0  0  0  0  0
    3.8583   -2.0917    0.0000 C   0  0  0  0  0  0  0  0  0  0  0  0
    5.0958   -2.1167    0.0000 C   0  0  0  0  0  0  0  0  0  0  0  0
    3.8583   -2.8167    0.0000 H   0  0  0  0  0  0  0  0  0  0  0  0
    2.5958   -2.8917    0.0000 H   0  0  0  0  0  0  0  0  0  0  0  0
  3  6  2  0
  4  2  1  0
  5  8  1  0
  6  2  1  0
  7  3  1  0
  8  2  1  0
  9  5  2  0
 10  3  1  0
 11  7  1  0
 12  4  1  0
 13  4  1  0
 14 10  1  0
 15 14  1  0
 16  5  1  0
 17  9  1  0
 12 18  1  6
 19  8  2  0
 20 10  2  0
 21 14  2  0
  2 22  1  6
 23 16  2  0
 24  6  1  0
 11 25  1  1
 13 26  1  6
 27 16  1  0
 28 11  1  0
 29 15  2  0
 30 21  1  0
 31 32  2  0
 32 21  1  0
 33 18  1  0
 34 18  1  0
  4 35  1  6
  7 36  1  6
 13  7  1  0
 12  9  1  0
 11 15  1  0
 31 29  1  0
M  END
> <chembl_id>
CHEMBL1607480

> <chembl_pref_name>
OXYTETRACYCLINE HYDROCHLORIDE
