
     RDKit          2D

 21 22  0  0  0  0  0  0  0  0999 V2000
    8.7917   -5.7167    0.0000 Cl  0  0  0  0  0  0  0  0  0  0  0  0
    4.7292   -4.9792    0.0000 N   0  0  0  0  0  0  0  0  0  0  0  0
    5.3417   -5.3292    0.0000 C   0  0  0  0  0  0  0  0  0  0  0  0
    4.7292   -6.4167    0.0000 S   0  0  0  0  0  0  0  0  0  0  0  0
    4.1292   -5.3292    0.0000 C   0  0  0  0  0  0  0  0  0  0  0  0
    5.3417   -6.0625    0.0000 C   0  0  0  0  0  0  0  0  0  0  0  0
    4.1292   -6.0625    0.0000 C   0  0  0  0  0  0  0  0  0  0  0  0
    5.9667   -4.9792    0.0000 N   0  0  0  0  0  0  0  0  0  0  0  0
    4.7292   -4.2750    0.0000 C   0  0  0  0  0  0  0  0  0  0  0  0
    5.3417   -3.9125    0.0000 C   0  0  0  0  0  0  0  0  0  0  0  0
    6.5750   -3.8792    0.0000 N   0  0  0  0  0  0  0  0  0  0  0  0
    3.5292   -4.9792    0.0000 C   0  0  0  0  0  0  0  0  0  0  0  0
    5.9667   -6.4167    0.0000 C   0  0  0  0  0  0  0  0  0  0  0  0
    3.5292   -6.4167    0.0000 C   0  0  0  0  0  0  0  0  0  0  0  0
    5.9667   -4.2500    0.0000 C   0  0  0  0  0  0  0  0  0  0  0  0
    6.5625   -5.3292    0.0000 C   0  0  0  0  0  0  0  0  0  0  0  0
    6.5375   -3.1792    0.0000 C   0  0  0  0  0  0  0  0  0  0  0  0
    7.2042   -4.2292    0.0000 C   0  0  0  0  0  0  0  0  0  0  0  0
    6.5625   -6.0625    0.0000 C   0  0  0  0  0  0  0  0  0  0  0  0
    2.9375   -5.3042    0.0000 C   0  0  0  0  0  0  0  0  0  0  0  0
    2.9375   -6.0875    0.0000 C   0  0  0  0  0  0  0  0  0  0  0  0
  3  2  1  0
  4  7  1  0
  5  2  1  0
  6  3  2  0
  7  5  2  0
  8  3  1  0
  9  2  1  0
 10  9  1  0
 11 15  1  0
 12  5  1  0
 13  6  1  0
 14  7  1  0
 15 10  1  0
 16  8  2  0
 17 11  1  0
 18 11  1  0
 19 16  1  0
 20 12  2  0
 21 20  1  0
  6  4  1  0
 14 21  2  0
 13 19  2  0
M  END
> <chembl_id>
CHEMBL2107124

> <chembl_pref_name>
PROTHIPENDYL HYDROCHLORIDE
