
     RDKit          2D

 32 34  0  0  0  0  0  0  0  0999 V2000
    2.1223   -2.9409    0.0000 Na  0  0  0  0  0 15  0  0  0  0  0  0
    2.3517   -6.1124    0.0000 C   0  0  0  0  0  0  0  0  0  0  0  0
    2.3517   -5.2874    0.0000 C   0  0  0  0  0  0  0  0  0  0  0  0
    1.6372   -4.8749    0.0000 C   0  0  0  0  0  0  0  0  0  0  0  0
    0.9227   -5.2874    0.0000 C   0  0  0  0  0  0  0  0  0  0  0  0
    0.9227   -6.1124    0.0000 N   0  0  0  0  0  0  0  0  0  0  0  0
    1.6372   -6.5249    0.0000 C   0  0  0  0  0  0  0  0  0  0  0  0
    0.2082   -4.8749    0.0000 C   0  0  0  0  0  0  0  0  0  0  0  0
   -0.5062   -5.2874    0.0000 N   0  0  0  0  0  0  0  0  0  0  0  0
   -0.5062   -6.1124    0.0000 C   0  0  0  0  0  0  0  0  0  0  0  0
    0.2083   -6.5249    0.0000 C   0  0  0  0  0  0  0  0  0  0  0  0
   -1.2207   -4.8749    0.0000 C   0  0  0  0  0  0  0  0  0  0  0  0
   -1.9352   -5.2874    0.0000 C   0  0  0  0  0  0  0  0  0  0  0  0
   -1.9352   -6.1124    0.0000 C   0  0  0  0  0  0  0  0  0  0  0  0
   -1.2207   -6.5249    0.0000 O   0  0  0  0  0  0  0  0  0  0  0  0
    3.0662   -6.5249    0.0000 C   0  0  0  0  0  0  0  0  0  0  0  0
    3.0662   -7.3499    0.0000 O   0  0  0  0  0  0  0  0  0  0  0  0
    3.7806   -6.1124    0.0000 N   0  0  0  0  0  0  0  0  0  0  0  0
    4.4951   -6.5249    0.0000 C   0  0  0  0  0  0  0  0  0  0  0  0
    5.2096   -6.1124    0.0000 C   0  0  0  0  0  0  0  0  0  0  0  0
    5.9241   -6.5250    0.0000 C   0  0  0  0  0  0  0  0  0  0  0  0
    6.6385   -6.1125    0.0000 C   0  0  0  0  0  0  0  0  0  0  0  0
    6.6385   -5.2874    0.0000 C   0  0  0  0  0  0  0  0  0  0  0  0
    5.9240   -4.8749    0.0000 C   0  0  0  0  0  0  0  0  0  0  0  0
    5.2096   -5.2874    0.0000 C   0  0  0  0  0  0  0  0  0  0  0  0
    7.3530   -4.8749    0.0000 F   0  0  0  0  0  0  0  0  0  0  0  0
    4.4951   -4.8749    0.0000 F   0  0  0  0  0  0  0  0  0  0  0  0
    3.0662   -4.8749    0.0000 O   0  0  0  0  0  0  0  0  0  0  0  0
    1.6372   -4.0499    0.0000 O   0  0  0  0  0  0  0  0  0  0  0  0
    0.2082   -4.0499    0.0000 O   0  0  0  0  0  0  0  0  0  0  0  0
   -0.8082   -4.1604    0.0000 C   0  0  0  0  0  0  0  0  0  0  0  0
   -0.5062   -7.1124    0.0000 H   0  0  0  0  0  0  0  0  0  0  0  0
  2  3  1  0
  3  4  1  0
  4  5  2  0
  6  7  1  0
  7  2  2  0
  5  8  1  0
  6  5  1  0
 11  6  1  0
  8  9  1  0
 10 11  1  0
  9 12  1  0
 10  9  1  0
 15 10  1  0
 12 13  1  0
 13 14  1  0
 14 15  1  0
  2 16  1  0
 16 17  2  0
 16 18  1  0
 18 19  1  0
 19 20  1  0
 20 21  1  0
 20 25  2  0
 21 22  2  0
 22 23  1  0
 23 24  2  0
 24 25  1  0
 23 26  1  0
 25 27  1  0
  3 28  2  0
  4 29  1  0
  8 30  2  0
 12 31  1  1
 10 32  1  1
M  CHG  2   1   1  29  -1
M  END
> <chembl_id>
CHEMBL1213165

> <chembl_pref_name>
DOLUTEGRAVIR SODIUM
