
     RDKit          2D

 36 39  0  0  0  0  0  0  0  0999 V2000
    3.0625    0.7250    0.0000 C   0  0  0  0  0  0  0  0  0  0  0  0
    2.3542    1.1000    0.0000 N   0  0  0  0  0  0  0  0  0  0  0  0
    2.3625    2.0625    0.0000 C   0  0  0  0  0  0  0  0  0  0  0  0
    0.9375    2.1583    0.0000 N   0  0  0  0  0  0  0  0  0  0  0  0
   -0.3500    1.3875    0.0000 N   0  0  0  0  0  0  0  0  0  0  0  0
   -1.6583   -0.8625    0.0000 C   0  0  0  0  0  0  0  0  0  0  0  0
   -2.2958   -1.2417    0.0000 C   0  0  0  0  0  0  0  0  0  0  0  0
   -1.0000   -1.2375    0.0000 C   0  0  0  0  0  0  0  0  0  0  0  0
    1.6167    2.5625    0.0000 C   0  0  0  0  0  0  0  0  0  0  0  0
    3.0625   -0.0292    0.0000 C   0  0  0  0  0  0  0  0  0  0  0  0
    3.6667    1.0833    0.0000 C   0  0  0  0  0  0  0  0  0  0  0  0
    3.0750    2.4833    0.0000 O   0  0  0  0  0  0  0  0  0  0  0  0
   -0.3458   -0.8292    0.0000 C   0  0  0  0  0  0  0  0  0  0  0  0
   -2.9583   -0.8875    0.0000 C   0  0  0  0  0  0  0  0  0  0  0  0
   -2.2958   -1.9917    0.0000 C   0  0  0  0  0  0  0  0  0  0  0  0
   -0.9958   -1.9792    0.0000 C   0  0  0  0  0  0  0  0  0  0  0  0
    0.2792    2.5083    0.0000 C   0  0  0  0  0  0  0  0  0  0  0  0
    0.9375    1.4000    0.0000 C   0  0  0  0  0  0  0  0  0  0  0  0
   -0.3458    2.1208    0.0000 C   0  0  0  0  0  0  0  0  0  0  0  0
    0.2792    1.0083    0.0000 C   0  0  0  0  0  0  0  0  0  0  0  0
   -3.5833   -2.0167    0.0000 C   0  0  0  0  0  0  0  0  0  0  0  0
    0.3042   -1.9417    0.0000 C   0  0  0  0  0  0  0  0  0  0  0  0
   -2.9333   -2.3750    0.0000 C   0  0  0  0  0  0  0  0  0  0  0  0
   -0.3208   -2.3292    0.0000 C   0  0  0  0  0  0  0  0  0  0  0  0
    0.2917   -1.2000    0.0000 C   0  0  0  0  0  0  0  0  0  0  0  0
   -3.5833   -1.2667    0.0000 C   0  0  0  0  0  0  0  0  0  0  0  0
    0.9542   -2.3500    0.0000 F   0  0  0  0  0  0  0  0  0  0  0  0
   -4.2083   -2.4042    0.0000 F   0  0  0  0  0  0  0  0  0  0  0  0
   -1.0125    1.0083    0.0000 C   0  0  0  0  0  0  0  0  0  0  0  0
   -1.0125    0.2250    0.0000 C   0  0  0  0  0  0  0  0  0  0  0  0
   -1.6583   -0.1167    0.0000 C   0  0  0  0  0  0  0  0  0  0  0  0
    4.3167   -0.0500    0.0000 C   0  0  0  0  0  0  0  0  0  0  0  0
    4.3375    0.7250    0.0000 C   0  0  0  0  0  0  0  0  0  0  0  0
    3.7000   -0.4125    0.0000 C   0  0  0  0  0  0  0  0  0  0  0  0
    3.6542    1.8208    0.0000 C   0  0  0  0  0  0  0  0  0  0  0  0
    2.3792   -0.4000    0.0000 C   0  0  0  0  0  0  0  0  0  0  0  0
  2  1  1  0
  3  2  1  0
  4  9  1  0
  5 20  1  0
  6 31  1  0
  7  6  1  0
  8  6  1  0
  9  3  1  0
 10  1  2  0
 11  1  1  0
 12  3  2  0
 13  8  1  0
 14  7  2  0
 15  7  1  0
 16  8  2  0
 17  4  1  0
 18  4  1  0
 19 17  1  0
 20 18  1  0
 21 23  1  0
 22 24  2  0
 23 15  2  0
 24 16  1  0
 25 13  2  0
 26 14  1  0
 27 22  1  0
 28 21  1  0
 29  5  1  0
 30 29  1  0
 31 30  1  0
 32 33  1  0
 33 11  2  0
 34 10  1  0
 35 11  1  0
 36 10  1  0
 34 32  2  0
  5 19  1  0
 25 22  1  0
 26 21  2  0
M  END
> <chembl_id>
CHEMBL92870

> <chembl_pref_name>
LIDOFLAZINE
