
     RDKit          2D

 45 48  0  0  0  0  0  0  0  0999 V2000
   -2.1116    3.3469    0.0000 C   0  0  0  0  0  0  0  0  0  0  0  0
   -2.8261    3.7594    0.0000 N   0  0  0  0  0  0  0  0  0  0  0  0
   -2.1116    2.5219    0.0000 N   0  0  0  0  0  0  0  0  0  0  0  0
   -1.3971    3.7594    0.0000 N   0  0  0  0  0  0  0  0  0  0  0  0
   -0.6826    3.3469    0.0000 C   0  0  0  0  0  0  0  0  0  0  0  0
    0.0318    3.7594    0.0000 C   0  0  0  0  0  0  0  0  0  0  0  0
    0.7463    3.3469    0.0000 C   0  0  0  0  0  0  0  0  0  0  0  0
    1.4608    3.7594    0.0000 C   0  0  0  0  0  0  0  0  0  0  0  0
    2.1752    3.3469    0.0000 C   0  0  0  0  0  0  0  0  0  0  0  0
    2.8897    3.7594    0.0000 O   0  0  0  0  0  0  0  0  0  0  0  0
    2.1752    2.5219    0.0000 O   0  0  0  0  0  0  0  0  0  0  0  0
    1.4608    4.5844    0.0000 N   0  0  0  0  0  0  0  0  0  0  0  0
   -5.3204    1.8351    0.0000 C   0  0  0  0  0  0  0  0  0  0  0  0
   -5.6559    1.0815    0.0000 C   0  0  0  0  0  0  0  0  0  0  0  0
   -5.0429    0.5295    0.0000 C   0  0  0  0  0  0  0  0  0  0  0  0
   -4.3284    0.9420    0.0000 C   0  0  0  0  0  0  0  0  0  0  0  0
   -4.4999    1.7489    0.0000 C   0  0  0  0  0  0  0  0  0  0  0  0
   -3.5747    0.6064    0.0000 C   0  0  0  0  0  0  0  0  0  0  0  0
   -2.9336    1.1256    0.0000 C   0  0  0  0  0  0  0  0  0  0  0  0
   -3.4456   -0.2085    0.0000 C   0  0  0  0  0  0  0  0  0  0  0  0
   -2.6754   -0.5041    0.0000 C   0  0  0  0  0  0  0  0  0  0  0  0
   -2.0343    0.0151    0.0000 C   0  0  0  0  0  0  0  0  0  0  0  0
   -2.1634    0.8299    0.0000 C   0  0  0  0  0  0  0  0  0  0  0  0
   -4.0868   -0.7276    0.0000 C   0  0  0  0  0  0  0  0  0  0  0  0
   -4.7279   -1.2468    0.0000 F   0  0  0  0  0  0  0  0  0  0  0  0
   -4.0546   -1.4662    0.0000 F   0  0  0  0  0  0  0  0  0  0  0  0
   -4.8787   -0.5930    0.0000 F   0  0  0  0  0  0  0  0  0  0  0  0
   -1.2992   -0.3595    0.0000 C   0  0  0  0  0  0  0  0  0  0  0  0
   -0.6073    0.0899    0.0000 O   0  0  0  0  0  0  0  0  0  0  0  0
    0.1464   -0.2457    0.0000 C   0  0  0  0  0  0  0  0  0  0  0  0
    0.8608    0.1668    0.0000 C   0  0  0  0  0  0  0  0  0  0  0  0
    0.1464   -1.0707    0.0000 C   0  0  0  0  0  0  0  0  0  0  0  0
    0.8608   -1.4832    0.0000 C   0  0  0  0  0  0  0  0  0  0  0  0
    1.5753   -1.0707    0.0000 C   0  0  0  0  0  0  0  0  0  0  0  0
    1.5753   -0.2457    0.0000 C   0  0  0  0  0  0  0  0  0  0  0  0
    2.3599    0.0092    0.0000 C   0  0  0  0  0  0  0  0  0  0  0  0
    2.3599   -1.3257    0.0000 N   0  0  0  0  0  0  0  0  0  0  0  0
    2.8448   -0.6583    0.0000 C   0  0  0  0  0  0  0  0  0  0  0  0
    2.8448    0.6766    0.0000 C   0  0  0  0  0  0  0  0  0  0  0  0
    3.6294   -0.4033    0.0000 C   0  0  0  0  0  0  0  0  0  0  0  0
    3.6294    0.4216    0.0000 C   0  0  0  0  0  0  0  0  0  0  0  0
    4.3439   -0.8158    0.0000 C   0  0  0  0  0  0  0  0  0  0  0  0
    5.0790   -0.4413    0.0000 C   0  0  0  0  0  0  0  0  0  0  0  0
    5.7709   -0.8906    0.0000 O   0  0  0  0  0  0  0  0  0  0  0  0
    5.1222    0.3826    0.0000 O   0  0  0  0  0  0  0  0  0  0  0  0
  1  2  2  0
  1  3  1  0
  1  4  1  0
  4  5  1  0
  5  6  1  0
  6  7  1  0
  8  7  1  0
  8  9  1  1
  9 10  2  0
  9 11  1  0
  8 12  1  0
 13 14  1  0
 14 15  1  0
 15 16  1  0
 16 17  1  0
 13 17  1  0
 16 18  1  0
 20 21  1  0
 21 22  2  0
 22 23  1  0
 19 23  2  0
 19 18  1  0
 18 20  2  0
 20 24  1  0
 24 25  1  0
 24 26  1  0
 24 27  1  0
 22 28  1  0
 28 29  1  0
 29 30  1  0
 32 33  2  0
 33 34  1  0
 34 35  2  0
 31 35  1  0
 31 30  2  0
 30 32  1  0
 37 38  1  0
 36 38  2  0
 34 37  1  0
 36 35  1  0
 40 41  1  0
 39 41  1  0
 38 40  1  0
 39 36  1  0
 40 42  1  6
 42 43  1  0
 43 44  2  0
 43 45  1  0
M  END
> <chembl_id>
CHEMBL3989933

> <chembl_pref_name>
ETRASIMOD ARGININE
