
     RDKit          2D

 25 26  0  0  0  0  0  0  0  0999 V2000
    1.2667   -0.3875    0.0000 S   0  0  0  0  0  0  0  0  0  0  0  0
   -2.4125   -1.8125    0.0000 S   0  0  0  0  0  0  0  0  0  0  0  0
    4.9417   -1.7917    0.0000 S   0  0  0  0  0  0  0  0  0  0  0  0
    0.6542   -0.7417    0.0000 C   0  0  0  0  0  0  0  0  0  0  0  0
    1.8792   -0.7417    0.0000 C   0  0  0  0  0  0  0  0  0  0  0  0
    1.6167    0.2333    0.0000 O   0  0  0  0  0  0  0  0  0  0  0  0
    0.9042    0.2333    0.0000 O   0  0  0  0  0  0  0  0  0  0  0  0
    4.3292   -1.4375    0.0000 C   0  0  0  0  0  0  0  0  0  0  0  0
   -1.8000   -1.4542    0.0000 C   0  0  0  0  0  0  0  0  0  0  0  0
    5.5542   -1.4292    0.0000 O   0  0  0  0  0  0  0  0  0  0  0  0
   -3.0250   -1.4542    0.0000 O   0  0  0  0  0  0  0  0  0  0  0  0
   -2.4125   -2.5167    0.0000 O   0  0  0  0  0  0  0  0  0  0  0  0
    4.9500   -2.5000    0.0000 O   0  0  0  0  0  0  0  0  0  0  0  0
   -1.1833   -1.8125    0.0000 N   0  0  0  0  0  0  0  0  0  0  0  0
    3.7167   -1.7917    0.0000 N   0  0  0  0  0  0  0  0  0  0  0  0
    0.6542   -1.4542    0.0000 C   0  0  0  0  0  0  0  0  0  0  0  0
    0.0417   -0.3917    0.0000 C   0  0  0  0  0  0  0  0  0  0  0  0
    1.8792   -1.4500    0.0000 C   0  0  0  0  0  0  0  0  0  0  0  0
    2.4792   -0.3792    0.0000 C   0  0  0  0  0  0  0  0  0  0  0  0
    3.1042   -1.4417    0.0000 C   0  0  0  0  0  0  0  0  0  0  0  0
   -0.5708   -1.4542    0.0000 C   0  0  0  0  0  0  0  0  0  0  0  0
    2.4917   -1.8000    0.0000 C   0  0  0  0  0  0  0  0  0  0  0  0
   -0.5708   -0.7417    0.0000 C   0  0  0  0  0  0  0  0  0  0  0  0
    3.1000   -0.7292    0.0000 C   0  0  0  0  0  0  0  0  0  0  0  0
    0.0417   -1.8125    0.0000 C   0  0  0  0  0  0  0  0  0  0  0  0
  2  9  1  0
  3  8  1  0
  4  1  1  0
  5  1  1  0
  6  1  2  0
  7  1  2  0
  8 15  1  0
  9 14  1  0
 10  3  1  0
 11  2  1  0
 12  2  2  0
 13  3  2  0
 14 21  1  0
 15 20  1  0
 16  4  1  0
 17  4  2  0
 18  5  2  0
 19  5  1  0
 20 24  1  0
 21 23  2  0
 22 18  1  0
 23 17  1  0
 24 19  2  0
 25 16  2  0
 20 22  2  0
 25 21  1  0
M  END
> <chembl_id>
CHEMBL1570

> <chembl_pref_name>
SULFOXONE
