
     RDKit          2D

 36 39  0  0  1  0  0  0  0  0999 V2000
    5.3417   -5.5417    0.0000 C   0  0  0  0  0  0  0  0  0  0  0  0
    4.1125   -6.2375    0.0000 C   0  0  0  0  0  0  0  0  0  0  0  0
    6.0167   -5.3292    0.0000 C   0  0  0  0  0  0  0  0  0  0  0  0
    3.5000   -6.5917    0.0000 C   0  0  0  0  0  0  0  0  0  0  0  0
    5.3375   -6.2417    0.0000 C   0  0  0  0  0  0  0  0  0  0  0  0
    4.7250   -6.5917    0.0000 C   0  0  0  0  0  0  0  0  0  0  0  0
    3.5000   -7.3000    0.0000 C   0  0  0  0  0  0  0  0  0  0  0  0
    6.4292   -5.9042    0.0000 C   0  0  0  0  0  0  0  0  0  0  0  0
    4.1167   -5.5292    0.0000 C   0  0  0  0  0  0  0  0  0  0  0  0
    4.7292   -5.1792    0.0000 C   0  0  0  0  0  0  0  0  0  0  0  0
    2.8875   -6.2375    0.0000 C   0  0  0  0  0  0  0  0  0  0  0  0
    6.0042   -6.4750    0.0000 C   0  0  0  0  0  0  0  0  0  0  0  0
    6.0167   -4.6167    0.0000 C   0  0  0  0  0  0  0  0  0  0  0  0
    2.8875   -7.6542    0.0000 C   0  0  0  0  0  0  0  0  0  0  0  0
    4.7167   -7.3042    0.0000 C   0  0  0  0  0  0  0  0  0  0  0  0
    7.1375   -5.9125    0.0000 O   0  0  0  0  0  0  0  0  0  0  0  0
    2.2792   -6.5917    0.0000 C   0  0  0  0  0  0  0  0  0  0  0  0
    2.2792   -7.3000    0.0000 C   0  0  0  0  0  0  0  0  0  0  0  0
    7.4875   -6.5292    0.0000 C   0  0  0  0  0  0  0  0  0  0  0  0
    4.1042   -7.6542    0.0000 C   0  0  0  0  0  0  0  0  0  0  0  0
    7.8542   -4.2500    0.0000 C   0  0  0  0  0  0  0  0  0  0  0  0
    4.1042   -6.9417    0.0000 F   0  0  0  0  0  0  0  0  0  0  0  0
    6.6250   -4.2542    0.0000 C   0  0  0  0  0  0  0  0  0  0  0  0
    5.4000   -4.2667    0.0000 O   0  0  0  0  0  0  0  0  0  0  0  0
    7.2417   -4.6042    0.0000 O   0  0  0  0  0  0  0  0  0  0  0  0
    7.1250   -7.1417    0.0000 O   0  0  0  0  0  0  0  0  0  0  0  0
    6.6292   -4.9667    0.0000 O   0  0  0  0  0  0  0  0  0  0  0  0
    7.8417   -3.5417    0.0000 O   0  0  0  0  0  0  0  0  0  0  0  0
    1.6625   -7.6500    0.0000 O   0  0  0  0  0  0  0  0  0  0  0  0
    5.3417   -4.8292    0.0000 C   0  0  0  0  0  0  0  0  0  0  0  0
    3.5042   -5.1667    0.0000 O   0  0  0  0  0  0  0  0  0  0  0  0
    3.4917   -5.8792    0.0000 C   0  0  0  0  0  0  0  0  0  0  0  0
    8.1917   -6.5375    0.0000 C   0  0  0  0  0  0  0  0  0  0  0  0
    8.4667   -4.6000    0.0000 C   0  0  0  0  0  0  0  0  0  0  0  0
    5.3292   -6.9542    0.0000 H   0  0  0  0  0  0  0  0  0  0  0  0
    4.7167   -5.8875    0.0000 H   0  0  0  0  0  0  0  0  0  0  0  0
  2  9  1  0
  3  1  1  0
  4  2  1  0
  5  1  1  0
  6  5  1  0
  7  4  1  0
  8  3  1  0
  9 10  1  0
 10  1  1  0
 11  4  1  0
 12  5  1  0
 13  3  1  0
 14  7  2  0
 15  6  1  0
  8 16  1  6
 17 11  2  0
 18 17  1  0
 19 16  1  0
 20 15  1  0
 21 25  1  0
  2 22  1  6
 23 13  1  0
 24 13  2  0
 25 23  1  0
 26 19  2  0
  3 27  1  6
 28 21  2  0
 29 18  2  0
  1 30  1  1
  9 31  1  1
  4 32  1  1
 33 19  1  0
 34 21  1  0
  5 35  1  6
  6 36  1  1
  8 12  1  0
  2  6  1  0
 20  7  1  0
 18 14  1  0
M  END
> <chembl_id>
CHEMBL1200449

> <chembl_pref_name>
TRIAMCINOLONE DIACETATE
