
     RDKit          2D

 24 25  0  0  0  0  0  0  0  0999 V2000
    2.0125   -5.5000    0.0000 S   0  0  0  0  0  0  0  0  0  0  0  0
    2.6250   -5.1458    0.0000 N   0  0  0  0  0  0  0  0  0  0  0  0
    2.0125   -6.2083    0.0000 C   0  0  0  0  0  0  0  0  0  0  0  0
    3.2375   -5.5000    0.0000 C   0  0  0  0  0  0  0  0  0  0  0  0
    1.4000   -6.5625    0.0000 C   0  0  0  0  0  0  0  0  0  0  0  0
    0.7875   -6.2083    0.0000 N   0  0  0  0  0  0  0  0  0  0  0  0
    1.6542   -4.8792    0.0000 O   0  0  0  0  0  0  0  0  0  0  0  0
    1.3042   -5.5000    0.0000 O   0  0  0  0  0  0  0  0  0  0  0  0
    3.8500   -5.1458    0.0000 N   0  0  0  0  0  0  0  0  0  0  0  0
    3.2375   -6.2083    0.0000 O   0  0  0  0  0  0  0  0  0  0  0  0
    0.1750   -6.5625    0.0000 C   0  0  0  0  0  0  0  0  0  0  0  0
    2.6250   -7.2750    0.0000 N   0  0  0  0  0  0  0  0  0  0  0  0
    2.6250   -6.5625    0.0000 C   0  0  0  0  0  0  0  0  0  0  0  0
    1.4000   -7.2750    0.0000 C   0  0  0  0  0  0  0  0  0  0  0  0
   -0.4375   -6.2083    0.0000 C   0  0  0  0  0  0  0  0  0  0  0  0
   -1.0500   -6.5625    0.0000 C   0  0  0  0  0  0  0  0  0  0  0  0
    2.0125   -7.6292    0.0000 C   0  0  0  0  0  0  0  0  0  0  0  0
    4.4667   -5.4958    0.0000 C   0  0  0  0  0  0  0  0  0  0  0  0
   -0.4333   -7.6250    0.0000 C   0  0  0  0  0  0  0  0  0  0  0  0
    0.1792   -7.2708    0.0000 C   0  0  0  0  0  0  0  0  0  0  0  0
   -1.0500   -7.2708    0.0000 C   0  0  0  0  0  0  0  0  0  0  0  0
   -1.6625   -6.2083    0.0000 C   0  0  0  0  0  0  0  0  0  0  0  0
    4.4667   -6.2042    0.0000 C   0  0  0  0  0  0  0  0  0  0  0  0
    5.0792   -5.1417    0.0000 C   0  0  0  0  0  0  0  0  0  0  0  0
  2  1  1  0
  3  1  1  0
  4  2  1  0
  5  3  1  0
  6  5  1  0
  7  1  2  0
  8  1  2  0
  9  4  1  0
 10  4  2  0
 11  6  1  0
 12 13  1  0
 13  3  2  0
 14  5  2  0
 15 11  2  0
 16 15  1  0
 17 12  2  0
 18  9  1  0
 19 20  2  0
 20 11  1  0
 21 16  2  0
 22 16  1  0
 23 18  1  0
 24 18  1  0
 17 14  1  0
 19 21  1  0
M  END
> <chembl_id>
CHEMBL1148

> <chembl_pref_name>
TORSEMIDE
