
     RDKit          2D

 24 26  0  0  0  0  0  0  0  0999 V2000
    0.8917   -2.9167    0.0000 C   0  0  0  0  0  0  0  0  0  0  0  0
    0.2875   -3.2875    0.0000 C   0  0  0  0  0  0  0  0  0  0  0  0
    0.8917   -2.2042    0.0000 C   0  0  0  0  0  0  0  0  0  0  0  0
    4.6125   -0.8417    0.0000 C   0  0  0  0  0  0  0  0  0  0  0  0
    3.9792   -1.2042    0.0000 C   0  0  0  0  0  0  0  0  0  0  0  0
    1.5167   -1.8750    0.0000 N   0  0  0  0  0  0  0  0  0  0  0  0
    3.9792   -1.9042    0.0000 C   0  0  0  0  0  0  0  0  0  0  0  0
    3.3750   -0.8250    0.0000 C   0  0  0  0  0  0  0  0  0  0  0  0
    0.2875   -4.0000    0.0000 C   0  0  0  0  0  0  0  0  0  0  0  0
    2.1250   -2.2417    0.0000 C   0  0  0  0  0  0  0  0  0  0  0  0
    2.7542   -1.8750    0.0000 C   0  0  0  0  0  0  0  0  0  0  0  0
    3.3542   -2.2417    0.0000 C   0  0  0  0  0  0  0  0  0  0  0  0
    2.7542   -1.2042    0.0000 C   0  0  0  0  0  0  0  0  0  0  0  0
    1.4917   -3.2875    0.0000 C   0  0  0  0  0  0  0  0  0  0  0  0
    1.4917   -4.0000    0.0000 C   0  0  0  0  0  0  0  0  0  0  0  0
    4.9625   -0.2208    0.0000 C   0  0  0  0  0  0  0  0  0  0  0  0
    4.2542   -0.2208    0.0000 C   0  0  0  0  0  0  0  0  0  0  0  0
    5.2417   -1.2000    0.0000 C   0  0  0  0  0  0  0  0  0  0  0  0
   -0.3250   -2.9167    0.0000 C   0  0  0  0  0  0  0  0  0  0  0  0
    1.5167   -1.1625    0.0000 C   0  0  0  0  0  0  0  0  0  0  0  0
    0.8917   -4.3375    0.0000 C   0  0  0  0  0  0  0  0  0  0  0  0
   -0.3250   -4.3375    0.0000 C   0  0  0  0  0  0  0  0  0  0  0  0
   -0.9458   -3.2875    0.0000 C   0  0  0  0  0  0  0  0  0  0  0  0
   -0.9458   -4.0000    0.0000 C   0  0  0  0  0  0  0  0  0  0  0  0
  2  1  1  0
  3  1  1  0
  4  5  1  0
  5  8  2  0
  6  3  1  0
  7 12  2  0
  8 13  1  0
  9  2  2  0
 10  6  1  0
 11 10  1  0
 12 11  1  0
 13 11  2  0
 14  1  2  0
 15 14  1  0
 16  4  1  0
 17  4  1  0
 18  4  1  0
 19  2  1  0
 20  6  1  0
 21  9  1  0
 22  9  1  0
 23 19  2  0
 24 23  1  0
 15 21  2  0
 22 24  2  0
  7  5  1  0
M  END
> <chembl_id>
CHEMBL990

> <chembl_pref_name>
BUTENAFINE
