
     RDKit          2D

116119  0  0  1  0  0  0  0  0999 V2000
    6.2750   -4.8417    0.0000 N   0  0  0  0  0  0  0  0  0  0  0  0
    2.5792   -2.0667    0.0000 C   0  0  0  0  0  0  0  0  0  0  0  0
    5.0417   -4.8417    0.0000 C   0  0  0  0  0  0  0  0  0  0  0  0
    6.8917   -5.1917    0.0000 C   0  0  0  0  0  0  0  0  0  0  0  0
    4.4292   -5.1917    0.0000 N   0  0  0  0  0  0  0  0  0  0  0  0
    7.5000   -2.0542    0.0000 N   0  0  0  0  0  0  0  0  0  0  0  0
   10.5792   -3.0917    0.0000 N   0  0  0  0  0  0  0  0  0  0  0  0
    1.9542   -1.7167    0.0000 N   0  0  0  0  0  0  0  0  0  0  0  0
    9.3417   -1.7042    0.0000 N   0  0  0  0  0  0  0  0  0  0  0  0
    8.7292   -2.0542    0.0000 C   0  0  0  0  0  0  0  0  0  0  0  0
    3.8167   -3.9750    0.0000 C   0  0  0  0  0  0  0  0  0  0  0  0
    5.6542   -5.1917    0.0000 C   0  0  0  0  0  0  0  0  0  0  0  0
   -2.3625   -0.6875    0.0000 C   0  0  0  0  0  0  0  0  0  0  0  0
    9.9667   -2.7417    0.0000 C   0  0  0  0  0  0  0  0  0  0  0  0
    6.8875   -1.7042    0.0000 C   0  0  0  0  0  0  0  0  0  0  0  0
    3.1917   -3.1125    0.0000 O   0  0  0  0  0  0  0  0  0  0  0  0
    3.1917   -1.7167    0.0000 C   0  0  0  0  0  0  0  0  0  0  0  0
    7.5042   -4.8417    0.0000 C   0  0  0  0  0  0  0  0  0  0  0  0
    8.1167   -5.1917    0.0000 N   0  0  0  0  0  0  0  0  0  0  0  0
    8.1125   -1.7042    0.0000 C   0  0  0  0  0  0  0  0  0  0  0  0
    1.3417   -2.0667    0.0000 C   0  0  0  0  0  0  0  0  0  0  0  0
    3.8167   -4.8417    0.0000 C   0  0  0  0  0  0  0  0  0  0  0  0
   10.5792   -3.7917    0.0000 C   0  0  0  0  0  0  0  0  0  0  0  0
   -0.5083   -1.7250    0.0000 C   0  0  0  0  0  0  0  0  0  0  0  0
   -2.3583   -2.0792    0.0000 C   0  0  0  0  0  0  0  0  0  0  0  0
    9.9667   -4.1417    0.0000 C   0  0  0  0  0  0  0  0  0  0  0  0
    5.6500   -1.7125    0.0000 N   0  0  0  0  0  0  0  0  0  0  0  0
    3.1917   -5.8917    0.0000 C   0  0  0  0  0  0  0  0  0  0  0  0
   -1.2083   -0.6917    0.0000 N   0  0  0  0  0  0  0  0  0  0  0  0
   -1.7333   -1.7292    0.0000 N   0  0  0  0  0  0  0  0  0  0  0  0
    0.1125   -2.0750    0.0000 N   0  0  0  0  0  0  0  0  0  0  0  0
    2.5792   -2.7667    0.0000 C   0  0  0  0  0  0  0  0  0  0  0  0
    0.7292   -1.7250    0.0000 C   0  0  0  0  0  0  0  0  0  0  0  0
   -1.1208   -2.0792    0.0000 C   0  0  0  0  0  0  0  0  0  0  0  0
    3.8042   -2.0667    0.0000 N   0  0  0  0  0  0  0  0  0  0  0  0
    9.9667   -4.8417    0.0000 N   0  0  0  0  0  0  0  0  0  0  0  0
   -1.7833   -1.1000    0.0000 C   0  0  0  0  0  0  0  0  0  0  0  0
    3.1917   -5.1917    0.0000 C   0  0  0  0  0  0  0  0  0  0  0  0
    8.1125   -1.0042    0.0000 C   0  0  0  0  0  0  0  0  0  0  0  0
   11.2000   -4.1417    0.0000 C   0  0  0  0  0  0  0  0  0  0  0  0
   -1.1125   -2.7750    0.0000 C   0  0  0  0  0  0  0  0  0  0  0  0
    0.7250   -1.0292    0.0000 C   0  0  0  0  0  0  0  0  0  0  0  0
    2.5792   -6.2417    0.0000 C   0  0  0  0  0  0  0  0  0  0  0  0
   -2.9708   -1.7292    0.0000 C   0  0  0  0  0  0  0  0  0  0  0  0
    9.9625   -2.0500    0.0000 C   0  0  0  0  0  0  0  0  0  0  0  0
    8.7375   -4.8417    0.0000 C   0  0  0  0  0  0  0  0  0  0  0  0
    5.0375   -2.0625    0.0000 C   0  0  0  0  0  0  0  0  0  0  0  0
   -2.1375   -0.0167    0.0000 C   0  0  0  0  0  0  0  0  0  0  0  0
    6.2667   -2.0542    0.0000 C   0  0  0  0  0  0  0  0  0  0  0  0
   -2.9833   -1.0417    0.0000 C   0  0  0  0  0  0  0  0  0  0  0  0
   -3.5833   -2.0917    0.0000 N   0  0  0  0  0  0  0  0  0  0  0  0
   -0.5000   -3.1167    0.0000 C   0  0  0  0  0  0  0  0  0  0  0  0
   11.8125   -3.7917    0.0000 C   0  0  0  0  0  0  0  0  0  0  0  0
    8.7292   -0.6542    0.0000 C   0  0  0  0  0  0  0  0  0  0  0  0
    1.3417   -0.6750    0.0000 C   0  0  0  0  0  0  0  0  0  0  0  0
    5.6542   -5.8917    0.0000 C   0  0  0  0  0  0  0  0  0  0  0  0
   -1.4250   -0.0167    0.0000 C   0  0  0  0  0  0  0  0  0  0  0  0
   -3.5708   -2.7875    0.0000 C   0  0  0  0  0  0  0  0  0  0  0  0
    5.0417   -6.9292    0.0000 C   0  0  0  0  0  0  0  0  0  0  0  0
    5.0417   -4.1500    0.0000 O   0  0  0  0  0  0  0  0  0  0  0  0
    5.0417   -6.2417    0.0000 C   0  0  0  0  0  0  0  0  0  0  0  0
    6.8750   -5.8792    0.0000 O   0  0  0  0  0  0  0  0  0  0  0  0
    8.7292   -2.7500    0.0000 O   0  0  0  0  0  0  0  0  0  0  0  0
    4.4917   -3.7667    0.0000 O   0  0  0  0  0  0  0  0  0  0  0  0
    6.8875   -1.0042    0.0000 O   0  0  0  0  0  0  0  0  0  0  0  0
    9.3542   -3.1000    0.0000 O   0  0  0  0  0  0  0  0  0  0  0  0
    2.5792   -6.9292    0.0000 C   0  0  0  0  0  0  0  0  0  0  0  0
    1.3417   -2.7667    0.0000 O   0  0  0  0  0  0  0  0  0  0  0  0
   -2.3583   -2.7750    0.0000 O   0  0  0  0  0  0  0  0  0  0  0  0
   -0.5083   -1.0292    0.0000 O   0  0  0  0  0  0  0  0  0  0  0  0
    3.1875   -1.0167    0.0000 O   0  0  0  0  0  0  0  0  0  0  0  0
    9.3542   -3.7917    0.0000 O   0  0  0  0  0  0  0  0  0  0  0  0
    3.8125   -6.2417    0.0000 O   0  0  0  0  0  0  0  0  0  0  0  0
    4.4167   -1.7125    0.0000 C   0  0  0  0  0  0  0  0  0  0  0  0
    9.3542   -5.1917    0.0000 C   0  0  0  0  0  0  0  0  0  0  0  0
    8.7375   -4.1417    0.0000 O   0  0  0  0  0  0  0  0  0  0  0  0
    5.0417   -2.7542    0.0000 O   0  0  0  0  0  0  0  0  0  0  0  0
   -0.5000   -3.8167    0.0000 O   0  0  0  0  0  0  0  0  0  0  0  0
    1.3417    0.0208    0.0000 O   0  0  0  0  0  0  0  0  0  0  0  0
    8.7292    0.0375    0.0000 O   0  0  0  0  0  0  0  0  0  0  0  0
   11.8042   -3.0917    0.0000 O   0  0  0  0  0  0  0  0  0  0  0  0
   -4.1833   -3.1417    0.0000 O   0  0  0  0  0  0  0  0  0  0  0  0
    5.6542   -7.2792    0.0000 O   0  0  0  0  0  0  0  0  0  0  0  0
    0.1125   -2.7667    0.0000 N   0  0  0  0  0  0  0  0  0  0  0  0
    3.2000   -7.2750    0.0000 N   0  0  0  0  0  0  0  0  0  0  0  0
    1.9542   -1.0250    0.0000 O   0  0  0  0  0  0  0  0  0  0  0  0
    9.3417   -1.0042    0.0000 O   0  0  0  0  0  0  0  0  0  0  0  0
   12.4292   -4.1333    0.0000 O   0  0  0  0  0  0  0  0  0  0  0  0
    4.4250   -7.2792    0.0000 O   0  0  0  0  0  0  0  0  0  0  0  0
    7.5042   -4.1500    0.0000 C   0  0  0  0  0  0  0  0  0  0  0  0
    8.1167   -3.1000    0.0000 N   0  0  0  0  0  0  0  0  0  0  0  0
    1.9667   -5.8875    0.0000 C   0  0  0  0  0  0  0  0  0  0  0  0
    8.1167   -3.7917    0.0000 O   0  0  0  0  0  0  0  0  0  0  0  0
    1.9625   -3.1167    0.0000 C   0  0  0  0  0  0  0  0  0  0  0  0
   -2.4958    0.5833    0.0000 C   0  0  0  0  0  0  0  0  0  0  0  0
    6.2667   -2.7542    0.0000 C   0  0  0  0  0  0  0  0  0  0  0  0
   -2.9583   -3.1292    0.0000 C   0  0  0  0  0  0  0  0  0  0  0  0
    6.2667   -6.2417    0.0000 C   0  0  0  0  0  0  0  0  0  0  0  0
   10.5750   -1.7000    0.0000 C   0  0  0  0  0  0  0  0  0  0  0  0
   -1.0708    0.5833    0.0000 C   0  0  0  0  0  0  0  0  0  0  0  0
    1.9667   -7.2750    0.0000 C   0  0  0  0  0  0  0  0  0  0  0  0
    7.5042   -2.7542    0.0000 C   0  0  0  0  0  0  0  0  0  0  0  0
    6.8917   -3.1042    0.0000 C   0  0  0  0  0  0  0  0  0  0  0  0
   -2.9500   -3.8250    0.0000 C   0  0  0  0  0  0  0  0  0  0  0  0
   -1.7208   -3.8167    0.0000 C   0  0  0  0  0  0  0  0  0  0  0  0
   -1.1000   -4.1625    0.0000 C   0  0  0  0  0  0  0  0  0  0  0  0
   -1.7083   -5.2125    0.0000 C   0  0  0  0  0  0  0  0  0  0  0  0
   -1.0958   -4.8542    0.0000 C   0  0  0  0  0  0  0  0  0  0  0  0
   -2.3333   -4.1667    0.0000 C   0  0  0  0  0  0  0  0  0  0  0  0
   -2.3250   -4.8667    0.0000 C   0  0  0  0  0  0  0  0  0  0  0  0
    1.3542   -6.2292    0.0000 C   0  0  0  0  0  0  0  0  0  0  0  0
   -2.1333    1.1875    0.0000 C   0  0  0  0  0  0  0  0  0  0  0  0
   -1.7333   -3.1167    0.0000 C   0  0  0  0  0  0  0  0  0  0  0  0
   -1.4250    1.1833    0.0000 C   0  0  0  0  0  0  0  0  0  0  0  0
    1.3542   -6.9292    0.0000 C   0  0  0  0  0  0  0  0  0  0  0  0
    6.5177   -5.6961    0.0000 H   0  0  0  0  0  0  0  0  0  0  0  0
  2 32  1  0
  3 12  1  0
  4  1  1  0
  5  3  1  0
  6 20  1  0
  7 23  1  0
  2  8  1  6
  9 45  1  0
 10  9  1  0
 11 22  1  0
 12  1  1  0
 13 50  1  0
 14  7  1  0
 15 49  1  0
 16 11  1  0
 17  2  1  0
 18  4  1  0
 19 18  1  0
 20 10  1  0
 21  8  1  0
 22  5  1  0
 23 26  1  0
 24 31  1  0
 25 30  1  0
 26 36  1  0
 27 47  1  0
 28 38  1  0
 29 37  1  0
 34 30  1  6
 33 31  1  1
 32 16  1  0
 33 21  1  0
 34 24  1  0
 35 17  1  0
 36 75  1  0
 37 13  2  0
 22 38  1  1
 20 39  1  1
 23 40  1  1
 34 41  1  0
 33 42  1  0
 43 28  1  0
 44 25  1  0
 45 14  1  0
 46 19  1  0
 47 74  1  0
 48 13  1  0
 49 27  1  0
 44 50  1  1
 51 44  1  0
 52 41  1  0
 53 40  1  0
 54 39  1  0
 55 42  1  0
 56 12  1  0
 57 48  1  0
 58 51  1  0
 59 61  1  0
 60  3  2  0
 61 56  1  0
 62  4  2  0
 63 10  2  0
 64 11  2  0
 65 15  2  0
 66 14  2  0
 67 43  1  0
 68 21  2  0
 69 25  2  0
 70 24  2  0
 71 17  2  0
 72 26  2  0
 73 28  2  0
 74 35  1  0
 75 46  1  0
 76 46  2  0
 77 47  2  0
 78 52  2  0
 79 55  2  0
 80 54  2  0
 81 53  2  0
 82 58  2  0
 83 59  2  0
 84 52  1  0
 85 67  1  0
 86 55  1  0
 87 54  1  0
 88 53  1  0
 89 59  1  0
 18 90  1  1
 91102  1  0
 92 43  2  0
 93 90  1  0
 32 94  1  6
 95 48  2  0
 49 96  1  6
 97 58  1  0
 56 98  1  6
 45 99  1  6
100 57  2  0
101 67  2  0
102103  1  0
103 96  1  0
104 97  1  0
105106  1  0
106108  1  0
107110  1  0
108107  1  0
109104  1  0
110109  1  0
111 92  1  0
112 95  1  0
113105  1  0
114112  2  0
115111  2  0
115101  1  0
 15  6  1  0
 57 29  1  0
114100  1  0
 12116  1  6
M  END
> <chembl_id>
CHEMBL387675

> <chembl_pref_name>
DAPTOMYCIN
