
     RDKit          2D

 40 44  0  0  0  0  0  0  0  0999 V2000
   -5.0160   -0.8353    0.0000 C   0  0  0  0  0  0  0  0  0  0  0  0
   -5.7305   -1.2478    0.0000 C   0  0  0  0  0  0  0  0  0  0  0  0
   -5.7305   -2.0728    0.0000 N   0  0  0  0  0  0  0  0  0  0  0  0
   -5.0160   -2.4853    0.0000 C   0  0  0  0  0  0  0  0  0  0  0  0
   -4.3015   -2.0728    0.0000 C   0  0  0  0  0  0  0  0  0  0  0  0
   -4.3015   -1.2478    0.0000 N   0  0  0  0  0  0  0  0  0  0  0  0
   -6.4450   -0.8353    0.0000 C   0  0  0  0  0  0  0  0  0  0  0  0
   -6.4450   -0.0103    0.0000 O   0  0  0  0  0  0  0  0  0  0  0  0
   -7.1594   -1.2478    0.0000 N   0  0  0  0  0  0  0  0  0  0  0  0
   -3.5871   -2.4853    0.0000 N   0  0  0  0  0  0  0  0  0  0  0  0
   -3.5871   -4.9603    0.0000 O   0  0  0  0  0  0  0  0  0  0  0  0
   -4.3015   -4.5478    0.0000 C   0  0  0  0  0  0  0  0  0  0  0  0
   -4.3015   -3.7228    0.0000 C   0  0  0  0  0  0  0  0  0  0  0  0
   -3.5871   -3.3103    0.0000 C   0  0  0  0  0  0  0  0  0  0  0  0
   -2.8726   -3.7228    0.0000 C   0  0  0  0  0  0  0  0  0  0  0  0
   -2.8726   -4.5478    0.0000 C   0  0  0  0  0  0  0  0  0  0  0  0
   -5.0160   -0.0103    0.0000 N   0  0  0  0  0  0  0  0  0  0  0  0
   -4.3015    0.4022    0.0000 C   0  0  0  0  0  0  0  0  0  0  0  0
   -4.3015    1.2272    0.0000 C   0  0  0  0  0  0  0  0  0  0  0  0
   -3.5871    1.6397    0.0000 C   0  0  0  0  0  0  0  0  0  0  0  0
   -2.8726    1.2272    0.0000 C   0  0  0  0  0  0  0  0  0  0  0  0
   -2.8726    0.4022    0.0000 C   0  0  0  0  0  0  0  0  0  0  0  0
   -3.5871   -0.0103    0.0000 C   0  0  0  0  0  0  0  0  0  0  0  0
   -0.7292    2.4647    0.0000 C   0  0  0  0  0  0  0  0  0  0  0  0
   -0.7292    1.6397    0.0000 C   0  0  0  0  0  0  0  0  0  0  0  0
   -1.4437    1.2272    0.0000 C   0  0  0  0  0  0  0  0  0  0  0  0
   -2.1581    1.6397    0.0000 N   0  0  0  0  0  0  0  0  0  0  0  0
   -2.1581    2.4647    0.0000 C   0  0  0  0  0  0  0  0  0  0  0  0
   -1.4437    2.8772    0.0000 C   0  0  0  0  0  0  0  0  0  0  0  0
   -0.0147    3.7022    0.0000 C   0  0  0  0  0  0  0  0  0  0  0  0
    0.6997    4.1147    0.0000 C   0  0  0  0  0  0  0  0  0  0  0  0
    1.4142    3.7022    0.0000 N   0  0  0  0  0  0  0  0  0  0  0  0
    1.4142    2.8772    0.0000 C   0  0  0  0  0  0  0  0  0  0  0  0
    0.6997    2.4647    0.0000 C   0  0  0  0  0  0  0  0  0  0  0  0
   -0.0147    2.8772    0.0000 N   0  0  0  0  0  0  0  0  0  0  0  0
    2.1287    4.1147    0.0000 C   0  0  0  0  0  0  0  0  0  0  0  0
   -3.5871    2.4647    0.0000 O   0  0  0  0  0  0  0  0  0  0  0  0
   -2.8726    2.8772    0.0000 C   0  0  0  0  0  0  0  0  0  0  0  0
   -5.0160   -3.3103    0.0000 C   0  0  0  0  0  0  0  0  0  0  0  0
   -5.7305   -3.7228    0.0000 C   0  0  0  0  0  0  0  0  0  0  0  0
  1  2  2  0
  1  6  1  0
  1 17  1  0
  2  3  1  0
  2  7  1  0
  3  4  2  0
  4  5  1  0
  4 39  1  0
  5  6  2  0
  5 10  1  0
  7  8  2  0
  7  9  1  0
 10 14  1  0
 11 12  1  0
 11 16  1  0
 12 13  1  0
 13 14  1  0
 14 15  1  0
 15 16  1  0
 17 18  1  0
 18 19  2  0
 18 23  1  0
 19 20  1  0
 20 21  2  0
 20 37  1  0
 21 22  1  0
 21 27  1  0
 22 23  2  0
 24 25  1  0
 24 29  1  0
 24 35  1  0
 25 26  1  0
 26 27  1  0
 27 28  1  0
 28 29  1  0
 30 31  1  0
 30 35  1  0
 31 32  1  0
 32 33  1  0
 32 36  1  0
 33 34  1  0
 34 35  1  0
 37 38  1  0
 39 40  1  0
M  END
> <chembl_id>
CHEMBL3301622

> <chembl_pref_name>
GILTERITINIB
