
     RDKit          2D

 29 30  0  0  0  0  0  0  0  0999 V2000
    3.5838   -0.4134    0.0000 S   0  0  0  0  0  0  0  0  0  0  0  0
    2.3582   -0.4148    0.0000 C   0  0  0  0  0  0  0  0  0  0  0  0
    2.9731   -0.7664    0.0000 C   0  0  0  0  0  0  0  0  0  0  0  0
   -1.3450   -0.3262    0.0000 C   0  0  0  0  0  0  0  0  0  0  0  0
    1.7472   -0.7802    0.0000 C   0  0  0  0  0  0  0  0  0  0  0  0
   -0.7760   -0.6807    0.0000 C   0  0  0  0  0  0  0  0  0  0  0  0
    1.1463   -0.3790    0.0000 N   0  0  0  0  0  0  0  0  0  0  0  0
   -2.0208   -2.1125    0.0000 N   0  0  0  0  0  0  0  0  0  0  0  0
    4.2475   -0.8082    0.0000 C   0  0  0  0  0  0  0  0  0  0  0  0
   -1.4083   -1.7667    0.0000 C   0  0  0  0  0  0  0  0  0  0  0  0
   -0.7979   -1.4221    0.0000 C   0  0  0  0  0  0  0  0  0  0  0  0
    3.3406    0.2440    0.0000 O   0  0  0  0  0  0  0  0  0  0  0  0
    3.9147    0.2063    0.0000 O   0  0  0  0  0  0  0  0  0  0  0  0
   -0.1282   -0.3414    0.0000 C   0  0  0  0  0  0  0  0  0  0  0  0
    0.4727   -0.7426    0.0000 C   0  0  0  0  0  0  0  0  0  0  0  0
    1.7269   -1.4674    0.0000 O   0  0  0  0  0  0  0  0  0  0  0  0
   -1.6850    0.2966    0.0000 F   0  0  0  0  0  0  0  0  0  0  0  0
   -0.9728    0.2755    0.0000 F   0  0  0  0  0  0  0  0  0  0  0  0
   -1.9630   -0.6456    0.0000 F   0  0  0  0  0  0  0  0  0  0  0  0
    2.1510    0.1916    0.0000 O   0  0  0  0  0  0  0  0  0  0  0  0
    4.8821   -0.4893    0.0000 C   0  0  0  0  0  0  0  0  0  0  0  0
    4.2264   -1.5204    0.0000 C   0  0  0  0  0  0  0  0  0  0  0  0
   -0.1710   -1.7907    0.0000 C   0  0  0  0  0  0  0  0  0  0  0  0
    0.4520   -1.4465    0.0000 C   0  0  0  0  0  0  0  0  0  0  0  0
    5.4759   -1.5573    0.0000 C   0  0  0  0  0  0  0  0  0  0  0  0
    2.6005    0.1658    0.0000 C   0  0  0  0  0  0  0  0  0  0  0  0
    4.8397   -1.9262    0.0000 C   0  0  0  0  0  0  0  0  0  0  0  0
    5.4956   -0.8909    0.0000 C   0  0  0  0  0  0  0  0  0  0  0  0
    6.1100   -1.9637    0.0000 F   0  0  0  0  0  0  0  0  0  0  0  0
  2  3  1  0
  3  1  1  0
  4  6  1  0
  5  2  1  0
  6 14  2  0
  7  5  1  0
  8 10  3  0
  9  1  1  0
 10 11  1  0
 11 23  2  0
 12  1  2  0
 13  1  2  0
 14 15  1  0
 15  7  1  0
 16  5  2  0
 17  4  1  0
 18  4  1  0
 19  4  1  0
 20  2  1  0
 21  9  2  0
 22  9  1  0
 23 24  1  0
 24 15  2  0
 25 27  1  0
 26  2  1  0
 27 22  2  0
 28 21  1  0
 29 25  1  0
 28 25  2  0
  6 11  1  0
M  END
> <chembl_id>
CHEMBL409

> <chembl_pref_name>
BICALUTAMIDE
