
     RDKit          2D

 27 27  0  0  0  0  0  0  0  0999 V2000
    6.2042   -4.1292    0.0000 C   0  0  0  0  0  0  0  0  0  0  0  0
    6.2042   -4.8375    0.0000 C   0  0  0  0  0  0  0  0  0  0  0  0
    4.9667   -4.1292    0.0000 N   0  0  0  0  0  0  0  0  0  0  0  0
    6.8042   -3.7792    0.0000 C   0  0  0  0  0  0  0  0  0  0  0  0
    5.5792   -3.7792    0.0000 C   0  0  0  0  0  0  0  0  0  0  0  0
    7.4167   -4.1292    0.0000 C   0  0  0  0  0  0  0  0  0  0  0  0
    6.8042   -3.0667    0.0000 C   0  0  0  0  0  0  0  0  0  0  0  0
    6.8042   -5.1875    0.0000 C   0  0  0  0  0  0  0  0  0  0  0  0
    6.8042   -5.9042    0.0000 N   0  0  0  0  0  0  0  0  0  0  0  0
    8.0417   -3.0667    0.0000 C   0  0  0  0  0  0  0  0  0  0  0  0
    7.4167   -2.7125    0.0000 C   0  0  0  0  0  0  0  0  0  0  0  0
    8.0417   -3.7792    0.0000 C   0  0  0  0  0  0  0  0  0  0  0  0
    8.6625   -2.7125    0.0000 Br  0  0  0  0  0  0  0  0  0  0  0  0
    4.3500   -3.7792    0.0000 C   0  0  0  0  0  0  0  0  0  0  0  0
    5.5792   -3.0667    0.0000 C   0  0  0  0  0  0  0  0  0  0  0  0
    7.4167   -6.2542    0.0000 C   0  0  0  0  0  0  0  0  0  0  0  0
    6.2042   -6.2542    0.0000 C   0  0  0  0  0  0  0  0  0  0  0  0
    4.3500   -3.0667    0.0000 C   0  0  0  0  0  0  0  0  0  0  0  0
    4.9667   -2.7125    0.0000 C   0  0  0  0  0  0  0  0  0  0  0  0
    9.7292   -3.6375    0.0000 C   0  0  0  0  0  0  0  0  0  0  0  0
    9.7250   -5.0542    0.0000 C   0  0  0  0  0  0  0  0  0  0  0  0
    9.1167   -3.9917    0.0000 C   0  0  0  0  0  0  0  0  0  0  0  0
    9.1167   -4.7000    0.0000 C   0  0  0  0  0  0  0  0  0  0  0  0
    9.7167   -5.7625    0.0000 O   0  0  0  0  0  0  0  0  0  0  0  0
    9.7375   -2.9292    0.0000 O   0  0  0  0  0  0  0  0  0  0  0  0
   10.3417   -3.9917    0.0000 O   0  0  0  0  0  0  0  0  0  0  0  0
   10.3417   -4.7042    0.0000 O   0  0  0  0  0  0  0  0  0  0  0  0
  2  1  1  0
  3  5  2  0
  4  1  1  0
  5  1  1  0
  6  4  2  0
  7  4  1  0
  8  2  1  0
  9  8  1  0
 10 11  1  0
 11  7  2  0
 12  6  1  0
 13 10  1  0
 14  3  1  0
 15  5  1  0
 16  9  1  0
 17  9  1  0
 18 19  1  0
 19 15  2  0
 10 12  2  0
 18 14  2  0
 21 23  1  0
 22 20  1  0
 23 22  2  0
 24 21  2  0
 25 20  2  0
 26 20  1  0
 27 21  1  0
M  END
> <chembl_id>
CHEMBL1200961

> <chembl_pref_name>
BROMPHENIRAMINE MALEATE
