
     RDKit          2D

 21 21  0  0  0  0  0  0  0  0999 V2000
    5.8667   -8.1542    0.0000 Cl  0  0  0  0  0  0  0  0  0  0  0  0
    4.7417   -7.1875    0.0000 C   0  0  0  0  0  0  0  0  0  0  0  0
    4.1250   -7.5792    0.0000 C   0  0  0  0  0  0  0  0  0  0  0  0
    4.7417   -6.4875    0.0000 C   0  0  0  0  0  0  0  0  0  0  0  0
    5.3542   -7.5375    0.0000 C   0  0  0  0  0  0  0  0  0  0  0  0
    5.3542   -6.1292    0.0000 C   0  0  0  0  0  0  0  0  0  0  0  0
    4.1292   -6.1292    0.0000 C   0  0  0  0  0  0  0  0  0  0  0  0
    5.9542   -7.1792    0.0000 N   0  0  0  0  0  0  0  0  0  0  0  0
    4.7750   -8.0125    0.0000 O   0  0  0  0  0  0  0  0  0  0  0  0
    4.7417   -5.0625    0.0000 C   0  0  0  0  0  0  0  0  0  0  0  0
    4.1292   -5.4167    0.0000 C   0  0  0  0  0  0  0  0  0  0  0  0
    5.3542   -5.4167    0.0000 C   0  0  0  0  0  0  0  0  0  0  0  0
    4.7417   -4.3625    0.0000 O   0  0  0  0  0  0  0  0  0  0  0  0
    3.5125   -7.2417    0.0000 C   0  0  0  0  0  0  0  0  0  0  0  0
    4.1250   -8.2917    0.0000 C   0  0  0  0  0  0  0  0  0  0  0  0
    6.5750   -7.5167    0.0000 C   0  0  0  0  0  0  0  0  0  0  0  0
    5.9542   -6.4792    0.0000 C   0  0  0  0  0  0  0  0  0  0  0  0
    5.3542   -4.0250    0.0000 C   0  0  0  0  0  0  0  0  0  0  0  0
    2.9042   -7.5792    0.0000 C   0  0  0  0  0  0  0  0  0  0  0  0
    3.5125   -8.6667    0.0000 C   0  0  0  0  0  0  0  0  0  0  0  0
    2.9042   -8.2917    0.0000 C   0  0  0  0  0  0  0  0  0  0  0  0
  3  2  1  0
  4  2  1  0
  5  2  1  0
  6  4  1  0
  7  4  2  0
  8  5  1  0
  9  3  1  0
 10 11  2  0
 11  7  1  0
 12  6  2  0
 13 10  1  0
 14  3  1  0
 15  3  1  0
 16  8  1  0
 17  8  1  0
 18 13  1  0
 19 14  1  0
 20 15  1  0
 21 19  1  0
 10 12  1  0
 21 20  1  0
M  END
> <chembl_id>
CHEMBL1201066

> <chembl_pref_name>
VENLAFAXINE HYDROCHLORIDE
