
     RDKit          2D

  8  7  0  0  0  0  0  0  0  0999 V2000
    2.0875   -3.1542    0.0000 C   0  0  0  0  0  0  0  0  0  0  0  0
    2.4375   -3.7667    0.0000 N   0  0  0  0  0  0  0  0  0  0  0  0
    1.4667   -2.8042    0.0000 C   0  0  0  0  0  0  0  0  0  0  0  0
    1.7292   -3.7667    0.0000 C   0  0  0  0  0  0  0  0  0  0  0  0
    2.7000   -2.8042    0.0000 C   0  0  0  0  0  0  0  0  0  0  0  0
    3.3125   -3.1542    0.0000 O   0  0  0  0  0  0  0  0  0  0  0  0
    1.0167   -3.7667    0.0000 O   0  0  0  0  0  0  0  0  0  0  0  0
    0.8542   -3.1542    0.0000 O   0  0  0  0  0  0  0  0  0  0  0  0
  2  1  1  0
  3  1  1  0
  4  1  1  0
  5  1  1  0
  6  5  1  0
  7  4  1  0
  8  3  1  0
M  END
> <chembl_id>
CHEMBL1200391

> <chembl_pref_name>
TROMETHAMINE
