
     RDKit          2D

 17 17  0  0  0  0  0  0  0  0999 V2000
    4.4667   -6.3542    0.0000 C   0  0  0  0  0  0  0  0  0  0  0  0
    3.8417   -6.6917    0.0000 C   0  0  0  0  0  0  0  0  0  0  0  0
    4.4667   -5.6417    0.0000 O   0  0  0  0  0  0  0  0  0  0  0  0
    3.2292   -6.3542    0.0000 C   0  0  0  0  0  0  0  0  0  0  0  0
    3.8417   -7.4042    0.0000 C   0  0  0  0  0  0  0  0  0  0  0  0
    5.0667   -6.7042    0.0000 O   0  0  0  0  0  0  0  0  0  0  0  0
    2.6042   -7.4042    0.0000 C   0  0  0  0  0  0  0  0  0  0  0  0
    6.9125   -6.3542    0.0000 N   0  0  0  0  0  0  0  0  0  0  0  0
    1.9875   -7.7542    0.0000 N   0  0  0  0  0  0  0  0  0  0  0  0
    2.6125   -6.7042    0.0000 C   0  0  0  0  0  0  0  0  0  0  0  0
    3.2292   -7.7625    0.0000 C   0  0  0  0  0  0  0  0  0  0  0  0
    5.6792   -6.3500    0.0000 C   0  0  0  0  0  0  0  0  0  0  0  0
    6.2917   -6.7042    0.0000 C   0  0  0  0  0  0  0  0  0  0  0  0
    6.9250   -5.6500    0.0000 C   0  0  0  0  0  0  0  0  0  0  0  0
    7.5292   -6.7042    0.0000 C   0  0  0  0  0  0  0  0  0  0  0  0
    7.5375   -5.2917    0.0000 C   0  0  0  0  0  0  0  0  0  0  0  0
    8.1542   -6.3542    0.0000 C   0  0  0  0  0  0  0  0  0  0  0  0
  2  1  1  0
  3  1  2  0
  4  2  2  0
  5  2  1  0
  6  1  1  0
  7 11  1  0
  8 13  1  0
  9  7  1  0
 10  4  1  0
 11  5  2  0
 12  6  1  0
 13 12  1  0
 14  8  1  0
 15  8  1  0
 16 14  1  0
 17 15  1  0
  7 10  2  0
M  END
> <chembl_id>
CHEMBL569

> <chembl_pref_name>
PROCAINE
