
     RDKit          2D

 32 33  0  0  0  0  0  0  0  0999 V2000
    7.5292    0.2958    0.0000 C   0  0  0  0  0  0  0  0  0  0  0  0
    6.3042    0.2875    0.0000 C   0  0  0  0  0  0  0  0  0  0  0  0
    8.1500   -0.0625    0.0000 C   0  0  0  0  0  0  0  0  0  0  0  0
    6.9167   -0.0667    0.0000 C   0  0  0  0  0  0  0  0  0  0  0  0
    6.3000    1.0000    0.0000 O   0  0  0  0  0  0  0  0  0  0  0  0
    8.1500   -0.7750    0.0000 O   0  0  0  0  0  0  0  0  0  0  0  0
    5.6917   -0.0667    0.0000 O   0  0  0  0  0  0  0  0  0  0  0  0
    8.7625    0.2958    0.0000 O   0  0  0  0  0  0  0  0  0  0  0  0
    6.9167   -0.7792    0.0000 O   0  0  0  0  0  0  0  0  0  0  0  0
    0.1750    0.2250    0.0000 S   0  0  0  0  0  0  0  0  0  0  0  0
   -0.4375   -0.1292    0.0000 N   0  0  0  0  0  0  0  0  0  0  0  0
    3.3125    1.1583    0.0000 N   0  0  0  0  0  0  0  0  0  0  0  0
    2.6375    0.2333    0.0000 C   0  0  0  0  0  0  0  0  0  0  0  0
    3.3125    0.0125    0.0000 C   0  0  0  0  0  0  0  0  0  0  0  0
    3.7292    0.5833    0.0000 C   0  0  0  0  0  0  0  0  0  0  0  0
    0.7917   -0.1292    0.0000 C   0  0  0  0  0  0  0  0  0  0  0  0
    2.6375    0.9458    0.0000 C   0  0  0  0  0  0  0  0  0  0  0  0
   -0.1833    0.8458    0.0000 O   0  0  0  0  0  0  0  0  0  0  0  0
    0.5250    0.8458    0.0000 O   0  0  0  0  0  0  0  0  0  0  0  0
    2.0292   -0.1167    0.0000 C   0  0  0  0  0  0  0  0  0  0  0  0
    1.4125    0.2333    0.0000 C   0  0  0  0  0  0  0  0  0  0  0  0
    3.3042   -0.6917    0.0000 C   0  0  0  0  0  0  0  0  0  0  0  0
    2.0292    1.2958    0.0000 C   0  0  0  0  0  0  0  0  0  0  0  0
    4.5250   -0.6917    0.0000 N   0  0  0  0  0  0  0  0  0  0  0  0
    3.9042   -1.0500    0.0000 C   0  0  0  0  0  0  0  0  0  0  0  0
    1.4125    0.9375    0.0000 C   0  0  0  0  0  0  0  0  0  0  0  0
   -1.0125    0.2875    0.0000 C   0  0  0  0  0  0  0  0  0  0  0  0
   -0.6583   -0.8042    0.0000 C   0  0  0  0  0  0  0  0  0  0  0  0
    4.5292    0.0125    0.0000 C   0  0  0  0  0  0  0  0  0  0  0  0
    5.1375   -1.0500    0.0000 C   0  0  0  0  0  0  0  0  0  0  0  0
   -1.5833   -0.1292    0.0000 C   0  0  0  0  0  0  0  0  0  0  0  0
   -1.3625   -0.8042    0.0000 C   0  0  0  0  0  0  0  0  0  0  0  0
  2  4  1  0
  3  1  1  0
  4  1  1  0
  5  2  2  0
  6  3  2  0
  7  2  1  0
  8  3  1  0
  9  4  1  0
 11 10  1  0
 12 17  1  0
 13 20  2  0
 14 13  1  0
 15 14  2  0
 16 10  1  0
 17 23  2  0
 18 10  2  0
 19 10  2  0
 20 21  1  0
 21 16  1  0
 22 14  1  0
 23 26  1  0
 24 25  1  0
 25 22  1  0
 26 21  2  0
 27 11  1  0
 28 11  1  0
 29 24  1  0
 30 24  1  0
 31 27  1  0
 32 28  1  0
 32 31  1  0
 17 13  1  0
 12 15  1  0
M  END
> <chembl_id>
CHEMBL1200521

> <chembl_pref_name>
ALMOTRIPTAN MALATE
