
     RDKit          2D

 17 18  0  0  0  0  0  0  0  0999 V2000
    4.9042   -5.1167    0.0000 C   0  0  0  0  0  0  0  0  0  0  0  0
    5.5042   -5.4792    0.0000 C   0  0  0  0  0  0  0  0  0  0  0  0
    4.2792   -5.4667    0.0000 C   0  0  0  0  0  0  0  0  0  0  0  0
    4.9125   -4.4167    0.0000 C   0  0  0  0  0  0  0  0  0  0  0  0
    3.6750   -5.1042    0.0000 C   0  0  0  0  0  0  0  0  0  0  0  0
    5.4917   -6.1917    0.0000 O   0  0  0  0  0  0  0  0  0  0  0  0
    6.1250   -5.1417    0.0000 C   0  0  0  0  0  0  0  0  0  0  0  0
    3.6792   -4.4000    0.0000 C   0  0  0  0  0  0  0  0  0  0  0  0
    4.2792   -6.1750    0.0000 O   0  0  0  0  0  0  0  0  0  0  0  0
    4.3042   -4.0500    0.0000 C   0  0  0  0  0  0  0  0  0  0  0  0
    3.0667   -4.0292    0.0000 O   0  0  0  0  0  0  0  0  0  0  0  0
    6.7417   -5.5000    0.0000 C   0  0  0  0  0  0  0  0  0  0  0  0
    6.1375   -4.4292    0.0000 C   0  0  0  0  0  0  0  0  0  0  0  0
    2.4458   -4.3667    0.0000 C   0  0  0  0  0  0  0  0  0  0  0  0
    7.3542   -5.1625    0.0000 C   0  0  0  0  0  0  0  0  0  0  0  0
    6.7625   -4.0875    0.0000 C   0  0  0  0  0  0  0  0  0  0  0  0
    7.3667   -4.4542    0.0000 C   0  0  0  0  0  0  0  0  0  0  0  0
  2  1  1  0
  3  1  2  0
  4  1  1  0
  5  3  1  0
  6  2  2  0
  7  2  1  0
  8 10  1  0
  9  3  1  0
 10  4  2  0
 11  8  1  0
 12  7  2  0
 13  7  1  0
 14 11  1  0
 15 12  1  0
 16 13  2  0
 17 16  1  0
  8  5  2  0
 17 15  2  0
M  END
> <chembl_id>
CHEMBL1625

> <chembl_pref_name>
OXYBENZONE
