
     RDKit          2D

 27 29  0  0  1  0  0  0  0  0999 V2000
    4.2250   -6.1167    0.0000 N   0  0  0  0  0  0  0  0  0  0  0  0
    3.5042   -6.1167    0.0000 C   0  0  0  0  0  0  0  0  0  0  0  0
    4.2167   -5.4000    0.0000 C   0  0  0  0  0  0  0  0  0  0  0  0
    3.5042   -5.4042    0.0000 C   0  0  0  0  0  0  0  0  0  0  0  0
    4.8375   -6.4667    0.0000 C   0  0  0  0  0  0  0  0  0  0  0  0
    4.8292   -5.0542    0.0000 S   0  0  0  0  0  0  0  0  0  0  0  0
    5.4292   -6.1167    0.0000 C   0  0  0  0  0  0  0  0  0  0  0  0
    2.8917   -5.0542    0.0000 N   0  0  0  0  0  0  0  0  0  0  0  0
    4.8417   -7.1792    0.0000 C   0  0  0  0  0  0  0  0  0  0  0  0
    2.2875   -5.4125    0.0000 C   0  0  0  0  0  0  0  0  0  0  0  0
    1.6542   -5.0625    0.0000 C   0  0  0  0  0  0  0  0  0  0  0  0
    1.0375   -5.4292    0.0000 C   0  0  0  0  0  0  0  0  0  0  0  0
    5.4292   -5.4042    0.0000 C   0  0  0  0  0  0  0  0  0  0  0  0
    3.0000   -6.6125    0.0000 O   0  0  0  0  0  0  0  0  0  0  0  0
    0.8417   -6.1125    0.0000 S   0  0  0  0  0  0  0  0  0  0  0  0
    6.0542   -6.4667    0.0000 C   0  0  0  0  0  0  0  0  0  0  0  0
    7.2792   -6.4625    0.0000 C   0  0  0  0  0  0  0  0  0  0  0  0
    5.4625   -7.5375    0.0000 O   0  0  0  0  0  0  0  0  0  0  0  0
    0.1292   -6.1125    0.0000 C   0  0  0  0  0  0  0  0  0  0  0  0
    4.2417   -7.5375    0.0000 O   0  0  0  0  0  0  0  0  0  0  0  0
    0.4625   -5.0167    0.0000 C   0  0  0  0  0  0  0  0  0  0  0  0
    2.2875   -6.1292    0.0000 O   0  0  0  0  0  0  0  0  0  0  0  0
    6.6625   -6.1167    0.0000 O   0  0  0  0  0  0  0  0  0  0  0  0
   -0.1000   -5.4417    0.0000 C   0  0  0  0  0  0  0  0  0  0  0  0
    7.3042   -7.1667    0.0000 O   0  0  0  0  0  0  0  0  0  0  0  0
    7.9000   -6.0875    0.0000 C   0  0  0  0  0  0  0  0  0  0  0  0
    4.2167   -4.6917    0.0000 H   0  0  0  0  0  0  0  0  0  0  0  0
  2  1  1  0
  3  1  1  0
  4  3  1  0
  5  1  1  0
  6  3  1  0
  7  5  2  0
  4  8  1  1
  9  5  1  0
 10  8  1  0
 11 10  1  0
 12 11  1  0
 13  7  1  0
 14  2  2  0
 15 12  1  0
 16  7  1  0
 17 23  1  0
 18  9  1  0
 19 15  1  0
 20  9  2  0
 21 12  2  0
 22 10  2  0
 23 16  1  0
 24 21  1  0
 25 17  2  0
 26 17  1  0
  3 27  1  6
  4  2  1  0
 13  6  1  0
 19 24  2  0
M  END
> <chembl_id>
CHEMBL617

> <chembl_pref_name>
CEPHALOTHIN
