
     RDKit          2D

 32 36  0  0  1  0  0  0  0  0999 V2000
   -1.4083   -0.6500    0.0000 C   0  0  0  0  0  0  0  0  0  0  0  0
   -1.4083   -2.2375    0.0000 C   0  0  0  0  0  0  0  0  0  0  0  0
   -2.0958   -1.0417    0.0000 C   0  0  0  0  0  0  0  0  0  0  0  0
   -0.7208   -1.0417    0.0000 C   0  0  0  0  0  0  0  0  0  0  0  0
   -2.0958   -1.8375    0.0000 C   0  0  0  0  0  0  0  0  0  0  0  0
   -2.7833   -3.0292    0.0000 N   0  0  0  0  0  0  0  0  0  0  0  0
   -0.0333   -0.6500    0.0000 N   0  0  0  0  0  0  0  0  0  0  0  0
   -1.4083   -3.0292    0.0000 C   0  0  0  0  0  0  0  0  0  0  0  0
   -2.7833   -2.2375    0.0000 C   0  0  0  0  0  0  0  0  0  0  0  0
   -0.7208   -1.8375    0.0000 C   0  0  0  0  0  0  0  0  0  0  0  0
    1.1792    2.1458    0.0000 C   0  0  0  0  0  0  0  0  0  0  0  0
    0.6792    1.5250    0.0000 C   0  0  0  0  0  0  0  0  0  0  0  0
   -1.4083    0.1458    0.0000 C   0  0  0  0  0  0  0  0  0  0  0  0
   -0.0333    0.1458    0.0000 C   0  0  0  0  0  0  0  0  0  0  0  0
   -0.7208    0.5458    0.0000 C   0  0  0  0  0  0  0  0  0  0  0  0
    1.3875    3.5000    0.0000 N   0  0  0  0  0  0  0  0  0  0  0  0
   -0.0708    1.7958    0.0000 O   0  0  0  0  0  0  0  0  0  0  0  0
    1.9542    2.0208    0.0000 C   0  0  0  0  0  0  0  0  0  0  0  0
    0.8917    0.7625    0.0000 O   0  0  0  0  0  0  0  0  0  0  0  0
   -2.1250   -0.2375    0.0000 O   0  0  0  0  0  0  0  0  0  0  0  0
   -0.7208    1.3333    0.0000 C   0  0  0  0  0  0  0  0  0  0  0  0
    0.8875    2.8833    0.0000 C   0  0  0  0  0  0  0  0  0  0  0  0
    2.4542    2.6458    0.0000 C   0  0  0  0  0  0  0  0  0  0  0  0
   -2.7833   -0.6500    0.0000 C   0  0  0  0  0  0  0  0  0  0  0  0
   -3.3458   -3.5917    0.0000 C   0  0  0  0  0  0  0  0  0  0  0  0
    0.6542   -1.0417    0.0000 C   0  0  0  0  0  0  0  0  0  0  0  0
    3.2417    2.5208    0.0000 Br  0  0  0  0  0  0  0  0  0  0  0  0
   -3.4708   -1.8375    0.0000 C   0  0  0  0  0  0  0  0  0  0  0  0
    2.1750    3.3833    0.0000 C   0  0  0  0  0  0  0  0  0  0  0  0
   -3.4708   -1.0417    0.0000 C   0  0  0  0  0  0  0  0  0  0  0  0
   -1.9708    0.5833    0.0000 C   0  0  0  0  0  0  0  0  0  0  0  0
    0.0000   -1.4542    0.0000 H   0  0  0  0  0  0  0  0  0  0  0  0
  2 10  1  0
  3  1  1  0
  4  1  1  0
  5  3  2  0
  6  9  1  0
  7  4  1  0
  8  2  2  0
  9  5  1  0
 10  4  1  0
 11 12  1  0
 12 17  1  0
 13  1  1  0
 14 15  1  0
 15 13  1  0
 16 22  1  0
 17 21  1  0
 18 11  1  0
 19 12  2  0
  1 20  1  6
 15 21  1  1
 22 11  2  0
 23 18  2  0
 24  3  1  0
 25  6  1  0
 26  7  1  0
 27 23  1  0
 28 30  1  0
 29 16  2  0
 30 24  2  0
 31 20  1  0
  4 32  1  1
  5  2  1  0
  7 14  1  0
  8  6  1  0
  9 28  2  0
 23 29  1  0
M  END
> <chembl_id>
CHEMBL1372950

> <chembl_pref_name>
NICERGOLINE
