
     RDKit          2D

 36 38  0  0  0  0  0  0  0  0999 V2000
   -0.8465    2.4079    0.0000 C   0  0  0  0  0  0  0  0  0  0  0  0
   -0.8479    1.5801    0.0000 C   0  0  0  0  0  0  0  0  0  0  0  0
   -0.1316    1.1672    0.0000 C   0  0  0  0  0  0  0  0  0  0  0  0
    0.5814    1.5807    0.0000 C   0  0  0  0  0  0  0  0  0  0  0  0
    0.5782    2.4121    0.0000 C   0  0  0  0  0  0  0  0  0  0  0  0
   -0.1337    2.8207    0.0000 C   0  0  0  0  0  0  0  0  0  0  0  0
    1.2912    2.8270    0.0000 S   0  0  0  0  0  0  0  0  0  0  0  0
    2.0071    2.4168    0.0000 O   0  0  0  0  0  0  0  0  0  0  0  0
    1.6983    3.5483    0.0000 O   0  0  0  0  0  0  0  0  0  0  0  0
    0.8732    3.5483    0.0000 O   0  0  0  0  0  0  0  0  0  0  0  0
   -1.5626    1.1680    0.0000 C   0  0  0  0  0  0  0  0  0  0  0  0
    3.5946    0.4738    0.0000 N   0  0  0  0  0  0  0  0  0  0  0  0
    4.4196    0.4738    0.0000 C   0  0  0  0  0  0  0  0  0  0  0  0
    4.8321   -0.2406    0.0000 C   0  0  0  0  0  0  0  0  0  0  0  0
    4.4196   -0.9551    0.0000 C   0  0  0  0  0  0  0  0  0  0  0  0
    3.5946   -0.9551    0.0000 C   0  0  0  0  0  0  0  0  0  0  0  0
    3.1821   -0.2406    0.0000 C   0  0  0  0  0  0  0  0  0  0  0  0
    5.6571   -0.2406    0.0000 C   0  0  0  0  0  0  0  0  0  0  0  0
    6.0696    0.4738    0.0000 C   0  0  0  0  0  0  0  0  0  0  0  0
    6.8946    0.4738    0.0000 C   0  0  0  0  0  0  0  0  0  0  0  0
    7.3071   -0.2406    0.0000 C   0  0  0  0  0  0  0  0  0  0  0  0
    6.8946   -0.9551    0.0000 C   0  0  0  0  0  0  0  0  0  0  0  0
    6.0696   -0.9551    0.0000 C   0  0  0  0  0  0  0  0  0  0  0  0
    8.1321   -0.2406    0.0000 N   0  0  0  0  0  0  0  0  0  0  0  0
    8.6171    0.4268    0.0000 N   0  0  0  0  0  0  0  0  0  0  0  0
    9.4017    0.1719    0.0000 C   0  0  0  0  0  0  0  0  0  0  0  0
   10.1162    0.5844    0.0000 C   0  0  0  0  0  0  0  0  0  0  0  0
   10.8306    0.1719    0.0000 C   0  0  0  0  0  0  0  0  0  0  0  0
   10.8306   -0.6531    0.0000 C   0  0  0  0  0  0  0  0  0  0  0  0
   10.1162   -1.0656    0.0000 C   0  0  0  0  0  0  0  0  0  0  0  0
    9.4017   -0.6531    0.0000 C   0  0  0  0  0  0  0  0  0  0  0  0
    8.6171   -0.9081    0.0000 C   0  0  0  0  0  0  0  0  0  0  0  0
   10.1162    1.4094    0.0000 C   0  0  0  0  0  0  0  0  0  0  0  0
    9.4017    1.8219    0.0000 O   0  0  0  0  0  0  0  0  0  0  0  0
   10.8306    1.8219    0.0000 N   0  0  0  0  0  0  0  0  0  0  0  0
    5.1311    1.7890    0.0000 O   0  0  0  0  0  0  0  0  0  0  0  0
  1  2  2  0
  2  3  1  0
  3  4  2  0
  4  5  1  0
  5  6  2  0
  6  1  1  0
  5  7  1  0
  7  8  1  0
  7  9  2  0
  7 10  2  0
  2 11  1  0
 12 13  1  0
 13 14  1  0
 14 15  1  0
 15 16  1  0
 16 17  1  0
 12 17  1  0
 14 18  1  6
 18 19  2  0
 19 20  1  0
 20 21  2  0
 21 22  1  0
 22 23  2  0
 18 23  1  0
 21 24  1  0
 24 25  1  0
 25 26  2  0
 26 27  1  0
 27 28  2  0
 28 29  1  0
 29 30  2  0
 30 31  1  0
 26 31  1  0
 31 32  2  0
 24 32  1  0
 27 33  1  0
 33 34  2  0
 33 35  1  0
M  END
> <chembl_id>
CHEMBL3989922

> <chembl_pref_name>
NIRAPARIB TOSYLATE MONOHYDRATE
