
     RDKit          2D

 26 26  0  0  0  0  0  0  0  0999 V2000
    4.3042   -5.5000    0.0000 Cl  0  0  0  0  0  0  0  0  0  0  0  0
    7.4000   -3.8167    0.0000 C   0  0  0  0  0  0  0  0  0  0  0  0
    8.6375   -4.5250    0.0000 N   0  0  0  0  0  0  0  0  0  0  0  0
    6.7792   -3.4625    0.0000 C   0  0  0  0  0  0  0  0  0  0  0  0
    8.0167   -3.4625    0.0000 C   0  0  0  0  0  0  0  0  0  0  0  0
    8.6292   -3.8125    0.0000 C   0  0  0  0  0  0  0  0  0  0  0  0
    8.0250   -4.8875    0.0000 C   0  0  0  0  0  0  0  0  0  0  0  0
    7.4042   -4.5292    0.0000 C   0  0  0  0  0  0  0  0  0  0  0  0
    6.7792   -2.7542    0.0000 O   0  0  0  0  0  0  0  0  0  0  0  0
    6.1667   -3.8167    0.0000 N   0  0  0  0  0  0  0  0  0  0  0  0
    4.3250   -3.4750    0.0000 N   0  0  0  0  0  0  0  0  0  0  0  0
    8.0292   -5.5875    0.0000 O   0  0  0  0  0  0  0  0  0  0  0  0
    5.5625   -3.4750    0.0000 C   0  0  0  0  0  0  0  0  0  0  0  0
    8.0167   -2.7500    0.0000 C   0  0  0  0  0  0  0  0  0  0  0  0
    9.2417   -3.4542    0.0000 C   0  0  0  0  0  0  0  0  0  0  0  0
    4.9500   -3.8292    0.0000 C   0  0  0  0  0  0  0  0  0  0  0  0
    3.7125   -3.8292    0.0000 C   0  0  0  0  0  0  0  0  0  0  0  0
    4.3167   -2.7667    0.0000 C   0  0  0  0  0  0  0  0  0  0  0  0
    7.4042   -5.9417    0.0000 C   0  0  0  0  0  0  0  0  0  0  0  0
    6.7917   -5.5875    0.0000 C   0  0  0  0  0  0  0  0  0  0  0  0
    6.1750   -5.9417    0.0000 C   0  0  0  0  0  0  0  0  0  0  0  0
    3.0917   -3.4792    0.0000 C   0  0  0  0  0  0  0  0  0  0  0  0
    3.7042   -2.4125    0.0000 C   0  0  0  0  0  0  0  0  0  0  0  0
    8.6292   -2.3917    0.0000 C   0  0  0  0  0  0  0  0  0  0  0  0
    9.2500   -2.7417    0.0000 C   0  0  0  0  0  0  0  0  0  0  0  0
    5.5542   -5.5875    0.0000 C   0  0  0  0  0  0  0  0  0  0  0  0
  3  7  1  0
  4  2  1  0
  5  2  2  0
  6  5  1  0
  7  8  2  0
  8  2  1  0
  9  4  2  0
 10  4  1  0
 11 16  1  0
 12  7  1  0
 13 10  1  0
 14  5  1  0
 15  6  1  0
 16 13  1  0
 17 11  1  0
 18 11  1  0
 19 12  1  0
 20 19  1  0
 21 20  1  0
 22 17  1  0
 23 18  1  0
 24 14  2  0
 25 24  1  0
 26 21  1  0
  3  6  2  0
 25 15  2  0
M  END
> <chembl_id>
CHEMBL1200612

> <chembl_pref_name>
DIBUCAINE HYDROCHLORIDE
