
     RDKit          2D

 26 27  0  0  1  0  0  0  0  0999 V2000
    6.0792  -11.5917    0.0000 C   0  0  0  0  0  0  0  0  0  0  0  0
    7.1917  -10.9500    0.0000 C   0  0  0  0  0  0  0  0  0  0  0  0
    4.9667  -10.9500    0.0000 C   0  0  0  0  0  0  0  0  0  0  0  0
    7.2042   -9.6625    0.0000 O   0  0  0  0  0  0  0  0  0  0  0  0
    8.3250   -9.0250    0.0000 C   0  0  0  0  0  0  0  0  0  0  0  0
    4.9792   -9.6750    0.0000 C   0  0  0  0  0  0  0  0  0  0  0  0
    5.3167  -12.6542    0.0000 C   0  0  0  0  0  0  0  0  0  0  0  0
    8.1792  -13.2375    0.0000 C   0  0  0  0  0  0  0  0  0  0  0  0
    3.8750   -9.0292    0.0000 N   0  0  0  0  0  0  0  0  0  0  0  0
    9.4292   -9.6750    0.0000 O   0  0  0  0  0  0  0  0  0  0  0  0
    8.3042  -11.5917    0.0000 C   0  0  0  0  0  0  0  0  0  0  0  0
    8.3292   -7.7375    0.0000 C   0  0  0  0  0  0  0  0  0  0  0  0
    2.7542   -9.6667    0.0000 C   0  0  0  0  0  0  0  0  0  0  0  0
    3.8792   -7.7417    0.0000 C   0  0  0  0  0  0  0  0  0  0  0  0
    6.0875   -9.0167    0.0000 C   0  0  0  0  0  0  0  0  0  0  0  0
    4.0417  -12.6417    0.0000 C   0  0  0  0  0  0  0  0  0  0  0  0
    5.9417  -13.7542    0.0000 C   0  0  0  0  0  0  0  0  0  0  0  0
    9.4750  -13.2375    0.0000 C   0  0  0  0  0  0  0  0  0  0  0  0
    7.5292  -14.3292    0.0000 C   0  0  0  0  0  0  0  0  0  0  0  0
    9.4292  -10.9542    0.0000 C   0  0  0  0  0  0  0  0  0  0  0  0
   10.1042  -14.3542    0.0000 C   0  0  0  0  0  0  0  0  0  0  0  0
    8.1625  -15.4500    0.0000 C   0  0  0  0  0  0  0  0  0  0  0  0
    3.3917  -13.7292    0.0000 C   0  0  0  0  0  0  0  0  0  0  0  0
    5.2917  -14.8542    0.0000 C   0  0  0  0  0  0  0  0  0  0  0  0
    9.4542  -15.4667    0.0000 C   0  0  0  0  0  0  0  0  0  0  0  0
    4.0167  -14.8417    0.0000 C   0  0  0  0  0  0  0  0  0  0  0  0
  2  1  1  0
  3  1  1  0
  4  2  1  0
  5  4  1  0
  6  3  1  0
  7  1  1  0
  8  1  1  0
  9  6  1  0
 10  5  2  0
  2 11  1  1
 12  5  1  0
 13  9  1  0
 14  9  1  0
  6 15  1  1
 16  7  2  0
 17  7  1  0
 18  8  2  0
 19  8  1  0
 20 11  1  0
 21 18  1  0
 22 19  2  0
 23 16  1  0
 24 17  2  0
 25 22  1  0
 26 24  1  0
 21 25  2  0
 23 26  2  0
M  END
> <chembl_id>
CHEMBL1514

> <chembl_pref_name>
LEVOMETHADYL ACETATE
