
     RDKit          2D

 19 18  0  0  0  0  0  0  0  0999 V2000
    4.2293   -1.2405    0.0000 Cl  0  0  0  0  0  0  0  0  0  0  0  0
   -2.1445    0.4100    0.0000 S   0  0  0  0  0  0  0  0  0  0  0  0
   -1.4302    0.8238    0.0000 N   0  0  0  0  0  0  0  0  0  0  0  0
   -2.7168    0.7388    0.0000 O   0  0  0  0  0  0  0  0  0  0  0  0
   -2.1433   -0.2500    0.0000 O   0  0  0  0  0  0  0  0  0  0  0  0
    0.7145   -0.4125    0.0000 C   0  0  0  0  0  0  0  0  0  0  0  0
    2.1414   -2.0664    0.0000 N   0  0  0  0  0  0  0  0  0  0  0  0
    1.4273   -1.6522    0.0000 C   0  0  0  0  0  0  0  0  0  0  0  0
    0.7145    0.4125    0.0000 C   0  0  0  0  0  0  0  0  0  0  0  0
    0.0000   -0.8250    0.0000 C   0  0  0  0  0  0  0  0  0  0  0  0
    1.4285   -0.8267    0.0000 C   0  0  0  0  0  0  0  0  0  0  0  0
   -0.7145    0.4125    0.0000 C   0  0  0  0  0  0  0  0  0  0  0  0
   -2.7155    0.0789    0.0000 C   0  0  0  0  0  0  0  0  0  0  0  0
    0.0000    0.8250    0.0000 C   0  0  0  0  0  0  0  0  0  0  0  0
   -0.7145   -0.4125    0.0000 C   0  0  0  0  0  0  0  0  0  0  0  0
    2.0007   -0.4977    0.0000 O   0  0  0  0  0  0  0  0  0  0  0  0
    2.1402   -2.8919    0.0000 C   0  0  0  0  0  0  0  0  0  0  0  0
    2.7111   -3.2231    0.0000 C   0  0  0  0  0  0  0  0  0  0  0  0
    1.5680   -3.2209    0.0000 C   0  0  0  0  0  0  0  0  0  0  0  0
  2  3  1  0
  2  4  2  0
  2  5  2  0
  7  8  1  0
  6  9  1  0
  6 10  2  0
  6 11  1  0
  8 11  1  0
  3 12  1  0
  2 13  1  0
  9 14  2  0
 12 14  1  0
 10 15  1  0
 12 15  2  0
 11 16  1  0
  7 17  1  0
 17 18  1  0
 17 19  1  0
M  END
> <chembl_id>
CHEMBL1700

> <chembl_pref_name>
SOTALOL HYDROCHLORIDE
