
     RDKit          2D

 34 34  0  0  0  0  0  0  0  0999 V2000
   10.4386   -1.7674    0.0000 Cl  0  0  0  0  0  0  0  0  0  0  0  0
    4.3614   -0.5259    0.0000 C   0  0  0  0  0  0  0  0  0  0  0  0
    4.3614   -1.3509    0.0000 C   0  0  0  0  0  0  0  0  0  0  0  0
    2.9285   -0.5259    0.0000 C   0  0  0  0  0  0  0  0  0  0  0  0
    2.9285   -1.3509    0.0000 C   0  0  0  0  0  0  0  0  0  0  0  0
    3.6474   -0.1109    0.0000 C   0  0  0  0  0  0  0  0  0  0  0  0
    3.6474   -1.7707    0.0000 C   0  0  0  0  0  0  0  0  0  0  0  0
    5.0707   -1.7707    0.0000 C   0  0  0  0  0  0  0  0  0  0  0  0
    5.0707   -0.1109    0.0000 C   0  0  0  0  0  0  0  0  0  0  0  0
    2.2193   -0.1109    0.0000 C   0  0  0  0  0  0  0  0  0  0  0  0
    2.2193   -1.7707    0.0000 C   0  0  0  0  0  0  0  0  0  0  0  0
    3.6474    0.7043    0.0000 O   0  0  0  0  0  0  0  0  0  0  0  0
    3.6474   -2.5908    0.0000 O   0  0  0  0  0  0  0  0  0  0  0  0
    5.7799   -0.5259    0.0000 C   0  0  0  0  0  0  0  0  0  0  0  0
    5.7799   -1.3509    0.0000 C   0  0  0  0  0  0  0  0  0  0  0  0
    1.5101   -0.5259    0.0000 C   0  0  0  0  0  0  0  0  0  0  0  0
    1.5101   -1.3509    0.0000 C   0  0  0  0  0  0  0  0  0  0  0  0
    5.0707    0.7043    0.0000 N   0  0  0  0  0  0  0  0  0  0  0  0
    5.0707   -2.5908    0.0000 N   0  0  0  0  0  0  0  0  0  0  0  0
    2.2193    0.7043    0.0000 O   0  0  0  0  0  0  0  0  0  0  0  0
    2.2193   -2.5908    0.0000 O   0  0  0  0  0  0  0  0  0  0  0  0
    7.2128    1.1145    0.0000 N   0  0  0  0  0  0  0  0  0  0  0  0
    7.2128   -3.0009    0.0000 N   0  0  0  0  0  0  0  0  0  0  0  0
    9.3500   -2.5908    0.0000 O   0  0  0  0  0  0  0  0  0  0  0  0
    9.3500    0.7043    0.0000 O   0  0  0  0  0  0  0  0  0  0  0  0
    5.7799    1.1145    0.0000 C   0  0  0  0  0  0  0  0  0  0  0  0
    5.7799   -3.0009    0.0000 C   0  0  0  0  0  0  0  0  0  0  0  0
    6.4987   -2.5908    0.0000 C   0  0  0  0  0  0  0  0  0  0  0  0
    6.4987    0.7043    0.0000 C   0  0  0  0  0  0  0  0  0  0  0  0
    7.9220   -2.5908    0.0000 C   0  0  0  0  0  0  0  0  0  0  0  0
    7.9220    0.7043    0.0000 C   0  0  0  0  0  0  0  0  0  0  0  0
    8.6408   -3.0009    0.0000 C   0  0  0  0  0  0  0  0  0  0  0  0
    8.6408    1.1145    0.0000 C   0  0  0  0  0  0  0  0  0  0  0  0
    9.4851   -0.8009    0.0000 Cl  0  0  0  0  0  0  0  0  0  0  0  0
  3  2  2  0
  4  6  1  0
  5  4  2  0
  6  2  1  0
  7  3  1  0
  8  3  1  0
  9  2  1  0
 10  4  1  0
 11  5  1  0
 12  6  2  0
 13  7  2  0
 14  9  2  0
 15 14  1  0
 16 10  2  0
 17 16  1  0
 18  9  1  0
 19  8  1  0
 20 10  1  0
 21 11  1  0
 22 29  1  0
 23 28  1  0
 24 32  1  0
 25 33  1  0
 26 18  1  0
 27 19  1  0
 28 27  1  0
 29 26  1  0
 30 23  1  0
 31 22  1  0
 32 30  1  0
 33 31  1  0
  5  7  1  0
 15  8  2  0
 17 11  2  0
M  END
> <chembl_id>
CHEMBL1417019

> <chembl_pref_name>
MITOXANTRONE HYDROCHLORIDE
