
     RDKit          2D

 16 17  0  0  0  0  0  0  0  0999 V2000
    5.1125   -4.8000    0.0000 C   0  0  0  0  0  0  0  0  0  0  0  0
    6.3500   -4.7750    0.0000 N   0  0  0  0  0  0  0  0  0  0  0  0
    5.7292   -5.1417    0.0000 C   0  0  0  0  0  0  0  0  0  0  0  0
    4.5125   -5.1542    0.0000 C   0  0  0  0  0  0  0  0  0  0  0  0
    5.1167   -4.0792    0.0000 N   0  0  0  0  0  0  0  0  0  0  0  0
    6.3375   -4.0667    0.0000 C   0  0  0  0  0  0  0  0  0  0  0  0
    3.8917   -4.8125    0.0000 C   0  0  0  0  0  0  0  0  0  0  0  0
    5.7167   -3.7167    0.0000 N   0  0  0  0  0  0  0  0  0  0  0  0
    3.2917   -5.1667    0.0000 C   0  0  0  0  0  0  0  0  0  0  0  0
    5.7542   -5.8667    0.0000 N   0  0  0  0  0  0  0  0  0  0  0  0
    6.9375   -3.7042    0.0000 N   0  0  0  0  0  0  0  0  0  0  0  0
    3.8875   -4.0667    0.0000 Cl  0  0  0  0  0  0  0  0  0  0  0  0
    4.5250   -5.8667    0.0000 C   0  0  0  0  0  0  0  0  0  0  0  0
    2.6542   -4.8375    0.0000 Cl  0  0  0  0  0  0  0  0  0  0  0  0
    3.9167   -6.2250    0.0000 C   0  0  0  0  0  0  0  0  0  0  0  0
    3.3042   -5.8792    0.0000 C   0  0  0  0  0  0  0  0  0  0  0  0
  2  3  1  0
  3  1  2  0
  4  1  1  0
  5  1  1  0
  6  8  1  0
  7  4  1  0
  8  5  2  0
  9  7  2  0
 10  3  1  0
 11  6  1  0
 12  7  1  0
 13  4  2  0
 14  9  1  0
 15 13  1  0
 16 15  2  0
  6  2  2  0
 16  9  1  0
M  END
> <chembl_id>
CHEMBL741

> <chembl_pref_name>
LAMOTRIGINE
