
     RDKit          2D

 33 37  0  0  0  0  0  0  0  0999 V2000
    3.3583    1.6542    0.0000 C   0  0  0  0  0  0  0  0  0  0  0  0
    4.0708    1.2417    0.0000 C   0  0  0  0  0  0  0  0  0  0  0  0
    5.5000   -1.2333    0.0000 N   0  0  0  0  0  0  0  0  0  0  0  0
    2.9458    0.9375    0.0000 C   0  0  0  0  0  0  0  0  0  0  0  0
    2.6417    2.0667    0.0000 C   0  0  0  0  0  0  0  0  0  0  0  0
    4.0708    0.4167    0.0000 O   0  0  0  0  0  0  0  0  0  0  0  0
    4.7875    0.0042    0.0000 C   0  0  0  0  0  0  0  0  0  0  0  0
    3.2792    0.1875    0.0000 S   0  0  0  0  0  0  0  0  0  0  0  0
    1.8917    1.7292    0.0000 S   0  0  0  0  0  0  0  0  0  0  0  0
    4.7875   -0.8208    0.0000 C   0  0  0  0  0  0  0  0  0  0  0  0
    4.7875    1.6542    0.0000 O   0  0  0  0  0  0  0  0  0  0  0  0
    5.5000    0.4167    0.0000 C   0  0  0  0  0  0  0  0  0  0  0  0
    2.5583    2.8875    0.0000 C   0  0  0  0  0  0  0  0  0  0  0  0
    2.1250    0.8542    0.0000 C   0  0  0  0  0  0  0  0  0  0  0  0
    2.6667   -0.3667    0.0000 C   0  0  0  0  0  0  0  0  0  0  0  0
    1.3375    2.3458    0.0000 C   0  0  0  0  0  0  0  0  0  0  0  0
    6.2167   -0.8208    0.0000 C   0  0  0  0  0  0  0  0  0  0  0  0
    1.7500    3.0583    0.0000 C   0  0  0  0  0  0  0  0  0  0  0  0
    1.9542    0.0458    0.0000 C   0  0  0  0  0  0  0  0  0  0  0  0
    3.7708    2.3667    0.0000 O   0  0  0  0  0  0  0  0  0  0  0  0
    6.2167    0.0042    0.0000 C   0  0  0  0  0  0  0  0  0  0  0  0
    5.5000   -2.0583    0.0000 C   0  0  0  0  0  0  0  0  0  0  0  0
    6.2167   -2.4708    0.0000 C   0  0  0  0  0  0  0  0  0  0  0  0
    6.9292   -4.5333    0.0000 C   0  0  0  0  0  0  0  0  0  0  0  0
    6.9292   -3.7083    0.0000 O   0  0  0  0  0  0  0  0  0  0  0  0
    6.2167   -3.2958    0.0000 C   0  0  0  0  0  0  0  0  0  0  0  0
    6.2167   -4.9458    0.0000 C   0  0  0  0  0  0  0  0  0  0  0  0
    7.6458   -4.9458    0.0000 C   0  0  0  0  0  0  0  0  0  0  0  0
    7.6458   -5.7708    0.0000 C   0  0  0  0  0  0  0  0  0  0  0  0
    6.2167   -5.7708    0.0000 C   0  0  0  0  0  0  0  0  0  0  0  0
    6.9292   -6.1833    0.0000 C   0  0  0  0  0  0  0  0  0  0  0  0
    5.0833   -0.2958    0.0000 C   0  0  0  0  0  0  0  0  0  0  0  0
    5.8792   -0.5083    0.0000 C   0  0  0  0  0  0  0  0  0  0  0  0
  3 10  1  0
  4  1  1  0
  5  1  1  0
  6  2  1  0
  7  6  1  6
  8  4  1  0
  9  5  1  0
 10  7  1  0
 11  2  2  0
 12  7  1  0
 13  5  2  0
 14  4  2  0
 15  8  1  0
 16  9  1  0
 17  3  1  0
 18 13  1  0
 19 14  1  0
 20  1  1  0
 21 12  1  0
 22  3  1  0
 23 22  1  0
 24 25  1  0
 25 26  1  0
 26 23  1  0
 27 24  1  0
 28 24  2  0
 29 28  1  0
 30 27  2  0
 31 30  1  0
 19 15  2  0
 18 16  2  0
 21 17  1  0
 31 29  2  0
 12 32  1  0
 32 33  1  0
 33  3  1  0
  2  1  1  0
M  CHG  1   3   1
M  END
> <chembl_id>
CHEMBL1194325

> <chembl_pref_name>
ACLIDINIUM
