
     RDKit          2D

 32 33  0  0  0  0  0  0  0  0999 V2000
    4.6623   -3.6680    0.0000 C   0  0  0  0  0  0  0  0  0  0  0  0
    4.6671   -2.8386    0.0000 O   0  0  0  0  0  0  0  0  0  0  0  0
    3.9395   -4.0706    0.0000 C   0  0  0  0  0  0  0  0  0  0  0  0
    5.3706   -4.0851    0.0000 O   0  0  0  0  0  0  0  0  0  0  0  0
    3.2265   -3.6535    0.0000 O   0  0  0  0  0  0  0  0  0  0  0  0
    3.9299   -4.9000    0.0000 C   0  0  0  0  0  0  0  0  0  0  0  0
   -2.6248   -2.7816    0.0000 C   0  0  0  0  0  0  0  0  0  0  0  0
   -2.6260   -3.6085    0.0000 C   0  0  0  0  0  0  0  0  0  0  0  0
   -1.9116   -4.0211    0.0000 C   0  0  0  0  0  0  0  0  0  0  0  0
   -1.1956   -3.6080    0.0000 C   0  0  0  0  0  0  0  0  0  0  0  0
   -1.9134   -2.3691    0.0000 C   0  0  0  0  0  0  0  0  0  0  0  0
   -1.1951   -2.7793    0.0000 C   0  0  0  0  0  0  0  0  0  0  0  0
   -0.5822   -2.2228    0.0000 C   0  0  0  0  0  0  0  0  0  0  0  0
   -0.9228   -1.4687    0.0000 C   0  0  0  0  0  0  0  0  0  0  0  0
   -1.7452   -1.5592    0.0000 N   0  0  0  0  0  0  0  0  0  0  0  0
   -0.5140   -0.7526    0.0000 C   0  0  0  0  0  0  0  0  0  0  0  0
    0.2424   -2.2314    0.0000 C   0  0  0  0  0  0  0  0  0  0  0  0
    0.6620   -1.5217    0.0000 C   0  0  0  0  0  0  0  0  0  0  0  0
    1.4864   -1.5303    0.0000 N   0  0  0  0  0  0  0  0  0  0  0  0
    1.9061   -0.8206    0.0000 C   0  0  0  0  0  0  0  0  0  0  0  0
    2.7306   -0.8292    0.0000 C   0  0  0  0  0  0  0  0  0  0  0  0
    3.1323   -1.5500    0.0000 C   0  0  0  0  0  0  0  0  0  0  0  0
    3.9561   -1.5590    0.0000 C   0  0  0  0  0  0  0  0  0  0  0  0
    4.3766   -0.8487    0.0000 C   0  0  0  0  0  0  0  0  0  0  0  0
    3.9675   -0.1279    0.0000 C   0  0  0  0  0  0  0  0  0  0  0  0
    3.1450   -0.1225    0.0000 C   0  0  0  0  0  0  0  0  0  0  0  0
    5.2012   -0.8561    0.0000 C   0  0  0  0  0  0  0  0  0  0  0  0
    5.6197   -0.1459    0.0000 C   0  0  0  0  0  0  0  0  0  0  0  0
    6.4443   -0.1534    0.0000 C   0  0  0  0  0  0  0  0  0  0  0  0
    6.8630    0.5569    0.0000 N   0  0  0  0  0  0  0  0  0  0  0  0
    6.8500   -0.8711    0.0000 O   0  0  0  0  0  0  0  0  0  0  0  0
    7.6875    0.5494    0.0000 O   0  0  0  0  0  0  0  0  0  0  0  0
  2  1  2  0
  3  1  1  0
  4  1  1  0
  5  3  1  0
  6  3  1  0
  8  9  1  0
 18 19  1  0
  7  8  2  0
 19 20  1  0
  9 10  2  0
 20 21  1  0
 10 12  1  0
 21 22  2  0
 12 13  1  0
 22 23  1  0
 13 14  2  0
 23 24  2  0
 14 15  1  0
 24 25  1  0
 15 11  1  0
 25 26  2  0
 26 21  1  0
 11  7  1  0
 24 27  1  0
 14 16  1  0
 27 28  2  0
 11 12  2  0
 28 29  1  0
 13 17  1  0
 29 30  1  0
 29 31  2  0
 17 18  1  0
 30 32  1  0
M  END
> <chembl_id>
CHEMBL3545368

> <chembl_pref_name>
PANOBINOSTAT LACTATE
