
     RDKit          2D

 29 29  0  0  0  0  0  0  0  0999 V2000
    0.9917   -2.0000    0.0000 O   0  0  0  0  0  0  0  0  0  0  0  0
   -0.7250   -0.8625    0.0000 N   0  0  0  0  0  0  0  0  0  0  0  0
    0.5000   -0.1500    0.0000 N   0  0  0  0  0  0  0  0  0  0  0  0
    0.5000   -0.8542    0.0000 C   0  0  0  0  0  0  0  0  0  0  0  0
   -0.1125   -1.2167    0.0000 C   0  0  0  0  0  0  0  0  0  0  0  0
   -0.7333   -0.1542    0.0000 C   0  0  0  0  0  0  0  0  0  0  0  0
   -1.3375   -1.2167    0.0000 C   0  0  0  0  0  0  0  0  0  0  0  0
    1.7292   -0.8542    0.0000 O   0  0  0  0  0  0  0  0  0  0  0  0
   -1.3458    0.1958    0.0000 C   0  0  0  0  0  0  0  0  0  0  0  0
    1.1167   -1.2125    0.0000 C   0  0  0  0  0  0  0  0  0  0  0  0
   -0.0750    0.2625    0.0000 C   0  0  0  0  0  0  0  0  0  0  0  0
    1.0667    0.2708    0.0000 C   0  0  0  0  0  0  0  0  0  0  0  0
   -1.3375   -1.9292    0.0000 C   0  0  0  0  0  0  0  0  0  0  0  0
   -1.9500   -0.8667    0.0000 C   0  0  0  0  0  0  0  0  0  0  0  0
    2.3417   -1.2042    0.0000 C   0  0  0  0  0  0  0  0  0  0  0  0
    2.9542   -0.8500    0.0000 C   0  0  0  0  0  0  0  0  0  0  0  0
   -1.3458    0.9083    0.0000 C   0  0  0  0  0  0  0  0  0  0  0  0
   -1.9500   -0.1542    0.0000 C   0  0  0  0  0  0  0  0  0  0  0  0
    0.1417    0.9375    0.0000 C   0  0  0  0  0  0  0  0  0  0  0  0
    0.8500    0.9375    0.0000 C   0  0  0  0  0  0  0  0  0  0  0  0
    2.9500   -0.1417    0.0000 C   0  0  0  0  0  0  0  0  0  0  0  0
    3.5667   -1.2042    0.0000 C   0  0  0  0  0  0  0  0  0  0  0  0
   -1.9500   -2.2875    0.0000 C   0  0  0  0  0  0  0  0  0  0  0  0
   -2.5625   -1.2250    0.0000 C   0  0  0  0  0  0  0  0  0  0  0  0
   -2.5708    0.1958    0.0000 C   0  0  0  0  0  0  0  0  0  0  0  0
   -1.9583    1.2583    0.0000 C   0  0  0  0  0  0  0  0  0  0  0  0
   -2.5625   -1.9292    0.0000 C   0  0  0  0  0  0  0  0  0  0  0  0
   -2.5708    0.9000    0.0000 C   0  0  0  0  0  0  0  0  0  0  0  0
    0.2417   -2.0000    0.0000 Cl  0  0  0  0  0  0  0  0  0  0  0  0
  3  4  1  0
  4  5  1  0
  5  2  1  0
  6  2  1  0
  7  2  1  0
  8 10  1  0
  9  6  1  0
 10  4  1  0
 11  3  1  0
 12  3  1  0
 13  7  1  0
 14  7  2  0
 15  8  1  0
 16 15  1  0
 17  9  2  0
 18  9  1  0
 19 11  1  0
 20 12  1  0
 21 16  1  0
 22 16  1  0
 23 13  2  0
 24 14  1  0
 25 18  2  0
 26 17  1  0
 27 24  2  0
 28 25  1  0
 27 23  1  0
 28 26  2  0
 19 20  1  0
M  END
> <chembl_id>
CHEMBL1200382

> <chembl_pref_name>
BEPRIDIL HYDROCHLORIDE
