
     RDKit          2D

 31 33  0  0  0  0  0  0  0  0999 V2000
    0.0089   -1.7089    0.0000 Na  0  0  0  0  0 15  0  0  0  0  0  0
   -0.5801    0.9389    0.0000 C   0  0  0  0  0  0  0  0  0  0  0  0
    0.1344    0.5264    0.0000 C   0  0  0  0  0  0  0  0  0  0  0  0
   -1.2946    0.5264    0.0000 N   0  0  0  0  0  0  0  0  0  0  0  0
    0.1344   -0.2986    0.0000 C   0  0  0  0  0  0  0  0  0  0  0  0
   -0.5801   -0.7111    0.0000 C   0  0  0  0  0  0  0  0  0  0  0  0
   -1.2946   -0.2986    0.0000 C   0  0  0  0  0  0  0  0  0  0  0  0
   -2.0090   -0.7111    0.0000 C   0  0  0  0  0  0  0  0  0  0  0  0
   -2.7235   -0.2986    0.0000 N   0  0  0  0  0  0  0  0  0  0  0  0
   -2.0090   -1.5361    0.0000 O   0  0  0  0  0  0  0  0  0  0  0  0
   -0.5801   -1.5361    0.0000 O   0  0  0  0  0  0  0  0  0  0  0  0
    0.8489   -0.7111    0.0000 O   0  0  0  0  0  0  0  0  0  0  0  0
    0.8489    0.9389    0.0000 C   0  0  0  0  0  0  0  0  0  0  0  0
    1.5633    0.5264    0.0000 N   0  0  0  0  0  0  0  0  0  0  0  0
    0.8489    1.7639    0.0000 O   0  0  0  0  0  0  0  0  0  0  0  0
   -2.7235    0.5264    0.0000 C   0  0  0  0  0  0  0  0  0  0  0  0
   -3.5081    0.7814    0.0000 O   0  0  0  0  0  0  0  0  0  0  0  0
   -2.0090    0.9389    0.0000 C   0  0  0  0  0  0  0  0  0  0  0  0
    2.9923   -0.2986    0.0000 C   0  0  0  0  0  0  0  0  0  0  0  0
    2.9923    0.5264    0.0000 C   0  0  0  0  0  0  0  0  0  0  0  0
    2.2778   -0.7111    0.0000 F   0  0  0  0  0  0  0  0  0  0  0  0
    3.7067   -0.7111    0.0000 C   0  0  0  0  0  0  0  0  0  0  0  0
    4.4212   -0.2986    0.0000 C   0  0  0  0  0  0  0  0  0  0  0  0
    5.1357   -0.7111    0.0000 F   0  0  0  0  0  0  0  0  0  0  0  0
    4.4212    0.5264    0.0000 C   0  0  0  0  0  0  0  0  0  0  0  0
    3.7067    0.9389    0.0000 C   0  0  0  0  0  0  0  0  0  0  0  0
    2.2778    0.9389    0.0000 C   0  0  0  0  0  0  0  0  0  0  0  0
   -3.9930    0.1139    0.0000 C   0  0  0  0  0  0  0  0  0  0  0  0
   -3.5081   -0.5535    0.0000 C   0  0  0  0  0  0  0  0  0  0  0  0
   -2.8097    1.3469    0.0000 H   0  0  0  0  0  0  0  0  0  0  0  0
   -3.7631   -1.3381    0.0000 C   0  0  0  0  0  0  0  0  0  0  0  0
  2  3  2  0
  3  5  1  0
  3 13  1  0
  4  2  1  0
  4  7  1  0
  4 18  1  0
  5 12  2  0
  6  5  1  0
  6 11  1  0
  7  6  2  0
  7  8  1  0
  8 10  2  0
  9  8  1  0
  9 29  1  0
 13 15  2  0
 14 13  1  0
 16 17  1  0
 16  9  1  0
 16 30  1  1
 16 18  1  0
 19 20  2  0
 20 26  1  0
 20 27  1  0
 21 19  1  0
 22 23  2  0
 22 19  1  0
 24 23  1  0
 25 23  1  0
 26 25  2  0
 27 14  1  0
 28 29  1  0
 28 17  1  0
 29 31  1  1
M  CHG  2   1   1  11  -1
M  END
> <chembl_id>
CHEMBL3137330

> <chembl_pref_name>
CABOTEGRAVIR SODIUM
