
     RDKit          2D

 20 19  0  0  0  0  0  0  0  0999 V2000
    1.5917    0.2333    0.0000 C   0  0  0  0  0  0  0  0  0  0  0  0
    2.2417   -0.8125    0.0000 N   0  0  0  0  0  0  0  0  0  0  0  0
    0.9917   -0.1417    0.0000 C   0  0  0  0  0  0  0  0  0  0  0  0
    2.2167   -0.1042    0.0000 C   0  0  0  0  0  0  0  0  0  0  0  0
    0.3792    0.2000    0.0000 C   0  0  0  0  0  0  0  0  0  0  0  0
    0.9917   -0.8500    0.0000 C   0  0  0  0  0  0  0  0  0  0  0  0
    2.8250    0.2750    0.0000 C   0  0  0  0  0  0  0  0  0  0  0  0
   -0.2333   -0.1667    0.0000 C   0  0  0  0  0  0  0  0  0  0  0  0
    0.3917   -1.2167    0.0000 C   0  0  0  0  0  0  0  0  0  0  0  0
   -0.2458   -0.8792    0.0000 C   0  0  0  0  0  0  0  0  0  0  0  0
    3.0125   -2.4542    0.0000 C   0  0  0  0  0  0  0  0  0  0  0  0
   -0.0583   -2.8042    0.0000 C   0  0  0  0  0  0  0  0  0  0  0  0
    3.0125   -1.7417    0.0000 O   0  0  0  0  0  0  0  0  0  0  0  0
   -0.0583   -3.5167    0.0000 O   0  0  0  0  0  0  0  0  0  0  0  0
   -0.6708   -2.4542    0.0000 O   0  0  0  0  0  0  0  0  0  0  0  0
    3.6250   -2.8042    0.0000 O   0  0  0  0  0  0  0  0  0  0  0  0
    0.5542   -2.4542    0.0000 C   0  0  0  0  0  0  0  0  0  0  0  0
    2.4000   -2.8042    0.0000 C   0  0  0  0  0  0  0  0  0  0  0  0
    1.7792   -2.4542    0.0000 C   0  0  0  0  0  0  0  0  0  0  0  0
    1.1667   -2.8042    0.0000 C   0  0  0  0  0  0  0  0  0  0  0  0
  4  2  1  6
  3  1  1  0
  4  1  1  0
  5  3  2  0
  6  3  1  0
  7  4  1  0
  8  5  1  0
  9  6  2  0
 10  9  1  0
 10  8  2  0
 12 17  1  0
 13 11  2  0
 14 12  2  0
 15 12  1  0
 16 11  1  0
 17 20  1  0
 18 11  1  0
 19 18  1  0
 20 19  1  0
M  END
> <chembl_id>
CHEMBL1200782

> <chembl_pref_name>
DEXTROAMPHETAMINE ADIPATE
