
     RDKit          2D

 30 31  0  0  0  0  0  0  0  0999 V2000
    3.8292   -2.3750    0.0000 Na  0  0  0  0  0 15  0  0  0  0  0  0
    0.3042   -0.0500    0.0000 C   0  0  0  0  0  0  0  0  0  0  0  0
   -0.4208   -0.1542    0.0000 C   0  0  0  0  0  0  0  0  0  0  0  0
    3.4917   -0.2667    0.0000 S   0  0  0  0  0  0  0  0  0  0  0  0
   -3.6000    0.0500    0.0000 S   0  0  0  0  0  0  0  0  0  0  0  0
    0.6375    0.6208    0.0000 N   0  0  0  0  0  0  0  0  0  0  0  0
   -0.7583   -0.8375    0.0000 N   0  0  0  0  0  0  0  0  0  0  0  0
   -0.9625    0.3500    0.0000 C   0  0  0  0  0  0  0  0  0  0  0  0
    0.8375   -0.5667    0.0000 C   0  0  0  0  0  0  0  0  0  0  0  0
    1.5000   -0.2167    0.0000 C   0  0  0  0  0  0  0  0  0  0  0  0
   -1.6125    0.0083    0.0000 C   0  0  0  0  0  0  0  0  0  0  0  0
    1.3792    0.5125    0.0000 C   0  0  0  0  0  0  0  0  0  0  0  0
   -1.4958   -0.7292    0.0000 C   0  0  0  0  0  0  0  0  0  0  0  0
    2.7875   -0.0125    0.0000 C   0  0  0  0  0  0  0  0  0  0  0  0
   -2.9083   -0.2000    0.0000 C   0  0  0  0  0  0  0  0  0  0  0  0
    2.2042   -0.4792    0.0000 C   0  0  0  0  0  0  0  0  0  0  0  0
   -2.3250    0.2625    0.0000 C   0  0  0  0  0  0  0  0  0  0  0  0
    4.1375   -0.6500    0.0000 O   0  0  0  0  0  0  0  0  0  0  0  0
   -4.2500    0.4333    0.0000 O   0  0  0  0  0  0  0  0  0  0  0  0
    3.9167    0.3250    0.0000 O   0  0  0  0  0  0  0  0  0  0  0  0
   -4.0458   -0.5417    0.0000 O   0  0  0  0  0  0  0  0  0  0  0  0
   -3.2833    0.7333    0.0000 O   0  0  0  0  0  0  0  0  0  0  0  0
    3.1542   -0.9417    0.0000 O   0  0  0  0  0  0  0  0  0  0  0  0
   -0.8458    1.0833    0.0000 O   0  0  0  0  0  0  0  0  0  0  0  0
    0.7250   -1.3042    0.0000 O   0  0  0  0  0  0  0  0  0  0  0  0
    1.9542    0.9833    0.0000 C   0  0  0  0  0  0  0  0  0  0  0  0
   -2.0833   -1.2000    0.0000 C   0  0  0  0  0  0  0  0  0  0  0  0
    2.6542    0.7208    0.0000 C   0  0  0  0  0  0  0  0  0  0  0  0
   -2.7833   -0.9375    0.0000 C   0  0  0  0  0  0  0  0  0  0  0  0
   -3.6125    2.3125    0.0000 Na  0  0  0  0  0 15  0  0  0  0  0  0
  3  2  2  0
  4 14  1  0
  5 15  1  0
  6  2  1  0
  7  3  1  0
  8  3  1  0
  9  2  1  0
 10  9  1  0
 11  8  1  0
 12  6  1  0
 13  7  1  0
 14 16  2  0
 15 17  2  0
 16 10  1  0
 17 11  1  0
 18  4  1  0
 19  5  1  0
 20  4  2  0
 21  5  2  0
 22  5  2  0
 23  4  2  0
 24  8  2  0
 25  9  2  0
 26 12  1  0
 27 13  1  0
 28 26  2  0
 29 27  2  0
 10 12  2  0
 11 13  2  0
 14 28  1  0
 15 29  1  0
M  CHG  4   1   1  18  -1  19  -1  30   1
M  END
> <chembl_id>
CHEMBL2105023

> <chembl_pref_name>
INDIGOTINDISULFONATE SODIUM
