
     RDKit          2D

  3  0  0  0  0  0  0  0  0  0999 V2000
    0.5250   -2.5000    0.0000 Ca  0  0  0  0  0 15  0  0  0  0  0  0
   -0.5708   -2.5000    0.0000 O   0  0  0  0  0  0  0  0  0  0  0  0
    2.0542   -2.5000    0.0000 O   0  0  0  0  0  0  0  0  0  0  0  0
M  CHG  3   1   2   2  -1   3  -1
M  END
> <chembl_id>
CHEMBL2106388

> <chembl_pref_name>
CALCIUM HYDROXIDE
