
     RDKit          2D

 21 21  0  0  0  0  0  0  0  0999 V2000
   -2.9000    0.0208    0.0000 C   0  0  0  0  0  0  0  0  0  0  0  0
   -2.1458    0.4500    0.0000 C   0  0  0  0  0  0  0  0  0  0  0  0
   -2.8958   -0.8167    0.0000 C   0  0  0  0  0  0  0  0  0  0  0  0
   -3.6125    0.4458    0.0000 C   0  0  0  0  0  0  0  0  0  0  0  0
   -1.4458    0.0125    0.0000 C   0  0  0  0  0  0  0  0  0  0  0  0
    0.7167    0.4208    0.0000 C   0  0  0  0  0  0  0  0  0  0  0  0
   -0.7208    0.4250    0.0000 C   0  0  0  0  0  0  0  0  0  0  0  0
    2.1292    0.3750    0.0000 C   0  0  0  0  0  0  0  0  0  0  0  0
   -0.0250   -0.0042    0.0000 C   0  0  0  0  0  0  0  0  0  0  0  0
    1.4167   -0.0417    0.0000 C   0  0  0  0  0  0  0  0  0  0  0  0
    2.8542   -0.0542    0.0000 C   0  0  0  0  0  0  0  0  0  0  0  0
   -3.6333   -1.2292    0.0000 C   0  0  0  0  0  0  0  0  0  0  0  0
   -4.3333    0.0208    0.0000 C   0  0  0  0  0  0  0  0  0  0  0  0
    4.2792   -0.0917    0.0000 O   0  0  0  0  0  0  0  0  0  0  0  0
   -2.1833   -1.2542    0.0000 C   0  0  0  0  0  0  0  0  0  0  0  0
   -3.2833    1.2083    0.0000 C   0  0  0  0  0  0  0  0  0  0  0  0
   -3.8625    1.2250    0.0000 C   0  0  0  0  0  0  0  0  0  0  0  0
   -4.3458   -0.8167    0.0000 C   0  0  0  0  0  0  0  0  0  0  0  0
    3.5792    0.3458    0.0000 C   0  0  0  0  0  0  0  0  0  0  0  0
   -0.7208    1.2583    0.0000 C   0  0  0  0  0  0  0  0  0  0  0  0
    2.1625    1.2000    0.0000 C   0  0  0  0  0  0  0  0  0  0  0  0
  2  1  1  0
  3  1  2  0
  4  1  1  0
  5  2  2  0
  6  9  1  0
  7  5  1  0
  8 10  1  0
  9  7  2  0
 10  6  2  0
 11  8  2  0
 12  3  1  0
 13  4  1  0
 14 19  1  0
 15  3  1  0
 16  4  1  0
 17  4  1  0
 18 13  1  0
 19 11  1  0
 20  7  1  0
 21  8  1  0
 12 18  1  0
M  END
> <chembl_id>
CHEMBL986

> <chembl_pref_name>
RETINOL
