
     RDKit          2D

 30 32  0  0  0  0  0  0  0  0999 V2000
    4.7074   -5.6247    0.0000 C   0  0  0  0  0  0  0  0  0  0  0  0
    4.7074   -7.2747    0.0000 O   0  0  0  0  0  0  0  0  0  0  0  0
    3.8824   -6.4497    0.0000 O   0  0  0  0  0  0  0  0  0  0  0  0
    5.5324   -6.4497    0.0000 O   0  0  0  0  0  0  0  0  0  0  0  0
    4.7074   -6.4497    0.0000 S   0  0  0  0  0  0  0  0  0  0  0  0
    5.8219   -2.7648    0.0000 C   0  0  0  0  0  0  0  0  0  0  0  0
    6.8998   -3.5783    0.0000 C   0  0  0  0  0  0  0  0  0  0  0  0
    6.3803   -3.1416    0.0000 C   0  0  0  0  0  0  0  0  0  0  0  0
    5.3929   -3.1416    0.0000 C   0  0  0  0  0  0  0  0  0  0  0  0
    5.2489   -2.3170    0.0000 N   0  0  0  0  0  0  0  0  0  0  0  0
    6.7619   -2.7494    0.0000 C   0  0  0  0  0  0  0  0  0  0  0  0
    4.8652   -3.8657    0.0000 C   0  0  0  0  0  0  0  0  0  0  0  0
    5.4930   -3.4853    0.0000 C   0  0  0  0  0  0  0  0  0  0  0  0
    5.1616   -1.3245    0.0000 C   0  0  0  0  0  0  0  0  0  0  0  0
    4.5642   -3.1416    0.0000 H   0  0  0  0  0  0  0  0  0  0  0  0
    6.2240   -2.0473    0.0000 H   0  0  0  0  0  0  0  0  0  0  0  0
    7.1086   -4.3683    0.0000 O   0  0  0  0  0  0  0  0  0  0  0  0
    7.8199   -4.7786    0.0000 C   0  0  0  0  0  0  0  0  0  0  0  0
    8.5363   -4.3700    0.0000 C   0  0  0  0  0  0  0  0  0  0  0  0
    7.8199   -5.6036    0.0000 C   0  0  0  0  0  0  0  0  0  0  0  0
    7.1054   -6.0161    0.0000 C   0  0  0  0  0  0  0  0  0  0  0  0
    7.1054   -6.8411    0.0000 C   0  0  0  0  0  0  0  0  0  0  0  0
    7.8199   -7.2536    0.0000 C   0  0  0  0  0  0  0  0  0  0  0  0
    8.5344   -6.8411    0.0000 C   0  0  0  0  0  0  0  0  0  0  0  0
    8.5344   -6.0161    0.0000 C   0  0  0  0  0  0  0  0  0  0  0  0
    9.2486   -4.7863    0.0000 C   0  0  0  0  0  0  0  0  0  0  0  0
    9.9652   -4.3775    0.0000 C   0  0  0  0  0  0  0  0  0  0  0  0
    9.9696   -3.5525    0.0000 C   0  0  0  0  0  0  0  0  0  0  0  0
    9.2573   -3.1363    0.0000 C   0  0  0  0  0  0  0  0  0  0  0  0
    8.5406   -3.5450    0.0000 C   0  0  0  0  0  0  0  0  0  0  0  0
  5  1  1  0
  5  2  1  0
  5  3  2  0
  5  4  2  0
  7  8  1  0
  9 15  1  1
  8  9  1  0
  6 16  1  6
  9 10  1  0
  7 17  1  6
 10  6  1  0
 17 18  1  0
  6 11  1  0
 18 19  1  0
 11  7  1  0
  9 12  1  0
  6 13  1  0
 12 13  1  0
 10 14  1  0
 18 20  1  0
 20 21  1  0
 20 25  2  0
 21 22  2  0
 22 23  1  0
 23 24  2  0
 24 25  1  0
 19 26  1  0
 19 30  2  0
 26 27  2  0
 27 28  1  0
 28 29  2  0
 29 30  1  0
M  END
> <chembl_id>
CHEMBL1200383

> <chembl_pref_name>
BENZTROPINE MESYLATE
