
     RDKit          2D

 27 29  0  0  0  0  0  0  0  0999 V2000
    9.1667   -7.8042    0.0000 Cl  0  0  0  0  0  0  0  0  0  0  0  0
    4.1792   -4.9875    0.0000 N   0  0  0  0  0  0  0  0  0  0  0  0
    5.6042   -4.9875    0.0000 C   0  0  0  0  0  0  0  0  0  0  0  0
    6.8750   -5.4000    0.0000 C   0  0  0  0  0  0  0  0  0  0  0  0
    3.4625   -4.5750    0.0000 C   0  0  0  0  0  0  0  0  0  0  0  0
    5.6042   -5.8125    0.0000 C   0  0  0  0  0  0  0  0  0  0  0  0
    6.3917   -6.0667    0.0000 S   0  0  0  0  0  0  0  0  0  0  0  0
    6.3917   -4.7292    0.0000 C   0  0  0  0  0  0  0  0  0  0  0  0
    3.4625   -3.7500    0.0000 C   0  0  0  0  0  0  0  0  0  0  0  0
    2.7500   -4.9875    0.0000 C   0  0  0  0  0  0  0  0  0  0  0  0
    4.8917   -4.5750    0.0000 C   0  0  0  0  0  0  0  0  0  0  0  0
    4.1792   -3.3375    0.0000 C   0  0  0  0  0  0  0  0  0  0  0  0
    7.7000   -5.4000    0.0000 O   0  0  0  0  0  0  0  0  0  0  0  0
    4.5917   -2.6167    0.0000 C   0  0  0  0  0  0  0  0  0  0  0  0
    5.0042   -3.3375    0.0000 C   0  0  0  0  0  0  0  0  0  0  0  0
    4.8917   -6.2250    0.0000 C   0  0  0  0  0  0  0  0  0  0  0  0
    4.1792   -5.8125    0.0000 C   0  0  0  0  0  0  0  0  0  0  0  0
    8.1125   -6.1125    0.0000 C   0  0  0  0  0  0  0  0  0  0  0  0
    2.0292   -4.5750    0.0000 C   0  0  0  0  0  0  0  0  0  0  0  0
    2.7500   -3.3375    0.0000 O   0  0  0  0  0  0  0  0  0  0  0  0
    7.7000   -6.8250    0.0000 O   0  0  0  0  0  0  0  0  0  0  0  0
    2.0292   -3.7500    0.0000 F   0  0  0  0  0  0  0  0  0  0  0  0
    2.7500   -5.8125    0.0000 C   0  0  0  0  0  0  0  0  0  0  0  0
    8.9375   -6.1125    0.0000 C   0  0  0  0  0  0  0  0  0  0  0  0
    1.3167   -4.9875    0.0000 C   0  0  0  0  0  0  0  0  0  0  0  0
    2.0292   -6.2250    0.0000 C   0  0  0  0  0  0  0  0  0  0  0  0
    1.3167   -5.8125    0.0000 C   0  0  0  0  0  0  0  0  0  0  0  0
  3 11  1  0
  4  8  2  0
  5  2  1  0
  6 16  1  0
  7  6  1  0
  8  3  1  0
  9  5  1  0
 10  5  1  0
 11  2  1  0
 12  9  1  0
 13  4  1  0
 14 12  1  0
 15 12  1  0
 16 17  1  0
 17  2  1  0
 18 13  1  0
 19 10  1  0
 20  9  2  0
 21 18  2  0
 22 19  1  0
 23 10  2  0
 24 18  1  0
 25 19  2  0
 26 23  1  0
 27 26  2  0
  3  6  2  0
  7  4  1  0
 15 14  1  0
 25 27  1  0
M  END
> <chembl_id>
CHEMBL1201773

> <chembl_pref_name>
PRASUGREL HYDROCHLORIDE
