
     RDKit          2D

 15 16  0  0  0  0  0  0  0  0999 V2000
    3.5492   -0.5299    0.0000 S   0  0  0  0  0  0  0  0  0  0  0  0
    7.9062    0.1375    0.0000 F   0  0  0  0  0  0  0  0  0  0  0  0
    6.7792    0.4395    0.0000 F   0  0  0  0  0  0  0  0  0  0  0  0
    7.6042   -0.9895    0.0000 F   0  0  0  0  0  0  0  0  0  0  0  0
    6.4772   -0.6875    0.0000 O   0  0  0  0  0  0  0  0  0  0  0  0
    3.5492    0.8049    0.0000 N   0  0  0  0  0  0  0  0  0  0  0  0
    2.2393    0.1375    0.0000 N   0  0  0  0  0  0  0  0  0  0  0  0
    4.3338   -0.2750    0.0000 C   0  0  0  0  0  0  0  0  0  0  0  0
    4.3338    0.5500    0.0000 C   0  0  0  0  0  0  0  0  0  0  0  0
    5.7628   -0.2750    0.0000 C   0  0  0  0  0  0  0  0  0  0  0  0
    5.0483   -0.6875    0.0000 C   0  0  0  0  0  0  0  0  0  0  0  0
    3.0643    0.1375    0.0000 C   0  0  0  0  0  0  0  0  0  0  0  0
    5.0483    0.9625    0.0000 C   0  0  0  0  0  0  0  0  0  0  0  0
    7.1917   -0.2750    0.0000 C   0  0  0  0  0  0  0  0  0  0  0  0
    5.7628    0.5500    0.0000 C   0  0  0  0  0  0  0  0  0  0  0  0
  1  8  1  0
  1 12  1  0
  2 14  1  0
  3 14  1  0
  4 14  1  0
  5 10  1  0
  5 14  1  0
  6  9  1  0
  6 12  2  0
  7 12  1  0
  8  9  1  0
  8 11  2  0
  9 13  2  0
 10 11  1  0
 10 15  2  0
 13 15  1  0
M  END
> <chembl_id>
CHEMBL744

> <chembl_pref_name>
RILUZOLE
