
     RDKit          2D

 37 39  0  0  0  0  0  0  0  0999 V2000
   -4.5710   -0.7655    0.0000 C   0  0  0  0  0  0  0  0  0  0  0  0
   -5.1230   -0.1524    0.0000 N   0  0  0  0  0  0  0  0  0  0  0  0
   -4.7105    0.5620    0.0000 C   0  0  0  0  0  0  0  0  0  0  0  0
   -3.9035    0.3905    0.0000 C   0  0  0  0  0  0  0  0  0  0  0  0
   -3.8173   -0.4300    0.0000 C   0  0  0  0  0  0  0  0  0  0  0  0
   -3.1028   -0.8425    0.0000 C   0  0  0  0  0  0  0  0  0  0  0  0
   -2.3884   -0.4300    0.0000 C   0  0  0  0  0  0  0  0  0  0  0  0
   -1.6739   -0.8425    0.0000 N   0  0  0  0  0  0  0  0  0  0  0  0
   -2.3883    0.3950    0.0000 C   0  0  0  0  0  0  0  0  0  0  0  0
   -0.2450   -0.8426    0.0000 C   0  0  0  0  0  0  0  0  0  0  0  0
   -0.9594   -0.4301    0.0000 C   0  0  0  0  0  0  0  0  0  0  0  0
    0.5087   -0.5070    0.0000 N   0  0  0  0  0  0  0  0  0  0  0  0
    0.6803    0.2999    0.0000 C   0  0  0  0  0  0  0  0  0  0  0  0
    0.0672    0.8520    0.0000 O   0  0  0  0  0  0  0  0  0  0  0  0
   -0.9594    0.3949    0.0000 O   0  0  0  0  0  0  0  0  0  0  0  0
    1.6365    1.3618    0.0000 N   0  0  0  0  0  0  0  0  0  0  0  0
    1.4649    0.5548    0.0000 C   0  0  0  0  0  0  0  0  0  0  0  0
    2.4211    1.6167    0.0000 C   0  0  0  0  0  0  0  0  0  0  0  0
    3.0342    1.0647    0.0000 O   0  0  0  0  0  0  0  0  0  0  0  0
    2.6911   -0.5493    0.0000 C   0  0  0  0  0  0  0  0  0  0  0  0
    2.0780    0.0028    0.0000 C   0  0  0  0  0  0  0  0  0  0  0  0
    1.5259   -0.6103    0.0000 C   0  0  0  0  0  0  0  0  0  0  0  0
    2.5926    2.4237    0.0000 C   0  0  0  0  0  0  0  0  0  0  0  0
    2.7642    3.2307    0.0000 F   0  0  0  0  0  0  0  0  0  0  0  0
   -0.1587   -1.6631    0.0000 C   0  0  0  0  0  0  0  0  0  0  0  0
    0.6482   -1.8346    0.0000 C   0  0  0  0  0  0  0  0  0  0  0  0
    1.0607   -1.1202    0.0000 C   0  0  0  0  0  0  0  0  0  0  0  0
   -4.7425   -1.5725    0.0000 O   0  0  0  0  0  0  0  0  0  0  0  0
    3.3996    2.2521    0.0000 F   0  0  0  0  0  0  0  0  0  0  0  0
    1.7857    2.5952    0.0000 F   0  0  0  0  0  0  0  0  0  0  0  0
    2.6300    0.6159    0.0000 C   0  0  0  0  0  0  0  0  0  0  0  0
    0.0962   -2.4477    0.0000 C   0  0  0  0  0  0  0  0  0  0  0  0
   -0.5755   -2.9268    0.0000 C   0  0  0  0  0  0  0  0  0  0  0  0
    0.5149   -3.1586    0.0000 C   0  0  0  0  0  0  0  0  0  0  0  0
   -2.3883    1.2200    0.0000 N   0  0  0  0  0  0  0  0  0  0  0  0
   -0.9657   -1.8346    0.0000 H   0  0  0  0  0  0  0  0  0  0  0  0
    1.3157   -2.3196    0.0000 H   0  0  0  0  0  0  0  0  0  0  0  0
  1  2  1  0
  2  3  1  0
  3  4  1  0
  5  4  1  0
  5  1  1  0
  7  6  1  0
  7  8  1  1
  5  6  1  1
 10 11  1  1
  7  9  1  0
  8 11  1  0
 12 13  1  0
 13 14  2  0
 10 12  1  0
 11 15  2  0
 17 16  1  1
 17 13  1  0
 18 19  2  0
 20 21  1  0
 16 18  1  0
 17 21  1  0
 21 22  1  0
 23 24  1  0
 18 23  1  0
 25 26  1  0
 26 27  1  0
 10 25  1  0
 12 27  1  0
  1 28  2  0
 23 29  1  0
 23 30  1  0
 21 31  1  0
 25 32  1  0
 26 32  1  0
 32 33  1  0
 32 34  1  0
  9 35  3  0
 25 36  1  1
 26 37  1  1
M  END
> <chembl_id>
CHEMBL4802135

> <chembl_pref_name>
NIRMATRELVIR
