
     RDKit          2D

 18 19  0  0  0  0  0  0  0  0999 V2000
    6.5250   -3.6917    0.0000 C   0  0  0  0  0  0  0  0  0  0  0  0
    6.8625   -4.3208    0.0000 C   0  0  0  0  0  0  0  0  0  0  0  0
    5.3042   -2.9917    0.0000 N   0  0  0  0  0  0  0  0  0  0  0  0
    6.5250   -2.9875    0.0000 C   0  0  0  0  0  0  0  0  0  0  0  0
    5.9250   -4.0542    0.0000 C   0  0  0  0  0  0  0  0  0  0  0  0
    7.1417   -3.3417    0.0000 C   0  0  0  0  0  0  0  0  0  0  0  0
    7.5792   -4.3417    0.0000 O   0  0  0  0  0  0  0  0  0  0  0  0
    5.9167   -2.6292    0.0000 C   0  0  0  0  0  0  0  0  0  0  0  0
    5.3042   -3.7042    0.0000 C   0  0  0  0  0  0  0  0  0  0  0  0
    6.4917   -4.9250    0.0000 O   0  0  0  0  0  0  0  0  0  0  0  0
    4.6792   -2.6375    0.0000 C   0  0  0  0  0  0  0  0  0  0  0  0
    7.1500   -2.6292    0.0000 C   0  0  0  0  0  0  0  0  0  0  0  0
    7.7542   -3.6917    0.0000 C   0  0  0  0  0  0  0  0  0  0  0  0
    6.8292   -5.5417    0.0000 C   0  0  0  0  0  0  0  0  0  0  0  0
    6.4625   -6.1500    0.0000 C   0  0  0  0  0  0  0  0  0  0  0  0
    7.7625   -2.2750    0.0000 C   0  0  0  0  0  0  0  0  0  0  0  0
    8.3792   -3.3417    0.0000 C   0  0  0  0  0  0  0  0  0  0  0  0
    8.3792   -2.6292    0.0000 C   0  0  0  0  0  0  0  0  0  0  0  0
  2  1  1  0
  3  9  1  0
  4  1  1  0
  5  1  1  0
  6  1  1  0
  7  2  2  0
  8  4  1  0
  9  5  1  0
 10  2  1  0
 11  3  1  0
 12  6  1  0
 13  6  2  0
 14 10  1  0
 15 14  1  0
 16 12  2  0
 17 13  1  0
 18 16  1  0
  3  8  1  0
 18 17  2  0
M  END
> <chembl_id>
CHEMBL607

> <chembl_pref_name>
MEPERIDINE
