
     RDKit          2D

 28 30  0  0  0  0  0  0  0  0999 V2000
   -4.5147    1.2012    0.0000 C   0  0  0  0  0  0  0  0  0  0  0  0
   -5.2292    0.7887    0.0000 C   0  0  0  0  0  0  0  0  0  0  0  0
   -5.2292   -0.0363    0.0000 C   0  0  0  0  0  0  0  0  0  0  0  0
   -4.5147   -0.4488    0.0000 C   0  0  0  0  0  0  0  0  0  0  0  0
   -3.8003   -0.0363    0.0000 C   0  0  0  0  0  0  0  0  0  0  0  0
   -3.8003    0.7887    0.0000 C   0  0  0  0  0  0  0  0  0  0  0  0
   -3.0858   -0.4488    0.0000 C   0  0  0  0  0  0  0  0  0  0  0  0
   -2.3713   -0.0363    0.0000 C   0  0  0  0  0  0  0  0  0  0  0  0
   -2.3713    0.7887    0.0000 N   0  0  0  0  0  0  0  0  0  0  0  0
   -1.6569   -0.4488    0.0000 C   0  0  0  0  0  0  0  0  0  0  0  0
   -0.9424   -0.0363    0.0000 C   0  0  0  0  0  0  0  0  0  0  0  0
   -0.9424    0.7887    0.0000 O   0  0  0  0  0  0  0  0  0  0  0  0
   -0.2279   -0.4488    0.0000 N   0  0  0  0  0  0  0  0  0  0  0  0
    0.4866   -0.0363    0.0000 C   0  0  0  0  0  0  0  0  0  0  0  0
   -0.2279   -1.2738    0.0000 C   0  0  0  0  0  0  0  0  0  0  0  0
    0.4866   -1.6864    0.0000 C   0  0  0  0  0  0  0  0  0  0  0  0
    1.2010   -1.2738    0.0000 N   0  0  0  0  0  0  0  0  0  0  0  0
    1.2010   -0.4488    0.0000 C   0  0  0  0  0  0  0  0  0  0  0  0
    1.9856   -1.5288    0.0000 C   0  0  0  0  0  0  0  0  0  0  0  0
    2.4705   -0.8614    0.0000 N   0  0  0  0  0  0  0  0  0  0  0  0
    1.9857   -0.1939    0.0000 N   0  0  0  0  0  0  0  0  0  0  0  0
   -4.5147    2.0262    0.0000 F   0  0  0  0  0  0  0  0  0  0  0  0
   -5.9437    1.2012    0.0000 F   0  0  0  0  0  0  0  0  0  0  0  0
   -4.5147   -1.2738    0.0000 F   0  0  0  0  0  0  0  0  0  0  0  0
    2.2405   -2.3134    0.0000 C   0  0  0  0  0  0  0  0  0  0  0  0
    1.4559   -2.5683    0.0000 F   0  0  0  0  0  0  0  0  0  0  0  0
    3.0252   -2.0585    0.0000 F   0  0  0  0  0  0  0  0  0  0  0  0
    2.4955   -3.0980    0.0000 F   0  0  0  0  0  0  0  0  0  0  0  0
  1  2  1  0
  2  3  2  0
  3  4  1  0
  4  5  2  0
  5  6  1  0
  1  6  2  0
  7  8  1  0
  8  9  1  1
  5  7  1  0
 10 11  1  0
 11 12  2  0
  8 10  1  0
 13 14  1  0
 11 13  1  0
 15 16  1  0
 16 17  1  0
 17 18  1  0
 14 18  1  0
 13 15  1  0
 19 20  2  0
 20 21  1  0
 17 19  1  0
 18 21  2  0
  1 22  1  0
  2 23  1  0
  4 24  1  0
 19 25  1  0
 25 26  1  0
 25 27  1  0
 25 28  1  0
M  END
> <chembl_id>
CHEMBL1422

> <chembl_pref_name>
SITAGLIPTIN
