
     RDKit          2D

 38 39  0  0  0  0  0  0  0  0999 V2000
    5.7667   -0.8917    0.0000 S   0  0  0  0  0  0  0  0  0  0  0  0
    6.1167   -0.2750    0.0000 O   0  0  0  0  0  0  0  0  0  0  0  0
    5.4042   -0.2750    0.0000 O   0  0  0  0  0  0  0  0  0  0  0  0
    5.1542   -1.2500    0.0000 C   0  0  0  0  0  0  0  0  0  0  0  0
    6.3792   -1.2458    0.0000 O   0  0  0  0  0  0  0  0  0  0  0  0
    5.1542   -1.9625    0.0000 C   0  0  0  0  0  0  0  0  0  0  0  0
    4.5417   -0.8958    0.0000 C   0  0  0  0  0  0  0  0  0  0  0  0
    3.9292   -1.2500    0.0000 C   0  0  0  0  0  0  0  0  0  0  0  0
    4.5417   -2.3167    0.0000 C   0  0  0  0  0  0  0  0  0  0  0  0
    3.9292   -1.9625    0.0000 C   0  0  0  0  0  0  0  0  0  0  0  0
   -1.2458   -1.6917    0.0000 C   0  0  0  0  0  0  0  0  0  0  0  0
   -0.0208   -1.6917    0.0000 C   0  0  0  0  0  0  0  0  0  0  0  0
   -0.6333   -1.3542    0.0000 C   0  0  0  0  0  0  0  0  0  0  0  0
   -0.0208   -2.4167    0.0000 C   0  0  0  0  0  0  0  0  0  0  0  0
   -1.2458   -2.4167    0.0000 C   0  0  0  0  0  0  0  0  0  0  0  0
   -0.6333   -2.7667    0.0000 N   0  0  0  0  0  0  0  0  0  0  0  0
   -1.8458   -1.3417    0.0000 C   0  0  0  0  0  0  0  0  0  0  0  0
    0.5750   -1.3542    0.0000 C   0  0  0  0  0  0  0  0  0  0  0  0
   -0.6333   -0.2917    0.0000 C   0  0  0  0  0  0  0  0  0  0  0  0
   -0.0458    0.0583    0.0000 C   0  0  0  0  0  0  0  0  0  0  0  0
   -1.8458   -0.6542    0.0000 O   0  0  0  0  0  0  0  0  0  0  0  0
    0.5750   -0.6667    0.0000 O   0  0  0  0  0  0  0  0  0  0  0  0
    0.5750   -2.7667    0.0000 C   0  0  0  0  0  0  0  0  0  0  0  0
   -2.4458   -1.6917    0.0000 O   0  0  0  0  0  0  0  0  0  0  0  0
    1.1875   -1.6917    0.0000 O   0  0  0  0  0  0  0  0  0  0  0  0
   -1.8750   -2.7667    0.0000 C   0  0  0  0  0  0  0  0  0  0  0  0
    0.5542   -0.2292    0.0000 Cl  0  0  0  0  0  0  0  0  0  0  0  0
    2.9625   -2.7667    0.0000 N   0  0  0  0  0  0  0  0  0  0  0  0
   -1.2708    0.0583    0.0000 C   0  0  0  0  0  0  0  0  0  0  0  0
    1.1875   -2.4167    0.0000 O   0  0  0  0  0  0  0  0  0  0  0  0
   -0.0458    0.7583    0.0000 C   0  0  0  0  0  0  0  0  0  0  0  0
    2.3542   -2.4167    0.0000 C   0  0  0  0  0  0  0  0  0  0  0  0
    1.7750   -1.3417    0.0000 C   0  0  0  0  0  0  0  0  0  0  0  0
    1.7750   -2.7667    0.0000 C   0  0  0  0  0  0  0  0  0  0  0  0
   -3.0583   -1.3417    0.0000 C   0  0  0  0  0  0  0  0  0  0  0  0
   -1.2708    0.7583    0.0000 C   0  0  0  0  0  0  0  0  0  0  0  0
    2.3792   -1.6542    0.0000 C   0  0  0  0  0  0  0  0  0  0  0  0
   -0.6625    1.1208    0.0000 C   0  0  0  0  0  0  0  0  0  0  0  0
  2  1  2  0
  3  1  2  0
  4  1  1  0
  5  1  1  0
  6  4  1  0
  7  4  2  0
  8  7  1  0
  9  6  2  0
 10  8  2  0
  9 10  1  0
 12 13  1  0
 13 11  1  0
 14 16  1  0
 15 11  2  0
 16 15  1  0
 17 11  1  0
 18 12  1  0
 19 13  1  0
 20 19  1  0
 21 17  2  0
 22 18  2  0
 23 14  1  0
 24 17  1  0
 25 18  1  0
 26 15  1  0
 27 20  1  0
 28 32  1  0
 29 19  2  0
 30 23  1  0
 31 20  2  0
 32 34  1  0
 33 25  1  0
 34 30  1  0
 35 24  1  0
 36 29  1  0
 37 33  1  0
 38 36  2  0
 12 14  2  0
 31 38  1  0
M  END
> <chembl_id>
CHEMBL1200402

> <chembl_pref_name>
AMLODIPINE BESYLATE
