
     RDKit          2D

 24 26  0  0  0  0  0  0  0  0999 V2000
    1.2000   -1.7917    0.0000 C   0  0  0  0  0  0  0  0  0  0  0  0
    1.2000   -2.5000    0.0000 C   0  0  0  0  0  0  0  0  0  0  0  0
    0.5875   -1.4375    0.0000 C   0  0  0  0  0  0  0  0  0  0  0  0
    0.5875   -2.8542    0.0000 C   0  0  0  0  0  0  0  0  0  0  0  0
   -0.0250   -1.7917    0.0000 C   0  0  0  0  0  0  0  0  0  0  0  0
   -0.0250   -2.5000    0.0000 C   0  0  0  0  0  0  0  0  0  0  0  0
    1.8125   -1.4375    0.0000 C   0  0  0  0  0  0  0  0  0  0  0  0
    1.8125   -2.8542    0.0000 C   0  0  0  0  0  0  0  0  0  0  0  0
    0.5875   -0.7292    0.0000 O   0  0  0  0  0  0  0  0  0  0  0  0
    0.5875   -3.5625    0.0000 O   0  0  0  0  0  0  0  0  0  0  0  0
   -1.2583   -1.7917    0.0000 N   0  0  0  0  0  0  0  0  0  0  0  0
    2.4292   -2.5000    0.0000 C   0  0  0  0  0  0  0  0  0  0  0  0
    2.4292   -1.7917    0.0000 C   0  0  0  0  0  0  0  0  0  0  0  0
   -0.6375   -1.4375    0.0000 C   0  0  0  0  0  0  0  0  0  0  0  0
    1.8125   -0.7292    0.0000 N   0  0  0  0  0  0  0  0  0  0  0  0
    1.8125   -3.5625    0.0000 N   0  0  0  0  0  0  0  0  0  0  0  0
   -0.6375   -2.8542    0.0000 C   0  0  0  0  0  0  0  0  0  0  0  0
    3.6542   -0.3750    0.0000 N   0  0  0  0  0  0  0  0  0  0  0  0
    3.6542   -3.9167    0.0000 N   0  0  0  0  0  0  0  0  0  0  0  0
   -1.2583   -2.5000    0.0000 C   0  0  0  0  0  0  0  0  0  0  0  0
    2.4292   -3.9167    0.0000 C   0  0  0  0  0  0  0  0  0  0  0  0
    2.4250   -0.3667    0.0000 C   0  0  0  0  0  0  0  0  0  0  0  0
    3.0417   -3.5625    0.0000 C   0  0  0  0  0  0  0  0  0  0  0  0
    3.0375   -0.7250    0.0000 C   0  0  0  0  0  0  0  0  0  0  0  0
  2  1  1  0
  3  1  1  0
  4  2  1  0
  5  3  1  0
  6  5  2  0
  7  1  2  0
  8  2  2  0
  9  3  2  0
 10  4  2  0
 11 14  2  0
 12 13  2  0
 13  7  1  0
 14  5  1  0
 15  7  1  0
 16  8  1  0
 17  6  1  0
 18 24  1  0
 19 23  1  0
 20 11  1  0
 21 16  1  0
 22 15  1  0
 23 21  1  0
 24 22  1  0
  8 12  1  0
  4  6  1  0
 20 17  2  0
M  END
> <chembl_id>
CHEMBL167731

> <chembl_pref_name>
PIXANTRONE
