
     RDKit          2D

 35 39  0  0  1  0  0  0  0  0999 V2000
    2.0667    1.2208    0.0000 C   0  0  0  0  0  0  0  0  0  0  0  0
   -1.5875   -0.5875    0.0000 C   0  0  0  0  0  0  0  0  0  0  0  0
    0.9875    0.9750    0.0000 C   0  0  0  0  0  0  0  0  0  0  0  0
   -0.7125   -0.0667    0.0000 C   0  0  0  0  0  0  0  0  0  0  0  0
   -1.5875   -1.5792    0.0000 C   0  0  0  0  0  0  0  0  0  0  0  0
    0.9875   -0.0250    0.0000 C   0  0  0  0  0  0  0  0  0  0  0  0
    0.1292   -0.5250    0.0000 C   0  0  0  0  0  0  0  0  0  0  0  0
    2.5000    0.4125    0.0000 C   0  0  0  0  0  0  0  0  0  0  0  0
    2.9000    1.7208    0.0000 O   0  0  0  0  0  0  0  0  0  0  0  0
   -0.7208    0.9208    0.0000 C   0  0  0  0  0  0  0  0  0  0  0  0
   -2.4833   -0.1042    0.0000 C   0  0  0  0  0  0  0  0  0  0  0  0
    0.0917    1.4458    0.0000 C   0  0  0  0  0  0  0  0  0  0  0  0
    3.7542    1.1833    0.0000 C   0  0  0  0  0  0  0  0  0  0  0  0
    3.3792    0.4583    0.0000 O   0  0  0  0  0  0  0  0  0  0  0  0
    1.9792   -0.3667    0.0000 C   0  0  0  0  0  0  0  0  0  0  0  0
    0.1417   -1.5417    0.0000 C   0  0  0  0  0  0  0  0  0  0  0  0
   -0.6708   -2.0625    0.0000 C   0  0  0  0  0  0  0  0  0  0  0  0
   -2.4375   -2.1042    0.0000 C   0  0  0  0  0  0  0  0  0  0  0  0
    1.7917    2.3625    0.0000 C   0  0  0  0  0  0  0  0  0  0  0  0
   -3.3583   -0.6292    0.0000 C   0  0  0  0  0  0  0  0  0  0  0  0
   -3.3583   -1.6417    0.0000 C   0  0  0  0  0  0  0  0  0  0  0  0
   -0.7208   -0.9750    0.0000 Cl  0  0  0  0  0  0  0  0  0  0  0  0
    2.7542    2.6750    0.0000 O   0  0  0  0  0  0  0  0  0  0  0  0
   -4.2208   -2.1667    0.0000 O   0  0  0  0  0  0  0  0  0  0  0  0
   -1.8458    1.3458    0.0000 Cl  0  0  0  0  0  0  0  0  0  0  0  0
   -1.6208    0.4000    0.0000 C   0  0  0  0  0  0  0  0  0  0  0  0
    0.8292    1.9208    0.0000 C   0  0  0  0  0  0  0  0  0  0  0  0
   -1.1833   -2.9167    0.0000 F   0  0  0  0  0  0  0  0  0  0  0  0
    1.1417    3.1083    0.0000 C   0  0  0  0  0  0  0  0  0  0  0  0
    4.3417    1.0208    0.0000 C   0  0  0  0  0  0  0  0  0  0  0  0
    4.0042    1.8708    0.0000 C   0  0  0  0  0  0  0  0  0  0  0  0
    0.1625    2.9833    0.0000 O   0  0  0  0  0  0  0  0  0  0  0  0
    2.9941   -0.4569    0.0000 H   0  0  0  0  0  0  0  0  0  0  0  0
    0.9992   -1.0180    0.0000 H   0  0  0  0  0  0  0  0  0  0  0  0
    1.0852   -1.0202    0.0000 H   0  0  0  0  0  0  0  0  0  0  0  0
  2  4  1  0
  3  1  1  0
  4 10  1  0
  5  2  1  0
  6  3  1  0
  7  6  1  0
  8  1  1  0
  1  9  1  0
 10 12  1  0
 11  2  1  0
 12  3  1  0
 13  9  1  0
  8 14  1  0
 15  8  1  0
 16  7  1  0
 17 16  1  0
 18  5  2  0
  1 19  1  1
 20 11  2  0
 21 20  1  0
  4 22  1  6
 23 19  2  0
 24 21  2  0
 10 25  1  1
  2 26  1  1
  3 27  1  1
 17 28  1  6
 29 19  1  0
 30 13  1  0
 31 13  1  0
 32 29  1  0
  6 15  1  0
 14 13  1  0
  7  4  1  0
 17  5  1  0
 18 21  1  0
  8 33  1  1
  7 34  1  1
  6 35  1  6
M  END
> <chembl_id>
CHEMBL461332

> <chembl_pref_name>
FLUCLORONIDE
