
     RDKit          2D

 49 55  0  0  0  0  0  0  0  0999 V2000
   28.3333  -10.8801    0.0000 N   0  0  0  0  0  0  0  0  0  0  0  0
   28.4208  -11.6966    0.0000 C   0  0  0  0  0  0  0  0  0  0  0  0
   18.8694   -5.7608    0.0000 C   0  0  0  0  0  0  0  0  0  0  0  0
   29.2330  -11.8673    0.0000 N   0  0  0  0  0  0  0  0  0  0  0  0
   29.6454  -11.1550    0.0000 N   0  0  0  0  0  0  0  0  0  0  0  0
   29.0830  -10.5468    0.0000 C   0  0  0  0  0  0  0  0  0  0  0  0
   19.2943   -5.0610    0.0000 C   0  0  0  0  0  0  0  0  0  0  0  0
   18.0696   -5.5484    0.0000 C   0  0  0  0  0  0  0  0  0  0  0  0
   19.6733   -5.9357    0.0000 O   0  0  0  0  0  0  0  0  0  0  0  0
   17.4865   -6.1357    0.0000 N   0  0  0  0  0  0  0  0  0  0  0  0
   16.2993   -6.7355    0.0000 N   0  0  0  0  0  0  0  0  0  0  0  0
   18.4570   -6.4856    0.0000 O   0  0  0  0  0  0  0  0  0  0  0  0
   24.0553   -8.4100    0.0000 N   0  0  0  0  0  0  0  0  0  0  0  0
   25.4800   -9.2348    0.0000 N   0  0  0  0  0  0  0  0  0  0  0  0
   18.8944   -4.3487    0.0000 C   0  0  0  0  0  0  0  0  0  0  0  0
   17.6114   -6.9479    0.0000 N   0  0  0  0  0  0  0  0  0  0  0  0
   27.6210  -10.4719    0.0000 C   0  0  0  0  0  0  0  0  0  0  0  0
   16.8825   -7.3229    0.0000 C   0  0  0  0  0  0  0  0  0  0  0  0
   16.6742   -5.9982    0.0000 C   0  0  0  0  0  0  0  0  0  0  0  0
   20.1190   -5.0859    0.0000 C   0  0  0  0  0  0  0  0  0  0  0  0
   27.8084  -12.2547    0.0000 O   0  0  0  0  0  0  0  0  0  0  0  0
   19.3193   -3.6365    0.0000 C   0  0  0  0  0  0  0  0  0  0  0  0
   26.1922   -9.6472    0.0000 C   0  0  0  0  0  0  0  0  0  0  0  0
   23.3347   -7.9976    0.0000 C   0  0  0  0  0  0  0  0  0  0  0  0
   19.7608   -6.7605    0.0000 C   0  0  0  0  0  0  0  0  0  0  0  0
   24.7593   -9.6472    0.0000 C   0  0  0  0  0  0  0  0  0  0  0  0
   24.0553   -9.2348    0.0000 C   0  0  0  0  0  0  0  0  0  0  0  0
   25.4800   -8.4100    0.0000 C   0  0  0  0  0  0  0  0  0  0  0  0
   24.7677   -7.9851    0.0000 C   0  0  0  0  0  0  0  0  0  0  0  0
   29.5704  -12.6213    0.0000 C   0  0  0  0  0  0  0  0  0  0  0  0
   26.8962  -10.8842    0.0000 C   0  0  0  0  0  0  0  0  0  0  0  0
   27.6210   -9.6472    0.0000 C   0  0  0  0  0  0  0  0  0  0  0  0
   26.1922  -10.4719    0.0000 C   0  0  0  0  0  0  0  0  0  0  0  0
   26.8962   -9.2348    0.0000 C   0  0  0  0  0  0  0  0  0  0  0  0
   19.0068   -7.0979    0.0000 C   0  0  0  0  0  0  0  0  0  0  0  0
   22.6183   -8.4100    0.0000 C   0  0  0  0  0  0  0  0  0  0  0  0
   23.3347   -7.1604    0.0000 C   0  0  0  0  0  0  0  0  0  0  0  0
   20.1482   -3.6490    0.0000 C   0  0  0  0  0  0  0  0  0  0  0  0
   18.0696   -4.3362    0.0000 Cl  0  0  0  0  0  0  0  0  0  0  0  0
   21.1937   -6.7605    0.0000 O   0  0  0  0  0  0  0  0  0  0  0  0
   20.5439   -4.3737    0.0000 C   0  0  0  0  0  0  0  0  0  0  0  0
   21.9060   -7.1729    0.0000 C   0  0  0  0  0  0  0  0  0  0  0  0
   20.4814   -7.1729    0.0000 C   0  0  0  0  0  0  0  0  0  0  0  0
   22.6183   -6.7605    0.0000 C   0  0  0  0  0  0  0  0  0  0  0  0
   21.9060   -7.9976    0.0000 C   0  0  0  0  0  0  0  0  0  0  0  0
   20.5731   -2.9491    0.0000 Cl  0  0  0  0  0  0  0  0  0  0  0  0
   30.3827  -12.7045    0.0000 C   0  0  0  0  0  0  0  0  0  0  0  0
   29.0830  -13.2919    0.0000 C   0  0  0  0  0  0  0  0  0  0  0  0
   30.8700  -12.0422    0.0000 C   0  0  0  0  0  0  0  0  0  0  0  0
  2  1  1  0
  3  9  1  0
  4  2  1  0
  5  6  2  0
  6  1  1  0
  7  3  1  0
  8  3  1  0
  9 25  1  0
 10  8  1  0
 11 19  2  0
 12 35  1  0
 13 29  1  0
 14 23  1  0
 15  7  1  0
 16 10  1  0
 17  1  1  0
 18 16  2  0
 19 10  1  0
 20  7  2  0
 21  2  2  0
 22 15  2  0
 23 34  1  0
 24 13  1  0
 25 43  1  0
 26 14  1  0
 27 26  1  0
 28 14  1  0
 29 28  1  0
 30  4  1  0
 31 17  2  0
 32 17  1  0
 33 31  1  0
 34 32  2  0
 35 25  1  0
 36 24  2  0
 37 24  1  0
 38 41  2  0
 39 15  1  0
 40 42  1  0
 41 20  1  0
 42 44  1  0
 43 40  1  0
 44 37  2  0
 45 36  1  0
 46 38  1  0
 47 30  1  0
 48 30  1  0
 49 47  1  0
  5  4  1  0
 33 23  2  0
 27 13  1  0
 45 42  2  0
 12  3  1  0
 18 11  1  0
 38 22  1  0
M  END
> <chembl_id>
CHEMBL64391

> <chembl_pref_name>
ITRACONAZOLE
