
     RDKit          2D

  3  2  0  0  0  0  0  0  0  0999 V2000
    5.0667   -6.2417    0.0000 Se  0  0  0  0  0  4  0  0  0  0  0  0
    4.3667   -6.2417    0.0000 S   0  0  0  0  0  0  0  0  0  0  0  0
    5.7792   -6.2417    0.0000 S   0  0  0  0  0  0  0  0  0  0  0  0
  2  1  2  0
  3  1  2  0
M  END
> <chembl_id>
CHEMBL1200680

> <chembl_pref_name>
SELENIUM SULFIDE
