
     RDKit          2D

 38 38  0  0  0  0  0  0  0  0999 V2000
    4.7125   -1.4375    0.0000 Br  0  0  0  0  0  0  0  0  0  0  0  0
    6.6250   -1.0417    0.0000 C   0  0  0  0  0  0  0  0  0  0  0  0
    6.6167   -1.7292    0.0000 N   0  0  0  0  0  0  0  0  0  0  0  0
    7.2542   -0.7042    0.0000 N   0  0  0  0  0  0  0  0  0  0  0  0
    6.0250   -0.6792    0.0000 N   0  0  0  0  0  0  0  0  0  0  0  0
    4.7625   -2.0750    0.0000 N   0  0  0  0  0  0  0  0  0  0  0  0
    7.2292   -2.1000    0.0000 C   0  0  0  0  0  0  0  0  0  0  0  0
    5.9917   -2.0917    0.0000 C   0  0  0  0  0  0  0  0  0  0  0  0
    5.3792   -1.7042    0.0000 C   0  0  0  0  0  0  0  0  0  0  0  0
    7.8750   -1.7667    0.0000 C   0  0  0  0  0  0  0  0  0  0  0  0
    9.1125   -1.0750    0.0000 C   0  0  0  0  0  0  0  0  0  0  0  0
    8.4792   -2.1167    0.0000 C   0  0  0  0  0  0  0  0  0  0  0  0
    7.8542   -1.0667    0.0000 C   0  0  0  0  0  0  0  0  0  0  0  0
    8.4917   -0.7000    0.0000 C   0  0  0  0  0  0  0  0  0  0  0  0
    9.0792   -1.7792    0.0000 C   0  0  0  0  0  0  0  0  0  0  0  0
    6.6667    0.3833    0.0000 C   0  0  0  0  0  0  0  0  0  0  0  0
    9.7250   -0.7042    0.0000 O   0  0  0  0  0  0  0  0  0  0  0  0
    6.0250    0.0333    0.0000 C   0  0  0  0  0  0  0  0  0  0  0  0
    7.2792    0.0125    0.0000 C   0  0  0  0  0  0  0  0  0  0  0  0
    4.1417   -1.7167    0.0000 C   0  0  0  0  0  0  0  0  0  0  0  0
    5.1125   -2.6875    0.0000 C   0  0  0  0  0  0  0  0  0  0  0  0
    4.4042   -2.6875    0.0000 C   0  0  0  0  0  0  0  0  0  0  0  0
   10.3667   -1.0250    0.0000 C   0  0  0  0  0  0  0  0  0  0  0  0
    3.5292   -2.0667    0.0000 C   0  0  0  0  0  0  0  0  0  0  0  0
   -4.4708   -1.7792    0.0000 C   0  0  0  0  0  0  0  0  0  0  0  0
   -3.8583   -2.1167    0.0000 C   0  0  0  0  0  0  0  0  0  0  0  0
   -1.3833   -2.1042    0.0000 C   0  0  0  0  0  0  0  0  0  0  0  0
   -1.9958   -1.7417    0.0000 C   0  0  0  0  0  0  0  0  0  0  0  0
   -2.6333   -2.1125    0.0000 C   0  0  0  0  0  0  0  0  0  0  0  0
   -3.2333   -1.7667    0.0000 C   0  0  0  0  0  0  0  0  0  0  0  0
    2.9042   -1.7167    0.0000 C   0  0  0  0  0  0  0  0  0  0  0  0
    2.2917   -2.0750    0.0000 C   0  0  0  0  0  0  0  0  0  0  0  0
    1.7000   -1.7125    0.0000 C   0  0  0  0  0  0  0  0  0  0  0  0
    1.0917   -2.0917    0.0000 C   0  0  0  0  0  0  0  0  0  0  0  0
    0.4667   -1.7292    0.0000 C   0  0  0  0  0  0  0  0  0  0  0  0
   -0.1458   -2.1000    0.0000 C   0  0  0  0  0  0  0  0  0  0  0  0
   -0.7583   -1.7417    0.0000 C   0  0  0  0  0  0  0  0  0  0  0  0
   -5.0708   -2.1250    0.0000 C   0  0  0  0  0  0  0  0  0  0  0  0
  3  2  1  0
  4  2  2  0
  5  2  1  0
  6  9  1  0
  7  3  1  0
  8  3  1  0
  9  8  1  0
 10  7  1  0
 11 15  2  0
 12 10  2  0
 13 10  1  0
 14 13  2  0
 15 12  1  0
 16 18  1  0
 17 11  1  0
 18  5  2  0
 19  4  1  0
 20  6  1  0
 21  6  1  0
 22  6  1  0
 23 17  1  0
 24 20  1  0
 25 26  1  0
 26 30  1  0
 27 37  1  0
 28 27  1  0
 29 28  1  0
 30 29  1  0
 31 24  1  0
 32 31  1  0
 33 32  1  0
 34 33  1  0
 35 34  1  0
 36 35  1  0
 37 36  1  0
 38 25  1  0
 16 19  2  0
 11 14  1  0
M  CHG  2   1  -1   6   1
M  END
> <chembl_id>
CHEMBL1200883

> <chembl_pref_name>
THONZONIUM BROMIDE
