
     RDKit          2D

 16 16  0  0  0  0  0  0  0  0999 V2000
   -2.1583   -0.2792    0.0000 C   0  0  0  0  0  0  0  0  0  0  0  0
   -1.5500   -1.3417    0.0000 N   0  0  0  0  0  0  0  0  0  0  0  0
   -0.9375   -0.2792    0.0000 N   0  0  0  0  0  0  0  0  0  0  0  0
   -2.1583   -0.9917    0.0000 C   0  0  0  0  0  0  0  0  0  0  0  0
   -1.5500    0.0708    0.0000 C   0  0  0  0  0  0  0  0  0  0  0  0
   -0.9375   -0.9917    0.0000 C   0  0  0  0  0  0  0  0  0  0  0  0
   -2.7750    0.0708    0.0000 C   0  0  0  0  0  0  0  0  0  0  0  0
   -2.7750   -1.3417    0.0000 O   0  0  0  0  0  0  0  0  0  0  0  0
   -1.5500    0.7833    0.0000 O   0  0  0  0  0  0  0  0  0  0  0  0
   -0.3208   -1.3417    0.0000 O   0  0  0  0  0  0  0  0  0  0  0  0
   -2.5208    0.3333    0.0000 C   0  0  0  0  0  0  0  0  0  0  0  0
   -2.1708    0.9500    0.0000 C   0  0  0  0  0  0  0  0  0  0  0  0
   -2.5208    1.5625    0.0000 C   0  0  0  0  0  0  0  0  0  0  0  0
   -3.3958   -0.2792    0.0000 C   0  0  0  0  0  0  0  0  0  0  0  0
   -4.0083    0.0708    0.0000 C   0  0  0  0  0  0  0  0  0  0  0  0
   -3.3875   -0.9917    0.0000 C   0  0  0  0  0  0  0  0  0  0  0  0
  2  4  1  0
  3  5  1  0
  4  1  1  0
  5  1  1  0
  6  3  1  0
  7  1  1  0
  8  4  2  0
  9  5  2  0
 10  6  2  0
 11  1  1  0
 12 11  1  0
 13 12  2  0
 14  7  1  0
 15 14  1  0
 16 14  1  0
  6  2  1  0
M  END
> <chembl_id>
CHEMBL454

> <chembl_pref_name>
BUTALBITAL
