
     RDKit          2D

 27 29  0  0  0  0  0  0  0  0999 V2000
   -1.6583   -0.8042    0.0000 N   0  0  0  0  0  0  0  0  0  0  0  0
   -0.8000   -0.3042    0.0000 C   0  0  0  0  0  0  0  0  0  0  0  0
   -2.5083   -0.3042    0.0000 C   0  0  0  0  0  0  0  0  0  0  0  0
    0.9125   -0.3042    0.0000 C   0  0  0  0  0  0  0  0  0  0  0  0
   -0.8000    0.6708    0.0000 C   0  0  0  0  0  0  0  0  0  0  0  0
    0.0667   -0.7875    0.0000 C   0  0  0  0  0  0  0  0  0  0  0  0
    0.9000    0.6833    0.0000 C   0  0  0  0  0  0  0  0  0  0  0  0
   -2.5083    0.6708    0.0000 C   0  0  0  0  0  0  0  0  0  0  0  0
    1.7625   -0.7875    0.0000 O   0  0  0  0  0  0  0  0  0  0  0  0
    2.5917   -0.2792    0.0000 C   0  0  0  0  0  0  0  0  0  0  0  0
   -1.6583    1.1750    0.0000 C   0  0  0  0  0  0  0  0  0  0  0  0
    2.6000    0.7000    0.0000 C   0  0  0  0  0  0  0  0  0  0  0  0
    1.7375    1.1833    0.0000 C   0  0  0  0  0  0  0  0  0  0  0  0
    0.0500    1.1583    0.0000 C   0  0  0  0  0  0  0  0  0  0  0  0
   -3.3708   -0.7917    0.0000 C   0  0  0  0  0  0  0  0  0  0  0  0
    3.4375   -0.7542    0.0000 C   0  0  0  0  0  0  0  0  0  0  0  0
   -1.6583    2.1500    0.0000 O   0  0  0  0  0  0  0  0  0  0  0  0
    1.7292    2.1583    0.0000 O   0  0  0  0  0  0  0  0  0  0  0  0
   -3.3708   -1.7792    0.0000 O   0  0  0  0  0  0  0  0  0  0  0  0
    3.4417   -1.7292    0.0000 O   0  0  0  0  0  0  0  0  0  0  0  0
   -1.6583   -1.7875    0.0000 C   0  0  0  0  0  0  0  0  0  0  0  0
    0.0667   -1.7167    0.0000 C   0  0  0  0  0  0  0  0  0  0  0  0
   -4.2208   -0.2917    0.0000 O   0  0  0  0  0  0  0  0  0  0  0  0
    4.2750   -0.2625    0.0000 O   0  0  0  0  0  0  0  0  0  0  0  0
    0.9250   -2.1792    0.0000 C   0  0  0  0  0  0  0  0  0  0  0  0
   -0.8208   -2.2667    0.0000 C   0  0  0  0  0  0  0  0  0  0  0  0
    1.7750   -1.6792    0.0000 C   0  0  0  0  0  0  0  0  0  0  0  0
  2  1  1  0
  3  1  1  0
  4  6  1  0
  5  2  1  0
  6  2  2  0
  7  4  2  0
  8  3  2  0
  9  4  1  0
 10  9  1  0
 11  8  1  0
 12 10  2  0
 13  7  1  0
 14  5  2  0
 15  3  1  0
 16 10  1  0
 17 11  2  0
 18 13  2  0
 19 15  2  0
 20 16  2  0
 21  1  1  0
 22  6  1  0
 23 15  1  0
 24 16  1  0
 25 22  1  0
 26 21  1  0
 27 25  1  0
  5 11  1  0
 14  7  1  0
 12 13  1  0
M  END
> <chembl_id>
CHEMBL746

> <chembl_pref_name>
NEDOCROMIL
