
     RDKit          2D

 21 23  0  0  1  0  0  0  0  0999 V2000
    0.4917  -13.7167    0.0000 C   0  0  0  0  0  0  0  0  0  0  0  0
    1.0792  -14.0792    0.0000 C   0  0  0  0  0  0  0  0  0  0  0  0
   -0.1333  -13.3625    0.0000 C   0  0  0  0  0  0  0  0  0  0  0  0
    1.1292  -12.6167    0.0000 C   0  0  0  0  0  0  0  0  0  0  0  0
    0.1542  -14.3292    0.0000 C   0  0  0  0  0  0  0  0  0  0  0  0
    1.1292  -13.3625    0.0000 O   0  0  0  0  0  0  0  0  0  0  0  0
    0.4917  -12.2542    0.0000 N   0  0  0  0  0  0  0  0  0  0  0  0
   -0.1333  -12.6167    0.0000 C   0  0  0  0  0  0  0  0  0  0  0  0
    1.6792  -14.4375    0.0000 C   0  0  0  0  0  0  0  0  0  0  0  0
    2.2792  -14.7917    0.0000 C   0  0  0  0  0  0  0  0  0  0  0  0
   -0.7458  -13.7167    0.0000 C   0  0  0  0  0  0  0  0  0  0  0  0
    2.9542  -14.7917    0.0000 C   0  0  0  0  0  0  0  0  0  0  0  0
    2.6042  -15.3917    0.0000 C   0  0  0  0  0  0  0  0  0  0  0  0
    1.7542  -12.2542    0.0000 O   0  0  0  0  0  0  0  0  0  0  0  0
   -0.7458  -12.2542    0.0000 C   0  0  0  0  0  0  0  0  0  0  0  0
   -0.1708  -14.9167    0.0000 F   0  0  0  0  0  0  0  0  0  0  0  0
    0.5042  -14.9250    0.0000 F   0  0  0  0  0  0  0  0  0  0  0  0
   -0.5333  -14.3167    0.0000 F   0  0  0  0  0  0  0  0  0  0  0  0
   -1.3833  -13.3625    0.0000 C   0  0  0  0  0  0  0  0  0  0  0  0
   -1.3833  -12.6167    0.0000 C   0  0  0  0  0  0  0  0  0  0  0  0
   -1.9708  -13.7042    0.0000 Cl  0  0  0  0  0  0  0  0  0  0  0  0
  2  1  1  0
  3  1  1  0
  4  6  1  0
  1  5  1  6
  6  1  1  0
  7  4  1  0
  8  3  2  0
  9  2  3  0
 10  9  1  0
 11  3  1  0
 12 10  1  0
 13 10  1  0
 14  4  2  0
 15  8  1  0
 16  5  1  0
 17  5  1  0
 18  5  1  0
 19 11  2  0
 20 19  1  0
 21 19  1  0
  8  7  1  0
 15 20  2  0
 12 13  1  0
M  END
> <chembl_id>
CHEMBL223228

> <chembl_pref_name>
EFAVIRENZ
