
     RDKit          2D

 55 60  0  0  0  0  0  0  0  0999 V2000
   11.5500   -9.9792    0.0000 N   0  0  0  0  0  0  0  0  0  0  0  0
   10.9375  -10.3250    0.0000 C   0  0  0  0  0  0  0  0  0  0  0  0
   12.7750   -9.2667    0.0000 N   0  0  0  0  0  0  0  0  0  0  0  0
   10.3167   -9.9750    0.0000 C   0  0  0  0  0  0  0  0  0  0  0  0
   12.1667  -10.3167    0.0000 C   0  0  0  0  0  0  0  0  0  0  0  0
   11.5500   -9.2667    0.0000 C   0  0  0  0  0  0  0  0  0  0  0  0
   10.9375  -11.0375    0.0000 C   0  0  0  0  0  0  0  0  0  0  0  0
   10.3292   -9.2500    0.0000 C   0  0  0  0  0  0  0  0  0  0  0  0
    9.7125  -10.3167    0.0000 C   0  0  0  0  0  0  0  0  0  0  0  0
   12.7667   -9.9667    0.0000 C   0  0  0  0  0  0  0  0  0  0  0  0
   12.1750   -8.9042    0.0000 C   0  0  0  0  0  0  0  0  0  0  0  0
    9.0917   -9.2542    0.0000 C   0  0  0  0  0  0  0  0  0  0  0  0
    9.0792   -9.9625    0.0000 C   0  0  0  0  0  0  0  0  0  0  0  0
    9.7042   -8.9167    0.0000 C   0  0  0  0  0  0  0  0  0  0  0  0
    8.4875   -8.9000    0.0000 Cl  0  0  0  0  0  0  0  0  0  0  0  0
   13.4000   -8.9042    0.0000 C   0  0  0  0  0  0  0  0  0  0  0  0
   16.4667   -9.2667    0.0000 O   0  0  0  0  0  0  0  0  0  0  0  0
   14.6250   -8.9125    0.0000 O   0  0  0  0  0  0  0  0  0  0  0  0
   10.3167  -11.3875    0.0000 C   0  0  0  0  0  0  0  0  0  0  0  0
   11.5417  -11.3875    0.0000 C   0  0  0  0  0  0  0  0  0  0  0  0
   15.8542   -8.9125    0.0000 C   0  0  0  0  0  0  0  0  0  0  0  0
   14.0042   -9.2542    0.0000 C   0  0  0  0  0  0  0  0  0  0  0  0
   15.2500   -9.2667    0.0000 C   0  0  0  0  0  0  0  0  0  0  0  0
   11.5542  -12.1042    0.0000 C   0  0  0  0  0  0  0  0  0  0  0  0
   10.3167  -12.1042    0.0000 C   0  0  0  0  0  0  0  0  0  0  0  0
   10.9250  -12.4542    0.0000 C   0  0  0  0  0  0  0  0  0  0  0  0
    6.4708   -7.8708    0.0000 C   0  0  0  0  0  0  0  0  0  0  0  0
    5.4917  -11.4833    0.0000 C   0  0  0  0  0  0  0  0  0  0  0  0
    5.5042  -10.2625    0.0000 C   0  0  0  0  0  0  0  0  0  0  0  0
    5.8625   -8.9417    0.0000 C   0  0  0  0  0  0  0  0  0  0  0  0
    6.4750   -8.5833    0.0000 C   0  0  0  0  0  0  0  0  0  0  0  0
    5.8500  -10.8750    0.0000 C   0  0  0  0  0  0  0  0  0  0  0  0
    5.8625   -9.6500    0.0000 C   0  0  0  0  0  0  0  0  0  0  0  0
    5.8542   -7.5208    0.0000 C   0  0  0  0  0  0  0  0  0  0  0  0
    4.7792  -11.4792    0.0000 C   0  0  0  0  0  0  0  0  0  0  0  0
    7.0833   -7.5125    0.0000 C   0  0  0  0  0  0  0  0  0  0  0  0
    5.8458  -12.1000    0.0000 C   0  0  0  0  0  0  0  0  0  0  0  0
    4.7917  -10.2542    0.0000 C   0  0  0  0  0  0  0  0  0  0  0  0
    5.2458   -8.5875    0.0000 C   0  0  0  0  0  0  0  0  0  0  0  0
    5.2458   -7.8792    0.0000 C   0  0  0  0  0  0  0  0  0  0  0  0
    4.4333  -10.8625    0.0000 C   0  0  0  0  0  0  0  0  0  0  0  0
    7.0750   -6.8042    0.0000 O   0  0  0  0  0  0  0  0  0  0  0  0
    5.4875  -12.7125    0.0000 O   0  0  0  0  0  0  0  0  0  0  0  0
    7.0917   -8.9375    0.0000 O   0  0  0  0  0  0  0  0  0  0  0  0
    6.5583  -10.8792    0.0000 O   0  0  0  0  0  0  0  0  0  0  0  0
    7.6958   -7.8625    0.0000 O   0  0  0  0  0  0  0  0  0  0  0  0
    6.5542  -12.1042    0.0000 O   0  0  0  0  0  0  0  0  0  0  0  0
    4.6333   -8.9458    0.0000 C   0  0  0  0  0  0  0  0  0  0  0  0
    4.4458   -9.6375    0.0000 C   0  0  0  0  0  0  0  0  0  0  0  0
    4.6333   -7.5250    0.0000 C   0  0  0  0  0  0  0  0  0  0  0  0
    3.7292  -10.8583    0.0000 C   0  0  0  0  0  0  0  0  0  0  0  0
    3.7375   -9.6292    0.0000 C   0  0  0  0  0  0  0  0  0  0  0  0
    4.0208   -8.5917    0.0000 C   0  0  0  0  0  0  0  0  0  0  0  0
    3.3792  -10.2458    0.0000 C   0  0  0  0  0  0  0  0  0  0  0  0
    4.0208   -7.8792    0.0000 C   0  0  0  0  0  0  0  0  0  0  0  0
  2  1  1  0
  3 10  1  0
  4  2  1  0
  5  1  1  0
  6  1  1  0
  7  2  1  0
  8  4  2  0
  9  4  1  0
 10  5  1  0
 11  6  1  0
 12 14  2  0
 13  9  2  0
 14  8  1  0
 15 12  1  0
 16  3  1  0
 17 21  1  0
 18 22  1  0
 19  7  2  0
 20  7  1  0
 21 23  1  0
 22 16  1  0
 23 18  1  0
 24 20  2  0
 25 19  1  0
 26 25  2  0
 11  3  1  0
 13 12  1  0
 24 26  1  0
 28 32  2  0
 29 33  1  0
 30 31  2  0
 31 27  1  0
 32 29  1  0
 33 30  1  0
 34 27  2  0
 35 28  1  0
 36 27  1  0
 37 28  1  0
 38 29  2  0
 39 40  1  0
 40 34  1  0
 41 38  1  0
 42 36  2  0
 43 37  2  0
 44 31  1  0
 45 32  1  0
 46 36  1  0
 47 37  1  0
 48 39  2  0
 49 38  1  0
 50 40  2  0
 51 41  1  0
 52 49  2  0
 53 48  1  0
 54 52  1  0
 55 50  1  0
 30 39  1  0
 53 55  2  0
 35 41  2  0
 51 54  2  0
M  END
> <chembl_id>
CHEMBL1200467

> <chembl_pref_name>
HYDROXYZINE PAMOATE
