
     RDKit          2D

 20 20  0  0  0  0  0  0  0  0999 V2000
    3.4792   -5.2875    0.0000 Cl  0  0  0  0  0  0  0  0  0  0  0  0
    1.6042   -3.6417    0.0000 C   0  0  0  0  0  0  0  0  0  0  0  0
    1.6167   -4.3542    0.0000 C   0  0  0  0  0  0  0  0  0  0  0  0
    2.8375   -4.3417    0.0000 C   0  0  0  0  0  0  0  0  0  0  0  0
    2.2292   -4.7042    0.0000 C   0  0  0  0  0  0  0  0  0  0  0  0
    2.2167   -3.2917    0.0000 C   0  0  0  0  0  0  0  0  0  0  0  0
    2.8292   -3.6417    0.0000 C   0  0  0  0  0  0  0  0  0  0  0  0
    4.0667   -4.3375    0.0000 C   0  0  0  0  0  0  0  0  0  0  0  0
    4.2875   -3.6667    0.0000 N   0  0  0  0  0  0  0  0  0  0  0  0
    0.9917   -3.2875    0.0000 C   0  0  0  0  0  0  0  0  0  0  0  0
    3.4542   -4.6917    0.0000 C   0  0  0  0  0  0  0  0  0  0  0  0
    4.6542   -4.7500    0.0000 N   0  0  0  0  0  0  0  0  0  0  0  0
    1.0042   -4.7167    0.0000 O   0  0  0  0  0  0  0  0  0  0  0  0
    2.2417   -5.4167    0.0000 C   0  0  0  0  0  0  0  0  0  0  0  0
    4.9917   -3.6625    0.0000 C   0  0  0  0  0  0  0  0  0  0  0  0
    3.4500   -3.2792    0.0000 C   0  0  0  0  0  0  0  0  0  0  0  0
    5.2250   -4.3208    0.0000 C   0  0  0  0  0  0  0  0  0  0  0  0
    1.3417   -2.6667    0.0000 C   0  0  0  0  0  0  0  0  0  0  0  0
    0.6292   -2.6667    0.0000 C   0  0  0  0  0  0  0  0  0  0  0  0
    0.3792   -3.6458    0.0000 C   0  0  0  0  0  0  0  0  0  0  0  0
  3  2  1  0
  4  5  1  0
  5  3  2  0
  6  2  2  0
  7  6  1  0
  8 11  1  0
  9  8  2  0
 10  2  1  0
 11  4  1  0
 12  8  1  0
 13  3  1  0
 14  5  1  0
 15  9  1  0
 16  7  1  0
 17 12  1  0
 18 10  1  0
 19 10  1  0
 20 10  1  0
  7  4  2  0
 15 17  1  0
M  END
> <chembl_id>
CHEMBL1200791

> <chembl_pref_name>
OXYMETAZOLINE HYDROCHLORIDE
