
     RDKit          2D

 20 19  0  0  0  0  0  0  0  0999 V2000
    4.5542   -6.7167    0.0000 Cl  0  0  0  0  0  0  0  0  0  0  0  0
    5.4625   -5.7292    0.0000 O   0  0  0  0  0  0  0  0  0  0  0  0
    6.0792   -6.0792    0.0000 C   0  0  0  0  0  0  0  0  0  0  0  0
    3.0042   -5.7667    0.0000 N   0  0  0  0  0  0  0  0  0  0  0  0
    6.7042   -5.7292    0.0000 C   0  0  0  0  0  0  0  0  0  0  0  0
    5.4792   -5.0000    0.0000 C   0  0  0  0  0  0  0  0  0  0  0  0
    4.8667   -4.6292    0.0000 C   0  0  0  0  0  0  0  0  0  0  0  0
    4.2375   -5.7417    0.0000 C   0  0  0  0  0  0  0  0  0  0  0  0
    4.8542   -6.0917    0.0000 C   0  0  0  0  0  0  0  0  0  0  0  0
    3.6250   -6.1042    0.0000 C   0  0  0  0  0  0  0  0  0  0  0  0
    6.7167   -5.0250    0.0000 O   0  0  0  0  0  0  0  0  0  0  0  0
    4.2292   -5.0417    0.0000 O   0  0  0  0  0  0  0  0  0  0  0  0
    2.3917   -6.1250    0.0000 C   0  0  0  0  0  0  0  0  0  0  0  0
    6.1042   -4.6500    0.0000 C   0  0  0  0  0  0  0  0  0  0  0  0
    6.0667   -6.7917    0.0000 C   0  0  0  0  0  0  0  0  0  0  0  0
    7.3125   -6.1042    0.0000 C   0  0  0  0  0  0  0  0  0  0  0  0
    1.7667   -5.7875    0.0000 C   0  0  0  0  0  0  0  0  0  0  0  0
    2.3917   -6.8292    0.0000 C   0  0  0  0  0  0  0  0  0  0  0  0
    7.3000   -6.8125    0.0000 C   0  0  0  0  0  0  0  0  0  0  0  0
    6.6792   -7.1542    0.0000 C   0  0  0  0  0  0  0  0  0  0  0  0
  3  2  1  0
  4 10  1  0
  5  3  1  0
  6 14  1  0
  7  6  2  0
  8  9  1  0
  9  2  1  0
 10  8  1  0
 11  5  1  0
 12  8  1  0
 13  4  1  0
 14 11  1  0
 15  3  2  0
 16  5  2  0
 17 13  1  0
 18 13  1  0
 19 20  2  0
 20 15  1  0
 19 16  1  0
M  END
> <chembl_id>
CHEMBL1200745

> <chembl_pref_name>
OXPRENOLOL HYDROCHLORIDE
