
     RDKit          2D

 29 27  0  0  0  0  0  0  0  0999 V2000
   13.5459   -1.4917    0.0000 C   0  0  0  0  0  0  0  0  0  0  0  0
   14.1593   -1.1375    0.0000 S   0  0  0  0  0  0  0  0  0  0  0  0
   14.7727   -1.4917    0.0000 O   0  0  0  0  0  0  0  0  0  0  0  0
   14.5084   -0.5167    0.0000 O   0  0  0  0  0  0  0  0  0  0  0  0
   13.8000   -0.5167    0.0000 O   0  0  0  0  0  0  0  0  0  0  0  0
    3.1861   -1.1167    0.0000 C   0  0  0  0  0  0  0  0  0  0  0  0
    3.1849   -1.8274    0.0000 C   0  0  0  0  0  0  0  0  0  0  0  0
    3.7998   -2.1819    0.0000 C   0  0  0  0  0  0  0  0  0  0  0  0
    4.4120   -1.8269    0.0000 C   0  0  0  0  0  0  0  0  0  0  0  0
    4.4092   -1.1130    0.0000 C   0  0  0  0  0  0  0  0  0  0  0  0
    3.7980   -0.7622    0.0000 C   0  0  0  0  0  0  0  0  0  0  0  0
    5.0214   -0.7568    0.0000 C   0  0  0  0  0  0  0  0  0  0  0  0
    5.6360   -1.1090    0.0000 C   0  0  0  0  0  0  0  0  0  0  0  0
    6.2483   -0.7528    0.0000 N   0  0  0  0  0  0  0  0  0  0  0  0
    6.8629   -1.1050    0.0000 C   0  0  0  0  0  0  0  0  0  0  0  0
    7.4752   -0.7488    0.0000 C   0  0  0  0  0  0  0  0  0  0  0  0
    6.8652   -1.8133    0.0000 O   0  0  0  0  0  0  0  0  0  0  0  0
    5.6384   -1.8173    0.0000 C   0  0  0  0  0  0  0  0  0  0  0  0
    7.4728   -0.0405    0.0000 N   0  0  0  0  0  0  0  0  0  0  0  0
    8.0898   -1.1009    0.0000 C   0  0  0  0  0  0  0  0  0  0  0  0
    8.7020   -0.7448    0.0000 C   0  0  0  0  0  0  0  0  0  0  0  0
    9.3166   -1.0969    0.0000 C   0  0  0  0  0  0  0  0  0  0  0  0
    9.9289   -0.7407    0.0000 C   0  0  0  0  0  0  0  0  0  0  0  0
   10.5435   -1.0929    0.0000 N   0  0  0  0  0  0  0  0  0  0  0  0
   11.5167   -1.5542    0.0000 C   0  0  0  0  0  0  0  0  0  0  0  0
   12.1301   -1.2000    0.0000 S   0  0  0  0  0  0  0  0  0  0  0  0
   12.7436   -1.5542    0.0000 O   0  0  0  0  0  0  0  0  0  0  0  0
   12.4792   -0.5792    0.0000 O   0  0  0  0  0  0  0  0  0  0  0  0
   11.7709   -0.5792    0.0000 O   0  0  0  0  0  0  0  0  0  0  0  0
  1  2  1  0
  2  3  1  0
  2  4  2  0
  2  5  2  0
  7  8  1  0
 22 23  1  0
 12 13  1  0
 23 24  1  0
 13 14  1  0
  8  9  2  0
 14 15  1  0
 15 16  1  0
  9 10  1  0
 15 17  2  0
  6  7  2  0
 13 18  1  1
 10 11  2  0
 16 19  1  1
 11  6  1  0
 16 20  1  0
 20 21  1  0
 10 12  1  0
 21 22  1  0
 25 26  1  0
 26 27  1  0
 26 28  2  0
 26 29  2  0
M  END
> <chembl_id>
CHEMBL1201178

> <chembl_pref_name>
LISDEXAMFETAMINE DIMESYLATE
