
     RDKit          2D

 14 14  0  0  0  0  0  0  0  0999 V2000
    0.6875   -1.2542    0.0000 C   0  0  0  0  0  0  0  0  0  0  0  0
    1.8542   -0.5542    0.0000 N   0  0  0  0  0  0  0  0  0  0  0  0
   -0.4958   -0.5542    0.0000 C   0  0  0  0  0  0  0  0  0  0  0  0
    3.0417    1.4750    0.0000 C   0  0  0  0  0  0  0  0  0  0  0  0
    0.6875   -2.6042    0.0000 O   0  0  0  0  0  0  0  0  0  0  0  0
    3.0542    2.7333    0.0000 O   0  0  0  0  0  0  0  0  0  0  0  0
    1.8625    0.7875    0.0000 C   0  0  0  0  0  0  0  0  0  0  0  0
   -1.6750   -1.2667    0.0000 C   0  0  0  0  0  0  0  0  0  0  0  0
   -0.4958    0.7875    0.0000 C   0  0  0  0  0  0  0  0  0  0  0  0
   -2.8833    0.7833    0.0000 C   0  0  0  0  0  0  0  0  0  0  0  0
    4.1917    0.7875    0.0000 O   0  0  0  0  0  0  0  0  0  0  0  0
   -4.0833    1.4625    0.0000 N   0  0  0  0  0  0  0  0  0  0  0  0
   -1.7083    1.4625    0.0000 C   0  0  0  0  0  0  0  0  0  0  0  0
   -2.8833   -0.5792    0.0000 C   0  0  0  0  0  0  0  0  0  0  0  0
  2  1  1  0
  3  1  1  0
  4  7  1  0
  5  1  2  0
  6  4  2  0
  7  2  1  0
  8  3  2  0
  9  3  1  0
 10 13  1  0
 11  4  1  0
 12 10  1  0
 13  9  2  0
 14  8  1  0
 14 10  2  0
M  END
> <chembl_id>
CHEMBL463

> <chembl_pref_name>
AMINOHIPPURIC ACID
