
     RDKit          2D

 17 18  0  0  0  0  0  0  0  0999 V2000
    0.6000   -1.6167    0.0000 C   0  0  0  0  0  0  0  0  0  0  0  0
    0.6000   -0.2875    0.0000 C   0  0  0  0  0  0  0  0  0  0  0  0
   -0.5250   -2.2542    0.0000 N   0  0  0  0  0  0  0  0  0  0  0  0
   -1.6583   -0.3292    0.0000 N   0  0  0  0  0  0  0  0  0  0  0  0
   -1.6583   -1.5792    0.0000 C   0  0  0  0  0  0  0  0  0  0  0  0
   -0.5250    0.3583    0.0000 C   0  0  0  0  0  0  0  0  0  0  0  0
    1.8042   -2.0167    0.0000 N   0  0  0  0  0  0  0  0  0  0  0  0
    1.8042    0.1125    0.0000 N   0  0  0  0  0  0  0  0  0  0  0  0
    2.5667   -0.9750    0.0000 C   0  0  0  0  0  0  0  0  0  0  0  0
   -2.8208   -2.2167    0.0000 O   0  0  0  0  0  0  0  0  0  0  0  0
   -0.5250    1.6458    0.0000 O   0  0  0  0  0  0  0  0  0  0  0  0
    2.4917    1.3625    0.0000 C   0  0  0  0  0  0  0  0  0  0  0  0
   -0.5250   -3.5875    0.0000 C   0  0  0  0  0  0  0  0  0  0  0  0
   -2.8208    0.3125    0.0000 C   0  0  0  0  0  0  0  0  0  0  0  0
    1.9417    2.3833    0.0000 C   0  0  0  0  0  0  0  0  0  0  0  0
    0.5542    3.1333    0.0000 O   0  0  0  0  0  0  0  0  0  0  0  0
    3.0750    3.5958    0.0000 C   0  0  0  0  0  0  0  0  0  0  0  0
  2  1  2  0
  3  1  1  0
  4  5  1  0
  5  3  1  0
  6  2  1  0
  7  1  1  0
  8  2  1  0
  9  7  2  0
 10  5  2  0
 11  6  2  0
 12  8  1  0
 13  3  1  0
 14  4  1  0
 15 12  1  0
 16 15  1  0
 17 15  1  0
  8  9  1  0
  6  4  1  0
M  END
> <chembl_id>
CHEMBL37390

> <chembl_pref_name>
PROXYPHYLLINE
