
     RDKit          2D

 87 96  0  0  0  0  0  0  0  0999 V2000
    6.6162   -1.8724    0.0000 N   0  0  0  0  0  0  0  0  0  0  0  0
   10.8087   -1.8578    0.0000 N   0  0  0  0  0  0  0  0  0  0  0  0
   10.5516   -2.6342    0.0000 C   0  0  0  0  0  0  0  0  0  0  0  0
    9.4743   -1.8578    0.0000 C   0  0  0  0  0  0  0  0  0  0  0  0
   10.1440   -1.3677    0.0000 C   0  0  0  0  0  0  0  0  0  0  0  0
    9.7315   -2.6342    0.0000 C   0  0  0  0  0  0  0  0  0  0  0  0
    5.8932   -1.4550    0.0000 C   0  0  0  0  0  0  0  0  0  0  0  0
    8.7561   -1.4502    0.0000 C   0  0  0  0  0  0  0  0  0  0  0  0
    7.3295   -1.4550    0.0000 C   0  0  0  0  0  0  0  0  0  0  0  0
    5.8932   -0.6350    0.0000 C   0  0  0  0  0  0  0  0  0  0  0  0
    8.0477   -1.8626    0.0000 C   0  0  0  0  0  0  0  0  0  0  0  0
    4.4666   -0.6350    0.0000 C   0  0  0  0  0  0  0  0  0  0  0  0
    5.1799   -0.2176    0.0000 C   0  0  0  0  0  0  0  0  0  0  0  0
    5.1799   -1.8772    0.0000 C   0  0  0  0  0  0  0  0  0  0  0  0
   11.5124   -1.4357    0.0000 C   0  0  0  0  0  0  0  0  0  0  0  0
    3.7532   -0.2176    0.0000 N   0  0  0  0  0  0  0  0  0  0  0  0
    4.4666   -1.4648    0.0000 C   0  0  0  0  0  0  0  0  0  0  0  0
    6.6065   -0.2176    0.0000 C   0  0  0  0  0  0  0  0  0  0  0  0
    7.3198   -0.6252    0.0000 C   0  0  0  0  0  0  0  0  0  0  0  0
    6.6162   -2.6924    0.0000 C   0  0  0  0  0  0  0  0  0  0  0  0
   11.2649   -3.0418    0.0000 C   0  0  0  0  0  0  0  0  0  0  0  0
   10.1440   -0.5379    0.0000 C   0  0  0  0  0  0  0  0  0  0  0  0
    3.0399   -0.6350    0.0000 C   0  0  0  0  0  0  0  0  0  0  0  0
    3.7532    0.6024    0.0000 C   0  0  0  0  0  0  0  0  0  0  0  0
   11.5075   -0.6107    0.0000 C   0  0  0  0  0  0  0  0  0  0  0  0
   12.2402   -1.8433    0.0000 C   0  0  0  0  0  0  0  0  0  0  0  0
   12.2111   -0.1885    0.0000 C   0  0  0  0  0  0  0  0  0  0  0  0
   12.9487   -1.4259    0.0000 C   0  0  0  0  0  0  0  0  0  0  0  0
   12.9390   -0.5961    0.0000 C   0  0  0  0  0  0  0  0  0  0  0  0
    5.8035   -6.1773    0.0000 N   0  0  0  0  0  0  0  0  0  0  0  0
    9.9961   -6.1627    0.0000 N   0  0  0  0  0  0  0  0  0  0  0  0
    9.7389   -6.9390    0.0000 C   0  0  0  0  0  0  0  0  0  0  0  0
    8.6617   -6.1627    0.0000 C   0  0  0  0  0  0  0  0  0  0  0  0
    9.3313   -5.6725    0.0000 C   0  0  0  0  0  0  0  0  0  0  0  0
    8.9188   -6.9390    0.0000 C   0  0  0  0  0  0  0  0  0  0  0  0
    5.0806   -5.7599    0.0000 C   0  0  0  0  0  0  0  0  0  0  0  0
    7.9435   -5.7551    0.0000 C   0  0  0  0  0  0  0  0  0  0  0  0
    6.5168   -5.7599    0.0000 C   0  0  0  0  0  0  0  0  0  0  0  0
    5.0806   -4.9399    0.0000 C   0  0  0  0  0  0  0  0  0  0  0  0
    7.2351   -6.1675    0.0000 C   0  0  0  0  0  0  0  0  0  0  0  0
    3.6539   -4.9399    0.0000 C   0  0  0  0  0  0  0  0  0  0  0  0
    4.3672   -4.5225    0.0000 C   0  0  0  0  0  0  0  0  0  0  0  0
    4.3672   -6.1820    0.0000 C   0  0  0  0  0  0  0  0  0  0  0  0
   10.6997   -5.7405    0.0000 C   0  0  0  0  0  0  0  0  0  0  0  0
    2.9406   -4.5225    0.0000 N   0  0  0  0  0  0  0  0  0  0  0  0
    3.6539   -5.7696    0.0000 C   0  0  0  0  0  0  0  0  0  0  0  0
    5.7939   -4.5225    0.0000 C   0  0  0  0  0  0  0  0  0  0  0  0
    6.5072   -4.9301    0.0000 C   0  0  0  0  0  0  0  0  0  0  0  0
    5.8035   -6.9972    0.0000 C   0  0  0  0  0  0  0  0  0  0  0  0
   10.4523   -7.3466    0.0000 C   0  0  0  0  0  0  0  0  0  0  0  0
    9.3313   -4.8427    0.0000 C   0  0  0  0  0  0  0  0  0  0  0  0
    2.2273   -4.9399    0.0000 C   0  0  0  0  0  0  0  0  0  0  0  0
    2.9406   -3.7025    0.0000 C   0  0  0  0  0  0  0  0  0  0  0  0
   10.6948   -4.9155    0.0000 C   0  0  0  0  0  0  0  0  0  0  0  0
   11.4276   -6.1481    0.0000 C   0  0  0  0  0  0  0  0  0  0  0  0
   11.3985   -4.4934    0.0000 C   0  0  0  0  0  0  0  0  0  0  0  0
   12.1360   -5.7307    0.0000 C   0  0  0  0  0  0  0  0  0  0  0  0
   12.1264   -4.9010    0.0000 C   0  0  0  0  0  0  0  0  0  0  0  0
    0.0679   -2.1351    0.0000 C   0  0  0  0  0  0  0  0  0  0  0  0
   -1.0773   -6.3422    0.0000 C   0  0  0  0  0  0  0  0  0  0  0  0
   -0.6405   -3.3870    0.0000 C   0  0  0  0  0  0  0  0  0  0  0  0
   -1.0627   -4.9253    0.0000 C   0  0  0  0  0  0  0  0  0  0  0  0
   -0.6551   -5.6386    0.0000 C   0  0  0  0  0  0  0  0  0  0  0  0
    0.0728   -2.9648    0.0000 C   0  0  0  0  0  0  0  0  0  0  0  0
   -0.6405   -4.2120    0.0000 C   0  0  0  0  0  0  0  0  0  0  0  0
   -1.9070   -6.3422    0.0000 C   0  0  0  0  0  0  0  0  0  0  0  0
   -0.6551   -1.7274    0.0000 C   0  0  0  0  0  0  0  0  0  0  0  0
   -0.6600   -7.0653    0.0000 C   0  0  0  0  0  0  0  0  0  0  0  0
    0.7812   -1.7227    0.0000 C   0  0  0  0  0  0  0  0  0  0  0  0
   -1.3587   -2.9746    0.0000 C   0  0  0  0  0  0  0  0  0  0  0  0
   -1.8925   -4.9155    0.0000 C   0  0  0  0  0  0  0  0  0  0  0  0
   -1.3587   -2.1496    0.0000 C   0  0  0  0  0  0  0  0  0  0  0  0
   -2.3050   -5.6241    0.0000 C   0  0  0  0  0  0  0  0  0  0  0  0
   -1.0773   -7.7786    0.0000 O   0  0  0  0  0  0  0  0  0  0  0  0
    0.7715   -0.8977    0.0000 O   0  0  0  0  0  0  0  0  0  0  0  0
    0.7861   -3.3822    0.0000 O   0  0  0  0  0  0  0  0  0  0  0  0
    0.1698   -5.6434    0.0000 O   0  0  0  0  0  0  0  0  0  0  0  0
    1.4651   -2.1303    0.0000 O   0  0  0  0  0  0  0  0  0  0  0  0
    0.1601   -7.0700    0.0000 O   0  0  0  0  0  0  0  0  0  0  0  0
   -2.0720   -3.3870    0.0000 C   0  0  0  0  0  0  0  0  0  0  0  0
   -2.2904   -4.1974    0.0000 C   0  0  0  0  0  0  0  0  0  0  0  0
   -2.0720   -1.7372    0.0000 C   0  0  0  0  0  0  0  0  0  0  0  0
   -3.1299   -5.6143    0.0000 C   0  0  0  0  0  0  0  0  0  0  0  0
   -3.1153   -4.1877    0.0000 C   0  0  0  0  0  0  0  0  0  0  0  0
   -2.7854   -2.9794    0.0000 C   0  0  0  0  0  0  0  0  0  0  0  0
   -3.5375   -4.9010    0.0000 C   0  0  0  0  0  0  0  0  0  0  0  0
   -2.7854   -2.1496    0.0000 C   0  0  0  0  0  0  0  0  0  0  0  0
 29 27  1  0
 18 10  1  0
 13 12  1  0
  3  2  1  0
 28 29  2  0
  2  5  1  0
  3  6  2  0
  4  8  1  0
  5  4  2  0
  6  4  1  0
  7  1  1  0
  8 11  2  0
  9  1  2  0
 10  7  1  0
 11  9  1  0
 12 17  2  0
 13 10  2  0
 14  7  2  0
 15  2  1  0
 16 12  1  0
 17 14  1  0
 18 19  2  0
 19  9  1  0
 20  1  1  0
 21  3  1  0
 22  5  1  0
 23 16  1  0
 24 16  1  0
 25 15  1  0
 26 15  2  0
 27 25  2  0
 28 26  1  0
 58 56  1  0
 47 39  1  0
 42 41  1  0
 32 31  1  0
 57 58  2  0
 31 34  1  0
 32 35  2  0
 33 37  1  0
 34 33  2  0
 35 33  1  0
 36 30  1  0
 37 40  2  0
 38 30  2  0
 39 36  1  0
 40 38  1  0
 41 46  2  0
 42 39  2  0
 43 36  2  0
 44 31  1  0
 45 41  1  0
 46 43  1  0
 47 48  2  0
 48 38  1  0
 49 30  1  0
 50 32  1  0
 51 34  1  0
 52 45  1  0
 53 45  1  0
 54 44  1  0
 55 44  2  0
 56 54  2  0
 57 55  1  0
 60 63  2  0
 61 64  2  0
 62 65  1  0
 63 62  1  0
 64 59  1  0
 65 61  1  0
 66 73  2  0
 67 59  2  0
 68 60  1  0
 69 59  1  0
 70 72  1  0
 71 62  2  0
 72 67  1  0
 73 71  1  0
 74 68  2  0
 75 69  2  0
 76 64  1  0
 77 63  1  0
 78 69  1  0
 79 68  1  0
 80 70  2  0
 81 71  1  0
 82 72  2  0
 83 73  1  0
 84 81  2  0
 85 87  2  0
 86 84  1  0
 87 82  1  0
 70 61  1  0
 85 80  1  0
 60 66  1  0
 86 83  2  0
M  CHG  4   1   1  30   1  78  -1  79  -1
M  END
> <chembl_id>
CHEMBL1908377

> <chembl_pref_name>
PYRVINIUM PAMOATE
