
     RDKit          2D

 22 24  0  0  0  0  0  0  0  0999 V2000
    5.2917   -4.5292    0.0000 C   0  0  0  0  0  0  0  0  0  0  0  0
    4.7542   -4.0917    0.0000 C   0  0  0  0  0  0  0  0  0  0  0  0
    5.9875   -4.3667    0.0000 N   0  0  0  0  0  0  0  0  0  0  0  0
    2.9042   -4.4375    0.0000 N   0  0  0  0  0  0  0  0  0  0  0  0
    4.7417   -3.3792    0.0000 C   0  0  0  0  0  0  0  0  0  0  0  0
    5.3042   -2.9417    0.0000 N   0  0  0  0  0  0  0  0  0  0  0  0
    4.9542   -5.1500    0.0000 C   0  0  0  0  0  0  0  0  0  0  0  0
    4.1292   -4.4417    0.0000 C   0  0  0  0  0  0  0  0  0  0  0  0
    3.5167   -4.0792    0.0000 C   0  0  0  0  0  0  0  0  0  0  0  0
    6.0000   -3.1000    0.0000 C   0  0  0  0  0  0  0  0  0  0  0  0
    2.9000   -5.1500    0.0000 O   0  0  0  0  0  0  0  0  0  0  0  0
    2.2875   -4.0792    0.0000 O   0  0  0  0  0  0  0  0  0  0  0  0
    6.3042   -3.7417    0.0000 C   0  0  0  0  0  0  0  0  0  0  0  0
    5.3125   -5.7625    0.0000 C   0  0  0  0  0  0  0  0  0  0  0  0
    4.1417   -3.0167    0.0000 C   0  0  0  0  0  0  0  0  0  0  0  0
    3.5167   -3.3667    0.0000 C   0  0  0  0  0  0  0  0  0  0  0  0
    6.4417   -2.5417    0.0000 O   0  0  0  0  0  0  0  0  0  0  0  0
    6.0125   -5.7542    0.0000 Cl  0  0  0  0  0  0  0  0  0  0  0  0
    4.2375   -5.1542    0.0000 C   0  0  0  0  0  0  0  0  0  0  0  0
    4.9542   -6.3792    0.0000 C   0  0  0  0  0  0  0  0  0  0  0  0
    3.8917   -5.7667    0.0000 C   0  0  0  0  0  0  0  0  0  0  0  0
    4.2542   -6.3875    0.0000 C   0  0  0  0  0  0  0  0  0  0  0  0
  2  1  1  0
  3  1  2  0
  4  9  1  0
  5  2  1  0
  6  5  1  0
  7  1  1  0
  8  2  2  0
  9  8  1  0
 10 13  1  0
 11  4  1  0
 12  4  2  0
 13  3  1  0
 14  7  2  0
 15  5  2  0
 16  9  2  0
 17 10  2  0
 18 14  1  0
 19  7  1  0
 20 14  1  0
 21 19  2  0
 22 21  1  0
 10  6  1  0
 22 20  2  0
 16 15  1  0
M  CHG  2   4   1  11  -1
M  END
> <chembl_id>
CHEMBL452

> <chembl_pref_name>
CLONAZEPAM
