
     RDKit          2D

 17 17  0  0  0  0  0  0  0  0999 V2000
    5.0949   -2.6253    0.0000 Cl  0  0  0  0  0  0  0  0  0  0  0  0
    0.2404   -3.7843    0.0000 C   0  0  0  0  0  0  0  0  0  0  0  0
    0.2431   -2.9412    0.0000 C   0  0  0  0  0  0  0  0  0  0  0  0
    0.9296   -2.5103    0.0000 C   0  0  0  0  0  0  0  0  0  0  0  0
    1.6593   -2.9795    0.0000 C   0  0  0  0  0  0  0  0  0  0  0  0
    2.4135   -2.5657    0.0000 C   0  0  0  0  0  0  0  0  0  0  0  0
    1.5375   -1.3324    0.0000 Cl  0  0  0  0  0  0  0  0  0  0  0  0
    2.3894   -1.7062    0.0000 C   0  0  0  0  0  0  0  0  0  0  0  0
    3.0961   -1.3137    0.0000 C   0  0  0  0  0  0  0  0  0  0  0  0
    3.8161   -1.7189    0.0000 C   0  0  0  0  0  0  0  0  0  0  0  0
    3.8109   -2.5576    0.0000 C   0  0  0  0  0  0  0  0  0  0  0  0
    3.0988   -2.9574    0.0000 C   0  0  0  0  0  0  0  0  0  0  0  0
    1.6620   -3.7616    0.0000 C   0  0  0  0  0  0  0  0  0  0  0  0
    0.9653   -4.1782    0.0000 C   0  0  0  0  0  0  0  0  0  0  0  0
    0.9282   -1.6936    0.0000 O   0  0  0  0  0  0  0  0  0  0  0  0
    2.2369   -3.5570    0.0000 N   0  0  0  0  0  0  0  0  0  0  0  0
    2.2369   -4.3737    0.0000 C   0  0  0  0  0  0  0  0  0  0  0  0
  2  3  1  0
  4  5  1  0
  4  3  1  0
  5  6  1  1
  6 12  1  0
  7  8  1  0
  8  6  2  0
  9  8  1  0
  9 10  2  0
 11 10  1  0
 12 11  2  0
 13 14  1  0
 13  5  1  0
 14  2  1  0
  4 15  2  0
  5 16  1  6
 16 17  1  0
M  END
> <chembl_id>
CHEMBL2364609

> <chembl_pref_name>
ESKETAMINE HYDROCHLORIDE
