
     RDKit          2D

 15 15  0  0  0  0  0  0  0  0999 V2000
    4.0542   -2.1667    0.0000 C   0  0  0  0  0  0  0  0  0  0  0  0
    3.4417   -1.8292    0.0000 C   0  0  0  0  0  0  0  0  0  0  0  0
    2.8292   -2.2125    0.0000 C   0  0  0  0  0  0  0  0  0  0  0  0
    4.0792   -2.8792    0.0000 O   0  0  0  0  0  0  0  0  0  0  0  0
    2.2125   -1.8625    0.0000 C   0  0  0  0  0  0  0  0  0  0  0  0
    2.8417   -2.9042    0.0000 C   0  0  0  0  0  0  0  0  0  0  0  0
    4.6542   -1.7875    0.0000 O   0  0  0  0  0  0  0  0  0  0  0  0
    1.6167   -2.9417    0.0000 C   0  0  0  0  0  0  0  0  0  0  0  0
    2.2417   -3.2667    0.0000 C   0  0  0  0  0  0  0  0  0  0  0  0
    1.6042   -2.2292    0.0000 C   0  0  0  0  0  0  0  0  0  0  0  0
    1.0042   -3.3042    0.0000 C   0  0  0  0  0  0  0  0  0  0  0  0
    3.4167   -1.1167    0.0000 C   0  0  0  0  0  0  0  0  0  0  0  0
    0.3875   -2.9667    0.0000 C   0  0  0  0  0  0  0  0  0  0  0  0
   -0.2250   -3.3292    0.0000 C   0  0  0  0  0  0  0  0  0  0  0  0
    0.3750   -2.2542    0.0000 C   0  0  0  0  0  0  0  0  0  0  0  0
  2  1  1  0
  3  2  1  0
  4  1  2  0
  5  3  2  0
  6  3  1  0
  7  1  1  0
  8  9  1  0
  9  6  2  0
 10  5  1  0
 11  8  1  0
 12  2  1  0
 13 11  1  0
 14 13  1  0
 15 13  1  0
  8 10  2  0
M  END
> <chembl_id>
CHEMBL521

> <chembl_pref_name>
IBUPROFEN
