
     RDKit          2D

 26 26  0  0  0  0  0  0  0  0999 V2000
   -1.8375   -3.1625    0.0000 S   0  0  0  0  0  0  0  0  0  0  0  0
   -1.2250   -2.8042    0.0000 N   0  0  0  0  0  0  0  0  0  0  0  0
   -1.4875   -3.7750    0.0000 O   0  0  0  0  0  0  0  0  0  0  0  0
   -2.1958   -3.7750    0.0000 O   0  0  0  0  0  0  0  0  0  0  0  0
    0.6792   -3.8917    0.0000 C   0  0  0  0  0  0  0  0  0  0  0  0
    0.6792   -3.1667    0.0000 C   0  0  0  0  0  0  0  0  0  0  0  0
    0.0292   -4.2500    0.0000 C   0  0  0  0  0  0  0  0  0  0  0  0
   -0.5958   -3.1667    0.0000 C   0  0  0  0  0  0  0  0  0  0  0  0
   -2.4542   -2.8125    0.0000 C   0  0  0  0  0  0  0  0  0  0  0  0
    1.2500   -4.2500    0.0000 C   0  0  0  0  0  0  0  0  0  0  0  0
    3.6667   -4.2167    0.0000 N   0  0  0  0  0  0  0  0  0  0  0  0
    0.0292   -2.8000    0.0000 C   0  0  0  0  0  0  0  0  0  0  0  0
   -0.5958   -3.8917    0.0000 C   0  0  0  0  0  0  0  0  0  0  0  0
    1.2500   -5.0542    0.0000 O   0  0  0  0  0  0  0  0  0  0  0  0
    2.4667   -4.2167    0.0000 C   0  0  0  0  0  0  0  0  0  0  0  0
    3.0875   -3.8917    0.0000 C   0  0  0  0  0  0  0  0  0  0  0  0
    1.8917   -3.8917    0.0000 C   0  0  0  0  0  0  0  0  0  0  0  0
    3.6667   -4.9500    0.0000 C   0  0  0  0  0  0  0  0  0  0  0  0
    4.2667   -3.8625    0.0000 C   0  0  0  0  0  0  0  0  0  0  0  0
    4.8417   -4.2167    0.0000 C   0  0  0  0  0  0  0  0  0  0  0  0
    7.2375   -4.2042    0.0000 C   0  0  0  0  0  0  0  0  0  0  0  0
    6.6292   -3.8625    0.0000 C   0  0  0  0  0  0  0  0  0  0  0  0
    5.4667   -3.8625    0.0000 C   0  0  0  0  0  0  0  0  0  0  0  0
    6.0375   -4.2042    0.0000 C   0  0  0  0  0  0  0  0  0  0  0  0
    4.2667   -5.3042    0.0000 C   0  0  0  0  0  0  0  0  0  0  0  0
    7.8292   -3.8625    0.0000 C   0  0  0  0  0  0  0  0  0  0  0  0
  2  1  1  0
  3  1  2  0
  4  1  2  0
  5  7  1  0
  6 12  1  0
  7 13  2  0
  8  2  1  0
  9  1  1  0
 10  5  1  0
 11 16  1  0
 12  8  2  0
 13  8  1  0
 14 10  1  0
 15 17  1  0
 16 15  1  0
 17 10  1  0
 18 11  1  0
 19 11  1  0
 20 19  1  0
 21 22  1  0
 22 24  1  0
 23 20  1  0
 24 23  1  0
 25 18  1  0
 26 21  1  0
  6  5  2  0
M  END
> <chembl_id>
CHEMBL533

> <chembl_pref_name>
IBUTILIDE
