
     RDKit          2D

 18 19  0  0  0  0  0  0  0  0999 V2000
    3.3000   -0.0125    0.0000 C   0  0  0  0  0  0  0  0  0  0  0  0
    1.4125    0.0000    0.0000 C   0  0  0  0  0  0  0  0  0  0  0  0
    2.3792   -0.5542    0.0000 C   0  0  0  0  0  0  0  0  0  0  0  0
    0.4917   -0.5417    0.0000 C   0  0  0  0  0  0  0  0  0  0  0  0
    3.3167    1.0625    0.0000 O   0  0  0  0  0  0  0  0  0  0  0  0
   -0.4833    0.0208    0.0000 C   0  0  0  0  0  0  0  0  0  0  0  0
   -1.4708   -0.5167    0.0000 O   0  0  0  0  0  0  0  0  0  0  0  0
    4.2625   -0.5667    0.0000 O   0  0  0  0  0  0  0  0  0  0  0  0
   -2.4458    0.0083    0.0000 C   0  0  0  0  0  0  0  0  0  0  0  0
    1.4292    1.0833    0.0000 C   0  0  0  0  0  0  0  0  0  0  0  0
    0.4667    1.6375    0.0000 C   0  0  0  0  0  0  0  0  0  0  0  0
   -0.4875    1.1083    0.0000 C   0  0  0  0  0  0  0  0  0  0  0  0
    2.3542   -1.6292    0.0000 C   0  0  0  0  0  0  0  0  0  0  0  0
   -3.3500   -0.5792    0.0000 C   0  0  0  0  0  0  0  0  0  0  0  0
   -2.4458    1.1083    0.0000 C   0  0  0  0  0  0  0  0  0  0  0  0
   -4.3458   -0.0500    0.0000 C   0  0  0  0  0  0  0  0  0  0  0  0
   -3.4625    1.5958    0.0000 C   0  0  0  0  0  0  0  0  0  0  0  0
   -4.3458    1.0083    0.0000 C   0  0  0  0  0  0  0  0  0  0  0  0
  2  3  1  0
  3  1  1  0
  4  2  1  0
  5  1  2  0
  6  4  2  0
  7  6  1  0
  8  1  1  0
  9  7  1  0
 10  2  2  0
 11 10  1  0
 12 11  2  0
 13  3  1  0
 14  9  2  0
 15  9  1  0
 16 14  1  0
 17 15  2  0
 18 17  1  0
  6 12  1  0
 16 18  2  0
M  END
> <chembl_id>
CHEMBL1297

> <chembl_pref_name>
FENOPROFEN
