
     RDKit          2D

 35 37  0  0  0  0  0  0  0  0999 V2000
    3.4292   -2.3750    0.0000 Cl  0  0  0  0  0  0  0  0  0  0  0  0
   -0.0708   -1.3250    0.0000 C   0  0  0  0  0  0  0  0  0  0  0  0
   -1.3000   -1.3125    0.0000 C   0  0  0  0  0  0  0  0  0  0  0  0
    1.1667   -1.3542    0.0000 C   0  0  0  0  0  0  0  0  0  0  0  0
   -0.6833   -1.6750    0.0000 C   0  0  0  0  0  0  0  0  0  0  0  0
    0.5417   -1.7000    0.0000 C   0  0  0  0  0  0  0  0  0  0  0  0
   -0.0583   -0.6250    0.0000 C   0  0  0  0  0  0  0  0  0  0  0  0
    1.1792   -0.6500    0.0000 C   0  0  0  0  0  0  0  0  0  0  0  0
   -1.9333   -1.6500    0.0000 C   0  0  0  0  0  0  0  0  0  0  0  0
   -1.2833   -0.6042    0.0000 C   0  0  0  0  0  0  0  0  0  0  0  0
   -2.5458   -1.2875    0.0000 C   0  0  0  0  0  0  0  0  0  0  0  0
   -1.9083   -0.2375    0.0000 C   0  0  0  0  0  0  0  0  0  0  0  0
   -2.5208   -0.5875    0.0000 C   0  0  0  0  0  0  0  0  0  0  0  0
    0.5667   -0.2875    0.0000 C   0  0  0  0  0  0  0  0  0  0  0  0
   -0.6583   -0.2625    0.0000 C   0  0  0  0  0  0  0  0  0  0  0  0
    1.7792   -1.7250    0.0000 C   0  0  0  0  0  0  0  0  0  0  0  0
    0.5292   -2.4125    0.0000 O   0  0  0  0  0  0  0  0  0  0  0  0
   -1.9458   -2.3750    0.0000 O   0  0  0  0  0  0  0  0  0  0  0  0
    0.5792    0.4375    0.0000 N   0  0  0  0  0  0  0  0  0  0  0  0
   -3.1708   -1.6292    0.0000 C   0  0  0  0  0  0  0  0  0  0  0  0
   -0.0875   -2.0417    0.0000 O   0  0  0  0  0  0  0  0  0  0  0  0
    1.7750   -2.4417    0.0000 O   0  0  0  0  0  0  0  0  0  0  0  0
   -0.6958   -2.3875    0.0000 O   0  0  0  0  0  0  0  0  0  0  0  0
    1.8125   -0.3042    0.0000 O   0  0  0  0  0  0  0  0  0  0  0  0
   -2.2708    0.3833    0.0000 O   0  0  0  0  0  0  0  0  0  0  0  0
    2.4000   -1.3750    0.0000 N   0  0  0  0  0  0  0  0  0  0  0  0
   -3.1458   -0.2167    0.0000 C   0  0  0  0  0  0  0  0  0  0  0  0
   -1.5583    0.3833    0.0000 C   0  0  0  0  0  0  0  0  0  0  0  0
   -3.1833   -2.3500    0.0000 O   0  0  0  0  0  0  0  0  0  0  0  0
   -3.7750   -0.5625    0.0000 C   0  0  0  0  0  0  0  0  0  0  0  0
   -3.7958   -1.2625    0.0000 C   0  0  0  0  0  0  0  0  0  0  0  0
   -0.0333    0.8125    0.0000 C   0  0  0  0  0  0  0  0  0  0  0  0
    1.2125    0.7875    0.0000 C   0  0  0  0  0  0  0  0  0  0  0  0
   -1.2833   -0.0625    0.0000 H   0  0  0  0  0  0  0  0  0  0  0  0
   -0.0750    0.1375    0.0000 H   0  0  0  0  0  0  0  0  0  0  0  0
  3  5  2  0
  4  6  1  0
  5  2  1  0
  6  2  1  0
  7  2  1  0
  8 14  1  0
  9  3  1  0
 10 15  1  0
 11  9  1  0
 12 10  1  0
 13 12  1  0
 14  7  1  0
 15  7  1  0
 16  4  1  0
 17  6  2  0
 18  9  2  0
 14 19  1  6
 20 11  2  0
  2 21  1  6
 22 16  2  0
 23  5  1  0
 24  8  1  0
 12 25  1  1
 26 16  1  0
 27 13  2  0
 28 12  1  0
 29 20  1  0
 30 27  1  0
 31 20  1  0
 32 19  1  0
 33 19  1  0
 10 34  1  6
  7 35  1  6
  3 10  1  0
  4  8  2  0
 13 11  1  0
 30 31  2  0
M  END
> <chembl_id>
CHEMBL454950

> <chembl_pref_name>
TETRACYCLINE HYDROCHLORIDE
