
     RDKit          2D

 22 23  0  0  0  0  0  0  0  0999 V2000
    4.0250   -4.2500    0.0000 Cl  0  0  0  0  0  0  0  0  0  0  0  0
    5.6042   -5.0667    0.0000 C   0  0  0  0  0  0  0  0  0  0  0  0
    4.8917   -5.0667    0.0000 C   0  0  0  0  0  0  0  0  0  0  0  0
    3.8292   -5.6792    0.0000 N   0  0  0  0  0  0  0  0  0  0  0  0
    6.3167   -5.0667    0.0000 C   0  0  0  0  0  0  0  0  0  0  0  0
    4.5375   -5.6792    0.0000 C   0  0  0  0  0  0  0  0  0  0  0  0
    5.6042   -5.7792    0.0000 C   0  0  0  0  0  0  0  0  0  0  0  0
    5.6042   -4.3625    0.0000 O   0  0  0  0  0  0  0  0  0  0  0  0
    3.4750   -6.2917    0.0000 C   0  0  0  0  0  0  0  0  0  0  0  0
    3.4792   -5.0667    0.0000 C   0  0  0  0  0  0  0  0  0  0  0  0
    6.6667   -5.6875    0.0000 C   0  0  0  0  0  0  0  0  0  0  0  0
    6.6667   -4.4625    0.0000 C   0  0  0  0  0  0  0  0  0  0  0  0
    6.1792   -6.2042    0.0000 C   0  0  0  0  0  0  0  0  0  0  0  0
    5.0375   -6.1917    0.0000 C   0  0  0  0  0  0  0  0  0  0  0  0
    2.7667   -5.0667    0.0000 C   0  0  0  0  0  0  0  0  0  0  0  0
    2.7625   -6.2917    0.0000 C   0  0  0  0  0  0  0  0  0  0  0  0
    7.3792   -4.4625    0.0000 C   0  0  0  0  0  0  0  0  0  0  0  0
    7.3792   -5.6875    0.0000 C   0  0  0  0  0  0  0  0  0  0  0  0
    5.2542   -6.8667    0.0000 C   0  0  0  0  0  0  0  0  0  0  0  0
    5.9625   -6.8667    0.0000 C   0  0  0  0  0  0  0  0  0  0  0  0
    7.7375   -5.0667    0.0000 C   0  0  0  0  0  0  0  0  0  0  0  0
    2.4125   -5.6792    0.0000 C   0  0  0  0  0  0  0  0  0  0  0  0
  3  2  1  0
  4  6  1  0
  5  2  1  0
  6  3  1  0
  7  2  1  0
  8  2  1  0
  9  4  1  0
 10  4  1  0
 11  5  1  0
 12  5  2  0
 13  7  1  0
 14  7  1  0
 15 10  1  0
 16  9  1  0
 17 12  1  0
 18 11  2  0
 19 14  1  0
 20 13  1  0
 21 18  1  0
 22 16  1  0
 20 19  1  0
 21 17  2  0
 22 15  1  0
M  END
> <chembl_id>
CHEMBL1200828

> <chembl_pref_name>
CYCRIMINE HYDROCHLORIDE
