
     RDKit          2D

 54 58  0  0  0  0  0  0  0  0999 V2000
   -2.1583   -7.6250    0.0000 Na  0  0  0  0  0 15  0  0  0  0  0  0
    6.0125   -8.7167    0.0000 N   0  0  0  0  0  0  0  0  0  0  0  0
    6.7208   -8.7167    0.0000 C   0  0  0  0  0  0  0  0  0  0  0  0
    0.6667   -8.7167    0.0000 N   0  0  0  0  0  0  0  0  0  0  0  0
    0.3125   -9.8083    0.0000 C   0  0  0  0  0  0  0  0  0  0  0  0
    0.8875   -9.3917    0.0000 C   0  0  0  0  0  0  0  0  0  0  0  0
    5.7958   -9.3917    0.0000 C   0  0  0  0  0  0  0  0  0  0  0  0
    6.3667   -9.8083    0.0000 C   0  0  0  0  0  0  0  0  0  0  0  0
    6.9417   -9.3917    0.0000 C   0  0  0  0  0  0  0  0  0  0  0  0
   -0.2583   -9.3917    0.0000 C   0  0  0  0  0  0  0  0  0  0  0  0
   -0.0417   -8.7167    0.0000 C   0  0  0  0  0  0  0  0  0  0  0  0
   -0.5750   -7.3167    0.0000 S   0  0  0  0  0  0  0  0  0  0  0  0
    7.2333   -7.2958    0.0000 S   0  0  0  0  0  0  0  0  0  0  0  0
    7.6333   -9.5333    0.0000 C   0  0  0  0  0  0  0  0  0  0  0  0
   -0.9458   -9.5375    0.0000 C   0  0  0  0  0  0  0  0  0  0  0  0
    7.1917   -8.1875    0.0000 C   0  0  0  0  0  0  0  0  0  0  0  0
   -0.5125   -8.1958    0.0000 C   0  0  0  0  0  0  0  0  0  0  0  0
   -1.1833   -7.6792    0.0000 O   0  0  0  0  0  0  0  0  0  0  0  0
    7.8458   -7.6500    0.0000 O   0  0  0  0  0  0  0  0  0  0  0  0
    1.5000   -9.7417    0.0000 C   0  0  0  0  0  0  0  0  0  0  0  0
    5.1792   -9.7417    0.0000 C   0  0  0  0  0  0  0  0  0  0  0  0
   -0.2250   -6.7000    0.0000 O   0  0  0  0  0  0  0  0  0  0  0  0
   -0.9333   -6.7000    0.0000 O   0  0  0  0  0  0  0  0  0  0  0  0
    7.5792   -6.6792    0.0000 O   0  0  0  0  0  0  0  0  0  0  0  0
    6.8750   -6.6792    0.0000 O   0  0  0  0  0  0  0  0  0  0  0  0
    2.1125   -9.3917    0.0000 C   0  0  0  0  0  0  0  0  0  0  0  0
    4.5667   -9.3917    0.0000 C   0  0  0  0  0  0  0  0  0  0  0  0
    3.9542   -9.7417    0.0000 C   0  0  0  0  0  0  0  0  0  0  0  0
    3.3417   -9.3917    0.0000 C   0  0  0  0  0  0  0  0  0  0  0  0
    2.7292   -9.7417    0.0000 C   0  0  0  0  0  0  0  0  0  0  0  0
    5.3917   -8.3625    0.0000 C   0  0  0  0  0  0  0  0  0  0  0  0
   -1.4167   -9.0208    0.0000 C   0  0  0  0  0  0  0  0  0  0  0  0
    8.1083   -9.0042    0.0000 C   0  0  0  0  0  0  0  0  0  0  0  0
   -1.2042   -8.3458    0.0000 C   0  0  0  0  0  0  0  0  0  0  0  0
    7.8833   -8.3292    0.0000 C   0  0  0  0  0  0  0  0  0  0  0  0
    1.2792   -8.3542    0.0000 C   0  0  0  0  0  0  0  0  0  0  0  0
    0.6625  -10.4167    0.0000 C   0  0  0  0  0  0  0  0  0  0  0  0
   -0.0458  -10.4167    0.0000 C   0  0  0  0  0  0  0  0  0  0  0  0
    6.7167  -10.4167    0.0000 C   0  0  0  0  0  0  0  0  0  0  0  0
    6.0042  -10.4167    0.0000 C   0  0  0  0  0  0  0  0  0  0  0  0
    0.0417   -7.6625    0.0000 C   0  0  0  0  0  0  0  0  0  0  0  0
    6.6208   -7.6500    0.0000 C   0  0  0  0  0  0  0  0  0  0  0  0
   -1.1542  -10.2042    0.0000 C   0  0  0  0  0  0  0  0  0  0  0  0
    7.8542  -10.2042    0.0000 C   0  0  0  0  0  0  0  0  0  0  0  0
    8.7958   -9.1500    0.0000 C   0  0  0  0  0  0  0  0  0  0  0  0
   -2.1000   -9.1708    0.0000 C   0  0  0  0  0  0  0  0  0  0  0  0
    5.3917   -7.6542    0.0000 C   0  0  0  0  0  0  0  0  0  0  0  0
    1.2667   -7.6500    0.0000 C   0  0  0  0  0  0  0  0  0  0  0  0
    0.6500   -7.3000    0.0000 C   0  0  0  0  0  0  0  0  0  0  0  0
    6.0083   -7.2958    0.0000 C   0  0  0  0  0  0  0  0  0  0  0  0
    8.5458  -10.3500    0.0000 C   0  0  0  0  0  0  0  0  0  0  0  0
   -1.8375  -10.3542    0.0000 C   0  0  0  0  0  0  0  0  0  0  0  0
   -2.3125   -9.8375    0.0000 C   0  0  0  0  0  0  0  0  0  0  0  0
    9.0208   -9.8167    0.0000 C   0  0  0  0  0  0  0  0  0  0  0  0
  3  2  1  0
  4  6  1  0
  5  6  1  0
  6 20  2  0
  7  2  2  0
  8  7  1  0
  9  3  2  0
 10  5  1  0
 11  4  1  0
 12 41  1  0
 13 42  1  0
 14  9  1  0
 15 10  1  0
 16  3  1  0
 17 11  1  0
 18 12  1  0
 19 13  1  0
 20 26  1  0
 21  7  1  0
 22 12  2  0
 23 12  2  0
 24 13  2  0
 25 13  2  0
 26 30  2  0
 27 21  2  0
 28 27  1  0
 29 28  2  0
 30 29  1  0
 31  2  1  0
 32 15  1  0
 33 35  1  0
 34 17  2  0
 35 16  2  0
 36  4  1  0
 37  5  1  0
 38  5  1  0
 39  8  1  0
 40  8  1  0
 41 49  1  0
 42 50  1  0
 43 15  2  0
 44 14  2  0
 45 33  2  0
 46 32  2  0
 47 31  1  0
 48 36  1  0
 49 48  1  0
 50 47  1  0
 51 44  1  0
 52 43  1  0
 53 52  2  0
 54 45  1  0
  8  9  1  0
 14 33  1  0
 54 51  2  0
 11 10  2  0
 32 34  1  0
 53 46  1  0
M  CHG  4   1   1   2   1  18  -1  19  -1
M  END
> <chembl_id>
CHEMBL1646

> <chembl_pref_name>
INDOCYANINE GREEN
