
     RDKit          2D

 26 29  0  0  0  0  0  0  0  0999 V2000
   -5.1338    1.2735    0.0000 C   0  0  0  0  0  0  0  0  0  0  0  0
   -5.8371    0.8423    0.0000 C   0  0  0  0  0  0  0  0  0  0  0  0
   -5.8154    0.0176    0.0000 C   0  0  0  0  0  0  0  0  0  0  0  0
   -5.1276   -0.4152    0.0000 C   0  0  0  0  0  0  0  0  0  0  0  0
   -4.3869    0.0553    0.0000 C   0  0  0  0  0  0  0  0  0  0  0  0
   -4.4087    0.8800    0.0000 C   0  0  0  0  0  0  0  0  0  0  0  0
   -3.6141    1.3795    0.0000 O   0  0  0  0  0  0  0  0  0  0  0  0
   -3.7681   -0.3531    0.0000 C   0  0  0  0  0  0  0  0  0  0  0  0
   -3.0815   -0.3242    0.0000 C   0  0  0  0  0  0  0  0  0  0  0  0
   -3.7691   -1.1778    0.0000 N   0  0  0  0  0  0  0  0  0  0  0  0
   -3.0441   -1.5714    0.0000 C   0  0  0  0  0  0  0  0  0  0  0  0
   -2.3407   -1.1402    0.0000 N   0  0  0  0  0  0  0  0  0  0  0  0
   -3.0046   -2.4019    0.0000 C   0  0  0  0  0  0  0  0  0  0  0  0
   -2.2519   -2.7396    0.0000 C   0  0  0  0  0  0  0  0  0  0  0  0
   -1.5831   -2.2566    0.0000 N   0  0  0  0  0  0  0  0  0  0  0  0
   -1.6156   -1.5337    0.0000 C   0  0  0  0  0  0  0  0  0  0  0  0
   -6.5187   -0.4136    0.0000 F   0  0  0  0  0  0  0  0  0  0  0  0
   -2.8255    1.0749    0.0000 C   0  0  0  0  0  0  0  0  0  0  0  0
   -2.6160    0.2646    0.0000 C   0  0  0  0  0  0  0  0  0  0  0  0
   -1.5693    0.2680    0.0000 N   0  0  0  0  0  0  0  0  0  0  0  0
   -2.2086    1.8050    0.0000 C   0  0  0  0  0  0  0  0  0  0  0  0
   -0.9424   -0.2455    0.0000 C   0  0  0  0  0  0  0  0  0  0  0  0
   -0.9123   -1.1025    0.0000 C   0  0  0  0  0  0  0  0  0  0  0  0
   -0.3620   -1.7172    0.0000 C   0  0  0  0  0  0  0  0  0  0  0  0
   -0.7766   -2.4305    0.0000 N   0  0  0  0  0  0  0  0  0  0  0  0
   -0.0568    0.0903    0.0000 O   0  0  0  0  0  0  0  0  0  0  0  0
  1  2  2  0
  2  3  1  0
  3  4  2  0
  4  5  1  0
  5  6  2  0
  1  6  1  0
  5  8  1  0
  7  6  1  0
 10 11  1  0
 11 12  2  0
  8 10  1  0
  8  9  1  1
 13 14  2  0
 14 15  1  0
 15 16  1  0
 11 13  1  0
 12 16  1  0
  3 17  1  0
  7 18  1  0
 18 19  1  0
 19 20  1  0
 18 21  1  1
 20 22  1  0
 16 23  2  0
 23 24  1  0
 24 25  2  0
 25 15  1  0
 22 26  2  0
 22 23  1  0
M  END
> <chembl_id>
CHEMBL4298138

> <chembl_pref_name>
REPOTRECTINIB
