
     RDKit          2D

 34 36  0  0  1  0  0  0  0  0999 V2000
    5.0972   -3.4456    0.0000 O   0  0  0  0  0  0  0  0  0  0  0  0
    6.5261   -1.7956    0.0000 O   0  0  0  0  0  0  0  0  0  0  0  0
    8.6695    2.7419    0.0000 O   0  0  0  0  0  0  0  0  0  0  0  0
   10.8129    3.1544    0.0000 O   0  0  0  0  0  0  0  0  0  0  0  0
    9.3840    3.1544    0.0000 O   0  0  0  0  0  0  0  0  0  0  0  0
   12.9564    1.9169    0.0000 O   0  0  0  0  0  0  0  0  0  0  0  0
   12.2419    0.6794    0.0000 O   0  0  0  0  0  0  0  0  0  0  0  0
    5.0972   -1.7956    0.0000 N   0  0  0  0  0  0  0  0  0  0  0  0
    3.6682   -0.9706    0.0000 N   0  0  0  0  0  0  0  0  0  0  0  0
    2.9538   -2.2081    0.0000 N   0  0  0  0  0  0  0  0  0  0  0  0
    3.6682   -3.4456    0.0000 N   0  0  0  0  0  0  0  0  0  0  0  0
    5.8116    0.2669    0.0000 N   0  0  0  0  0  0  0  0  0  0  0  0
    2.2393   -3.4456    0.0000 N   0  0  0  0  0  0  0  0  0  0  0  0
    9.3840    1.5044    0.0000 N   0  0  0  0  0  0  0  0  0  0  0  0
    4.3827   -2.2081    0.0000 C   0  0  0  0  0  0  0  0  0  0  0  0
    3.6682   -1.7956    0.0000 C   0  0  0  0  0  0  0  0  0  0  0  0
    5.0972   -0.9706    0.0000 C   0  0  0  0  0  0  0  0  0  0  0  0
    4.3827   -3.0331    0.0000 C   0  0  0  0  0  0  0  0  0  0  0  0
    4.3827   -0.5581    0.0000 C   0  0  0  0  0  0  0  0  0  0  0  0
    2.9538   -3.0331    0.0000 C   0  0  0  0  0  0  0  0  0  0  0  0
    5.8116   -2.2081    0.0000 C   0  0  0  0  0  0  0  0  0  0  0  0
    5.8116   -0.5581    0.0000 C   0  0  0  0  0  0  0  0  0  0  0  0
    6.5261    0.6794    0.0000 C   0  0  0  0  0  0  0  0  0  0  0  0
    7.9551    1.5044    0.0000 C   0  0  0  0  0  0  0  0  0  0  0  0
    8.6695    1.9169    0.0000 C   0  0  0  0  0  0  0  0  0  0  0  0
    6.5261    1.5044    0.0000 C   0  0  0  0  0  0  0  0  0  0  0  0
    7.2406    0.2669    0.0000 C   0  0  0  0  0  0  0  0  0  0  0  0
    7.2406    1.9169    0.0000 C   0  0  0  0  0  0  0  0  0  0  0  0
    7.9551    0.6794    0.0000 C   0  0  0  0  0  0  0  0  0  0  0  0
   10.0985    1.9169    0.0000 C   0  0  0  0  0  0  0  0  0  0  0  0
   10.0985    2.7419    0.0000 C   0  0  0  0  0  0  0  0  0  0  0  0
   10.8129    1.5044    0.0000 C   0  0  0  0  0  0  0  0  0  0  0  0
   11.5274    1.9169    0.0000 C   0  0  0  0  0  0  0  0  0  0  0  0
   12.2419    1.5044    0.0000 C   0  0  0  0  0  0  0  0  0  0  0  0
  1 18  2  0
  2 21  2  0
  3 25  2  0
  4 31  1  0
  5 31  2  0
  6 34  1  0
  7 34  2  0
  8 15  1  0
  8 17  1  0
  8 21  1  0
  9 16  1  0
  9 19  1  0
 10 16  1  0
 10 20  1  0
 11 18  1  0
 11 20  2  0
 12 22  1  0
 12 23  1  0
 13 20  1  0
 14 25  1  0
 30 14  1  6
 15 16  2  0
 15 18  1  0
 17 19  1  0
 17 22  1  1
 23 26  2  0
 23 27  1  0
 24 25  1  0
 24 28  2  0
 24 29  1  0
 26 28  1  0
 27 29  2  0
 30 31  1  0
 30 32  1  0
 32 33  1  0
 33 34  1  0
M  END
> <chembl_id>
CHEMBL1232801

> <chembl_pref_name>
FOLINIC ACID
