
     RDKit          2D

 21 22  0  0  0  0  0  0  0  0999 V2000
    7.6667   -7.3917    0.0000 N   0  0  0  0  0  0  0  0  0  0  0  0
    8.9042   -8.1000    0.0000 O   0  0  0  0  0  0  0  0  0  0  0  0
    4.6042   -7.0292    0.0000 C   0  0  0  0  0  0  0  0  0  0  0  0
    3.3792   -6.3125    0.0000 C   0  0  0  0  0  0  0  0  0  0  0  0
    3.3667   -7.0292    0.0000 C   0  0  0  0  0  0  0  0  0  0  0  0
    3.9917   -5.9542    0.0000 C   0  0  0  0  0  0  0  0  0  0  0  0
    3.9875   -7.3792    0.0000 C   0  0  0  0  0  0  0  0  0  0  0  0
    4.6042   -6.3167    0.0000 C   0  0  0  0  0  0  0  0  0  0  0  0
    7.0542   -7.0417    0.0000 C   0  0  0  0  0  0  0  0  0  0  0  0
    6.4417   -7.3792    0.0000 C   0  0  0  0  0  0  0  0  0  0  0  0
    5.2125   -7.3792    0.0000 O   0  0  0  0  0  0  0  0  0  0  0  0
    2.7542   -5.9542    0.0000 O   0  0  0  0  0  0  0  0  0  0  0  0
    8.2792   -7.0417    0.0000 C   0  0  0  0  0  0  0  0  0  0  0  0
    7.6750   -8.0917    0.0000 C   0  0  0  0  0  0  0  0  0  0  0  0
    8.9000   -7.4000    0.0000 C   0  0  0  0  0  0  0  0  0  0  0  0
    8.2917   -8.4542    0.0000 C   0  0  0  0  0  0  0  0  0  0  0  0
    5.8292   -7.0250    0.0000 C   0  0  0  0  0  0  0  0  0  0  0  0
    2.1542   -6.3167    0.0000 C   0  0  0  0  0  0  0  0  0  0  0  0
    1.5292   -5.9625    0.0000 C   0  0  0  0  0  0  0  0  0  0  0  0
    0.9167   -6.3125    0.0000 C   0  0  0  0  0  0  0  0  0  0  0  0
    0.3000   -5.9542    0.0000 C   0  0  0  0  0  0  0  0  0  0  0  0
  2 15  1  0
  3 11  1  0
  4  5  1  0
  5  7  2  0
  6  8  1  0
  7  3  1  0
  8  3  2  0
  9  1  1  0
 10  9  1  0
 11 17  1  0
 12  4  1  0
 13  1  1  0
 14  1  1  0
 15 13  1  0
 16 14  1  0
 17 10  1  0
 18 12  1  0
 19 18  1  0
 20 19  1  0
 21 20  1  0
  2 16  1  0
  4  6  2  0
M  END
> <chembl_id>
CHEMBL1198

> <chembl_pref_name>
PRAMOXINE
