
     RDKit          2D

 19 20  0  0  0  0  0  0  0  0999 V2000
    2.4157   -4.0325    0.0000 C   0  0  0  0  0  0  0  0  0  0  0  0
    1.7007   -3.6209    0.0000 C   0  0  0  0  0  0  0  0  0  0  0  0
    2.4157   -4.8473    0.0000 C   0  0  0  0  0  0  0  0  0  0  0  0
    3.1265   -3.6209    0.0000 C   0  0  0  0  0  0  0  0  0  0  0  0
    1.7007   -5.2671    0.0000 C   0  0  0  0  0  0  0  0  0  0  0  0
    3.1265   -5.2671    0.0000 C   0  0  0  0  0  0  0  0  0  0  0  0
    3.8374   -4.0325    0.0000 N   0  0  0  0  0  0  0  0  0  0  0  0
    1.8004   -2.8020    0.0000 O   0  0  0  0  0  0  0  0  0  0  0  0
    2.4157   -6.5017    0.0000 C   0  0  0  0  0  0  0  0  0  0  0  0
    3.1265   -6.0901    0.0000 C   0  0  0  0  0  0  0  0  0  0  0  0
    1.7007   -6.0901    0.0000 C   0  0  0  0  0  0  0  0  0  0  0  0
    2.4157   -7.3248    0.0000 O   0  0  0  0  0  0  0  0  0  0  0  0
    1.2891   -4.3359    0.0000 C   0  0  0  0  0  0  0  0  0  0  0  0
    0.9067   -3.8454    0.0000 C   0  0  0  0  0  0  0  0  0  0  0  0
    3.8374   -4.8473    0.0000 C   0  0  0  0  0  0  0  0  0  0  0  0
    4.5482   -3.6209    0.0000 C   0  0  0  0  0  0  0  0  0  0  0  0
    0.4910   -4.1073    0.0000 C   0  0  0  0  0  0  0  0  0  0  0  0
    0.1086   -3.6209    0.0000 C   0  0  0  0  0  0  0  0  0  0  0  0
   -0.3029   -4.3359    0.0000 C   0  0  0  0  0  0  0  0  0  0  0  0
  2  1  1  0
  3  1  1  0
  4  1  1  0
  5  3  1  0
  6  3  2  0
  7  4  1  0
  8  2  1  0
  9 10  2  0
 10  6  1  0
 11  5  2  0
 12  9  1  0
 13  2  1  0
 14  2  1  0
 15  7  1  0
 16  7  1  0
 17 13  1  0
 18 14  1  0
 19 18  1  0
  9 11  1  0
 17 19  1  0
M  END
> <chembl_id>
CHEMBL1118

> <chembl_pref_name>
DESVENLAFAXINE
