
     RDKit          2D

 37 43  0  0  0  0  0  0  0  0999 V2000
    4.6754   -5.9007    0.0000 C   0  0  0  0  0  0  0  0  0  0  0  0
    5.0774   -5.1900    0.0000 C   0  0  0  0  0  0  0  0  0  0  0  0
    5.0774   -6.6064    0.0000 C   0  0  0  0  0  0  0  0  0  0  0  0
    5.9007   -6.6162    0.0000 C   0  0  0  0  0  0  0  0  0  0  0  0
    3.8423   -5.9007    0.0000 C   0  0  0  0  0  0  0  0  0  0  0  0
    6.3124   -5.9007    0.0000 C   0  0  0  0  0  0  0  0  0  0  0  0
    3.4404   -6.6162    0.0000 C   0  0  0  0  0  0  0  0  0  0  0  0
    4.2246   -7.0279    0.0000 O   0  0  0  0  0  0  0  0  0  0  0  0
    4.6754   -4.4745    0.0000 C   0  0  0  0  0  0  0  0  0  0  0  0
    5.0871   -3.7541    0.0000 N   0  0  0  0  0  0  0  0  0  0  0  0
    3.4257   -5.1900    0.0000 C   0  0  0  0  0  0  0  0  0  0  0  0
    5.9007   -5.1803    0.0000 C   0  0  0  0  0  0  0  0  0  0  0  0
    7.0328   -5.4743    0.0000 C   0  0  0  0  0  0  0  0  0  0  0  0
    3.8423   -4.4745    0.0000 C   0  0  0  0  0  0  0  0  0  0  0  0
    5.1753   -5.8075    0.0000 C   0  0  0  0  0  0  0  0  0  0  0  0
    5.7831   -6.0183    0.0000 C   0  0  0  0  0  0  0  0  0  0  0  0
    4.2540   -5.1803    0.0000 C   0  0  0  0  0  0  0  0  0  0  0  0
    5.7978   -3.3424    0.0000 C   0  0  0  0  0  0  0  0  0  0  0  0
    7.7532   -5.8860    0.0000 C   0  0  0  0  0  0  0  0  0  0  0  0
    2.6171   -6.6211    0.0000 C   0  0  0  0  0  0  0  0  0  0  0  0
    6.5182   -3.7541    0.0000 C   0  0  0  0  0  0  0  0  0  0  0  0
    4.2540   -3.7541    0.0000 C   0  0  0  0  0  0  0  0  0  0  0  0
    6.9299   -4.4745    0.0000 C   0  0  0  0  0  0  0  0  0  0  0  0
    7.3416   -3.7541    0.0000 C   0  0  0  0  0  0  0  0  0  0  0  0
    2.6024   -5.1950    0.0000 C   0  0  0  0  0  0  0  0  0  0  0  0
    6.3124   -7.3269    0.0000 O   0  0  0  0  0  0  0  0  0  0  0  0
    2.1956   -5.9154    0.0000 C   0  0  0  0  0  0  0  0  0  0  0  0
    7.4395   -4.7637    0.0000 O   0  0  0  0  0  0  0  0  0  0  0  0
    2.2103   -7.3416    0.0000 O   0  0  0  0  0  0  0  0  0  0  0  0
    6.6064   -4.7637    0.0000 C   0  0  0  0  0  0  0  0  0  0  0  0
    8.4590   -5.4596    0.0000 C   0  0  0  0  0  0  0  0  0  0  0  0
    7.3269   -6.6015    0.0000 C   0  0  0  0  0  0  0  0  0  0  0  0
    8.1502   -6.6015    0.0000 C   0  0  0  0  0  0  0  0  0  0  0  0
    5.9007   -8.0473    0.0000 C   0  0  0  0  0  0  0  0  0  0  0  0
    6.5681   -4.9339    0.0000 H   0  0  0  0  0  0  0  0  0  0  0  0
    4.1735   -3.6096    0.0000 H   0  0  0  0  0  0  0  0  0  0  0  0
    5.2991   -7.5815    0.0000 H   0  0  0  0  0  0  0  0  0  0  0  0
  2  1  1  0
  3  1  1  0
  4  3  1  0
  5  1  1  0
  6  4  1  0
  7  5  1  0
  3  8  1  0
  9  2  1  0
 10 22  1  0
 11  5  2  0
  2 12  1  1
  6 13  1  0
 14 11  1  0
  2 15  1  0
  4 16  1  0
  1 17  1  1
 18 10  1  0
 19 13  1  0
 20  7  2  0
 21 18  1  0
 22 17  1  0
 23 21  1  0
 24 21  1  0
 25 11  1  0
  4 26  1  1
 27 25  2  0
 13 28  1  6
 29 20  1  0
 30 13  1  0
 31 19  1  0
 32 19  1  0
 33 19  1  0
 34 26  1  0
  6 35  1  1
  7  8  1  0
  6 12  1  0
  9 10  1  0
  9 14  1  0
 15 16  1  0
 27 20  1  0
 24 23  1  0
  9 36  1  6
  3 37  1  1
M  END
> <chembl_id>
CHEMBL511142

> <chembl_pref_name>
BUPRENORPHINE
