
     RDKit          2D

 10  9  0  0  1  0  0  0  0  0999 V2000
   -1.5583   -2.5750    0.0000 C   0  0  0  0  0  0  0  0  0  0  0  0
   -0.8958   -2.1917    0.0000 C   0  0  0  0  0  0  0  0  0  0  0  0
    1.7542   -2.1917    0.0000 N   0  0  0  0  0  0  0  0  0  0  0  0
   -0.2333   -2.5750    0.0000 C   0  0  0  0  0  0  0  0  0  0  0  0
    1.0917   -2.5750    0.0000 C   0  0  0  0  0  0  0  0  0  0  0  0
   -2.2208   -2.1917    0.0000 C   0  0  0  0  0  0  0  0  0  0  0  0
   -1.5583   -3.3375    0.0000 C   0  0  0  0  0  0  0  0  0  0  0  0
    2.4125   -2.5792    0.0000 C   0  0  0  0  0  0  0  0  0  0  0  0
    0.4292   -2.1917    0.0000 C   0  0  0  0  0  0  0  0  0  0  0  0
    1.0917   -3.3375    0.0000 C   0  0  0  0  0  0  0  0  0  0  0  0
  2  1  2  0
  3  5  1  0
  4  2  1  0
  5  9  1  0
  6  1  1  0
  7  1  1  0
  8  3  1  0
  9  4  1  0
 10  5  1  0
M  END
> <chembl_id>
CHEMBL1697841

> <chembl_pref_name>
ISOMETHEPTENE
