
     RDKit          2D

 27 27  0  0  0  0  0  0  0  0999 V2000
   -1.6708   -6.7667    0.0000 N   0  0  0  0  0  0  0  0  0  0  0  0
    2.6208   -5.6708    0.0000 C   0  0  0  0  0  0  0  0  0  0  0  0
    2.0042   -5.3250    0.0000 N   0  0  0  0  0  0  0  0  0  0  0  0
    1.4167   -5.6917    0.0000 C   0  0  0  0  0  0  0  0  0  0  0  0
   -1.0583   -6.4292    0.0000 C   0  0  0  0  0  0  0  0  0  0  0  0
    3.2458   -5.3042    0.0000 C   0  0  0  0  0  0  0  0  0  0  0  0
    0.8042   -5.3500    0.0000 C   0  0  0  0  0  0  0  0  0  0  0  0
   -2.2958   -6.4375    0.0000 O   0  0  0  0  0  0  0  0  0  0  0  0
    3.9292   -7.7375    0.0000 C   0  0  0  0  0  0  0  0  0  0  0  0
    2.0708   -7.4542    0.0000 C   0  0  0  0  0  0  0  0  0  0  0  0
   -1.6833   -7.4792    0.0000 O   0  0  0  0  0  0  0  0  0  0  0  0
    0.1750   -5.7000    0.0000 C   0  0  0  0  0  0  0  0  0  0  0  0
    2.6500   -6.3833    0.0000 O   0  0  0  0  0  0  0  0  0  0  0  0
    1.4375   -6.3917    0.0000 C   0  0  0  0  0  0  0  0  0  0  0  0
    4.5292   -7.3667    0.0000 O   0  0  0  0  0  0  0  0  0  0  0  0
    2.0542   -6.7417    0.0000 O   0  0  0  0  0  0  0  0  0  0  0  0
    3.9458   -8.4208    0.0000 O   0  0  0  0  0  0  0  0  0  0  0  0
    1.4583   -7.8292    0.0000 O   0  0  0  0  0  0  0  0  0  0  0  0
   -0.4333   -6.7625    0.0000 C   0  0  0  0  0  0  0  0  0  0  0  0
   -1.0583   -5.7167    0.0000 C   0  0  0  0  0  0  0  0  0  0  0  0
   -0.4375   -5.3542    0.0000 C   0  0  0  0  0  0  0  0  0  0  0  0
    0.1750   -6.3917    0.0000 C   0  0  0  0  0  0  0  0  0  0  0  0
    3.3042   -7.4042    0.0000 C   0  0  0  0  0  0  0  0  0  0  0  0
    2.7000   -7.7917    0.0000 C   0  0  0  0  0  0  0  0  0  0  0  0
    3.8708   -5.6417    0.0000 Cl  0  0  0  0  0  0  0  0  0  0  0  0
    3.2208   -4.5875    0.0000 Cl  0  0  0  0  0  0  0  0  0  0  0  0
    0.8042   -4.6417    0.0000 O   0  0  0  0  0  0  0  0  0  0  0  0
  2  3  1  0
  3  4  1  0
  4  7  1  0
  5  1  1  0
  6  2  1  0
  7 12  1  0
  8  1  1  0
  9 23  1  0
 10 16  1  0
 11  1  2  0
 12 22  2  0
 13  2  2  0
  4 14  1  6
 15  9  1  0
 16 14  1  0
 17  9  2  0
 18 10  2  0
 19  5  2  0
 20  5  1  0
 21 20  2  0
 22 19  1  0
 23 24  1  0
 24 10  1  0
 25  6  1  0
 26  6  1  0
  7 27  1  1
 12 21  1  0
M  CHG  2   1   1   8  -1
M  END
> <chembl_id>
CHEMBL1201281

> <chembl_pref_name>
CHLORAMPHENICOL SUCCINIC ACID
