
     RDKit          2D

 29 30  0  0  0  0  0  0  0  0999 V2000
   -1.6500   -1.2080    0.0000 Cl  0  0  0  0  0  0  0  0  0  0  0  0
   -4.1755    3.1377    0.0000 N   0  0  0  0  0  0  0  0  0  0  0  0
   -4.8900    2.7252    0.0000 C   0  0  0  0  0  0  0  0  0  0  0  0
   -4.3066    2.1419    0.0000 C   0  0  0  0  0  0  0  0  0  0  0  0
   -3.5922    2.5544    0.0000 C   0  0  0  0  0  0  0  0  0  0  0  0
   -2.7953    2.3408    0.0000 C   0  0  0  0  0  0  0  0  0  0  0  0
   -3.2078    3.0553    0.0000 C   0  0  0  0  0  0  0  0  0  0  0  0
   -4.1755    3.9627    0.0000 C   0  0  0  0  0  0  0  0  0  0  0  0
   -3.3505    3.9627    0.0000 C   0  0  0  0  0  0  0  0  0  0  0  0
   -5.6045    2.3127    0.0000 C   0  0  0  0  0  0  0  0  0  0  0  0
   -5.6045    1.4877    0.0000 C   0  0  0  0  0  0  0  0  0  0  0  0
   -6.3189    1.0752    0.0000 C   0  0  0  0  0  0  0  0  0  0  0  0
   -6.3189    0.2502    0.0000 C   0  0  0  0  0  0  0  0  0  0  0  0
   -5.6045   -0.1623    0.0000 N   0  0  0  0  0  0  0  0  0  0  0  0
   -4.8900    0.2502    0.0000 C   0  0  0  0  0  0  0  0  0  0  0  0
   -4.8900    1.0752    0.0000 C   0  0  0  0  0  0  0  0  0  0  0  0
   -7.0334    1.4877    0.0000 C   0  0  0  0  0  0  0  0  0  0  0  0
   -7.7479    1.0753    0.0000 C   0  0  0  0  0  0  0  0  0  0  0  0
   -7.7479    0.2503    0.0000 C   0  0  0  0  0  0  0  0  0  0  0  0
   -7.0334   -0.1623    0.0000 C   0  0  0  0  0  0  0  0  0  0  0  0
   -5.3025    3.4397    0.0000 H   0  0  0  0  0  0  0  0  0  0  0  0
   -6.0170    3.0272    0.0000 H   0  0  0  0  0  0  0  0  0  0  0  0
   -6.4014    2.0992    0.0000 O   0  0  0  0  0  0  0  0  0  0  0  0
   -8.4624    1.4878    0.0000 O   0  0  0  0  0  0  0  0  0  0  0  0
   -9.1768    1.0753    0.0000 C   0  0  0  0  0  0  0  0  0  0  0  0
   -2.0808    2.7533    0.0000 H   0  0  0  0  0  0  0  0  0  0  0  0
   -2.7953    1.5158    0.0000 C   0  0  0  0  0  0  0  0  0  0  0  0
   -2.0808    1.1033    0.0000 C   0  0  0  0  0  0  0  0  0  0  0  0
   -3.4768   -0.8839    0.0000 Cl  0  0  0  0  0  0  0  0  0  0  0  0
  2  3  1  0
  3  4  1  0
  4  5  1  0
  5  6  1  0
  6  7  1  0
  7  2  1  0
  2  8  1  0
  8  9  1  0
  5  9  1  6
  3 10  1  0
 10 11  1  0
 11 12  1  0
 16 11  2  0
 13 14  1  0
 14 15  2  0
 15 16  1  0
 12 17  2  0
 13 12  1  0
 20 13  2  0
 17 18  1  0
 18 19  2  0
 19 20  1  0
  3 21  1  6
 10 22  1  6
 10 23  1  0
 18 24  1  0
 24 25  1  0
  6 26  1  1
  6 27  1  0
 27 28  2  0
M  END
> <chembl_id>
CHEMBL2146088

> <chembl_pref_name>
QUININE DIHYDROCHLORIDE
