
     RDKit          2D

 33 36  0  0  0  0  0  0  0  0999 V2000
    2.8820    0.0000    0.0000 C   0  0  0  0  0  0  0  0  0  0  0  0
    5.0449    6.6574    0.0000 O   0  0  0  0  0  0  0  0  0  0  0  0
    2.4813    4.3490    0.0000 O   0  0  0  0  0  0  0  0  0  0  0  0
    0.4005    2.4755    0.0000 O   0  0  0  0  0  0  0  0  0  0  0  0
    2.2346    9.7786    0.0000 F   0  0  0  0  0  0  0  0  0  0  0  0
    3.2429    5.0347    0.0000 F   0  0  0  0  0  0  0  0  0  0  0  0
   13.1469    6.6618    0.0000 Cl  0  0  0  0  0  0  0  0  0  0  0  0
   10.7221    6.6618    0.0000 C   0  0  0  0  0  0  0  0  0  0  0  0
   11.9344    8.7618    0.0000 C   0  0  0  0  0  0  0  0  0  0  0  0
    0.4326    8.1560    0.0000 C   0  0  0  0  0  0  0  0  0  0  0  0
    9.5096    7.3618    0.0000 C   0  0  0  0  0  0  0  0  0  0  0  0
   10.7221    9.4618    0.0000 C   0  0  0  0  0  0  0  0  0  0  0  0
    0.0000    6.8245    0.0000 C   0  0  0  0  0  0  0  0  0  0  0  0
    8.2972   10.8618    0.0000 C   0  0  0  0  0  0  0  0  0  0  0  0
    3.7179   10.1618    0.0000 C   0  0  0  0  0  0  0  0  0  0  0  0
    7.0847    8.7618    0.0000 C   0  0  0  0  0  0  0  0  0  0  0  0
    1.9451    1.0404    0.0000 C   0  0  0  0  0  0  0  0  0  0  0  0
    2.3778    2.3719    0.0000 C   0  0  0  0  0  0  0  0  0  0  0  0
    7.0847   11.5618    0.0000 N   0  0  0  0  0  0  0  0  0  0  0  0
    0.5042    4.4527    0.0000 N   0  0  0  0  0  0  0  0  0  0  0  0
    4.5409   11.2945    0.0000 N   0  0  0  0  0  0  0  0  0  0  0  0
    4.1082    7.6978    0.0000 C   0  0  0  0  0  0  0  0  0  0  0  0
   11.9344    7.3618    0.0000 C   0  0  0  0  0  0  0  0  0  0  0  0
    1.8020    8.4470    0.0000 C   0  0  0  0  0  0  0  0  0  0  0  0
    9.5096    8.7618    0.0000 C   0  0  0  0  0  0  0  0  0  0  0  0
    8.2972    9.4618    0.0000 C   0  0  0  0  0  0  0  0  0  0  0  0
    2.3062    6.0752    0.0000 C   0  0  0  0  0  0  0  0  0  0  0  0
    0.9367    5.7841    0.0000 C   0  0  0  0  0  0  0  0  0  0  0  0
    4.5409    9.0292    0.0000 C   0  0  0  0  0  0  0  0  0  0  0  0
    2.7387    7.4068    0.0000 C   0  0  0  0  0  0  0  0  0  0  0  0
    5.8724    9.4618    0.0000 C   0  0  0  0  0  0  0  0  0  0  0  0
    5.8724   10.8618    0.0000 C   0  0  0  0  0  0  0  0  0  0  0  0
    1.4409    3.4123    0.0000 S   0  0  0  0  0  0  0  0  0  0  0  0
  1 17  1  0
  2 22  2  0
  3 33  2  0
  4 33  2  0
  5 24  1  0
  6 27  1  0
  7 23  1  0
  8 11  1  0
  8 23  2  0
  9 12  2  0
  9 23  1  0
 10 13  2  0
 10 24  1  0
 11 25  2  0
 12 25  1  0
 13 28  1  0
 14 19  2  0
 14 26  1  0
 15 21  1  0
 15 29  2  0
 16 26  2  0
 16 31  1  0
 17 18  1  0
 18 33  1  0
 19 32  1  0
 20 28  1  0
 20 33  1  0
 21 32  1  0
 22 29  1  0
 22 30  1  0
 24 30  2  0
 25 26  1  0
 27 28  2  0
 27 30  1  0
 29 31  1  0
 31 32  2  0
M  END
> <chembl_id>
CHEMBL1229517

> <chembl_pref_name>
VEMURAFENIB
