
     RDKit          2D

 29 31  0  0  0  0  0  0  0  0999 V2000
   -2.0333   -2.0417    0.0000 C   0  0  0  0  0  0  0  0  0  0  0  0
   -1.8083    1.9375    0.0000 C   0  0  0  0  0  0  0  0  0  0  0  0
   -2.5625   -1.0292    0.0000 C   0  0  0  0  0  0  0  0  0  0  0  0
   -2.4458    0.9583    0.0000 C   0  0  0  0  0  0  0  0  0  0  0  0
    0.1792    2.9958    0.0000 N   0  0  0  0  0  0  0  0  0  0  0  0
   -1.9333   -0.0625    0.0000 C   0  0  0  0  0  0  0  0  0  0  0  0
   -1.8000    3.0625    0.0000 C   0  0  0  0  0  0  0  0  0  0  0  0
   -0.8833    1.3083    0.0000 C   0  0  0  0  0  0  0  0  0  0  0  0
    3.1000    1.2833    0.0000 C   0  0  0  0  0  0  0  0  0  0  0  0
    3.1000    0.1125    0.0000 C   0  0  0  0  0  0  0  0  0  0  0  0
    4.0917    1.8000    0.0000 O   0  0  0  0  0  0  0  0  0  0  0  0
   -1.5083   -3.0625    0.0000 F   0  0  0  0  0  0  0  0  0  0  0  0
   -1.0083   -1.5167    0.0000 F   0  0  0  0  0  0  0  0  0  0  0  0
   -3.0458   -2.5792    0.0000 F   0  0  0  0  0  0  0  0  0  0  0  0
    0.1792    1.8458    0.0000 C   0  0  0  0  0  0  0  0  0  0  0  0
   -0.7958    3.5958    0.0000 C   0  0  0  0  0  0  0  0  0  0  0  0
    2.0875   -0.4542    0.0000 C   0  0  0  0  0  0  0  0  0  0  0  0
    4.0792   -0.4542    0.0000 C   0  0  0  0  0  0  0  0  0  0  0  0
   -2.9708    2.1625    0.0000 O   0  0  0  0  0  0  0  0  0  0  0  0
    3.0667   -2.1792    0.0000 C   0  0  0  0  0  0  0  0  0  0  0  0
    4.0917   -1.6292    0.0000 C   0  0  0  0  0  0  0  0  0  0  0  0
    2.1000   -1.5167    0.0000 C   0  0  0  0  0  0  0  0  0  0  0  0
    3.0667   -3.3042    0.0000 F   0  0  0  0  0  0  0  0  0  0  0  0
    1.1917    3.5458    0.0000 C   0  0  0  0  0  0  0  0  0  0  0  0
   -3.6958   -1.0417    0.0000 C   0  0  0  0  0  0  0  0  0  0  0  0
    2.1542    2.9625    0.0000 C   0  0  0  0  0  0  0  0  0  0  0  0
   -3.6125    0.9708    0.0000 C   0  0  0  0  0  0  0  0  0  0  0  0
    2.1542    1.8208    0.0000 C   0  0  0  0  0  0  0  0  0  0  0  0
   -4.2208    0.0208    0.0000 C   0  0  0  0  0  0  0  0  0  0  0  0
  2  4  1  0
  3  1  1  0
  4  6  1  0
  5 15  1  0
  6  3  2  0
  7  2  1  0
  8  2  1  0
  9 28  1  0
 10  9  1  0
 11  9  2  0
 12  1  1  0
 13  1  1  0
 14  1  1  0
 15  8  1  0
 16  7  1  0
 17 10  2  0
 18 10  1  0
 19  2  1  0
 20 21  1  0
 21 18  2  0
 22 17  1  0
 23 20  1  0
 24  5  1  0
 25  3  1  0
 26 24  1  0
 27 29  1  0
 28 26  1  0
 29 25  2  0
  4 27  2  0
 16  5  1  0
 22 20  2  0
M  END
> <chembl_id>
CHEMBL15023

> <chembl_pref_name>
TRIFLUPERIDOL
