
  SciTegic12091219252D

 25 27  0  0  1  0            999 V2000
    5.6542   -6.3417    0.0000 N   0  0
    4.9542   -6.3417    0.0000 C   0  0
    4.9542   -5.6250    0.0000 C   0  0  2  0  0  0
    5.6542   -5.6250    0.0000 C   0  0  1  0  0  0
    6.2625   -6.6917    0.0000 C   0  0
    4.3292   -5.2667    0.0000 N   0  0
    6.2625   -5.2750    0.0000 S   0  0
    3.7292   -5.6250    0.0000 C   0  0
    6.8792   -6.3417    0.0000 C   0  0
    6.2625   -7.4042    0.0000 C   0  0
    3.1125   -5.2750    0.0000 C   0  0  1  0  0  0
    6.8792   -5.6250    0.0000 C   0  0
    4.4500   -6.8417    0.0000 O   0  0
    3.7417   -6.3375    0.0000 O   0  0
    5.6542   -7.7667    0.0000 O   0  0
    2.5042   -5.6417    0.0000 C   0  0
    3.1125   -4.5625    0.0000 N   0  0
    6.8792   -7.7667    0.0000 O   0  0
    7.5000   -6.6917    0.0000 C   0  0
    2.5000   -6.3542    0.0000 C   0  0
    1.8792   -5.2917    0.0000 C   0  0
    1.8875   -6.7125    0.0000 C   0  0
    1.2542   -5.6500    0.0000 C   0  0
    1.2625   -6.3625    0.0000 C   0  0
    5.6542   -4.9167    0.0000 H   0  0
  2  1  1  0
  3  4  1  0
  4  1  1  0
  5  1  1  0
  3  6  1  1
  7  4  1  0
  8  6  1  0
  9  5  2  0
 10  5  1  0
 11  8  1  0
 12  9  1  0
 13  2  2  0
 14  8  2  0
 15 10  2  0
 16 11  1  0
 11 17  1  1
 18 10  1  0
 19  9  1  0
 20 16  1  0
 21 16  2  0
 22 20  2  0
 23 21  1  0
 24 22  1  0
  4 25  1  6
  3  2  1  0
 12  7  1  0
 24 23  2  0
M  END
> <chembl_id>
CHEMBL1727

> <chembl_pref_name>
CEPHALEXIN ANHYDROUS
