
     RDKit          2D

 11 10  0  0  1  0  0  0  0  0999 V2000
    0.7542    0.5375    0.0000 C   0  0  0  0  0  0  0  0  0  0  0  0
    0.7542   -0.2125    0.0000 O   0  0  0  0  0  0  0  0  0  0  0  0
    0.1125    0.9000    0.0000 C   0  0  0  0  0  0  0  0  0  0  0  0
   -0.5250    0.5375    0.0000 C   0  0  0  0  0  0  0  0  0  0  0  0
    1.3917    0.9000    0.0000 O   0  0  0  0  0  0  0  0  0  0  0  0
   -0.5250   -0.6417    0.0000 C   0  0  0  0  0  0  0  0  0  0  0  0
   -1.8083    0.5375    0.0000 N   0  0  0  0  0  0  0  0  0  0  0  0
   -1.1750    0.9000    0.0000 C   0  0  0  0  0  0  0  0  0  0  0  0
    0.1167   -1.0167    0.0000 C   0  0  0  0  0  0  0  0  0  0  0  0
    0.7542   -0.6625    0.0000 C   0  0  0  0  0  0  0  0  0  0  0  0
    0.1167   -1.7417    0.0000 C   0  0  0  0  0  0  0  0  0  0  0  0
  2  1  2  0
  3  1  1  0
  4  3  1  0
  5  1  1  0
  4  6  1  6
  7  8  1  0
  8  4  1  0
  9  6  1  0
 10  9  1  0
 11  9  1  0
M  END
> <chembl_id>
CHEMBL1059

> <chembl_pref_name>
PREGABALIN
