
     RDKit          2D

 36 36  0  0  0  0  0  0  0  0999 V2000
    2.5300    3.4460    0.0000 O   0  0  0  0  0  0  0  0  0  0  0  0
    3.2321    3.8792    0.0000 C   0  0  0  0  0  0  0  0  0  0  0  0
    3.9583    3.4877    0.0000 C   0  0  0  0  0  0  0  0  0  0  0  0
    4.6605    3.9209    0.0000 C   0  0  0  0  0  0  0  0  0  0  0  0
    5.3867    3.5294    0.0000 O   0  0  0  0  0  0  0  0  0  0  0  0
    3.8258    2.6734    0.0000 C   0  0  0  0  0  0  0  0  0  0  0  0
    3.0543    2.3811    0.0000 O   0  0  0  0  0  0  0  0  0  0  0  0
    4.5762    2.8029    0.0000 N   0  0  0  0  0  0  0  0  0  0  0  0
   -0.3368    0.0863    0.0000 C   0  0  0  0  0  0  0  0  0  0  0  0
   -1.1012    0.6045    0.0000 C   0  0  0  0  0  0  0  0  0  0  0  0
   -0.6045   -0.6910    0.0000 C   0  0  0  0  0  0  0  0  0  0  0  0
   -0.0863   -1.3214    0.0000 C   0  0  0  0  0  0  0  0  0  0  0  0
   -1.4207   -0.6910    0.0000 C   0  0  0  0  0  0  0  0  0  0  0  0
    0.7428   -1.1056    0.0000 C   0  0  0  0  0  0  0  0  0  0  0  0
   -0.0216    1.3560    0.0000 C   0  0  0  0  0  0  0  0  0  0  0  0
   -1.7446    0.0475    0.0000 C   0  0  0  0  0  0  0  0  0  0  0  0
    2.3579   -2.7120    0.0000 C   0  0  0  0  0  0  0  0  0  0  0  0
    3.0987   -2.3566    0.0000 C   0  0  0  0  0  0  0  0  0  0  0  0
    0.2894    0.6305    0.0000 C   0  0  0  0  0  0  0  0  0  0  0  0
   -0.8248    1.3819    0.0000 C   0  0  0  0  0  0  0  0  0  0  0  0
   -2.0944    3.0142    0.0000 C   0  0  0  0  0  0  0  0  0  0  0  0
    0.4275    2.0469    0.0000 C   0  0  0  0  0  0  0  0  0  0  0  0
   -2.3017    2.2110    0.0000 O   0  0  0  0  0  0  0  0  0  0  0  0
    1.3258   -1.6885    0.0000 C   0  0  0  0  0  0  0  0  0  0  0  0
   -1.8785   -1.3906    0.0000 O   0  0  0  0  0  0  0  0  0  0  0  0
   -2.6903    3.5972    0.0000 O   0  0  0  0  0  0  0  0  0  0  0  0
    1.0796   -2.4529    0.0000 C   0  0  0  0  0  0  0  0  0  0  0  0
    1.6108   -3.0704    0.0000 C   0  0  0  0  0  0  0  0  0  0  0  0
    2.1290   -1.4813    0.0000 O   0  0  0  0  0  0  0  0  0  0  0  0
    3.8491   -1.9888    0.0000 C   0  0  0  0  0  0  0  0  0  0  0  0
   -1.2826    3.2388    0.0000 C   0  0  0  0  0  0  0  0  0  0  0  0
    0.0044    2.7551    0.0000 C   0  0  0  0  0  0  0  0  0  0  0  0
    0.2635   -2.6299    0.0000 C   0  0  0  0  0  0  0  0  0  0  0  0
   -0.8118    2.5522    0.0000 C   0  0  0  0  0  0  0  0  0  0  0  0
    0.3498   -0.3801    0.0000 H   0  0  0  0  0  0  0  0  0  0  0  0
   -1.7878    1.0753    0.0000 H   0  0  0  0  0  0  0  0  0  0  0  0
  1  2  1  0
  2  3  1  0
  3  4  1  0
  4  5  1  0
  6  7  1  0
  3  6  1  0
  3  8  1  0
 10  9  1  0
 11  9  1  0
 11 12  1  1
 13 11  1  0
 14 12  2  0
 15 19  1  0
 16 10  1  0
 17 28  1  0
 18 17  3  0
 19  9  1  0
 20 10  1  0
 21 31  1  0
 22 15  2  0
 23 21  2  0
 24 14  1  0
 13 25  1  6
 26 21  1  0
 27 24  1  0
 28 27  1  0
 24 29  1  1
 30 18  1  0
 31 34  1  0
 32 22  1  0
 33 27  1  0
 34 32  1  0
  9 35  1  1
 10 36  1  1
 20 15  1  0
 16 13  1  0
M  END
> <chembl_id>
CHEMBL5315118

> <chembl_pref_name>
ILOPROST TROMETHAMINE
