
     RDKit          2D

 37 40  0  0  0  0  0  0  0  0999 V2000
   -1.4500    0.2125    0.0000 N   0  0  0  0  0  0  0  0  0  0  0  0
    1.4125   -1.0292    0.0000 S   0  0  0  0  0  0  0  0  0  0  0  0
   -1.4208    0.7708    0.0000 C   0  0  0  0  0  0  0  0  0  0  0  0
   -1.9458   -0.0500    0.0000 C   0  0  0  0  0  0  0  0  0  0  0  0
   -2.4125    0.2500    0.0000 C   0  0  0  0  0  0  0  0  0  0  0  0
   -1.9083    1.0750    0.0000 C   0  0  0  0  0  0  0  0  0  0  0  0
    1.8792   -1.3292    0.0000 N   0  0  0  0  0  0  0  0  0  0  0  0
   -2.3958    0.8125    0.0000 C   0  0  0  0  0  0  0  0  0  0  0  0
    2.3792   -1.0750    0.0000 C   0  0  0  0  0  0  0  0  0  0  0  0
   -0.9750   -0.0875    0.0000 C   0  0  0  0  0  0  0  0  0  0  0  0
    0.9375   -0.7292    0.0000 C   0  0  0  0  0  0  0  0  0  0  0  0
    1.1125   -1.5000    0.0000 O   0  0  0  0  0  0  0  0  0  0  0  0
    1.7167   -0.5542    0.0000 O   0  0  0  0  0  0  0  0  0  0  0  0
   -2.8708    1.1083    0.0000 C   0  0  0  0  0  0  0  0  0  0  0  0
    2.8542   -1.3792    0.0000 N   0  0  0  0  0  0  0  0  0  0  0  0
   -0.9250    1.0333    0.0000 O   0  0  0  0  0  0  0  0  0  0  0  0
   -1.9708   -0.6042    0.0000 O   0  0  0  0  0  0  0  0  0  0  0  0
   -2.9083   -0.0125    0.0000 C   0  0  0  0  0  0  0  0  0  0  0  0
    2.4042   -0.5125    0.0000 O   0  0  0  0  0  0  0  0  0  0  0  0
    0.9542   -0.1667    0.0000 C   0  0  0  0  0  0  0  0  0  0  0  0
    0.4375   -0.9875    0.0000 C   0  0  0  0  0  0  0  0  0  0  0  0
   -3.3833    0.2833    0.0000 C   0  0  0  0  0  0  0  0  0  0  0  0
   -0.4833    0.1708    0.0000 C   0  0  0  0  0  0  0  0  0  0  0  0
   -3.3625    0.8458    0.0000 C   0  0  0  0  0  0  0  0  0  0  0  0
   -0.0083   -0.1292    0.0000 C   0  0  0  0  0  0  0  0  0  0  0  0
   -2.0708    1.6083    0.0000 C   0  0  0  0  0  0  0  0  0  0  0  0
   -1.6750    1.5833    0.0000 C   0  0  0  0  0  0  0  0  0  0  0  0
    0.4875    0.1333    0.0000 C   0  0  0  0  0  0  0  0  0  0  0  0
   -0.0375   -0.6792    0.0000 C   0  0  0  0  0  0  0  0  0  0  0  0
    3.3542   -1.1167    0.0000 C   0  0  0  0  0  0  0  0  0  0  0  0
   -3.8708    0.0208    0.0000 O   0  0  0  0  0  0  0  0  0  0  0  0
   -4.3458    0.3208    0.0000 C   0  0  0  0  0  0  0  0  0  0  0  0
    3.3750   -0.5542    0.0000 C   0  0  0  0  0  0  0  0  0  0  0  0
    3.8167   -1.4167    0.0000 C   0  0  0  0  0  0  0  0  0  0  0  0
    3.8667   -0.3000    0.0000 C   0  0  0  0  0  0  0  0  0  0  0  0
    4.3167   -1.1625    0.0000 C   0  0  0  0  0  0  0  0  0  0  0  0
    4.3417   -0.6000    0.0000 C   0  0  0  0  0  0  0  0  0  0  0  0
  2 11  1  0
  3  1  1  0
  4  1  1  0
  5  4  1  0
  6  3  1  0
  7  2  1  0
  8  5  2  0
  9  7  1  0
 10  1  1  0
 11 21  1  0
 12  2  2  0
 13  2  2  0
 14  8  1  0
 15  9  1  0
 16  3  2  0
 17  4  2  0
 18  5  1  0
 19  9  2  0
 20 28  1  0
 21 29  2  0
 22 18  2  0
 23 10  1  0
 24 22  1  0
 25 23  1  0
 26  6  1  0
 27  6  1  0
 28 25  2  0
 29 25  1  0
 30 15  1  0
 31 22  1  0
 32 31  1  0
 33 30  1  0
 34 30  1  0
 35 33  1  0
 36 34  1  0
 37 36  1  0
  6  8  1  0
 20 11  2  0
 24 14  2  0
 35 37  1  0
M  END
> <chembl_id>
CHEMBL383634

> <chembl_pref_name>
GLIQUIDONE
