
     RDKit          2D

 32 36  0  0  1  0  0  0  0  0999 V2000
    5.9167   -4.6792    0.0000 C   0  0  0  0  0  0  0  0  0  0  0  0
    4.6667   -5.4042    0.0000 C   0  0  0  0  0  0  0  0  0  0  0  0
    5.9167   -5.4042    0.0000 C   0  0  0  0  0  0  0  0  0  0  0  0
    5.2917   -5.7625    0.0000 C   0  0  0  0  0  0  0  0  0  0  0  0
    4.6667   -4.6792    0.0000 C   0  0  0  0  0  0  0  0  0  0  0  0
    5.2917   -4.3292    0.0000 C   0  0  0  0  0  0  0  0  0  0  0  0
    5.3042   -6.4667    0.0000 C   0  0  0  0  0  0  0  0  0  0  0  0
    6.5917   -5.6167    0.0000 C   0  0  0  0  0  0  0  0  0  0  0  0
    4.0500   -5.7625    0.0000 C   0  0  0  0  0  0  0  0  0  0  0  0
    4.0500   -4.3292    0.0000 C   0  0  0  0  0  0  0  0  0  0  0  0
    5.3375   -7.8792    0.0000 C   0  0  0  0  0  0  0  0  0  0  0  0
    7.0000   -5.0292    0.0000 O   0  0  0  0  0  0  0  0  0  0  0  0
    6.5917   -4.4667    0.0000 C   0  0  0  0  0  0  0  0  0  0  0  0
    5.9542   -7.5042    0.0000 C   0  0  0  0  0  0  0  0  0  0  0  0
    4.7250   -7.5542    0.0000 C   0  0  0  0  0  0  0  0  0  0  0  0
    3.4292   -4.6792    0.0000 C   0  0  0  0  0  0  0  0  0  0  0  0
    3.4292   -5.4042    0.0000 C   0  0  0  0  0  0  0  0  0  0  0  0
    5.9292   -6.7917    0.0000 C   0  0  0  0  0  0  0  0  0  0  0  0
    4.7000   -6.8292    0.0000 C   0  0  0  0  0  0  0  0  0  0  0  0
    2.7792   -5.6375    0.0000 O   0  0  0  0  0  0  0  0  0  0  0  0
    2.7417   -4.4667    0.0000 O   0  0  0  0  0  0  0  0  0  0  0  0
    2.3167   -5.0500    0.0000 C   0  0  0  0  0  0  0  0  0  0  0  0
    6.8167   -6.2792    0.0000 O   0  0  0  0  0  0  0  0  0  0  0  0
    5.3042   -3.6167    0.0000 O   0  0  0  0  0  0  0  0  0  0  0  0
    5.3292   -8.5792    0.0000 O   0  0  0  0  0  0  0  0  0  0  0  0
    6.5875   -7.8292    0.0000 O   0  0  0  0  0  0  0  0  0  0  0  0
    4.1500   -7.9500    0.0000 O   0  0  0  0  0  0  0  0  0  0  0  0
    4.7375   -8.9167    0.0000 C   0  0  0  0  0  0  0  0  0  0  0  0
    6.6125   -8.5292    0.0000 C   0  0  0  0  0  0  0  0  0  0  0  0
    3.5292   -7.6667    0.0000 C   0  0  0  0  0  0  0  0  0  0  0  0
    5.9667   -6.1042    0.0000 H   0  0  0  0  0  0  0  0  0  0  0  0
    5.9667   -3.9750    0.0000 H   0  0  0  0  0  0  0  0  0  0  0  0
  2  5  2  0
  3  1  1  0
  4  3  1  0
  5  6  1  0
  6  1  1  0
  4  7  1  6
  8  3  1  0
  9  2  1  0
 10  5  1  0
 11 15  2  0
 12 13  1  0
 13  1  1  0
 14 18  2  0
 15 19  1  0
 16 10  2  0
 17 16  1  0
 18  7  1  0
 19  7  2  0
 20 17  1  0
 21 16  1  0
 22 21  1  0
 23  8  2  0
  6 24  1  6
 25 11  1  0
 26 14  1  0
 27 15  1  0
 28 25  1  0
 29 26  1  0
 30 27  1  0
  3 31  1  1
  1 32  1  6
 12  8  1  0
  2  4  1  0
 17  9  2  0
 11 14  1  0
 22 20  1  0
M  END
> <chembl_id>
CHEMBL61

> <chembl_pref_name>
PODOFILOX
