
     RDKit          2D

 25 26  0  0  0  0  0  0  0  0999 V2000
    4.2792   -1.9042    0.0000 C   0  0  0  0  0  0  0  0  0  0  0  0
    3.6625   -1.5542    0.0000 C   0  0  0  0  0  0  0  0  0  0  0  0
    0.5667   -0.5042    0.0000 C   0  0  0  0  0  0  0  0  0  0  0  0
    3.0500   -1.9167    0.0000 O   0  0  0  0  0  0  0  0  0  0  0  0
    4.8625   -1.5042    0.0000 O   0  0  0  0  0  0  0  0  0  0  0  0
    1.1875   -0.8542    0.0000 C   0  0  0  0  0  0  0  0  0  0  0  0
   -0.0458   -0.8667    0.0000 C   0  0  0  0  0  0  0  0  0  0  0  0
    4.2750   -2.6250    0.0000 O   0  0  0  0  0  0  0  0  0  0  0  0
    0.5542    0.2083    0.0000 O   0  0  0  0  0  0  0  0  0  0  0  0
    1.1875   -1.5667    0.0000 C   0  0  0  0  0  0  0  0  0  0  0  0
   -0.6750   -0.5417    0.0000 C   0  0  0  0  0  0  0  0  0  0  0  0
   -0.0375   -1.5792    0.0000 C   0  0  0  0  0  0  0  0  0  0  0  0
    1.8125   -0.4792    0.0000 C   0  0  0  0  0  0  0  0  0  0  0  0
    2.4292   -1.5667    0.0000 C   0  0  0  0  0  0  0  0  0  0  0  0
   -1.2583   -1.6167    0.0000 C   0  0  0  0  0  0  0  0  0  0  0  0
    1.8125   -1.9417    0.0000 C   0  0  0  0  0  0  0  0  0  0  0  0
    2.4292   -0.8542    0.0000 C   0  0  0  0  0  0  0  0  0  0  0  0
   -1.2458   -0.8917    0.0000 C   0  0  0  0  0  0  0  0  0  0  0  0
   -0.6333   -1.9417    0.0000 C   0  0  0  0  0  0  0  0  0  0  0  0
   -1.8500   -1.9792    0.0000 Cl  0  0  0  0  0  0  0  0  0  0  0  0
    4.0125   -0.9417    0.0000 C   0  0  0  0  0  0  0  0  0  0  0  0
    3.3042   -0.9417    0.0000 C   0  0  0  0  0  0  0  0  0  0  0  0
    5.4875   -1.8542    0.0000 C   0  0  0  0  0  0  0  0  0  0  0  0
    5.4875   -2.5417    0.0000 C   0  0  0  0  0  0  0  0  0  0  0  0
    6.0542   -1.4917    0.0000 C   0  0  0  0  0  0  0  0  0  0  0  0
  2  1  1  0
  3  6  1  0
  4  2  1  0
  5  1  1  0
  6 13  2  0
  7  3  1  0
  8  1  2  0
  9  3  2  0
 10 16  2  0
 11  7  2  0
 12  7  1  0
 13 17  1  0
 14  4  1  0
 15 19  1  0
 16 14  1  0
 17 14  2  0
 18 11  1  0
 19 12  2  0
 20 15  1  0
 21  2  1  0
 22  2  1  0
 23  5  1  0
 24 23  1  0
 25 23  1  0
 10  6  1  0
 18 15  2  0
M  END
> <chembl_id>
CHEMBL672

> <chembl_pref_name>
FENOFIBRATE
