
     RDKit          2D

 18 16  0  0  0  0  0  0  0  0999 V2000
    8.6417   -5.8417    0.0000 O   0  0  0  0  0  0  0  0  0  0  0  0
    6.4000   -4.5292    0.0000 C   0  0  0  0  0  0  0  0  0  0  0  0
    5.7750   -4.8625    0.0000 C   0  0  0  0  0  0  0  0  0  0  0  0
    5.1750   -4.5000    0.0000 C   0  0  0  0  0  0  0  0  0  0  0  0
    6.4042   -3.8125    0.0000 C   0  0  0  0  0  0  0  0  0  0  0  0
    5.1792   -3.8042    0.0000 C   0  0  0  0  0  0  0  0  0  0  0  0
    7.0125   -4.8792    0.0000 C   0  0  0  0  0  0  0  0  0  0  0  0
    5.7917   -3.4417    0.0000 C   0  0  0  0  0  0  0  0  0  0  0  0
    4.5542   -4.8500    0.0000 N   0  0  0  0  0  0  0  0  0  0  0  0
    3.9417   -4.4750    0.0000 C   0  0  0  0  0  0  0  0  0  0  0  0
    7.6250   -4.5167    0.0000 O   0  0  0  0  0  0  0  0  0  0  0  0
    7.0250   -5.5917    0.0000 O   0  0  0  0  0  0  0  0  0  0  0  0
    5.7667   -5.5792    0.0000 I   0  0  0  0  0  0  0  0  0  0  0  0
    3.9667   -3.7625    0.0000 O   0  0  0  0  0  0  0  0  0  0  0  0
    7.0292   -3.4625    0.0000 I   0  0  0  0  0  0  0  0  0  0  0  0
    4.5667   -3.4292    0.0000 I   0  0  0  0  0  0  0  0  0  0  0  0
    3.3250   -4.8125    0.0000 C   0  0  0  0  0  0  0  0  0  0  0  0
    8.4875   -4.6542    0.0000 Na  0  0  0  0  0 15  0  0  0  0  0  0
  3  2  2  0
  4  3  1  0
  5  2  1  0
  6  8  1  0
  7  2  1  0
  8  5  2  0
  9  4  1  0
 10  9  1  0
 11  7  1  0
 12  7  2  0
 13  3  1  0
 14 10  2  0
 15  5  1  0
 16  6  1  0
 17 10  1  0
  4  6  2  0
M  CHG  2  11  -1  18   1
M  END
> <chembl_id>
CHEMBL1201045

> <chembl_pref_name>
ACETRIZOATE SODIUM
