
     RDKit          2D

 30 33  0  0  0  0  0  0  0  0999 V2000
    2.5398   -4.8754    0.0000 C   0  0  0  0  0  0  0  0  0  0  0  0
    2.5529   -4.1738    0.0000 C   0  0  0  0  0  0  0  0  0  0  0  0
    3.1428   -5.2414    0.0000 C   0  0  0  0  0  0  0  0  0  0  0  0
    1.9195   -5.2172    0.0000 C   0  0  0  0  0  0  0  0  0  0  0  0
    1.9395   -3.8072    0.0000 C   0  0  0  0  0  0  0  0  0  0  0  0
    3.1773   -3.8245    0.0000 O   0  0  0  0  0  0  0  0  0  0  0  0
    3.1297   -5.9464    0.0000 C   0  0  0  0  0  0  0  0  0  0  0  0
    3.7190   -4.9292    0.0000 Cl  0  0  0  0  0  0  0  0  0  0  0  0
    1.8988   -5.9230    0.0000 C   0  0  0  0  0  0  0  0  0  0  0  0
    1.3227   -4.1332    0.0000 N   0  0  0  0  0  0  0  0  0  0  0  0
    3.7837   -4.1801    0.0000 C   0  0  0  0  0  0  0  0  0  0  0  0
    2.5095   -6.2924    0.0000 C   0  0  0  0  0  0  0  0  0  0  0  0
    0.7059   -3.7094    0.0000 C   0  0  0  0  0  0  0  0  0  0  0  0
    1.0926   -4.8451    0.0000 C   0  0  0  0  0  0  0  0  0  0  0  0
    4.4074   -3.8176    0.0000 C   0  0  0  0  0  0  0  0  0  0  0  0
    2.4819   -6.9767    0.0000 Cl  0  0  0  0  0  0  0  0  0  0  0  0
    0.1125   -4.1773    0.0000 C   0  0  0  0  0  0  0  0  0  0  0  0
    0.3703   -4.8451    0.0000 N   0  0  0  0  0  0  0  0  0  0  0  0
    5.0208   -4.1600    0.0000 C   0  0  0  0  0  0  0  0  0  0  0  0
    4.4074   -3.0953    0.0000 C   0  0  0  0  0  0  0  0  0  0  0  0
    5.6411   -3.8072    0.0000 C   0  0  0  0  0  0  0  0  0  0  0  0
    5.0208   -2.7431    0.0000 C   0  0  0  0  0  0  0  0  0  0  0  0
    5.6411   -3.0926    0.0000 C   0  0  0  0  0  0  0  0  0  0  0  0
    6.2586   -2.7362    0.0000 S   0  0  0  0  0  0  0  0  0  0  0  0
    6.8754   -3.0822    0.0000 C   0  0  0  0  0  0  0  0  0  0  0  0
    7.4888   -2.7259    0.0000 C   0  0  0  0  0  0  0  0  0  0  0  0
    6.8754   -3.8003    0.0000 C   0  0  0  0  0  0  0  0  0  0  0  0
    8.1091   -3.0753    0.0000 C   0  0  0  0  0  0  0  0  0  0  0  0
    7.4888   -4.1428    0.0000 C   0  0  0  0  0  0  0  0  0  0  0  0
    8.1091   -3.7941    0.0000 C   0  0  0  0  0  0  0  0  0  0  0  0
  7 12  2  0
 10 13  1  0
 10 14  1  0
 11 15  1  0
 12 16  1  0
 13 17  2  0
 14 18  2  0
 15 19  1  0
 15 20  2  0
 19 21  2  0
 20 22  1  0
 21 23  1  0
 23 24  1  0
 24 25  1  0
 25 26  1  0
 25 27  2  0
 26 28  2  0
 27 29  1  0
 28 30  1  0
  9 12  1  0
 17 18  1  0
 22 23  2  0
 29 30  2  0
  1  2  1  0
  1  3  2  0
  1  4  1  0
  2  5  1  0
  2  6  1  0
  3  7  1  0
  3  8  1  0
  4  9  2  0
  5 10  1  0
  6 11  1  0
M  END
> <chembl_id>
CHEMBL1651990

> <chembl_pref_name>
FENTICONAZOLE
