
     RDKit          2D

 96101  0  0  0  0  0  0  0  0999 V2000
   23.8768  -14.2645    0.0000 C   0  0  0  0  0  0  0  0  0  0  0  0
   24.5913  -13.8520    0.0000 C   0  0  0  0  0  0  0  0  0  0  0  0
   25.3058  -14.2645    0.0000 O   0  0  0  0  0  0  0  0  0  0  0  0
   24.5913  -13.0270    0.0000 O   0  0  0  0  0  0  0  0  0  0  0  0
   15.3214   -8.3679    0.0000 N   0  0  0  0  0  0  0  0  0  0  0  0
   16.0359   -7.9554    0.0000 C   0  0  0  0  0  0  0  0  0  0  0  0
   16.7504   -8.3679    0.0000 C   0  0  0  0  0  0  0  0  0  0  0  0
   17.4648   -7.9554    0.0000 N   0  0  0  0  0  0  0  0  0  0  0  0
   18.1793   -8.3679    0.0000 C   0  0  0  0  0  0  0  0  0  0  0  0
   18.8938   -7.9554    0.0000 C   0  0  0  0  0  0  0  0  0  0  0  0
   19.6083   -8.3679    0.0000 N   0  0  0  0  0  0  0  0  0  0  0  0
   16.0359   -7.1304    0.0000 C   0  0  0  0  0  0  0  0  0  0  0  0
   15.3214   -6.7179    0.0000 C   0  0  0  0  0  0  0  0  0  0  0  0
   15.3214   -5.8929    0.0000 C   0  0  0  0  0  0  0  0  0  0  0  0
   14.6070   -5.4804    0.0000 N   0  0  0  0  0  0  0  0  0  0  0  0
   14.6070   -4.6554    0.0000 C   0  0  0  0  0  0  0  0  0  0  0  0
   13.8925   -4.2429    0.0000 N   0  0  0  0  0  0  0  0  0  0  0  0
   15.3214   -4.2429    0.0000 N   0  0  0  0  0  0  0  0  0  0  0  0
   16.7504   -9.1929    0.0000 O   0  0  0  0  0  0  0  0  0  0  0  0
   18.1793   -9.1929    0.0000 C   0  0  0  0  0  0  0  0  0  0  0  0
   17.4648   -9.6054    0.0000 C   0  0  0  0  0  0  0  0  0  0  0  0
   17.4648  -10.4304    0.0000 C   0  0  0  0  0  0  0  0  0  0  0  0
   16.7504  -10.8429    0.0000 N   0  0  0  0  0  0  0  0  0  0  0  0
   16.7504  -11.6679    0.0000 C   0  0  0  0  0  0  0  0  0  0  0  0
   16.0359  -12.0804    0.0000 N   0  0  0  0  0  0  0  0  0  0  0  0
   17.4648  -12.0804    0.0000 N   0  0  0  0  0  0  0  0  0  0  0  0
   18.8938   -7.1304    0.0000 O   0  0  0  0  0  0  0  0  0  0  0  0
   19.6945   -9.1883    0.0000 C   0  0  0  0  0  0  0  0  0  0  0  0
   20.5014   -9.3599    0.0000 C   0  0  0  0  0  0  0  0  0  0  0  0
   20.9139   -8.6454    0.0000 C   0  0  0  0  0  0  0  0  0  0  0  0
   20.3619   -8.0323    0.0000 C   0  0  0  0  0  0  0  0  0  0  0  0
   20.5335   -7.2253    0.0000 C   0  0  0  0  0  0  0  0  0  0  0  0
   19.9204   -6.6733    0.0000 O   0  0  0  0  0  0  0  0  0  0  0  0
   21.3181   -6.9704    0.0000 N   0  0  0  0  0  0  0  0  0  0  0  0
   21.9855   -7.4553    0.0000 C   0  0  0  0  0  0  0  0  0  0  0  0
   22.6530   -6.9704    0.0000 C   0  0  0  0  0  0  0  0  0  0  0  0
   22.3980   -6.1858    0.0000 C   0  0  0  0  0  0  0  0  0  0  0  0
   21.5731   -6.1858    0.0000 C   0  0  0  0  0  0  0  0  0  0  0  0
   22.8829   -5.5184    0.0000 O   0  0  0  0  0  0  0  0  0  0  0  0
   21.9855   -8.2803    0.0000 C   0  0  0  0  0  0  0  0  0  0  0  0
   22.7000   -8.6928    0.0000 N   0  0  0  0  0  0  0  0  0  0  0  0
   21.2711   -8.6928    0.0000 O   0  0  0  0  0  0  0  0  0  0  0  0
   23.4145   -8.2803    0.0000 C   0  0  0  0  0  0  0  0  0  0  0  0
   24.1290   -8.6928    0.0000 C   0  0  0  0  0  0  0  0  0  0  0  0
   24.8434   -8.2803    0.0000 N   0  0  0  0  0  0  0  0  0  0  0  0
   24.1290   -9.5178    0.0000 O   0  0  0  0  0  0  0  0  0  0  0  0
   25.5579   -8.6928    0.0000 C   0  0  0  0  0  0  0  0  0  0  0  0
   26.2724   -8.2803    0.0000 C   0  0  0  0  0  0  0  0  0  0  0  0
   26.9868   -8.6928    0.0000 N   0  0  0  0  0  0  0  0  0  0  0  0
   26.2724   -7.4553    0.0000 O   0  0  0  0  0  0  0  0  0  0  0  0
   25.5579   -9.5178    0.0000 C   0  0  0  0  0  0  0  0  0  0  0  0
   24.9745  -10.1012    0.0000 C   0  0  0  0  0  0  0  0  0  0  0  0
   24.1597   -9.9722    0.0000 C   0  0  0  0  0  0  0  0  0  0  0  0
   23.7852  -10.7072    0.0000 C   0  0  0  0  0  0  0  0  0  0  0  0
   24.3685  -11.2906    0.0000 C   0  0  0  0  0  0  0  0  0  0  0  0
   25.1036  -10.9160    0.0000 S   0  0  0  0  0  0  0  0  0  0  0  0
   27.7013   -8.2803    0.0000 C   0  0  0  0  0  0  0  0  0  0  0  0
   28.4158   -8.6928    0.0000 C   0  0  0  0  0  0  0  0  0  0  0  0
   27.7013   -7.4553    0.0000 C   0  0  0  0  0  0  0  0  0  0  0  0
   26.9868   -7.0428    0.0000 O   0  0  0  0  0  0  0  0  0  0  0  0
   29.1303   -8.2803    0.0000 N   0  0  0  0  0  0  0  0  0  0  0  0
   28.4158   -9.5178    0.0000 O   0  0  0  0  0  0  0  0  0  0  0  0
   29.8447   -8.6928    0.0000 C   0  0  0  0  0  0  0  0  0  0  0  0
   30.5592   -8.2803    0.0000 C   0  0  0  0  0  0  0  0  0  0  0  0
   30.5592   -7.4553    0.0000 C   0  0  0  0  0  0  0  0  0  0  0  0
   29.8447   -7.0428    0.0000 C   0  0  0  0  0  0  0  0  0  0  0  0
   29.1303   -7.4553    0.0000 C   0  0  0  0  0  0  0  0  0  0  0  0
   29.8447   -6.2178    0.0000 C   0  0  0  0  0  0  0  0  0  0  0  0
   30.5592   -5.8053    0.0000 C   0  0  0  0  0  0  0  0  0  0  0  0
   31.2737   -6.2178    0.0000 C   0  0  0  0  0  0  0  0  0  0  0  0
   31.2737   -7.0428    0.0000 C   0  0  0  0  0  0  0  0  0  0  0  0
   29.8447   -9.5178    0.0000 C   0  0  0  0  0  0  0  0  0  0  0  0
   30.5592   -9.9303    0.0000 N   0  0  0  0  0  0  0  0  0  0  0  0
   29.1303   -9.9303    0.0000 O   0  0  0  0  0  0  0  0  0  0  0  0
   30.6455  -10.7508    0.0000 C   0  0  0  0  0  0  0  0  0  0  0  0
   31.4524  -10.9223    0.0000 C   0  0  0  0  0  0  0  0  0  0  0  0
   31.8649  -10.2078    0.0000 C   0  0  0  0  0  0  0  0  0  0  0  0
   31.3129   -9.5948    0.0000 C   0  0  0  0  0  0  0  0  0  0  0  0
   30.0934  -11.3639    0.0000 C   0  0  0  0  0  0  0  0  0  0  0  0
   30.3483  -12.1485    0.0000 C   0  0  0  0  0  0  0  0  0  0  0  0
   31.1553  -12.3200    0.0000 C   0  0  0  0  0  0  0  0  0  0  0  0
   31.7074  -11.7069    0.0000 C   0  0  0  0  0  0  0  0  0  0  0  0
   31.5264   -8.7979    0.0000 C   0  0  0  0  0  0  0  0  0  0  0  0
   30.9430   -8.2145    0.0000 O   0  0  0  0  0  0  0  0  0  0  0  0
   32.3233   -8.5844    0.0000 N   0  0  0  0  0  0  0  0  0  0  0  0
   33.0378   -8.9969    0.0000 C   0  0  0  0  0  0  0  0  0  0  0  0
   33.7522   -8.5844    0.0000 C   0  0  0  0  0  0  0  0  0  0  0  0
   34.4667   -8.9969    0.0000 O   0  0  0  0  0  0  0  0  0  0  0  0
   33.7522   -7.7594    0.0000 O   0  0  0  0  0  0  0  0  0  0  0  0
   33.0378   -9.8219    0.0000 C   0  0  0  0  0  0  0  0  0  0  0  0
   33.7522  -10.2344    0.0000 C   0  0  0  0  0  0  0  0  0  0  0  0
   33.7522  -11.0594    0.0000 C   0  0  0  0  0  0  0  0  0  0  0  0
   34.4667  -11.4719    0.0000 N   0  0  0  0  0  0  0  0  0  0  0  0
   34.4667  -12.2969    0.0000 C   0  0  0  0  0  0  0  0  0  0  0  0
   35.1812  -12.7094    0.0000 N   0  0  0  0  0  0  0  0  0  0  0  0
   33.7522  -12.7094    0.0000 N   0  0  0  0  0  0  0  0  0  0  0  0
  1  2  1  0
  2  3  1  0
  2  4  2  0
  5  6  1  0
  6  7  1  0
  7  8  1  0
  8  9  1  0
  9 10  1  0
 10 11  1  0
  6 12  1  6
 12 13  1  0
 13 14  1  0
 14 15  1  0
 15 16  1  0
 16 17  1  0
 16 18  2  0
  7 19  2  0
  9 20  1  6
 20 21  1  0
 21 22  1  0
 22 23  1  0
 23 24  1  0
 24 25  1  0
 24 26  2  0
 10 27  2  0
 11 28  1  0
 11 31  1  0
 28 29  1  0
 29 30  1  0
 31 30  1  6
 31 32  1  0
 32 33  2  0
 32 34  1  0
 34 35  1  0
 34 38  1  0
 35 36  1  1
 36 37  1  0
 37 38  1  0
 37 39  1  6
 35 40  1  0
 40 41  1  0
 40 42  2  0
 41 43  1  0
 43 44  1  0
 44 45  1  0
 44 46  2  0
 45 47  1  0
 47 48  1  0
 48 49  1  0
 48 50  2  0
 47 51  1  6
 51 52  1  0
 52 53  2  0
 52 56  1  0
 53 54  1  0
 54 55  2  0
 55 56  1  0
 49 57  1  0
 57 58  1  0
 57 59  1  1
 59 60  1  0
 58 61  1  0
 58 62  2  0
 61 63  1  0
 67 61  1  0
 63 64  1  6
 64 65  1  0
 66 67  1  0
 71 65  1  0
 65 66  2  0
 66 68  1  0
 68 69  2  0
 69 70  1  0
 70 71  2  0
 63 72  1  0
 72 73  1  0
 72 74  2  0
 73 75  1  0
 73 78  1  0
 76 77  1  6
 78 77  1  6
 75 79  1  6
 76 75  1  0
 82 76  1  0
 79 80  1  0
 80 81  1  0
 81 82  1  0
 78 83  1  0
 83 84  2  0
 83 85  1  0
 85 86  1  0
 86 87  1  0
 87 88  1  0
 87 89  2  0
 86 90  1  6
 90 91  1  0
 91 92  1  0
 92 93  1  0
 93 94  1  0
 94 95  2  0
 94 96  1  0
M  END
> <chembl_id>
CHEMBL2028852

> <chembl_pref_name>
ICATIBANT ACETATE
