
     RDKit          2D

 14 13  0  0  0  0  0  0  0  0999 V2000
    4.6792   -6.7500    0.0000 Cl  0  0  0  0  0  0  0  0  0  0  0  0
    2.8250   -6.2292    0.0000 C   0  0  0  0  0  0  0  0  0  0  0  0
    3.4417   -5.8792    0.0000 O   0  0  0  0  0  0  0  0  0  0  0  0
    2.8250   -6.9375    0.0000 C   0  0  0  0  0  0  0  0  0  0  0  0
    2.1792   -5.8792    0.0000 C   0  0  0  0  0  0  0  0  0  0  0  0
    4.0625   -6.2667    0.0000 C   0  0  0  0  0  0  0  0  0  0  0  0
    4.6750   -5.2250    0.0000 N   0  0  0  0  0  0  0  0  0  0  0  0
    4.6750   -5.8792    0.0000 C   0  0  0  0  0  0  0  0  0  0  0  0
    1.5792   -6.9375    0.0000 C   0  0  0  0  0  0  0  0  0  0  0  0
    2.1792   -7.2792    0.0000 C   0  0  0  0  0  0  0  0  0  0  0  0
    1.5792   -6.2292    0.0000 C   0  0  0  0  0  0  0  0  0  0  0  0
    3.4417   -7.2792    0.0000 C   0  0  0  0  0  0  0  0  0  0  0  0
    2.1750   -5.1667    0.0000 C   0  0  0  0  0  0  0  0  0  0  0  0
    5.2792   -6.2292    0.0000 C   0  0  0  0  0  0  0  0  0  0  0  0
  3  2  1  0
  4  2  2  0
  5  2  1  0
  6  3  1  0
  7  8  1  0
  8  6  1  0
  9 11  1  0
 10  4  1  0
 11  5  2  0
 12  4  1  0
 13  5  1  0
 14  8  1  0
  9 10  2  0
M  END
> <chembl_id>
CHEMBL1200606

> <chembl_pref_name>
MEXILETINE HYDROCHLORIDE
