
     RDKit          2D

 38 38  0  0  0  0  0  0  0  0999 V2000
   -5.5688    1.2964    0.0000 N   0  0  0  0  0  0  0  0  0  0  0  0
   -4.8543    1.7089    0.0000 C   0  0  0  0  0  0  0  0  0  0  0  0
   -4.1398    1.2964    0.0000 C   0  0  0  0  0  0  0  0  0  0  0  0
   -3.4253    1.7089    0.0000 C   0  0  0  0  0  0  0  0  0  0  0  0
   -2.7109    1.2964    0.0000 C   0  0  0  0  0  0  0  0  0  0  0  0
   -1.9964    1.7089    0.0000 C   0  0  0  0  0  0  0  0  0  0  0  0
   -1.2819    1.2964    0.0000 C   0  0  0  0  0  0  0  0  0  0  0  0
   -0.5675    1.7089    0.0000 O   0  0  0  0  0  0  0  0  0  0  0  0
   -1.2819    0.4714    0.0000 O   0  0  0  0  0  0  0  0  0  0  0  0
   -1.9964    2.5339    0.0000 N   0  0  0  0  0  0  0  0  0  0  0  0
    2.9464   -0.7955    0.0000 C   0  0  0  0  0  0  0  0  0  0  0  0
    3.6609   -0.3830    0.0000 C   0  0  0  0  0  0  0  0  0  0  0  0
    4.3754   -0.7955    0.0000 C   0  0  0  0  0  0  0  0  0  0  0  0
    5.0898   -0.3830    0.0000 N   0  0  0  0  0  0  0  0  0  0  0  0
    4.3754   -1.6205    0.0000 O   0  0  0  0  0  0  0  0  0  0  0  0
    5.9148   -0.3830    0.0000 C   0  0  0  0  0  0  0  0  0  0  0  0
    6.7398   -0.3830    0.0000 C   0  0  0  0  0  0  0  0  0  0  0  0
    5.9148    0.4420    0.0000 C   0  0  0  0  0  0  0  0  0  0  0  0
    6.7398    0.4420    0.0000 N   0  0  0  0  0  0  0  0  0  0  0  0
    7.3232   -0.9664    0.0000 C   0  0  0  0  0  0  0  0  0  0  0  0
    7.3232    1.0253    0.0000 S   0  0  0  0  0  0  0  0  0  0  0  0
    7.3232    1.8503    0.0000 O   0  0  0  0  0  0  0  0  0  0  0  0
    8.1201    1.2389    0.0000 O   0  0  0  0  0  0  0  0  0  0  0  0
    7.7357    0.3109    0.0000 O   0  0  0  0  0  0  0  0  0  0  0  0
    5.3315    1.0253    0.0000 O   0  0  0  0  0  0  0  0  0  0  0  0
    3.6609    0.4420    0.0000 N   0  0  0  0  0  0  0  0  0  0  0  0
    4.3754    0.8545    0.0000 O   0  0  0  0  0  0  0  0  0  0  0  0
    4.3754    1.6795    0.0000 C   0  0  0  0  0  0  0  0  0  0  0  0
    5.0898    2.0920    0.0000 C   0  0  0  0  0  0  0  0  0  0  0  0
    5.0898    2.9170    0.0000 O   0  0  0  0  0  0  0  0  0  0  0  0
    5.8043    1.6795    0.0000 O   0  0  0  0  0  0  0  0  0  0  0  0
    4.1618    2.4764    0.0000 C   0  0  0  0  0  0  0  0  0  0  0  0
    3.5504    1.6795    0.0000 C   0  0  0  0  0  0  0  0  0  0  0  0
    2.1927   -0.4600    0.0000 N   0  0  0  0  0  0  0  0  0  0  0  0
    1.6407   -1.0731    0.0000 C   0  0  0  0  0  0  0  0  0  0  0  0
    2.0532   -1.7875    0.0000 S   0  0  0  0  0  0  0  0  0  0  0  0
    2.8602   -1.6160    0.0000 C   0  0  0  0  0  0  0  0  0  0  0  0
    0.8203   -0.9868    0.0000 N   0  0  0  0  0  0  0  0  0  0  0  0
  1  2  1  0
  2  3  1  0
  3  4  1  0
  4  5  1  0
  5  6  1  0
  6  7  1  0
  7  8  1  0
  7  9  2  0
  6 10  1  6
 11 12  1  0
 12 13  1  0
 13 14  1  0
 13 15  2  0
 16 14  1  6
 16 17  1  0
 16 18  1  0
 18 19  1  0
 19 17  1  0
 17 20  1  1
 19 21  1  0
 21 22  2  0
 21 23  2  0
 21 24  1  0
 18 25  2  0
 12 26  2  0
 26 27  1  0
 27 28  1  0
 28 29  1  0
 29 30  2  0
 29 31  1  0
 28 32  1  0
 28 33  1  0
 11 34  1  0
 11 37  2  0
 34 35  2  0
 35 36  1  0
 36 37  1  0
 35 38  1  0
M  END
> <chembl_id>
CHEMBL3833340

> <chembl_pref_name>
AZTREONAM LYSINE
