
     RDKit          2D

 37 40  0  0  0  0  0  0  0  0999 V2000
    1.3427   12.6915    0.0000 C   0  0  0  0  0  0  0  0  0  0  0  0
    1.8276   13.3589    0.0000 N   0  0  0  0  0  0  0  0  0  0  0  0
    2.6122   13.1040    0.0000 C   0  0  0  0  0  0  0  0  0  0  0  0
    2.6122   12.2790    0.0000 C   0  0  0  0  0  0  0  0  0  0  0  0
    1.8276   12.0240    0.0000 C   0  0  0  0  0  0  0  0  0  0  0  0
    3.3267   13.5165    0.0000 C   0  0  0  0  0  0  0  0  0  0  0  0
    4.0412   13.1040    0.0000 C   0  0  0  0  0  0  0  0  0  0  0  0
    4.0412   12.2790    0.0000 C   0  0  0  0  0  0  0  0  0  0  0  0
    3.3267   11.8665    0.0000 C   0  0  0  0  0  0  0  0  0  0  0  0
    1.5727   11.2394    0.0000 C   0  0  0  0  0  0  0  0  0  0  0  0
    2.1247   10.6263    0.0000 N   0  0  0  0  0  0  0  0  0  0  0  0
    1.8697    9.8417    0.0000 C   0  0  0  0  0  0  0  0  0  0  0  0
    1.0628    9.6702    0.0000 N   0  0  0  0  0  0  0  0  0  0  0  0
    0.5107   10.2833    0.0000 C   0  0  0  0  0  0  0  0  0  0  0  0
    0.7657   11.0679    0.0000 C   0  0  0  0  0  0  0  0  0  0  0  0
    2.4218    9.2286    0.0000 N   0  0  0  0  0  0  0  0  0  0  0  0
    2.1668    8.4440    0.0000 C   0  0  0  0  0  0  0  0  0  0  0  0
    2.7189    7.8309    0.0000 C   0  0  0  0  0  0  0  0  0  0  0  0
    2.4639    7.0463    0.0000 C   0  0  0  0  0  0  0  0  0  0  0  0
    1.6570    6.8747    0.0000 C   0  0  0  0  0  0  0  0  0  0  0  0
    1.1049    7.4878    0.0000 C   0  0  0  0  0  0  0  0  0  0  0  0
    1.3599    8.2725    0.0000 C   0  0  0  0  0  0  0  0  0  0  0  0
    3.5258    8.0024    0.0000 O   0  0  0  0  0  0  0  0  0  0  0  0
    4.0779    7.3893    0.0000 C   0  0  0  0  0  0  0  0  0  0  0  0
    0.2980    7.3163    0.0000 N   0  0  0  0  0  0  0  0  0  0  0  0
   -0.2541    7.9294    0.0000 C   0  0  0  0  0  0  0  0  0  0  0  0
    0.0009    8.7140    0.0000 O   0  0  0  0  0  0  0  0  0  0  0  0
   -1.0610    7.7579    0.0000 C   0  0  0  0  0  0  0  0  0  0  0  0
   -1.6131    8.3710    0.0000 C   0  0  0  0  0  0  0  0  0  0  0  0
    1.4020    6.0901    0.0000 N   0  0  0  0  0  0  0  0  0  0  0  0
    1.9541    5.4770    0.0000 C   0  0  0  0  0  0  0  0  0  0  0  0
    0.5950    5.9186    0.0000 C   0  0  0  0  0  0  0  0  0  0  0  0
    0.3401    5.1340    0.0000 C   0  0  0  0  0  0  0  0  0  0  0  0
   -0.4669    4.9624    0.0000 N   0  0  0  0  0  0  0  0  0  0  0  0
   -0.7218    4.1778    0.0000 C   0  0  0  0  0  0  0  0  0  0  0  0
   -1.0189    5.5755    0.0000 C   0  0  0  0  0  0  0  0  0  0  0  0
    1.5727   14.1435    0.0000 C   0  0  0  0  0  0  0  0  0  0  0  0
  1  2  1  0
  2  3  1  0
  4  5  1  0
  1  5  2  0
  3  6  1  0
  4  3  2  0
  9  4  1  0
  6  7  2  0
  7  8  1  0
  8  9  2  0
  5 10  1  0
 10 11  1  0
 10 15  2  0
 11 12  2  0
 12 13  1  0
 13 14  2  0
 14 15  1  0
 12 16  1  0
 16 17  1  0
 17 18  1  0
 17 22  2  0
 18 19  2  0
 19 20  1  0
 20 21  2  0
 21 22  1  0
 18 23  1  0
 23 24  1  0
 21 25  1  0
 25 26  1  0
 26 27  2  0
 26 28  1  0
 28 29  2  0
 20 30  1  0
 30 31  1  0
 30 32  1  0
 32 33  1  0
 33 34  1  0
 34 35  1  0
 34 36  1  0
  2 37  1  0
M  END
> <chembl_id>
CHEMBL3353410

> <chembl_pref_name>
OSIMERTINIB
