
     RDKit          2D

 18 18  0  0  0  0  0  0  0  0999 V2000
    4.0417   -0.2042    0.0000 Cl  0  0  0  0  0  0  0  0  0  0  0  0
   -0.3583    0.1208    0.0000 C   0  0  0  0  0  0  0  0  0  0  0  0
    1.5250    0.1000    0.0000 N   0  0  0  0  0  0  0  0  0  0  0  0
   -1.3208   -0.4167    0.0000 C   0  0  0  0  0  0  0  0  0  0  0  0
    0.6167   -0.3167    0.0000 C   0  0  0  0  0  0  0  0  0  0  0  0
   -2.2833    0.1625    0.0000 C   0  0  0  0  0  0  0  0  0  0  0  0
   -3.2458   -0.4167    0.0000 C   0  0  0  0  0  0  0  0  0  0  0  0
   -4.2083    0.1208    0.0000 O   0  0  0  0  0  0  0  0  0  0  0  0
   -0.3458   -0.9792    0.0000 C   0  0  0  0  0  0  0  0  0  0  0  0
   -0.6208    1.1750    0.0000 C   0  0  0  0  0  0  0  0  0  0  0  0
    2.4000   -0.4375    0.0000 C   0  0  0  0  0  0  0  0  0  0  0  0
    1.8500    1.2000    0.0000 C   0  0  0  0  0  0  0  0  0  0  0  0
   -1.3208   -1.5167    0.0000 C   0  0  0  0  0  0  0  0  0  0  0  0
   -2.2833   -2.0875    0.0000 C   0  0  0  0  0  0  0  0  0  0  0  0
   -3.2458   -1.5167    0.0000 C   0  0  0  0  0  0  0  0  0  0  0  0
    0.5750   -1.5542    0.0000 C   0  0  0  0  0  0  0  0  0  0  0  0
    0.0292    2.0958    0.0000 C   0  0  0  0  0  0  0  0  0  0  0  0
    1.1917    2.0958    0.0000 C   0  0  0  0  0  0  0  0  0  0  0  0
  3  5  1  0
  4  2  1  0
  5  2  1  0
  6  4  1  0
  7  6  2  0
  8  7  1  0
  9  2  1  0
 10  2  1  0
 11  3  1  0
 12  3  1  0
 13  4  2  0
 14 13  1  0
 15 14  2  0
 16  9  1  0
 17 10  1  0
 18 17  1  0
 12 18  1  0
  7 15  1  0
M  END
> <chembl_id>
CHEMBL1477274

> <chembl_pref_name>
MEPTAZINOL HYDROCHLORIDE
