
     RDKit          2D

 42 43  0  0  0  0  0  0  0  0999 V2000
    6.0456   -1.3757    0.0000 C   0  0  0  0  0  0  0  0  0  0  0  0
    5.3239   -1.7827    0.0000 C   0  0  0  0  0  0  0  0  0  0  0  0
    6.7626   -1.7827    0.0000 C   0  0  0  0  0  0  0  0  0  0  0  0
    5.6291   -0.6589    0.0000 C   0  0  0  0  0  0  0  0  0  0  0  0
    7.4747   -1.3757    0.0000 C   0  0  0  0  0  0  0  0  0  0  0  0
    5.3384   -2.5965    0.0000 C   0  0  0  0  0  0  0  0  0  0  0  0
    6.0311    0.0630    0.0000 O   0  0  0  0  0  0  0  0  0  0  0  0
    6.0747   -2.9889    0.0000 O   0  0  0  0  0  0  0  0  0  0  0  0
    7.4747   -0.5474    0.0000 O   0  0  0  0  0  0  0  0  0  0  0  0
    6.4526   -0.6589    0.0000 O   0  0  0  0  0  0  0  0  0  0  0  0
    4.8007   -0.6636    0.0000 O   0  0  0  0  0  0  0  0  0  0  0  0
    4.6408   -3.0325    0.0000 O   0  0  0  0  0  0  0  0  0  0  0  0
    8.1965   -1.7827    0.0000 O   0  0  0  0  0  0  0  0  0  0  0  0
   -2.9405   -1.7343    0.0000 C   0  0  0  0  0  0  0  0  0  0  0  0
   -3.6623   -1.3128    0.0000 C   0  0  0  0  0  0  0  0  0  0  0  0
   -2.2284   -1.3274    0.0000 C   0  0  0  0  0  0  0  0  0  0  0  0
   -2.9502   -2.5627    0.0000 C   0  0  0  0  0  0  0  0  0  0  0  0
   -3.6623   -0.4845    0.0000 C   0  0  0  0  0  0  0  0  0  0  0  0
   -4.3793   -1.7294    0.0000 Cl  0  0  0  0  0  0  0  0  0  0  0  0
   -1.5114   -1.7343    0.0000 C   0  0  0  0  0  0  0  0  0  0  0  0
   -2.2235   -0.4941    0.0000 C   0  0  0  0  0  0  0  0  0  0  0  0
    2.0782   -0.5135    0.0000 N   0  0  0  0  0  0  0  0  0  0  0  0
   -0.7751   -0.5086    0.0000 C   0  0  0  0  0  0  0  0  0  0  0  0
   -0.7751   -1.3274    0.0000 C   0  0  0  0  0  0  0  0  0  0  0  0
   -1.5114   -0.0872    0.0000 C   0  0  0  0  0  0  0  0  0  0  0  0
   -0.0921   -0.0872    0.0000 O   0  0  0  0  0  0  0  0  0  0  0  0
    0.6346   -0.4990    0.0000 C   0  0  0  0  0  0  0  0  0  0  0  0
    1.3612   -0.0921    0.0000 C   0  0  0  0  0  0  0  0  0  0  0  0
   -2.9405   -0.0775    0.0000 C   0  0  0  0  0  0  0  0  0  0  0  0
   -2.2381   -2.9792    0.0000 C   0  0  0  0  0  0  0  0  0  0  0  0
   -3.6623   -2.9792    0.0000 C   0  0  0  0  0  0  0  0  0  0  0  0
   -4.3744   -0.0727    0.0000 C   0  0  0  0  0  0  0  0  0  0  0  0
    2.0782   -1.3419    0.0000 C   0  0  0  0  0  0  0  0  0  0  0  0
    2.7903   -0.0921    0.0000 C   0  0  0  0  0  0  0  0  0  0  0  0
    2.7854   -1.7488    0.0000 C   0  0  0  0  0  0  0  0  0  0  0  0
    3.5024   -0.5135    0.0000 C   0  0  0  0  0  0  0  0  0  0  0  0
   -4.3647    0.7363    0.0000 C   0  0  0  0  0  0  0  0  0  0  0  0
   -2.9356    0.7363    0.0000 C   0  0  0  0  0  0  0  0  0  0  0  0
   -3.6671   -3.8076    0.0000 C   0  0  0  0  0  0  0  0  0  0  0  0
   -2.2381   -3.8125    0.0000 C   0  0  0  0  0  0  0  0  0  0  0  0
   -3.6526    1.1432    0.0000 C   0  0  0  0  0  0  0  0  0  0  0  0
   -2.9550   -4.2145    0.0000 C   0  0  0  0  0  0  0  0  0  0  0  0
  2  1  1  0
  3  1  1  0
  4  1  1  0
  5  3  1  0
  6  2  1  0
  7  4  2  0
  8  6  2  0
  9  5  2  0
 10  1  1  0
 11  4  1  0
 12  6  1  0
 13  5  1  0
 26 23  1  0
 27 26  1  0
 28 27  1  0
 29 18  2  0
 30 17  1  0
 31 17  2  0
 32 18  1  0
 33 22  1  0
 34 22  1  0
 35 33  1  0
 36 34  1  0
 37 32  2  0
 38 29  1  0
 39 31  1  0
 40 30  2  0
 41 37  1  0
 42 39  2  0
 23 24  2  0
 42 40  1  0
 41 38  2  0
 15 14  2  3
 16 14  1  0
 17 14  1  0
 18 15  1  0
 19 15  1  0
 20 16  2  0
 21 16  1  0
 22 28  1  0
 23 25  1  0
 24 20  1  0
 25 21  2  0
M  END
> <chembl_id>
CHEMBL3185958

> <chembl_pref_name>
CLOMIPHENE CITRATE
