
     RDKit          2D

 33 37  0  0  0  0  0  0  0  0999 V2000
    5.0792   -5.1500    0.0000 C   0  0  0  0  0  0  0  0  0  0  0  0
    4.4667   -5.5000    0.0000 N   0  0  0  0  0  0  0  0  0  0  0  0
    5.0792   -4.4458    0.0000 C   0  0  0  0  0  0  0  0  0  0  0  0
    5.6792   -5.5000    0.0000 C   0  0  0  0  0  0  0  0  0  0  0  0
    4.4667   -4.0917    0.0000 N   0  0  0  0  0  0  0  0  0  0  0  0
    6.2917   -4.4458    0.0000 C   0  0  0  0  0  0  0  0  0  0  0  0
    6.2917   -5.1500    0.0000 C   0  0  0  0  0  0  0  0  0  0  0  0
    5.6792   -4.0917    0.0000 C   0  0  0  0  0  0  0  0  0  0  0  0
    3.8542   -5.1500    0.0000 C   0  0  0  0  0  0  0  0  0  0  0  0
    3.8542   -4.4458    0.0000 C   0  0  0  0  0  0  0  0  0  0  0  0
    6.9167   -5.5000    0.0000 N   0  0  0  0  0  0  0  0  0  0  0  0
    6.9167   -4.0917    0.0000 N   0  0  0  0  0  0  0  0  0  0  0  0
    4.4667   -6.2125    0.0000 C   0  0  0  0  0  0  0  0  0  0  0  0
    3.8542   -6.5667    0.0000 C   0  0  0  0  0  0  0  0  0  0  0  0
    5.0792   -6.5667    0.0000 C   0  0  0  0  0  0  0  0  0  0  0  0
    7.5292   -4.4583    0.0000 C   0  0  0  0  0  0  0  0  0  0  0  0
    4.4667   -7.6375    0.0000 C   0  0  0  0  0  0  0  0  0  0  0  0
    8.7500   -5.1792    0.0000 C   0  0  0  0  0  0  0  0  0  0  0  0
    3.8542   -7.2792    0.0000 C   0  0  0  0  0  0  0  0  0  0  0  0
    5.0792   -7.2792    0.0000 C   0  0  0  0  0  0  0  0  0  0  0  0
    6.9167   -6.2125    0.0000 C   0  0  0  0  0  0  0  0  0  0  0  0
    4.4667   -8.3500    0.0000 Cl  0  0  0  0  0  0  0  0  0  0  0  0
    9.3625   -5.5417    0.0000 Cl  0  0  0  0  0  0  0  0  0  0  0  0
    8.1500   -4.1125    0.0000 C   0  0  0  0  0  0  0  0  0  0  0  0
    7.5208   -5.1750    0.0000 C   0  0  0  0  0  0  0  0  0  0  0  0
    8.7625   -4.4750    0.0000 C   0  0  0  0  0  0  0  0  0  0  0  0
    8.1333   -5.5375    0.0000 C   0  0  0  0  0  0  0  0  0  0  0  0
    3.2292   -5.5000    0.0000 C   0  0  0  0  0  0  0  0  0  0  0  0
    3.2292   -4.0917    0.0000 C   0  0  0  0  0  0  0  0  0  0  0  0
    7.5292   -6.5667    0.0000 C   0  0  0  0  0  0  0  0  0  0  0  0
    6.2917   -6.5667    0.0000 C   0  0  0  0  0  0  0  0  0  0  0  0
    2.6167   -5.1500    0.0000 C   0  0  0  0  0  0  0  0  0  0  0  0
    2.6167   -4.4458    0.0000 C   0  0  0  0  0  0  0  0  0  0  0  0
  2  1  1  0
  3  1  1  0
  4  1  2  0
  5  3  2  0
  6  7  1  0
  7  4  1  0
  8  3  1  0
  9  2  1  0
 10  5  1  0
 11  7  2  0
 12  6  1  0
 13  2  1  0
 14 13  2  0
 15 13  1  0
 16 12  1  0
 17 20  1  0
 18 27  1  0
 19 14  1  0
 20 15  2  0
 21 11  1  0
 22 17  1  0
 23 18  1  0
 24 16  2  0
 25 16  1  0
 26 24  1  0
 27 25  2  0
 28  9  1  0
 29 10  1  0
 30 21  1  0
 31 21  1  0
 32 28  2  0
 33 29  2  0
  8  6  2  0
  9 10  2  0
 19 17  2  0
 32 33  1  0
 26 18  2  0
M  END
> <chembl_id>
CHEMBL1292

> <chembl_pref_name>
CLOFAZIMINE
