
     RDKit          2D

 17 18  0  0  0  0  0  0  0  0999 V2000
    5.3532    2.2665    0.0000 C   0  0  0  0  0  0  0  0  0  0  0  0
    6.0134    1.7743    0.0000 N   0  0  0  0  0  0  0  0  0  0  0  0
    6.6869    2.2540    0.0000 C   0  0  0  0  0  0  0  0  0  0  0  0
    6.4392    3.0437    0.0000 C   0  0  0  0  0  0  0  0  0  0  0  0
    5.6149    3.0475    0.0000 C   0  0  0  0  0  0  0  0  0  0  0  0
    5.5977    1.0615    0.0000 C   0  0  0  0  0  0  0  0  0  0  0  0
    6.4229    1.0615    0.0000 C   0  0  0  0  0  0  0  0  0  0  0  0
    7.2480    1.0581    0.0000 C   0  0  0  0  0  0  0  0  0  0  0  0
    7.6556    0.3413    0.0000 C   0  0  0  0  0  0  0  0  0  0  0  0
    8.4807    0.3381    0.0000 C   0  0  0  0  0  0  0  0  0  0  0  0
    8.8925   -0.3788    0.0000 C   0  0  0  0  0  0  0  0  0  0  0  0
    9.7176   -0.3820    0.0000 N   0  0  0  0  0  0  0  0  0  0  0  0
   10.1927   -1.0482    0.0000 C   0  0  0  0  0  0  0  0  0  0  0  0
   10.9787   -0.7977    0.0000 C   0  0  0  0  0  0  0  0  0  0  0  0
   10.9820    0.0276    0.0000 C   0  0  0  0  0  0  0  0  0  0  0  0
   10.1981    0.2842    0.0000 C   0  0  0  0  0  0  0  0  0  0  0  0
    9.2964   -1.0947    0.0000 C   0  0  0  0  0  0  0  0  0  0  0  0
  3  4  1  0
  8  9  1  0
  4  5  1  0
  9 10  1  0
  5  1  1  0
 10 11  1  0
  1  2  1  0
 11 12  1  0
 12 13  1  0
  2  6  1  0
  2  7  1  0
  2  3  1  0
 13 14  1  0
 14 15  1  0
 15 16  1  0
 16 12  1  0
  7  8  1  0
 12 17  1  0
M  CHG  2   2   1  12   1
M  END
> <chembl_id>
CHEMBL1271

> <chembl_pref_name>
PENTOLINIUM
