
     RDKit          2D

 37 41  0  0  0  0  0  0  0  0999 V2000
   -5.8339    3.3000    0.0000 C   0  0  0  0  0  0  0  0  0  0  0  0
   -5.1195    2.8875    0.0000 C   0  0  0  0  0  0  0  0  0  0  0  0
   -5.1195    2.0625    0.0000 O   0  0  0  0  0  0  0  0  0  0  0  0
   -4.4050    3.3000    0.0000 N   0  0  0  0  0  0  0  0  0  0  0  0
   -3.6905    2.8875    0.0000 C   0  0  0  0  0  0  0  0  0  0  0  0
   -2.9761    3.3000    0.0000 C   0  0  0  0  0  0  0  0  0  0  0  0
   -3.6905    2.0625    0.0000 C   0  0  0  0  0  0  0  0  0  0  0  0
   -2.9761    1.6500    0.0000 C   0  0  0  0  0  0  0  0  0  0  0  0
   -2.2616    2.0625    0.0000 C   0  0  0  0  0  0  0  0  0  0  0  0
   -2.2616    2.8875    0.0000 C   0  0  0  0  0  0  0  0  0  0  0  0
   -1.5471    3.3000    0.0000 N   0  0  0  0  0  0  0  0  0  0  0  0
   -0.8326    4.5375    0.0000 N   0  0  0  0  0  0  0  0  0  0  0  0
   -1.5471    4.1250    0.0000 C   0  0  0  0  0  0  0  0  0  0  0  0
   -0.8326    2.8875    0.0000 C   0  0  0  0  0  0  0  0  0  0  0  0
   -0.1182    3.3000    0.0000 C   0  0  0  0  0  0  0  0  0  0  0  0
   -0.1182    4.1250    0.0000 C   0  0  0  0  0  0  0  0  0  0  0  0
   -2.2616    4.5375    0.0000 O   0  0  0  0  0  0  0  0  0  0  0  0
   -0.8326    5.3625    0.0000 C   0  0  0  0  0  0  0  0  0  0  0  0
   -0.2493    5.9459    0.0000 C   0  0  0  0  0  0  0  0  0  0  0  0
   -1.0743    5.9459    0.0000 C   0  0  0  0  0  0  0  0  0  0  0  0
    0.5963    4.5375    0.0000 O   0  0  0  0  0  0  0  0  0  0  0  0
   -0.8326    2.0625    0.0000 C   0  0  0  0  0  0  0  0  0  0  0  0
   -0.1182    1.6500    0.0000 C   0  0  0  0  0  0  0  0  0  0  0  0
    0.5963    2.0625    0.0000 N   0  0  0  0  0  0  0  0  0  0  0  0
    0.5963    2.8875    0.0000 C   0  0  0  0  0  0  0  0  0  0  0  0
    1.3108    3.3000    0.0000 N   0  0  0  0  0  0  0  0  0  0  0  0
    2.0252    2.8875    0.0000 C   0  0  0  0  0  0  0  0  0  0  0  0
    2.7397    3.3000    0.0000 C   0  0  0  0  0  0  0  0  0  0  0  0
    2.0252    2.0625    0.0000 C   0  0  0  0  0  0  0  0  0  0  0  0
    2.7397    1.6500    0.0000 C   0  0  0  0  0  0  0  0  0  0  0  0
    3.4542    2.0625    0.0000 C   0  0  0  0  0  0  0  0  0  0  0  0
    3.4542    2.8875    0.0000 C   0  0  0  0  0  0  0  0  0  0  0  0
   -0.1182    0.8250    0.0000 O   0  0  0  0  0  0  0  0  0  0  0  0
    1.3108    1.6500    0.0000 C   0  0  0  0  0  0  0  0  0  0  0  0
    4.1686    1.6500    0.0000 I   0  0  0  0  0  0  0  0  0  0  0  0
   -1.5471    1.6500    0.0000 C   0  0  0  0  0  0  0  0  0  0  0  0
    2.7397    4.1250    0.0000 F   0  0  0  0  0  0  0  0  0  0  0  0
  1  2  1  0
  2  3  2  0
  2  4  1  0
  4  5  1  0
  6  5  2  0
  5  7  1  0
  6 10  1  0
  7  8  2  0
  8  9  1  0
  9 10  2  0
 10 11  1  0
 13 11  1  0
 11 14  1  0
 12 13  1  0
 12 16  1  0
 15 16  1  0
 13 17  2  0
 12 18  1  0
 18 19  1  0
 19 20  1  0
 20 18  1  0
 16 21  2  0
 15 25  2  0
 15 14  1  0
 14 22  2  0
 22 23  1  0
 23 24  1  0
 24 25  1  0
 25 26  1  0
 26 27  1  0
 28 27  2  0
 27 29  1  0
 28 32  1  0
 29 30  2  0
 30 31  1  0
 31 32  2  0
 23 33  2  0
 24 34  1  0
 31 35  1  0
 22 36  1  0
 28 37  1  0
M  END
> <chembl_id>
CHEMBL2103875

> <chembl_pref_name>
TRAMETINIB
