
     RDKit          2D

 35 38  0  0  1  0  0  0  0  0999 V2000
    2.8000   -1.8542    0.0000 C   0  0  0  0  0  0  0  0  0  0  0  0
    1.5792   -1.8292    0.0000 C   0  0  0  0  0  0  0  0  0  0  0  0
    2.8042   -1.1542    0.0000 C   0  0  0  0  0  0  0  0  0  0  0  0
    4.0375   -1.8792    0.0000 C   0  0  0  0  0  0  0  0  0  0  0  0
    2.1917   -2.1917    0.0000 C   0  0  0  0  0  0  0  0  0  0  0  0
    1.5917   -1.1292    0.0000 C   0  0  0  0  0  0  0  0  0  0  0  0
    3.4042   -2.2167    0.0000 C   0  0  0  0  0  0  0  0  0  0  0  0
    4.0500   -1.1792    0.0000 C   0  0  0  0  0  0  0  0  0  0  0  0
    0.9500   -2.1667    0.0000 C   0  0  0  0  0  0  0  0  0  0  0  0
    0.9792   -0.7667    0.0000 C   0  0  0  0  0  0  0  0  0  0  0  0
    3.4375   -0.8167    0.0000 C   0  0  0  0  0  0  0  0  0  0  0  0
    2.2167   -0.7917    0.0000 C   0  0  0  0  0  0  0  0  0  0  0  0
    0.3375   -1.8042    0.0000 C   0  0  0  0  0  0  0  0  0  0  0  0
    0.3542   -1.1042    0.0000 C   0  0  0  0  0  0  0  0  0  0  0  0
    4.6500   -2.2417    0.0000 C   0  0  0  0  0  0  0  0  0  0  0  0
    3.4542   -0.0917    0.0000 N   0  0  0  0  0  0  0  0  0  0  0  0
    3.3917   -2.9292    0.0000 O   0  0  0  0  0  0  0  0  0  0  0  0
    0.9375   -2.8917    0.0000 O   0  0  0  0  0  0  0  0  0  0  0  0
   -0.2833   -2.1417    0.0000 C   0  0  0  0  0  0  0  0  0  0  0  0
    2.7792   -2.5667    0.0000 O   0  0  0  0  0  0  0  0  0  0  0  0
    4.6417   -2.9542    0.0000 O   0  0  0  0  0  0  0  0  0  0  0  0
    2.1792   -2.9042    0.0000 O   0  0  0  0  0  0  0  0  0  0  0  0
    4.6750   -0.8292    0.0000 O   0  0  0  0  0  0  0  0  0  0  0  0
    0.6250   -0.1500    0.0000 O   0  0  0  0  0  0  0  0  0  0  0  0
    2.2167   -0.0667    0.0000 O   0  0  0  0  0  0  0  0  0  0  0  0
    5.2667   -1.8917    0.0000 N   0  0  0  0  0  0  0  0  0  0  0  0
    1.3292   -0.1500    0.0000 C   0  0  0  0  0  0  0  0  0  0  0  0
   -0.2583   -0.7417    0.0000 C   0  0  0  0  0  0  0  0  0  0  0  0
   -0.3000   -2.8542    0.0000 O   0  0  0  0  0  0  0  0  0  0  0  0
   -0.8875   -1.0792    0.0000 C   0  0  0  0  0  0  0  0  0  0  0  0
   -0.9125   -1.7792    0.0000 C   0  0  0  0  0  0  0  0  0  0  0  0
    2.8375    0.2833    0.0000 C   0  0  0  0  0  0  0  0  0  0  0  0
    4.0750    0.2583    0.0000 C   0  0  0  0  0  0  0  0  0  0  0  0
    2.8375   -0.4417    0.0000 H   0  0  0  0  0  0  0  0  0  0  0  0
    1.5750   -0.5167    0.0000 H   0  0  0  0  0  0  0  0  0  0  0  0
  2  5  2  0
  3  1  1  0
  4  7  1  0
  5  1  1  0
  6  2  1  0
  7  1  1  0
  8  4  2  0
  9  2  1  0
 10  6  1  0
 11  3  1  0
 12  3  1  0
 13  9  1  0
 14 13  1  0
 15  4  1  0
 11 16  1  6
 17  7  2  0
 18  9  2  0
 19 13  2  0
  1 20  1  6
 21 15  2  0
 22  5  1  0
 23  8  1  0
 10 24  1  1
 12 25  1  6
 26 15  1  0
 27 10  1  0
 28 14  2  0
 29 19  1  0
 30 31  2  0
 31 19  1  0
 32 16  1  0
 33 16  1  0
  3 34  1  6
  6 35  1  6
  6 12  1  0
  8 11  1  0
 14 10  1  0
 28 30  1  0
M  END
> <chembl_id>
CHEMBL1517

> <chembl_pref_name>
OXYTETRACYCLINE
