
     RDKit          2D

 18 19  0  0  0  0  0  0  0  0999 V2000
    0.1292   -0.6875    0.0000 C   0  0  0  0  0  0  0  0  0  0  0  0
    2.0792    1.1958    0.0000 C   0  0  0  0  0  0  0  0  0  0  0  0
   -2.1458   -1.2042    0.0000 C   0  0  0  0  0  0  0  0  0  0  0  0
    1.4167   -1.0625    0.0000 C   0  0  0  0  0  0  0  0  0  0  0  0
   -0.1708    0.6000    0.0000 C   0  0  0  0  0  0  0  0  0  0  0  0
   -2.5583    0.0625    0.0000 N   0  0  0  0  0  0  0  0  0  0  0  0
    0.7917    1.5875    0.0000 C   0  0  0  0  0  0  0  0  0  0  0  0
    2.3917   -0.1667    0.0000 C   0  0  0  0  0  0  0  0  0  0  0  0
   -0.8583   -1.6000    0.0000 C   0  0  0  0  0  0  0  0  0  0  0  0
   -3.2583   -2.0167    0.0000 N   0  0  0  0  0  0  0  0  0  0  0  0
    3.0375    2.1208    0.0000 C   0  0  0  0  0  0  0  0  0  0  0  0
   -3.9333    0.0625    0.0000 C   0  0  0  0  0  0  0  0  0  0  0  0
    1.7417   -2.3375    0.0000 C   0  0  0  0  0  0  0  0  0  0  0  0
   -1.4625    0.9083    0.0000 C   0  0  0  0  0  0  0  0  0  0  0  0
   -4.3458   -1.2417    0.0000 C   0  0  0  0  0  0  0  0  0  0  0  0
    3.1792    3.5833    0.0000 C   0  0  0  0  0  0  0  0  0  0  0  0
    2.0792    3.2208    0.0000 C   0  0  0  0  0  0  0  0  0  0  0  0
    4.3417    1.7708    0.0000 C   0  0  0  0  0  0  0  0  0  0  0  0
  2  7  2  0
  3  9  1  0
  4  1  1  0
  5  1  2  0
  6  3  2  0
  7  5  1  0
  8  4  2  0
  9  1  1  0
 10  3  1  0
 11  2  1  0
 12  6  1  0
 13  4  1  0
 14  5  1  0
 15 10  1  0
 16 11  1  0
 17 11  1  0
 18 11  1  0
  8  2  1  0
 15 12  1  0
M  END
> <chembl_id>
CHEMBL312448

> <chembl_pref_name>
XYLOMETAZOLINE
