
     RDKit          2D

 14 15  0  0  0  0  0  0  0  0999 V2000
    2.7253    0.7144    0.0000 N   0  0  0  0  0  0  0  0  0  0  0  0
    3.1378    0.0000    0.0000 C   0  0  0  0  0  0  0  0  0  0  0  0
    2.7253   -0.7145    0.0000 C   0  0  0  0  0  0  0  0  0  0  0  0
    1.9003   -0.7145    0.0000 C   0  0  0  0  0  0  0  0  0  0  0  0
    1.4878    0.0000    0.0000 C   0  0  0  0  0  0  0  0  0  0  0  0
    1.9003    0.7144    0.0000 C   0  0  0  0  0  0  0  0  0  0  0  0
    4.3753   -0.7145    0.0000 N   0  0  0  0  0  0  0  0  0  0  0  0
    3.9628    0.0000    0.0000 C   0  0  0  0  0  0  0  0  0  0  0  0
    4.3753    0.7144    0.0000 C   0  0  0  0  0  0  0  0  0  0  0  0
    5.2003    0.7144    0.0000 C   0  0  0  0  0  0  0  0  0  0  0  0
    5.6128    0.0000    0.0000 C   0  0  0  0  0  0  0  0  0  0  0  0
    5.2003   -0.7145    0.0000 C   0  0  0  0  0  0  0  0  0  0  0  0
    0.6628    0.0000    0.0000 C   0  0  0  0  0  0  0  0  0  0  0  0
    6.4378    0.0000    0.0000 C   0  0  0  0  0  0  0  0  0  0  0  0
  1  2  2  0
  2  3  1  0
  3  4  2  0
  4  5  1  0
  5  6  2  0
  1  6  1  0
  7  8  2  0
  8  9  1  0
  9 10  2  0
 10 11  1  0
 11 12  2  0
  7 12  1  0
  2  8  1  0
  5 13  1  0
 11 14  1  0
M  END
> <chembl_id>
CHEMBL2205807

> <chembl_pref_name>
ABAMETAPIR
