
     RDKit          2D

 34 37  0  0  0  0  0  0  0  0999 V2000
    3.0292    0.5958    0.0000 N   0  0  0  0  0  0  0  0  0  0  0  0
    3.0250    1.6333    0.0000 C   0  0  0  0  0  0  0  0  0  0  0  0
   -2.3708    0.5875    0.0000 S   0  0  0  0  0  0  0  0  0  0  0  0
    1.2167    0.5958    0.0000 C   0  0  0  0  0  0  0  0  0  0  0  0
    1.2167    1.6333    0.0000 N   0  0  0  0  0  0  0  0  0  0  0  0
    2.1167    2.1583    0.0000 C   0  0  0  0  0  0  0  0  0  0  0  0
    2.1250    0.0708    0.0000 N   0  0  0  0  0  0  0  0  0  0  0  0
    4.6250    1.1208    0.0000 N   0  0  0  0  0  0  0  0  0  0  0  0
    4.0167    1.9583    0.0000 C   0  0  0  0  0  0  0  0  0  0  0  0
    4.0167    0.2750    0.0000 C   0  0  0  0  0  0  0  0  0  0  0  0
    0.3292    0.0708    0.0000 C   0  0  0  0  0  0  0  0  0  0  0  0
   -3.2750    0.0708    0.0000 N   0  0  0  0  0  0  0  0  0  0  0  0
   -1.4708    0.0708    0.0000 C   0  0  0  0  0  0  0  0  0  0  0  0
   -0.5750    0.5875    0.0000 C   0  0  0  0  0  0  0  0  0  0  0  0
   -1.8583    1.4958    0.0000 O   0  0  0  0  0  0  0  0  0  0  0  0
   -2.9000    1.4958    0.0000 O   0  0  0  0  0  0  0  0  0  0  0  0
   -5.0833   -0.9750    0.0000 N   0  0  0  0  0  0  0  0  0  0  0  0
   -4.1833    0.5958    0.0000 C   0  0  0  0  0  0  0  0  0  0  0  0
   -3.2750   -0.9750    0.0000 C   0  0  0  0  0  0  0  0  0  0  0  0
    0.3292   -0.9792    0.0000 C   0  0  0  0  0  0  0  0  0  0  0  0
    2.1250    3.1958    0.0000 O   0  0  0  0  0  0  0  0  0  0  0  0
   -1.4750   -0.9750    0.0000 C   0  0  0  0  0  0  0  0  0  0  0  0
   -0.5750   -1.4917    0.0000 C   0  0  0  0  0  0  0  0  0  0  0  0
   -5.0833    0.0708    0.0000 C   0  0  0  0  0  0  0  0  0  0  0  0
   -4.1833   -1.4875    0.0000 C   0  0  0  0  0  0  0  0  0  0  0  0
    4.3292    2.9458    0.0000 C   0  0  0  0  0  0  0  0  0  0  0  0
    4.3417   -0.7167    0.0000 C   0  0  0  0  0  0  0  0  0  0  0  0
    1.2292   -1.5000    0.0000 O   0  0  0  0  0  0  0  0  0  0  0  0
   -5.9833   -1.4917    0.0000 C   0  0  0  0  0  0  0  0  0  0  0  0
    1.2292   -2.5375    0.0000 C   0  0  0  0  0  0  0  0  0  0  0  0
    3.6417   -1.4917    0.0000 C   0  0  0  0  0  0  0  0  0  0  0  0
   -6.8750   -0.9750    0.0000 C   0  0  0  0  0  0  0  0  0  0  0  0
    2.1292   -3.0542    0.0000 C   0  0  0  0  0  0  0  0  0  0  0  0
    3.9667   -2.4792    0.0000 C   0  0  0  0  0  0  0  0  0  0  0  0
  2  1  1  0
  3 13  1  0
  4  7  1  0
  5  4  2  0
  6  2  1  0
  7  1  1  0
  8 10  2  0
  9  2  2  0
 10  1  1  0
 11  4  1  0
 12  3  1  0
 13 14  1  0
 14 11  2  0
 15  3  2  0
 16  3  2  0
 17 25  1  0
 18 12  1  0
 19 12  1  0
 20 11  1  0
 21  6  2  0
 22 23  1  0
 23 20  2  0
 24 18  1  0
 25 19  1  0
 26  9  1  0
 27 10  1  0
 28 20  1  0
 29 17  1  0
 30 28  1  0
 31 27  1  0
 32 29  1  0
 33 30  1  0
 34 31  1  0
  9  8  1  0
  6  5  1  0
 13 22  2  0
 24 17  1  0
M  END
> <chembl_id>
CHEMBL1520

> <chembl_pref_name>
VARDENAFIL
