
     RDKit          2D

 35 37  0  0  0  0  0  0  0  0999 V2000
    8.8917  -20.4667    0.0000 O   0  0  0  0  0  0  0  0  0  0  0  0
    5.3667  -19.3625    0.0000 C   0  0  0  0  0  0  0  0  0  0  0  0
    4.1375  -19.3625    0.0000 C   0  0  0  0  0  0  0  0  0  0  0  0
    5.3667  -18.6417    0.0000 C   0  0  0  0  0  0  0  0  0  0  0  0
    6.6125  -19.3625    0.0000 C   0  0  0  0  0  0  0  0  0  0  0  0
    4.7500  -19.7167    0.0000 C   0  0  0  0  0  0  0  0  0  0  0  0
    5.9917  -19.7167    0.0000 C   0  0  0  0  0  0  0  0  0  0  0  0
    6.6125  -18.6417    0.0000 C   0  0  0  0  0  0  0  0  0  0  0  0
    3.5125  -19.7167    0.0000 C   0  0  0  0  0  0  0  0  0  0  0  0
    4.1375  -18.6417    0.0000 C   0  0  0  0  0  0  0  0  0  0  0  0
    5.9917  -18.2875    0.0000 C   0  0  0  0  0  0  0  0  0  0  0  0
    2.8917  -19.3625    0.0000 C   0  0  0  0  0  0  0  0  0  0  0  0
    4.7500  -18.2875    0.0000 C   0  0  0  0  0  0  0  0  0  0  0  0
    2.8917  -18.6417    0.0000 C   0  0  0  0  0  0  0  0  0  0  0  0
    3.5125  -18.2875    0.0000 C   0  0  0  0  0  0  0  0  0  0  0  0
    7.2292  -19.7167    0.0000 C   0  0  0  0  0  0  0  0  0  0  0  0
    5.9917  -17.5750    0.0000 N   0  0  0  0  0  0  0  0  0  0  0  0
    5.9917  -20.4417    0.0000 O   0  0  0  0  0  0  0  0  0  0  0  0
    3.5125  -20.4417    0.0000 O   0  0  0  0  0  0  0  0  0  0  0  0
    2.2750  -19.7167    0.0000 C   0  0  0  0  0  0  0  0  0  0  0  0
    5.3667  -20.0417    0.0000 O   0  0  0  0  0  0  0  0  0  0  0  0
    7.2167  -20.4292    0.0000 O   0  0  0  0  0  0  0  0  0  0  0  0
    4.7500  -20.4417    0.0000 O   0  0  0  0  0  0  0  0  0  0  0  0
    7.2292  -18.2875    0.0000 O   0  0  0  0  0  0  0  0  0  0  0  0
    4.7500  -17.5750    0.0000 O   0  0  0  0  0  0  0  0  0  0  0  0
    7.8625  -19.3875    0.0000 N   0  0  0  0  0  0  0  0  0  0  0  0
    2.2750  -18.2875    0.0000 C   0  0  0  0  0  0  0  0  0  0  0  0
    3.5125  -17.5750    0.0000 C   0  0  0  0  0  0  0  0  0  0  0  0
    2.2750  -20.4417    0.0000 O   0  0  0  0  0  0  0  0  0  0  0  0
    1.6542  -18.6417    0.0000 C   0  0  0  0  0  0  0  0  0  0  0  0
    1.6542  -19.3625    0.0000 C   0  0  0  0  0  0  0  0  0  0  0  0
    6.6000  -17.2292    0.0000 C   0  0  0  0  0  0  0  0  0  0  0  0
    5.3750  -17.2167    0.0000 C   0  0  0  0  0  0  0  0  0  0  0  0
    4.1375  -18.0000    0.0000 H   0  0  0  0  0  0  0  0  0  0  0  0
    5.3667  -17.9667    0.0000 H   0  0  0  0  0  0  0  0  0  0  0  0
  3  6  2  0
  4  2  1  0
  5  7  1  0
  6  2  1  0
  7  2  1  0
  8  5  2  0
  9  3  1  0
 10  3  1  0
 11  4  1  0
 12  9  1  0
 13  4  1  0
 14 15  1  0
 15 10  1  0
 16  5  1  0
 11 17  1  6
 18  7  2  0
 19  9  2  0
 20 12  1  0
  2 21  1  6
 22 16  2  0
 23  6  1  0
 24  8  1  0
 13 25  1  6
 26 16  1  0
 27 14  1  0
 15 28  1  6
 29 20  1  0
 30 27  2  0
 31 20  2  0
 32 17  1  0
 33 17  1  0
 10 34  1  6
  4 35  1  6
 13 10  1  0
 11  8  1  0
 14 12  2  0
 30 31  1  0
M  END
> <chembl_id>
CHEMBL1200699

> <chembl_pref_name>
DOXYCYCLINE
