
     RDKit          2D

 41 44  0  0  0  0  0  0  0  0999 V2000
   -1.2208   -3.6292    0.0000 S   0  0  0  0  0  0  0  0  0  0  0  0
   -0.8708   -3.0042    0.0000 O   0  0  0  0  0  0  0  0  0  0  0  0
   -1.5833   -3.0042    0.0000 O   0  0  0  0  0  0  0  0  0  0  0  0
   -1.8333   -3.9792    0.0000 O   0  0  0  0  0  0  0  0  0  0  0  0
   -0.6083   -3.9792    0.0000 O   0  0  0  0  0  0  0  0  0  0  0  0
    1.1917   -1.8750    0.0000 N   0  0  0  0  0  0  0  0  0  0  0  0
    0.3542   -1.8750    0.0000 C   0  0  0  0  0  0  0  0  0  0  0  0
    0.3542   -1.1667    0.0000 C   0  0  0  0  0  0  0  0  0  0  0  0
    1.1917   -1.1542    0.0000 C   0  0  0  0  0  0  0  0  0  0  0  0
    2.4375   -1.8750    0.0000 C   0  0  0  0  0  0  0  0  0  0  0  0
    1.8125   -2.2542    0.0000 C   0  0  0  0  0  0  0  0  0  0  0  0
   -2.1333   -1.1750    0.0000 C   0  0  0  0  0  0  0  0  0  0  0  0
    3.5417   -1.8750    0.0000 N   0  0  0  0  0  0  0  0  0  0  0  0
   -1.5083   -0.8000    0.0000 C   0  0  0  0  0  0  0  0  0  0  0  0
   -2.3958   -1.8292    0.0000 N   0  0  0  0  0  0  0  0  0  0  0  0
   -0.2833   -0.8000    0.0000 N   0  0  0  0  0  0  0  0  0  0  0  0
   -0.9083   -1.1750    0.0000 C   0  0  0  0  0  0  0  0  0  0  0  0
    1.8125   -0.8375    0.0000 S   0  0  0  0  0  0  0  0  0  0  0  0
   -3.0875   -1.8292    0.0000 C   0  0  0  0  0  0  0  0  0  0  0  0
    3.0042   -2.1917    0.0000 C   0  0  0  0  0  0  0  0  0  0  0  0
    1.8042   -2.8875    0.0000 C   0  0  0  0  0  0  0  0  0  0  0  0
   -2.7333   -0.7500    0.0000 C   0  0  0  0  0  0  0  0  0  0  0  0
   -3.3208   -1.1667    0.0000 S   0  0  0  0  0  0  0  0  0  0  0  0
    4.2625   -2.2292    0.0000 C   0  0  0  0  0  0  0  0  0  0  0  0
    2.4375   -1.1750    0.0000 C   0  0  0  0  0  0  0  0  0  0  0  0
   -1.5083   -0.1292    0.0000 N   0  0  0  0  0  0  0  0  0  0  0  0
   -0.0958   -2.2667    0.0000 O   0  0  0  0  0  0  0  0  0  0  0  0
   -0.9083   -1.7375    0.0000 O   0  0  0  0  0  0  0  0  0  0  0  0
    2.4375   -3.2292    0.0000 O   0  0  0  0  0  0  0  0  0  0  0  0
    1.2417   -3.2542    0.0000 O   0  0  0  0  0  0  0  0  0  0  0  0
    4.8667   -1.8750    0.0000 C   0  0  0  0  0  0  0  0  0  0  0  0
   -3.5375   -2.2917    0.0000 N   0  0  0  0  0  0  0  0  0  0  0  0
    3.5417   -1.1542    0.0000 C   0  0  0  0  0  0  0  0  0  0  0  0
   -0.9000    0.2125    0.0000 O   0  0  0  0  0  0  0  0  0  0  0  0
    4.4750   -2.9542    0.0000 C   0  0  0  0  0  0  0  0  0  0  0  0
    4.2417   -0.8250    0.0000 C   0  0  0  0  0  0  0  0  0  0  0  0
    5.2500   -2.9542    0.0000 C   0  0  0  0  0  0  0  0  0  0  0  0
    4.8667   -1.1542    0.0000 C   0  0  0  0  0  0  0  0  0  0  0  0
    5.4375   -2.2292    0.0000 C   0  0  0  0  0  0  0  0  0  0  0  0
   -0.9000    1.0333    0.0000 C   0  0  0  0  0  0  0  0  0  0  0  0
    0.9508   -0.1837    0.0000 H   0  0  0  0  0  0  0  0  0  0  0  0
  2  1  2  0
  3  1  2  0
  4  1  1  0
  5  1  1  0
  7  6  1  0
  8  9  1  0
  9  6  1  0
 10 11  2  0
 11  6  1  0
 12 14  1  0
 13 20  1  0
 14 17  1  0
 15 12  1  0
  8 16  1  1
 17 16  1  0
  9 18  1  0
 19 15  2  0
 20 10  1  0
 21 11  1  0
 22 12  2  0
 23 22  1  0
 24 13  2  0
 25 18  1  0
 26 14  2  0
 27  7  2  0
 28 17  2  0
 29 21  1  0
 30 21  2  0
 31 24  1  0
 32 19  1  0
 33 13  1  0
 34 26  1  0
 35 24  1  0
 36 33  2  0
 37 35  1  0
 38 36  1  0
 39 31  1  0
 40 34  1  0
  7  8  1  0
 25 10  1  0
 31 38  2  0
 39 37  1  0
 23 19  1  0
  9 41  1  6
M  CHG  2  13   1  29  -1
M  END
> <chembl_id>
CHEMBL2106076

> <chembl_pref_name>
CEFPIROME SULFATE
