
     RDKit          2D

 25 26  0  0  0  0  0  0  0  0999 V2000
   -2.0750    0.4458    0.0000 C   0  0  0  0  0  0  0  0  0  0  0  0
   -2.8333    0.9208    0.0000 S   0  0  0  0  0  0  0  0  0  0  0  0
   -0.3000    0.4708    0.0000 C   0  0  0  0  0  0  0  0  0  0  0  0
   -1.1708    0.9583    0.0000 C   0  0  0  0  0  0  0  0  0  0  0  0
   -2.0583   -0.5375    0.0000 C   0  0  0  0  0  0  0  0  0  0  0  0
    0.4917    0.9333    0.0000 C   0  0  0  0  0  0  0  0  0  0  0  0
   -0.3208   -0.5625    0.0000 C   0  0  0  0  0  0  0  0  0  0  0  0
   -1.1833   -1.0500    0.0000 C   0  0  0  0  0  0  0  0  0  0  0  0
    2.9792   -0.4375    0.0000 N   0  0  0  0  0  0  0  0  0  0  0  0
    1.2917    0.4708    0.0000 N   0  0  0  0  0  0  0  0  0  0  0  0
   -3.5833    1.1625    0.0000 O   0  0  0  0  0  0  0  0  0  0  0  0
   -2.5208    1.6458    0.0000 O   0  0  0  0  0  0  0  0  0  0  0  0
    2.8792    0.4708    0.0000 C   0  0  0  0  0  0  0  0  0  0  0  0
    0.4917    1.8500    0.0000 O   0  0  0  0  0  0  0  0  0  0  0  0
    2.0875    0.9333    0.0000 C   0  0  0  0  0  0  0  0  0  0  0  0
   -2.9375   -1.0292    0.0000 N   0  0  0  0  0  0  0  0  0  0  0  0
   -3.2708    0.1083    0.0000 C   0  0  0  0  0  0  0  0  0  0  0  0
    0.4375   -1.0375    0.0000 O   0  0  0  0  0  0  0  0  0  0  0  0
    3.8792   -0.6292    0.0000 C   0  0  0  0  0  0  0  0  0  0  0  0
    2.3000   -1.0542    0.0000 C   0  0  0  0  0  0  0  0  0  0  0  0
    4.3417    0.1708    0.0000 C   0  0  0  0  0  0  0  0  0  0  0  0
    3.7292    0.8500    0.0000 C   0  0  0  0  0  0  0  0  0  0  0  0
    0.4167   -1.9125    0.0000 C   0  0  0  0  0  0  0  0  0  0  0  0
   -4.3458   -0.1167    0.0000 C   0  0  0  0  0  0  0  0  0  0  0  0
    2.4917   -1.9542    0.0000 C   0  0  0  0  0  0  0  0  0  0  0  0
  2  1  1  0
  3  4  1  0
  4  1  2  0
  5  1  1  0
  6  3  1  0
  7  8  1  0
  8  5  2  0
  9 13  1  0
 10  6  1  0
 11  2  2  0
 12  2  2  0
 13 15  1  0
 14  6  2  0
 15 10  1  0
 16  5  1  0
 17  2  1  0
 18  7  1  0
 19  9  1  0
 20  9  1  0
 21 22  1  0
 22 13  1  0
 23 18  1  0
 24 17  1  0
 25 20  1  0
  3  7  2  0
 19 21  1  0
M  END
> <chembl_id>
CHEMBL243712

> <chembl_pref_name>
AMISULPRIDE
