
     RDKit          2D

  5  4  0  0  0  0  0  0  0  0999 V2000
   -0.8708    0.0625    0.0000 C   0  0  0  0  0  0  0  0  0  0  0  0
    0.5667    0.0625    0.0000 C   0  0  0  0  0  0  0  0  0  0  0  0
   -1.5833   -1.1667    0.0000 Cl  0  0  0  0  0  0  0  0  0  0  0  0
   -1.5958    1.3000    0.0000 Cl  0  0  0  0  0  0  0  0  0  0  0  0
    1.2792    1.3000    0.0000 Cl  0  0  0  0  0  0  0  0  0  0  0  0
  2  1  2  0
  3  1  1  0
  4  1  1  0
  5  2  1  0
M  END
> <chembl_id>
CHEMBL279816

> <chembl_pref_name>
TRICHLOROETHYLENE
