
     RDKit          2D

 28 30  0  0  0  0  0  0  0  0999 V2000
   -1.8000   -0.8625    0.0000 C   0  0  0  0  0  0  0  0  0  0  0  0
   -1.8000   -0.2167    0.0000 C   0  0  0  0  0  0  0  0  0  0  0  0
   -2.3250   -1.1750    0.0000 N   0  0  0  0  0  0  0  0  0  0  0  0
   -2.8458   -0.2542    0.0000 N   0  0  0  0  0  0  0  0  0  0  0  0
   -2.8458   -0.8625    0.0000 C   0  0  0  0  0  0  0  0  0  0  0  0
   -2.3250    0.0625    0.0000 C   0  0  0  0  0  0  0  0  0  0  0  0
   -1.1958   -1.0542    0.0000 N   0  0  0  0  0  0  0  0  0  0  0  0
   -1.1958   -0.0542    0.0000 N   0  0  0  0  0  0  0  0  0  0  0  0
   -0.8375   -0.5542    0.0000 C   0  0  0  0  0  0  0  0  0  0  0  0
    1.9792    0.5708    0.0000 C   0  0  0  0  0  0  0  0  0  0  0  0
   -3.3958   -1.1375    0.0000 O   0  0  0  0  0  0  0  0  0  0  0  0
   -2.3250    0.6833    0.0000 O   0  0  0  0  0  0  0  0  0  0  0  0
    2.5292    0.8708    0.0000 C   0  0  0  0  0  0  0  0  0  0  0  0
    1.9792   -0.0542    0.0000 C   0  0  0  0  0  0  0  0  0  0  0  0
    3.0500    0.5583    0.0000 C   0  0  0  0  0  0  0  0  0  0  0  0
    2.5167   -0.3792    0.0000 C   0  0  0  0  0  0  0  0  0  0  0  0
    3.0500   -0.0542    0.0000 C   0  0  0  0  0  0  0  0  0  0  0  0
   -2.3250   -1.7792    0.0000 C   0  0  0  0  0  0  0  0  0  0  0  0
   -3.3958    0.0375    0.0000 C   0  0  0  0  0  0  0  0  0  0  0  0
    1.4542    0.8708    0.0000 C   0  0  0  0  0  0  0  0  0  0  0  0
   -1.1958    0.5750    0.0000 C   0  0  0  0  0  0  0  0  0  0  0  0
    0.4000    0.8708    0.0000 N   0  0  0  0  0  0  0  0  0  0  0  0
    3.5667    0.8708    0.0000 O   0  0  0  0  0  0  0  0  0  0  0  0
    2.5167   -0.9917    0.0000 O   0  0  0  0  0  0  0  0  0  0  0  0
    1.4542    1.4958    0.0000 O   0  0  0  0  0  0  0  0  0  0  0  0
   -0.6750    0.8708    0.0000 C   0  0  0  0  0  0  0  0  0  0  0  0
    0.9167    0.5750    0.0000 C   0  0  0  0  0  0  0  0  0  0  0  0
   -0.1250    0.5750    0.0000 C   0  0  0  0  0  0  0  0  0  0  0  0
  2  1  2  0
  3  1  1  0
  4  5  1  0
  5  3  1  0
  6  2  1  0
  7  1  1  0
  8  2  1  0
  9  7  2  0
 10 20  1  0
 11  5  2  0
 12  6  2  0
 13 10  2  0
 14 10  1  0
 15 13  1  0
 16 14  2  0
 17 16  1  0
 18  3  1  0
 19  4  1  0
 20 27  1  0
 21  8  1  0
 22 28  1  0
 23 15  1  0
 24 16  1  0
 25 20  1  0
 26 21  1  0
 27 22  1  0
 28 26  1  0
  8  9  1  0
  6  4  1  0
 15 17  2  0
M  END
> <chembl_id>
CHEMBL1095607

> <chembl_pref_name>
REPROTEROL
