
     RDKit          2D

 67 68  0  0  0  0  0  0  0  0999 V2000
    8.3250  -12.1125    0.0000 C   0  0  0  0  0  0  0  0  0  0  0  0
    9.0375  -11.7000    0.0000 N   0  0  0  0  0  0  0  0  0  0  0  0
    9.7500  -12.1083    0.0000 C   0  0  0  0  0  0  0  0  0  0  0  0
   10.4625  -11.6958    0.0000 C   0  0  0  0  0  0  0  0  0  0  0  0
   11.1750  -12.1042    0.0000 C   0  0  0  0  0  0  0  0  0  0  0  0
   11.8875  -11.6917    0.0000 C   0  0  0  0  0  0  0  0  0  0  0  0
   12.6000  -12.1000    0.0000 C   0  0  0  0  0  0  0  0  0  0  0  0
   13.3125  -11.6875    0.0000 C   0  0  0  0  0  0  0  0  0  0  0  0
   14.0250  -12.0958    0.0000 O   0  0  0  0  0  0  0  0  0  0  0  0
   12.6018  -12.9250    0.0000 O   0  0  0  0  0  0  0  0  0  0  0  0
   10.4607  -10.8708    0.0000 O   0  0  0  0  0  0  0  0  0  0  0  0
   11.1768  -12.9292    0.0000 O   0  0  0  0  0  0  0  0  0  0  0  0
   11.8857  -10.8667    0.0000 O   0  0  0  0  0  0  0  0  0  0  0  0
    2.3986   -5.3458    0.0000 C   0  0  0  0  0  0  0  0  0  0  0  0
    2.3974   -6.1732    0.0000 C   0  0  0  0  0  0  0  0  0  0  0  0
    3.1122   -6.5860    0.0000 C   0  0  0  0  0  0  0  0  0  0  0  0
    3.8287   -6.1727    0.0000 C   0  0  0  0  0  0  0  0  0  0  0  0
    3.8258   -5.3422    0.0000 C   0  0  0  0  0  0  0  0  0  0  0  0
    3.1104   -4.9330    0.0000 C   0  0  0  0  0  0  0  0  0  0  0  0
    1.6840   -4.9335    0.0000 C   0  0  0  0  0  0  0  0  0  0  0  0
    1.6838   -4.1085    0.0000 F   0  0  0  0  0  0  0  0  0  0  0  0
    0.9696   -5.3461    0.0000 F   0  0  0  0  0  0  0  0  0  0  0  0
    2.2672   -4.3500    0.0000 F   0  0  0  0  0  0  0  0  0  0  0  0
    3.1120   -7.4110    0.0000 C   0  0  0  0  0  0  0  0  0  0  0  0
    2.3974   -7.8234    0.0000 F   0  0  0  0  0  0  0  0  0  0  0  0
    3.8264   -7.8237    0.0000 F   0  0  0  0  0  0  0  0  0  0  0  0
    2.3152   -7.1973    0.0000 F   0  0  0  0  0  0  0  0  0  0  0  0
    4.5387   -4.9270    0.0000 C   0  0  0  0  0  0  0  0  0  0  0  0
    5.2547   -5.3368    0.0000 O   0  0  0  0  0  0  0  0  0  0  0  0
    4.5356   -4.1020    0.0000 C   0  0  0  0  0  0  0  0  0  0  0  0
    5.9677   -4.9216    0.0000 C   0  0  0  0  0  0  0  0  0  0  0  0
    6.6862   -5.3364    0.0000 C   0  0  0  0  0  0  0  0  0  0  0  0
    7.3970   -4.9247    0.0000 N   0  0  0  0  0  0  0  0  0  0  0  0
    7.3982   -4.0994    0.0000 C   0  0  0  0  0  0  0  0  0  0  0  0
    6.6823   -3.6874    0.0000 C   0  0  0  0  0  0  0  0  0  0  0  0
    5.9653   -4.1007    0.0000 O   0  0  0  0  0  0  0  0  0  0  0  0
    8.1115   -5.3372    0.0000 C   0  0  0  0  0  0  0  0  0  0  0  0
    6.6868   -6.1614    0.0000 C   0  0  0  0  0  0  0  0  0  0  0  0
    5.9733   -6.5716    0.0000 C   0  0  0  0  0  0  0  0  0  0  0  0
    5.9735   -7.3958    0.0000 C   0  0  0  0  0  0  0  0  0  0  0  0
    6.6888   -7.8086    0.0000 C   0  0  0  0  0  0  0  0  0  0  0  0
    7.4054   -7.3912    0.0000 C   0  0  0  0  0  0  0  0  0  0  0  0
    7.4016   -6.5683    0.0000 C   0  0  0  0  0  0  0  0  0  0  0  0
    6.6905   -8.6336    0.0000 F   0  0  0  0  0  0  0  0  0  0  0  0
    8.8260   -4.9247    0.0000 C   0  0  0  0  0  0  0  0  0  0  0  0
    9.5785   -5.2601    0.0000 N   0  0  0  0  0  0  0  0  0  0  0  0
   10.1306   -4.6470    0.0000 C   0  0  0  0  0  0  0  0  0  0  0  0
    9.7180   -3.9325    0.0000 N   0  0  0  0  0  0  0  0  0  0  0  0
    8.9111   -4.1041    0.0000 N   0  0  0  0  0  0  0  0  0  0  0  0
   10.0535   -3.1788    0.0000 P   0  0  0  0  0  0  0  0  0  0  0  0
    9.4625   -2.5875    0.0000 O   0  0  0  0  0  0  0  0  0  0  0  0
   10.6333   -2.5875    0.0000 O   0  0  0  0  0  0  0  0  0  0  0  0
   10.8750   -3.1750    0.0000 O   0  0  0  0  0  0  0  0  0  0  0  0
   10.9510   -4.7333    0.0000 O   0  0  0  0  0  0  0  0  0  0  0  0
    0.1167  -10.5208    0.0000 C   0  0  0  0  0  0  0  0  0  0  0  0
    0.8292  -10.1083    0.0000 N   0  0  0  0  0  0  0  0  0  0  0  0
    1.5417  -10.5167    0.0000 C   0  0  0  0  0  0  0  0  0  0  0  0
    2.2542  -10.1042    0.0000 C   0  0  0  0  0  0  0  0  0  0  0  0
    2.9667  -10.5125    0.0000 C   0  0  0  0  0  0  0  0  0  0  0  0
    3.6792  -10.1000    0.0000 C   0  0  0  0  0  0  0  0  0  0  0  0
    4.3917  -10.5083    0.0000 C   0  0  0  0  0  0  0  0  0  0  0  0
    5.1042  -10.0958    0.0000 C   0  0  0  0  0  0  0  0  0  0  0  0
    5.8167  -10.5042    0.0000 O   0  0  0  0  0  0  0  0  0  0  0  0
    4.3935  -11.3333    0.0000 O   0  0  0  0  0  0  0  0  0  0  0  0
    3.6774   -9.2750    0.0000 O   0  0  0  0  0  0  0  0  0  0  0  0
    2.9685  -11.3375    0.0000 O   0  0  0  0  0  0  0  0  0  0  0  0
    2.2524   -9.2792    0.0000 O   0  0  0  0  0  0  0  0  0  0  0  0
  1  2  1  0
  2  3  1  0
  3  4  1  0
  4  5  1  0
  5  6  1  0
  6  7  1  0
  7  8  1  0
  8  9  1  0
  7 10  1  1
  4 11  1  6
  5 12  1  6
  6 13  1  6
 19 14  1  0
 37 45  1  0
 45 46  1  0
 18 28  1  0
 28 29  1  0
 14 20  1  0
 46 47  1  0
 47 48  1  0
 48 49  1  0
 49 45  2  0
 28 30  1  1
 48 50  1  0
 15 16  1  0
 50 51  2  0
 31 29  1  1
 50 52  1  0
 31 32  1  0
 50 53  1  0
 20 21  1  0
 47 54  2  0
 20 22  1  0
 16 17  2  0
 20 23  1  0
 31 36  1  0
 32 33  1  0
 33 34  1  0
 34 35  1  0
 35 36  1  0
 33 37  1  0
 16 24  1  0
 32 38  1  1
 17 18  1  0
 38 39  2  0
 24 25  1  0
 39 40  1  0
 14 15  2  0
 40 41  2  0
 24 26  1  0
 41 42  1  0
 18 19  2  0
 42 43  2  0
 43 38  1  0
 24 27  1  0
 41 44  1  0
 55 56  1  0
 56 57  1  0
 57 58  1  0
 58 59  1  0
 59 60  1  0
 60 61  1  0
 61 62  1  0
 62 63  1  0
 61 64  1  1
 60 65  1  6
 59 66  1  6
 58 67  1  6
M  END
> <chembl_id>
CHEMBL1201782

> <chembl_pref_name>
FOSAPREPITANT DIMEGLUMINE
