
     RDKit          2D

 15 15  0  0  0  0  0  0  0  0999 V2000
    0.9865   -3.8195    0.0000 O   0  0  0  0  0  0  0  0  0  0  0  0
    1.8449   -3.3810    0.0000 C   0  0  0  0  0  0  0  0  0  0  0  0
    1.1023   -2.2151    0.0000 C   0  0  0  0  0  0  0  0  0  0  0  0
    0.4350   -1.7808    0.0000 H   0  0  0  0  0  0  0  0  0  0  0  0
    1.1261   -1.3697    0.0000 C   0  0  0  0  0  0  0  0  0  0  0  0
    1.1332   -0.5666    0.0000 H   0  0  0  0  0  0  0  0  0  0  0  0
    2.5414   -1.3855    0.0000 C   0  0  0  0  0  0  0  0  0  0  0  0
    2.5363   -2.1957    0.0000 N   0  0  0  0  0  0  0  0  0  0  0  0
    1.8545   -0.9719    0.0000 C   0  0  0  0  0  0  0  0  0  0  0  0
    1.8452   -2.6372    0.0000 C   0  0  0  0  0  0  0  0  0  0  0  0
    0.2833   -2.6003    0.0000 O   0  0  0  0  0  0  0  0  0  0  0  0
    0.2883   -0.9865    0.0000 O   0  0  0  0  0  0  0  0  0  0  0  0
    2.5396   -0.5666    0.0000 H   0  0  0  0  0  0  0  0  0  0  0  0
    1.9932   -0.1720    0.0000 O   0  0  0  0  0  0  0  0  0  0  0  0
    1.1332   -3.0050    0.0000 H   0  0  0  0  0  0  0  0  0  0  0  0
  1  2  1  0
  3  4  1  1
  3 10  1  0
  3 11  1  6
  5  6  1  1
  5  3  1  0
  5 12  1  6
  7  8  1  0
  7  9  1  0
  9  5  1  0
  9 13  1  6
  9 14  1  1
 10  8  1  0
 10  2  1  6
 10 15  1  1
M  END
> <chembl_id>
CHEMBL110458

> <chembl_pref_name>
MIGALASTAT
