
     RDKit          2D

 32 35  0  0  1  0  0  0  0  0999 V2000
    3.3792   -5.1250    0.0000 C   0  0  0  0  0  0  0  0  0  0  0  0
    3.9917   -4.7667    0.0000 C   0  0  0  0  0  0  0  0  0  0  0  0
    5.2250   -4.0708    0.0000 C   0  0  0  0  0  0  0  0  0  0  0  0
    5.9000   -3.8625    0.0000 C   0  0  0  0  0  0  0  0  0  0  0  0
    3.3792   -5.8292    0.0000 C   0  0  0  0  0  0  0  0  0  0  0  0
    4.6042   -5.1292    0.0000 C   0  0  0  0  0  0  0  0  0  0  0  0
    5.2167   -4.7792    0.0000 C   0  0  0  0  0  0  0  0  0  0  0  0
    3.9917   -4.0625    0.0000 C   0  0  0  0  0  0  0  0  0  0  0  0
    2.7667   -4.7667    0.0000 C   0  0  0  0  0  0  0  0  0  0  0  0
    4.6125   -3.7125    0.0000 C   0  0  0  0  0  0  0  0  0  0  0  0
    4.6000   -5.8375    0.0000 C   0  0  0  0  0  0  0  0  0  0  0  0
    2.7667   -6.1875    0.0000 C   0  0  0  0  0  0  0  0  0  0  0  0
    3.9875   -6.1875    0.0000 C   0  0  0  0  0  0  0  0  0  0  0  0
    6.3042   -4.4375    0.0000 C   0  0  0  0  0  0  0  0  0  0  0  0
    6.5125   -3.5042    0.0000 O   0  0  0  0  0  0  0  0  0  0  0  0
    5.8875   -5.0042    0.0000 C   0  0  0  0  0  0  0  0  0  0  0  0
    5.8917   -3.1542    0.0000 C   0  0  0  0  0  0  0  0  0  0  0  0
    2.1542   -5.1250    0.0000 C   0  0  0  0  0  0  0  0  0  0  0  0
    2.1542   -5.8292    0.0000 C   0  0  0  0  0  0  0  0  0  0  0  0
    7.1292   -3.8500    0.0000 C   0  0  0  0  0  0  0  0  0  0  0  0
    3.9875   -5.4792    0.0000 F   0  0  0  0  0  0  0  0  0  0  0  0
    7.1292   -4.5542    0.0000 O   0  0  0  0  0  0  0  0  0  0  0  0
    5.2792   -2.8042    0.0000 O   0  0  0  0  0  0  0  0  0  0  0  0
    1.5417   -6.1792    0.0000 O   0  0  0  0  0  0  0  0  0  0  0  0
    3.3750   -4.4167    0.0000 C   0  0  0  0  0  0  0  0  0  0  0  0
    5.2167   -3.3667    0.0000 C   0  0  0  0  0  0  0  0  0  0  0  0
    3.3792   -3.7042    0.0000 O   0  0  0  0  0  0  0  0  0  0  0  0
    3.9792   -6.8917    0.0000 C   0  0  0  0  0  0  0  0  0  0  0  0
    7.7375   -3.4917    0.0000 C   0  0  0  0  0  0  0  0  0  0  0  0
    6.5042   -2.7917    0.0000 C   0  0  0  0  0  0  0  0  0  0  0  0
    4.6000   -4.4167    0.0000 H   0  0  0  0  0  0  0  0  0  0  0  0
    5.2125   -5.4875    0.0000 H   0  0  0  0  0  0  0  0  0  0  0  0
  2  1  1  0
  3 10  1  0
  4  3  1  0
  5  1  1  0
  6  2  1  0
  7  6  1  0
  8  2  1  0
  9  1  1  0
 10  8  1  0
 11 13  1  0
 12  5  2  0
 13  5  1  0
 14 16  1  0
  4 15  1  6
 16  7  1  0
  4 17  1  1
 18  9  2  0
 19 18  1  0
 20 15  1  0
  2 21  1  6
 22 20  2  0
 23 17  2  0
 24 19  2  0
  1 25  1  1
  3 26  1  1
  8 27  1  1
 13 28  1  6
 29 20  1  0
 30 17  1  0
  6 31  1  1
  7 32  1  6
 19 12  1  0
  6 11  1  0
  7  3  1  0
  4 14  1  0
M  END
> <chembl_id>
CHEMBL1201064

> <chembl_pref_name>
FLUOROMETHOLONE ACETATE
