
     RDKit          2D

 24 27  0  0  0  0  0  0  0  0999 V2000
   -4.8027    1.4438    0.0000 N   0  0  0  0  0  0  0  0  0  0  0  0
   -5.5171    1.0313    0.0000 C   0  0  0  0  0  0  0  0  0  0  0  0
   -5.5171    0.2062    0.0000 C   0  0  0  0  0  0  0  0  0  0  0  0
   -4.8027   -0.2063    0.0000 C   0  0  0  0  0  0  0  0  0  0  0  0
   -4.0882    0.2062    0.0000 C   0  0  0  0  0  0  0  0  0  0  0  0
   -4.0882    1.0313    0.0000 C   0  0  0  0  0  0  0  0  0  0  0  0
   -3.2632    0.2062    0.0000 C   0  0  0  0  0  0  0  0  0  0  0  0
   -1.6132    0.2062    0.0000 C   0  0  0  0  0  0  0  0  0  0  0  0
   -2.0257    0.9207    0.0000 C   0  0  0  0  0  0  0  0  0  0  0  0
   -2.8507    0.9207    0.0000 C   0  0  0  0  0  0  0  0  0  0  0  0
   -2.8507   -0.5082    0.0000 C   0  0  0  0  0  0  0  0  0  0  0  0
   -2.0257   -0.5082    0.0000 C   0  0  0  0  0  0  0  0  0  0  0  0
   -0.7882    0.2062    0.0000 N   0  0  0  0  0  0  0  0  0  0  0  0
   -0.3032   -0.4612    0.0000 N   0  0  0  0  0  0  0  0  0  0  0  0
    0.4813   -0.2063    0.0000 C   0  0  0  0  0  0  0  0  0  0  0  0
    0.4813    0.6187    0.0000 C   0  0  0  0  0  0  0  0  0  0  0  0
   -0.3032    0.8737    0.0000 C   0  0  0  0  0  0  0  0  0  0  0  0
    1.1958    1.0313    0.0000 C   0  0  0  0  0  0  0  0  0  0  0  0
    1.1958   -0.6188    0.0000 C   0  0  0  0  0  0  0  0  0  0  0  0
    1.9103   -0.2063    0.0000 C   0  0  0  0  0  0  0  0  0  0  0  0
    1.9103    0.6187    0.0000 C   0  0  0  0  0  0  0  0  0  0  0  0
    1.1958   -1.4438    0.0000 C   0  0  0  0  0  0  0  0  0  0  0  0
    0.4813   -1.8563    0.0000 O   0  0  0  0  0  0  0  0  0  0  0  0
    1.9103   -1.8563    0.0000 N   0  0  0  0  0  0  0  0  0  0  0  0
  1  2  1  0
  1  6  1  0
  2  3  1  0
  3  4  1  0
  4  5  1  0
  5  6  1  0
  5  7  1  6
 10  7  2  0
  7 11  1  0
  8  9  2  0
  8 12  1  0
  9 10  1  0
 11 12  2  0
  8 13  1  0
 13 14  1  0
 13 17  1  0
 14 15  2  0
 16 17  2  0
 18 16  1  0
 16 15  1  0
 15 19  1  0
 18 21  2  0
 19 20  2  0
 20 21  1  0
 19 22  1  0
 22 23  2  0
 22 24  1  0
M  END
> <chembl_id>
CHEMBL1094636

> <chembl_pref_name>
NIRAPARIB
