
     RDKit          2D

 26 28  0  0  1  0  0  0  0  0999 V2000
    4.0042   -7.5167    0.0000 N   0  0  0  0  0  0  0  0  0  0  0  0
    3.2958   -7.5167    0.0000 C   0  0  0  0  0  0  0  0  0  0  0  0
    3.2958   -6.8125    0.0000 C   0  0  0  0  0  0  0  0  0  0  0  0
    4.0042   -6.8125    0.0000 C   0  0  0  0  0  0  0  0  0  0  0  0
    0.8375   -6.8167    0.0000 C   0  0  0  0  0  0  0  0  0  0  0  0
    4.6125   -7.8750    0.0000 C   0  0  0  0  0  0  0  0  0  0  0  0
    1.4500   -6.4583    0.0000 C   0  0  0  0  0  0  0  0  0  0  0  0
    0.2625   -6.3958    0.0000 N   0  0  0  0  0  0  0  0  0  0  0  0
    2.6792   -6.4542    0.0000 N   0  0  0  0  0  0  0  0  0  0  0  0
    2.0625   -6.8125    0.0000 C   0  0  0  0  0  0  0  0  0  0  0  0
   -0.3083   -6.8167    0.0000 C   0  0  0  0  0  0  0  0  0  0  0  0
    4.6125   -8.5792    0.0000 C   0  0  0  0  0  0  0  0  0  0  0  0
    0.6167   -7.4875    0.0000 C   0  0  0  0  0  0  0  0  0  0  0  0
   -0.0917   -7.4875    0.0000 S   0  0  0  0  0  0  0  0  0  0  0  0
    4.6125   -6.4542    0.0000 S   0  0  0  0  0  0  0  0  0  0  0  0
    5.2250   -7.5167    0.0000 C   0  0  0  0  0  0  0  0  0  0  0  0
    1.4458   -5.7458    0.0000 N   0  0  0  0  0  0  0  0  0  0  0  0
    2.7917   -8.0208    0.0000 O   0  0  0  0  0  0  0  0  0  0  0  0
    2.0667   -7.5208    0.0000 O   0  0  0  0  0  0  0  0  0  0  0  0
    5.2292   -8.9375    0.0000 O   0  0  0  0  0  0  0  0  0  0  0  0
    4.0000   -8.9375    0.0000 O   0  0  0  0  0  0  0  0  0  0  0  0
   -0.9250   -6.4625    0.0000 N   0  0  0  0  0  0  0  0  0  0  0  0
    5.2250   -6.8125    0.0000 C   0  0  0  0  0  0  0  0  0  0  0  0
    2.0625   -5.3958    0.0000 O   0  0  0  0  0  0  0  0  0  0  0  0
    2.0667   -4.6875    0.0000 C   0  0  0  0  0  0  0  0  0  0  0  0
    4.0000   -6.1042    0.0000 H   0  0  0  0  0  0  0  0  0  0  0  0
  2  1  1  0
  3  4  1  0
  4  1  1  0
  5  7  1  0
  6  1  1  0
  7 10  1  0
  8  5  1  0
  3  9  1  1
 10  9  1  0
 11  8  2  0
 12  6  1  0
 13  5  2  0
 14 13  1  0
 15  4  1  0
 16  6  2  0
 17  7  2  0
 18  2  2  0
 19 10  2  0
 20 12  1  0
 21 12  2  0
 22 11  1  0
 23 15  1  0
 24 17  1  0
 25 24  1  0
  4 26  1  6
  2  3  1  0
 23 16  1  0
 14 11  1  0
M  END
> <chembl_id>
CHEMBL528

> <chembl_pref_name>
CEFTIZOXIME
