
     RDKit          2D

 51 53  0  0  0  0  0  0  0  0999 V2000
    3.9292   -0.0667    0.0000 S   0  0  0  0  0  0  0  0  0  0  0  0
    3.5125   -0.7792    0.0000 O   0  0  0  0  0  0  0  0  0  0  0  0
    4.3375   -0.7792    0.0000 O   0  0  0  0  0  0  0  0  0  0  0  0
    4.6417    0.3458    0.0000 O   0  0  0  0  0  0  0  0  0  0  0  0
    3.2125    0.3458    0.0000 O   0  0  0  0  0  0  0  0  0  0  0  0
    2.7958   -3.0042    0.0000 N   0  0  0  0  0  0  0  0  0  0  0  0
    5.6500   -2.9500    0.0000 N   0  0  0  0  0  0  0  0  0  0  0  0
    1.9667   -3.0292    0.0000 C   0  0  0  0  0  0  0  0  0  0  0  0
    1.9458   -2.2000    0.0000 C   0  0  0  0  0  0  0  0  0  0  0  0
    2.7750   -2.1750    0.0000 C   0  0  0  0  0  0  0  0  0  0  0  0
    6.7292   -2.1542    0.0000 C   0  0  0  0  0  0  0  0  0  0  0  0
    6.9917   -2.9375    0.0000 C   0  0  0  0  0  0  0  0  0  0  0  0
   -0.9125   -2.2208    0.0000 C   0  0  0  0  0  0  0  0  0  0  0  0
    6.3250   -3.4292    0.0000 N   0  0  0  0  0  0  0  0  0  0  0  0
   -1.6958   -1.9625    0.0000 N   0  0  0  0  0  0  0  0  0  0  0  0
    4.2208   -2.9750    0.0000 C   0  0  0  0  0  0  0  0  0  0  0  0
    3.5167   -3.4000    0.0000 C   0  0  0  0  0  0  0  0  0  0  0  0
   -0.2000   -1.8042    0.0000 C   0  0  0  0  0  0  0  0  0  0  0  0
    5.9000   -2.1583    0.0000 C   0  0  0  0  0  0  0  0  0  0  0  0
    1.2292   -1.7917    0.0000 N   0  0  0  0  0  0  0  0  0  0  0  0
   -0.9083   -3.0375    0.0000 N   0  0  0  0  0  0  0  0  0  0  0  0
    0.5167   -2.2125    0.0000 C   0  0  0  0  0  0  0  0  0  0  0  0
    3.4875   -1.7500    0.0000 S   0  0  0  0  0  0  0  0  0  0  0  0
   -2.1792   -2.6292    0.0000 C   0  0  0  0  0  0  0  0  0  0  0  0
    4.9417   -3.3750    0.0000 C   0  0  0  0  0  0  0  0  0  0  0  0
   -0.2083   -0.9792    0.0000 N   0  0  0  0  0  0  0  0  0  0  0  0
    7.1625   -1.4500    0.0000 N   0  0  0  0  0  0  0  0  0  0  0  0
   -1.6958   -3.2958    0.0000 S   0  0  0  0  0  0  0  0  0  0  0  0
    0.4958    0.2625    0.0000 C   0  0  0  0  0  0  0  0  0  0  0  0
    3.5375   -4.2250    0.0000 C   0  0  0  0  0  0  0  0  0  0  0  0
    1.2083    0.6833    0.0000 C   0  0  0  0  0  0  0  0  0  0  0  0
    6.7667   -0.7250    0.0000 C   0  0  0  0  0  0  0  0  0  0  0  0
    4.2083   -2.1500    0.0000 C   0  0  0  0  0  0  0  0  0  0  0  0
    0.5042   -0.5625    0.0000 O   0  0  0  0  0  0  0  0  0  0  0  0
    1.4000   -3.6250    0.0000 O   0  0  0  0  0  0  0  0  0  0  0  0
    0.5250   -3.0375    0.0000 O   0  0  0  0  0  0  0  0  0  0  0  0
    7.7792   -3.1875    0.0000 N   0  0  0  0  0  0  0  0  0  0  0  0
    1.9250    0.2792    0.0000 O   0  0  0  0  0  0  0  0  0  0  0  0
    5.9417   -0.7042    0.0000 O   0  0  0  0  0  0  0  0  0  0  0  0
    1.2000    1.5083    0.0000 O   0  0  0  0  0  0  0  0  0  0  0  0
    2.8292   -4.6542    0.0000 O   0  0  0  0  0  0  0  0  0  0  0  0
   -3.0042   -2.6292    0.0000 N   0  0  0  0  0  0  0  0  0  0  0  0
    7.1958   -0.0208    0.0000 N   0  0  0  0  0  0  0  0  0  0  0  0
    6.3292   -4.2542    0.0000 C   0  0  0  0  0  0  0  0  0  0  0  0
    4.2583   -4.6208    0.0000 O   0  0  0  0  0  0  0  0  0  0  0  0
   -0.3292    0.2375    0.0000 C   0  0  0  0  0  0  0  0  0  0  0  0
    0.0625    0.9667    0.0000 C   0  0  0  0  0  0  0  0  0  0  0  0
    6.8417    2.1333    0.0000 N   0  0  0  0  0  0  0  0  0  0  0  0
    6.8042    0.7042    0.0000 C   0  0  0  0  0  0  0  0  0  0  0  0
    7.2333    1.4083    0.0000 C   0  0  0  0  0  0  0  0  0  0  0  0
    2.7667   -1.3500    0.0000 H   0  0  0  0  0  0  0  0  0  0  0  0
  2  1  2  0
  3  1  2  0
  4  1  1  0
  5  1  1  0
  7 25  1  0
  8  6  1  0
  9  8  1  0
 10  6  1  0
 11 19  1  0
 12 14  1  0
 13 18  1  0
 14  7  1  0
 15 13  1  0
 16 17  2  0
 17  6  1  0
 18 22  1  0
 19  7  2  0
  9 20  1  1
 21 13  2  0
 22 20  1  0
 23 10  1  0
 24 15  2  0
 25 16  1  0
 26 18  2  0
 27 11  1  0
 28 21  1  0
 29 34  1  0
 30 17  1  0
 31 29  1  0
 32 27  1  0
 33 23  1  0
 34 26  1  0
 35  8  2  0
 36 22  2  0
 37 12  1  0
 38 31  1  0
 39 32  2  0
 40 31  2  0
 41 30  2  0
 42 24  1  0
 43 32  1  0
 44 14  1  0
 45 30  1  0
 46 29  1  0
 47 29  1  0
 48 50  1  0
 49 43  1  0
 50 49  1  0
 10 51  1  6
  9 10  1  0
 33 16  1  0
 11 12  2  0
 28 24  1  0
M  CHG  2   7   1  38  -1
M  END
> <chembl_id>
CHEMBL1213250

> <chembl_pref_name>
CEFTOLOZANE SULFATE
