
     RDKit          2D

 37 35  0  0  0  0  0  0  0  0999 V2000
    9.2775   -7.1734    0.0000 C   0  0  0  0  0  0  0  0  0  0  0  0
    8.8602   -7.8868    0.0000 N   0  0  0  0  0  0  0  0  0  0  0  0
    8.5592   -6.7561    0.0000 C   0  0  0  0  0  0  0  0  0  0  0  0
    9.6852   -7.8868    0.0000 C   0  0  0  0  0  0  0  0  0  0  0  0
    9.9909   -6.7561    0.0000 C   0  0  0  0  0  0  0  0  0  0  0  0
   10.7043   -7.1734    0.0000 O   0  0  0  0  0  0  0  0  0  0  0  0
   10.5054   -7.8868    0.0000 O   0  0  0  0  0  0  0  0  0  0  0  0
    7.8458   -7.1734    0.0000 O   0  0  0  0  0  0  0  0  0  0  0  0
    1.6428   -4.1680    0.0000 C   0  0  0  0  0  0  0  0  0  0  0  0
    3.0696   -4.1680    0.0000 C   0  0  0  0  0  0  0  0  0  0  0  0
    4.5014   -4.1632    0.0000 C   0  0  0  0  0  0  0  0  0  0  0  0
    0.2111   -4.1680    0.0000 C   0  0  0  0  0  0  0  0  0  0  0  0
    2.3562   -4.5806    0.0000 C   0  0  0  0  0  0  0  0  0  0  0  0
    0.9294   -4.5806    0.0000 N   0  0  0  0  0  0  0  0  0  0  0  0
    3.7879   -4.5806    0.0000 N   0  0  0  0  0  0  0  0  0  0  0  0
    5.2148   -4.5757    0.0000 C   0  0  0  0  0  0  0  0  0  0  0  0
   -0.5023   -4.5806    0.0000 C   0  0  0  0  0  0  0  0  0  0  0  0
    2.3466   -1.2756    0.0000 N   0  0  0  0  0  0  0  0  0  0  0  0
    2.3562   -2.1006    0.0000 C   0  0  0  0  0  0  0  0  0  0  0  0
    3.0696   -3.3382    0.0000 C   0  0  0  0  0  0  0  0  0  0  0  0
    1.6428   -3.3382    0.0000 C   0  0  0  0  0  0  0  0  0  0  0  0
    2.3562   -2.9256    0.0000 C   0  0  0  0  0  0  0  0  0  0  0  0
    0.2160   -3.3430    0.0000 O   0  0  0  0  0  0  0  0  0  0  0  0
    4.4965   -3.3382    0.0000 O   0  0  0  0  0  0  0  0  0  0  0  0
   -0.5023   -5.4056    0.0000 O   0  0  0  0  0  0  0  0  0  0  0  0
    5.2196   -5.4007    0.0000 O   0  0  0  0  0  0  0  0  0  0  0  0
    2.3611   -5.4056    0.0000 Cl  0  0  0  0  0  0  0  0  0  0  0  0
   -1.2157   -4.1680    0.0000 O   0  0  0  0  0  0  0  0  0  0  0  0
    5.9282   -4.1584    0.0000 O   0  0  0  0  0  0  0  0  0  0  0  0
    9.2429   -4.6922    0.0000 C   0  0  0  0  0  0  0  0  0  0  0  0
    8.8255   -5.4056    0.0000 N   0  0  0  0  0  0  0  0  0  0  0  0
    8.5246   -4.2749    0.0000 C   0  0  0  0  0  0  0  0  0  0  0  0
    9.6505   -5.4056    0.0000 C   0  0  0  0  0  0  0  0  0  0  0  0
    9.9563   -4.2749    0.0000 C   0  0  0  0  0  0  0  0  0  0  0  0
   10.6697   -4.6922    0.0000 O   0  0  0  0  0  0  0  0  0  0  0  0
   10.4708   -5.4056    0.0000 O   0  0  0  0  0  0  0  0  0  0  0  0
    7.8111   -4.6922    0.0000 O   0  0  0  0  0  0  0  0  0  0  0  0
  2  1  1  0
  3  1  1  0
  4  1  1  0
  5  1  1  0
  6  5  1  0
  7  4  1  0
  8  3  1  0
 10 13  2  0
 11 15  1  0
 12 14  1  0
 13  9  1  0
 14  9  1  0
 15 10  1  0
 16 11  1  0
 17 12  1  0
 18 19  3  0
 19 22  1  0
 20 10  1  0
 21  9  2  0
 22 21  1  0
 23 12  2  0
 24 11  2  0
 25 17  2  0
 26 16  2  0
 27 13  1  0
 28 17  1  0
 29 16  1  0
 22 20  2  0
 31 30  1  0
 32 30  1  0
 33 30  1  0
 34 30  1  0
 35 34  1  0
 36 33  1  0
 37 32  1  0
M  END
> <chembl_id>
CHEMBL3989725

> <chembl_pref_name>
LODOXAMIDE TROMETHAMINE
