
     RDKit          2D

 50 54  0  0  1  0  0  0  0  0999 V2000
   -0.5958   -1.3917    0.0000 C   0  0  0  0  0  0  0  0  0  0  0  0
   -1.2000   -1.7625    0.0000 C   0  0  0  0  0  0  0  0  0  0  0  0
   -1.2000   -2.4250    0.0000 C   0  0  0  0  0  0  0  0  0  0  0  0
    0.5417    1.5583    0.0000 C   0  0  0  0  0  0  0  0  0  0  0  0
   -0.5958   -0.6292    0.0000 C   0  0  0  0  0  0  0  0  0  0  0  0
   -0.0250   -1.8292    0.0000 C   0  0  0  0  0  0  0  0  0  0  0  0
    1.7792    1.6000    0.0000 C   0  0  0  0  0  0  0  0  0  0  0  0
   -0.0250   -2.5542    0.0000 C   0  0  0  0  0  0  0  0  0  0  0  0
   -1.9750   -2.6542    0.0000 O   0  0  0  0  0  0  0  0  0  0  0  0
   -1.9333   -1.4792    0.0000 C   0  0  0  0  0  0  0  0  0  0  0  0
    1.1542    2.6125    0.0000 C   0  0  0  0  0  0  0  0  0  0  0  0
    1.1750    1.1000    0.0000 O   0  0  0  0  0  0  0  0  0  0  0  0
    1.7792    2.2833    0.0000 C   0  0  0  0  0  0  0  0  0  0  0  0
   -0.6333   -2.9042    0.0000 C   0  0  0  0  0  0  0  0  0  0  0  0
    0.5417    2.2750    0.0000 C   0  0  0  0  0  0  0  0  0  0  0  0
    2.3167    1.0583    0.0000 C   0  0  0  0  0  0  0  0  0  0  0  0
   -0.1708   -0.1250    0.0000 O   0  0  0  0  0  0  0  0  0  0  0  0
    0.5417    0.8333    0.0000 C   0  0  0  0  0  0  0  0  0  0  0  0
   -0.1000    2.0833    0.0000 O   0  0  0  0  0  0  0  0  0  0  0  0
   -0.0833    0.4833    0.0000 C   0  0  0  0  0  0  0  0  0  0  0  0
    2.9375    1.4583    0.0000 C   0  0  0  0  0  0  0  0  0  0  0  0
   -2.4000   -2.0292    0.0000 C   0  0  0  0  0  0  0  0  0  0  0  0
    1.1542    3.2500    0.0000 N   0  0  0  0  0  0  0  0  0  0  0  0
   -1.9333   -0.8167    0.0000 C   0  0  0  0  0  0  0  0  0  0  0  0
   -1.1833   -0.2375    0.0000 O   0  0  0  0  0  0  0  0  0  0  0  0
   -2.5708   -0.2917    0.0000 C   0  0  0  0  0  0  0  0  0  0  0  0
   -2.5708    1.8958    0.0000 C   0  0  0  0  0  0  0  0  0  0  0  0
   -1.9458    1.5333    0.0000 C   0  0  0  0  0  0  0  0  0  0  0  0
   -0.7083    0.8333    0.0000 C   0  0  0  0  0  0  0  0  0  0  0  0
   -0.7083    1.5583    0.0000 C   0  0  0  0  0  0  0  0  0  0  0  0
   -1.2458   -0.9542    0.0000 O   0  0  0  0  0  0  0  0  0  0  0  0
   -2.5708    0.4583    0.0000 C   0  0  0  0  0  0  0  0  0  0  0  0
   -3.1875    1.5333    0.0000 C   0  0  0  0  0  0  0  0  0  0  0  0
   -1.3458    1.8625    0.0000 C   0  0  0  0  0  0  0  0  0  0  0  0
   -0.0458   -3.4542    0.0000 O   0  0  0  0  0  0  0  0  0  0  0  0
    0.5542    3.5083    0.0000 O   0  0  0  0  0  0  0  0  0  0  0  0
   -3.1875    0.8083    0.0000 C   0  0  0  0  0  0  0  0  0  0  0  0
    0.4792   -2.7667    0.0000 C   0  0  0  0  0  0  0  0  0  0  0  0
    2.3042    0.4000    0.0000 C   0  0  0  0  0  0  0  0  0  0  0  0
    3.4625    0.9750    0.0000 C   0  0  0  0  0  0  0  0  0  0  0  0
    2.0792    3.0250    0.0000 C   0  0  0  0  0  0  0  0  0  0  0  0
   -2.5833    2.6125    0.0000 C   0  0  0  0  0  0  0  0  0  0  0  0
   -0.1000    3.5083    0.0000 C   0  0  0  0  0  0  0  0  0  0  0  0
   -3.9958    0.8083    0.0000 C   0  0  0  0  0  0  0  0  0  0  0  0
    3.9917    0.9750    0.0000 C   0  0  0  0  0  0  0  0  0  0  0  0
    3.4625    0.2875    0.0000 C   0  0  0  0  0  0  0  0  0  0  0  0
    0.7411   -0.0827    0.0000 H   0  0  0  0  0  0  0  0  0  0  0  0
   -0.8413    2.5494    0.0000 H   0  0  0  0  0  0  0  0  0  0  0  0
   -1.4057   -3.4036    0.0000 H   0  0  0  0  0  0  0  0  0  0  0  0
    0.3010   -0.9492    0.0000 H   0  0  0  0  0  0  0  0  0  0  0  0
  2  1  1  0
  3  2  1  0
  4 18  1  1
  5  1  1  0
  6  1  1  0
  7 12  1  0
  8  6  2  0
  9  3  1  0
 10  2  1  0
 11 15  1  0
  4 12  1  0
 13 11  1  0
 14  8  1  0
 15  4  1  0
  7 16  1  1
 17  5  1  0
 18 20  1  0
 19 30  1  0
 20 17  1  0
 21 16  2  0
 22 10  1  0
 23 11  2  0
 24 10  2  0
 25  5  2  0
 26 24  1  0
 27 28  2  0
 28 34  1  0
 29 20  1  0
 30 29  1  0
  2 31  1  6
 32 26  2  0
 33 37  1  0
 34 30  1  0
 14 35  1  1
 36 23  1  0
 37 32  1  0
 38  8  1  0
 39 16  1  0
 40 21  1  0
 13 41  1  6
 42 27  1  0
 43 36  1  0
 37 44  1  6
 45 40  1  0
 46 40  1  0
 20 47  1  6
 30 48  1  6
  3 14  1  0
  9 22  1  0
  4 19  1  0
 33 27  1  0
  7 13  1  0
  3 49  1  6
  1 50  1  1
M  END
> <chembl_id>
CHEMBL2104415

> <chembl_pref_name>
MOXIDECTIN
