
     RDKit          2D

 10  9  0  0  0  0  0  0  0  0999 V2000
   -1.6875   -1.0667    0.0000 C   0  0  0  0  0  0  0  0  0  0  0  0
   -0.4708   -1.0417    0.0000 O   0  0  0  0  0  0  0  0  0  0  0  0
   -1.0833   -1.4000    0.0000 C   0  0  0  0  0  0  0  0  0  0  0  0
    0.1500   -1.4000    0.0000 C   0  0  0  0  0  0  0  0  0  0  0  0
   -2.3000   -1.4417    0.0000 F   0  0  0  0  0  0  0  0  0  0  0  0
   -1.3375   -0.4500    0.0000 F   0  0  0  0  0  0  0  0  0  0  0  0
   -2.0458   -0.4500    0.0000 F   0  0  0  0  0  0  0  0  0  0  0  0
   -1.0833   -2.0917    0.0000 F   0  0  0  0  0  0  0  0  0  0  0  0
    0.7625   -1.0500    0.0000 F   0  0  0  0  0  0  0  0  0  0  0  0
    0.1500   -2.1042    0.0000 F   0  0  0  0  0  0  0  0  0  0  0  0
  2  3  1  0
  3  1  1  0
  4  2  1  0
  5  1  1  0
  6  1  1  0
  7  1  1  0
  8  3  1  0
  9  4  1  0
 10  4  1  0
M  END
> <chembl_id>
CHEMBL1200733

> <chembl_pref_name>
DESFLURANE
