
     RDKit          2D

 79 78  0  0  0  0  0  0  0  0999 V2000
   -0.9333   -0.5042    0.0000 N   0  0  0  0  0  0  0  0  0  0  0  0
   -1.2083   -0.3417    0.0000 C   0  0  0  0  0  0  0  0  0  0  0  0
   -1.4833   -0.8500    0.0000 O   0  0  0  0  0  0  0  0  0  0  0  0
   -1.4833   -0.5292    0.0000 C   0  0  0  0  0  0  0  0  0  0  0  0
   -0.9333   -0.8250    0.0000 C   0  0  0  0  0  0  0  0  0  0  0  0
   -0.6500   -0.3625    0.0000 C   0  0  0  0  0  0  0  0  0  0  0  0
   -1.7583   -0.3750    0.0000 C   0  0  0  0  0  0  0  0  0  0  0  0
   -3.7875    0.1625    0.0000 N   0  0  0  0  0  0  0  0  0  0  0  0
   -3.4833    0.2958    0.0000 C   0  0  0  0  0  0  0  0  0  0  0  0
   -3.4958    0.6125    0.0000 C   0  0  0  0  0  0  0  0  0  0  0  0
   -3.8583   -0.1375    0.0000 C   0  0  0  0  0  0  0  0  0  0  0  0
   -3.8250    0.6958    0.0000 N   0  0  0  0  0  0  0  0  0  0  0  0
   -3.6458   -0.3792    0.0000 C   0  0  0  0  0  0  0  0  0  0  0  0
   -4.0083    0.4000    0.0000 C   0  0  0  0  0  0  0  0  0  0  0  0
   -4.1458   -0.2667    0.0000 O   0  0  0  0  0  0  0  0  0  0  0  0
   -3.1833    0.1458    0.0000 N   0  0  0  0  0  0  0  0  0  0  0  0
   -3.2333    0.8000    0.0000 C   0  0  0  0  0  0  0  0  0  0  0  0
   -3.8083   -0.6542    0.0000 C   0  0  0  0  0  0  0  0  0  0  0  0
   -4.1125   -0.5917    0.0000 C   0  0  0  0  0  0  0  0  0  0  0  0
   -2.9333    0.6500    0.0000 N   0  0  0  0  0  0  0  0  0  0  0  0
   -2.9208    0.3083    0.0000 C   0  0  0  0  0  0  0  0  0  0  0  0
   -3.2458    1.1333    0.0000 O   0  0  0  0  0  0  0  0  0  0  0  0
   -3.3333   -0.3375    0.0000 O   0  0  0  0  0  0  0  0  0  0  0  0
   -3.6750   -0.9500    0.0000 O   0  0  0  0  0  0  0  0  0  0  0  0
   -4.3458   -0.8042    0.0000 C   0  0  0  0  0  0  0  0  0  0  0  0
   -4.2208   -1.1000    0.0000 O   0  0  0  0  0  0  0  0  0  0  0  0
    1.7667    0.7875    0.0000 C   0  0  0  0  0  0  0  0  0  0  0  0
    0.3875    0.3000    0.0000 C   0  0  0  0  0  0  0  0  0  0  0  0
    1.4917    0.6208    0.0000 C   0  0  0  0  0  0  0  0  0  0  0  0
    0.6667    0.1458    0.0000 N   0  0  0  0  0  0  0  0  0  0  0  0
    1.7625    1.1083    0.0000 O   0  0  0  0  0  0  0  0  0  0  0  0
    0.3875    0.6208    0.0000 O   0  0  0  0  0  0  0  0  0  0  0  0
    1.2167    0.7833    0.0000 C   0  0  0  0  0  0  0  0  0  0  0  0
    1.4917    0.3083    0.0000 C   0  0  0  0  0  0  0  0  0  0  0  0
    0.9417    0.3000    0.0000 C   0  0  0  0  0  0  0  0  0  0  0  0
    2.0417    0.6333    0.0000 O   0  0  0  0  0  0  0  0  0  0  0  0
    1.2167    0.1458    0.0000 C   0  0  0  0  0  0  0  0  0  0  0  0
    0.9375    0.6208    0.0000 C   0  0  0  0  0  0  0  0  0  0  0  0
    0.1125    0.1458    0.0000 C   0  0  0  0  0  0  0  0  0  0  0  0
   -0.5458    0.7958    0.0000 C   0  0  0  0  0  0  0  0  0  0  0  0
   -1.9250    0.3083    0.0000 C   0  0  0  0  0  0  0  0  0  0  0  0
   -0.8208    0.6333    0.0000 C   0  0  0  0  0  0  0  0  0  0  0  0
   -1.6500    0.1500    0.0000 N   0  0  0  0  0  0  0  0  0  0  0  0
   -0.5500    1.1208    0.0000 O   0  0  0  0  0  0  0  0  0  0  0  0
   -1.9250    0.6333    0.0000 O   0  0  0  0  0  0  0  0  0  0  0  0
   -1.1000    0.7958    0.0000 C   0  0  0  0  0  0  0  0  0  0  0  0
   -0.8208    0.3208    0.0000 C   0  0  0  0  0  0  0  0  0  0  0  0
   -1.3708    0.3083    0.0000 C   0  0  0  0  0  0  0  0  0  0  0  0
   -0.2708    0.6458    0.0000 O   0  0  0  0  0  0  0  0  0  0  0  0
   -1.3750    0.6250    0.0000 C   0  0  0  0  0  0  0  0  0  0  0  0
   -1.0958    0.1500    0.0000 C   0  0  0  0  0  0  0  0  0  0  0  0
   -2.2000    0.1500    0.0000 C   0  0  0  0  0  0  0  0  0  0  0  0
    4.0417    0.7875    0.0000 C   0  0  0  0  0  0  0  0  0  0  0  0
    2.6625    0.3000    0.0000 C   0  0  0  0  0  0  0  0  0  0  0  0
    3.7667    0.6208    0.0000 C   0  0  0  0  0  0  0  0  0  0  0  0
    2.9375    0.1458    0.0000 N   0  0  0  0  0  0  0  0  0  0  0  0
    4.0375    1.1083    0.0000 O   0  0  0  0  0  0  0  0  0  0  0  0
    2.6625    0.6208    0.0000 O   0  0  0  0  0  0  0  0  0  0  0  0
    3.7667    0.3083    0.0000 C   0  0  0  0  0  0  0  0  0  0  0  0
    3.4917    0.7833    0.0000 C   0  0  0  0  0  0  0  0  0  0  0  0
    3.2167    0.3000    0.0000 C   0  0  0  0  0  0  0  0  0  0  0  0
    4.3167    0.6333    0.0000 O   0  0  0  0  0  0  0  0  0  0  0  0
    3.2167    0.6208    0.0000 C   0  0  0  0  0  0  0  0  0  0  0  0
    3.4917    0.1458    0.0000 C   0  0  0  0  0  0  0  0  0  0  0  0
    2.3792    0.1458    0.0000 C   0  0  0  0  0  0  0  0  0  0  0  0
    3.5792   -0.5917    0.0000 N   0  0  0  0  0  0  0  0  0  0  0  0
    3.3042   -0.4292    0.0000 C   0  0  0  0  0  0  0  0  0  0  0  0
    3.0292   -0.9375    0.0000 O   0  0  0  0  0  0  0  0  0  0  0  0
    3.0292   -0.6167    0.0000 C   0  0  0  0  0  0  0  0  0  0  0  0
    3.5792   -0.9125    0.0000 C   0  0  0  0  0  0  0  0  0  0  0  0
    3.8542   -0.4417    0.0000 C   0  0  0  0  0  0  0  0  0  0  0  0
    2.7542   -0.4542    0.0000 C   0  0  0  0  0  0  0  0  0  0  0  0
    1.2917   -0.6042    0.0000 N   0  0  0  0  0  0  0  0  0  0  0  0
    1.0167   -0.4500    0.0000 C   0  0  0  0  0  0  0  0  0  0  0  0
    0.7417   -0.9542    0.0000 O   0  0  0  0  0  0  0  0  0  0  0  0
    0.7417   -0.6292    0.0000 C   0  0  0  0  0  0  0  0  0  0  0  0
    1.2875   -0.9250    0.0000 C   0  0  0  0  0  0  0  0  0  0  0  0
    1.5667   -0.4625    0.0000 C   0  0  0  0  0  0  0  0  0  0  0  0
    0.4625   -0.4750    0.0000 C   0  0  0  0  0  0  0  0  0  0  0  0
  2  1  1  0
  3  4  1  0
  4  2  1  0
  5  1  1  0
  6  1  1  0
  7  4  1  0
  9  8  1  0
 10  9  2  0
 11  8  1  1
 12 14  2  0
 13 11  1  0
 14  8  1  0
 15 11  1  0
 16  9  1  0
 17 10  1  0
 18 13  1  0
 19 15  1  0
 20 21  1  0
 21 16  2  0
 22 17  2  0
 13 23  1  6
 18 24  1  6
 19 25  1  1
 26 25  1  0
 10 12  1  0
 19 18  1  0
 17 20  1  0
 28 30  1  0
 29 27  1  0
 30 35  1  0
 31 27  2  0
 32 28  2  0
 33 29  1  0
 34 29  2  0
 35 37  2  0
 36 27  1  0
 37 34  1  0
 38 33  2  0
 39 28  1  0
 35 38  1  0
 41 43  1  0
 42 40  1  0
 43 48  1  0
 44 40  2  0
 45 41  2  0
 46 42  1  0
 47 42  2  0
 48 51  2  0
 49 40  1  0
 50 46  2  0
 51 47  1  0
 52 41  1  0
 48 50  1  0
 54 56  1  0
 55 53  1  0
 56 61  1  0
 57 53  2  0
 58 54  2  0
 59 55  2  0
 60 55  1  0
 61 63  1  0
 62 53  1  0
 63 60  2  0
 64 59  1  0
 65 54  1  0
 64 61  2  0
 67 66  1  0
 68 69  1  0
 69 67  1  0
 70 66  1  0
 71 66  1  0
 72 69  1  0
 74 73  1  0
 75 76  1  0
 76 74  1  0
 77 73  1  0
 78 73  1  0
 79 76  1  0
M  END
> <chembl_id>
CHEMBL3833327

> <chembl_pref_name>
INOSINE PRANOBEX
