
     RDKit          2D

 34 37  0  0  0  0  0  0  0  0999 V2000
   -0.0979    1.5752    0.0000 C   0  0  0  0  0  0  0  0  0  0  0  0
   -0.8124    1.1627    0.0000 C   0  0  0  0  0  0  0  0  0  0  0  0
   -0.8124    0.3377    0.0000 C   0  0  0  0  0  0  0  0  0  0  0  0
   -0.0979   -0.0748    0.0000 C   0  0  0  0  0  0  0  0  0  0  0  0
    0.6166    0.3377    0.0000 C   0  0  0  0  0  0  0  0  0  0  0  0
    0.6166    1.1627    0.0000 C   0  0  0  0  0  0  0  0  0  0  0  0
    1.3311   -0.0748    0.0000 C   0  0  0  0  0  0  0  0  0  0  0  0
    1.3311   -0.8998    0.0000 C   0  0  0  0  0  0  0  0  0  0  0  0
    2.0456   -1.3123    0.0000 C   0  0  0  0  0  0  0  0  0  0  0  0
    2.7601   -0.8998    0.0000 C   0  0  0  0  0  0  0  0  0  0  0  0
    2.7601   -0.0748    0.0000 C   0  0  0  0  0  0  0  0  0  0  0  0
    2.0456    0.3377    0.0000 C   0  0  0  0  0  0  0  0  0  0  0  0
   -1.5268   -0.0748    0.0000 C   0  0  0  0  0  0  0  0  0  0  0  0
   -2.2413    0.3377    0.0000 C   0  0  0  0  0  0  0  0  0  0  0  0
   -2.9558   -0.0748    0.0000 C   0  0  0  0  0  0  0  0  0  0  0  0
   -2.9558   -0.8998    0.0000 C   0  0  0  0  0  0  0  0  0  0  0  0
   -2.2413   -1.3123    0.0000 C   0  0  0  0  0  0  0  0  0  0  0  0
   -1.5268   -0.8998    0.0000 C   0  0  0  0  0  0  0  0  0  0  0  0
   -3.6702   -1.3123    0.0000 N   0  0  0  0  0  0  0  0  0  0  0  0
   -4.4239   -0.9768    0.0000 C   0  0  0  0  0  0  0  0  0  0  0  0
   -4.9759   -1.5899    0.0000 C   0  0  0  0  0  0  0  0  0  0  0  0
   -4.5634   -2.3043    0.0000 C   0  0  0  0  0  0  0  0  0  0  0  0
   -3.7565   -2.1328    0.0000 C   0  0  0  0  0  0  0  0  0  0  0  0
   -2.2413   -2.1373    0.0000 C   0  0  0  0  0  0  0  0  0  0  0  0
   -1.5268   -2.5498    0.0000 C   0  0  0  0  0  0  0  0  0  0  0  0
   -2.9557   -2.5498    0.0000 C   0  0  0  0  0  0  0  0  0  0  0  0
   -2.2413   -2.9623    0.0000 C   0  0  0  0  0  0  0  0  0  0  0  0
   -1.5268    1.5752    0.0000 O   0  0  0  0  0  0  0  0  0  0  0  0
   -2.2413    1.1627    0.0000 C   0  0  0  0  0  0  0  0  0  0  0  0
   -2.9558    1.5752    0.0000 C   0  0  0  0  0  0  0  0  0  0  0  0
   -3.6702    1.1627    0.0000 O   0  0  0  0  0  0  0  0  0  0  0  0
    3.4745   -1.3123    0.0000 C   0  0  0  0  0  0  0  0  0  0  0  0
    4.1890   -0.8998    0.0000 O   0  0  0  0  0  0  0  0  0  0  0  0
    3.4745   -2.1373    0.0000 O   0  0  0  0  0  0  0  0  0  0  0  0
  1  2  1  0
  1  6  2  0
  2  3  2  0
  3  4  1  0
  4  5  2  0
  5  6  1  0
  5  7  1  0
  7  8  1  0
  7 12  2  0
  8  9  2  0
  9 10  1  0
 10 11  2  0
 11 12  1  0
  3 13  1  0
 13 14  1  0
 13 18  2  0
 14 15  2  0
 15 16  1  0
 16 17  2  0
 17 18  1  0
 16 19  1  0
 19 20  1  0
 19 23  1  0
 20 21  1  0
 21 22  1  0
 22 23  1  0
 17 24  1  0
 24 25  1  0
 24 26  1  0
 24 27  1  0
  2 28  1  0
 28 29  1  0
 29 30  1  0
 30 31  1  0
 10 32  1  0
 32 33  1  0
 32 34  2  0
M  END
> <chembl_id>
CHEMBL3707313

> <chembl_pref_name>
TRIFAROTENE
