
     RDKit          2D

 28 27  0  0  0  0  0  0  0  0999 V2000
    4.6875   -7.2857    0.0000 O   0  0  0  0  0  0  0  0  0  0  0  0
    2.4157   -4.0325    0.0000 C   0  0  0  0  0  0  0  0  0  0  0  0
    1.7007   -3.6209    0.0000 C   0  0  0  0  0  0  0  0  0  0  0  0
    2.4157   -4.8473    0.0000 C   0  0  0  0  0  0  0  0  0  0  0  0
    3.1265   -3.6209    0.0000 C   0  0  0  0  0  0  0  0  0  0  0  0
    1.7007   -5.2671    0.0000 C   0  0  0  0  0  0  0  0  0  0  0  0
    3.1265   -5.2671    0.0000 C   0  0  0  0  0  0  0  0  0  0  0  0
    3.8374   -4.0325    0.0000 N   0  0  0  0  0  0  0  0  0  0  0  0
    1.8004   -2.8020    0.0000 O   0  0  0  0  0  0  0  0  0  0  0  0
    2.4157   -6.5017    0.0000 C   0  0  0  0  0  0  0  0  0  0  0  0
    3.1265   -6.0901    0.0000 C   0  0  0  0  0  0  0  0  0  0  0  0
    1.7007   -6.0901    0.0000 C   0  0  0  0  0  0  0  0  0  0  0  0
    2.4157   -7.3248    0.0000 O   0  0  0  0  0  0  0  0  0  0  0  0
    1.2891   -4.3359    0.0000 C   0  0  0  0  0  0  0  0  0  0  0  0
    0.9067   -3.8454    0.0000 C   0  0  0  0  0  0  0  0  0  0  0  0
    3.8374   -4.8473    0.0000 C   0  0  0  0  0  0  0  0  0  0  0  0
    4.5482   -3.6209    0.0000 C   0  0  0  0  0  0  0  0  0  0  0  0
    0.4910   -4.1073    0.0000 C   0  0  0  0  0  0  0  0  0  0  0  0
    0.1086   -3.6209    0.0000 C   0  0  0  0  0  0  0  0  0  0  0  0
   -0.3029   -4.3359    0.0000 C   0  0  0  0  0  0  0  0  0  0  0  0
    7.5183   -6.3526    0.0000 C   0  0  0  0  0  0  0  0  0  0  0  0
    6.8676   -5.8456    0.0000 C   0  0  0  0  0  0  0  0  0  0  0  0
    6.9813   -5.0285    0.0000 C   0  0  0  0  0  0  0  0  0  0  0  0
    7.4046   -7.1698    0.0000 C   0  0  0  0  0  0  0  0  0  0  0  0
    6.3306   -4.5214    0.0000 O   0  0  0  0  0  0  0  0  0  0  0  0
    7.7458   -4.7184    0.0000 O   0  0  0  0  0  0  0  0  0  0  0  0
    8.0553   -7.6768    0.0000 O   0  0  0  0  0  0  0  0  0  0  0  0
    6.6401   -7.4798    0.0000 O   0  0  0  0  0  0  0  0  0  0  0  0
  3  2  1  0
  4  2  1  0
  5  2  1  0
  6  4  1  0
  7  4  2  0
  8  5  1  0
  9  3  1  0
 10 11  2  0
 11  7  1  0
 12  6  2  0
 13 10  1  0
 14  3  1  0
 15  3  1  0
 16  8  1  0
 17  8  1  0
 18 14  1  0
 19 15  1  0
 20 19  1  0
 10 12  1  0
 18 20  1  0
 21 22  2  0
 22 23  1  0
 21 24  1  0
 23 25  1  0
 23 26  2  0
 24 27  1  0
 24 28  2  0
M  END
> <chembl_id>
CHEMBL3989861

> <chembl_pref_name>
DESVENLAFAXINE FUMARATE
