
     RDKit          2D

 35 37  0  0  0  0  0  0  0  0999 V2000
    3.9917   -7.5917    0.0000 Cl  0  0  0  0  0  0  0  0  0  0  0  0
    5.2792   -6.0042    0.0000 C   0  0  0  0  0  0  0  0  0  0  0  0
    4.0500   -6.0042    0.0000 C   0  0  0  0  0  0  0  0  0  0  0  0
    6.5125   -6.0042    0.0000 C   0  0  0  0  0  0  0  0  0  0  0  0
    4.6667   -6.3667    0.0000 C   0  0  0  0  0  0  0  0  0  0  0  0
    5.8917   -6.3667    0.0000 C   0  0  0  0  0  0  0  0  0  0  0  0
    3.4292   -6.3667    0.0000 C   0  0  0  0  0  0  0  0  0  0  0  0
    5.2792   -5.3000    0.0000 C   0  0  0  0  0  0  0  0  0  0  0  0
    6.5125   -5.3000    0.0000 C   0  0  0  0  0  0  0  0  0  0  0  0
    2.8167   -6.0042    0.0000 C   0  0  0  0  0  0  0  0  0  0  0  0
    2.8167   -5.3000    0.0000 C   0  0  0  0  0  0  0  0  0  0  0  0
    4.0500   -5.3000    0.0000 C   0  0  0  0  0  0  0  0  0  0  0  0
    3.4292   -4.9417    0.0000 C   0  0  0  0  0  0  0  0  0  0  0  0
    5.8917   -4.9417    0.0000 C   0  0  0  0  0  0  0  0  0  0  0  0
    4.6667   -4.9417    0.0000 C   0  0  0  0  0  0  0  0  0  0  0  0
    7.1292   -6.3667    0.0000 C   0  0  0  0  0  0  0  0  0  0  0  0
    2.2042   -4.9417    0.0000 C   0  0  0  0  0  0  0  0  0  0  0  0
    2.2042   -6.3667    0.0000 C   0  0  0  0  0  0  0  0  0  0  0  0
    5.8917   -7.0792    0.0000 O   0  0  0  0  0  0  0  0  0  0  0  0
    3.4292   -7.0792    0.0000 O   0  0  0  0  0  0  0  0  0  0  0  0
    5.8917   -4.2375    0.0000 N   0  0  0  0  0  0  0  0  0  0  0  0
    5.2792   -6.7167    0.0000 O   0  0  0  0  0  0  0  0  0  0  0  0
    7.1292   -7.0792    0.0000 O   0  0  0  0  0  0  0  0  0  0  0  0
    4.6667   -7.0792    0.0000 O   0  0  0  0  0  0  0  0  0  0  0  0
    7.1292   -4.9417    0.0000 O   0  0  0  0  0  0  0  0  0  0  0  0
    1.5875   -5.3000    0.0000 C   0  0  0  0  0  0  0  0  0  0  0  0
    1.5875   -6.0042    0.0000 C   0  0  0  0  0  0  0  0  0  0  0  0
    3.4292   -4.2375    0.0000 O   0  0  0  0  0  0  0  0  0  0  0  0
    7.7417   -6.0042    0.0000 N   0  0  0  0  0  0  0  0  0  0  0  0
    2.2042   -4.2375    0.0000 Cl  0  0  0  0  0  0  0  0  0  0  0  0
    2.2042   -7.0792    0.0000 O   0  0  0  0  0  0  0  0  0  0  0  0
    6.5125   -3.8792    0.0000 C   0  0  0  0  0  0  0  0  0  0  0  0
    5.2792   -3.8792    0.0000 C   0  0  0  0  0  0  0  0  0  0  0  0
    4.0500   -4.5917    0.0000 H   0  0  0  0  0  0  0  0  0  0  0  0
    5.2792   -4.5917    0.0000 H   0  0  0  0  0  0  0  0  0  0  0  0
  3  5  2  0
  4  6  1  0
  5  2  1  0
  6  2  1  0
  7  3  1  0
  8  2  1  0
  9 14  1  0
 10  7  1  0
 11 13  1  0
 12 15  1  0
 13 12  1  0
 14  8  1  0
 15  8  1  0
 16  4  1  0
 17 11  1  0
 18 10  1  0
 19  6  2  0
 20  7  2  0
 14 21  1  6
  2 22  1  6
 23 16  2  0
 24  5  1  0
 25  9  1  0
 26 17  2  0
 27 18  2  0
 13 28  1  1
 29 16  1  0
 30 17  1  0
 31 18  1  0
 32 21  1  0
 33 21  1  0
 12 34  1  6
  8 35  1  6
 12  3  1  0
  9  4  2  0
 10 11  2  0
 27 26  1  0
M  END
> <chembl_id>
CHEMBL1200474

> <chembl_pref_name>
DEMECLOCYCLINE HYDROCHLORIDE
