
     RDKit          2D

 20 21  0  0  0  0  0  0  0  0999 V2000
   -6.4514    1.3949    0.0000 C   0  0  0  0  0  0  0  0  0  0  0  0
   -7.1658    0.9824    0.0000 C   0  0  0  0  0  0  0  0  0  0  0  0
   -7.1658    0.1574    0.0000 C   0  0  0  0  0  0  0  0  0  0  0  0
   -6.4514   -0.2551    0.0000 C   0  0  0  0  0  0  0  0  0  0  0  0
   -5.7369    0.1574    0.0000 C   0  0  0  0  0  0  0  0  0  0  0  0
   -5.7369    0.9824    0.0000 N   0  0  0  0  0  0  0  0  0  0  0  0
   -5.0224    1.3949    0.0000 C   0  0  0  0  0  0  0  0  0  0  0  0
   -4.3080    0.9824    0.0000 C   0  0  0  0  0  0  0  0  0  0  0  0
   -3.5935    1.3949    0.0000 C   0  0  0  0  0  0  0  0  0  0  0  0
   -2.8790    0.9824    0.0000 O   0  0  0  0  0  0  0  0  0  0  0  0
   -2.1645    1.3949    0.0000 C   0  0  0  0  0  0  0  0  0  0  0  0
   -1.4501    0.9824    0.0000 C   0  0  0  0  0  0  0  0  0  0  0  0
   -0.7356    1.3949    0.0000 C   0  0  0  0  0  0  0  0  0  0  0  0
   -0.0211    0.9824    0.0000 C   0  0  0  0  0  0  0  0  0  0  0  0
    0.6933    1.3949    0.0000 C   0  0  0  0  0  0  0  0  0  0  0  0
   -0.0211    0.1574    0.0000 C   0  0  0  0  0  0  0  0  0  0  0  0
    0.6933   -0.2551    0.0000 C   0  0  0  0  0  0  0  0  0  0  0  0
    1.4078    0.1574    0.0000 C   0  0  0  0  0  0  0  0  0  0  0  0
    1.4078    0.9824    0.0000 C   0  0  0  0  0  0  0  0  0  0  0  0
    2.1223   -0.2551    0.0000 Cl  0  0  0  0  0  0  0  0  0  0  0  0
  1  2  1  0
  2  3  1  0
  3  4  1  0
  4  5  1  0
  5  6  1  0
  1  6  1  0
  7  8  1  0
  8  9  1  0
  9 10  1  0
 10 11  1  0
 11 12  1  0
 12 13  1  0
 13 14  1  0
  6  7  1  0
 16 17  1  0
 17 18  2  0
 18 19  1  0
 15 19  2  0
 15 14  1  0
 14 16  2  0
 18 20  1  0
M  END
> <chembl_id>
CHEMBL462605

> <chembl_pref_name>
PITOLISANT
