
     RDKit          2D

 19 19  0  0  0  0  0  0  0  0999 V2000
    5.3375   -4.7167    0.0000 Cl  0  0  0  0  0  0  0  0  0  0  0  0
    6.5250   -3.6917    0.0000 C   0  0  0  0  0  0  0  0  0  0  0  0
    6.8625   -4.3208    0.0000 C   0  0  0  0  0  0  0  0  0  0  0  0
    5.3042   -2.9917    0.0000 N   0  0  0  0  0  0  0  0  0  0  0  0
    6.5250   -2.9875    0.0000 C   0  0  0  0  0  0  0  0  0  0  0  0
    5.9250   -4.0542    0.0000 C   0  0  0  0  0  0  0  0  0  0  0  0
    7.1417   -3.3417    0.0000 C   0  0  0  0  0  0  0  0  0  0  0  0
    7.5792   -4.3417    0.0000 O   0  0  0  0  0  0  0  0  0  0  0  0
    5.9167   -2.6292    0.0000 C   0  0  0  0  0  0  0  0  0  0  0  0
    5.3042   -3.7042    0.0000 C   0  0  0  0  0  0  0  0  0  0  0  0
    6.4917   -4.9250    0.0000 O   0  0  0  0  0  0  0  0  0  0  0  0
    4.6792   -2.6375    0.0000 C   0  0  0  0  0  0  0  0  0  0  0  0
    7.1500   -2.6292    0.0000 C   0  0  0  0  0  0  0  0  0  0  0  0
    7.7542   -3.6917    0.0000 C   0  0  0  0  0  0  0  0  0  0  0  0
    6.8292   -5.5417    0.0000 C   0  0  0  0  0  0  0  0  0  0  0  0
    6.4625   -6.1500    0.0000 C   0  0  0  0  0  0  0  0  0  0  0  0
    7.7625   -2.2750    0.0000 C   0  0  0  0  0  0  0  0  0  0  0  0
    8.3792   -3.3417    0.0000 C   0  0  0  0  0  0  0  0  0  0  0  0
    8.3792   -2.6292    0.0000 C   0  0  0  0  0  0  0  0  0  0  0  0
  3  2  1  0
  4 10  1  0
  5  2  1  0
  6  2  1  0
  7  2  1  0
  8  3  2  0
  9  5  1  0
 10  6  1  0
 11  3  1  0
 12  4  1  0
 13  7  1  0
 14  7  2  0
 15 11  1  0
 16 15  1  0
 17 13  2  0
 18 14  1  0
 19 17  1  0
  4  9  1  0
 19 18  2  0
M  END
> <chembl_id>
CHEMBL1701

> <chembl_pref_name>
MEPERIDINE HYDROCHLORIDE
