
     RDKit          2D

 15 14  0  0  0  0  0  0  0  0999 V2000
    3.4179   -2.5634    0.0000 P   0  0  0  0  0  0  0  0  0  0  0  0
    3.4179   -1.7384    0.0000 O   0  0  0  0  0  0  0  0  0  0  0  0
    4.2429   -2.5634    0.0000 O   0  0  0  0  0  0  0  0  0  0  0  0
    2.5929   -2.5634    0.0000 O   0  0  0  0  0  0  0  0  0  0  0  0
    3.4179   -3.3884    0.0000 O   0  0  0  0  0  0  0  0  0  0  0  0
    0.0000    3.3000    0.0000 C   0  0  0  0  0  0  0  0  0  0  0  0
    0.0000    2.4750    0.0000 C   0  0  0  0  0  0  0  0  0  0  0  0
   -0.7145    2.0625    0.0000 C   0  0  0  0  0  0  0  0  0  0  0  0
    0.7145    2.0625    0.0000 N   0  0  0  0  0  0  0  0  0  0  0  0
    0.7145    1.2375    0.0000 C   0  0  0  0  0  0  0  0  0  0  0  0
    1.4289    0.8250    0.0000 N   0  0  0  0  0  0  0  0  0  0  0  0
    1.4289    0.0000    0.0000 C   0  0  0  0  0  0  0  0  0  0  0  0
    0.7145   -0.4125    0.0000 C   0  0  0  0  0  0  0  0  0  0  0  0
    0.0000    0.0000    0.0000 C   0  0  0  0  0  0  0  0  0  0  0  0
    0.0000    0.8250    0.0000 N   0  0  0  0  0  0  0  0  0  0  0  0
  1  2  1  0
  1  3  1  0
  1  4  1  0
  1  5  2  0
  6  7  1  0
  7  8  1  0
  7  9  1  0
  9 10  1  0
 10 11  2  0
 11 12  1  0
 12 13  2  0
 13 14  1  0
 14 15  2  0
 10 15  1  0
M  END
> <chembl_id>
CHEMBL1697751

> <chembl_pref_name>
ISAXONINE PHOSPHATE
