
     RDKit          2D

 27 29  0  0  0  0  0  0  0  0999 V2000
   -0.1583   -0.0042    0.0000 C   0  0  0  0  0  0  0  0  0  0  0  0
   -1.1833   -0.0042    0.0000 C   0  0  0  0  0  0  0  0  0  0  0  0
    0.2167   -0.9167    0.0000 O   0  0  0  0  0  0  0  0  0  0  0  0
    3.3167   -1.2542    0.0000 N   0  0  0  0  0  0  0  0  0  0  0  0
    0.4042    0.8833    0.0000 O   0  0  0  0  0  0  0  0  0  0  0  0
   -1.1833   -1.0542    0.0000 C   0  0  0  0  0  0  0  0  0  0  0  0
   -1.1833    1.0500    0.0000 C   0  0  0  0  0  0  0  0  0  0  0  0
    1.2417   -1.0292    0.0000 C   0  0  0  0  0  0  0  0  0  0  0  0
    1.6625   -1.9792    0.0000 C   0  0  0  0  0  0  0  0  0  0  0  0
    1.8417   -0.2042    0.0000 C   0  0  0  0  0  0  0  0  0  0  0  0
    2.7125   -2.0792    0.0000 C   0  0  0  0  0  0  0  0  0  0  0  0
    2.9000   -0.3125    0.0000 C   0  0  0  0  0  0  0  0  0  0  0  0
   -2.2458   -0.0042    0.0000 O   0  0  0  0  0  0  0  0  0  0  0  0
    4.3417   -1.3750    0.0000 C   0  0  0  0  0  0  0  0  0  0  0  0
   -0.2875   -1.5667    0.0000 C   0  0  0  0  0  0  0  0  0  0  0  0
   -0.3208    1.5625    0.0000 C   0  0  0  0  0  0  0  0  0  0  0  0
   -2.1000    1.5750    0.0000 C   0  0  0  0  0  0  0  0  0  0  0  0
   -2.0750   -1.5542    0.0000 C   0  0  0  0  0  0  0  0  0  0  0  0
   -2.7583   -0.9000    0.0000 C   0  0  0  0  0  0  0  0  0  0  0  0
   -3.7833   -0.9167    0.0000 C   0  0  0  0  0  0  0  0  0  0  0  0
   -4.3458   -0.0500    0.0000 C   0  0  0  0  0  0  0  0  0  0  0  0
   -0.2875   -2.5792    0.0000 C   0  0  0  0  0  0  0  0  0  0  0  0
   -0.3208    2.5833    0.0000 C   0  0  0  0  0  0  0  0  0  0  0  0
   -2.0875    2.6000    0.0000 C   0  0  0  0  0  0  0  0  0  0  0  0
   -2.0750   -2.5917    0.0000 C   0  0  0  0  0  0  0  0  0  0  0  0
   -1.2333    3.1208    0.0000 C   0  0  0  0  0  0  0  0  0  0  0  0
   -1.1958   -3.1167    0.0000 C   0  0  0  0  0  0  0  0  0  0  0  0
  2  1  1  0
  3  1  1  0
  4 12  1  0
  5  1  2  0
  6  2  1  0
  7  2  1  0
  8  3  1  0
  9  8  1  0
 10  8  1  0
 11  9  1  0
 12 10  1  0
 13  2  1  0
 14  4  1  0
 15  6  1  0
 16  7  2  0
 17  7  1  0
 18  6  2  0
 19 13  1  0
 20 19  1  0
 21 20  1  0
 22 15  2  0
 23 16  1  0
 24 17  2  0
 25 18  1  0
 26 24  1  0
 27 25  2  0
 11  4  1  0
 23 26  2  0
 22 27  1  0
M  END
> <chembl_id>
CHEMBL1078261

> <chembl_pref_name>
PROPIVERINE
