
     RDKit          2D

 21 23  0  0  0  0  0  0  0  0999 V2000
    5.6042   -5.0667    0.0000 C   0  0  0  0  0  0  0  0  0  0  0  0
    4.8917   -5.0667    0.0000 C   0  0  0  0  0  0  0  0  0  0  0  0
    3.8292   -5.6792    0.0000 N   0  0  0  0  0  0  0  0  0  0  0  0
    6.3167   -5.0667    0.0000 C   0  0  0  0  0  0  0  0  0  0  0  0
    4.5375   -5.6792    0.0000 C   0  0  0  0  0  0  0  0  0  0  0  0
    5.6042   -5.7792    0.0000 C   0  0  0  0  0  0  0  0  0  0  0  0
    5.6042   -4.3625    0.0000 O   0  0  0  0  0  0  0  0  0  0  0  0
    3.4750   -6.2917    0.0000 C   0  0  0  0  0  0  0  0  0  0  0  0
    3.4792   -5.0667    0.0000 C   0  0  0  0  0  0  0  0  0  0  0  0
    6.6667   -5.6875    0.0000 C   0  0  0  0  0  0  0  0  0  0  0  0
    6.6667   -4.4625    0.0000 C   0  0  0  0  0  0  0  0  0  0  0  0
    6.1792   -6.2042    0.0000 C   0  0  0  0  0  0  0  0  0  0  0  0
    5.0375   -6.1917    0.0000 C   0  0  0  0  0  0  0  0  0  0  0  0
    2.7667   -5.0667    0.0000 C   0  0  0  0  0  0  0  0  0  0  0  0
    2.7625   -6.2917    0.0000 C   0  0  0  0  0  0  0  0  0  0  0  0
    7.3792   -4.4625    0.0000 C   0  0  0  0  0  0  0  0  0  0  0  0
    7.3792   -5.6875    0.0000 C   0  0  0  0  0  0  0  0  0  0  0  0
    5.2542   -6.8667    0.0000 C   0  0  0  0  0  0  0  0  0  0  0  0
    5.9625   -6.8667    0.0000 C   0  0  0  0  0  0  0  0  0  0  0  0
    7.7375   -5.0667    0.0000 C   0  0  0  0  0  0  0  0  0  0  0  0
    2.4125   -5.6792    0.0000 C   0  0  0  0  0  0  0  0  0  0  0  0
  2  1  1  0
  3  5  1  0
  4  1  1  0
  5  2  1  0
  6  1  1  0
  7  1  1  0
  8  3  1  0
  9  3  1  0
 10  4  1  0
 11  4  2  0
 12  6  1  0
 13  6  1  0
 14  9  1  0
 15  8  1  0
 16 11  1  0
 17 10  2  0
 18 13  1  0
 19 12  1  0
 20 17  1  0
 21 15  1  0
 19 18  1  0
 20 16  2  0
 21 14  1  0
M  END
> <chembl_id>
CHEMBL1201227

> <chembl_pref_name>
CYCRIMINE
