
     RDKit          2D

 39 41  0  0  1  0  0  0  0  0999 V2000
    3.0833   -7.8917    0.0000 S   0  0  0  0  0  0  0  0  0  0  0  0
    2.4708   -8.2417    0.0000 N   0  0  0  0  0  0  0  0  0  0  0  0
    0.6292   -9.3042    0.0000 P   0  0  0  0  0  0  0  0  0  0  0  0
    1.2417   -8.2417    0.0000 C   0  0  0  0  0  0  0  0  0  0  0  0
    1.8583   -7.8917    0.0000 C   0  0  0  0  0  0  0  0  0  0  0  0
   -0.5958   -7.8917    0.0000 C   0  0  0  0  0  0  0  0  0  0  0  0
    1.2417   -8.9542    0.0000 O   0  0  0  0  0  0  0  0  0  0  0  0
    0.6292   -7.8917    0.0000 C   0  0  0  0  0  0  0  0  0  0  0  0
    0.0167   -8.2417    0.0000 N   0  0  0  0  0  0  0  0  0  0  0  0
    3.6958   -8.2417    0.0000 C   0  0  0  0  0  0  0  0  0  0  0  0
    3.4292   -7.2667    0.0000 O   0  0  0  0  0  0  0  0  0  0  0  0
    2.7250   -7.2667    0.0000 O   0  0  0  0  0  0  0  0  0  0  0  0
    0.0167   -8.9542    0.0000 O   0  0  0  0  0  0  0  0  0  0  0  0
    0.2667   -9.9167    0.0000 O   0  0  0  0  0  0  0  0  0  0  0  0
    0.9792   -9.9167    0.0000 O   0  0  0  0  0  0  0  0  0  0  0  0
    2.4667   -8.9417    0.0000 C   0  0  0  0  0  0  0  0  0  0  0  0
   -1.2083   -8.2417    0.0000 O   0  0  0  0  0  0  0  0  0  0  0  0
   -0.5958   -7.1792    0.0000 O   0  0  0  0  0  0  0  0  0  0  0  0
    0.6292   -7.1792    0.0000 C   0  0  0  0  0  0  0  0  0  0  0  0
   -2.7500   -7.2167    0.0000 O   0  0  0  0  0  0  0  0  0  0  0  0
    4.3083   -7.8917    0.0000 C   0  0  0  0  0  0  0  0  0  0  0  0
    3.6958   -8.9542    0.0000 C   0  0  0  0  0  0  0  0  0  0  0  0
    4.9208   -8.9542    0.0000 C   0  0  0  0  0  0  0  0  0  0  0  0
    5.5375   -9.3042    0.0000 N   0  0  0  0  0  0  0  0  0  0  0  0
    1.2417   -6.8292    0.0000 C   0  0  0  0  0  0  0  0  0  0  0  0
    4.9208   -8.2417    0.0000 C   0  0  0  0  0  0  0  0  0  0  0  0
    4.3083   -9.3083    0.0000 C   0  0  0  0  0  0  0  0  0  0  0  0
   -1.8250   -7.8917    0.0000 C   0  0  0  0  0  0  0  0  0  0  0  0
   -2.3958   -8.3083    0.0000 C   0  0  0  0  0  0  0  0  0  0  0  0
   -2.9708   -7.8917    0.0000 C   0  0  0  0  0  0  0  0  0  0  0  0
    2.8292   -9.5625    0.0000 C   0  0  0  0  0  0  0  0  0  0  0  0
   -2.0417   -7.2167    0.0000 C   0  0  0  0  0  0  0  0  0  0  0  0
    1.8583   -7.1833    0.0000 C   0  0  0  0  0  0  0  0  0  0  0  0
    1.2417   -6.1208    0.0000 C   0  0  0  0  0  0  0  0  0  0  0  0
    2.4708  -10.1708    0.0000 C   0  0  0  0  0  0  0  0  0  0  0  0
    3.5375   -9.5583    0.0000 C   0  0  0  0  0  0  0  0  0  0  0  0
    1.8542   -5.7667    0.0000 C   0  0  0  0  0  0  0  0  0  0  0  0
    2.4708   -6.8292    0.0000 C   0  0  0  0  0  0  0  0  0  0  0  0
    2.4708   -6.1208    0.0000 C   0  0  0  0  0  0  0  0  0  0  0  0
  2  1  1  0
  3  7  1  0
  4  5  1  0
  5  2  1  0
  6  9  1  0
  4  7  1  1
  8  4  1  0
  9  8  1  0
 10  1  1  0
 11  1  2  0
 12  1  2  0
 13  3  1  0
 14  3  1  0
 15  3  2  0
 16  2  1  0
 17  6  1  0
 18  6  2  0
  8 19  1  1
 20 32  1  0
 21 10  1  0
 22 10  2  0
 23 26  1  0
 24 23  1  0
 25 19  1  0
 26 21  2  0
 27 22  1  0
 28 17  1  1
 29 28  1  0
 30 29  1  0
 31 16  1  0
 32 28  1  0
 33 25  2  0
 34 25  1  0
 35 31  1  0
 36 31  1  0
 37 34  2  0
 38 33  1  0
 39 37  1  0
 23 27  2  0
 39 38  2  0
 20 30  1  0
M  END
> <chembl_id>
CHEMBL1664

> <chembl_pref_name>
FOSAMPRENAVIR
