
     RDKit          2D

 17 16  0  0  0  0  0  0  0  0999 V2000
    0.0917   -4.6667    0.0000 O   0  0  0  0  0  0  0  0  0  0  0  0
    0.7167   -5.0167    0.0000 C   0  0  0  0  0  0  0  0  0  0  0  0
    1.3417   -4.6667    0.0000 C   0  0  0  0  0  0  0  0  0  0  0  0
    9.4250   -5.0167    0.0000 C   0  0  0  0  0  0  0  0  0  0  0  0
    8.8042   -4.6667    0.0000 C   0  0  0  0  0  0  0  0  0  0  0  0
    6.9417   -5.0167    0.0000 C   0  0  0  0  0  0  0  0  0  0  0  0
    3.2042   -5.0167    0.0000 C   0  0  0  0  0  0  0  0  0  0  0  0
    7.5625   -4.6667    0.0000 C   0  0  0  0  0  0  0  0  0  0  0  0
    2.5792   -4.6667    0.0000 C   0  0  0  0  0  0  0  0  0  0  0  0
    8.1792   -5.0167    0.0000 C   0  0  0  0  0  0  0  0  0  0  0  0
    1.9667   -5.0167    0.0000 C   0  0  0  0  0  0  0  0  0  0  0  0
    5.0750   -4.6667    0.0000 C   0  0  0  0  0  0  0  0  0  0  0  0
    5.6917   -5.0167    0.0000 C   0  0  0  0  0  0  0  0  0  0  0  0
    4.4542   -5.0167    0.0000 C   0  0  0  0  0  0  0  0  0  0  0  0
    6.3125   -4.6667    0.0000 C   0  0  0  0  0  0  0  0  0  0  0  0
    3.8292   -4.6667    0.0000 C   0  0  0  0  0  0  0  0  0  0  0  0
   10.0542   -4.6667    0.0000 C   0  0  0  0  0  0  0  0  0  0  0  0
  2  1  1  0
  3  2  1  0
  4  5  1  0
  5 10  1  0
  6 15  1  0
  7  9  1  0
  8  6  1  0
  9 11  1  0
 10  8  1  0
 11  3  1  0
 12 14  1  0
 13 12  1  0
 14 16  1  0
 15 13  1  0
 16  7  1  0
 17  4  1  0
M  END
> <chembl_id>
CHEMBL706

> <chembl_pref_name>
CETYL ALCOHOL
