
     RDKit          2D

 41 42  0  0  0  0  0  0  0  0999 V2000
    8.8981    0.2062    0.0000 C   0  0  0  0  0  0  0  0  0  0  0  0
    8.1836   -0.2062    0.0000 C   0  0  0  0  0  0  0  0  0  0  0  0
    7.4691    0.2062    0.0000 C   0  0  0  0  0  0  0  0  0  0  0  0
    9.6125   -0.2062    0.0000 C   0  0  0  0  0  0  0  0  0  0  0  0
   10.3270    0.2062    0.0000 O   0  0  0  0  0  0  0  0  0  0  0  0
    9.6125   -1.0313    0.0000 O   0  0  0  0  0  0  0  0  0  0  0  0
    6.7547   -0.2062    0.0000 O   0  0  0  0  0  0  0  0  0  0  0  0
    7.4691    1.0313    0.0000 O   0  0  0  0  0  0  0  0  0  0  0  0
   -3.2259   -0.7375    0.0000 C   0  0  0  0  0  0  0  0  0  0  0  0
   -3.2259    0.0875    0.0000 C   0  0  0  0  0  0  0  0  0  0  0  0
   -2.5115   -1.1500    0.0000 C   0  0  0  0  0  0  0  0  0  0  0  0
   -1.7970   -0.7375    0.0000 C   0  0  0  0  0  0  0  0  0  0  0  0
   -1.7970    0.0875    0.0000 C   0  0  0  0  0  0  0  0  0  0  0  0
   -1.0825    0.5000    0.0000 O   0  0  0  0  0  0  0  0  0  0  0  0
   -2.5115    0.5000    0.0000 C   0  0  0  0  0  0  0  0  0  0  0  0
   -4.6549    0.9125    0.0000 F   0  0  0  0  0  0  0  0  0  0  0  0
   -3.5279    1.2145    0.0000 F   0  0  0  0  0  0  0  0  0  0  0  0
   -4.3529   -0.2145    0.0000 F   0  0  0  0  0  0  0  0  0  0  0  0
   -3.9404    0.5000    0.0000 C   0  0  0  0  0  0  0  0  0  0  0  0
   -0.3681   -0.7375    0.0000 C   0  0  0  0  0  0  0  0  0  0  0  0
   -0.3681    0.0875    0.0000 C   0  0  0  0  0  0  0  0  0  0  0  0
   -1.0825   -1.9750    0.0000 C   0  0  0  0  0  0  0  0  0  0  0  0
   -1.0825   -1.1500    0.0000 O   0  0  0  0  0  0  0  0  0  0  0  0
    0.3464   -1.1500    0.0000 C   0  0  0  0  0  0  0  0  0  0  0  0
    1.0609   -0.7375    0.0000 C   0  0  0  0  0  0  0  0  0  0  0  0
    1.7754   -1.1500    0.0000 N   0  0  0  0  0  0  0  0  0  0  0  0
    1.0609    0.0875    0.0000 C   0  0  0  0  0  0  0  0  0  0  0  0
    1.7754    0.5000    0.0000 N   0  0  0  0  0  0  0  0  0  0  0  0
    0.3464    0.5000    0.0000 C   0  0  0  0  0  0  0  0  0  0  0  0
    0.3464    1.3250    0.0000 C   0  0  0  0  0  0  0  0  0  0  0  0
    1.7754    1.3250    0.0000 C   0  0  0  0  0  0  0  0  0  0  0  0
    2.4898    2.5625    0.0000 C   0  0  0  0  0  0  0  0  0  0  0  0
    2.4898    1.7375    0.0000 O   0  0  0  0  0  0  0  0  0  0  0  0
    1.0609    1.7375    0.0000 C   0  0  0  0  0  0  0  0  0  0  0  0
   -0.3681    1.7375    0.0000 C   0  0  0  0  0  0  0  0  0  0  0  0
    4.6332   -1.1500    0.0000 C   0  0  0  0  0  0  0  0  0  0  0  0
    3.9188   -0.7375    0.0000 C   0  0  0  0  0  0  0  0  0  0  0  0
    3.2043   -1.1500    0.0000 C   0  0  0  0  0  0  0  0  0  0  0  0
    2.4898   -0.7375    0.0000 C   0  0  0  0  0  0  0  0  0  0  0  0
    2.4898    0.0875    0.0000 C   0  0  0  0  0  0  0  0  0  0  0  0
    4.6332   -1.9750    0.0000 N   0  0  0  0  0  0  0  0  0  0  0  0
  1  2  1  0
  2  3  1  0
  1  4  1  0
  4  5  1  0
  4  6  2  0
  3  7  1  0
  3  8  2  0
  9 10  2  0
  9 11  1  0
 10 15  1  0
 10 19  1  0
 11 12  2  0
 13 12  1  0
 13 14  1  0
 15 13  2  0
 19 18  1  0
 19 17  1  0
 19 16  1  0
 20 21  2  0
 20 24  1  0
 21 14  1  0
 23 22  1  0
 23 20  1  0
 24 25  2  0
 25 26  1  0
 25 27  1  0
 26 39  1  0
 27 29  2  0
 28 27  1  0
 28 31  2  0
 29 30  1  0
 29 21  1  0
 30 34  2  0
 31 33  1  0
 33 32  1  0
 34 31  1  0
 35 30  1  0
 36 37  1  0
 36 41  1  0
 38 39  1  0
 38 37  1  0
 40 39  1  0
M  END
> <chembl_id>
CHEMBL2364635

> <chembl_pref_name>
TAFENOQUINE SUCCINATE
