
     RDKit          2D

 36 37  0  0  0  0  0  0  0  0999 V2000
    2.9542   -1.3542    0.0000 Cl  0  0  0  0  0  0  0  0  0  0  0  0
    1.9042    0.4458    0.0000 N   0  0  0  0  0  0  0  0  0  0  0  0
   -1.8458    0.5000    0.0000 N   0  0  0  0  0  0  0  0  0  0  0  0
    2.2792    1.1333    0.0000 C   0  0  0  0  0  0  0  0  0  0  0  0
   -2.2750   -0.1500    0.0000 C   0  0  0  0  0  0  0  0  0  0  0  0
    2.2792   -0.2292    0.0000 C   0  0  0  0  0  0  0  0  0  0  0  0
   -2.2333    1.1750    0.0000 C   0  0  0  0  0  0  0  0  0  0  0  0
    3.0500    1.1333    0.0000 C   0  0  0  0  0  0  0  0  0  0  0  0
   -2.9333   -0.1500    0.0000 C   0  0  0  0  0  0  0  0  0  0  0  0
    3.4542    0.4458    0.0000 C   0  0  0  0  0  0  0  0  0  0  0  0
   -3.3958    0.5000    0.0000 C   0  0  0  0  0  0  0  0  0  0  0  0
   -2.9833    1.1625    0.0000 C   0  0  0  0  0  0  0  0  0  0  0  0
    3.0500   -0.2292    0.0000 C   0  0  0  0  0  0  0  0  0  0  0  0
    1.1375    0.4625    0.0000 C   0  0  0  0  0  0  0  0  0  0  0  0
   -0.8333    0.5000    0.0000 C   0  0  0  0  0  0  0  0  0  0  0  0
    4.2542    0.4458    0.0000 N   0  0  0  0  0  0  0  0  0  0  0  0
   -4.1875    0.5000    0.0000 N   0  0  0  0  0  0  0  0  0  0  0  0
   -1.8458   -0.8042    0.0000 C   0  0  0  0  0  0  0  0  0  0  0  0
    1.9042    1.7958    0.0000 C   0  0  0  0  0  0  0  0  0  0  0  0
   -3.3625   -0.8375    0.0000 C   0  0  0  0  0  0  0  0  0  0  0  0
    3.4542    1.7958    0.0000 C   0  0  0  0  0  0  0  0  0  0  0  0
   -1.9083    1.9000    0.0000 C   0  0  0  0  0  0  0  0  0  0  0  0
    1.8917   -0.9167    0.0000 C   0  0  0  0  0  0  0  0  0  0  0  0
   -0.2750   -0.2292    0.0000 C   0  0  0  0  0  0  0  0  0  0  0  0
    0.5792   -0.2292    0.0000 C   0  0  0  0  0  0  0  0  0  0  0  0
    0.6542   -2.4667    0.0000 C   0  0  0  0  0  0  0  0  0  0  0  0
   -0.2750   -2.4667    0.0000 C   0  0  0  0  0  0  0  0  0  0  0  0
   -0.8625   -1.7417    0.0000 C   0  0  0  0  0  0  0  0  0  0  0  0
   -0.2750   -1.0542    0.0000 C   0  0  0  0  0  0  0  0  0  0  0  0
    0.5792   -1.0292    0.0000 C   0  0  0  0  0  0  0  0  0  0  0  0
    1.2542   -1.6875    0.0000 C   0  0  0  0  0  0  0  0  0  0  0  0
    3.0792    2.4750    0.0000 C   0  0  0  0  0  0  0  0  0  0  0  0
   -2.9583   -1.4917    0.0000 C   0  0  0  0  0  0  0  0  0  0  0  0
    2.2792    2.4750    0.0000 C   0  0  0  0  0  0  0  0  0  0  0  0
   -2.1875   -1.4917    0.0000 C   0  0  0  0  0  0  0  0  0  0  0  0
   -3.5875    2.0250    0.0000 Cl  0  0  0  0  0  0  0  0  0  0  0  0
  3 15  1  0
  4  2  2  0
  5  3  2  0
  6  2  1  0
  7  3  1  0
  8  4  1  0
  9  5  1  0
 10 13  1  0
 11 12  1  0
 12  7  2  0
 13  6  2  0
 14  2  1  0
 15 24  1  0
 16 10  1  0
 17 11  1  0
 18  5  1  0
 19  4  1  0
 20  9  1  0
 21  8  1  0
 22  7  1  0
 23  6  1  0
 24 29  1  0
 25 14  1  0
 26 31  1  0
 27 26  1  0
 28 27  1  0
 29 28  1  0
 30 25  1  0
 31 30  1  0
 32 34  1  0
 33 35  1  0
 34 19  2  0
 35 18  2  0
  8 10  2  0
 21 32  2  0
  9 11  2  0
 20 33  2  0
M  CHG  4   1  -1   2   1   3   1  36  -1
M  END
> <chembl_id>
CHEMBL121663

> <chembl_pref_name>
DEQUALINIUM CHLORIDE
