
     RDKit          2D

 29 32  0  0  0  0  0  0  0  0999 V2000
   -2.8135    3.5404    0.0000 O   0  0  0  0  0  0  0  0  0  0  0  0
   -3.5280    3.1279    0.0000 C   0  0  0  0  0  0  0  0  0  0  0  0
   -3.5280    2.3029    0.0000 C   0  0  0  0  0  0  0  0  0  0  0  0
   -2.8135    1.8904    0.0000 O   0  0  0  0  0  0  0  0  0  0  0  0
   -2.0991    2.3029    0.0000 C   0  0  0  0  0  0  0  0  0  0  0  0
   -2.0991    3.1279    0.0000 C   0  0  0  0  0  0  0  0  0  0  0  0
   -1.3846    1.8903    0.0000 C   0  0  0  0  0  0  0  0  0  0  0  0
   -0.6701    2.3028    0.0000 C   0  0  0  0  0  0  0  0  0  0  0  0
   -0.6701    3.1278    0.0000 C   0  0  0  0  0  0  0  0  0  0  0  0
   -1.3846    3.5403    0.0000 C   0  0  0  0  0  0  0  0  0  0  0  0
    0.0444    1.8903    0.0000 C   0  0  0  0  0  0  0  0  0  0  0  0
    0.7589    2.3028    0.0000 N   0  0  0  0  0  0  0  0  0  0  0  0
    0.7589    3.1278    0.0000 C   0  0  0  0  0  0  0  0  0  0  0  0
    0.0444    3.5403    0.0000 N   0  0  0  0  0  0  0  0  0  0  0  0
    0.0444    1.0653    0.0000 O   0  0  0  0  0  0  0  0  0  0  0  0
    0.7589    0.6528    0.0000 C   0  0  0  0  0  0  0  0  0  0  0  0
    1.4733    1.0653    0.0000 C   0  0  0  0  0  0  0  0  0  0  0  0
    0.7589   -0.1722    0.0000 C   0  0  0  0  0  0  0  0  0  0  0  0
    1.4733   -0.5847    0.0000 C   0  0  0  0  0  0  0  0  0  0  0  0
    2.1878   -0.1722    0.0000 C   0  0  0  0  0  0  0  0  0  0  0  0
    2.1878    0.6528    0.0000 C   0  0  0  0  0  0  0  0  0  0  0  0
    2.9724   -0.4272    0.0000 C   0  0  0  0  0  0  0  0  0  0  0  0
    3.4573    0.2403    0.0000 C   0  0  0  0  0  0  0  0  0  0  0  0
    2.9724    0.9077    0.0000 O   0  0  0  0  0  0  0  0  0  0  0  0
    3.2273   -1.2118    0.0000 C   0  0  0  0  0  0  0  0  0  0  0  0
    4.0342   -1.3833    0.0000 N   0  0  0  0  0  0  0  0  0  0  0  0
    4.2823    0.2402    0.0000 C   0  0  0  0  0  0  0  0  0  0  0  0
    2.7251   -1.8663    0.0000 O   0  0  0  0  0  0  0  0  0  0  0  0
    4.2892   -2.1679    0.0000 C   0  0  0  0  0  0  0  0  0  0  0  0
  1  2  1  0
  3  4  1  0
  4  5  1  0
  5  6  1  0
  1  6  1  0
  7  8  1  0
  8  9  2  0
  9 10  1  0
  5  7  2  0
  6 10  2  0
 11 12  2  0
 12 13  1  0
 13 14  2  0
  8 11  1  0
  9 14  1  0
 15 16  1  0
 16 17  2  0
 11 15  1  0
 18 19  2  0
 19 20  1  0
 20 21  2  0
 16 18  1  0
 17 21  1  0
 22 23  2  0
 23 24  1  0
 20 22  1  0
 21 24  1  0
 25 26  1  0
 22 25  1  0
 23 27  1  0
 25 28  2  0
 26 29  1  0
M  END
> <chembl_id>
CHEMBL4303214

> <chembl_pref_name>
FRUQUINTINIB
