
     RDKit          2D

 21 23  0  0  1  0  0  0  0  0999 V2000
    4.7292  -12.8042    0.0000 S   0  0  0  0  0  0  0  0  0  0  0  0
    3.4792  -11.0917    0.0000 N   0  0  0  0  0  0  0  0  0  0  0  0
    5.5000  -11.7000    0.0000 C   0  0  0  0  0  0  0  0  0  0  0  0
    3.4792  -12.3917    0.0000 C   0  0  0  0  0  0  0  0  0  0  0  0
    4.7042  -10.6792    0.0000 C   0  0  0  0  0  0  0  0  0  0  0  0
    2.1750  -11.0917    0.0000 C   0  0  0  0  0  0  0  0  0  0  0  0
    2.1750  -12.3917    0.0000 C   0  0  0  0  0  0  0  0  0  0  0  0
    8.7042  -10.7500    0.0000 N   0  0  0  0  0  0  0  0  0  0  0  0
    7.6167  -11.4375    0.0000 N   0  0  0  0  0  0  0  0  0  0  0  0
    6.5625  -11.0542    0.0000 C   0  0  0  0  0  0  0  0  0  0  0  0
    5.0542   -9.5792    0.0000 C   0  0  0  0  0  0  0  0  0  0  0  0
    9.6917  -11.5792    0.0000 N   0  0  0  0  0  0  0  0  0  0  0  0
    5.5000  -13.4542    0.0000 O   0  0  0  0  0  0  0  0  0  0  0  0
    4.4375  -13.7000    0.0000 O   0  0  0  0  0  0  0  0  0  0  0  0
    9.2167  -12.7667    0.0000 C   0  0  0  0  0  0  0  0  0  0  0  0
    7.9250  -12.6792    0.0000 C   0  0  0  0  0  0  0  0  0  0  0  0
    1.2542  -10.1667    0.0000 O   0  0  0  0  0  0  0  0  0  0  0  0
    4.3667   -8.3042    0.0000 O   0  0  0  0  0  0  0  0  0  0  0  0
    6.1792  -12.4667    0.0000 C   0  0  0  0  0  0  0  0  0  0  0  0
    6.5875   -9.0792    0.0000 O   0  0  0  0  0  0  0  0  0  0  0  0
    3.5750  -13.7125    0.0000 H   0  0  0  0  0  0  0  0  0  0  0  0
  2  4  1  0
  3  1  1  0
  4  1  1  0
  5  3  1  0
  6  7  1  0
  7  4  1  0
  8  9  1  0
  9 10  1  0
 10  3  1  0
  5 11  1  1
 12  8  2  0
 13  1  2  0
 14  1  2  0
 15 16  2  0
 16  9  1  0
 17  6  2  0
 18 11  2  0
  3 19  1  1
 20 11  1  0
  4 21  1  1
  5  2  1  0
  2  6  1  0
 15 12  1  0
M  END
> <chembl_id>
CHEMBL404

> <chembl_pref_name>
TAZOBACTAM
