
     RDKit          2D

 25 26  0  0  0  0  0  0  0  0999 V2000
    8.2205   -1.8268    0.0000 O   0  0  0  0  0  0  0  0  0  0  0  0
    5.0958   -1.0996    0.0000 C   0  0  0  0  0  0  0  0  0  0  0  0
    5.9208   -1.1000    0.0000 C   0  0  0  0  0  0  0  0  0  0  0  0
    6.1776   -0.3159    0.0000 N   0  0  0  0  0  0  0  0  0  0  0  0
    5.5083    0.1708    0.0000 N   0  0  0  0  0  0  0  0  0  0  0  0
    4.8433   -0.3159    0.0000 C   0  0  0  0  0  0  0  0  0  0  0  0
    4.0585   -0.0613    0.0000 O   0  0  0  0  0  0  0  0  0  0  0  0
    6.4049   -1.7680    0.0000 O   0  0  0  0  0  0  0  0  0  0  0  0
    4.6769   -1.8104    0.0000 C   0  0  0  0  0  0  0  0  0  0  0  0
    3.8519   -1.8030    0.0000 C   0  0  0  0  0  0  0  0  0  0  0  0
    3.4330   -2.5137    0.0000 C   0  0  0  0  0  0  0  0  0  0  0  0
    2.6081   -2.5063    0.0000 C   0  0  0  0  0  0  0  0  0  0  0  0
    5.5107    0.9978    0.0000 C   0  0  0  0  0  0  0  0  0  0  0  0
    6.2262    1.4108    0.0000 C   0  0  0  0  0  0  0  0  0  0  0  0
    6.2253    2.2350    0.0000 C   0  0  0  0  0  0  0  0  0  0  0  0
    5.5096    2.6444    0.0000 C   0  0  0  0  0  0  0  0  0  0  0  0
    4.7934    2.2292    0.0000 C   0  0  0  0  0  0  0  0  0  0  0  0
    4.7978    1.4063    0.0000 C   0  0  0  0  0  0  0  0  0  0  0  0
    6.8849    0.1044    0.0000 C   0  0  0  0  0  0  0  0  0  0  0  0
    7.6035   -0.3031    0.0000 C   0  0  0  0  0  0  0  0  0  0  0  0
    8.3136    0.1154    0.0000 C   0  0  0  0  0  0  0  0  0  0  0  0
    8.3063    0.9412    0.0000 C   0  0  0  0  0  0  0  0  0  0  0  0
    7.5830    1.3468    0.0000 C   0  0  0  0  0  0  0  0  0  0  0  0
    6.8758    0.9260    0.0000 C   0  0  0  0  0  0  0  0  0  0  0  0
    9.0163    1.3613    0.0000 O   0  0  0  0  0  0  0  0  0  0  0  0
  6  7  2  0
 13 14  2  0
 14 15  1  0
  3  8  2  0
 15 16  2  0
  3  4  1  0
 16 17  1  0
  2  9  1  0
 17 18  2  0
 18 13  1  0
  5 13  1  0
  4  5  1  0
  9 10  1  0
 19 20  2  0
  5  6  1  0
 20 21  1  0
 10 11  1  0
 21 22  2  0
  6  2  1  0
 22 23  1  0
 11 12  1  0
 23 24  2  0
 24 19  1  0
  4 19  1  0
  2  3  1  0
 22 25  1  0
M  END
> <chembl_id>
CHEMBL3989676

> <chembl_pref_name>
OXYPHENBUTAZONE
