
     RDKit          2D

 25 24  0  0  0  0  0  0  0  0999 V2000
    5.9667   -6.9375    0.0000 Na  0  0  0  0  0 15  0  0  0  0  0  0
    4.5208   -5.0833    0.0000 C   0  0  0  0  0  0  0  0  0  0  0  0
    4.1583   -4.4708    0.0000 C   0  0  0  0  0  0  0  0  0  0  0  0
    4.8667   -4.4667    0.0000 C   0  0  0  0  0  0  0  0  0  0  0  0
    4.5292   -5.7958    0.0000 C   0  0  0  0  0  0  0  0  0  0  0  0
    3.9167   -6.1542    0.0000 N   0  0  0  0  0  0  0  0  0  0  0  0
    3.9167   -6.8667    0.0000 C   0  0  0  0  0  0  0  0  0  0  0  0
    4.5333   -7.2250    0.0000 C   0  0  0  0  0  0  0  0  0  0  0  0
    0.2125   -8.2875    0.0000 C   0  0  0  0  0  0  0  0  0  0  0  0
   -0.4083   -7.9292    0.0000 C   0  0  0  0  0  0  0  0  0  0  0  0
    5.1458   -6.1417    0.0000 O   0  0  0  0  0  0  0  0  0  0  0  0
    5.1458   -6.8708    0.0000 O   0  0  0  0  0  0  0  0  0  0  0  0
    4.5292   -7.9375    0.0000 O   0  0  0  0  0  0  0  0  0  0  0  0
    0.2125   -9.0000    0.0000 O   0  0  0  0  0  0  0  0  0  0  0  0
    3.2958   -7.2250    0.0000 C   0  0  0  0  0  0  0  0  0  0  0  0
   -1.0208   -8.2875    0.0000 N   0  0  0  0  0  0  0  0  0  0  0  0
    0.8250   -7.9292    0.0000 O   0  0  0  0  0  0  0  0  0  0  0  0
    3.5375   -4.8167    0.0000 C   0  0  0  0  0  0  0  0  0  0  0  0
    3.5375   -4.1125    0.0000 C   0  0  0  0  0  0  0  0  0  0  0  0
    0.2125   -6.8625    0.0000 S   0  0  0  0  0  0  0  0  0  0  0  0
   -0.4083   -7.2167    0.0000 C   0  0  0  0  0  0  0  0  0  0  0  0
    2.6792   -6.8667    0.0000 C   0  0  0  0  0  0  0  0  0  0  0  0
    0.8250   -7.2208    0.0000 C   0  0  0  0  0  0  0  0  0  0  0  0
    2.0625   -7.2208    0.0000 C   0  0  0  0  0  0  0  0  0  0  0  0
    1.4458   -6.8625    0.0000 C   0  0  0  0  0  0  0  0  0  0  0  0
  3  2  1  0
  4  2  1  0
  2  5  1  6
  6  5  1  0
  7  6  1  0
  8  7  1  0
  9 10  1  0
 10 21  1  1
 11  5  2  0
 12  8  1  0
 13  8  2  0
 14  9  2  0
 15  7  2  0
 16 10  1  0
 17  9  1  0
 18  3  1  0
 19  3  1  0
 20 23  1  0
 21 20  1  0
 22 15  1  0
 23 25  1  0
 24 22  1  0
 25 24  1  0
  4  3  1  0
M  CHG  2   1   1  12  -1
M  END
> <chembl_id>
CHEMBL1201057

> <chembl_pref_name>
CILASTATIN SODIUM
