
     RDKit          2D

 15 15  0  0  0  0  0  0  0  0999 V2000
   -4.8938    3.2595    0.0000 C   0  0  0  0  0  0  0  0  0  0  0  0
   -5.7142    3.1733    0.0000 C   0  0  0  0  0  0  0  0  0  0  0  0
   -5.8857    2.3664    0.0000 C   0  0  0  0  0  0  0  0  0  0  0  0
   -5.1713    1.9539    0.0000 N   0  0  0  0  0  0  0  0  0  0  0  0
   -4.5582    2.5059    0.0000 C   0  0  0  0  0  0  0  0  0  0  0  0
   -6.2663    3.7864    0.0000 C   0  0  0  0  0  0  0  0  0  0  0  0
   -7.0632    3.5729    0.0000 C   0  0  0  0  0  0  0  0  0  0  0  0
   -7.6465    4.1562    0.0000 C   0  0  0  0  0  0  0  0  0  0  0  0
   -5.0850    1.1334    0.0000 C   0  0  0  0  0  0  0  0  0  0  0  0
   -4.3314    0.7978    0.0000 C   0  0  0  0  0  0  0  0  0  0  0  0
   -5.7525    0.6485    0.0000 C   0  0  0  0  0  0  0  0  0  0  0  0
   -4.2451   -0.0227    0.0000 O   0  0  0  0  0  0  0  0  0  0  0  0
   -3.6639    1.2827    0.0000 N   0  0  0  0  0  0  0  0  0  0  0  0
   -6.5494    0.8620    0.0000 C   0  0  0  0  0  0  0  0  0  0  0  0
   -3.7512    2.3343    0.0000 O   0  0  0  0  0  0  0  0  0  0  0  0
  1  2  1  0
  1  5  1  0
  2  3  1  0
  3  4  1  0
  4  5  1  0
  2  6  1  6
  6  7  1  0
  7  8  1  0
  9  4  1  6
  9 10  1  0
  9 11  1  0
 10 12  2  0
 10 13  1  0
 11 14  1  0
  5 15  2  0
M  END
> <chembl_id>
CHEMBL607400

> <chembl_pref_name>
BRIVARACETAM
