
     RDKit          2D

 26 29  0  0  0  0  0  0  0  0999 V2000
    3.5250   -4.1125    0.0000 C   0  0  0  0  0  0  0  0  0  0  0  0
    1.6125   -2.9667    0.0000 N   0  0  0  0  0  0  0  0  0  0  0  0
    4.1167   -4.4667    0.0000 C   0  0  0  0  0  0  0  0  0  0  0  0
    2.9167   -4.4417    0.0000 O   0  0  0  0  0  0  0  0  0  0  0  0
    2.2542   -4.0667    0.0000 C   0  0  0  0  0  0  0  0  0  0  0  0
    2.2667   -3.3292    0.0000 C   0  0  0  0  0  0  0  0  0  0  0  0
    3.5250   -3.4042    0.0000 O   0  0  0  0  0  0  0  0  0  0  0  0
    1.6125   -4.4417    0.0000 C   0  0  0  0  0  0  0  0  0  0  0  0
    4.0875   -5.1667    0.0000 C   0  0  0  0  0  0  0  0  0  0  0  0
    4.7375   -4.1292    0.0000 C   0  0  0  0  0  0  0  0  0  0  0  0
    0.9750   -3.3292    0.0000 C   0  0  0  0  0  0  0  0  0  0  0  0
    1.2917   -3.4417    0.0000 C   0  0  0  0  0  0  0  0  0  0  0  0
    0.9750   -4.0667    0.0000 C   0  0  0  0  0  0  0  0  0  0  0  0
    1.8167   -3.8292    0.0000 C   0  0  0  0  0  0  0  0  0  0  0  0
    4.7917   -4.8542    0.0000 O   0  0  0  0  0  0  0  0  0  0  0  0
    1.6125   -2.2375    0.0000 C   0  0  0  0  0  0  0  0  0  0  0  0
    3.4625   -5.4875    0.0000 C   0  0  0  0  0  0  0  0  0  0  0  0
    4.6917   -5.5417    0.0000 C   0  0  0  0  0  0  0  0  0  0  0  0
    4.7417   -3.4250    0.0000 C   0  0  0  0  0  0  0  0  0  0  0  0
    5.3375   -4.5167    0.0000 C   0  0  0  0  0  0  0  0  0  0  0  0
    5.3750   -3.0917    0.0000 C   0  0  0  0  0  0  0  0  0  0  0  0
    5.9750   -4.1667    0.0000 C   0  0  0  0  0  0  0  0  0  0  0  0
    3.4417   -6.2167    0.0000 C   0  0  0  0  0  0  0  0  0  0  0  0
    4.6625   -6.2417    0.0000 C   0  0  0  0  0  0  0  0  0  0  0  0
    4.0250   -6.5750    0.0000 C   0  0  0  0  0  0  0  0  0  0  0  0
    5.9917   -3.4750    0.0000 C   0  0  0  0  0  0  0  0  0  0  0  0
  2  6  1  0
  3  1  1  0
  4  1  1  0
  5  4  1  0
  6  5  1  0
  7  1  2  0
  8  5  1  0
  9  3  1  0
 10  3  1  0
 11 13  1  0
 12 14  1  0
 13  8  1  0
 14  8  1  0
 15  3  1  0
 16  2  1  0
 17  9  2  0
 18  9  1  0
 19 10  1  0
 20 10  2  0
 21 19  2  0
 22 20  1  0
 23 17  1  0
 24 18  2  0
 25 24  1  0
 26 21  1  0
 11  2  1  0
 12  2  1  0
 26 22  2  0
 25 23  2  0
M  CHG  1   2   1
M  END
> <chembl_id>
CHEMBL620

> <chembl_pref_name>
CLIDINIUM
