
     RDKit          2D

 15 15  0  0  0  0  0  0  0  0999 V2000
    0.5750    0.5583    0.0000 C   0  0  0  0  0  0  0  0  0  0  0  0
   -3.1750    0.6000    0.0000 C   0  0  0  0  0  0  0  0  0  0  0  0
    0.5875   -0.5000    0.0000 C   0  0  0  0  0  0  0  0  0  0  0  0
   -0.3375    1.0958    0.0000 C   0  0  0  0  0  0  0  0  0  0  0  0
   -1.2833    0.5625    0.0000 C   0  0  0  0  0  0  0  0  0  0  0  0
   -3.1625   -0.5000    0.0000 O   0  0  0  0  0  0  0  0  0  0  0  0
   -2.2125    1.1208    0.0000 C   0  0  0  0  0  0  0  0  0  0  0  0
   -0.3458   -1.0417    0.0000 C   0  0  0  0  0  0  0  0  0  0  0  0
    3.4000   -1.0667    0.0000 C   0  0  0  0  0  0  0  0  0  0  0  0
    4.3417   -0.5375    0.0000 C   0  0  0  0  0  0  0  0  0  0  0  0
    1.5250    1.0958    0.0000 Cl  0  0  0  0  0  0  0  0  0  0  0  0
   -1.2833   -0.5375    0.0000 C   0  0  0  0  0  0  0  0  0  0  0  0
   -4.1458    1.1458    0.0000 O   0  0  0  0  0  0  0  0  0  0  0  0
    1.5375   -1.0417    0.0000 O   0  0  0  0  0  0  0  0  0  0  0  0
    2.4625   -0.5250    0.0000 C   0  0  0  0  0  0  0  0  0  0  0  0
  2  7  1  0
  3  1  1  0
  4  1  2  0
  5  4  1  0
  6  2  2  0
  7  5  1  0
  8  3  2  0
  9 15  1  0
 10  9  2  0
 11  1  1  0
 12  5  2  0
 13  2  1  0
 14  3  1  0
 15 14  1  0
  8 12  1  0
M  END
> <chembl_id>
CHEMBL94081

> <chembl_pref_name>
ALCLOFENAC
