
     RDKit          2D

 19 17  0  0  0  0  0  0  0  0999 V2000
    3.9160   -2.0848    0.0000 Cl  0  0  0  0  0  0  0  0  0  0  0  0
    1.8876   -0.9015    0.0000 Cl  0  0  0  0  0  0  0  0  0  0  0  0
    4.9793   -1.6257    0.0000 O   0  0  0  0  0  0  0  0  0  0  0  0
    2.1214    0.8493    0.0000 O   0  0  0  0  0  0  0  0  0  0  0  0
    2.8359    2.0868    0.0000 O   0  0  0  0  0  0  0  0  0  0  0  0
    4.2648    0.4368    0.0000 N   0  0  0  0  0  0  0  0  0  0  0  0
    6.4083   -0.8007    0.0000 N   0  0  0  0  0  0  0  0  0  0  0  0
    4.2648   -0.3882    0.0000 C   0  0  0  0  0  0  0  0  0  0  0  0
    3.5504    0.8493    0.0000 C   0  0  0  0  0  0  0  0  0  0  0  0
    4.9793   -0.8007    0.0000 C   0  0  0  0  0  0  0  0  0  0  0  0
    2.8359    0.4368    0.0000 C   0  0  0  0  0  0  0  0  0  0  0  0
    3.5504   -0.8007    0.0000 C   0  0  0  0  0  0  0  0  0  0  0  0
    2.8359   -0.3882    0.0000 C   0  0  0  0  0  0  0  0  0  0  0  0
    5.6938   -0.3882    0.0000 C   0  0  0  0  0  0  0  0  0  0  0  0
    7.1227   -0.3882    0.0000 C   0  0  0  0  0  0  0  0  0  0  0  0
    3.5504    1.6743    0.0000 C   0  0  0  0  0  0  0  0  0  0  0  0
    7.8372    0.0243    0.0000 C   0  0  0  0  0  0  0  0  0  0  0  0
    7.5352   -1.1027    0.0000 C   0  0  0  0  0  0  0  0  0  0  0  0
    6.7102    0.3262    0.0000 C   0  0  0  0  0  0  0  0  0  0  0  0
  3 10  1  0
  4 11  1  0
  5 16  1  0
  6  8  1  0
  6  9  2  0
  7 14  1  0
  7 15  1  0
  8 10  1  0
  8 12  2  0
  9 11  1  0
  9 16  1  0
 10 14  1  0
 11 13  2  0
 12 13  1  0
 15 17  1  0
 15 18  1  0
 15 19  1  0
M  END
> <chembl_id>
CHEMBL3989646

> <chembl_pref_name>
PIRBUTEROL HYDROCHLORIDE
