
     RDKit          2D

 56 56  0  0  0  0  0  0  0  0999 V2000
    0.7333   -4.2500    0.0000 C   0  0  0  0  0  0  0  0  0  0  0  0
    1.3500   -4.6083    0.0000 C   0  0  0  0  0  0  0  0  0  0  0  0
    0.1167   -4.6125    0.0000 C   0  0  0  0  0  0  0  0  0  0  0  0
    1.9625   -4.2500    0.0000 C   0  0  0  0  0  0  0  0  0  0  0  0
    0.7292   -3.5375    0.0000 O   0  0  0  0  0  0  0  0  0  0  0  0
    1.3500   -5.3208    0.0000 O   0  0  0  0  0  0  0  0  0  0  0  0
   -1.1125   -4.6125    0.0000 N   0  0  0  0  0  0  0  0  0  0  0  0
    0.1167   -5.3250    0.0000 O   0  0  0  0  0  0  0  0  0  0  0  0
    1.9583   -3.5375    0.0000 O   0  0  0  0  0  0  0  0  0  0  0  0
   -0.4958   -4.2542    0.0000 C   0  0  0  0  0  0  0  0  0  0  0  0
    3.1875   -4.2417    0.0000 O   0  0  0  0  0  0  0  0  0  0  0  0
    2.5792   -4.6042    0.0000 C   0  0  0  0  0  0  0  0  0  0  0  0
   -1.7250   -4.2583    0.0000 C   0  0  0  0  0  0  0  0  0  0  0  0
    3.2333   -0.1125    0.0000 C   0  0  0  0  0  0  0  0  0  0  0  0
    2.6333   -1.1917    0.0000 C   0  0  0  0  0  0  0  0  0  0  0  0
    3.8667   -1.2000    0.0000 C   0  0  0  0  0  0  0  0  0  0  0  0
   -1.6667   -0.1083    0.0000 C   0  0  0  0  0  0  0  0  0  0  0  0
   -2.3000   -1.1792    0.0000 C   0  0  0  0  0  0  0  0  0  0  0  0
   -1.0500   -1.1792    0.0000 C   0  0  0  0  0  0  0  0  0  0  0  0
    3.8667   -0.4708    0.0000 C   0  0  0  0  0  0  0  0  0  0  0  0
    2.6333   -0.4708    0.0000 C   0  0  0  0  0  0  0  0  0  0  0  0
   -1.0500   -0.4625    0.0000 C   0  0  0  0  0  0  0  0  0  0  0  0
   -1.6667   -1.5208    0.0000 C   0  0  0  0  0  0  0  0  0  0  0  0
    3.2333   -1.5333    0.0000 C   0  0  0  0  0  0  0  0  0  0  0  0
   -2.3000   -0.4417    0.0000 C   0  0  0  0  0  0  0  0  0  0  0  0
    3.2500    0.5667    0.0000 N   0  0  0  0  0  0  0  0  0  0  0  0
    2.0125   -1.5333    0.0000 C   0  0  0  0  0  0  0  0  0  0  0  0
    4.4792   -1.5708    0.0000 C   0  0  0  0  0  0  0  0  0  0  0  0
   -1.6583    0.6167    0.0000 C   0  0  0  0  0  0  0  0  0  0  0  0
   -2.9250   -1.5208    0.0000 C   0  0  0  0  0  0  0  0  0  0  0  0
   -0.4417   -1.5208    0.0000 N   0  0  0  0  0  0  0  0  0  0  0  0
    2.6417    0.9333    0.0000 C   0  0  0  0  0  0  0  0  0  0  0  0
    0.1917   -1.1792    0.0000 C   0  0  0  0  0  0  0  0  0  0  0  0
    1.3750   -1.1917    0.0000 N   0  0  0  0  0  0  0  0  0  0  0  0
    2.0125   -2.2583    0.0000 O   0  0  0  0  0  0  0  0  0  0  0  0
    4.4792   -2.2625    0.0000 O   0  0  0  0  0  0  0  0  0  0  0  0
   -2.2708    0.9792    0.0000 O   0  0  0  0  0  0  0  0  0  0  0  0
   -2.9250   -2.2125    0.0000 O   0  0  0  0  0  0  0  0  0  0  0  0
    2.6417    1.6375    0.0000 O   0  0  0  0  0  0  0  0  0  0  0  0
    3.2333   -2.2625    0.0000 I   0  0  0  0  0  0  0  0  0  0  0  0
   -1.6833   -2.2125    0.0000 I   0  0  0  0  0  0  0  0  0  0  0  0
    2.0292   -0.1125    0.0000 I   0  0  0  0  0  0  0  0  0  0  0  0
    4.4917   -0.1292    0.0000 I   0  0  0  0  0  0  0  0  0  0  0  0
   -0.4333   -0.1125    0.0000 I   0  0  0  0  0  0  0  0  0  0  0  0
   -2.9083   -0.0833    0.0000 I   0  0  0  0  0  0  0  0  0  0  0  0
    0.1917   -0.4625    0.0000 O   0  0  0  0  0  0  0  0  0  0  0  0
    5.1125   -1.2000    0.0000 N   0  0  0  0  0  0  0  0  0  0  0  0
   -1.0542    0.9667    0.0000 N   0  0  0  0  0  0  0  0  0  0  0  0
    0.8000   -1.5333    0.0000 C   0  0  0  0  0  0  0  0  0  0  0  0
   -3.5333   -1.1542    0.0000 O   0  0  0  0  0  0  0  0  0  0  0  0
    3.8667    0.9333    0.0000 C   0  0  0  0  0  0  0  0  0  0  0  0
    2.0292    0.5917    0.0000 C   0  0  0  0  0  0  0  0  0  0  0  0
    0.7792    0.5958    0.0000 O   0  0  0  0  0  0  0  0  0  0  0  0
   -0.4208    0.6083    0.0000 C   0  0  0  0  0  0  0  0  0  0  0  0
    5.7167   -1.5708    0.0000 C   0  0  0  0  0  0  0  0  0  0  0  0
    0.1708    0.9583    0.0000 C   0  0  0  0  0  0  0  0  0  0  0  0
  2  1  1  0
  3  1  1  0
  4  2  1  0
  1  5  1  1
  2  6  1  1
  7 10  1  0
  3  8  1  1
  4  9  1  6
 10  3  1  0
 11 12  1  0
 12  4  1  0
 13  7  1  0
 15 21  1  0
 16 20  2  0
 17 22  1  0
 18 23  2  0
 19 31  1  0
 20 14  1  0
 21 14  2  0
 22 19  2  0
 23 19  1  0
 24 16  1  0
 25 18  1  0
 26 14  1  0
 27 15  1  0
 28 16  1  0
 29 17  1  0
 30 18  1  0
 31 33  1  0
 32 26  1  0
 33 49  1  0
 34 27  1  0
 35 27  2  0
 36 28  2  0
 37 29  2  0
 38 30  2  0
 39 32  2  0
 40 24  1  0
 41 23  1  0
 42 21  1  0
 43 20  1  0
 44 22  1  0
 45 25  1  0
 46 33  2  0
 47 28  1  0
 48 29  1  0
 49 34  1  0
 50 30  1  0
 51 26  1  0
 52 32  1  0
 53 56  1  0
 54 48  1  0
 55 47  1  0
 56 54  1  0
 24 15  2  0
 25 17  2  0
M  END
> <chembl_id>
CHEMBL1200508

> <chembl_pref_name>
IOXAGLATE MEGLUMINE
