
     RDKit          2D

 20 19  0  0  0  0  0  0  0  0999 V2000
    4.1750   -7.7125    0.0000 Cl  0  0  0  0  0  0  0  0  0  0  0  0
    4.6875   -4.5292    0.0000 C   0  0  0  0  0  0  0  0  0  0  0  0
    4.6875   -5.3542    0.0000 C   0  0  0  0  0  0  0  0  0  0  0  0
    3.2542   -4.5292    0.0000 N   0  0  0  0  0  0  0  0  0  0  0  0
    3.9750   -5.7667    0.0000 N   0  0  0  0  0  0  0  0  0  0  0  0
    3.9750   -4.1167    0.0000 C   0  0  0  0  0  0  0  0  0  0  0  0
    5.4042   -4.1167    0.0000 N   0  0  0  0  0  0  0  0  0  0  0  0
    3.2542   -5.3542    0.0000 C   0  0  0  0  0  0  0  0  0  0  0  0
    6.1167   -4.5292    0.0000 C   0  0  0  0  0  0  0  0  0  0  0  0
    5.4042   -5.7667    0.0000 N   0  0  0  0  0  0  0  0  0  0  0  0
    6.8292   -4.1167    0.0000 C   0  0  0  0  0  0  0  0  0  0  0  0
    6.1167   -5.3542    0.0000 C   0  0  0  0  0  0  0  0  0  0  0  0
    3.9750   -3.2917    0.0000 O   0  0  0  0  0  0  0  0  0  0  0  0
    2.5417   -5.7667    0.0000 N   0  0  0  0  0  0  0  0  0  0  0  0
    7.5417   -4.5292    0.0000 C   0  0  0  0  0  0  0  0  0  0  0  0
    6.8292   -3.2917    0.0000 O   0  0  0  0  0  0  0  0  0  0  0  0
    7.5417   -5.3542    0.0000 O   0  0  0  0  0  0  0  0  0  0  0  0
    8.2625   -4.1167    0.0000 C   0  0  0  0  0  0  0  0  0  0  0  0
    6.1167   -3.7042    0.0000 H   0  0  0  0  0  0  0  0  0  0  0  0
    7.8875   -7.6500    0.0000 Cl  0  0  0  0  0  0  0  0  0  0  0  0
  3  2  2  0
  4  6  1  0
  5  3  1  0
  6  2  1  0
  7  2  1  0
  8  4  2  0
  9  7  1  0
 10  3  1  0
 11  9  1  0
 12  9  1  0
 13  6  2  0
 14  8  1  0
 15 11  1  0
 11 16  1  1
 15 17  1  6
 18 15  1  0
  9 19  1  6
 10 12  1  0
  8  5  1  0
M  END
> <chembl_id>
CHEMBL1201775

> <chembl_pref_name>
SAPROPTERIN DIHYDROCHLORIDE
