
     RDKit          2D

 16 16  0  0  0  0  0  0  0  0999 V2000
   -0.1250    0.0458    0.0000 C   0  0  0  0  0  0  0  0  0  0  0  0
    3.2417   -0.3167    0.0000 N   0  0  0  0  0  0  0  0  0  0  0  0
    0.5417   -0.3417    0.0000 O   0  0  0  0  0  0  0  0  0  0  0  0
    2.5667    0.0583    0.0000 C   0  0  0  0  0  0  0  0  0  0  0  0
    1.9000   -0.3250    0.0000 C   0  0  0  0  0  0  0  0  0  0  0  0
   -0.7833   -0.3417    0.0000 N   0  0  0  0  0  0  0  0  0  0  0  0
   -0.1333    0.8083    0.0000 O   0  0  0  0  0  0  0  0  0  0  0  0
    1.2167    0.0458    0.0000 C   0  0  0  0  0  0  0  0  0  0  0  0
    2.8042   -0.9542    0.0000 C   0  0  0  0  0  0  0  0  0  0  0  0
    3.8417   -0.8167    0.0000 C   0  0  0  0  0  0  0  0  0  0  0  0
    3.7917    0.2208    0.0000 C   0  0  0  0  0  0  0  0  0  0  0  0
    2.5667    0.8375    0.0000 C   0  0  0  0  0  0  0  0  0  0  0  0
    1.8792    1.2208    0.0000 C   0  0  0  0  0  0  0  0  0  0  0  0
   -1.4625    0.0458    0.0000 C   0  0  0  0  0  0  0  0  0  0  0  0
   -0.7750   -1.1167    0.0000 C   0  0  0  0  0  0  0  0  0  0  0  0
    1.2167    0.8250    0.0000 C   0  0  0  0  0  0  0  0  0  0  0  0
  2  4  1  0
  3  1  1  0
  4  5  1  0
  5  8  2  0
  6  1  1  0
  7  1  2  0
  8  3  1  0
  9  2  1  0
 10  2  1  0
 11  2  1  0
 12 13  1  0
 13 16  2  0
 14  6  1  0
 15  6  1  0
 16  8  1  0
  4 12  2  0
M  CHG  1   2   1
M  END
> <chembl_id>
CHEMBL278020

> <chembl_pref_name>
NEOSTIGMINE
