
     RDKit          2D

 39 42  0  0  0  0  0  0  0  0999 V2000
   -3.1364   -1.0646    0.0000 C   0  0  0  0  0  0  0  0  0  0  0  0
   -3.8508   -1.4771    0.0000 C   0  0  0  0  0  0  0  0  0  0  0  0
   -3.8508   -2.3021    0.0000 C   0  0  0  0  0  0  0  0  0  0  0  0
   -3.1364   -2.7146    0.0000 C   0  0  0  0  0  0  0  0  0  0  0  0
   -2.4219   -2.3021    0.0000 C   0  0  0  0  0  0  0  0  0  0  0  0
   -2.4219   -1.4771    0.0000 C   0  0  0  0  0  0  0  0  0  0  0  0
   -1.7074   -2.7146    0.0000 C   0  0  0  0  0  0  0  0  0  0  0  0
   -0.9929   -2.3022    0.0000 C   0  0  0  0  0  0  0  0  0  0  0  0
   -0.9929   -1.4772    0.0000 C   0  0  0  0  0  0  0  0  0  0  0  0
   -1.7074   -1.0646    0.0000 C   0  0  0  0  0  0  0  0  0  0  0  0
   -1.7074   -0.2396    0.0000 C   0  0  0  0  0  0  0  0  0  0  0  0
   -0.9929    0.1729    0.0000 C   0  0  0  0  0  0  0  0  0  0  0  0
   -0.2785   -0.2396    0.0000 C   0  0  0  0  0  0  0  0  0  0  0  0
   -0.2785   -1.0646    0.0000 C   0  0  0  0  0  0  0  0  0  0  0  0
    0.5062   -1.3196    0.0000 C   0  0  0  0  0  0  0  0  0  0  0  0
    0.9911   -0.6521    0.0000 C   0  0  0  0  0  0  0  0  0  0  0  0
    0.5062    0.0153    0.0000 C   0  0  0  0  0  0  0  0  0  0  0  0
   -4.5653   -2.7146    0.0000 O   0  0  0  0  0  0  0  0  0  0  0  0
   -2.3787   -3.1260    0.0000 H   0  0  0  0  0  0  0  0  0  0  0  0
   -2.4219   -0.6521    0.0000 C   0  0  0  0  0  0  0  0  0  0  0  0
   -1.7074   -1.8896    0.0000 H   0  0  0  0  0  0  0  0  0  0  0  0
   -0.9929   -0.6522    0.0000 H   0  0  0  0  0  0  0  0  0  0  0  0
   -0.4409   -2.9153    0.0000 O   0  0  0  0  0  0  0  0  0  0  0  0
   -0.2353   -1.8885    0.0000 H   0  0  0  0  0  0  0  0  0  0  0  0
   -0.3216    0.5842    0.0000 C   0  0  0  0  0  0  0  0  0  0  0  0
    0.5722    0.9658    0.0000 C   0  0  0  0  0  0  0  0  0  0  0  0
    1.3008   -0.0485    0.0000 H   0  0  0  0  0  0  0  0  0  0  0  0
   -0.0570    1.5292    0.0000 C   0  0  0  0  0  0  0  0  0  0  0  0
    1.3746    1.3224    0.0000 C   0  0  0  0  0  0  0  0  0  0  0  0
    2.0711    0.8803    0.0000 C   0  0  0  0  0  0  0  0  0  0  0  0
    2.8022    1.2625    0.0000 C   0  0  0  0  0  0  0  0  0  0  0  0
    2.8368    2.0868    0.0000 O   0  0  0  0  0  0  0  0  0  0  0  0
    3.4988    0.8205    0.0000 N   0  0  0  0  0  0  0  0  0  0  0  0
    4.2299    1.2027    0.0000 C   0  0  0  0  0  0  0  0  0  0  0  0
    4.9265    0.7606    0.0000 C   0  0  0  0  0  0  0  0  0  0  0  0
    5.6576    1.1429    0.0000 S   0  0  0  0  0  0  0  0  0  0  0  0
    6.3887    1.5251    0.0000 O   0  0  0  0  0  0  0  0  0  0  0  0
    6.0398    0.4117    0.0000 O   0  0  0  0  0  0  0  0  0  0  0  0
    5.2754    1.8740    0.0000 O   0  0  0  0  0  0  0  0  0  0  0  0
  1  2  1  0
  2  3  1  0
  3  4  1  0
  4  5  1  0
  5  6  1  0
  1  6  1  0
  7  8  1  0
  8  9  1  0
  9 10  1  0
  5  7  1  0
  6 10  1  0
 11 12  1  0
 12 13  1  0
 13 14  1  0
  9 14  1  0
 10 11  1  0
 15 16  1  0
 16 17  1  0
 13 17  1  0
 14 15  1  0
  3 18  1  6
  5 19  1  1
  6 20  1  1
 10 21  1  6
  9 22  1  1
  8 23  1  1
 14 24  1  6
 13 25  1  1
 17 26  1  0
 17 27  1  6
 26 28  1  6
 26 29  1  0
 29 30  1  0
 30 31  1  0
 31 32  2  0
 31 33  1  0
 33 34  1  0
 34 35  1  0
 35 36  1  0
 36 37  2  0
 36 38  1  0
 36 39  2  0
M  END
> <chembl_id>
CHEMBL272427

> <chembl_pref_name>
TAURURSODIOL
