
     RDKit          2D

 30 33  0  0  1  0  0  0  0  0999 V2000
    0.1542    1.2083    0.0000 N   0  0  0  0  0  0  0  0  0  0  0  0
    0.4000    0.5625    0.0000 C   0  0  0  0  0  0  0  0  0  0  0  0
   -0.4958    0.9708    0.0000 C   0  0  0  0  0  0  0  0  0  0  0  0
   -0.2500    0.3333    0.0000 C   0  0  0  0  0  0  0  0  0  0  0  0
   -2.1875   -0.2292    0.0000 C   0  0  0  0  0  0  0  0  0  0  0  0
   -2.8833   -0.1167    0.0000 C   0  0  0  0  0  0  0  0  0  0  0  0
    0.7042    1.6500    0.0000 C   0  0  0  0  0  0  0  0  0  0  0  0
    1.0917    0.6125    0.0000 S   0  0  0  0  0  0  0  0  0  0  0  0
   -1.7000    0.2583    0.0000 C   0  0  0  0  0  0  0  0  0  0  0  0
   -3.1958   -0.7167    0.0000 N   0  0  0  0  0  0  0  0  0  0  0  0
    1.2792    1.2583    0.0000 C   0  0  0  0  0  0  0  0  0  0  0  0
   -1.1333    0.2583    0.0000 N   0  0  0  0  0  0  0  0  0  0  0  0
   -3.2000    0.4500    0.0000 C   0  0  0  0  0  0  0  0  0  0  0  0
   -2.7083   -1.2000    0.0000 O   0  0  0  0  0  0  0  0  0  0  0  0
   -2.0875   -0.9125    0.0000 C   0  0  0  0  0  0  0  0  0  0  0  0
    1.1375    2.5083    0.0000 C   0  0  0  0  0  0  0  0  0  0  0  0
   -1.0833    1.2583    0.0000 O   0  0  0  0  0  0  0  0  0  0  0  0
   -1.9958    0.7208    0.0000 O   0  0  0  0  0  0  0  0  0  0  0  0
   -3.9458    0.4625    0.0000 C   0  0  0  0  0  0  0  0  0  0  0  0
    1.7917    2.4458    0.0000 O   0  0  0  0  0  0  0  0  0  0  0  0
    0.8375    3.1250    0.0000 O   0  0  0  0  0  0  0  0  0  0  0  0
   -4.2583   -0.1417    0.0000 Cl  0  0  0  0  0  0  0  0  0  0  0  0
    1.9500    1.0833    0.0000 C   0  0  0  0  0  0  0  0  0  0  0  0
    1.7000    1.8083    0.0000 C   0  0  0  0  0  0  0  0  0  0  0  0
   -2.8500    1.0208    0.0000 C   0  0  0  0  0  0  0  0  0  0  0  0
   -1.4958   -1.2167    0.0000 C   0  0  0  0  0  0  0  0  0  0  0  0
   -4.2250    1.0458    0.0000 C   0  0  0  0  0  0  0  0  0  0  0  0
   -3.2000    1.6083    0.0000 C   0  0  0  0  0  0  0  0  0  0  0  0
   -3.8833    1.6208    0.0000 C   0  0  0  0  0  0  0  0  0  0  0  0
    0.6041   -0.4164    0.0000 H   0  0  0  0  0  0  0  0  0  0  0  0
  2  1  1  0
  3  1  1  0
  4  3  1  0
  5  9  1  0
  6  5  1  0
  7  1  1  0
  8  2  1  0
  9 12  1  0
 10  6  2  0
 11  7  1  0
  4 12  1  6
 13  6  1  0
 14 15  1  0
 15  5  2  0
  7 16  1  1
 17  3  2  0
 18  9  2  0
 19 13  2  0
 20 16  1  0
 21 16  2  0
 22 19  1  0
 23 11  1  0
 24 11  1  0
 25 13  1  0
 26 15  1  0
 27 19  1  0
 28 25  2  0
 29 28  1  0
  8 11  1  0
  2  4  1  0
 10 14  1  0
 27 29  2  0
  2 30  1  1
M  END
> <chembl_id>
CHEMBL891

> <chembl_pref_name>
CLOXACILLIN
