
     RDKit          2D

 27 28  0  0  1  0  0  0  0  0999 V2000
   -1.5708   -0.2000    0.0000 C   0  0  0  0  0  0  0  0  0  0  0  0
   -0.8458   -0.2167    0.0000 C   0  0  0  0  0  0  0  0  0  0  0  0
   -0.6333   -0.9167    0.0000 C   0  0  0  0  0  0  0  0  0  0  0  0
   -1.7958    0.5083    0.0000 O   0  0  0  0  0  0  0  0  0  0  0  0
   -0.0125   -1.2792    0.0000 C   0  0  0  0  0  0  0  0  0  0  0  0
   -1.8250   -0.8792    0.0000 C   0  0  0  0  0  0  0  0  0  0  0  0
   -1.1833    0.9208    0.0000 C   0  0  0  0  0  0  0  0  0  0  0  0
   -1.2333   -1.3292    0.0000 C   0  0  0  0  0  0  0  0  0  0  0  0
   -0.5833    0.4583    0.0000 C   0  0  0  0  0  0  0  0  0  0  0  0
    0.6125   -0.9167    0.0000 C   0  0  0  0  0  0  0  0  0  0  0  0
   -3.6458    1.7208    0.0000 C   0  0  0  0  0  0  0  0  0  0  0  0
   -1.1583    1.6458    0.0000 C   0  0  0  0  0  0  0  0  0  0  0  0
   -3.6708    1.0083    0.0000 O   0  0  0  0  0  0  0  0  0  0  0  0
   -1.2458   -2.0500    0.0000 O   0  0  0  0  0  0  0  0  0  0  0  0
   -4.2583    2.1000    0.0000 O   0  0  0  0  0  0  0  0  0  0  0  0
    1.2292   -1.2792    0.0000 C   0  0  0  0  0  0  0  0  0  0  0  0
    1.2292   -2.0000    0.0000 O   0  0  0  0  0  0  0  0  0  0  0  0
   -3.0125    2.0625    0.0000 C   0  0  0  0  0  0  0  0  0  0  0  0
   -1.7708    2.0208    0.0000 C   0  0  0  0  0  0  0  0  0  0  0  0
    1.8542   -0.9292    0.0000 C   0  0  0  0  0  0  0  0  0  0  0  0
   -2.4000    1.6833    0.0000 C   0  0  0  0  0  0  0  0  0  0  0  0
    3.7167   -1.2917    0.0000 C   0  0  0  0  0  0  0  0  0  0  0  0
    2.4792   -1.2875    0.0000 C   0  0  0  0  0  0  0  0  0  0  0  0
    3.1000   -0.9292    0.0000 C   0  0  0  0  0  0  0  0  0  0  0  0
    4.3417   -0.9375    0.0000 C   0  0  0  0  0  0  0  0  0  0  0  0
   -0.1708    0.0333    0.0000 H   0  0  0  0  0  0  0  0  0  0  0  0
   -2.1958   -0.5542    0.0000 H   0  0  0  0  0  0  0  0  0  0  0  0
  2  1  1  0
  3  2  1  0
  4  1  1  0
  3  5  1  1
  6  1  1  0
  7  4  1  0
  8  6  1  0
  9  2  1  0
 10  5  2  0
 11 18  1  0
 12  7  2  0
 13 11  2  0
  8 14  1  6
 15 11  1  0
 16 10  1  0
 16 17  1  6
 18 21  1  0
 19 12  1  0
 20 16  1  0
 21 19  1  0
 22 24  1  0
 23 20  1  0
 24 23  1  0
 25 22  1  0
  2 26  1  1
  1 27  1  1
  3  8  1  0
  9  7  1  0
M  END
> <chembl_id>
CHEMBL1139

> <chembl_pref_name>
EPOPROSTENOL
