
     RDKit          2D

 33 34  0  0  0  0  0  0  0  0999 V2000
    6.5262   -7.0501    0.0000 C   0  0  0  0  0  0  0  0  0  0  0  0
    5.0981   -7.0501    0.0000 S   0  0  0  0  0  0  0  0  0  0  0  0
    7.2402   -6.6400    0.0000 N   0  0  0  0  0  0  0  0  0  0  0  0
    6.5262   -7.8847    0.0000 N   0  0  0  0  0  0  0  0  0  0  0  0
    5.8122   -6.6400    0.0000 N   0  0  0  0  0  0  0  0  0  0  0  0
    7.9542   -7.8847    0.0000 C   0  0  0  0  0  0  0  0  0  0  0  0
    7.9542   -7.0501    0.0000 C   0  0  0  0  0  0  0  0  0  0  0  0
    7.2402   -8.2948    0.0000 C   0  0  0  0  0  0  0  0  0  0  0  0
    8.6730   -8.2948    0.0000 C   0  0  0  0  0  0  0  0  0  0  0  0
   12.9572   -8.2803    0.0000 C   0  0  0  0  0  0  0  0  0  0  0  0
   12.2432   -7.8655    0.0000 C   0  0  0  0  0  0  0  0  0  0  0  0
    5.5082   -7.7642    0.0000 O   0  0  0  0  0  0  0  0  0  0  0  0
    4.6832   -7.7642    0.0000 O   0  0  0  0  0  0  0  0  0  0  0  0
    8.6634   -6.6352    0.0000 C   0  0  0  0  0  0  0  0  0  0  0  0
    9.3822   -7.8800    0.0000 C   0  0  0  0  0  0  0  0  0  0  0  0
   13.6712   -7.8606    0.0000 O   0  0  0  0  0  0  0  0  0  0  0  0
   12.9620   -9.1053    0.0000 O   0  0  0  0  0  0  0  0  0  0  0  0
   11.5292   -8.2852    0.0000 C   0  0  0  0  0  0  0  0  0  0  0  0
   10.8104   -7.8702    0.0000 C   0  0  0  0  0  0  0  0  0  0  0  0
    7.2450   -9.1198    0.0000 C   0  0  0  0  0  0  0  0  0  0  0  0
    9.3775   -7.0452    0.0000 C   0  0  0  0  0  0  0  0  0  0  0  0
    8.6586   -5.8150    0.0000 C   0  0  0  0  0  0  0  0  0  0  0  0
    4.3793   -6.6400    0.0000 C   0  0  0  0  0  0  0  0  0  0  0  0
   10.0867   -5.8103    0.0000 C   0  0  0  0  0  0  0  0  0  0  0  0
   10.0963   -8.2900    0.0000 C   0  0  0  0  0  0  0  0  0  0  0  0
    5.8122   -5.8150    0.0000 C   0  0  0  0  0  0  0  0  0  0  0  0
   10.0867   -6.6352    0.0000 C   0  0  0  0  0  0  0  0  0  0  0  0
    9.3630   -5.3953    0.0000 C   0  0  0  0  0  0  0  0  0  0  0  0
   10.8006   -5.3905    0.0000 F   0  0  0  0  0  0  0  0  0  0  0  0
   11.5292   -9.1102    0.0000 O   0  0  0  0  0  0  0  0  0  0  0  0
   10.1012   -9.1149    0.0000 O   0  0  0  0  0  0  0  0  0  0  0  0
    6.5310   -9.5347    0.0000 C   0  0  0  0  0  0  0  0  0  0  0  0
    7.9591   -9.5347    0.0000 C   0  0  0  0  0  0  0  0  0  0  0  0
  2  5  1  0
  3  1  1  0
  4  1  2  0
  5  1  1  0
  6  7  1  0
  7  3  2  0
  8  4  1  0
  9  6  1  0
 10 11  1  0
 11 18  1  0
 12  2  2  0
 13  2  2  0
 14  7  1  0
 15  9  2  0
 16 10  1  0
 17 10  2  0
 18 19  1  0
 19 25  1  0
 20  8  1  0
 21 14  2  0
 22 14  1  0
 23  2  1  0
 24 28  1  0
 25 15  1  0
 26  5  1  0
 27 21  1  0
 28 22  2  0
 29 24  1  0
 18 30  1  6
 25 31  1  6
 32 20  1  0
 33 20  1  0
  6  8  2  0
 24 27  2  0
M  END
> <chembl_id>
CHEMBL1496

> <chembl_pref_name>
ROSUVASTATIN
