
     RDKit          2D

 25 27  0  0  0  0  0  0  0  0999 V2000
    0.8792    0.6958    0.0000 C   0  0  0  0  0  0  0  0  0  0  0  0
    0.8792    1.9875    0.0000 S   0  0  0  0  0  0  0  0  0  0  0  0
   -0.2083    0.0208    0.0000 C   0  0  0  0  0  0  0  0  0  0  0  0
   -0.2083   -1.2042    0.0000 C   0  0  0  0  0  0  0  0  0  0  0  0
    1.9625    0.0375    0.0000 C   0  0  0  0  0  0  0  0  0  0  0  0
    1.9625   -1.2167    0.0000 C   0  0  0  0  0  0  0  0  0  0  0  0
    0.9000   -1.8417    0.0000 C   0  0  0  0  0  0  0  0  0  0  0  0
   -1.2958   -1.8417    0.0000 N   0  0  0  0  0  0  0  0  0  0  0  0
    3.1167   -1.8542    0.0000 C   0  0  0  0  0  0  0  0  0  0  0  0
   -1.1583    0.5625    0.0000 O   0  0  0  0  0  0  0  0  0  0  0  0
    2.0542    1.9750    0.0000 O   0  0  0  0  0  0  0  0  0  0  0  0
   -0.4125    1.9750    0.0000 O   0  0  0  0  0  0  0  0  0  0  0  0
    0.8792    3.2375    0.0000 N   0  0  0  0  0  0  0  0  0  0  0  0
    4.2042   -1.2167    0.0000 O   0  0  0  0  0  0  0  0  0  0  0  0
    3.1042   -3.1167    0.0000 O   0  0  0  0  0  0  0  0  0  0  0  0
   -2.0958    1.1000    0.0000 C   0  0  0  0  0  0  0  0  0  0  0  0
   -2.5000   -1.3667    0.0000 C   0  0  0  0  0  0  0  0  0  0  0  0
   -1.3833   -3.1167    0.0000 C   0  0  0  0  0  0  0  0  0  0  0  0
   -2.1083    2.3750    0.0000 C   0  0  0  0  0  0  0  0  0  0  0  0
   -3.2125    0.4708    0.0000 C   0  0  0  0  0  0  0  0  0  0  0  0
   -3.3000   -2.3625    0.0000 C   0  0  0  0  0  0  0  0  0  0  0  0
   -2.6125   -3.4292    0.0000 C   0  0  0  0  0  0  0  0  0  0  0  0
   -3.2125    3.0208    0.0000 C   0  0  0  0  0  0  0  0  0  0  0  0
   -4.3458    1.0958    0.0000 C   0  0  0  0  0  0  0  0  0  0  0  0
   -4.3458    2.3958    0.0000 C   0  0  0  0  0  0  0  0  0  0  0  0
  2  1  1  0
  3  1  1  0
  4  3  2  0
  5  1  2  0
  6  5  1  0
  7  6  2  0
  8  4  1  0
  9  6  1  0
 10  3  1  0
 11  2  2  0
 12  2  2  0
 13  2  1  0
 14  9  2  0
 15  9  1  0
 16 10  1  0
 17  8  1  0
 18  8  1  0
 19 16  1  0
 20 16  2  0
 21 17  1  0
 22 18  1  0
 23 19  2  0
 24 20  1  0
 25 24  2  0
  4  7  1  0
 21 22  1  0
 23 25  1  0
M  END
> <chembl_id>
CHEMBL349803

> <chembl_pref_name>
PIRETANIDE
