
     RDKit          2D

105108  0  0  0  0  0  0  0  0999 V2000
    9.4181   -2.1810    0.0000 O   0  0  0  0  0  0  0  0  0  0  0  0
   -1.8693    2.3296    0.0000 C   0  0  0  0  0  0  0  0  0  0  0  0
   -2.5838    1.9171    0.0000 C   0  0  0  0  0  0  0  0  0  0  0  0
   -2.5838    1.0921    0.0000 C   0  0  0  0  0  0  0  0  0  0  0  0
   -1.8693    0.6795    0.0000 C   0  0  0  0  0  0  0  0  0  0  0  0
   -1.1548    1.0921    0.0000 C   0  0  0  0  0  0  0  0  0  0  0  0
   -1.1548    1.9171    0.0000 C   0  0  0  0  0  0  0  0  0  0  0  0
   -0.4404    0.6795    0.0000 S   0  0  0  0  0  0  0  0  0  0  0  0
    0.2741    1.0920    0.0000 C   0  0  0  0  0  0  0  0  0  0  0  0
    0.2741    1.9170    0.0000 C   0  0  0  0  0  0  0  0  0  0  0  0
   -0.4404    2.3295    0.0000 O   0  0  0  0  0  0  0  0  0  0  0  0
    1.7031    1.9170    0.0000 N   0  0  0  0  0  0  0  0  0  0  0  0
    0.9886    2.3295    0.0000 C   0  0  0  0  0  0  0  0  0  0  0  0
    3.1321    1.0919    0.0000 O   0  0  0  0  0  0  0  0  0  0  0  0
    3.1321    1.9169    0.0000 C   0  0  0  0  0  0  0  0  0  0  0  0
    2.4176    2.3295    0.0000 C   0  0  0  0  0  0  0  0  0  0  0  0
    2.4157    4.8259    0.0000 C   0  0  0  0  0  0  0  0  0  0  0  0
    1.7013    4.4134    0.0000 C   0  0  0  0  0  0  0  0  0  0  0  0
    1.7013    3.5884    0.0000 C   0  0  0  0  0  0  0  0  0  0  0  0
    2.4157    3.1759    0.0000 C   0  0  0  0  0  0  0  0  0  0  0  0
    3.1302    3.5884    0.0000 C   0  0  0  0  0  0  0  0  0  0  0  0
    3.1302    4.4134    0.0000 C   0  0  0  0  0  0  0  0  0  0  0  0
    4.5610    1.0919    0.0000 C   0  0  0  0  0  0  0  0  0  0  0  0
    4.5610    1.9169    0.0000 C   0  0  0  0  0  0  0  0  0  0  0  0
    3.8465    2.3294    0.0000 N   0  0  0  0  0  0  0  0  0  0  0  0
    5.2755    0.6794    0.0000 C   0  0  0  0  0  0  0  0  0  0  0  0
    5.9900    1.9169    0.0000 O   0  0  0  0  0  0  0  0  0  0  0  0
    5.2755    2.3294    0.0000 C   0  0  0  0  0  0  0  0  0  0  0  0
    2.4157    5.6509    0.0000 O   0  0  0  0  0  0  0  0  0  0  0  0
    5.2755    3.1544    0.0000 O   0  0  0  0  0  0  0  0  0  0  0  0
    0.9886    3.1545    0.0000 O   0  0  0  0  0  0  0  0  0  0  0  0
   -3.2288    2.4314    0.0000 S   0  0  0  0  0  0  0  0  0  0  0  0
   -4.0331    2.2479    0.0000 N   0  0  0  0  0  0  0  0  0  0  0  0
   -4.3910    1.5046    0.0000 C   0  0  0  0  0  0  0  0  0  0  0  0
   -4.0331    0.7613    0.0000 C   0  0  0  0  0  0  0  0  0  0  0  0
   -3.2288    0.5777    0.0000 N   0  0  0  0  0  0  0  0  0  0  0  0
   -3.0573   -0.2293    0.0000 C   0  0  0  0  0  0  0  0  0  0  0  0
   -3.5100    3.2070    0.0000 O   0  0  0  0  0  0  0  0  0  0  0  0
   -2.6389    3.0082    0.0000 O   0  0  0  0  0  0  0  0  0  0  0  0
   -5.0585    1.9895    0.0000 C   0  0  0  0  0  0  0  0  0  0  0  0
   -5.8122    1.6539    0.0000 C   0  0  0  0  0  0  0  0  0  0  0  0
   -6.4796    2.1389    0.0000 C   0  0  0  0  0  0  0  0  0  0  0  0
   -7.2333    1.8033    0.0000 C   0  0  0  0  0  0  0  0  0  0  0  0
   -5.0322    0.9854    0.0000 C   0  0  0  0  0  0  0  0  0  0  0  0
   -4.9031    0.1705    0.0000 C   0  0  0  0  0  0  0  0  0  0  0  0
   -5.5443   -0.3487    0.0000 C   0  0  0  0  0  0  0  0  0  0  0  0
   -5.3728   -1.1556    0.0000 C   0  0  0  0  0  0  0  0  0  0  0  0
   -3.6703   -0.7813    0.0000 C   0  0  0  0  0  0  0  0  0  0  0  0
   -3.4988   -1.5883    0.0000 C   0  0  0  0  0  0  0  0  0  0  0  0
   -2.7142   -1.8433    0.0000 C   0  0  0  0  0  0  0  0  0  0  0  0
   -2.1011   -1.2912    0.0000 C   0  0  0  0  0  0  0  0  0  0  0  0
   -2.2726   -0.4842    0.0000 C   0  0  0  0  0  0  0  0  0  0  0  0
   -1.4745   -3.5625    0.0000 C   0  0  0  0  0  0  0  0  0  0  0  0
   -2.1890   -3.9750    0.0000 C   0  0  0  0  0  0  0  0  0  0  0  0
   -2.1890   -4.8000    0.0000 C   0  0  0  0  0  0  0  0  0  0  0  0
   -1.4745   -5.2126    0.0000 C   0  0  0  0  0  0  0  0  0  0  0  0
   -0.7600   -4.8000    0.0000 C   0  0  0  0  0  0  0  0  0  0  0  0
   -0.7600   -3.9750    0.0000 C   0  0  0  0  0  0  0  0  0  0  0  0
   -0.0456   -5.2126    0.0000 S   0  0  0  0  0  0  0  0  0  0  0  0
    0.6689   -4.8001    0.0000 C   0  0  0  0  0  0  0  0  0  0  0  0
    0.6689   -3.9751    0.0000 C   0  0  0  0  0  0  0  0  0  0  0  0
   -0.0456   -3.5626    0.0000 O   0  0  0  0  0  0  0  0  0  0  0  0
    2.0979   -3.9751    0.0000 N   0  0  0  0  0  0  0  0  0  0  0  0
    1.3834   -3.5626    0.0000 C   0  0  0  0  0  0  0  0  0  0  0  0
    3.5269   -4.8002    0.0000 O   0  0  0  0  0  0  0  0  0  0  0  0
    3.5269   -3.9752    0.0000 C   0  0  0  0  0  0  0  0  0  0  0  0
    2.8124   -3.5626    0.0000 C   0  0  0  0  0  0  0  0  0  0  0  0
    2.8105   -1.0662    0.0000 C   0  0  0  0  0  0  0  0  0  0  0  0
    2.0961   -1.4787    0.0000 C   0  0  0  0  0  0  0  0  0  0  0  0
    2.0961   -2.3037    0.0000 C   0  0  0  0  0  0  0  0  0  0  0  0
    2.8105   -2.7162    0.0000 C   0  0  0  0  0  0  0  0  0  0  0  0
    3.5250   -2.3037    0.0000 C   0  0  0  0  0  0  0  0  0  0  0  0
    3.5250   -1.4787    0.0000 C   0  0  0  0  0  0  0  0  0  0  0  0
    4.9558   -4.8002    0.0000 C   0  0  0  0  0  0  0  0  0  0  0  0
    4.9558   -3.9752    0.0000 C   0  0  0  0  0  0  0  0  0  0  0  0
    4.2413   -3.5627    0.0000 N   0  0  0  0  0  0  0  0  0  0  0  0
    5.6703   -5.2127    0.0000 C   0  0  0  0  0  0  0  0  0  0  0  0
    6.3848   -3.9752    0.0000 O   0  0  0  0  0  0  0  0  0  0  0  0
    5.6703   -3.5627    0.0000 C   0  0  0  0  0  0  0  0  0  0  0  0
    2.8105   -0.2412    0.0000 O   0  0  0  0  0  0  0  0  0  0  0  0
    5.6703   -2.7377    0.0000 O   0  0  0  0  0  0  0  0  0  0  0  0
    1.3834   -2.7376    0.0000 O   0  0  0  0  0  0  0  0  0  0  0  0
   -2.8340   -3.4607    0.0000 S   0  0  0  0  0  0  0  0  0  0  0  0
   -3.6383   -3.6442    0.0000 N   0  0  0  0  0  0  0  0  0  0  0  0
   -3.9962   -4.3875    0.0000 C   0  0  0  0  0  0  0  0  0  0  0  0
   -3.6383   -5.1308    0.0000 C   0  0  0  0  0  0  0  0  0  0  0  0
   -2.8340   -5.3144    0.0000 N   0  0  0  0  0  0  0  0  0  0  0  0
   -2.6625   -6.1214    0.0000 C   0  0  0  0  0  0  0  0  0  0  0  0
   -3.1152   -2.6851    0.0000 O   0  0  0  0  0  0  0  0  0  0  0  0
   -2.2441   -2.8839    0.0000 O   0  0  0  0  0  0  0  0  0  0  0  0
   -4.6637   -3.9026    0.0000 C   0  0  0  0  0  0  0  0  0  0  0  0
   -5.4174   -4.2382    0.0000 C   0  0  0  0  0  0  0  0  0  0  0  0
   -6.0848   -3.7532    0.0000 C   0  0  0  0  0  0  0  0  0  0  0  0
   -6.8385   -4.0888    0.0000 C   0  0  0  0  0  0  0  0  0  0  0  0
   -4.6374   -4.9067    0.0000 C   0  0  0  0  0  0  0  0  0  0  0  0
   -4.5083   -5.7216    0.0000 C   0  0  0  0  0  0  0  0  0  0  0  0
   -5.1495   -6.2408    0.0000 C   0  0  0  0  0  0  0  0  0  0  0  0
   -4.9780   -7.0477    0.0000 C   0  0  0  0  0  0  0  0  0  0  0  0
   -3.2755   -6.6734    0.0000 C   0  0  0  0  0  0  0  0  0  0  0  0
   -3.1040   -7.4804    0.0000 C   0  0  0  0  0  0  0  0  0  0  0  0
   -2.3194   -7.7354    0.0000 C   0  0  0  0  0  0  0  0  0  0  0  0
   -1.7063   -7.1833    0.0000 C   0  0  0  0  0  0  0  0  0  0  0  0
   -1.8778   -6.3763    0.0000 C   0  0  0  0  0  0  0  0  0  0  0  0
    9.4181    1.0905    0.0000 O   0  0  0  0  0  0  0  0  0  0  0  0
    9.3685   -0.5948    0.0000 O   0  0  0  0  0  0  0  0  0  0  0  0
  2  3  2  0
  3  4  1  0
  4  5  2  0
  5  6  1  0
  6  7  2  0
  2  7  1  0
  8  9  1  0
 10 11  1  0
  6  8  1  0
  7 11  1  0
 12 13  1  0
 10 13  1  0
 14 15  2  0
 15 16  1  0
 12 16  1  0
 17 18  1  0
 18 19  2  0
 19 20  1  0
 20 21  2  0
 21 22  1  0
 17 22  2  0
 24 23  1  6
 24 25  1  0
 15 25  1  0
 27 28  1  0
 23 26  1  0
 24 28  1  0
 16 20  1  6
 17 29  1  0
 28 30  2  0
 13 31  2  0
  3 32  1  0
 32 33  1  0
 33 34  1  0
 34 35  1  0
 35 36  1  0
 36  4  1  0
 36 37  1  0
 32 38  2  0
 32 39  2  0
 34 40  1  0
 40 41  1  0
 41 42  1  0
 42 43  1  0
 34 44  1  0
 44 45  1  0
 45 46  1  0
 46 47  1  0
 48 49  2  0
 49 50  1  0
 50 51  2  0
 51 52  1  0
 37 48  1  0
 37 52  2  0
 53 54  2  0
 54 55  1  0
 55 56  2  0
 56 57  1  0
 57 58  2  0
 53 58  1  0
 59 60  1  0
 61 62  1  0
 57 59  1  0
 58 62  1  0
 63 64  1  0
 61 64  1  0
 65 66  2  0
 66 67  1  0
 63 67  1  0
 68 69  1  0
 69 70  2  0
 70 71  1  0
 71 72  2  0
 72 73  1  0
 68 73  2  0
 75 74  1  6
 75 76  1  0
 66 76  1  0
 78 79  1  0
 74 77  1  0
 75 79  1  0
 67 71  1  6
 68 80  1  0
 79 81  2  0
 64 82  2  0
 54 83  1  0
 83 84  1  0
 84 85  1  0
 85 86  1  0
 86 87  1  0
 87 55  1  0
 87 88  1  0
 83 89  2  0
 83 90  2  0
 85 91  1  0
 91 92  1  0
 92 93  1  0
 93 94  1  0
 85 95  1  0
 95 96  1  0
 96 97  1  0
 97 98  1  0
 99100  2  0
100101  1  0
101102  2  0
102103  1  0
 88 99  1  0
 88103  2  0
M  END
> <chembl_id>
CHEMBL5315120

> <chembl_pref_name>
ODEVIXIBAT SESQUIHYDRATE
