
     RDKit          2D

 13 13  0  0  1  0  0  0  0  0999 V2000
    2.1250   -5.3750    0.0000 C   0  0  0  0  0  0  0  0  0  0  0  0
    1.5083   -5.0167    0.0000 C   0  0  0  0  0  0  0  0  0  0  0  0
    2.1250   -6.0792    0.0000 O   0  0  0  0  0  0  0  0  0  0  0  0
    1.5083   -4.3125    0.0000 C   0  0  0  0  0  0  0  0  0  0  0  0
    2.1250   -3.9542    0.0000 C   0  0  0  0  0  0  0  0  0  0  0  0
    0.9000   -5.3750    0.0000 N   0  0  0  0  0  0  0  0  0  0  0  0
    2.7375   -5.0167    0.0000 O   0  0  0  0  0  0  0  0  0  0  0  0
    3.3500   -3.2500    0.0000 C   0  0  0  0  0  0  0  0  0  0  0  0
    2.1250   -3.2500    0.0000 C   0  0  0  0  0  0  0  0  0  0  0  0
    2.7375   -4.3125    0.0000 C   0  0  0  0  0  0  0  0  0  0  0  0
    3.3500   -3.9542    0.0000 C   0  0  0  0  0  0  0  0  0  0  0  0
    2.7375   -2.8917    0.0000 C   0  0  0  0  0  0  0  0  0  0  0  0
    3.9667   -2.8917    0.0000 O   0  0  0  0  0  0  0  0  0  0  0  0
  2  1  1  0
  3  1  2  0
  2  4  1  1
  5  4  1  0
  6  2  1  0
  7  1  1  0
  8 11  2  0
  9  5  1  0
 10  5  2  0
 11 10  1  0
 12  9  2  0
 13  8  1  0
  8 12  1  0
M  END
> <chembl_id>
CHEMBL925

> <chembl_pref_name>
TYROSINE
