
     RDKit          2D

 35 38  0  0  0  0  0  0  0  0999 V2000
    3.8602   -2.1884    0.0000 Cl  0  0  0  0  0  0  0  0  0  0  0  0
   -4.9041    0.3800    0.0000 C   0  0  0  0  0  0  0  0  0  0  0  0
   -5.4659   -0.2241    0.0000 C   0  0  0  0  0  0  0  0  0  0  0  0
   -5.2236   -1.0127    0.0000 C   0  0  0  0  0  0  0  0  0  0  0  0
   -4.4195   -1.1972    0.0000 C   0  0  0  0  0  0  0  0  0  0  0  0
   -3.8577   -0.5931    0.0000 C   0  0  0  0  0  0  0  0  0  0  0  0
   -4.1000    0.1956    0.0000 C   0  0  0  0  0  0  0  0  0  0  0  0
   -2.4918   -0.1734    0.0000 C   0  0  0  0  0  0  0  0  0  0  0  0
   -2.7341    0.6152    0.0000 C   0  0  0  0  0  0  0  0  0  0  0  0
   -3.5382    0.7997    0.0000 O   0  0  0  0  0  0  0  0  0  0  0  0
   -1.6876   -0.3579    0.0000 C   0  0  0  0  0  0  0  0  0  0  0  0
   -1.1258    0.2463    0.0000 C   0  0  0  0  0  0  0  0  0  0  0  0
   -1.3681    1.0349    0.0000 C   0  0  0  0  0  0  0  0  0  0  0  0
   -2.1722    1.2194    0.0000 C   0  0  0  0  0  0  0  0  0  0  0  0
    0.3220    0.5015    0.0000 C   0  0  0  0  0  0  0  0  0  0  0  0
    0.3939    1.3233    0.0000 O   0  0  0  0  0  0  0  0  0  0  0  0
    0.9978    0.0283    0.0000 N   0  0  0  0  0  0  0  0  0  0  0  0
    1.7455    0.3769    0.0000 C   0  0  0  0  0  0  0  0  0  0  0  0
    1.8174    1.1988    0.0000 C   0  0  0  0  0  0  0  0  0  0  0  0
    2.5049    0.0545    0.0000 C   0  0  0  0  0  0  0  0  0  0  0  0
    3.0462    0.6772    0.0000 N   0  0  0  0  0  0  0  0  0  0  0  0
    2.6213    1.3843    0.0000 C   0  0  0  0  0  0  0  0  0  0  0  0
   -0.3369    0.0050    0.0000 N   0  0  0  0  0  0  0  0  0  0  0  0
   -0.0683   -0.7750    0.0000 C   0  0  0  0  0  0  0  0  0  0  0  0
    0.7565   -0.7607    0.0000 C   0  0  0  0  0  0  0  0  0  0  0  0
   -0.4683   -1.4966    0.0000 C   0  0  0  0  0  0  0  0  0  0  0  0
   -0.0434   -2.2038    0.0000 N   0  0  0  0  0  0  0  0  0  0  0  0
    0.7814   -2.1894    0.0000 C   0  0  0  0  0  0  0  0  0  0  0  0
    1.1814   -1.4679    0.0000 N   0  0  0  0  0  0  0  0  0  0  0  0
    3.8680    0.6053    0.0000 C   0  0  0  0  0  0  0  0  0  0  0  0
    4.3412    1.2810    0.0000 C   0  0  0  0  0  0  0  0  0  0  0  0
    4.2167   -0.1425    0.0000 O   0  0  0  0  0  0  0  0  0  0  0  0
    4.8144    1.9568    0.0000 C   0  0  0  0  0  0  0  0  0  0  0  0
    5.2876    2.6326    0.0000 C   0  0  0  0  0  0  0  0  0  0  0  0
   -1.2932   -1.5109    0.0000 N   0  0  0  0  0  0  0  0  0  0  0  0
  2  3  1  0
  3  4  2  0
  4  5  1  0
  5  6  2  0
  6  7  1  0
  2  7  2  0
  8  9  2  0
  9 10  1  0
  7 10  1  0
 11 12  2  0
 12 13  1  0
 13 14  2  0
  8 11  1  0
  9 14  1  0
 15 16  2  0
 18 17  1  6
 18 19  1  0
 15 17  1  0
 20 21  1  0
 21 22  1  0
 18 20  1  0
 19 22  1  0
 23 24  1  0
 24 25  2  0
 15 23  1  0
 17 25  1  0
 12 23  1  0
 26 27  2  0
 27 28  1  0
 28 29  2  0
 24 26  1  0
 25 29  1  0
 21 30  1  0
 30 31  1  0
 30 32  2  0
 31 33  3  0
 33 34  1  0
 26 35  1  0
M  END
> <chembl_id>
CHEMBL5314600

> <chembl_pref_name>
TIRABRUTINIB HYDROCHLORIDE
