
     RDKit          2D

 39 39  0  0  1  0  0  0  0  0999 V2000
    8.9167   -1.0292    0.0000 C   0  0  0  0  0  0  0  0  0  0  0  0
    7.0542   -0.6667    0.0000 C   0  0  0  0  0  0  0  0  0  0  0  0
    9.5417   -0.6667    0.0000 C   0  0  0  0  0  0  0  0  0  0  0  0
    6.4375   -1.0292    0.0000 C   0  0  0  0  0  0  0  0  0  0  0  0
    5.8167   -0.6667    0.0000 C   0  0  0  0  0  0  0  0  0  0  0  0
    7.6792   -1.0292    0.0000 N   0  0  0  0  0  0  0  0  0  0  0  0
    3.3292   -0.6667    0.0000 C   0  0  0  0  0  0  0  0  0  0  0  0
    3.9542   -1.0292    0.0000 C   0  0  0  0  0  0  0  0  0  0  0  0
    0.8417   -0.6750    0.0000 C   0  0  0  0  0  0  0  0  0  0  0  0
    8.3000   -0.6667    0.0000 C   0  0  0  0  0  0  0  0  0  0  0  0
    5.1917   -1.0292    0.0000 C   0  0  0  0  0  0  0  0  0  0  0  0
    4.5750   -0.6667    0.0000 C   0  0  0  0  0  0  0  0  0  0  0  0
    2.7125   -1.0292    0.0000 C   0  0  0  0  0  0  0  0  0  0  0  0
    0.8375    0.0583    0.0000 C   0  0  0  0  0  0  0  0  0  0  0  0
    1.4667   -1.0292    0.0000 C   0  0  0  0  0  0  0  0  0  0  0  0
    2.0875   -0.6667    0.0000 C   0  0  0  0  0  0  0  0  0  0  0  0
    9.5417    0.0500    0.0000 O   0  0  0  0  0  0  0  0  0  0  0  0
    7.0542    0.0500    0.0000 O   0  0  0  0  0  0  0  0  0  0  0  0
    1.4625    0.4125    0.0000 C   0  0  0  0  0  0  0  0  0  0  0  0
   10.1667   -1.0292    0.0000 N   0  0  0  0  0  0  0  0  0  0  0  0
    6.4292   -1.7500    0.0000 C   0  0  0  0  0  0  0  0  0  0  0  0
    3.3292    0.0500    0.0000 C   0  0  0  0  0  0  0  0  0  0  0  0
    4.5667    0.0500    0.0000 N   0  0  0  0  0  0  0  0  0  0  0  0
    2.0875    0.0583    0.0000 C   0  0  0  0  0  0  0  0  0  0  0  0
    0.2167   -1.0292    0.0000 O   0  0  0  0  0  0  0  0  0  0  0  0
    5.1917   -1.7500    0.0000 O   0  0  0  0  0  0  0  0  0  0  0  0
    0.2125    0.4125    0.0000 O   0  0  0  0  0  0  0  0  0  0  0  0
    8.4542   -1.4250    0.0000 C   0  0  0  0  0  0  0  0  0  0  0  0
    9.4292   -1.4375    0.0000 C   0  0  0  0  0  0  0  0  0  0  0  0
   -1.0333   -1.0250    0.0000 C   0  0  0  0  0  0  0  0  0  0  0  0
   -2.2833   -1.0250    0.0000 O   0  0  0  0  0  0  0  0  0  0  0  0
   -0.4083   -0.6667    0.0000 C   0  0  0  0  0  0  0  0  0  0  0  0
   -1.6583   -0.6667    0.0000 C   0  0  0  0  0  0  0  0  0  0  0  0
    5.8625   -2.1292    0.0000 C   0  0  0  0  0  0  0  0  0  0  0  0
    6.9542   -2.1042    0.0000 C   0  0  0  0  0  0  0  0  0  0  0  0
    2.7125    0.6250    0.0000 C   0  0  0  0  0  0  0  0  0  0  0  0
    3.8375    0.5625    0.0000 C   0  0  0  0  0  0  0  0  0  0  0  0
    0.2042    1.1333    0.0000 C   0  0  0  0  0  0  0  0  0  0  0  0
   -2.8958   -0.6625    0.0000 C   0  0  0  0  0  0  0  0  0  0  0  0
  2  6  1  0
  3  1  1  0
  4  2  1  0
  5  4  1  0
  6 10  1  0
  7  8  1  0
  8 12  1  0
  9 15  2  0
 10  1  1  0
 11  5  1  0
 12 11  1  0
 13  7  1  0
 14 19  2  0
 15 16  1  0
 16 13  1  0
 17  3  2  0
 18  2  2  0
 19 24  1  0
 20  3  1  0
  4 21  1  6
  7 22  1  6
 12 23  1  6
 24 16  2  0
 25  9  1  0
 11 26  1  6
 27 14  1  0
 28  1  1  0
 29  1  1  0
 30 32  1  0
 31 33  1  0
 32 25  1  0
 33 30  1  0
 34 21  1  0
 35 21  1  0
 36 22  1  0
 37 22  1  0
 38 27  1  0
 39 31  1  0
 14  9  1  0
M  END
> <chembl_id>
CHEMBL1639

> <chembl_pref_name>
ALISKIREN
