
     RDKit          2D

 24 27  0  0  1  0  0  0  0  0999 V2000
    0.7917   -3.5667    0.0000 C   0  0  0  0  0  0  0  0  0  0  0  0
    0.7917   -2.1875    0.0000 C   0  0  0  0  0  0  0  0  0  0  0  0
    1.3917   -2.5250    0.0000 C   0  0  0  0  0  0  0  0  0  0  0  0
    0.1875   -2.5250    0.0000 C   0  0  0  0  0  0  0  0  0  0  0  0
    1.9917   -2.1875    0.0000 N   0  0  0  0  0  0  0  0  0  0  0  0
    0.1875   -3.2167    0.0000 C   0  0  0  0  0  0  0  0  0  0  0  0
    1.3917   -3.2167    0.0000 C   0  0  0  0  0  0  0  0  0  0  0  0
    0.6000   -4.2125    0.0000 C   0  0  0  0  0  0  0  0  0  0  0  0
   -0.1125   -4.2125    0.0000 N   0  0  0  0  0  0  0  0  0  0  0  0
   -0.4083   -3.5667    0.0000 C   0  0  0  0  0  0  0  0  0  0  0  0
    1.9917   -1.5042    0.0000 C   0  0  0  0  0  0  0  0  0  0  0  0
    0.7917   -1.5042    0.0000 C   0  0  0  0  0  0  0  0  0  0  0  0
    1.3917   -1.1542    0.0000 C   0  0  0  0  0  0  0  0  0  0  0  0
   -0.4083   -2.1875    0.0000 C   0  0  0  0  0  0  0  0  0  0  0  0
    2.6292   -2.5542    0.0000 C   0  0  0  0  0  0  0  0  0  0  0  0
    2.0250   -0.0500    0.0000 S   0  0  0  0  0  0  0  0  0  0  0  0
    1.3917   -0.4292    0.0000 C   0  0  0  0  0  0  0  0  0  0  0  0
   -1.0083   -2.5250    0.0000 C   0  0  0  0  0  0  0  0  0  0  0  0
   -1.0083   -3.2167    0.0000 C   0  0  0  0  0  0  0  0  0  0  0  0
    2.6667   -0.4000    0.0000 C   0  0  0  0  0  0  0  0  0  0  0  0
    3.2542   -2.1875    0.0000 C   0  0  0  0  0  0  0  0  0  0  0  0
    3.8750   -2.5375    0.0000 C   0  0  0  0  0  0  0  0  0  0  0  0
    2.1333   -2.9625    0.0000 H   0  0  0  0  0  0  0  0  0  0  0  0
    0.0542   -1.7667    0.0000 H   0  0  0  0  0  0  0  0  0  0  0  0
  2  3  1  0
  3  7  1  0
  4  6  1  0
  5  3  1  0
  6  1  1  0
  7  1  1  0
  8  1  2  0
  9  8  1  0
 10  6  2  0
 11  5  1  0
 12  2  1  0
 13 11  1  0
 14  4  2  0
 15  5  1  0
 16 17  1  0
 13 17  1  1
 18 14  1  0
 19 10  1  0
 20 16  1  0
 21 15  1  0
 22 21  1  0
  3 23  1  1
  2 24  1  6
  2  4  1  0
  9 10  1  0
 19 18  2  0
 12 13  1  0
M  END
> <chembl_id>
CHEMBL531

> <chembl_pref_name>
PERGOLIDE
