
     RDKit          2D

 33 35  0  0  0  0  0  0  0  0999 V2000
    0.5625   -0.3375    0.0000 C   0  0  0  0  0  0  0  0  0  0  0  0
    0.5625   -1.3792    0.0000 C   0  0  0  0  0  0  0  0  0  0  0  0
   -0.3458    0.2000    0.0000 C   0  0  0  0  0  0  0  0  0  0  0  0
   -0.3458   -1.9167    0.0000 C   0  0  0  0  0  0  0  0  0  0  0  0
    1.4667   -1.9167    0.0000 N   0  0  0  0  0  0  0  0  0  0  0  0
   -2.2750    4.4625    0.0000 C   0  0  0  0  0  0  0  0  0  0  0  0
    1.4667    0.2000    0.0000 C   0  0  0  0  0  0  0  0  0  0  0  0
   -1.2583   -0.3375    0.0000 C   0  0  0  0  0  0  0  0  0  0  0  0
   -1.2583   -1.3792    0.0000 C   0  0  0  0  0  0  0  0  0  0  0  0
    2.4167   -1.3792    0.0000 C   0  0  0  0  0  0  0  0  0  0  0  0
   -0.3458    1.2833    0.0000 O   0  0  0  0  0  0  0  0  0  0  0  0
   -0.3458   -3.0000    0.0000 N   0  0  0  0  0  0  0  0  0  0  0  0
   -2.2958    3.3833    0.0000 C   0  0  0  0  0  0  0  0  0  0  0  0
    2.4167   -0.3375    0.0000 C   0  0  0  0  0  0  0  0  0  0  0  0
   -1.3208    2.9583    0.0000 C   0  0  0  0  0  0  0  0  0  0  0  0
   -1.2833    1.7958    0.0000 C   0  0  0  0  0  0  0  0  0  0  0  0
   -3.1708    5.0625    0.0000 F   0  0  0  0  0  0  0  0  0  0  0  0
   -1.6750    5.4792    0.0000 F   0  0  0  0  0  0  0  0  0  0  0  0
   -1.3875    4.6375    0.0000 F   0  0  0  0  0  0  0  0  0  0  0  0
   -2.1625    0.2000    0.0000 O   0  0  0  0  0  0  0  0  0  0  0  0
    3.3417   -1.9250    0.0000 O   0  0  0  0  0  0  0  0  0  0  0  0
    4.3542   -3.4792    0.0000 N   0  0  0  0  0  0  0  0  0  0  0  0
    1.4667    1.2833    0.0000 C   0  0  0  0  0  0  0  0  0  0  0  0
    0.5500   -3.5542    0.0000 C   0  0  0  0  0  0  0  0  0  0  0  0
   -3.1750    2.8333    0.0000 C   0  0  0  0  0  0  0  0  0  0  0  0
   -3.1333    1.7458    0.0000 C   0  0  0  0  0  0  0  0  0  0  0  0
   -2.2083    1.2458    0.0000 C   0  0  0  0  0  0  0  0  0  0  0  0
    3.4375   -2.9667    0.0000 C   0  0  0  0  0  0  0  0  0  0  0  0
   -3.0708   -0.3042    0.0000 C   0  0  0  0  0  0  0  0  0  0  0  0
    4.1500   -1.3542    0.0000 C   0  0  0  0  0  0  0  0  0  0  0  0
    1.6417   -2.9667    0.0000 C   0  0  0  0  0  0  0  0  0  0  0  0
    0.5500   -4.6417    0.0000 C   0  0  0  0  0  0  0  0  0  0  0  0
    2.5500   -3.4792    0.0000 C   0  0  0  0  0  0  0  0  0  0  0  0
  2  1  1  0
  3  1  1  0
  4  2  1  0
  5  2  2  0
  6 13  1  0
  7  1  2  0
  8  3  2  0
  9  8  1  0
 10 14  2  0
 11  3  1  0
 12  4  1  0
 13 15  2  0
 14  7  1  0
 15 16  1  0
 16 11  1  0
 17  6  1  0
 18  6  1  0
 19  6  1  0
 20  8  1  0
 21 10  1  0
 22 28  1  0
 23  7  1  0
 24 12  1  0
 25 26  2  0
 26 27  1  0
 27 16  2  0
 28 33  1  0
 29 20  1  0
 30 21  1  0
 31 24  1  0
 32 24  1  0
 33 31  1  0
  5 10  1  0
  4  9  2  0
 13 25  1  0
M  END
> <chembl_id>
CHEMBL298470

> <chembl_pref_name>
TAFENOQUINE
