
     RDKit          2D

 20 22  0  0  0  0  0  0  0  0999 V2000
   -0.3333   -0.2542    0.0000 C   0  0  0  0  0  0  0  0  0  0  0  0
   -0.6667    0.5000    0.0000 N   0  0  0  0  0  0  0  0  0  0  0  0
    0.4875   -0.1667    0.0000 O   0  0  0  0  0  0  0  0  0  0  0  0
    0.6583    0.6417    0.0000 C   0  0  0  0  0  0  0  0  0  0  0  0
   -0.7458   -0.9667    0.0000 C   0  0  0  0  0  0  0  0  0  0  0  0
   -0.0542    1.0542    0.0000 C   0  0  0  0  0  0  0  0  0  0  0  0
    2.0875    2.2917    0.0000 C   0  0  0  0  0  0  0  0  0  0  0  0
    1.3750    1.8792    0.0000 C   0  0  0  0  0  0  0  0  0  0  0  0
    1.3750    1.0542    0.0000 C   0  0  0  0  0  0  0  0  0  0  0  0
   -0.3333   -1.6833    0.0000 C   0  0  0  0  0  0  0  0  0  0  0  0
   -1.5708   -0.9667    0.0000 C   0  0  0  0  0  0  0  0  0  0  0  0
   -0.7458   -2.3958    0.0000 C   0  0  0  0  0  0  0  0  0  0  0  0
   -1.9833   -1.6833    0.0000 C   0  0  0  0  0  0  0  0  0  0  0  0
   -1.5708   -2.3958    0.0000 C   0  0  0  0  0  0  0  0  0  0  0  0
    2.0875    3.1167    0.0000 O   0  0  0  0  0  0  0  0  0  0  0  0
   -0.0542    1.8792    0.0000 C   0  0  0  0  0  0  0  0  0  0  0  0
    0.6583    2.2917    0.0000 C   0  0  0  0  0  0  0  0  0  0  0  0
    2.8042    1.8792    0.0000 O   0  0  0  0  0  0  0  0  0  0  0  0
   -0.3333   -3.1125    0.0000 Cl  0  0  0  0  0  0  0  0  0  0  0  0
   -2.8083   -1.6833    0.0000 Cl  0  0  0  0  0  0  0  0  0  0  0  0
  2  1  2  0
  3  1  1  0
  4  3  1  0
  5  1  1  0
  6  2  1  0
  7  8  1  0
  8  9  2  0
  9  4  1  0
 10  5  2  0
 11  5  1  0
 12 10  1  0
 13 11  2  0
 14 13  1  0
 15  7  2  0
 16  6  1  0
 17 16  2  0
 18  7  1  0
 19 12  1  0
 20 13  1  0
  6  4  2  0
 17  8  1  0
 12 14  2  0
M  END
> <chembl_id>
CHEMBL2103837

> <chembl_pref_name>
TAFAMIDIS
