
     RDKit          2D

 14 14  0  0  0  0  0  0  0  0999 V2000
    6.0167   -6.0500    0.0000 C   0  0  0  0  0  0  0  0  0  0  0  0
    5.4000   -6.4125    0.0000 C   0  0  0  0  0  0  0  0  0  0  0  0
    4.7750   -5.3375    0.0000 C   0  0  0  0  0  0  0  0  0  0  0  0
    4.7750   -6.0500    0.0000 C   0  0  0  0  0  0  0  0  0  0  0  0
    6.0000   -5.3375    0.0000 O   0  0  0  0  0  0  0  0  0  0  0  0
    4.1625   -5.0000    0.0000 C   0  0  0  0  0  0  0  0  0  0  0  0
    5.3792   -4.9792    0.0000 C   0  0  0  0  0  0  0  0  0  0  0  0
    4.7667   -3.9375    0.0000 C   0  0  0  0  0  0  0  0  0  0  0  0
    6.6292   -6.4167    0.0000 O   0  0  0  0  0  0  0  0  0  0  0  0
    5.3542   -4.2667    0.0000 C   0  0  0  0  0  0  0  0  0  0  0  0
    4.1417   -4.3000    0.0000 C   0  0  0  0  0  0  0  0  0  0  0  0
    4.7917   -3.2292    0.0000 Cl  0  0  0  0  0  0  0  0  0  0  0  0
    3.5167   -6.0500    0.0000 N   0  0  0  0  0  0  0  0  0  0  0  0
    4.1417   -6.4125    0.0000 C   0  0  0  0  0  0  0  0  0  0  0  0
  2  1  1  0
  3  4  1  0
  4  2  1  0
  5  1  2  0
  6  3  1  0
  7  3  2  0
  8 10  2  0
  9  1  1  0
 10  7  1  0
 11  6  2  0
 12  8  1  0
 13 14  1  0
 14  4  1  0
  8 11  1  0
M  END
> <chembl_id>
CHEMBL701

> <chembl_pref_name>
BACLOFEN
