
     RDKit          2D

 18 18  0  0  0  0  0  0  0  0999 V2000
    6.4330   -7.3610    0.0000 Ag  0  0  0  0  0 15  0  0  0  0  0  0
    2.8278   -7.1035    0.0000 S   0  0  0  0  0  0  0  0  0  0  0  0
    3.5420   -6.6905    0.0000 N   0  0  0  0  0  0  0  0  0  0  0  0
    4.2562   -7.1035    0.0000 C   0  0  0  0  0  0  0  0  0  0  0  0
    2.1135   -6.6905    0.0000 C   0  0  0  0  0  0  0  0  0  0  0  0
    3.2359   -7.8177    0.0000 O   0  0  0  0  0  0  0  0  0  0  0  0
    2.4100   -7.8177    0.0000 O   0  0  0  0  0  0  0  0  0  0  0  0
    4.9705   -6.6905    0.0000 N   0  0  0  0  0  0  0  0  0  0  0  0
    4.2562   -7.9343    0.0000 N   0  0  0  0  0  0  0  0  0  0  0  0
    2.1135   -5.8693    0.0000 C   0  0  0  0  0  0  0  0  0  0  0  0
    1.3993   -7.1083    0.0000 C   0  0  0  0  0  0  0  0  0  0  0  0
    0.6851   -5.8693    0.0000 C   0  0  0  0  0  0  0  0  0  0  0  0
   -0.0340   -5.4564    0.0000 N   0  0  0  0  0  0  0  0  0  0  0  0
    1.3993   -5.4564    0.0000 C   0  0  0  0  0  0  0  0  0  0  0  0
    0.6851   -6.7001    0.0000 C   0  0  0  0  0  0  0  0  0  0  0  0
    5.6847   -7.9343    0.0000 C   0  0  0  0  0  0  0  0  0  0  0  0
    4.9705   -8.3472    0.0000 C   0  0  0  0  0  0  0  0  0  0  0  0
    5.6847   -7.1035    0.0000 C   0  0  0  0  0  0  0  0  0  0  0  0
  3  2  1  0
  4  3  1  0
  5  2  1  0
  6  2  2  0
  7  2  2  0
  8  4  1  0
  9  4  2  0
 10  5  2  0
 11  5  1  0
 12 15  1  0
 13 12  1  0
 14 10  1  0
 15 11  2  0
 16 18  1  0
 17  9  1  0
 18  8  2  0
 12 14  2  0
 16 17  2  0
M  CHG  2   1   1   3  -1
M  END
> <chembl_id>
CHEMBL1382627

> <chembl_pref_name>
SULFADIAZINE, SILVER
