
     RDKit          2D

 49 47  0  0  0  0  0  0  0  0999 V2000
  -45.8701    8.2597    0.0000 O   0  0  0  0  0  0  0  0  0  0  0  0
  -54.1395   14.7561    0.0000 N   0  0  0  0  0  0  0  0  0  0  0  0
  -54.9241   14.5012    0.0000 C   0  0  0  0  0  0  0  0  0  0  0  0
  -55.0957   13.6942    0.0000 N   0  0  0  0  0  0  0  0  0  0  0  0
  -54.4826   13.1422    0.0000 C   0  0  0  0  0  0  0  0  0  0  0  0
  -53.6979   13.3971    0.0000 C   0  0  0  0  0  0  0  0  0  0  0  0
  -53.5264   14.2041    0.0000 C   0  0  0  0  0  0  0  0  0  0  0  0
  -54.4826   12.3172    0.0000 N   0  0  0  0  0  0  0  0  0  0  0  0
  -53.6979   12.0622    0.0000 C   0  0  0  0  0  0  0  0  0  0  0  0
  -53.2130   12.7297    0.0000 C   0  0  0  0  0  0  0  0  0  0  0  0
  -55.5372   15.0532    0.0000 N   0  0  0  0  0  0  0  0  0  0  0  0
  -52.7418   14.4590    0.0000 O   0  0  0  0  0  0  0  0  0  0  0  0
  -52.3880   12.7297    0.0000 C   0  0  0  0  0  0  0  0  0  0  0  0
  -51.9755   12.0152    0.0000 C   0  0  0  0  0  0  0  0  0  0  0  0
  -51.1505   12.0152    0.0000 C   0  0  0  0  0  0  0  0  0  0  0  0
  -49.9130   11.3007    0.0000 C   0  0  0  0  0  0  0  0  0  0  0  0
  -50.7380   11.3007    0.0000 C   0  0  0  0  0  0  0  0  0  0  0  0
  -50.7380   12.7297    0.0000 C   0  0  0  0  0  0  0  0  0  0  0  0
  -49.9130   12.7297    0.0000 C   0  0  0  0  0  0  0  0  0  0  0  0
  -49.5005   12.0152    0.0000 C   0  0  0  0  0  0  0  0  0  0  0  0
  -48.6755   12.0152    0.0000 C   0  0  0  0  0  0  0  0  0  0  0  0
  -48.2630   11.3007    0.0000 O   0  0  0  0  0  0  0  0  0  0  0  0
  -48.2630   12.7297    0.0000 N   0  0  0  0  0  0  0  0  0  0  0  0
  -47.4380   12.7297    0.0000 C   0  0  0  0  0  0  0  0  0  0  0  0
  -47.0255   12.0152    0.0000 C   0  0  0  0  0  0  0  0  0  0  0  0
  -46.2005   12.0152    0.0000 O   0  0  0  0  0  0  0  0  0  0  0  0
  -47.4380   11.3007    0.0000 O   0  0  0  0  0  0  0  0  0  0  0  0
  -47.0255   13.4442    0.0000 C   0  0  0  0  0  0  0  0  0  0  0  0
  -46.2005   13.4442    0.0000 C   0  0  0  0  0  0  0  0  0  0  0  0
  -45.7880   14.1586    0.0000 C   0  0  0  0  0  0  0  0  0  0  0  0
  -44.9630   14.1586    0.0000 O   0  0  0  0  0  0  0  0  0  0  0  0
  -46.2005   14.8731    0.0000 O   0  0  0  0  0  0  0  0  0  0  0  0
  -55.5974    7.8701    0.0000 O   0  0  0  0  0  0  0  0  0  0  0  0
  -54.8829    7.4576    0.0000 C   0  0  0  0  0  0  0  0  0  0  0  0
  -54.1684    7.8701    0.0000 C   0  0  0  0  0  0  0  0  0  0  0  0
  -53.4539    7.4576    0.0000 C   0  0  0  0  0  0  0  0  0  0  0  0
  -52.7395    7.8701    0.0000 O   0  0  0  0  0  0  0  0  0  0  0  0
  -53.6835    8.5375    0.0000 N   0  0  0  0  0  0  0  0  0  0  0  0
  -54.5040    8.6238    0.0000 C   0  0  0  0  0  0  0  0  0  0  0  0
  -54.1294    9.3588    0.0000 O   0  0  0  0  0  0  0  0  0  0  0  0
  -51.1472    7.8822    0.0000 O   0  0  0  0  0  0  0  0  0  0  0  0
  -50.4328    7.4697    0.0000 C   0  0  0  0  0  0  0  0  0  0  0  0
  -49.7183    7.8822    0.0000 C   0  0  0  0  0  0  0  0  0  0  0  0
  -49.0038    7.4697    0.0000 C   0  0  0  0  0  0  0  0  0  0  0  0
  -48.2894    7.8822    0.0000 O   0  0  0  0  0  0  0  0  0  0  0  0
  -49.2334    8.5496    0.0000 N   0  0  0  0  0  0  0  0  0  0  0  0
  -50.0539    8.6359    0.0000 C   0  0  0  0  0  0  0  0  0  0  0  0
  -49.6793    9.3710    0.0000 O   0  0  0  0  0  0  0  0  0  0  0  0
  -45.8961    9.3766    0.0000 O   0  0  0  0  0  0  0  0  0  0  0  0
  2  3  2  0
  3  4  1  0
  4  5  1  0
  5  6  2  0
  6  7  1  0
  2  7  1  0
  8  9  1  0
  9 10  2  0
  5  8  1  0
  6 10  1  0
  3 11  1  0
  7 12  2  0
 10 13  1  0
 13 14  1  0
 14 15  1  0
 16 17  2  0
 18 19  1  0
 19 20  2  0
 16 20  1  0
 17 15  1  0
 15 18  2  0
 20 21  1  0
 21 22  2  0
 21 23  1  0
 23 24  1  0
 24 25  1  1
 25 26  2  0
 25 27  1  0
 24 28  1  0
 28 29  1  0
 29 30  1  0
 30 31  2  0
 30 32  1  0
 33 34  1  0
 34 35  1  0
 35 36  1  0
 36 37  1  0
 35 38  1  0
 35 39  1  0
 39 40  1  0
 41 42  1  0
 42 43  1  0
 43 44  1  0
 44 45  1  0
 43 46  1  0
 43 47  1  0
 47 48  1  0
M  END
> <chembl_id>
CHEMBL3989962

> <chembl_pref_name>
PEMETREXED TROMETHAMINE
