
     RDKit          2D

  7  4  0  0  0  0  0  0  0  0999 V2000
    1.6167   -1.4667    0.0000 Na  0  0  0  0  0 15  0  0  0  0  0  0
    0.6083   -2.1458    0.0000 P   0  0  0  0  0  0  0  0  0  0  0  0
    0.9625   -2.7583    0.0000 O   0  0  0  0  0  0  0  0  0  0  0  0
    0.9625   -1.5292    0.0000 O   0  0  0  0  0  0  0  0  0  0  0  0
   -0.0125   -1.7958    0.0000 O   0  0  0  0  0  0  0  0  0  0  0  0
   -0.0125   -2.5042    0.0000 F   0  0  0  0  0  0  0  0  0  0  0  0
    1.6167   -2.8125    0.0000 Na  0  0  0  0  0 15  0  0  0  0  0  0
  3  2  1  0
  4  2  1  0
  5  2  2  0
  6  2  1  0
M  CHG  4   1   1   3  -1   4  -1   7   1
M  END
> <chembl_id>
CHEMBL1908359

> <chembl_pref_name>
SODIUM MONOFLUOROPHOSPHATE
