
     RDKit          2D

 28 30  0  0  0  0  0  0  0  0999 V2000
    0.9417    1.1750    0.0000 I   0  0  0  0  0  0  0  0  0  0  0  0
    2.5042   -0.5500    0.0000 N   0  0  0  0  0  0  0  0  0  0  0  0
   -1.8208    0.9250    0.0000 C   0  0  0  0  0  0  0  0  0  0  0  0
    1.8667   -1.0375    0.0000 C   0  0  0  0  0  0  0  0  0  0  0  0
   -1.9583    1.6958    0.0000 N   0  0  0  0  0  0  0  0  0  0  0  0
   -2.5083    0.5333    0.0000 S   0  0  0  0  0  0  0  0  0  0  0  0
    1.9500   -1.7292    0.0000 S   0  0  0  0  0  0  0  0  0  0  0  0
    3.0875   -1.1167    0.0000 C   0  0  0  0  0  0  0  0  0  0  0  0
   -2.7458    1.7958    0.0000 C   0  0  0  0  0  0  0  0  0  0  0  0
    2.7500   -1.8250    0.0000 C   0  0  0  0  0  0  0  0  0  0  0  0
   -3.0833    1.0708    0.0000 C   0  0  0  0  0  0  0  0  0  0  0  0
   -0.9458    0.9250    0.0000 C   0  0  0  0  0  0  0  0  0  0  0  0
    1.4167   -0.5250    0.0000 C   0  0  0  0  0  0  0  0  0  0  0  0
   -0.7000    0.1125    0.0000 C   0  0  0  0  0  0  0  0  0  0  0  0
    0.6167   -0.5250    0.0000 C   0  0  0  0  0  0  0  0  0  0  0  0
    0.2542    0.1250    0.0000 C   0  0  0  0  0  0  0  0  0  0  0  0
    2.9000    0.2625    0.0000 C   0  0  0  0  0  0  0  0  0  0  0  0
   -1.5958    2.4625    0.0000 C   0  0  0  0  0  0  0  0  0  0  0  0
    3.8792   -1.0167    0.0000 C   0  0  0  0  0  0  0  0  0  0  0  0
   -3.1958    2.4625    0.0000 C   0  0  0  0  0  0  0  0  0  0  0  0
   -3.8833    1.0083    0.0000 C   0  0  0  0  0  0  0  0  0  0  0  0
    3.1792   -2.4542    0.0000 C   0  0  0  0  0  0  0  0  0  0  0  0
    3.6042    0.5583    0.0000 C   0  0  0  0  0  0  0  0  0  0  0  0
   -0.8000    2.2833    0.0000 C   0  0  0  0  0  0  0  0  0  0  0  0
   -4.0083    2.3958    0.0000 C   0  0  0  0  0  0  0  0  0  0  0  0
    4.3375   -1.7125    0.0000 C   0  0  0  0  0  0  0  0  0  0  0  0
   -4.3458    1.6833    0.0000 C   0  0  0  0  0  0  0  0  0  0  0  0
    3.9917   -2.4125    0.0000 C   0  0  0  0  0  0  0  0  0  0  0  0
  3 12  2  0
  4  2  2  0
  5  3  1  0
  6  3  1  0
  7  4  1  0
  8  2  1  0
  9  5  1  0
 10  8  2  0
 11  6  1  0
 12 14  1  0
 13  4  1  0
 14 16  2  0
 15 13  2  0
 16 15  1  0
 17  2  1  0
 18  5  1  0
 19  8  1  0
 20  9  1  0
 21 11  1  0
 22 10  1  0
 23 17  1  0
 24 18  1  0
 25 20  2  0
 26 19  2  0
 27 21  2  0
 28 26  1  0
  7 10  1  0
 22 28  2  0
  9 11  2  0
 25 27  1  0
M  CHG  2   1  -1   2   1
M  END
> <chembl_id>
CHEMBL421701

> <chembl_pref_name>
DITHIAZANINE IODIDE
