
     RDKit          2D

 47 52  0  0  0  0  0  0  0  0999 V2000
    5.5625   -6.7917    0.0000 C   0  0  0  0  0  0  0  0  0  0  0  0
    3.7167   -7.8417    0.0000 C   0  0  0  0  0  0  0  0  0  0  0  0
    5.5542   -7.4917    0.0000 C   0  0  0  0  0  0  0  0  0  0  0  0
    6.2375   -6.5792    0.0000 C   0  0  0  0  0  0  0  0  0  0  0  0
    6.6417   -7.1542    0.0000 C   0  0  0  0  0  0  0  0  0  0  0  0
    4.3292   -7.4875    0.0000 C   0  0  0  0  0  0  0  0  0  0  0  0
    4.9417   -7.8417    0.0000 C   0  0  0  0  0  0  0  0  0  0  0  0
    7.3542   -7.1625    0.0000 N   0  0  0  0  0  0  0  0  0  0  0  0
    2.4917   -7.8417    0.0000 C   0  0  0  0  0  0  0  0  0  0  0  0
    2.4917   -8.5500    0.0000 C   0  0  0  0  0  0  0  0  0  0  0  0
    6.2250   -7.7250    0.0000 C   0  0  0  0  0  0  0  0  0  0  0  0
    3.1042   -7.4875    0.0000 C   0  0  0  0  0  0  0  0  0  0  0  0
    3.7167   -8.5500    0.0000 C   0  0  0  0  0  0  0  0  0  0  0  0
    1.8792   -7.4875    0.0000 N   0  0  0  0  0  0  0  0  0  0  0  0
    4.9500   -6.4292    0.0000 C   0  0  0  0  0  0  0  0  0  0  0  0
    6.2292   -5.8667    0.0000 O   0  0  0  0  0  0  0  0  0  0  0  0
    3.1042   -8.9042    0.0000 C   0  0  0  0  0  0  0  0  0  0  0  0
    4.3292   -6.7792    0.0000 C   0  0  0  0  0  0  0  0  0  0  0  0
    1.8792   -8.9000    0.0000 O   0  0  0  0  0  0  0  0  0  0  0  0
    4.9375   -8.5542    0.0000 C   0  0  0  0  0  0  0  0  0  0  0  0
    6.8417   -5.5042    0.0000 C   0  0  0  0  0  0  0  0  0  0  0  0
    1.8792   -9.6042    0.0000 C   0  0  0  0  0  0  0  0  0  0  0  0
    4.3250   -8.9042    0.0000 C   0  0  0  0  0  0  0  0  0  0  0  0
    2.4917   -9.9667    0.0000 O   0  0  0  0  0  0  0  0  0  0  0  0
    6.8375   -4.8000    0.0000 O   0  0  0  0  0  0  0  0  0  0  0  0
    6.7292   -8.2167    0.0000 C   0  0  0  0  0  0  0  0  0  0  0  0
    7.3500   -7.8667    0.0000 C   0  0  0  0  0  0  0  0  0  0  0  0
    6.7292   -8.9292    0.0000 C   0  0  0  0  0  0  0  0  0  0  0  0
    5.5542   -6.0792    0.0000 C   0  0  0  0  0  0  0  0  0  0  0  0
    3.7125   -7.1292    0.0000 C   0  0  0  0  0  0  0  0  0  0  0  0
    7.3542   -6.4542    0.0000 C   0  0  0  0  0  0  0  0  0  0  0  0
    7.9625   -7.5167    0.0000 C   0  0  0  0  0  0  0  0  0  0  0  0
    1.8792   -6.7750    0.0000 C   0  0  0  0  0  0  0  0  0  0  0  0
    1.2667   -7.8417    0.0000 C   0  0  0  0  0  0  0  0  0  0  0  0
    7.4542   -5.8542    0.0000 C   0  0  0  0  0  0  0  0  0  0  0  0
    1.2667   -9.9625    0.0000 C   0  0  0  0  0  0  0  0  0  0  0  0
    8.5750   -7.1625    0.0000 C   0  0  0  0  0  0  0  0  0  0  0  0
    7.9625   -6.1000    0.0000 C   0  0  0  0  0  0  0  0  0  0  0  0
    8.0667   -5.5000    0.0000 C   0  0  0  0  0  0  0  0  0  0  0  0
    1.2750   -6.4250    0.0000 C   0  0  0  0  0  0  0  0  0  0  0  0
    0.6542   -7.4792    0.0000 C   0  0  0  0  0  0  0  0  0  0  0  0
    0.6542   -6.7750    0.0000 C   0  0  0  0  0  0  0  0  0  0  0  0
    8.5750   -6.4542    0.0000 C   0  0  0  0  0  0  0  0  0  0  0  0
    3.7125   -9.2542    0.0000 H   0  0  0  0  0  0  0  0  0  0  0  0
    4.3250   -8.1917    0.0000 H   0  0  0  0  0  0  0  0  0  0  0  0
    5.5500   -8.2042    0.0000 H   0  0  0  0  0  0  0  0  0  0  0  0
    4.9375   -7.1375    0.0000 H   0  0  0  0  0  0  0  0  0  0  0  0
  2  6  1  0
  3  1  1  0
  4  1  1  0
  5  4  1  0
  6 18  1  0
  7  3  1  0
  5  8  1  1
  9 12  1  0
 10 17  1  0
 11  3  1  0
 12  2  1  0
 13  2  1  0
  9 14  1  1
 15  1  1  0
  4 16  1  1
 17 13  1  0
 18 15  1  0
 10 19  1  6
 20  7  1  0
 21 16  1  0
 22 19  1  0
 23 20  1  0
 24 22  2  0
 25 21  2  0
 26 27  1  0
 27  8  1  0
 28 26  2  0
  1 29  1  1
  2 30  1  1
 31  8  1  0
 32  8  1  0
 33 14  1  0
 34 14  1  0
 35 21  1  0
 36 22  1  0
 37 32  1  0
 38 31  1  0
 39 35  1  0
 40 33  1  0
 41 34  1  0
 42 40  1  0
 43 38  1  0
 13 44  1  6
  6 45  1  6
  3 46  1  6
  7 47  1  1
  5 11  1  0
  6  7  1  0
 23 13  1  0
 43 37  1  0
 10  9  1  0
 42 41  1  0
M  CHG  1   8   1
M  END
> <chembl_id>
CHEMBL1201352

> <chembl_pref_name>
RAPACURONIUM
