
     RDKit          2D

 38 39  0  0  0  0  0  0  0  0999 V2000
   11.3083   -4.1542    0.0000 C   0  0  0  0  0  0  0  0  0  0  0  0
   10.0792   -4.1542    0.0000 C   0  0  0  0  0  0  0  0  0  0  0  0
   11.9208   -3.8000    0.0000 C   0  0  0  0  0  0  0  0  0  0  0  0
   10.6958   -3.8000    0.0000 C   0  0  0  0  0  0  0  0  0  0  0  0
   10.0792   -4.8625    0.0000 O   0  0  0  0  0  0  0  0  0  0  0  0
   11.9208   -3.0917    0.0000 O   0  0  0  0  0  0  0  0  0  0  0  0
    9.4667   -3.8000    0.0000 O   0  0  0  0  0  0  0  0  0  0  0  0
   12.5333   -4.1542    0.0000 O   0  0  0  0  0  0  0  0  0  0  0  0
   10.6958   -3.0917    0.0000 O   0  0  0  0  0  0  0  0  0  0  0  0
    6.9417   -2.3667    0.0000 C   0  0  0  0  0  0  0  0  0  0  0  0
    6.6792   -2.9542    0.0000 C   0  0  0  0  0  0  0  0  0  0  0  0
    5.9667   -3.1417    0.0000 N   0  0  0  0  0  0  0  0  0  0  0  0
    5.9292   -1.6042    0.0000 S   0  0  0  0  0  0  0  0  0  0  0  0
    6.6042   -1.7042    0.0000 C   0  0  0  0  0  0  0  0  0  0  0  0
    5.4042   -2.6667    0.0000 C   0  0  0  0  0  0  0  0  0  0  0  0
    5.4042   -2.0292    0.0000 C   0  0  0  0  0  0  0  0  0  0  0  0
    7.7167   -2.3667    0.0000 O   0  0  0  0  0  0  0  0  0  0  0  0
    5.9667   -3.9917    0.0000 C   0  0  0  0  0  0  0  0  0  0  0  0
    7.2292   -1.3042    0.0000 C   0  0  0  0  0  0  0  0  0  0  0  0
    8.2917   -2.7167    0.0000 C   0  0  0  0  0  0  0  0  0  0  0  0
    7.1667   -3.4792    0.0000 O   0  0  0  0  0  0  0  0  0  0  0  0
    8.2917   -3.4167    0.0000 O   0  0  0  0  0  0  0  0  0  0  0  0
    7.8292   -1.6167    0.0000 C   0  0  0  0  0  0  0  0  0  0  0  0
    7.2292   -0.5917    0.0000 C   0  0  0  0  0  0  0  0  0  0  0  0
    6.6167   -4.3792    0.0000 C   0  0  0  0  0  0  0  0  0  0  0  0
    6.6167   -5.1292    0.0000 N   0  0  0  0  0  0  0  0  0  0  0  0
    8.4042   -0.5917    0.0000 C   0  0  0  0  0  0  0  0  0  0  0  0
    7.8292   -0.2292    0.0000 C   0  0  0  0  0  0  0  0  0  0  0  0
    8.4042   -1.2792    0.0000 C   0  0  0  0  0  0  0  0  0  0  0  0
    4.7667   -3.0417    0.0000 C   0  0  0  0  0  0  0  0  0  0  0  0
    8.9792   -0.2542    0.0000 O   0  0  0  0  0  0  0  0  0  0  0  0
    4.7667   -1.6417    0.0000 C   0  0  0  0  0  0  0  0  0  0  0  0
    8.9167   -2.3667    0.0000 C   0  0  0  0  0  0  0  0  0  0  0  0
    7.2417   -5.4667    0.0000 C   0  0  0  0  0  0  0  0  0  0  0  0
    6.0417   -5.4292    0.0000 C   0  0  0  0  0  0  0  0  0  0  0  0
    9.6292   -0.5917    0.0000 C   0  0  0  0  0  0  0  0  0  0  0  0
    4.1417   -2.7167    0.0000 C   0  0  0  0  0  0  0  0  0  0  0  0
    4.1417   -1.9792    0.0000 C   0  0  0  0  0  0  0  0  0  0  0  0
  2  4  1  0
  3  1  1  0
  4  1  1  0
  5  2  2  0
  6  3  2  0
  7  2  1  0
  8  3  1  0
  9  4  1  0
 11 10  1  0
 12 11  1  0
 13 14  1  0
 14 10  1  0
 15 12  1  0
 16 13  1  0
 10 17  1  1
 18 12  1  0
 14 19  1  1
 20 17  1  0
 21 11  2  0
 22 20  2  0
 23 19  2  0
 24 19  1  0
 25 18  1  0
 26 25  1  0
 27 28  1  0
 28 24  2  0
 29 23  1  0
 30 15  1  0
 31 27  1  0
 32 16  1  0
 33 20  1  0
 34 26  1  0
 35 26  1  0
 36 31  1  0
 37 30  2  0
 38 32  2  0
 15 16  2  0
 27 29  2  0
 37 38  1  0
M  END
> <chembl_id>
CHEMBL1200805

> <chembl_pref_name>
DILTIAZEM MALATE
