
     RDKit          2D

 74 79  0  0  1  0  0  0  0  0999 V2000
    9.7500   -2.3000    0.0000 N   0  0  0  0  0  0  0  0  0  0  0  0
   -0.5958   -1.9667    0.0000 N   0  0  0  0  0  0  0  0  0  0  0  0
   10.9750   -2.3000    0.0000 C   0  0  0  0  0  0  0  0  0  0  0  0
   -1.8458   -1.9667    0.0000 C   0  0  0  0  0  0  0  0  0  0  0  0
   -1.2333   -2.3375    0.0000 C   0  0  0  0  0  0  0  0  0  0  0  0
   10.3542   -1.9292    0.0000 C   0  0  0  0  0  0  0  0  0  0  0  0
   10.9750   -3.0000    0.0000 C   0  0  0  0  0  0  0  0  0  0  0  0
   -1.8458   -1.2292    0.0000 C   0  0  0  0  0  0  0  0  0  0  0  0
    8.5167    0.0208    0.0000 C   0  0  0  0  0  0  0  0  0  0  0  0
    0.6167   -4.0417    0.0000 C   0  0  0  0  0  0  0  0  0  0  0  0
   -2.4708   -2.3000    0.0000 C   0  0  0  0  0  0  0  0  0  0  0  0
   11.6042   -1.9292    0.0000 C   0  0  0  0  0  0  0  0  0  0  0  0
    9.1417    0.3750    0.0000 C   0  0  0  0  0  0  0  0  0  0  0  0
    0.0417   -4.4167    0.0000 C   0  0  0  0  0  0  0  0  0  0  0  0
    0.6167   -3.3417    0.0000 C   0  0  0  0  0  0  0  0  0  0  0  0
    8.5167   -0.7167    0.0000 C   0  0  0  0  0  0  0  0  0  0  0  0
   -3.0625   -1.9667    0.0000 C   0  0  0  0  0  0  0  0  0  0  0  0
   12.2000   -2.3000    0.0000 C   0  0  0  0  0  0  0  0  0  0  0  0
    9.7875   -0.7375    0.0000 C   0  0  0  0  0  0  0  0  0  0  0  0
   -0.6125   -3.3417    0.0000 C   0  0  0  0  0  0  0  0  0  0  0  0
   11.6042   -3.3417    0.0000 C   0  0  0  0  0  0  0  0  0  0  0  0
   -2.4708   -0.8792    0.0000 C   0  0  0  0  0  0  0  0  0  0  0  0
   -3.0625   -1.2292    0.0000 C   0  0  0  0  0  0  0  0  0  0  0  0
   12.2000   -3.0000    0.0000 C   0  0  0  0  0  0  0  0  0  0  0  0
   -1.2333   -3.0000    0.0000 C   0  0  0  0  0  0  0  0  0  0  0  0
   10.3542   -1.1167    0.0000 C   0  0  0  0  0  0  0  0  0  0  0  0
   -0.5958   -1.2292    0.0000 C   0  0  0  0  0  0  0  0  0  0  0  0
    9.7500   -3.0000    0.0000 C   0  0  0  0  0  0  0  0  0  0  0  0
    9.1417   -1.1000    0.0000 C   0  0  0  0  0  0  0  0  0  0  0  0
    9.7542   -0.0167    0.0000 C   0  0  0  0  0  0  0  0  0  0  0  0
   -0.6125   -4.0417    0.0000 C   0  0  0  0  0  0  0  0  0  0  0  0
   -0.0208   -2.9792    0.0000 C   0  0  0  0  0  0  0  0  0  0  0  0
    6.6792   -1.9667    0.0000 C   0  0  0  0  0  0  0  0  0  0  0  0
    2.4750   -2.2875    0.0000 C   0  0  0  0  0  0  0  0  0  0  0  0
   -1.2333   -0.8792    0.0000 C   0  0  0  0  0  0  0  0  0  0  0  0
   10.3542   -3.3417    0.0000 C   0  0  0  0  0  0  0  0  0  0  0  0
    2.4750   -3.0000    0.0000 O   0  0  0  0  0  0  0  0  0  0  0  0
    6.6792   -1.3125    0.0000 O   0  0  0  0  0  0  0  0  0  0  0  0
    4.2417   -1.9667    0.0000 C   0  0  0  0  0  0  0  0  0  0  0  0
    4.8292   -2.2667    0.0000 C   0  0  0  0  0  0  0  0  0  0  0  0
    0.0167   -2.2667    0.0000 C   0  0  0  0  0  0  0  0  0  0  0  0
    9.1250   -1.9667    0.0000 C   0  0  0  0  0  0  0  0  0  0  0  0
    7.8917    0.3250    0.0000 O   0  0  0  0  0  0  0  0  0  0  0  0
    1.2250   -4.3917    0.0000 O   0  0  0  0  0  0  0  0  0  0  0  0
    1.2250   -2.9417    0.0000 O   0  0  0  0  0  0  0  0  0  0  0  0
    9.1417    1.0375    0.0000 O   0  0  0  0  0  0  0  0  0  0  0  0
    7.8542   -1.1000    0.0000 O   0  0  0  0  0  0  0  0  0  0  0  0
    0.0417   -5.0917    0.0000 O   0  0  0  0  0  0  0  0  0  0  0  0
    0.0167   -1.6042    0.0000 C   0  0  0  0  0  0  0  0  0  0  0  0
    9.1292   -2.6500    0.0000 C   0  0  0  0  0  0  0  0  0  0  0  0
   12.8167   -1.9667    0.0000 O   0  0  0  0  0  0  0  0  0  0  0  0
   -3.7458   -2.3375    0.0000 O   0  0  0  0  0  0  0  0  0  0  0  0
   12.8167   -3.3667    0.0000 O   0  0  0  0  0  0  0  0  0  0  0  0
   -3.6833   -0.8625    0.0000 O   0  0  0  0  0  0  0  0  0  0  0  0
    1.8417   -1.9667    0.0000 O   0  0  0  0  0  0  0  0  0  0  0  0
    7.3125   -2.3000    0.0000 O   0  0  0  0  0  0  0  0  0  0  0  0
    8.5167   -2.3000    0.0000 C   0  0  0  0  0  0  0  0  0  0  0  0
    0.6167   -1.9667    0.0000 C   0  0  0  0  0  0  0  0  0  0  0  0
    6.0792   -2.3375    0.0000 C   0  0  0  0  0  0  0  0  0  0  0  0
    3.0417   -1.9667    0.0000 C   0  0  0  0  0  0  0  0  0  0  0  0
    3.6375   -2.2667    0.0000 C   0  0  0  0  0  0  0  0  0  0  0  0
    5.4875   -1.9667    0.0000 C   0  0  0  0  0  0  0  0  0  0  0  0
    1.2250   -2.2875    0.0000 C   0  0  0  0  0  0  0  0  0  0  0  0
    7.9250   -1.9667    0.0000 C   0  0  0  0  0  0  0  0  0  0  0  0
    7.1917    0.0583    0.0000 C   0  0  0  0  0  0  0  0  0  0  0  0
    1.8417   -4.0417    0.0000 C   0  0  0  0  0  0  0  0  0  0  0  0
    7.2250   -0.7375    0.0000 C   0  0  0  0  0  0  0  0  0  0  0  0
    0.6417   -5.4542    0.0000 C   0  0  0  0  0  0  0  0  0  0  0  0
    1.8667   -3.3125    0.0000 C   0  0  0  0  0  0  0  0  0  0  0  0
    8.5167    1.4125    0.0000 C   0  0  0  0  0  0  0  0  0  0  0  0
   13.4417   -3.0000    0.0000 C   0  0  0  0  0  0  0  0  0  0  0  0
   13.4417   -2.3000    0.0000 C   0  0  0  0  0  0  0  0  0  0  0  0
   -4.3458   -1.9917    0.0000 C   0  0  0  0  0  0  0  0  0  0  0  0
   -4.3458   -1.2792    0.0000 C   0  0  0  0  0  0  0  0  0  0  0  0
  2 41  1  0
  3  6  1  0
  4  5  1  0
  5  2  1  0
  6  1  1  0
  7 36  1  0
  8 35  1  0
  9 13  2  0
 10 15  2  0
 11  4  1  0
 12  3  1  0
 13 30  1  0
 14 31  2  0
 15 32  1  0
 16 29  2  0
 17 11  2  0
 18 12  2  0
 19 26  1  0
 20 25  1  0
 21  7  1  0
 22  8  1  0
 23 22  2  0
 24 21  2  0
  5 25  1  6
  6 26  1  6
 27  2  1  0
 28  1  1  0
 29 19  1  0
 30 19  2  0
 31 20  1  0
 32 20  2  0
 33 56  1  0
 34 60  1  0
 35 27  1  0
 36 28  1  0
 37 34  2  0
 38 33  2  0
 39 40  2  0
 40 62  1  0
 41 58  1  0
 42  1  1  0
 43  9  1  0
 44 10  1  0
 45 15  1  0
 46 13  1  0
 47 16  1  0
 48 14  1  0
 49  2  1  0
 50  1  1  0
 51 18  1  0
 52 17  1  0
 53 24  1  0
 54 23  1  0
 55 34  1  0
 56 64  1  0
 57 42  1  0
 58 63  1  0
 59 33  1  0
 60 61  1  0
 61 39  1  0
 62 59  1  0
 63 55  1  0
 64 57  1  0
 65 43  1  0
 66 44  1  0
 67 47  1  0
 68 48  1  0
 69 45  1  0
 70 46  1  0
 71 53  1  0
 72 51  1  0
 73 52  1  0
 74 54  1  0
  7  3  2  0
 24 18  1  0
  9 16  1  0
  8  4  2  0
 23 17  1  0
 10 14  1  0
M  CHG  2   1   1   2   1
M  END
> <chembl_id>
CHEMBL1182833

> <chembl_pref_name>
MIVACURIUM
