
     RDKit          2D

 24 25  0  0  0  0  0  0  0  0999 V2000
   -0.7833   -0.2375    0.0000 C   0  0  0  0  0  0  0  0  0  0  0  0
    0.3292   -0.2375    0.0000 C   0  0  0  0  0  0  0  0  0  0  0  0
    1.9167    2.6833    0.0000 N   0  0  0  0  0  0  0  0  0  0  0  0
    0.8792   -1.1667    0.0000 O   0  0  0  0  0  0  0  0  0  0  0  0
   -0.7833   -1.3750    0.0000 C   0  0  0  0  0  0  0  0  0  0  0  0
   -1.8875   -0.2375    0.0000 C   0  0  0  0  0  0  0  0  0  0  0  0
   -0.7833    0.8708    0.0000 O   0  0  0  0  0  0  0  0  0  0  0  0
    0.8792    0.7583    0.0000 O   0  0  0  0  0  0  0  0  0  0  0  0
    1.9542    0.7583    0.0000 C   0  0  0  0  0  0  0  0  0  0  0  0
    2.4792    1.7458    0.0000 C   0  0  0  0  0  0  0  0  0  0  0  0
    2.8625    3.2750    0.0000 C   0  0  0  0  0  0  0  0  0  0  0  0
    1.3292    3.5958    0.0000 C   0  0  0  0  0  0  0  0  0  0  0  0
    0.9792    2.0958    0.0000 C   0  0  0  0  0  0  0  0  0  0  0  0
   -2.4458   -1.2292    0.0000 C   0  0  0  0  0  0  0  0  0  0  0  0
   -2.4458    0.6958    0.0000 C   0  0  0  0  0  0  0  0  0  0  0  0
   -1.7125   -1.9292    0.0000 C   0  0  0  0  0  0  0  0  0  0  0  0
    0.2125   -1.9292    0.0000 C   0  0  0  0  0  0  0  0  0  0  0  0
    3.7042    2.7083    0.0000 C   0  0  0  0  0  0  0  0  0  0  0  0
    0.2125   -3.0375    0.0000 C   0  0  0  0  0  0  0  0  0  0  0  0
   -3.5500   -1.2292    0.0000 C   0  0  0  0  0  0  0  0  0  0  0  0
   -3.5500    0.6958    0.0000 C   0  0  0  0  0  0  0  0  0  0  0  0
   -1.7125   -3.0375    0.0000 C   0  0  0  0  0  0  0  0  0  0  0  0
   -4.1000   -0.2375    0.0000 C   0  0  0  0  0  0  0  0  0  0  0  0
   -0.7833   -3.5917    0.0000 C   0  0  0  0  0  0  0  0  0  0  0  0
  2  1  1  0
  3 10  1  0
  4  2  2  0
  5  1  1  0
  6  1  1  0
  7  1  1  0
  8  2  1  0
  9  8  1  0
 10  9  1  0
 11  3  1  0
 12  3  1  0
 13  3  1  0
 14  6  2  0
 15  6  1  0
 16  5  2  0
 17  5  1  0
 18 11  1  0
 19 17  2  0
 20 14  1  0
 21 15  2  0
 22 16  1  0
 23 21  1  0
 24 22  2  0
 23 20  2  0
 19 24  1  0
M  CHG  1   3   1
M  END
> <chembl_id>
CHEMBL2110848

> <chembl_pref_name>
LACHESINE
