
     RDKit          2D

 43 44  0  0  0  0  0  0  0  0999 V2000
    5.7215   -2.3640    0.0000 C   0  0  0  0  0  0  0  0  0  0  0  0
    5.7070   -3.9991    0.0000 C   0  0  0  0  0  0  0  0  0  0  0  0
    5.0076   -2.7691    0.0000 C   0  0  0  0  0  0  0  0  0  0  0  0
    5.0076   -3.5940    0.0000 C   0  0  0  0  0  0  0  0  0  0  0  0
    5.7215   -1.5392    0.0000 O   0  0  0  0  0  0  0  0  0  0  0  0
    5.7070   -4.8239    0.0000 O   0  0  0  0  0  0  0  0  0  0  0  0
    6.4306   -2.7739    0.0000 O   0  0  0  0  0  0  0  0  0  0  0  0
    6.4257   -3.5940    0.0000 O   0  0  0  0  0  0  0  0  0  0  0  0
    4.9103   -6.6129    0.0000 N   0  0  0  0  0  0  0  0  0  0  0  0
    4.1868   -7.0230    0.0000 C   0  0  0  0  0  0  0  0  0  0  0  0
    4.8958   -8.2385    0.0000 S   0  0  0  0  0  0  0  0  0  0  0  0
    5.6338   -7.0519    0.0000 C   0  0  0  0  0  0  0  0  0  0  0  0
    4.2109   -7.8767    0.0000 C   0  0  0  0  0  0  0  0  0  0  0  0
    5.6049   -7.8284    0.0000 C   0  0  0  0  0  0  0  0  0  0  0  0
    3.4633   -6.5889    0.0000 C   0  0  0  0  0  0  0  0  0  0  0  0
    3.4633   -4.1144    0.0000 N   0  0  0  0  0  0  0  0  0  0  0  0
    2.0452   -3.3186    0.0000 N   0  0  0  0  0  0  0  0  0  0  0  0
    3.4922   -8.2915    0.0000 C   0  0  0  0  0  0  0  0  0  0  0  0
    4.8910   -5.7640    0.0000 C   0  0  0  0  0  0  0  0  0  0  0  0
    2.7494   -7.0085    0.0000 C   0  0  0  0  0  0  0  0  0  0  0  0
    2.0596   -4.1578    0.0000 C   0  0  0  0  0  0  0  0  0  0  0  0
    2.7542   -2.8989    0.0000 C   0  0  0  0  0  0  0  0  0  0  0  0
    3.4873   -3.3330    0.0000 C   0  0  0  0  0  0  0  0  0  0  0  0
    2.7494   -4.5292    0.0000 C   0  0  0  0  0  0  0  0  0  0  0  0
    4.2013   -5.3974    0.0000 C   0  0  0  0  0  0  0  0  0  0  0  0
    2.0596   -6.6323    0.0000 S   0  0  0  0  0  0  0  0  0  0  0  0
    2.7590   -7.8478    0.0000 C   0  0  0  0  0  0  0  0  0  0  0  0
    4.1868   -4.5485    0.0000 C   0  0  0  0  0  0  0  0  0  0  0  0
    6.3429   -6.6323    0.0000 C   0  0  0  0  0  0  0  0  0  0  0  0
    6.3380   -8.2626    0.0000 C   0  0  0  0  0  0  0  0  0  0  0  0
    1.3168   -2.8796    0.0000 C   0  0  0  0  0  0  0  0  0  0  0  0
    1.3361   -7.0470    0.0000 C   0  0  0  0  0  0  0  0  0  0  0  0
    7.0326   -7.0036    0.0000 C   0  0  0  0  0  0  0  0  0  0  0  0
    0.6512   -6.6757    0.0000 C   0  0  0  0  0  0  0  0  0  0  0  0
    7.0470   -7.8478    0.0000 C   0  0  0  0  0  0  0  0  0  0  0  0
    8.5423   -4.8090    0.0000 C   0  0  0  0  0  0  0  0  0  0  0  0
    8.5279   -6.4442    0.0000 C   0  0  0  0  0  0  0  0  0  0  0  0
    7.8284   -5.2142    0.0000 C   0  0  0  0  0  0  0  0  0  0  0  0
    7.8284   -6.0390    0.0000 C   0  0  0  0  0  0  0  0  0  0  0  0
    8.5423   -3.9842    0.0000 O   0  0  0  0  0  0  0  0  0  0  0  0
    8.5279   -7.2690    0.0000 O   0  0  0  0  0  0  0  0  0  0  0  0
    9.2514   -5.2189    0.0000 O   0  0  0  0  0  0  0  0  0  0  0  0
    9.2465   -6.0390    0.0000 O   0  0  0  0  0  0  0  0  0  0  0  0
  2  4  1  0
  3  1  1  0
  4  3  2  0
  5  1  2  0
  6  2  2  0
  7  1  1  0
  8  2  1  0
 10  9  1  0
 11 14  1  0
 12  9  1  0
 13 10  2  0
 14 12  2  0
 15 10  1  0
 16 28  1  0
 17 21  1  0
 18 13  1  0
 19  9  1  0
 20 15  2  0
 21 24  1  0
 22 23  1  0
 23 16  1  0
 24 16  1  0
 25 19  1  0
 26 20  1  0
 27 20  1  0
 28 25  1  0
 29 12  1  0
 30 14  1  0
 31 17  1  0
 32 26  1  0
 33 29  2  0
 34 32  1  0
 35 30  2  0
 13 11  1  0
 33 35  1  0
 18 27  2  0
 22 17  1  0
 37 39  1  0
 38 36  1  0
 39 38  2  0
 40 36  2  0
 41 37  2  0
 42 36  1  0
 43 37  1  0
M  END
> <chembl_id>
CHEMBL3989478

> <chembl_pref_name>
THIETHYLPERAZINE MALEATE
