
     RDKit          2D

 36 41  0  0  0  0  0  0  0  0999 V2000
   -3.2936    2.0572    0.0000 O   0  0  0  0  0  0  0  0  0  0  0  0
   -4.0905    2.2707    0.0000 C   0  0  0  0  0  0  0  0  0  0  0  0
   -4.5398    1.5788    0.0000 C   0  0  0  0  0  0  0  0  0  0  0  0
   -4.0206    0.9377    0.0000 N   0  0  0  0  0  0  0  0  0  0  0  0
   -3.2504    1.2333    0.0000 C   0  0  0  0  0  0  0  0  0  0  0  0
   -1.0452    2.3570    0.0000 C   0  0  0  0  0  0  0  0  0  0  0  0
   -1.7803    1.9824    0.0000 C   0  0  0  0  0  0  0  0  0  0  0  0
   -1.8235    1.1585    0.0000 C   0  0  0  0  0  0  0  0  0  0  0  0
   -1.1316    0.7092    0.0000 C   0  0  0  0  0  0  0  0  0  0  0  0
   -0.3965    1.0838    0.0000 C   0  0  0  0  0  0  0  0  0  0  0  0
   -0.3533    1.9077    0.0000 C   0  0  0  0  0  0  0  0  0  0  0  0
    0.3818    2.2822    0.0000 N   0  0  0  0  0  0  0  0  0  0  0  0
    0.2954    0.6344    0.0000 C   0  0  0  0  0  0  0  0  0  0  0  0
    1.0305    1.0090    0.0000 N   0  0  0  0  0  0  0  0  0  0  0  0
    1.0737    1.8329    0.0000 C   0  0  0  0  0  0  0  0  0  0  0  0
    1.7656   -0.1146    0.0000 C   0  0  0  0  0  0  0  0  0  0  0  0
    1.0737   -0.5640    0.0000 C   0  0  0  0  0  0  0  0  0  0  0  0
    1.1169   -1.3879    0.0000 C   0  0  0  0  0  0  0  0  0  0  0  0
    1.8519   -1.7624    0.0000 C   0  0  0  0  0  0  0  0  0  0  0  0
    2.5438   -1.3131    0.0000 C   0  0  0  0  0  0  0  0  0  0  0  0
    2.5006   -0.4892    0.0000 C   0  0  0  0  0  0  0  0  0  0  0  0
    3.1925   -0.0399    0.0000 C   0  0  0  0  0  0  0  0  0  0  0  0
    3.2789   -1.6876    0.0000 O   0  0  0  0  0  0  0  0  0  0  0  0
    3.9708   -1.2383    0.0000 C   0  0  0  0  0  0  0  0  0  0  0  0
    3.9276   -0.4144    0.0000 C   0  0  0  0  0  0  0  0  0  0  0  0
    4.6195    0.0349    0.0000 C   0  0  0  0  0  0  0  0  0  0  0  0
    4.7059   -1.6128    0.0000 C   0  0  0  0  0  0  0  0  0  0  0  0
    5.3978   -1.1635    0.0000 C   0  0  0  0  0  0  0  0  0  0  0  0
    5.3546   -0.3396    0.0000 N   0  0  0  0  0  0  0  0  0  0  0  0
    5.5634    0.9788    0.0000 C   0  0  0  0  0  0  0  0  0  0  0  0
    4.7486    0.8497    0.0000 N   0  0  0  0  0  0  0  0  0  0  0  0
    5.9379    0.2437    0.0000 N   0  0  0  0  0  0  0  0  0  0  0  0
   -2.5585    0.7840    0.0000 N   0  0  0  0  0  0  0  0  0  0  0  0
   -5.2073    1.0939    0.0000 C   0  0  0  0  0  0  0  0  0  0  0  0
   -5.2073    2.0638    0.0000 C   0  0  0  0  0  0  0  0  0  0  0  0
    0.3386   -0.1894    0.0000 N   0  0  0  0  0  0  0  0  0  0  0  0
  1  2  1  0
  2  3  1  0
  3  4  1  0
  4  5  2  0
  1  5  1  0
  6  7  2  0
  7  8  1  0
  8  9  2  0
  9 10  1  0
 10 11  2  0
  6 11  1  0
 13 14  2  0
 14 15  1  0
 12 15  2  0
 10 13  1  0
 12 11  1  0
 16 17  1  0
 17 18  2  0
 18 19  1  0
 19 20  2  0
 20 21  1  0
 16 21  2  0
 23 24  1  0
 20 23  1  0
 22 21  1  0
 27 28  2  0
 28 29  1  0
 24 27  1  0
 26 25  1  0
 25 24  2  0
 30 31  1  0
 30 32  2  0
 31 26  2  0
 29 32  1  0
 26 29  1  0
  5 33  1  0
 33  8  1  0
  3 34  1  0
  3 35  1  0
 13 36  1  0
 36 17  1  0
M  END
> <chembl_id>
CHEMBL3989868

> <chembl_pref_name>
TUCATINIB
