
     RDKit          2D

 40 43  0  0  0  0  0  0  0  0999 V2000
   -0.5080    4.3856    0.0000 N   0  0  0  0  0  0  0  0  0  0  0  0
   -0.0955    3.6711    0.0000 C   0  0  0  0  0  0  0  0  0  0  0  0
    0.7295    3.6711    0.0000 C   0  0  0  0  0  0  0  0  0  0  0  0
    1.1420    2.9566    0.0000 C   0  0  0  0  0  0  0  0  0  0  0  0
    0.7295    2.2422    0.0000 C   0  0  0  0  0  0  0  0  0  0  0  0
   -0.0955    2.2422    0.0000 C   0  0  0  0  0  0  0  0  0  0  0  0
   -0.5080    2.9566    0.0000 C   0  0  0  0  0  0  0  0  0  0  0  0
    1.1420    1.5277    0.0000 S   0  0  0  0  0  0  0  0  0  0  0  0
    1.8565    1.9402    0.0000 O   0  0  0  0  0  0  0  0  0  0  0  0
    0.4276    1.1152    0.0000 O   0  0  0  0  0  0  0  0  0  0  0  0
    1.5545    0.8132    0.0000 N   0  0  0  0  0  0  0  0  0  0  0  0
    2.3795    0.8132    0.0000 C   0  0  0  0  0  0  0  0  0  0  0  0
    2.7920    1.5277    0.0000 C   0  0  0  0  0  0  0  0  0  0  0  0
    2.3795    2.2422    0.0000 C   0  0  0  0  0  0  0  0  0  0  0  0
    3.6170    1.5277    0.0000 C   0  0  0  0  0  0  0  0  0  0  0  0
    1.1420    0.0988    0.0000 C   0  0  0  0  0  0  0  0  0  0  0  0
    0.3170    0.0988    0.0000 C   0  0  0  0  0  0  0  0  0  0  0  0
   -0.0955    0.8132    0.0000 O   0  0  0  0  0  0  0  0  0  0  0  0
   -0.0955   -0.6157    0.0000 C   0  0  0  0  0  0  0  0  0  0  0  0
   -0.9205   -0.6157    0.0000 N   0  0  0  0  0  0  0  0  0  0  0  0
   -1.3330   -1.3302    0.0000 C   0  0  0  0  0  0  0  0  0  0  0  0
   -0.9205   -2.0447    0.0000 O   0  0  0  0  0  0  0  0  0  0  0  0
   -2.1580   -1.3302    0.0000 O   0  0  0  0  0  0  0  0  0  0  0  0
   -2.5705   -2.0447    0.0000 C   0  0  0  0  0  0  0  0  0  0  0  0
   -2.2349   -2.7983    0.0000 C   0  0  0  0  0  0  0  0  0  0  0  0
   -2.8480   -3.3504    0.0000 O   0  0  0  0  0  0  0  0  0  0  0  0
   -3.5625   -2.9379    0.0000 C   0  0  0  0  0  0  0  0  0  0  0  0
   -4.3829   -3.0241    0.0000 O   0  0  0  0  0  0  0  0  0  0  0  0
   -4.7185   -2.2704    0.0000 C   0  0  0  0  0  0  0  0  0  0  0  0
   -4.1054   -1.7184    0.0000 C   0  0  0  0  0  0  0  0  0  0  0  0
   -3.3909   -2.1309    0.0000 C   0  0  0  0  0  0  0  0  0  0  0  0
    0.3170   -1.3302    0.0000 C   0  0  0  0  0  0  0  0  0  0  0  0
    1.5545   -0.6157    0.0000 C   0  0  0  0  0  0  0  0  0  0  0  0
    2.3795   -0.6157    0.0000 C   0  0  0  0  0  0  0  0  0  0  0  0
    2.7920   -1.3302    0.0000 C   0  0  0  0  0  0  0  0  0  0  0  0
    2.3795   -2.0447    0.0000 C   0  0  0  0  0  0  0  0  0  0  0  0
    1.5545   -2.0447    0.0000 C   0  0  0  0  0  0  0  0  0  0  0  0
    1.1420   -1.3302    0.0000 C   0  0  0  0  0  0  0  0  0  0  0  0
   -3.1830   -1.1528    0.0000 H   0  0  0  0  0  0  0  0  0  0  0  0
   -3.7704   -3.9160    0.0000 H   0  0  0  0  0  0  0  0  0  0  0  0
  2  1  1  0
  2  3  2  0
  2  7  1  0
  3  4  1  0
  4  5  2  0
  5  6  1  0
  5  8  1  0
  6  7  2  0
  9  8  2  0
 10  8  2  0
 11  8  1  0
 12 11  1  0
 16 11  1  0
 12 13  1  0
 13 14  1  0
 13 15  1  0
 16 17  1  0
 17 18  1  6
 17 19  1  0
 19 20  1  6
 19 32  1  0
 21 20  1  0
 21 22  2  0
 21 23  1  0
 24 23  1  1
 24 25  1  0
 24 31  1  0
 25 26  1  0
 27 26  1  0
 27 28  1  0
 27 31  1  0
 29 28  1  0
 29 30  1  0
 31 30  1  0
 32 38  1  0
 33 34  2  0
 33 38  1  0
 34 35  1  0
 35 36  2  0
 36 37  1  0
 37 38  2  0
 31 39  1  6
 27 40  1  6
M  END
> <chembl_id>
CHEMBL1323

> <chembl_pref_name>
DARUNAVIR
