
     RDKit          2D

 23 26  0  0  0  0  0  0  0  0999 V2000
   -0.1625   -0.6667    0.0000 C   0  0  0  0  0  0  0  0  0  0  0  0
   -1.3458   -0.6667    0.0000 N   0  0  0  0  0  0  0  0  0  0  0  0
    0.5875   -1.5792    0.0000 C   0  0  0  0  0  0  0  0  0  0  0  0
    0.3375    0.3833    0.0000 N   0  0  0  0  0  0  0  0  0  0  0  0
    0.3417   -2.7375    0.0000 C   0  0  0  0  0  0  0  0  0  0  0  0
   -0.7000   -3.2542    0.0000 O   0  0  0  0  0  0  0  0  0  0  0  0
   -2.0458   -1.5917    0.0000 C   0  0  0  0  0  0  0  0  0  0  0  0
   -1.7625   -2.7500    0.0000 C   0  0  0  0  0  0  0  0  0  0  0  0
    1.3000    2.5208    0.0000 N   0  0  0  0  0  0  0  0  0  0  0  0
    1.7375   -1.2042    0.0000 C   0  0  0  0  0  0  0  0  0  0  0  0
    1.5000    0.4625    0.0000 C   0  0  0  0  0  0  0  0  0  0  0  0
   -0.3458    1.3083    0.0000 C   0  0  0  0  0  0  0  0  0  0  0  0
    1.2542   -3.5250    0.0000 C   0  0  0  0  0  0  0  0  0  0  0  0
    2.0042    1.5083    0.0000 C   0  0  0  0  0  0  0  0  0  0  0  0
    0.1417    2.4000    0.0000 C   0  0  0  0  0  0  0  0  0  0  0  0
    2.6167   -2.0000    0.0000 C   0  0  0  0  0  0  0  0  0  0  0  0
    2.3792   -3.1500    0.0000 C   0  0  0  0  0  0  0  0  0  0  0  0
    3.7375   -1.6500    0.0000 Cl  0  0  0  0  0  0  0  0  0  0  0  0
    1.7250    3.5958    0.0000 C   0  0  0  0  0  0  0  0  0  0  0  0
   -3.2000   -1.2750    0.0000 C   0  0  0  0  0  0  0  0  0  0  0  0
   -2.6375   -3.5917    0.0000 C   0  0  0  0  0  0  0  0  0  0  0  0
   -4.0625   -2.0917    0.0000 C   0  0  0  0  0  0  0  0  0  0  0  0
   -3.7833   -3.2417    0.0000 C   0  0  0  0  0  0  0  0  0  0  0  0
  2  1  2  0
  3  1  1  0
  4  1  1  0
  5  3  2  0
  6  5  1  0
  7  2  1  0
  8  7  2  0
  9 15  1  0
 10  3  1  0
 11  4  1  0
 12  4  1  0
 13  5  1  0
 14 11  1  0
 15 12  1  0
 16 10  2  0
 17 16  1  0
 18 16  1  0
 19  9  1  0
 20  7  1  0
 21  8  1  0
 22 20  2  0
 23 22  1  0
 14  9  1  0
  6  8  1  0
 13 17  2  0
 21 23  2  0
M  END
> <chembl_id>
CHEMBL831

> <chembl_pref_name>
LOXAPINE
