
     RDKit          2D

 54 58  0  0  0  0  0  0  0  0999 V2000
   -7.1647   -1.1489    0.0000 N   0  0  0  0  0  0  0  0  0  0  0  0
   -7.6838   -1.7901    0.0000 C   0  0  0  0  0  0  0  0  0  0  0  0
   -7.2345   -2.4819    0.0000 S   0  0  0  0  0  0  0  0  0  0  0  0
   -6.4376   -2.2684    0.0000 C   0  0  0  0  0  0  0  0  0  0  0  0
   -6.3945   -1.4446    0.0000 C   0  0  0  0  0  0  0  0  0  0  0  0
   -8.5077   -1.7469    0.0000 C   0  0  0  0  0  0  0  0  0  0  0  0
   -8.9570   -2.4388    0.0000 C   0  0  0  0  0  0  0  0  0  0  0  0
   -8.8823   -1.0118    0.0000 C   0  0  0  0  0  0  0  0  0  0  0  0
   -5.7026   -0.9953    0.0000 C   0  0  0  0  0  0  0  0  0  0  0  0
   -4.9881   -1.4078    0.0000 N   0  0  0  0  0  0  0  0  0  0  0  0
   -4.2736   -0.9953    0.0000 C   0  0  0  0  0  0  0  0  0  0  0  0
   -3.5592   -1.4078    0.0000 N   0  0  0  0  0  0  0  0  0  0  0  0
   -4.2736   -0.1703    0.0000 O   0  0  0  0  0  0  0  0  0  0  0  0
   -2.8447   -0.9953    0.0000 C   0  0  0  0  0  0  0  0  0  0  0  0
   -2.1302   -1.4078    0.0000 C   0  0  0  0  0  0  0  0  0  0  0  0
   -1.4157   -0.9953    0.0000 N   0  0  0  0  0  0  0  0  0  0  0  0
   -2.1302   -2.2328    0.0000 O   0  0  0  0  0  0  0  0  0  0  0  0
   -0.7013   -1.4078    0.0000 C   0  0  0  0  0  0  0  0  0  0  0  0
    0.0132   -0.9953    0.0000 C   0  0  0  0  0  0  0  0  0  0  0  0
    0.7277   -1.4078    0.0000 C   0  0  0  0  0  0  0  0  0  0  0  0
    1.4421   -0.9953    0.0000 C   0  0  0  0  0  0  0  0  0  0  0  0
    2.1566   -1.4078    0.0000 N   0  0  0  0  0  0  0  0  0  0  0  0
    2.8711   -0.9953    0.0000 C   0  0  0  0  0  0  0  0  0  0  0  0
    3.5856   -1.4078    0.0000 O   0  0  0  0  0  0  0  0  0  0  0  0
    2.8711   -0.1703    0.0000 O   0  0  0  0  0  0  0  0  0  0  0  0
    4.3000   -0.9953    0.0000 C   0  0  0  0  0  0  0  0  0  0  0  0
    5.0145   -1.4078    0.0000 C   0  0  0  0  0  0  0  0  0  0  0  0
    5.1008   -2.2282    0.0000 C   0  0  0  0  0  0  0  0  0  0  0  0
    5.9077   -2.3998    0.0000 N   0  0  0  0  0  0  0  0  0  0  0  0
    6.3202   -1.6853    0.0000 C   0  0  0  0  0  0  0  0  0  0  0  0
    5.7682   -1.0722    0.0000 S   0  0  0  0  0  0  0  0  0  0  0  0
    1.4421   -0.1703    0.0000 C   0  0  0  0  0  0  0  0  0  0  0  0
    0.7277    0.2422    0.0000 C   0  0  0  0  0  0  0  0  0  0  0  0
    0.7277    1.0673    0.0000 C   0  0  0  0  0  0  0  0  0  0  0  0
    0.0132    1.4798    0.0000 C   0  0  0  0  0  0  0  0  0  0  0  0
   -0.7013    1.0672    0.0000 C   0  0  0  0  0  0  0  0  0  0  0  0
   -0.7013    0.2422    0.0000 C   0  0  0  0  0  0  0  0  0  0  0  0
    0.0132   -0.1703    0.0000 C   0  0  0  0  0  0  0  0  0  0  0  0
   -0.7013   -2.2328    0.0000 C   0  0  0  0  0  0  0  0  0  0  0  0
    0.0132   -2.6453    0.0000 C   0  0  0  0  0  0  0  0  0  0  0  0
    0.0132   -3.4703    0.0000 C   0  0  0  0  0  0  0  0  0  0  0  0
    0.7277   -3.8828    0.0000 C   0  0  0  0  0  0  0  0  0  0  0  0
    1.4421   -3.4703    0.0000 C   0  0  0  0  0  0  0  0  0  0  0  0
    1.4422   -2.6452    0.0000 C   0  0  0  0  0  0  0  0  0  0  0  0
    0.7277   -2.2327    0.0000 C   0  0  0  0  0  0  0  0  0  0  0  0
   -2.8447   -0.1703    0.0000 C   0  0  0  0  0  0  0  0  0  0  0  0
   -2.1302    0.2422    0.0000 C   0  0  0  0  0  0  0  0  0  0  0  0
   -2.1302    1.0672    0.0000 N   0  0  0  0  0  0  0  0  0  0  0  0
   -1.4157    1.4797    0.0000 C   0  0  0  0  0  0  0  0  0  0  0  0
   -1.4157    2.3048    0.0000 C   0  0  0  0  0  0  0  0  0  0  0  0
   -2.1302    2.7173    0.0000 O   0  0  0  0  0  0  0  0  0  0  0  0
   -2.8447    2.3048    0.0000 C   0  0  0  0  0  0  0  0  0  0  0  0
   -2.8447    1.4797    0.0000 C   0  0  0  0  0  0  0  0  0  0  0  0
   -4.9881   -2.2328    0.0000 C   0  0  0  0  0  0  0  0  0  0  0  0
  1  2  2  0
  1  5  1  0
  2  3  1  0
  3  4  1  0
  4  5  2  0
  2  6  1  0
  6  7  1  0
  6  8  1  0
  5  9  1  0
  9 10  1  0
 10 11  1  0
 11 12  1  0
 11 13  2  0
 12 14  1  0
 14 15  1  0
 15 16  1  0
 15 17  2  0
 16 18  1  0
 18 19  1  0
 19 20  1  0
 20 21  1  0
 21 22  1  0
 22 23  1  0
 23 24  1  0
 23 25  2  0
 24 26  1  0
 26 27  1  0
 27 28  2  0
 27 31  1  0
 28 29  1  0
 29 30  2  0
 30 31  1  0
 21 32  1  6
 32 33  1  0
 33 34  1  0
 33 38  2  0
 34 35  2  0
 35 36  1  0
 36 37  2  0
 37 38  1  0
 18 39  1  6
 39 40  1  0
 40 41  1  0
 40 45  2  0
 41 42  2  0
 42 43  1  0
 43 44  2  0
 44 45  1  0
 14 46  1  1
 46 47  1  0
 47 48  1  0
 48 49  1  0
 53 48  1  0
 49 50  1  0
 50 51  1  0
 51 52  1  0
 52 53  1  0
 10 54  1  0
M  END
> <chembl_id>
CHEMBL2095208

> <chembl_pref_name>
COBICISTAT
