
     RDKit          2D

 22 25  0  0  0  0  0  0  0  0999 V2000
    2.8042   -5.1792    0.0000 C   0  0  0  0  0  0  0  0  0  0  0  0
    2.8042   -6.6042    0.0000 S   0  0  0  0  0  0  0  0  0  0  0  0
    2.1917   -5.5375    0.0000 C   0  0  0  0  0  0  0  0  0  0  0  0
    3.4167   -5.5375    0.0000 C   0  0  0  0  0  0  0  0  0  0  0  0
    2.1917   -6.2417    0.0000 C   0  0  0  0  0  0  0  0  0  0  0  0
    3.4167   -6.2417    0.0000 C   0  0  0  0  0  0  0  0  0  0  0  0
    4.6375   -4.1167    0.0000 N   0  0  0  0  0  0  0  0  0  0  0  0
    2.8042   -4.4750    0.0000 C   0  0  0  0  0  0  0  0  0  0  0  0
    4.0167   -4.4750    0.0000 C   0  0  0  0  0  0  0  0  0  0  0  0
    3.4167   -4.1167    0.0000 C   0  0  0  0  0  0  0  0  0  0  0  0
    4.6375   -3.4042    0.0000 C   0  0  0  0  0  0  0  0  0  0  0  0
    4.0292   -5.1792    0.0000 C   0  0  0  0  0  0  0  0  0  0  0  0
    1.5792   -5.1792    0.0000 C   0  0  0  0  0  0  0  0  0  0  0  0
    4.0292   -6.6042    0.0000 C   0  0  0  0  0  0  0  0  0  0  0  0
    1.5792   -6.6042    0.0000 C   0  0  0  0  0  0  0  0  0  0  0  0
    5.2500   -4.4750    0.0000 C   0  0  0  0  0  0  0  0  0  0  0  0
    4.0167   -3.0417    0.0000 C   0  0  0  0  0  0  0  0  0  0  0  0
    3.4167   -3.4042    0.0000 C   0  0  0  0  0  0  0  0  0  0  0  0
    4.6417   -5.5375    0.0000 C   0  0  0  0  0  0  0  0  0  0  0  0
    0.9667   -5.5375    0.0000 C   0  0  0  0  0  0  0  0  0  0  0  0
    4.6417   -6.2417    0.0000 C   0  0  0  0  0  0  0  0  0  0  0  0
    0.9667   -6.2417    0.0000 C   0  0  0  0  0  0  0  0  0  0  0  0
  2  6  1  0
  3  1  1  0
  4  1  1  0
  5  3  2  0
  6  4  2  0
  7  9  1  0
  8  1  1  0
  9 10  1  0
 10  8  1  0
 11 17  1  0
 12  4  1  0
 13  3  1  0
 14  6  1  0
 15  5  1  0
 16  7  1  0
 17 18  1  0
 18 10  1  0
 19 12  2  0
 20 13  2  0
 21 19  1  0
 22 20  1  0
  2  5  1  0
 21 14  2  0
 22 15  2  0
 11  7  1  0
M  END
> <chembl_id>
CHEMBL1201342

> <chembl_pref_name>
METHIXENE
