
     RDKit          2D

 23 25  0  0  0  0  0  0  0  0999 V2000
   -2.3833   -1.5292    0.0000 C   0  0  0  0  0  0  0  0  0  0  0  0
   -2.9583   -1.1125    0.0000 C   0  0  0  0  0  0  0  0  0  0  0  0
    0.0667   -1.5250    0.0000 C   0  0  0  0  0  0  0  0  0  0  0  0
    0.0667   -2.2292    0.0000 C   0  0  0  0  0  0  0  0  0  0  0  0
    0.0667   -0.1167    0.0000 N   0  0  0  0  0  0  0  0  0  0  0  0
    1.0000    0.5583    0.0000 N   0  0  0  0  0  0  0  0  0  0  0  0
   -0.5458   -1.1792    0.0000 C   0  0  0  0  0  0  0  0  0  0  0  0
   -3.5333   -1.5292    0.0000 S   0  0  0  0  0  0  0  0  0  0  0  0
    0.2875    0.5583    0.0000 C   0  0  0  0  0  0  0  0  0  0  0  0
    0.6750   -2.5792    0.0000 C   0  0  0  0  0  0  0  0  0  0  0  0
    0.6792   -1.1667    0.0000 C   0  0  0  0  0  0  0  0  0  0  0  0
   -2.6000   -2.2042    0.0000 C   0  0  0  0  0  0  0  0  0  0  0  0
   -3.3125   -2.2042    0.0000 C   0  0  0  0  0  0  0  0  0  0  0  0
   -0.5458   -0.4667    0.0000 C   0  0  0  0  0  0  0  0  0  0  0  0
   -1.7708   -1.1792    0.0000 C   0  0  0  0  0  0  0  0  0  0  0  0
   -1.1583   -1.5292    0.0000 O   0  0  0  0  0  0  0  0  0  0  0  0
    1.2167   -0.1167    0.0000 C   0  0  0  0  0  0  0  0  0  0  0  0
    0.6417   -0.5375    0.0000 C   0  0  0  0  0  0  0  0  0  0  0  0
   -2.9583   -0.4042    0.0000 Cl  0  0  0  0  0  0  0  0  0  0  0  0
    1.2917   -2.2292    0.0000 C   0  0  0  0  0  0  0  0  0  0  0  0
   -0.5500   -2.5792    0.0000 Cl  0  0  0  0  0  0  0  0  0  0  0  0
    1.2917   -1.5167    0.0000 C   0  0  0  0  0  0  0  0  0  0  0  0
    1.9042   -2.5875    0.0000 Cl  0  0  0  0  0  0  0  0  0  0  0  0
  2  1  2  0
  3  7  1  0
  4  3  1  0
  5 14  1  0
  6  9  2  0
  7 16  1  0
  8  2  1  0
  9  5  1  0
 10  4  2  0
 11  3  2  0
 12  1  1  0
 13 12  2  0
 14  7  1  0
 15  1  1  0
 16 15  1  0
 17 18  2  0
 18  5  1  0
 19  2  1  0
 20 22  2  0
 21  4  1  0
 22 11  1  0
 23 20  1  0
 13  8  1  0
 17  6  1  0
 20 10  1  0
M  END
> <chembl_id>
CHEMBL1200438

> <chembl_pref_name>
TIOCONAZOLE
