
     RDKit          2D

 33 37  0  0  0  0  0  0  0  0999 V2000
   -5.3204    1.8351    0.0000 C   0  0  0  0  0  0  0  0  0  0  0  0
   -5.6559    1.0815    0.0000 C   0  0  0  0  0  0  0  0  0  0  0  0
   -5.0429    0.5295    0.0000 C   0  0  0  0  0  0  0  0  0  0  0  0
   -4.3284    0.9420    0.0000 C   0  0  0  0  0  0  0  0  0  0  0  0
   -4.4999    1.7489    0.0000 C   0  0  0  0  0  0  0  0  0  0  0  0
   -3.5747    0.6064    0.0000 C   0  0  0  0  0  0  0  0  0  0  0  0
   -2.9336    1.1256    0.0000 C   0  0  0  0  0  0  0  0  0  0  0  0
   -3.4456   -0.2085    0.0000 C   0  0  0  0  0  0  0  0  0  0  0  0
   -2.6754   -0.5041    0.0000 C   0  0  0  0  0  0  0  0  0  0  0  0
   -2.0343    0.0151    0.0000 C   0  0  0  0  0  0  0  0  0  0  0  0
   -2.1634    0.8299    0.0000 C   0  0  0  0  0  0  0  0  0  0  0  0
   -4.0868   -0.7276    0.0000 C   0  0  0  0  0  0  0  0  0  0  0  0
   -4.7279   -1.2468    0.0000 F   0  0  0  0  0  0  0  0  0  0  0  0
   -4.0546   -1.4662    0.0000 F   0  0  0  0  0  0  0  0  0  0  0  0
   -4.8787   -0.5930    0.0000 F   0  0  0  0  0  0  0  0  0  0  0  0
   -1.2992   -0.3595    0.0000 C   0  0  0  0  0  0  0  0  0  0  0  0
   -0.6073    0.0899    0.0000 O   0  0  0  0  0  0  0  0  0  0  0  0
    0.1464   -0.2457    0.0000 C   0  0  0  0  0  0  0  0  0  0  0  0
    0.8608    0.1668    0.0000 C   0  0  0  0  0  0  0  0  0  0  0  0
    0.1464   -1.0707    0.0000 C   0  0  0  0  0  0  0  0  0  0  0  0
    0.8608   -1.4832    0.0000 C   0  0  0  0  0  0  0  0  0  0  0  0
    1.5753   -1.0707    0.0000 C   0  0  0  0  0  0  0  0  0  0  0  0
    1.5753   -0.2457    0.0000 C   0  0  0  0  0  0  0  0  0  0  0  0
    2.3599    0.0092    0.0000 C   0  0  0  0  0  0  0  0  0  0  0  0
    2.3599   -1.3257    0.0000 N   0  0  0  0  0  0  0  0  0  0  0  0
    2.8448   -0.6583    0.0000 C   0  0  0  0  0  0  0  0  0  0  0  0
    2.8448    0.6766    0.0000 C   0  0  0  0  0  0  0  0  0  0  0  0
    3.6294   -0.4033    0.0000 C   0  0  0  0  0  0  0  0  0  0  0  0
    3.6294    0.4216    0.0000 C   0  0  0  0  0  0  0  0  0  0  0  0
    4.3439   -0.8158    0.0000 C   0  0  0  0  0  0  0  0  0  0  0  0
    5.0790   -0.4413    0.0000 C   0  0  0  0  0  0  0  0  0  0  0  0
    5.7709   -0.8906    0.0000 O   0  0  0  0  0  0  0  0  0  0  0  0
    5.1222    0.3826    0.0000 O   0  0  0  0  0  0  0  0  0  0  0  0
  1  2  1  0
  2  3  1  0
  3  4  1  0
  4  5  1  0
  1  5  1  0
  4  6  1  0
  8  9  1  0
  9 10  2  0
 10 11  1  0
  7 11  2  0
  7  6  1  0
  6  8  2  0
  8 12  1  0
 12 13  1  0
 12 14  1  0
 12 15  1  0
 10 16  1  0
 16 17  1  0
 17 18  1  0
 20 21  2  0
 21 22  1  0
 22 23  2  0
 19 23  1  0
 19 18  2  0
 18 20  1  0
 25 26  1  0
 24 26  2  0
 22 25  1  0
 24 23  1  0
 28 29  1  0
 27 29  1  0
 26 28  1  0
 27 24  1  0
 28 30  1  6
 30 31  1  0
 31 32  2  0
 31 33  1  0
M  END
> <chembl_id>
CHEMBL3358920

> <chembl_pref_name>
ETRASIMOD
