
     RDKit          2D

 28 30  0  0  0  0  0  0  0  0999 V2000
   -0.7458   -1.1125    0.0000 C   0  0  0  0  0  0  0  0  0  0  0  0
   -0.7458   -0.4042    0.0000 C   0  0  0  0  0  0  0  0  0  0  0  0
   -1.3583   -1.4667    0.0000 N   0  0  0  0  0  0  0  0  0  0  0  0
   -1.9708   -0.4042    0.0000 N   0  0  0  0  0  0  0  0  0  0  0  0
   -1.9708   -1.1125    0.0000 C   0  0  0  0  0  0  0  0  0  0  0  0
   -1.3583   -0.0500    0.0000 C   0  0  0  0  0  0  0  0  0  0  0  0
   -0.0708   -1.3292    0.0000 N   0  0  0  0  0  0  0  0  0  0  0  0
   -0.0708   -0.1792    0.0000 N   0  0  0  0  0  0  0  0  0  0  0  0
    0.3417   -0.7542    0.0000 C   0  0  0  0  0  0  0  0  0  0  0  0
    1.0542   -0.7542    0.0000 C   0  0  0  0  0  0  0  0  0  0  0  0
   -2.5833   -1.4625    0.0000 O   0  0  0  0  0  0  0  0  0  0  0  0
   -1.3583    0.6583    0.0000 O   0  0  0  0  0  0  0  0  0  0  0  0
    3.1750   -0.7542    0.0000 C   0  0  0  0  0  0  0  0  0  0  0  0
    1.4042   -1.3667    0.0000 C   0  0  0  0  0  0  0  0  0  0  0  0
    3.5292   -1.3667    0.0000 C   0  0  0  0  0  0  0  0  0  0  0  0
    2.4667   -0.7542    0.0000 C   0  0  0  0  0  0  0  0  0  0  0  0
   -1.3583   -2.1750    0.0000 C   0  0  0  0  0  0  0  0  0  0  0  0
   -2.5833   -0.0500    0.0000 C   0  0  0  0  0  0  0  0  0  0  0  0
    2.1167   -1.3667    0.0000 C   0  0  0  0  0  0  0  0  0  0  0  0
    3.1792   -1.9792    0.0000 C   0  0  0  0  0  0  0  0  0  0  0  0
    0.1500    0.4958    0.0000 C   0  0  0  0  0  0  0  0  0  0  0  0
    2.4667   -1.9792    0.0000 C   0  0  0  0  0  0  0  0  0  0  0  0
    3.5250   -0.1417    0.0000 O   0  0  0  0  0  0  0  0  0  0  0  0
    4.2417   -1.3667    0.0000 O   0  0  0  0  0  0  0  0  0  0  0  0
    4.2292   -0.1375    0.0000 C   0  0  0  0  0  0  0  0  0  0  0  0
    4.5917   -0.7542    0.0000 C   0  0  0  0  0  0  0  0  0  0  0  0
   -1.9708   -2.5250    0.0000 C   0  0  0  0  0  0  0  0  0  0  0  0
   -3.1958   -0.4042    0.0000 C   0  0  0  0  0  0  0  0  0  0  0  0
  2  1  2  0
  3  1  1  0
  4  5  1  0
  5  3  1  0
  6  2  1  0
  7  1  1  0
  8  2  1  0
  9  7  2  0
 10  9  1  0
 11  5  2  0
 12  6  2  0
 13 16  2  0
 14 10  2  0
 15 20  2  0
 16 19  1  0
 17  3  1  0
 18  4  1  0
 19 14  1  0
 20 22  1  0
 21  8  1  0
 22 19  2  0
 23 13  1  0
 24 15  1  0
 25 23  1  0
 26 24  1  0
 27 17  1  0
 28 18  1  0
  8  9  1  0
  4  6  1  0
 15 13  1  0
M  END
> <chembl_id>
CHEMBL431770

> <chembl_pref_name>
ISTRADEFYLLINE
