
     RDKit          2D

 29 32  0  0  1  0  0  0  0  0999 V2000
    0.8875   -1.0917    0.0000 C   0  0  0  0  0  0  0  0  0  0  0  0
   -0.3375   -1.8000    0.0000 C   0  0  0  0  0  0  0  0  0  0  0  0
   -0.9500   -2.1625    0.0000 C   0  0  0  0  0  0  0  0  0  0  0  0
    0.8875   -1.8000    0.0000 C   0  0  0  0  0  0  0  0  0  0  0  0
    0.2750   -2.1625    0.0000 C   0  0  0  0  0  0  0  0  0  0  0  0
   -0.9500   -2.8667    0.0000 C   0  0  0  0  0  0  0  0  0  0  0  0
   -0.3333   -1.0917    0.0000 C   0  0  0  0  0  0  0  0  0  0  0  0
    1.5625   -0.8792    0.0000 C   0  0  0  0  0  0  0  0  0  0  0  0
    0.2750   -0.7375    0.0000 C   0  0  0  0  0  0  0  0  0  0  0  0
   -1.5625   -1.8000    0.0000 C   0  0  0  0  0  0  0  0  0  0  0  0
    1.5625   -2.0250    0.0000 C   0  0  0  0  0  0  0  0  0  0  0  0
    1.9750   -1.4417    0.0000 C   0  0  0  0  0  0  0  0  0  0  0  0
   -1.5625   -3.2250    0.0000 C   0  0  0  0  0  0  0  0  0  0  0  0
    0.2625   -2.8667    0.0000 C   0  0  0  0  0  0  0  0  0  0  0  0
   -2.1750   -2.1625    0.0000 C   0  0  0  0  0  0  0  0  0  0  0  0
   -2.1750   -2.8667    0.0000 C   0  0  0  0  0  0  0  0  0  0  0  0
    1.5875   -0.1667    0.0000 C   0  0  0  0  0  0  0  0  0  0  0  0
   -0.3375   -3.2250    0.0000 C   0  0  0  0  0  0  0  0  0  0  0  0
   -0.3375   -2.5167    0.0000 F   0  0  0  0  0  0  0  0  0  0  0  0
    0.9917    0.2125    0.0000 O   0  0  0  0  0  0  0  0  0  0  0  0
   -2.8083   -3.2375    0.0000 O   0  0  0  0  0  0  0  0  0  0  0  0
    0.8917   -0.3875    0.0000 C   0  0  0  0  0  0  0  0  0  0  0  0
   -0.9458   -0.7250    0.0000 O   0  0  0  0  0  0  0  0  0  0  0  0
   -0.9458   -1.4500    0.0000 C   0  0  0  0  0  0  0  0  0  0  0  0
    2.6875   -1.4375    0.0000 C   0  0  0  0  0  0  0  0  0  0  0  0
    2.2417    0.8583    0.0000 O   0  0  0  0  0  0  0  0  0  0  0  0
    2.2042    0.1583    0.0000 C   0  0  0  0  0  0  0  0  0  0  0  0
    0.2750   -1.4500    0.0000 H   0  0  0  0  0  0  0  0  0  0  0  0
    0.9042   -2.5042    0.0000 H   0  0  0  0  0  0  0  0  0  0  0  0
  2  7  1  0
  3  2  1  0
  4  1  1  0
  5  4  1  0
  6  3  1  0
  7  9  1  0
  8  1  1  0
  9  1  1  0
 10  3  1  0
 11  4  1  0
 12  8  1  0
 13  6  2  0
 14  5  1  0
 15 10  2  0
 16 15  1  0
  8 17  1  1
 18 14  1  0
  2 19  1  6
 20 17  2  0
 21 16  2  0
  1 22  1  1
  7 23  1  1
  3 24  1  1
 12 25  1  6
 26 27  1  0
 27 17  1  0
  5 28  1  1
  4 29  1  6
 11 12  1  0
  5  2  1  0
 18  6  1  0
 13 16  1  0
M  END
> <chembl_id>
CHEMBL1766

> <chembl_pref_name>
DESOXIMETASONE
