
     RDKit          2D

 31 31  0  0  0  0  0  0  0  0999 V2000
    1.3848   -2.4750    0.0000 Cl  0  0  0  0  0  0  0  0  0  0  0  0
    0.3335    0.1981    0.0000 N   0  0  0  0  0  0  0  0  0  0  0  0
    1.7692    1.0441    0.0000 N   0  0  0  0  0  0  0  0  0  0  0  0
   -0.3722   -0.1836    0.0000 C   0  0  0  0  0  0  0  0  0  0  0  0
   -1.0876    0.2272    0.0000 C   0  0  0  0  0  0  0  0  0  0  0  0
    1.0635   -0.2175    0.0000 C   0  0  0  0  0  0  0  0  0  0  0  0
    0.3335    1.0441    0.0000 C   0  0  0  0  0  0  0  0  0  0  0  0
    2.4653    1.4598    0.0000 C   0  0  0  0  0  0  0  0  0  0  0  0
   -0.3722   -1.0055    0.0000 C   0  0  0  0  0  0  0  0  0  0  0  0
    3.1903    1.0682    0.0000 C   0  0  0  0  0  0  0  0  0  0  0  0
   -1.0876    1.0537    0.0000 C   0  0  0  0  0  0  0  0  0  0  0  0
   -1.7837   -0.1836    0.0000 C   0  0  0  0  0  0  0  0  0  0  0  0
    1.7692    0.1981    0.0000 C   0  0  0  0  0  0  0  0  0  0  0  0
    1.0635    1.4453    0.0000 C   0  0  0  0  0  0  0  0  0  0  0  0
    3.9154    1.4743    0.0000 C   0  0  0  0  0  0  0  0  0  0  0  0
   -2.5088    1.0537    0.0000 C   0  0  0  0  0  0  0  0  0  0  0  0
   -1.7837    1.4743    0.0000 C   0  0  0  0  0  0  0  0  0  0  0  0
   -2.5088    0.2272    0.0000 C   0  0  0  0  0  0  0  0  0  0  0  0
   -3.2290    1.4598    0.0000 Cl  0  0  0  0  0  0  0  0  0  0  0  0
    4.6260    1.0682    0.0000 C   0  0  0  0  0  0  0  0  0  0  0  0
    3.9154   -0.1644    0.0000 C   0  0  0  0  0  0  0  0  0  0  0  0
    3.1903    0.2272    0.0000 C   0  0  0  0  0  0  0  0  0  0  0  0
   -1.0682   -1.4260    0.0000 C   0  0  0  0  0  0  0  0  0  0  0  0
    0.3480   -1.4260    0.0000 C   0  0  0  0  0  0  0  0  0  0  0  0
    4.6260    0.2272    0.0000 C   0  0  0  0  0  0  0  0  0  0  0  0
    5.3221    1.4888    0.0000 C   0  0  0  0  0  0  0  0  0  0  0  0
   -1.0682   -2.2671    0.0000 C   0  0  0  0  0  0  0  0  0  0  0  0
    0.3480   -2.2671    0.0000 C   0  0  0  0  0  0  0  0  0  0  0  0
   -0.3722   -2.6683    0.0000 C   0  0  0  0  0  0  0  0  0  0  0  0
    1.6387   -1.6581    0.0000 Cl  0  0  0  0  0  0  0  0  0  0  0  0
    2.4653   -1.6290    0.0000 O   0  0  0  0  0  0  0  0  0  0  0  0
  3 14  1  0
  4  2  1  0
  5  4  1  0
  6  2  1  0
  7  2  1  0
  8  3  1  0
  9  4  1  0
 10  8  1  0
 11  5  2  0
 12  5  1  0
 13  6  1  0
 14  7  1  0
 15 10  2  0
 16 18  1  0
 17 11  1  0
 18 12  2  0
 19 16  1  0
 20 15  1  0
 21 22  2  0
 22 10  1  0
 23  9  2  0
 24  9  1  0
 25 21  1  0
 26 20  1  0
 27 23  1  0
 28 24  2  0
 29 28  1  0
  3 13  1  0
 16 17  2  0
 29 27  2  0
 25 20  2  0
M  END
> <chembl_id>
CHEMBL3989555

> <chembl_pref_name>
MECLIZINE HYDROCHLORIDE
