
     RDKit          2D

 23 24  0  0  0  0  0  0  0  0999 V2000
   -0.4604   -0.0562    0.0000 C   0  0  0  0  0  0  0  0  0  0  0  0
   -1.1749    0.3562    0.0000 O   0  0  0  0  0  0  0  0  0  0  0  0
   -1.8893   -0.0562    0.0000 C   0  0  0  0  0  0  0  0  0  0  0  0
   -1.8894   -0.8812    0.0000 C   0  0  0  0  0  0  0  0  0  0  0  0
   -1.1749   -1.2937    0.0000 C   0  0  0  0  0  0  0  0  0  0  0  0
   -0.4604   -0.8812    0.0000 C   0  0  0  0  0  0  0  0  0  0  0  0
   -2.6038    0.3562    0.0000 C   0  0  0  0  0  0  0  0  0  0  0  0
   -2.6038   -1.2937    0.0000 O   0  0  0  0  0  0  0  0  0  0  0  0
    0.2541    0.3562    0.0000 O   0  0  0  0  0  0  0  0  0  0  0  0
   -1.1749   -2.1187    0.0000 O   0  0  0  0  0  0  0  0  0  0  0  0
    0.2541   -1.2937    0.0000 O   0  0  0  0  0  0  0  0  0  0  0  0
   -3.3183   -0.0562    0.0000 O   0  0  0  0  0  0  0  0  0  0  0  0
    1.2706    2.1187    0.0000 O   0  0  0  0  0  0  0  0  0  0  0  0
    0.6032    1.6337    0.0000 C   0  0  0  0  0  0  0  0  0  0  0  0
    0.8581    0.8492    0.0000 C   0  0  0  0  0  0  0  0  0  0  0  0
    1.6831    0.8492    0.0000 C   0  0  0  0  0  0  0  0  0  0  0  0
    1.9380    1.6337    0.0000 C   0  0  0  0  0  0  0  0  0  0  0  0
   -0.1814    1.8887    0.0000 C   0  0  0  0  0  0  0  0  0  0  0  0
    2.7226    1.8887    0.0000 O   0  0  0  0  0  0  0  0  0  0  0  0
    2.1680    0.1817    0.0000 O   0  0  0  0  0  0  0  0  0  0  0  0
   -0.7945    1.3366    0.0000 O   0  0  0  0  0  0  0  0  0  0  0  0
    2.5214    1.0504    0.0000 C   0  0  0  0  0  0  0  0  0  0  0  0
    3.3183    1.2639    0.0000 O   0  0  0  0  0  0  0  0  0  0  0  0
  1  2  1  0
  6  1  1  0
  2  3  1  0
  3  4  1  0
  4  5  1  0
  5  6  1  0
  3  7  1  1
  4  8  1  1
  1  9  1  1
  5 10  1  1
  6 11  1  6
  7 12  1  0
 13 14  1  0
 13 17  1  0
 14 15  1  0
 15 16  1  0
 16 17  1  0
 15  9  1  6
 14 18  1  1
 17 19  1  1
 16 20  1  1
 18 21  1  0
 17 22  1  6
 22 23  1  0
M  END
> <chembl_id>
CHEMBL296306

> <chembl_pref_name>
LACTULOSE
