
     RDKit          2D

 38 43  0  0  0  0  0  0  0  0999 V2000
    5.1417   -5.3042    0.0000 C   0  0  0  0  0  0  0  0  0  0  0  0
    0.2375   -6.0167    0.0000 C   0  0  0  0  0  0  0  0  0  0  0  0
    5.8500   -5.2292    0.0000 C   0  0  0  0  0  0  0  0  0  0  0  0
    5.0042   -6.0042    0.0000 C   0  0  0  0  0  0  0  0  0  0  0  0
   -0.3375   -6.4417    0.0000 C   0  0  0  0  0  0  0  0  0  0  0  0
    0.8042   -6.4375    0.0000 C   0  0  0  0  0  0  0  0  0  0  0  0
   -0.1208   -7.1125    0.0000 C   0  0  0  0  0  0  0  0  0  0  0  0
    6.1375   -5.8750    0.0000 C   0  0  0  0  0  0  0  0  0  0  0  0
    5.6167   -6.3542    0.0000 C   0  0  0  0  0  0  0  0  0  0  0  0
    0.5875   -7.1042    0.0000 C   0  0  0  0  0  0  0  0  0  0  0  0
    0.2292   -5.3125    0.0000 N   0  0  0  0  0  0  0  0  0  0  0  0
    4.5292   -4.9542    0.0000 N   0  0  0  0  0  0  0  0  0  0  0  0
   -1.0250   -6.2917    0.0000 C   0  0  0  0  0  0  0  0  0  0  0  0
    6.2542   -4.6625    0.0000 C   0  0  0  0  0  0  0  0  0  0  0  0
    4.3917   -6.3625    0.0000 C   0  0  0  0  0  0  0  0  0  0  0  0
    1.4917   -6.2917    0.0000 C   0  0  0  0  0  0  0  0  0  0  0  0
    6.8375   -5.9417    0.0000 C   0  0  0  0  0  0  0  0  0  0  0  0
    5.6250   -7.0542    0.0000 C   0  0  0  0  0  0  0  0  0  0  0  0
    1.0542   -7.6292    0.0000 C   0  0  0  0  0  0  0  0  0  0  0  0
   -0.5875   -7.6292    0.0000 C   0  0  0  0  0  0  0  0  0  0  0  0
    3.9167   -5.3042    0.0000 C   0  0  0  0  0  0  0  0  0  0  0  0
    0.8500   -4.9542    0.0000 C   0  0  0  0  0  0  0  0  0  0  0  0
    4.8792   -4.3375    0.0000 C   0  0  0  0  0  0  0  0  0  0  0  0
    4.1667   -4.3375    0.0000 C   0  0  0  0  0  0  0  0  0  0  0  0
   -0.1250   -4.6917    0.0000 C   0  0  0  0  0  0  0  0  0  0  0  0
   -0.4750   -5.3125    0.0000 C   0  0  0  0  0  0  0  0  0  0  0  0
    1.4625   -5.3042    0.0000 C   0  0  0  0  0  0  0  0  0  0  0  0
    3.3000   -4.9542    0.0000 C   0  0  0  0  0  0  0  0  0  0  0  0
   -1.4958   -6.8167    0.0000 C   0  0  0  0  0  0  0  0  0  0  0  0
    6.9542   -4.7292    0.0000 C   0  0  0  0  0  0  0  0  0  0  0  0
    1.9667   -6.8167    0.0000 C   0  0  0  0  0  0  0  0  0  0  0  0
    4.4042   -7.0667    0.0000 C   0  0  0  0  0  0  0  0  0  0  0  0
    2.6875   -5.3042    0.0000 C   0  0  0  0  0  0  0  0  0  0  0  0
    2.0708   -4.9542    0.0000 C   0  0  0  0  0  0  0  0  0  0  0  0
    5.0167   -7.4125    0.0000 C   0  0  0  0  0  0  0  0  0  0  0  0
   -1.2750   -7.4917    0.0000 C   0  0  0  0  0  0  0  0  0  0  0  0
    7.2500   -5.3750    0.0000 C   0  0  0  0  0  0  0  0  0  0  0  0
    1.7417   -7.4875    0.0000 C   0  0  0  0  0  0  0  0  0  0  0  0
  2 11  1  0
  3  1  1  0
  4  1  1  0
  5  2  1  0
  6  2  1  0
  7  5  2  0
  8  3  2  0
  9  4  2  0
 10  6  2  0
 11 22  1  0
 12  1  1  0
 13  5  1  0
 14  3  1  0
 15  4  1  0
 16  6  1  0
 17  8  1  0
 18  9  1  0
 19 10  1  0
 20  7  1  0
 21 12  1  0
 22 27  1  0
 23 12  1  0
 24 12  1  0
 25 11  1  0
 26 11  1  0
 27 34  1  0
 28 21  1  0
 29 13  2  0
 30 14  2  0
 31 16  2  0
 32 15  2  0
 33 28  1  0
 34 33  1  0
 35 32  1  0
 36 29  1  0
 37 30  1  0
 38 31  1  0
  8  9  1  0
 18 35  2  0
 37 17  2  0
 10  7  1  0
 38 19  2  0
 36 20  2  0
M  CHG  2  11   1  12   1
M  END
> <chembl_id>
CHEMBL1201349

> <chembl_pref_name>
HEXAFLUORENIUM
