
     RDKit          2D

 26 29  0  0  1  0  0  0  0  0999 V2000
    4.6750   -4.9417    0.0000 C   0  0  0  0  0  0  0  0  0  0  0  0
    5.9042   -4.2292    0.0000 C   0  0  0  0  0  0  0  0  0  0  0  0
    4.0542   -5.3000    0.0000 C   0  0  0  0  0  0  0  0  0  0  0  0
    5.2792   -5.2917    0.0000 C   0  0  0  0  0  0  0  0  0  0  0  0
    5.9042   -4.9417    0.0000 C   0  0  0  0  0  0  0  0  0  0  0  0
    4.0542   -6.0042    0.0000 C   0  0  0  0  0  0  0  0  0  0  0  0
    4.6750   -4.2292    0.0000 C   0  0  0  0  0  0  0  0  0  0  0  0
    5.2792   -3.8750    0.0000 C   0  0  0  0  0  0  0  0  0  0  0  0
    6.5750   -4.0042    0.0000 C   0  0  0  0  0  0  0  0  0  0  0  0
    3.4417   -6.3542    0.0000 C   0  0  0  0  0  0  0  0  0  0  0  0
    5.2792   -6.0042    0.0000 C   0  0  0  0  0  0  0  0  0  0  0  0
    3.4417   -4.9500    0.0000 C   0  0  0  0  0  0  0  0  0  0  0  0
    6.5750   -5.1417    0.0000 C   0  0  0  0  0  0  0  0  0  0  0  0
    4.6750   -6.3542    0.0000 C   0  0  0  0  0  0  0  0  0  0  0  0
    2.8250   -6.0000    0.0000 C   0  0  0  0  0  0  0  0  0  0  0  0
    6.9917   -4.5792    0.0000 C   0  0  0  0  0  0  0  0  0  0  0  0
    4.6417   -5.6500    0.0000 F   0  0  0  0  0  0  0  0  0  0  0  0
    2.1917   -6.3500    0.0000 O   0  0  0  0  0  0  0  0  0  0  0  0
    2.8250   -5.3000    0.0000 C   0  0  0  0  0  0  0  0  0  0  0  0
    4.0542   -3.8625    0.0000 O   0  0  0  0  0  0  0  0  0  0  0  0
    6.5542   -3.3042    0.0000 O   0  0  0  0  0  0  0  0  0  0  0  0
    5.8917   -3.5250    0.0000 C   0  0  0  0  0  0  0  0  0  0  0  0
    4.0542   -4.5917    0.0000 C   0  0  0  0  0  0  0  0  0  0  0  0
    7.1917   -3.6667    0.0000 C   0  0  0  0  0  0  0  0  0  0  0  0
    5.2750   -4.5792    0.0000 H   0  0  0  0  0  0  0  0  0  0  0  0
    5.8542   -5.6500    0.0000 H   0  0  0  0  0  0  0  0  0  0  0  0
  2  8  1  0
  3  1  1  0
  4  1  1  0
  5  4  1  0
  6  3  1  0
  7  1  1  0
  8  7  1  0
  9  2  1  0
 10  6  2  0
 11  4  1  0
 12  3  1  0
 13  5  1  0
 14 11  1  0
 15 19  1  0
 16 13  1  0
  1 17  1  6
 18 15  2  0
 19 12  1  0
  7 20  1  1
  9 21  1  1
  2 22  1  1
  3 23  1  1
  9 24  1  6
  4 25  1  1
  5 26  1  6
  2  5  1  0
 14  6  1  0
 16  9  1  0
 15 10  1  0
M  END
> <chembl_id>
CHEMBL1445

> <chembl_pref_name>
FLUOXYMESTERONE
