
     RDKit          2D

 25 27  0  0  0  0  0  0  0  0999 V2000
    5.5667   -3.7917    0.0000 N   0  0  0  0  0  0  0  0  0  0  0  0
    5.8042   -3.1417    0.0000 C   0  0  0  0  0  0  0  0  0  0  0  0
    4.8875   -3.7917    0.0000 C   0  0  0  0  0  0  0  0  0  0  0  0
    5.2500   -2.7167    0.0000 S   0  0  0  0  0  0  0  0  0  0  0  0
    4.6542   -3.1250    0.0000 C   0  0  0  0  0  0  0  0  0  0  0  0
   -0.9083   -4.1417    0.0000 C   0  0  0  0  0  0  0  0  0  0  0  0
   -1.5500   -3.7792    0.0000 N   0  0  0  0  0  0  0  0  0  0  0  0
    6.4750   -2.9542    0.0000 O   0  0  0  0  0  0  0  0  0  0  0  0
   -0.2750   -3.7917    0.0000 N   0  0  0  0  0  0  0  0  0  0  0  0
    4.4917   -4.3792    0.0000 O   0  0  0  0  0  0  0  0  0  0  0  0
    4.0625   -2.7542    0.0000 C   0  0  0  0  0  0  0  0  0  0  0  0
    3.4417   -3.0917    0.0000 C   0  0  0  0  0  0  0  0  0  0  0  0
    2.2250   -3.7917    0.0000 C   0  0  0  0  0  0  0  0  0  0  0  0
    2.8167   -2.7500    0.0000 C   0  0  0  0  0  0  0  0  0  0  0  0
    3.4417   -3.7917    0.0000 C   0  0  0  0  0  0  0  0  0  0  0  0
    2.8167   -4.1667    0.0000 C   0  0  0  0  0  0  0  0  0  0  0  0
    2.2250   -3.0917    0.0000 C   0  0  0  0  0  0  0  0  0  0  0  0
    1.6042   -4.1417    0.0000 O   0  0  0  0  0  0  0  0  0  0  0  0
    0.9792   -3.7917    0.0000 C   0  0  0  0  0  0  0  0  0  0  0  0
    0.3417   -4.1417    0.0000 C   0  0  0  0  0  0  0  0  0  0  0  0
   -0.9083   -4.8667    0.0000 C   0  0  0  0  0  0  0  0  0  0  0  0
   -2.1625   -4.1417    0.0000 C   0  0  0  0  0  0  0  0  0  0  0  0
   -0.2750   -3.0792    0.0000 C   0  0  0  0  0  0  0  0  0  0  0  0
   -1.5500   -5.2417    0.0000 C   0  0  0  0  0  0  0  0  0  0  0  0
   -2.1625   -4.8667    0.0000 C   0  0  0  0  0  0  0  0  0  0  0  0
  2  1  1  0
  3  1  1  0
  4  2  1  0
  5  3  1  0
  6  9  1  0
  7  6  1  0
  8  2  2  0
  9 20  1  0
 10  3  2  0
 11  5  1  0
 12 11  1  0
 13 16  2  0
 14 12  1  0
 15 12  2  0
 16 15  1  0
 17 14  2  0
 18 13  1  0
 19 18  1  0
 20 19  1  0
 21  6  2  0
 22  7  2  0
 23  9  1  0
 24 21  1  0
 25 22  1  0
  4  5  1  0
 13 17  1  0
 24 25  2  0
M  END
> <chembl_id>
CHEMBL121

> <chembl_pref_name>
ROSIGLITAZONE
