
     RDKit          2D

 18 21  0  0  0  0  0  0  0  0999 V2000
   -1.7909   -5.7671    0.0000 C   0  0  0  0  0  0  0  0  0  0  0  0
   -2.2262   -5.0079    0.0000 N   0  0  0  0  0  0  0  0  0  0  0  0
   -1.7909   -4.2891    0.0000 C   0  0  0  0  0  0  0  0  0  0  0  0
   -1.0721   -4.1069    0.0000 C   0  0  0  0  0  0  0  0  0  0  0  0
   -1.2948   -4.9066    0.0000 C   0  0  0  0  0  0  0  0  0  0  0  0
   -1.0721   -5.9595    0.0000 C   0  0  0  0  0  0  0  0  0  0  0  0
   -0.4242   -5.4432    0.0000 C   0  0  0  0  0  0  0  0  0  0  0  0
    0.2743   -5.8482    0.0000 C   0  0  0  0  0  0  0  0  0  0  0  0
    1.0032   -5.4432    0.0000 C   0  0  0  0  0  0  0  0  0  0  0  0
    1.7220   -5.8482    0.0000 N   0  0  0  0  0  0  0  0  0  0  0  0
    2.4408   -5.4432    0.0000 C   0  0  0  0  0  0  0  0  0  0  0  0
    2.4408   -4.6232    0.0000 C   0  0  0  0  0  0  0  0  0  0  0  0
    1.7220   -4.2081    0.0000 N   0  0  0  0  0  0  0  0  0  0  0  0
    1.0032   -4.6232    0.0000 C   0  0  0  0  0  0  0  0  0  0  0  0
    0.2743   -4.2081    0.0000 C   0  0  0  0  0  0  0  0  0  0  0  0
   -0.4242   -4.6232    0.0000 C   0  0  0  0  0  0  0  0  0  0  0  0
   -0.8983   -3.3004    0.0000 H   0  0  0  0  0  0  0  0  0  0  0  0
   -0.9037   -6.7671    0.0000 H   0  0  0  0  0  0  0  0  0  0  0  0
  1  2  1  0
  2  3  1  0
  4  3  1  0
  4  5  1  0
  6  5  1  0
  6  1  1  0
  6  7  1  0
  7  8  2  0
  8  9  1  0
  9 10  2  0
 10 11  1  0
 11 12  2  0
 12 13  1  0
 13 14  2  0
 14  9  1  0
 14 15  1  0
 15 16  2  0
 16  4  1  0
 16  7  1  0
  4 17  1  1
  6 18  1  1
M  END
> <chembl_id>
CHEMBL1076903

> <chembl_pref_name>
VARENICLINE
