
     RDKit          2D

 36 35  0  0  0  0  0  0  0  0999 V2000
   -2.2542   -8.2500    0.0000 Na  0  0  0  0  0 15  0  0  0  0  0  0
   -0.0500   -8.1333    0.0000 C   0  0  0  0  0  0  0  0  0  0  0  0
    7.9208   -8.4625    0.0000 C   0  0  0  0  0  0  0  0  0  0  0  0
    0.5625   -8.4875    0.0000 C   0  0  0  0  0  0  0  0  0  0  0  0
    7.3042   -8.1125    0.0000 C   0  0  0  0  0  0  0  0  0  0  0  0
    1.1750   -8.1333    0.0000 C   0  0  0  0  0  0  0  0  0  0  0  0
    6.7000   -8.4708    0.0000 C   0  0  0  0  0  0  0  0  0  0  0  0
   -0.0500   -7.4250    0.0000 C   0  0  0  0  0  0  0  0  0  0  0  0
    7.9250   -9.1750    0.0000 C   0  0  0  0  0  0  0  0  0  0  0  0
    6.6958   -9.1792    0.0000 C   0  0  0  0  0  0  0  0  0  0  0  0
    1.1750   -7.4208    0.0000 C   0  0  0  0  0  0  0  0  0  0  0  0
   -0.6625   -8.4875    0.0000 C   0  0  0  0  0  0  0  0  0  0  0  0
    8.5333   -8.1042    0.0000 C   0  0  0  0  0  0  0  0  0  0  0  0
    0.5625   -7.0667    0.0000 C   0  0  0  0  0  0  0  0  0  0  0  0
    7.3125   -9.5292    0.0000 C   0  0  0  0  0  0  0  0  0  0  0  0
    6.0833   -8.1167    0.0000 N   0  0  0  0  0  0  0  0  0  0  0  0
    1.7917   -8.4875    0.0000 N   0  0  0  0  0  0  0  0  0  0  0  0
    2.4042   -8.1292    0.0000 C   0  0  0  0  0  0  0  0  0  0  0  0
    5.4708   -8.4750    0.0000 C   0  0  0  0  0  0  0  0  0  0  0  0
   -1.2792   -8.1333    0.0000 O   0  0  0  0  0  0  0  0  0  0  0  0
    9.1458   -8.4542    0.0000 O   0  0  0  0  0  0  0  0  0  0  0  0
   -0.6625   -9.1958    0.0000 O   0  0  0  0  0  0  0  0  0  0  0  0
    8.5250   -7.3958    0.0000 O   0  0  0  0  0  0  0  0  0  0  0  0
    0.5667   -9.1958    0.0000 I   0  0  0  0  0  0  0  0  0  0  0  0
    7.3000   -7.4042    0.0000 I   0  0  0  0  0  0  0  0  0  0  0  0
    2.4000   -7.4208    0.0000 O   0  0  0  0  0  0  0  0  0  0  0  0
    5.4750   -9.1833    0.0000 O   0  0  0  0  0  0  0  0  0  0  0  0
   -0.6625   -7.0667    0.0000 I   0  0  0  0  0  0  0  0  0  0  0  0
    8.5417   -9.5250    0.0000 I   0  0  0  0  0  0  0  0  0  0  0  0
    6.0833   -9.5333    0.0000 I   0  0  0  0  0  0  0  0  0  0  0  0
    1.7875   -7.0625    0.0000 I   0  0  0  0  0  0  0  0  0  0  0  0
    4.8583   -8.1208    0.0000 C   0  0  0  0  0  0  0  0  0  0  0  0
    3.0167   -8.4833    0.0000 C   0  0  0  0  0  0  0  0  0  0  0  0
    3.6292   -8.1250    0.0000 C   0  0  0  0  0  0  0  0  0  0  0  0
    4.2458   -8.4792    0.0000 C   0  0  0  0  0  0  0  0  0  0  0  0
   10.0208   -8.5625    0.0000 Na  0  0  0  0  0 15  0  0  0  0  0  0
  3  5  2  0
  4  2  1  0
  5  7  1  0
  6  4  2  0
  7 16  1  0
  8  2  2  0
  9  3  1  0
 10  7  2  0
 11 14  2  0
 12  2  1  0
 13  3  1  0
 14  8  1  0
 15 10  1  0
 16 19  1  0
 17  6  1  0
 18 17  1  0
 19 32  1  0
 20 12  1  0
 21 13  1  0
 22 12  2  0
 23 13  2  0
 24  4  1  0
 25  5  1  0
 26 18  2  0
 27 19  2  0
 28  8  1  0
 29  9  1  0
 30 10  1  0
 31 11  1  0
 32 35  1  0
 33 18  1  0
 34 33  1  0
 35 34  1  0
 11  6  1  0
  9 15  2  0
M  CHG  4   1   1  20  -1  21  -1  36   1
M  END
> <chembl_id>
CHEMBL1200350

> <chembl_pref_name>
IODIPAMIDE SODIUM
