
     RDKit          2D

 36 38  0  0  0  0  0  0  0  0999 V2000
    8.1272   -5.3443    0.0000 C   0  0  0  0  0  0  0  0  0  0  0  0
    8.1224   -4.5193    0.0000 C   0  0  0  0  0  0  0  0  0  0  0  0
    8.8344   -4.1026    0.0000 C   0  0  0  0  0  0  0  0  0  0  0  0
    8.8295   -3.2777    0.0000 O   0  0  0  0  0  0  0  0  0  0  0  0
    9.5512   -4.5109    0.0000 O   0  0  0  0  0  0  0  0  0  0  0  0
    8.8440   -5.7526    0.0000 C   0  0  0  0  0  0  0  0  0  0  0  0
    8.8489   -6.5776    0.0000 O   0  0  0  0  0  0  0  0  0  0  0  0
    9.5561   -5.3359    0.0000 O   0  0  0  0  0  0  0  0  0  0  0  0
    7.0216   -1.7726    0.0000 N   0  0  0  0  0  0  0  0  0  0  0  0
    7.8063   -1.5177    0.0000 C   0  0  0  0  0  0  0  0  0  0  0  0
    7.0216   -0.4378    0.0000 N   0  0  0  0  0  0  0  0  0  0  0  0
    7.8063   -0.6927    0.0000 C   0  0  0  0  0  0  0  0  0  0  0  0
    8.5207   -0.2802    0.0000 C   0  0  0  0  0  0  0  0  0  0  0  0
    9.2352   -0.6927    0.0000 C   0  0  0  0  0  0  0  0  0  0  0  0
    9.2352   -1.5177    0.0000 C   0  0  0  0  0  0  0  0  0  0  0  0
    8.5207   -1.9302    0.0000 C   0  0  0  0  0  0  0  0  0  0  0  0
    5.7117   -1.1052    0.0000 C   0  0  0  0  0  0  0  0  0  0  0  0
    5.2992   -1.8197    0.0000 C   0  0  0  0  0  0  0  0  0  0  0  0
    4.4742   -1.8197    0.0000 C   0  0  0  0  0  0  0  0  0  0  0  0
    4.0617   -2.5341    0.0000 N   0  0  0  0  0  0  0  0  0  0  0  0
    4.0617   -1.1052    0.0000 C   0  0  0  0  0  0  0  0  0  0  0  0
    4.4742   -0.3907    0.0000 C   0  0  0  0  0  0  0  0  0  0  0  0
    5.2992   -0.3907    0.0000 N   0  0  0  0  0  0  0  0  0  0  0  0
    6.5367   -1.1052    0.0000 C   0  0  0  0  0  0  0  0  0  0  0  0
    5.7117   -5.3920    0.0000 C   0  0  0  0  0  0  0  0  0  0  0  0
    5.2992   -6.1065    0.0000 C   0  0  0  0  0  0  0  0  0  0  0  0
    6.1242   -7.5354    0.0000 N   0  0  0  0  0  0  0  0  0  0  0  0
    5.7117   -6.8210    0.0000 C   0  0  0  0  0  0  0  0  0  0  0  0
    4.4742   -6.1065    0.0000 C   0  0  0  0  0  0  0  0  0  0  0  0
    4.0617   -5.3920    0.0000 C   0  0  0  0  0  0  0  0  0  0  0  0
    4.4742   -4.6775    0.0000 C   0  0  0  0  0  0  0  0  0  0  0  0
    4.0617   -3.9631    0.0000 N   0  0  0  0  0  0  0  0  0  0  0  0
    5.2992   -4.6775    0.0000 C   0  0  0  0  0  0  0  0  0  0  0  0
    4.4742   -3.2486    0.0000 C   0  0  0  0  0  0  0  0  0  0  0  0
    5.2992   -3.2486    0.0000 O   0  0  0  0  0  0  0  0  0  0  0  0
    5.7117    0.3237    0.0000 C   0  0  0  0  0  0  0  0  0  0  0  0
  1  2  2  0
  2  3  1  0
  3  4  2  0
  3  5  1  0
  1  6  1  0
  6  7  2  0
  6  8  1  0
  9 10  1  0
  9 24  1  0
 10 12  2  0
 11 12  1  0
 12 13  1  0
 13 14  2  0
 15 14  1  0
 16 15  2  0
 16 10  1  0
 17 18  1  0
 17 23  1  0
 17 24  1  1
 19 21  1  0
 19 18  1  0
 20 34  1  0
 21 22  1  0
 22 23  1  0
 23 36  1  0
 24 11  2  0
 25 26  2  0
 25 33  1  0
 26 28  1  0
 26 29  1  0
 28 27  3  0
 29 30  2  0
 31 30  1  0
 31 32  1  0
 32 34  1  0
 33 31  2  0
 34 35  2  0
 19 20  1  6
M  END
> <chembl_id>
CHEMBL4297534

> <chembl_pref_name>
GLASDEGIB MALEATE
