
     RDKit          2D

 27 30  0  0  0  0  0  0  0  0999 V2000
    5.3947   -3.1206    0.0000 C   0  0  0  0  0  0  0  0  0  0  0  0
    6.1652   -2.8732    0.0000 C   0  0  0  0  0  0  0  0  0  0  0  0
    6.1798   -2.0464    0.0000 C   0  0  0  0  0  0  0  0  0  0  0  0
    4.9119   -2.4737    0.0000 N   0  0  0  0  0  0  0  0  0  0  0  0
    5.4019   -1.7994    0.0000 C   0  0  0  0  0  0  0  0  0  0  0  0
    6.9762   -1.8064    0.0000 N   0  0  0  0  0  0  0  0  0  0  0  0
    6.9630   -3.1222    0.0000 C   0  0  0  0  0  0  0  0  0  0  0  0
    7.4479   -2.4737    0.0000 N   0  0  0  0  0  0  0  0  0  0  0  0
    8.2665   -3.2834    0.0000 O   0  0  0  0  0  0  0  0  0  0  0  0
    8.2754   -2.4648    0.0000 S   0  0  0  0  0  0  0  0  0  0  0  0
    2.6339   -2.4648    0.0000 O   0  0  0  0  0  0  0  0  0  0  0  0
    3.3637   -2.8610    0.0000 C   0  0  0  0  0  0  0  0  0  0  0  0
    4.0771   -1.6384    0.0000 C   0  0  0  0  0  0  0  0  0  0  0  0
    3.3572   -1.2185    0.0000 C   0  0  0  0  0  0  0  0  0  0  0  0
    2.6483   -1.6253    0.0000 C   0  0  0  0  0  0  0  0  0  0  0  0
    3.9509   -0.5250    0.0000 N   0  0  0  0  0  0  0  0  0  0  0  0
    4.0996   -2.4972    0.0000 C   0  0  0  0  0  0  0  0  0  0  0  0
    0.5903   -2.3558    0.0000 C   0  0  0  0  0  0  0  0  0  0  0  0
    1.4146   -2.3593    0.0000 C   0  0  0  0  0  0  0  0  0  0  0  0
    0.1757   -1.6418    0.0000 C   0  0  0  0  0  0  0  0  0  0  0  0
    0.1602   -0.2135    0.0000 F   0  0  0  0  0  0  0  0  0  0  0  0
    0.5778   -0.9224    0.0000 C   0  0  0  0  0  0  0  0  0  0  0  0
    1.4065   -0.9236    0.0000 C   0  0  0  0  0  0  0  0  0  0  0  0
    1.8140   -1.6445    0.0000 C   0  0  0  0  0  0  0  0  0  0  0  0
    1.8153   -3.0699    0.0000 F   0  0  0  0  0  0  0  0  0  0  0  0
    8.9873   -2.8742    0.0000 O   0  0  0  0  0  0  0  0  0  0  0  0
    8.8627   -1.7485    0.0000 C   0  0  0  0  0  0  0  0  0  0  0  0
  1  2  1  0
  1  4  1  0
  2  7  2  0
  3  2  1  0
  3  6  2  0
  4  5  1  0
  5  3  1  0
  6  8  1  0
  7  8  1  0
  8 10  1  0
  9 10  2  0
 10 26  2  0
 11 12  1  0
 13 14  1  0
 13 17  1  0
 14 16  1  1
 15 11  1  0
 15 14  1  0
 15 24  1  6
 17  4  1  1
 17 12  1  0
 18 19  1  0
 19 24  2  0
 20 18  2  0
 20 22  1  0
 21 22  1  0
 22 23  2  0
 24 23  1  0
 25 19  1  0
 27 10  1  0
M  END
> <chembl_id>
CHEMBL2105762

> <chembl_pref_name>
OMARIGLIPTIN
