
     RDKit          2D

 13 13  0  0  0  0  0  0  0  0999 V2000
   -1.2375    1.5000    0.0000 C   0  0  0  0  0  0  0  0  0  0  0  0
    0.0542    0.7500    0.0000 C   0  0  0  0  0  0  0  0  0  0  0  0
   -2.5333    0.7500    0.0000 C   0  0  0  0  0  0  0  0  0  0  0  0
    0.0542   -0.7417    0.0000 C   0  0  0  0  0  0  0  0  0  0  0  0
   -2.5333   -0.7417    0.0000 C   0  0  0  0  0  0  0  0  0  0  0  0
   -1.2708    2.6208    0.0000 O   0  0  0  0  0  0  0  0  0  0  0  0
   -1.2375   -1.4917    0.0000 C   0  0  0  0  0  0  0  0  0  0  0  0
    1.2792    1.4500    0.0000 C   0  0  0  0  0  0  0  0  0  0  0  0
   -3.7750   -1.3042    0.0000 C   0  0  0  0  0  0  0  0  0  0  0  0
    2.5250    0.7500    0.0000 C   0  0  0  0  0  0  0  0  0  0  0  0
    3.7667   -1.4000    0.0000 C   0  0  0  0  0  0  0  0  0  0  0  0
    2.5042   -0.6792    0.0000 C   0  0  0  0  0  0  0  0  0  0  0  0
    3.7667   -2.8375    0.0000 C   0  0  0  0  0  0  0  0  0  0  0  0
  2  1  1  0
  3  1  2  0
  4  2  2  0
  5  3  1  0
  6  1  1  0
  7  5  2  0
  8  2  1  0
  9  5  1  0
 10  8  1  0
 11 12  1  0
 12 10  1  0
 13 11  1  0
  4  7  1  0
M  END
> <chembl_id>
CHEMBL1512677

> <chembl_pref_name>
AMYLMETACRESOL
