
     RDKit          2D

 38 40  0  0  1  0  0  0  0  0999 V2000
    3.5042   -3.3167    0.0000 N   0  0  0  0  0  0  0  0  0  0  0  0
    2.6750   -3.3167    0.0000 C   0  0  0  0  0  0  0  0  0  0  0  0
    2.6750   -2.6250    0.0000 C   0  0  0  0  0  0  0  0  0  0  0  0
    3.5042   -2.6250    0.0000 C   0  0  0  0  0  0  0  0  0  0  0  0
    4.1292   -3.7042    0.0000 C   0  0  0  0  0  0  0  0  0  0  0  0
    0.1792   -2.6250    0.0000 C   0  0  0  0  0  0  0  0  0  0  0  0
    4.1292   -4.2792    0.0000 C   0  0  0  0  0  0  0  0  0  0  0  0
    0.8167   -2.2417    0.0000 C   0  0  0  0  0  0  0  0  0  0  0  0
   -0.0708   -3.2667    0.0000 N   0  0  0  0  0  0  0  0  0  0  0  0
    2.0292   -2.2417    0.0000 N   0  0  0  0  0  0  0  0  0  0  0  0
    1.4042   -2.6250    0.0000 C   0  0  0  0  0  0  0  0  0  0  0  0
    4.1292   -2.2792    0.0000 S   0  0  0  0  0  0  0  0  0  0  0  0
    4.7417   -3.3167    0.0000 C   0  0  0  0  0  0  0  0  0  0  0  0
   -0.7583   -3.2667    0.0000 C   0  0  0  0  0  0  0  0  0  0  0  0
    5.9417   -5.4292    0.0000 C   0  0  0  0  0  0  0  0  0  0  0  0
   -0.4083   -2.1917    0.0000 C   0  0  0  0  0  0  0  0  0  0  0  0
    4.6917   -4.6667    0.0000 O   0  0  0  0  0  0  0  0  0  0  0  0
   -0.9875   -2.6167    0.0000 S   0  0  0  0  0  0  0  0  0  0  0  0
    5.3167   -5.7542    0.0000 O   0  0  0  0  0  0  0  0  0  0  0  0
    4.7417   -2.6250    0.0000 C   0  0  0  0  0  0  0  0  0  0  0  0
    4.6792   -5.4292    0.0000 C   0  0  0  0  0  0  0  0  0  0  0  0
    0.8167   -1.5792    0.0000 N   0  0  0  0  0  0  0  0  0  0  0  0
    2.2292   -3.7125    0.0000 O   0  0  0  0  0  0  0  0  0  0  0  0
    3.4792   -4.6000    0.0000 O   0  0  0  0  0  0  0  0  0  0  0  0
    1.4042   -3.1792    0.0000 O   0  0  0  0  0  0  0  0  0  0  0  0
    5.9417   -4.7792    0.0000 O   0  0  0  0  0  0  0  0  0  0  0  0
    6.5417   -5.7542    0.0000 O   0  0  0  0  0  0  0  0  0  0  0  0
   -1.3125   -3.7125    0.0000 N   0  0  0  0  0  0  0  0  0  0  0  0
    5.4167   -3.6917    0.0000 C   0  0  0  0  0  0  0  0  0  0  0  0
    1.4375   -1.1792    0.0000 O   0  0  0  0  0  0  0  0  0  0  0  0
    6.0792   -3.3500    0.0000 O   0  0  0  0  0  0  0  0  0  0  0  0
    7.2042   -5.4292    0.0000 C   0  0  0  0  0  0  0  0  0  0  0  0
    4.0417   -5.7542    0.0000 C   0  0  0  0  0  0  0  0  0  0  0  0
    1.4375   -0.4667    0.0000 C   0  0  0  0  0  0  0  0  0  0  0  0
    6.8250   -3.6917    0.0000 C   0  0  0  0  0  0  0  0  0  0  0  0
    7.8375   -5.7542    0.0000 C   0  0  0  0  0  0  0  0  0  0  0  0
    7.2042   -4.7792    0.0000 C   0  0  0  0  0  0  0  0  0  0  0  0
    3.5042   -1.9167    0.0000 H   0  0  0  0  0  0  0  0  0  0  0  0
  2  1  1  0
  3  4  1  0
  4  1  1  0
  5  1  1  0
  6  8  1  0
  7  5  1  0
  8 11  1  0
  9  6  1  0
  3 10  1  1
 11 10  1  0
 12  4  1  0
 13  5  2  0
 14  9  2  0
 15 19  1  0
 16  6  2  0
 17  7  1  0
 18 16  1  0
 19 21  1  0
 20 13  1  0
 21 17  1  0
 22  8  2  0
 23  2  2  0
 24  7  2  0
 25 11  2  0
 26 15  2  0
 27 15  1  0
 28 14  1  0
 29 13  1  0
 30 22  1  0
 31 29  1  0
 32 27  1  0
 33 21  1  0
 34 30  1  0
 35 31  1  0
 36 32  1  0
 37 32  1  0
  4 38  1  6
  3  2  1  0
 20 12  1  0
 18 14  1  0
M  END
> <chembl_id>
CHEMBL1201016

> <chembl_pref_name>
CEFPODOXIME PROXETIL
