
     RDKit          2D

 29 31  0  0  0  0  0  0  0  0999 V2000
    2.1792    1.0375    0.0000 C   0  0  0  0  0  0  0  0  0  0  0  0
    1.5667    1.3917    0.0000 C   0  0  0  0  0  0  0  0  0  0  0  0
    2.1792    0.3250    0.0000 C   0  0  0  0  0  0  0  0  0  0  0  0
   -1.4917    1.0333    0.0000 C   0  0  0  0  0  0  0  0  0  0  0  0
    2.8542    1.2583    0.0000 O   0  0  0  0  0  0  0  0  0  0  0  0
   -0.8833    1.3875    0.0000 C   0  0  0  0  0  0  0  0  0  0  0  0
    2.8542    0.1042    0.0000 O   0  0  0  0  0  0  0  0  0  0  0  0
    3.2750    0.6792    0.0000 C   0  0  0  0  0  0  0  0  0  0  0  0
   -1.4875    2.4500    0.0000 N   0  0  0  0  0  0  0  0  0  0  0  0
   -0.2708    1.0333    0.0000 C   0  0  0  0  0  0  0  0  0  0  0  0
   -1.4875    0.3250    0.0000 C   0  0  0  0  0  0  0  0  0  0  0  0
    0.9500    1.0375    0.0000 C   0  0  0  0  0  0  0  0  0  0  0  0
    1.5667   -0.0292    0.0000 C   0  0  0  0  0  0  0  0  0  0  0  0
    0.3417    1.3875    0.0000 O   0  0  0  0  0  0  0  0  0  0  0  0
    0.9500    0.3250    0.0000 C   0  0  0  0  0  0  0  0  0  0  0  0
   -0.8792    2.0958    0.0000 C   0  0  0  0  0  0  0  0  0  0  0  0
   -2.1042    2.1000    0.0000 C   0  0  0  0  0  0  0  0  0  0  0  0
   -2.1042    1.3917    0.0000 C   0  0  0  0  0  0  0  0  0  0  0  0
   -0.8708   -0.0208    0.0000 C   0  0  0  0  0  0  0  0  0  0  0  0
   -2.1000   -0.0333    0.0000 C   0  0  0  0  0  0  0  0  0  0  0  0
   -2.0917   -0.7417    0.0000 C   0  0  0  0  0  0  0  0  0  0  0  0
   -0.8625   -0.7292    0.0000 C   0  0  0  0  0  0  0  0  0  0  0  0
   -1.4792   -1.0917    0.0000 C   0  0  0  0  0  0  0  0  0  0  0  0
   -1.4748   -1.8000    0.0000 F   0  0  0  0  0  0  0  0  0  0  0  0
    2.6625   -1.4417    0.0000 S   0  0  0  0  0  0  0  0  0  0  0  0
    3.0125   -0.8208    0.0000 O   0  0  0  0  0  0  0  0  0  0  0  0
    2.3042   -0.8208    0.0000 O   0  0  0  0  0  0  0  0  0  0  0  0
    2.0500   -1.7958    0.0000 O   0  0  0  0  0  0  0  0  0  0  0  0
    3.2750   -1.7958    0.0000 C   0  0  0  0  0  0  0  0  0  0  0  0
  2  1  1  0
  3  1  2  0
  4  6  1  0
  5  1  1  0
  6 10  1  1
  7  3  1  0
  8  5  1  0
  9 16  1  0
 10 14  1  0
  4 11  1  6
 12  2  2  0
 13  3  1  0
 14 12  1  0
 15 12  1  0
 16  6  1  0
 17 18  1  0
 18  4  1  0
 19 11  1  0
 20 11  2  0
 21 20  1  0
 22 19  2  0
 23 21  2  0
  8  7  1  0
 13 15  2  0
 17  9  1  0
 22 23  1  0
 23 24  1  0
 26 25  2  0
 27 25  2  0
 28 25  1  0
 29 25  1  0
M  END
> <chembl_id>
CHEMBL1200609

> <chembl_pref_name>
PAROXETINE MESYLATE
