
     RDKit          2D

 30 33  0  0  0  0  0  0  0  0999 V2000
   -3.7429   -5.9567    0.0000 C   0  0  0  0  0  0  0  0  0  0  0  0
   -4.4574   -6.3692    0.0000 C   0  0  0  0  0  0  0  0  0  0  0  0
   -5.1719   -5.9567    0.0000 C   0  0  0  0  0  0  0  0  0  0  0  0
   -5.1719   -5.1317    0.0000 C   0  0  0  0  0  0  0  0  0  0  0  0
   -4.4574   -4.7192    0.0000 C   0  0  0  0  0  0  0  0  0  0  0  0
   -3.7429   -5.1317    0.0000 C   0  0  0  0  0  0  0  0  0  0  0  0
   -3.0285   -4.7192    0.0000 C   0  0  0  0  0  0  0  0  0  0  0  0
   -2.3140   -5.1317    0.0000 C   0  0  0  0  0  0  0  0  0  0  0  0
   -2.3140   -5.9567    0.0000 C   0  0  0  0  0  0  0  0  0  0  0  0
   -3.0285   -6.3692    0.0000 N   0  0  0  0  0  0  0  0  0  0  0  0
   -5.8863   -6.3692    0.0000 O   0  0  0  0  0  0  0  0  0  0  0  0
   -5.8863   -4.7192    0.0000 C   0  0  0  0  0  0  0  0  0  0  0  0
   -5.8863   -3.8942    0.0000 O   0  0  0  0  0  0  0  0  0  0  0  0
   -6.6008   -5.1317    0.0000 N   0  0  0  0  0  0  0  0  0  0  0  0
   -3.0285   -3.8942    0.0000 O   0  0  0  0  0  0  0  0  0  0  0  0
   -2.3140   -3.4817    0.0000 C   0  0  0  0  0  0  0  0  0  0  0  0
   -1.5995   -3.8942    0.0000 C   0  0  0  0  0  0  0  0  0  0  0  0
   -2.3140   -2.6567    0.0000 C   0  0  0  0  0  0  0  0  0  0  0  0
   -1.5995   -2.2442    0.0000 C   0  0  0  0  0  0  0  0  0  0  0  0
   -0.8850   -2.6567    0.0000 C   0  0  0  0  0  0  0  0  0  0  0  0
   -0.8850   -3.4817    0.0000 C   0  0  0  0  0  0  0  0  0  0  0  0
   -1.5995   -1.4192    0.0000 Cl  0  0  0  0  0  0  0  0  0  0  0  0
   -0.1706   -2.2442    0.0000 N   0  0  0  0  0  0  0  0  0  0  0  0
    0.5439   -2.6567    0.0000 C   0  0  0  0  0  0  0  0  0  0  0  0
    0.5439   -3.4817    0.0000 O   0  0  0  0  0  0  0  0  0  0  0  0
    1.2584   -2.2442    0.0000 N   0  0  0  0  0  0  0  0  0  0  0  0
    1.9728   -2.6567    0.0000 C   0  0  0  0  0  0  0  0  0  0  0  0
    2.7978   -2.6567    0.0000 C   0  0  0  0  0  0  0  0  0  0  0  0
    2.3853   -3.3712    0.0000 C   0  0  0  0  0  0  0  0  0  0  0  0
   -5.8863   -7.1942    0.0000 C   0  0  0  0  0  0  0  0  0  0  0  0
  1  2  1  0
  1  6  2  0
  1 10  1  0
  2  3  2  0
  3  4  1  0
  4  5  2  0
  5  6  1  0
  6  7  1  0
  7  8  2  0
  8  9  1  0
  9 10  2  0
  3 11  1  0
  4 12  1  0
 12 13  2  0
 12 14  1  0
  7 15  1  0
 15 16  1  0
 17 16  1  0
 16 18  2  0
 17 21  2  0
 18 19  1  0
 19 20  2  0
 20 21  1  0
 19 22  1  0
 20 23  1  0
 23 24  1  0
 24 25  2  0
 24 26  1  0
 26 27  1  0
 27 28  1  0
 28 29  1  0
 29 27  1  0
 11 30  1  0
M  END
> <chembl_id>
CHEMBL1289601

> <chembl_pref_name>
LENVATINIB
