
     RDKit          2D

 17 18  0  0  1  0  0  0  0  0999 V2000
    5.8208   -3.4375    0.0000 N   0  0  0  0  0  0  0  0  0  0  0  0
    6.4333   -3.0792    0.0000 C   0  0  0  0  0  0  0  0  0  0  0  0
    6.4333   -2.3750    0.0000 N   0  0  0  0  0  0  0  0  0  0  0  0
    5.8292   -4.3792    0.0000 C   0  0  0  0  0  0  0  0  0  0  0  0
    5.2125   -3.0792    0.0000 C   0  0  0  0  0  0  0  0  0  0  0  0
    5.2125   -2.3750    0.0000 C   0  0  0  0  0  0  0  0  0  0  0  0
    5.8208   -2.0167    0.0000 C   0  0  0  0  0  0  0  0  0  0  0  0
    5.2542   -3.9625    0.0000 O   0  0  0  0  0  0  0  0  0  0  0  0
    5.6083   -5.0542    0.0000 C   0  0  0  0  0  0  0  0  0  0  0  0
    4.6833   -4.3792    0.0000 C   0  0  0  0  0  0  0  0  0  0  0  0
    4.9000   -5.0542    0.0000 C   0  0  0  0  0  0  0  0  0  0  0  0
    7.0500   -3.4333    0.0000 O   0  0  0  0  0  0  0  0  0  0  0  0
    5.8208   -1.3125    0.0000 O   0  0  0  0  0  0  0  0  0  0  0  0
    4.5958   -2.0208    0.0000 F   0  0  0  0  0  0  0  0  0  0  0  0
    4.4875   -5.6250    0.0000 O   0  0  0  0  0  0  0  0  0  0  0  0
    4.0625   -4.0250    0.0000 C   0  0  0  0  0  0  0  0  0  0  0  0
    3.4500   -4.3750    0.0000 O   0  0  0  0  0  0  0  0  0  0  0  0
  2  1  1  0
  3  2  1  0
  4  1  1  1
  5  1  1  0
  6  5  2  0
  7  3  1  0
  8  4  1  0
  9  4  1  0
 10  8  1  0
 11  9  1  0
 12  2  2  0
 13  7  2  0
 14  6  1  0
 11 15  1  6
 10 16  1  1
 17 16  1  0
 11 10  1  0
  7  6  1  0
M  END
> <chembl_id>
CHEMBL917

> <chembl_pref_name>
FLOXURIDINE
