
     RDKit          2D

 36 37  0  0  0  0  0  0  0  0999 V2000
    2.2208    0.1948    0.0000 Cl  0  0  0  0  0  0  0  0  0  0  0  0
   -0.9935    1.8770    0.0000 C   0  0  0  0  0  0  0  0  0  0  0  0
   -1.7080    1.4645    0.0000 C   0  0  0  0  0  0  0  0  0  0  0  0
   -1.7080    0.6394    0.0000 C   0  0  0  0  0  0  0  0  0  0  0  0
   -0.9935    0.2269    0.0000 C   0  0  0  0  0  0  0  0  0  0  0  0
   -0.2790    0.6394    0.0000 C   0  0  0  0  0  0  0  0  0  0  0  0
   -0.2790    1.4645    0.0000 C   0  0  0  0  0  0  0  0  0  0  0  0
   -2.4224    1.8770    0.0000 C   0  0  0  0  0  0  0  0  0  0  0  0
   -3.1369    1.4645    0.0000 C   0  0  0  0  0  0  0  0  0  0  0  0
   -3.1369    0.6394    0.0000 C   0  0  0  0  0  0  0  0  0  0  0  0
   -2.4224    0.2269    0.0000 C   0  0  0  0  0  0  0  0  0  0  0  0
   -3.8514    0.2269    0.0000 C   0  0  0  0  0  0  0  0  0  0  0  0
   -3.8514   -0.5981    0.0000 C   0  0  0  0  0  0  0  0  0  0  0  0
   -3.1369   -1.0106    0.0000 N   0  0  0  0  0  0  0  0  0  0  0  0
   -2.4224   -0.5981    0.0000 C   0  0  0  0  0  0  0  0  0  0  0  0
   -4.5658    0.6394    0.0000 C   0  0  0  0  0  0  0  0  0  0  0  0
   -5.2803    0.2269    0.0000 C   0  0  0  0  0  0  0  0  0  0  0  0
   -5.2803   -0.5981    0.0000 C   0  0  0  0  0  0  0  0  0  0  0  0
   -4.5658   -1.0106    0.0000 C   0  0  0  0  0  0  0  0  0  0  0  0
   -1.7080   -1.0106    0.0000 C   0  0  0  0  0  0  0  0  0  0  0  0
   -0.9935   -0.5981    0.0000 C   0  0  0  0  0  0  0  0  0  0  0  0
   -3.1369   -1.8356    0.0000 C   0  0  0  0  0  0  0  0  0  0  0  0
   -2.4224   -2.2481    0.0000 C   0  0  0  0  0  0  0  0  0  0  0  0
   -1.7080   -1.8356    0.0000 C   0  0  0  0  0  0  0  0  0  0  0  0
   -0.9935   -2.2481    0.0000 C   0  0  0  0  0  0  0  0  0  0  0  0
   -0.2790   -1.8356    0.0000 C   0  0  0  0  0  0  0  0  0  0  0  0
   -0.2790   -1.0106    0.0000 C   0  0  0  0  0  0  0  0  0  0  0  0
    0.4354   -2.2481    0.0000 C   0  0  0  0  0  0  0  0  0  0  0  0
    1.1499   -1.8356    0.0000 C   0  0  0  0  0  0  0  0  0  0  0  0
    1.8644   -2.2481    0.0000 N   0  0  0  0  0  0  0  0  0  0  0  0
    2.5788   -1.8356    0.0000 C   0  0  0  0  0  0  0  0  0  0  0  0
    3.2933   -2.2481    0.0000 C   0  0  0  0  0  0  0  0  0  0  0  0
    0.3884    1.9299    0.0000 O   0  0  0  0  0  0  0  0  0  0  0  0
   -6.0154   -0.9726    0.0000 O   0  0  0  0  0  0  0  0  0  0  0  0
   -6.0001   -1.7965    0.0000 C   0  0  0  0  0  0  0  0  0  0  0  0
    2.2013    0.8571    0.0000 Cl  0  0  0  0  0  0  0  0  0  0  0  0
  2  3  1  0
  3  4  2  0
  4  5  1  0
  5  6  2  0
  6  7  1  0
  2  7  2  0
  8  9  1  0
  9 10  1  0
 10 11  1  0
  8  3  1  0
 11  4  1  0
 12 13  2  0
 13 14  1  0
 14 15  1  0
 10 12  1  6
 16 17  2  0
 17 18  1  0
 18 19  2  0
 16 12  1  0
 19 13  1  0
 20 21  2  0
 15 20  1  0
 22 23  1  0
 14 22  1  0
 24 20  1  0
 25 26  1  0
 26 27  2  0
 21 27  1  0
 24 25  2  0
 28 29  1  0
 26 28  1  0
 30 31  1  0
 29 30  1  0
 31 32  1  0
  7 33  1  0
 18 34  1  0
 34 35  1  0
M  END
> <chembl_id>
CHEMBL4594273

> <chembl_pref_name>
ELACESTRANT HYDROCHLORIDE
