
     RDKit          2D

 79 81  0  0  0  0  0  0  0  0999 V2000
    2.9592    5.8660    0.0000 C   0  0  0  0  0  0  0  0  0  0  0  0
    2.5467    5.1515    0.0000 C   0  0  0  0  0  0  0  0  0  0  0  0
    2.9592    4.4370    0.0000 O   0  0  0  0  0  0  0  0  0  0  0  0
    1.7217    5.1515    0.0000 O   0  0  0  0  0  0  0  0  0  0  0  0
   -0.9445   -1.1230    0.0000 C   0  0  0  0  0  0  0  0  0  0  0  0
   -1.6590   -1.5355    0.0000 C   0  0  0  0  0  0  0  0  0  0  0  0
   -1.6590   -2.3605    0.0000 C   0  0  0  0  0  0  0  0  0  0  0  0
   -0.9445   -2.7730    0.0000 C   0  0  0  0  0  0  0  0  0  0  0  0
   -0.2300   -2.3605    0.0000 C   0  0  0  0  0  0  0  0  0  0  0  0
   -0.2300   -1.5355    0.0000 C   0  0  0  0  0  0  0  0  0  0  0  0
   -2.3734   -2.7731    0.0000 O   0  0  0  0  0  0  0  0  0  0  0  0
    0.4844   -1.1230    0.0000 C   0  0  0  0  0  0  0  0  0  0  0  0
    0.4844   -0.2980    0.0000 C   0  0  0  0  0  0  0  0  0  0  0  0
    1.1989    0.1145    0.0000 N   0  0  0  0  0  0  0  0  0  0  0  0
   -0.2301    0.1145    0.0000 C   0  0  0  0  0  0  0  0  0  0  0  0
   -0.2301    0.9395    0.0000 O   0  0  0  0  0  0  0  0  0  0  0  0
   -0.9445   -0.2980    0.0000 N   0  0  0  0  0  0  0  0  0  0  0  0
   -1.6590    0.1145    0.0000 C   0  0  0  0  0  0  0  0  0  0  0  0
   -1.6590    0.9395    0.0000 C   0  0  0  0  0  0  0  0  0  0  0  0
   -0.9445    1.3520    0.0000 C   0  0  0  0  0  0  0  0  0  0  0  0
   -2.3735    1.3519    0.0000 C   0  0  0  0  0  0  0  0  0  0  0  0
   -2.3735    2.1769    0.0000 C   0  0  0  0  0  0  0  0  0  0  0  0
   -2.3735   -0.2981    0.0000 C   0  0  0  0  0  0  0  0  0  0  0  0
   -2.3735   -1.1231    0.0000 O   0  0  0  0  0  0  0  0  0  0  0  0
   -3.0879    0.1144    0.0000 N   0  0  0  0  0  0  0  0  0  0  0  0
   -3.8024   -0.2981    0.0000 C   0  0  0  0  0  0  0  0  0  0  0  0
   -3.8024   -1.1231    0.0000 C   0  0  0  0  0  0  0  0  0  0  0  0
   -4.3544    0.3150    0.0000 C   0  0  0  0  0  0  0  0  0  0  0  0
   -4.0995    1.0996    0.0000 O   0  0  0  0  0  0  0  0  0  0  0  0
   -5.1614    0.1435    0.0000 N   0  0  0  0  0  0  0  0  0  0  0  0
   -5.7745    0.6955    0.0000 C   0  0  0  0  0  0  0  0  0  0  0  0
   -5.4970   -0.6102    0.0000 C   0  0  0  0  0  0  0  0  0  0  0  0
   -6.3174   -0.5240    0.0000 C   0  0  0  0  0  0  0  0  0  0  0  0
   -6.4890    0.2830    0.0000 C   0  0  0  0  0  0  0  0  0  0  0  0
   -5.6883    1.5160    0.0000 C   0  0  0  0  0  0  0  0  0  0  0  0
   -4.9346    1.8516    0.0000 O   0  0  0  0  0  0  0  0  0  0  0  0
   -6.3557    2.0009    0.0000 N   0  0  0  0  0  0  0  0  0  0  0  0
   -6.2695    2.8214    0.0000 C   0  0  0  0  0  0  0  0  0  0  0  0
   -5.5158    3.1570    0.0000 C   0  0  0  0  0  0  0  0  0  0  0  0
   -5.4296    3.9774    0.0000 C   0  0  0  0  0  0  0  0  0  0  0  0
   -6.9370    3.3063    0.0000 C   0  0  0  0  0  0  0  0  0  0  0  0
   -6.8507    4.1268    0.0000 O   0  0  0  0  0  0  0  0  0  0  0  0
   -7.6906    2.9707    0.0000 O   0  0  0  0  0  0  0  0  0  0  0  0
   -4.6759    4.3130    0.0000 C   0  0  0  0  0  0  0  0  0  0  0  0
   -6.0971    4.4623    0.0000 C   0  0  0  0  0  0  0  0  0  0  0  0
   -6.0108    5.2828    0.0000 C   0  0  0  0  0  0  0  0  0  0  0  0
   -5.2572    5.6184    0.0000 C   0  0  0  0  0  0  0  0  0  0  0  0
   -4.5897    5.1335    0.0000 C   0  0  0  0  0  0  0  0  0  0  0  0
    1.9134   -0.2980    0.0000 C   0  0  0  0  0  0  0  0  0  0  0  0
    2.6278    0.1145    0.0000 C   0  0  0  0  0  0  0  0  0  0  0  0
    2.6278    0.9395    0.0000 C   0  0  0  0  0  0  0  0  0  0  0  0
    3.3423   -0.2980    0.0000 N   0  0  0  0  0  0  0  0  0  0  0  0
    4.0568    0.1145    0.0000 C   0  0  0  0  0  0  0  0  0  0  0  0
    4.0568    0.9395    0.0000 O   0  0  0  0  0  0  0  0  0  0  0  0
    4.7712   -0.2980    0.0000 C   0  0  0  0  0  0  0  0  0  0  0  0
    5.4857    0.1145    0.0000 N   0  0  0  0  0  0  0  0  0  0  0  0
    6.2002   -0.2979    0.0000 C   0  0  0  0  0  0  0  0  0  0  0  0
    6.2002   -1.1229    0.0000 O   0  0  0  0  0  0  0  0  0  0  0  0
    6.9147    0.1146    0.0000 C   0  0  0  0  0  0  0  0  0  0  0  0
    6.9146    0.9396    0.0000 N   0  0  0  0  0  0  0  0  0  0  0  0
    7.6291   -0.2979    0.0000 C   0  0  0  0  0  0  0  0  0  0  0  0
    8.3436    0.1146    0.0000 C   0  0  0  0  0  0  0  0  0  0  0  0
    9.0581   -0.2979    0.0000 O   0  0  0  0  0  0  0  0  0  0  0  0
    8.3436    0.9396    0.0000 O   0  0  0  0  0  0  0  0  0  0  0  0
    4.7713   -1.1230    0.0000 C   0  0  0  0  0  0  0  0  0  0  0  0
    5.4857   -1.5355    0.0000 C   0  0  0  0  0  0  0  0  0  0  0  0
    5.4857   -2.3605    0.0000 C   0  0  0  0  0  0  0  0  0  0  0  0
    6.2002   -2.7729    0.0000 N   0  0  0  0  0  0  0  0  0  0  0  0
    6.2002   -3.5979    0.0000 C   0  0  0  0  0  0  0  0  0  0  0  0
    5.4858   -4.0105    0.0000 N   0  0  0  0  0  0  0  0  0  0  0  0
    6.9147   -4.0104    0.0000 N   0  0  0  0  0  0  0  0  0  0  0  0
   -4.5169   -1.5356    0.0000 C   0  0  0  0  0  0  0  0  0  0  0  0
   -5.2705   -1.2000    0.0000 C   0  0  0  0  0  0  0  0  0  0  0  0
   -5.8226   -1.8131    0.0000 N   0  0  0  0  0  0  0  0  0  0  0  0
   -5.4101   -2.5276    0.0000 C   0  0  0  0  0  0  0  0  0  0  0  0
   -4.6031   -2.3561    0.0000 N   0  0  0  0  0  0  0  0  0  0  0  0
    1.9134   -1.1230    0.0000 O   0  0  0  0  0  0  0  0  0  0  0  0
    3.3423    1.3520    0.0000 C   0  0  0  0  0  0  0  0  0  0  0  0
    1.9133    1.3520    0.0000 C   0  0  0  0  0  0  0  0  0  0  0  0
  1  2  1  0
  2  3  2  0
  2  4  1  0
  5  6  1  0
  6  7  2  0
  7  8  1  0
  8  9  2  0
  9 10  1  0
  5 10  2  0
  7 11  1  0
 10 12  1  0
 12 13  1  0
 13 14  1  1
 13 15  1  0
 15 16  2  0
 15 17  1  0
 17 18  1  0
 18 19  1  0
 19 20  1  6
 19 21  1  0
 21 22  1  0
 18 23  1  6
 23 24  2  0
 25 26  1  0
 26 27  1  1
 26 28  1  0
 28 29  2  0
 28 30  1  0
 32 33  1  0
 33 34  1  0
 31 34  1  0
 31 30  1  0
 30 32  1  0
 31 35  1  1
 35 36  2  0
 35 37  1  0
 37 38  1  0
 38 39  1  0
 39 40  1  0
 38 41  1  6
 41 42  2  0
 41 43  1  0
 45 46  1  0
 46 47  2  0
 47 48  1  0
 44 48  2  0
 44 40  1  0
 40 45  2  0
 25 23  1  0
 14 49  1  0
 49 50  1  0
 50 51  1  0
 50 52  1  6
 52 53  1  0
 53 54  2  0
 55 53  1  1
 55 56  1  0
 56 57  1  0
 57 58  2  0
 57 59  1  0
 59 60  1  1
 59 61  1  0
 61 62  1  0
 62 63  2  0
 62 64  1  0
 55 65  1  0
 65 66  1  0
 66 67  1  0
 67 68  1  0
 68 69  1  0
 69 70  2  0
 69 71  1  0
 27 72  1  0
 73 74  1  0
 74 75  2  0
 75 76  1  0
 72 73  2  0
 72 76  1  0
 49 77  2  0
 51 78  1  0
 51 79  1  0
M  END
> <chembl_id>
CHEMBL3989932

> <chembl_pref_name>
ANGIOTENSIN II ACETATE
