
     RDKit          2D

 22 23  0  0  0  0  0  0  0  0999 V2000
    2.2111    1.0292    0.0000 C   0  0  0  0  0  0  0  0  0  0  0  0
    2.2099    0.2018    0.0000 C   0  0  0  0  0  0  0  0  0  0  0  0
    2.9247   -0.2110    0.0000 C   0  0  0  0  0  0  0  0  0  0  0  0
    3.6412    0.2023    0.0000 C   0  0  0  0  0  0  0  0  0  0  0  0
    3.6383    1.0328    0.0000 C   0  0  0  0  0  0  0  0  0  0  0  0
    2.9229    1.4420    0.0000 C   0  0  0  0  0  0  0  0  0  0  0  0
    4.3512    1.4480    0.0000 Cl  0  0  0  0  0  0  0  0  0  0  0  0
    1.4951   -0.2101    0.0000 C   0  0  0  0  0  0  0  0  0  0  0  0
    0.7810    0.2030    0.0000 O   0  0  0  0  0  0  0  0  0  0  0  0
    1.4945   -1.0351    0.0000 C   0  0  0  0  0  0  0  0  0  0  0  0
    0.7796   -1.4455    0.0000 C   0  0  0  0  0  0  0  0  0  0  0  0
    0.7786   -2.2697    0.0000 C   0  0  0  0  0  0  0  0  0  0  0  0
    1.4932   -2.6836    0.0000 C   0  0  0  0  0  0  0  0  0  0  0  0
    2.2104   -2.2672    0.0000 C   0  0  0  0  0  0  0  0  0  0  0  0
    2.2079   -1.4444    0.0000 C   0  0  0  0  0  0  0  0  0  0  0  0
    1.4937   -3.5086    0.0000 O   0  0  0  0  0  0  0  0  0  0  0  0
    0.7794   -3.9215    0.0000 C   0  0  0  0  0  0  0  0  0  0  0  0
    0.7799   -4.7465    0.0000 C   0  0  0  0  0  0  0  0  0  0  0  0
    0.0625   -3.5083    0.0000 C   0  0  0  0  0  0  0  0  0  0  0  0
    1.4917   -4.3333    0.0000 C   0  0  0  0  0  0  0  0  0  0  0  0
    0.0656   -5.1594    0.0000 O   0  0  0  0  0  0  0  0  0  0  0  0
    1.4946   -5.1586    0.0000 O   0  0  0  0  0  0  0  0  0  0  0  0
 13 14  1  0
  2  3  1  0
 14 15  2  0
 15 10  1  0
  5  7  1  0
 13 16  1  0
 16 17  1  0
  2  8  1  0
 17 18  1  0
  3  4  2  0
 17 19  1  0
  8  9  2  0
 17 20  1  0
  1  2  2  0
 18 21  2  0
  8 10  1  0
 18 22  1  0
  4  5  1  0
 10 11  2  0
 11 12  1  0
  5  6  2  0
 12 13  2  0
  6  1  1  0
M  END
> <chembl_id>
CHEMBL981

> <chembl_pref_name>
FENOFIBRIC ACID
