
     RDKit          2D

 12 12  0  0  1  0  0  0  0  0999 V2000
    5.2167   -8.6375    0.0000 C   0  0  0  0  0  0  0  0  0  0  0  0
    4.8625   -9.2500    0.0000 C   0  0  0  0  0  0  0  0  0  0  0  0
    4.1542   -9.2417    0.0000 C   0  0  0  0  0  0  0  0  0  0  0  0
    4.8792   -8.0167    0.0000 O   0  0  0  0  0  0  0  0  0  0  0  0
    3.8125   -8.6292    0.0000 C   0  0  0  0  0  0  0  0  0  0  0  0
    4.1792   -8.0125    0.0000 C   0  0  0  0  0  0  0  0  0  0  0  0
    5.9292   -8.6417    0.0000 O   0  0  0  0  0  0  0  0  0  0  0  0
    5.2167   -9.8750    0.0000 O   0  0  0  0  0  0  0  0  0  0  0  0
    3.7917   -9.8542    0.0000 O   0  0  0  0  0  0  0  0  0  0  0  0
    3.1000   -8.6167    0.0000 O   0  0  0  0  0  0  0  0  0  0  0  0
    3.8375   -7.3875    0.0000 C   0  0  0  0  0  0  0  0  0  0  0  0
    3.1333   -7.3542    0.0000 O   0  0  0  0  0  0  0  0  0  0  0  0
  2  1  1  0
  3  2  1  0
  4  1  1  0
  5  6  1  0
  6  4  1  0
  7  1  2  0
  2  8  1  6
  3  9  1  1
  5 10  1  6
  6 11  1  1
 12 11  1  0
  3  5  1  0
M  END
> <chembl_id>
CHEMBL1200829

> <chembl_pref_name>
GLUCONOLACTONE
