
     RDKit          2D

 22 21  0  0  0  0  0  0  0  0999 V2000
    9.2667   -8.4000    0.0000 Cl  0  0  0  0  0  0  0  0  0  0  0  0
    8.2000   -7.1917    0.0000 C   0  0  0  0  0  0  0  0  0  0  0  0
    7.7167   -7.8542    0.0000 N   0  0  0  0  0  0  0  0  0  0  0  0
    7.7167   -6.5167    0.0000 S   0  0  0  0  0  0  0  0  0  0  0  0
    6.9250   -6.7667    0.0000 C   0  0  0  0  0  0  0  0  0  0  0  0
    9.0250   -7.1917    0.0000 N   0  0  0  0  0  0  0  0  0  0  0  0
    6.9250   -7.6042    0.0000 C   0  0  0  0  0  0  0  0  0  0  0  0
    6.2125   -6.3542    0.0000 C   0  0  0  0  0  0  0  0  0  0  0  0
    3.3167   -8.0375    0.0000 N   0  0  0  0  0  0  0  0  0  0  0  0
    6.2125   -8.0292    0.0000 C   0  0  0  0  0  0  0  0  0  0  0  0
    5.4917   -6.7667    0.0000 C   0  0  0  0  0  0  0  0  0  0  0  0
    5.4917   -7.6042    0.0000 C   0  0  0  0  0  0  0  0  0  0  0  0
    4.7750   -6.3542    0.0000 O   0  0  0  0  0  0  0  0  0  0  0  0
    9.4417   -6.4750    0.0000 C   0  0  0  0  0  0  0  0  0  0  0  0
    9.4417   -7.9167    0.0000 C   0  0  0  0  0  0  0  0  0  0  0  0
    4.0500   -7.6042    0.0000 C   0  0  0  0  0  0  0  0  0  0  0  0
    4.0500   -6.7667    0.0000 C   0  0  0  0  0  0  0  0  0  0  0  0
    2.5917   -7.6125    0.0000 C   0  0  0  0  0  0  0  0  0  0  0  0
    3.3167   -8.8792    0.0000 C   0  0  0  0  0  0  0  0  0  0  0  0
    2.5917   -6.7750    0.0000 C   0  0  0  0  0  0  0  0  0  0  0  0
    2.5917   -9.2875    0.0000 C   0  0  0  0  0  0  0  0  0  0  0  0
    3.7542   -8.6792    0.0000 Cl  0  0  0  0  0  0  0  0  0  0  0  0
  3  2  2  0
  4  2  1  0
  5  4  1  0
  6  2  1  0
  7  3  1  0
  8  5  1  0
  9 16  1  0
 10  7  1  0
 11  8  2  0
 12 10  2  0
 13 11  1  0
 14  6  1  0
 15  6  1  0
 16 17  1  0
 17 13  1  0
 18  9  1  0
 19  9  1  0
 20 18  1  0
 21 19  1  0
  7  5  2  0
 12 11  1  0
M  END
> <chembl_id>
CHEMBL346235

> <chembl_pref_name>
DIAMTHAZOLE DIHYDROCHLORIDE
