
     RDKit          2D

 48 43  0  0  0  0  0  0  0  0999 V2000
   12.5813   -1.7973    0.0000 O   0  0  0  0  0  0  0  0  0  0  0  0
    1.9507    1.7511    0.0000 P   0  0  0  0  0  0  0  0  0  0  0  0
    1.9507    0.9261    0.0000 O   0  0  0  0  0  0  0  0  0  0  0  0
    2.6651    0.5136    0.0000 C   0  0  0  0  0  0  0  0  0  0  0  0
    2.6651   -0.3114    0.0000 N   0  0  0  0  0  0  0  0  0  0  0  0
    1.9507   -0.7239    0.0000 C   0  0  0  0  0  0  0  0  0  0  0  0
    1.9507   -1.5489    0.0000 C   0  0  0  0  0  0  0  0  0  0  0  0
    2.6651   -1.9614    0.0000 O   0  0  0  0  0  0  0  0  0  0  0  0
    3.3796   -1.5489    0.0000 C   0  0  0  0  0  0  0  0  0  0  0  0
    3.3796   -0.7239    0.0000 C   0  0  0  0  0  0  0  0  0  0  0  0
    4.0941   -1.9614    0.0000 C   0  0  0  0  0  0  0  0  0  0  0  0
    4.8086   -1.5489    0.0000 C   0  0  0  0  0  0  0  0  0  0  0  0
    4.8086   -0.7239    0.0000 C   0  0  0  0  0  0  0  0  0  0  0  0
    4.0941   -0.3114    0.0000 N   0  0  0  0  0  0  0  0  0  0  0  0
    1.2362   -0.3114    0.0000 O   0  0  0  0  0  0  0  0  0  0  0  0
    1.1257   -1.5489    0.0000 C   0  0  0  0  0  0  0  0  0  0  0  0
    1.7371   -2.3458    0.0000 C   0  0  0  0  0  0  0  0  0  0  0  0
    5.5230   -0.3114    0.0000 N   0  0  0  0  0  0  0  0  0  0  0  0
    6.2375   -0.7239    0.0000 C   0  0  0  0  0  0  0  0  0  0  0  0
    6.2375   -1.5489    0.0000 N   0  0  0  0  0  0  0  0  0  0  0  0
    6.9520   -1.9614    0.0000 C   0  0  0  0  0  0  0  0  0  0  0  0
    7.6664   -1.5489    0.0000 N   0  0  0  0  0  0  0  0  0  0  0  0
    7.6664   -0.7239    0.0000 C   0  0  0  0  0  0  0  0  0  0  0  0
    6.9520   -0.3114    0.0000 C   0  0  0  0  0  0  0  0  0  0  0  0
    6.9520    0.5136    0.0000 F   0  0  0  0  0  0  0  0  0  0  0  0
    6.9520   -2.7864    0.0000 N   0  0  0  0  0  0  0  0  0  0  0  0
    7.6664   -3.1989    0.0000 C   0  0  0  0  0  0  0  0  0  0  0  0
    7.6664   -4.0239    0.0000 C   0  0  0  0  0  0  0  0  0  0  0  0
    8.3809   -4.4364    0.0000 C   0  0  0  0  0  0  0  0  0  0  0  0
    9.0954   -4.0239    0.0000 C   0  0  0  0  0  0  0  0  0  0  0  0
    9.0954   -3.1989    0.0000 C   0  0  0  0  0  0  0  0  0  0  0  0
    8.3809   -2.7864    0.0000 C   0  0  0  0  0  0  0  0  0  0  0  0
    9.8099   -2.7864    0.0000 O   0  0  0  0  0  0  0  0  0  0  0  0
   10.5243   -3.1989    0.0000 C   0  0  0  0  0  0  0  0  0  0  0  0
    9.8099   -4.4364    0.0000 O   0  0  0  0  0  0  0  0  0  0  0  0
    9.8099   -5.2614    0.0000 C   0  0  0  0  0  0  0  0  0  0  0  0
    8.3809   -5.2614    0.0000 O   0  0  0  0  0  0  0  0  0  0  0  0
    7.6664   -5.6739    0.0000 C   0  0  0  0  0  0  0  0  0  0  0  0
    1.2362    2.1636    0.0000 O   0  0  0  0  0  0  0  0  0  0  0  0
    2.6652    2.1636    0.0000 O   0  0  0  0  0  0  0  0  0  0  0  0
    1.9458    2.5792    0.0000 O   0  0  0  0  0  0  0  0  0  0  0  0
    3.1667    3.1667    0.0000 Na  0  0  0  0  0 15  0  0  0  0  0  0
    3.9125    2.3208    0.0000 Na  0  0  0  0  0 15  0  0  0  0  0  0
    8.8688    3.2411    0.0000 O   0  0  0  0  0  0  0  0  0  0  0  0
   10.6661    2.5045    0.0000 O   0  0  0  0  0  0  0  0  0  0  0  0
    9.6054    0.8839    0.0000 O   0  0  0  0  0  0  0  0  0  0  0  0
   11.4616    0.4714    0.0000 O   0  0  0  0  0  0  0  0  0  0  0  0
   10.0473   -0.2652    0.0000 O   0  0  0  0  0  0  0  0  0  0  0  0
  9 10  2  0
 10  5  1  0
  9 11  1  0
 11 12  2  0
 12 13  1  0
 13 14  2  0
 14 10  1  0
  6 15  2  0
  7 16  1  0
  7 17  1  0
 13 18  1  0
 18 19  1  0
 19 20  2  0
 20 21  1  0
 21 22  2  0
 22 23  1  0
 23 24  2  0
 24 19  1  0
 24 25  1  0
 21 26  1  0
 26 27  1  0
 27 28  1  0
 28 29  2  0
 29 30  1  0
 30 31  2  0
 31 32  1  0
 32 27  2  0
 31 33  1  0
 33 34  1  0
 30 35  1  0
 35 36  1  0
  2  3  1  0
 29 37  1  0
  3  4  1  0
 37 38  1  0
  4  5  1  0
  2 39  2  0
  5  6  1  0
  2 40  1  0
  6  7  1  0
  2 41  1  0
  7  8  1  0
  8  9  1  0
M  CHG  4  40  -1  41  -1  42   1  43   1
M  END
> <chembl_id>
CHEMBL3989516

> <chembl_pref_name>
FOSTAMATINIB DISODIUM
