
     RDKit          2D

 15 14  0  0  0  0  0  0  0  0999 V2000
   -0.6083   -0.0917    0.0000 S   0  0  0  0  0  0  0  0  0  0  0  0
   -1.8708    0.6125    0.0000 C   0  0  0  0  0  0  0  0  0  0  0  0
    0.6292    0.6125    0.0000 C   0  0  0  0  0  0  0  0  0  0  0  0
   -1.8708    2.0250    0.0000 S   0  0  0  0  0  0  0  0  0  0  0  0
    0.6292    2.0250    0.0000 S   0  0  0  0  0  0  0  0  0  0  0  0
    1.8667   -0.0917    0.0000 N   0  0  0  0  0  0  0  0  0  0  0  0
   -3.1083   -0.0917    0.0000 N   0  0  0  0  0  0  0  0  0  0  0  0
   -3.1083   -1.5375    0.0000 C   0  0  0  0  0  0  0  0  0  0  0  0
   -4.3458    0.6125    0.0000 C   0  0  0  0  0  0  0  0  0  0  0  0
    3.1042    0.6458    0.0000 C   0  0  0  0  0  0  0  0  0  0  0  0
    1.8667   -1.5042    0.0000 C   0  0  0  0  0  0  0  0  0  0  0  0
   -4.3458   -2.2417    0.0000 C   0  0  0  0  0  0  0  0  0  0  0  0
   -4.3458    2.0250    0.0000 C   0  0  0  0  0  0  0  0  0  0  0  0
    4.3417   -0.0625    0.0000 C   0  0  0  0  0  0  0  0  0  0  0  0
    0.6292   -2.2167    0.0000 C   0  0  0  0  0  0  0  0  0  0  0  0
  2  1  1  0
  3  1  1  0
  4  2  2  0
  5  3  2  0
  6  3  1  0
  7  2  1  0
  8  7  1  0
  9  7  1  0
 10  6  1  0
 11  6  1  0
 12  8  1  0
 13  9  1  0
 14 10  1  0
 15 11  1  0
M  END
> <chembl_id>
CHEMBL2004297

> <chembl_pref_name>
SULFIRAM
