
     RDKit          2D

 25 28  0  0  1  0  0  0  0  0999 V2000
    7.7011    4.2710    0.0000 C   0  0  0  0  0  0  0  0  0  0  0  0
    6.9666    4.6121    0.0000 C   0  0  0  0  0  0  0  0  0  0  0  0
    7.5521    5.0206    0.0000 C   0  0  0  0  0  0  0  0  0  0  0  0
    6.1424    4.2584    0.0000 C   0  0  0  0  0  0  0  0  0  0  0  0
    7.1021    5.6339    0.0000 C   0  0  0  0  0  0  0  0  0  0  0  0
    6.8279    5.3467    0.0000 N   0  0  0  0  0  0  0  0  0  0  0  0
    6.0358    5.0002    0.0000 C   0  0  0  0  0  0  0  0  0  0  0  0
    6.8623    6.2297    0.0000 C   0  0  0  0  0  0  0  0  0  0  0  0
    7.6962    3.4477    0.0000 C   0  0  0  0  0  0  0  0  0  0  0  0
    8.4105    3.0296    0.0000 C   0  0  0  0  0  0  0  0  0  0  0  0
    5.3104    4.5919    0.0000 C   0  0  0  0  0  0  0  0  0  0  0  0
    4.5982    5.0136    0.0000 C   0  0  0  0  0  0  0  0  0  0  0  0
    5.3014    3.7643    0.0000 O   0  0  0  0  0  0  0  0  0  0  0  0
    4.6088    5.8406    0.0000 C   0  0  0  0  0  0  0  0  0  0  0  0
    3.8975    6.2622    0.0000 C   0  0  0  0  0  0  0  0  0  0  0  0
    3.1751    5.8562    0.0000 N   0  0  0  0  0  0  0  0  0  0  0  0
    3.8807    4.6064    0.0000 C   0  0  0  0  0  0  0  0  0  0  0  0
    3.1725    5.0254    0.0000 C   0  0  0  0  0  0  0  0  0  0  0  0
    2.4577    4.6218    0.0000 C   0  0  0  0  0  0  0  0  0  0  0  0
    2.4496    3.7991    0.0000 C   0  0  0  0  0  0  0  0  0  0  0  0
    3.1625    3.3819    0.0000 C   0  0  0  0  0  0  0  0  0  0  0  0
    3.8747    3.7879    0.0000 C   0  0  0  0  0  0  0  0  0  0  0  0
    3.1579    2.5542    0.0000 O   0  0  0  0  0  0  0  0  0  0  0  0
    2.4387    2.1445    0.0000 C   0  0  0  0  0  0  0  0  0  0  0  0
    5.5943    4.1038    0.0000 H   0  0  0  0  0  0  0  0  0  0  0  0
  4  7  1  0
  5  8  1  0
  6  7  1  0
  6  8  1  0
  1  9  1  6
  9 10  2  0
  7 11  1  0
 11 12  1  0
 11 13  1  1
 12 14  2  0
 14 15  1  0
 15 16  2  0
 16 18  1  0
 17 12  1  0
 17 18  1  0
 18 19  2  0
  2  1  1  0
 19 20  1  0
  1  3  1  0
 20 21  2  0
  2  4  1  0
 21 22  1  0
 22 17  2  0
 21 23  1  0
  3  6  1  0
 23 24  1  0
  7 25  1  1
  2  5  1  6
M  END
> <chembl_id>
CHEMBL1294

> <chembl_pref_name>
QUINIDINE
