
     RDKit          2D

 29 33  0  0  1  0  0  0  0  0999 V2000
    3.5167   -4.0042    0.0000 C   0  0  0  0  0  0  0  0  0  0  0  0
    2.8542   -4.0000    0.0000 C   0  0  0  0  0  0  0  0  0  0  0  0
    2.5042   -4.6292    0.0000 C   0  0  0  0  0  0  0  0  0  0  0  0
    3.8167   -4.6292    0.0000 C   0  0  0  0  0  0  0  0  0  0  0  0
    3.8292   -3.4500    0.0000 C   0  0  0  0  0  0  0  0  0  0  0  0
    3.2292   -5.0667    0.0000 O   0  0  0  0  0  0  0  0  0  0  0  0
    3.5167   -2.8500    0.0000 C   0  0  0  0  0  0  0  0  0  0  0  0
    2.5042   -3.4667    0.0000 C   0  0  0  0  0  0  0  0  0  0  0  0
    4.5417   -3.4500    0.0000 C   0  0  0  0  0  0  0  0  0  0  0  0
    2.8542   -2.8375    0.0000 C   0  0  0  0  0  0  0  0  0  0  0  0
    3.8750   -2.0792    0.0000 N   0  0  0  0  0  0  0  0  0  0  0  0
    4.5542   -4.6292    0.0000 C   0  0  0  0  0  0  0  0  0  0  0  0
    1.8125   -4.6125    0.0000 C   0  0  0  0  0  0  0  0  0  0  0  0
    4.9167   -4.0167    0.0000 C   0  0  0  0  0  0  0  0  0  0  0  0
    4.3792   -3.7417    0.0000 C   0  0  0  0  0  0  0  0  0  0  0  0
    1.5000   -5.0792    0.0000 O   0  0  0  0  0  0  0  0  0  0  0  0
    4.9375   -5.1042    0.0000 O   0  0  0  0  0  0  0  0  0  0  0  0
    1.8292   -5.7042    0.0000 C   0  0  0  0  0  0  0  0  0  0  0  0
    5.6500   -5.0917    0.0000 C   0  0  0  0  0  0  0  0  0  0  0  0
    4.3917   -2.4667    0.0000 C   0  0  0  0  0  0  0  0  0  0  0  0
    1.8250   -3.4417    0.0000 C   0  0  0  0  0  0  0  0  0  0  0  0
    1.4750   -4.0167    0.0000 C   0  0  0  0  0  0  0  0  0  0  0  0
    6.1000   -4.5000    0.0000 O   0  0  0  0  0  0  0  0  0  0  0  0
    2.6167   -5.7125    0.0000 O   0  0  0  0  0  0  0  0  0  0  0  0
    3.6250   -1.4792    0.0000 C   0  0  0  0  0  0  0  0  0  0  0  0
    1.4667   -6.2750    0.0000 C   0  0  0  0  0  0  0  0  0  0  0  0
    5.9750   -5.6792    0.0000 C   0  0  0  0  0  0  0  0  0  0  0  0
    3.8667   -5.3125    0.0000 H   0  0  0  0  0  0  0  0  0  0  0  0
    4.0875   -2.9667    0.0000 H   0  0  0  0  0  0  0  0  0  0  0  0
  2  1  1  0
  3  2  1  0
  4  1  1  0
  5  1  1  0
  6  4  1  0
  7  5  1  0
  8  2  2  0
  9  5  1  0
 10  7  1  0
 11 20  1  0
 12  4  1  0
 13  3  2  0
 14  9  2  0
  1 15  1  1
 16 13  1  0
 12 17  1  6
 18 16  1  0
 19 17  1  0
 20 15  1  0
 21  8  1  0
 22 21  2  0
 23 19  2  0
 24 18  2  0
 25 11  1  0
 26 18  1  0
 27 19  1  0
  4 28  1  1
  5 29  1  1
  3  6  1  0
  7 11  1  1
 12 14  1  0
  8 10  1  0
 13 22  1  0
M  END
> <chembl_id>
CHEMBL459324

> <chembl_pref_name>
DIACETYLMORPHINE
