
     RDKit          2D

 13 11  0  0  0  0  0  0  0  0999 V2000
    1.5542   -3.5625    0.0000 Cl  0  0  0  0  0  0  0  0  0  0  0  0
   -0.2375   -1.4458    0.0000 C   0  0  0  0  0  0  0  0  0  0  0  0
    3.4500   -1.4333    0.0000 C   0  0  0  0  0  0  0  0  0  0  0  0
   -0.2417   -0.7333    0.0000 N   0  0  0  0  0  0  0  0  0  0  0  0
    3.4500   -0.7208    0.0000 O   0  0  0  0  0  0  0  0  0  0  0  0
    0.3750   -1.8000    0.0000 N   0  0  0  0  0  0  0  0  0  0  0  0
    2.8375   -1.7917    0.0000 C   0  0  0  0  0  0  0  0  0  0  0  0
   -0.8500   -1.8000    0.0000 N   0  0  0  0  0  0  0  0  0  0  0  0
    4.0625   -1.7917    0.0000 O   0  0  0  0  0  0  0  0  0  0  0  0
    2.8333   -2.5042    0.0000 N   0  0  0  0  0  0  0  0  0  0  0  0
    0.9875   -1.4417    0.0000 C   0  0  0  0  0  0  0  0  0  0  0  0
    2.2250   -1.4375    0.0000 C   0  0  0  0  0  0  0  0  0  0  0  0
    1.6042   -1.7917    0.0000 C   0  0  0  0  0  0  0  0  0  0  0  0
  3  7  1  0
  4  2  2  0
  5  3  2  0
  6  2  1  0
  7 12  1  0
  8  2  1  0
  9  3  1  0
  7 10  1  1
 11  6  1  0
 12 13  1  0
 13 11  1  0
M  END
> <chembl_id>
CHEMBL1200381

> <chembl_pref_name>
ARGININE HYDROCHLORIDE
