
     RDKit          2D

 37 40  0  0  1  0  0  0  0  0999 V2000
    2.1792   -7.0000    0.0000 C   0  0  0  0  0  0  0  0  0  0  0  0
    4.0250   -5.9500    0.0000 C   0  0  0  0  0  0  0  0  0  0  0  0
    2.7917   -6.6458    0.0000 C   0  0  0  0  0  0  0  0  0  0  0  0
    2.1792   -7.7042    0.0000 C   0  0  0  0  0  0  0  0  0  0  0  0
    4.0167   -6.6542    0.0000 C   0  0  0  0  0  0  0  0  0  0  0  0
    3.4042   -7.0042    0.0000 C   0  0  0  0  0  0  0  0  0  0  0  0
    4.7000   -5.7375    0.0000 C   0  0  0  0  0  0  0  0  0  0  0  0
    2.7958   -5.9375    0.0000 C   0  0  0  0  0  0  0  0  0  0  0  0
    1.5667   -6.6417    0.0000 C   0  0  0  0  0  0  0  0  0  0  0  0
    3.4125   -5.5875    0.0000 C   0  0  0  0  0  0  0  0  0  0  0  0
    5.1083   -6.3125    0.0000 C   0  0  0  0  0  0  0  0  0  0  0  0
    4.6875   -6.8833    0.0000 C   0  0  0  0  0  0  0  0  0  0  0  0
    3.4000   -7.7125    0.0000 C   0  0  0  0  0  0  0  0  0  0  0  0
    2.7875   -8.0625    0.0000 C   0  0  0  0  0  0  0  0  0  0  0  0
    1.5667   -8.0625    0.0000 C   0  0  0  0  0  0  0  0  0  0  0  0
    4.6917   -5.0292    0.0000 C   0  0  0  0  0  0  0  0  0  0  0  0
    6.5333   -4.6583    0.0000 C   0  0  0  0  0  0  0  0  0  0  0  0
    0.9542   -7.0000    0.0000 C   0  0  0  0  0  0  0  0  0  0  0  0
    0.9542   -7.7042    0.0000 C   0  0  0  0  0  0  0  0  0  0  0  0
    7.1458   -5.0083    0.0000 C   0  0  0  0  0  0  0  0  0  0  0  0
    5.9208   -5.0167    0.0000 O   0  0  0  0  0  0  0  0  0  0  0  0
    5.3042   -4.6667    0.0000 C   0  0  0  0  0  0  0  0  0  0  0  0
    2.7875   -7.3542    0.0000 F   0  0  0  0  0  0  0  0  0  0  0  0
    6.5250   -3.9500    0.0000 O   0  0  0  0  0  0  0  0  0  0  0  0
    4.0792   -4.6792    0.0000 O   0  0  0  0  0  0  0  0  0  0  0  0
    0.3417   -8.0583    0.0000 O   0  0  0  0  0  0  0  0  0  0  0  0
    5.3125   -5.3792    0.0000 O   0  0  0  0  0  0  0  0  0  0  0  0
    2.1750   -6.2917    0.0000 C   0  0  0  0  0  0  0  0  0  0  0  0
    4.0167   -5.2417    0.0000 C   0  0  0  0  0  0  0  0  0  0  0  0
    2.1833   -5.5792    0.0000 O   0  0  0  0  0  0  0  0  0  0  0  0
    2.7833   -8.7708    0.0000 F   0  0  0  0  0  0  0  0  0  0  0  0
    5.8167   -6.3208    0.0000 C   0  0  0  0  0  0  0  0  0  0  0  0
    7.4917   -5.6167    0.0000 C   0  0  0  0  0  0  0  0  0  0  0  0
    6.7875   -5.6167    0.0000 C   0  0  0  0  0  0  0  0  0  0  0  0
    7.7583   -4.6500    0.0000 C   0  0  0  0  0  0  0  0  0  0  0  0
    3.4000   -6.2917    0.0000 H   0  0  0  0  0  0  0  0  0  0  0  0
    4.0125   -7.3625    0.0000 H   0  0  0  0  0  0  0  0  0  0  0  0
  2 10  1  0
  3  1  1  0
  4  1  1  0
  5  6  1  0
  6  3  1  0
  7  2  1  0
  8  3  1  0
  9  1  1  0
 10  8  1  0
 11 12  1  0
 12  5  1  0
 13  6  1  0
 14  4  1  0
 15  4  2  0
 16  7  1  0
 17 21  1  0
 18  9  2  0
 19 15  1  0
 20 17  1  0
 21 22  1  0
 22 16  1  0
  3 23  1  6
 24 17  2  0
 25 16  2  0
 26 19  2  0
  7 27  1  6
  1 28  1  1
  2 29  1  1
  8 30  1  1
 14 31  1  6
 11 32  1  6
 33 20  1  0
 34 20  1  0
 35 20  1  0
  6 36  1  1
  5 37  1  6
 13 14  1  0
  5  2  1  0
 19 18  1  0
  7 11  1  0
M  END
> <chembl_id>
CHEMBL1200877

> <chembl_pref_name>
FLUMETHASONE PIVALATE
