
     RDKit          2D

 27 28  0  0  0  0  0  0  0  0999 V2000
    0.5125   -2.6792    0.0000 Br  0  0  0  0  0  0  0  0  0  0  0  0
   -0.9000    0.3333    0.0000 C   0  0  0  0  0  0  0  0  0  0  0  0
   -1.9708    0.3333    0.0000 C   0  0  0  0  0  0  0  0  0  0  0  0
    2.3375   -1.5292    0.0000 N   0  0  0  0  0  0  0  0  0  0  0  0
   -0.3500   -0.6000    0.0000 O   0  0  0  0  0  0  0  0  0  0  0  0
   -0.3500    1.2625    0.0000 O   0  0  0  0  0  0  0  0  0  0  0  0
   -1.9708    1.4250    0.0000 C   0  0  0  0  0  0  0  0  0  0  0  0
   -1.9708   -0.7375    0.0000 C   0  0  0  0  0  0  0  0  0  0  0  0
    1.2667   -1.5292    0.0000 C   0  0  0  0  0  0  0  0  0  0  0  0
    0.7167   -0.6000    0.0000 C   0  0  0  0  0  0  0  0  0  0  0  0
   -3.0625    0.3333    0.0000 O   0  0  0  0  0  0  0  0  0  0  0  0
    2.8792   -0.6000    0.0000 C   0  0  0  0  0  0  0  0  0  0  0  0
    2.3167   -2.6542    0.0000 C   0  0  0  0  0  0  0  0  0  0  0  0
    3.2667   -2.0917    0.0000 C   0  0  0  0  0  0  0  0  0  0  0  0
    2.3375    0.3333    0.0000 C   0  0  0  0  0  0  0  0  0  0  0  0
    1.2667    0.3333    0.0000 C   0  0  0  0  0  0  0  0  0  0  0  0
   -2.9250   -1.2792    0.0000 C   0  0  0  0  0  0  0  0  0  0  0  0
   -1.0333   -1.2792    0.0000 C   0  0  0  0  0  0  0  0  0  0  0  0
   -1.0333    1.9750    0.0000 C   0  0  0  0  0  0  0  0  0  0  0  0
   -2.9250    1.9750    0.0000 C   0  0  0  0  0  0  0  0  0  0  0  0
    1.7750   -3.5875    0.0000 C   0  0  0  0  0  0  0  0  0  0  0  0
   -2.9250    3.0458    0.0000 C   0  0  0  0  0  0  0  0  0  0  0  0
   -2.9250   -2.3542    0.0000 C   0  0  0  0  0  0  0  0  0  0  0  0
   -1.0333   -2.3542    0.0000 C   0  0  0  0  0  0  0  0  0  0  0  0
   -1.0333    3.0458    0.0000 C   0  0  0  0  0  0  0  0  0  0  0  0
   -1.9708    3.5958    0.0000 C   0  0  0  0  0  0  0  0  0  0  0  0
   -1.9708   -2.9042    0.0000 C   0  0  0  0  0  0  0  0  0  0  0  0
  3  2  1  0
  4  9  1  0
  5  2  1  0
  6  2  2  0
  7  3  1  0
  8  3  1  0
  9 10  1  0
 10  5  1  0
 11  3  1  0
 12 15  1  0
 13  4  1  0
 14  4  1  0
 15 16  1  0
 16 10  1  0
 17  8  2  0
 18  8  1  0
 19  7  2  0
 20  7  1  0
 21 13  1  0
 22 20  2  0
 23 17  1  0
 24 18  2  0
 25 19  1  0
 26 25  2  0
 27 24  1  0
  4 12  1  0
 27 23  2  0
 22 26  1  0
M  CHG  2   1  -1   4   1
M  END
> <chembl_id>
CHEMBL1401367

> <chembl_pref_name>
PIPENZOLATE BROMIDE
