
     RDKit          2D

 97102  0  0  0  0  0  0  0  0999 V2000
   56.8321   -5.5482    0.0000 C   0  0  0  0  0  0  0  0  0  0  0  0
   57.6026   -5.2532    0.0000 S   0  0  0  0  0  0  0  0  0  0  0  0
   58.1212   -5.8948    0.0000 C   0  0  0  0  0  0  0  0  0  0  0  0
   57.6712   -6.5863    0.0000 C   0  0  0  0  0  0  0  0  0  0  0  0
   56.8746   -6.3721    0.0000 N   0  0  0  0  0  0  0  0  0  0  0  0
   43.9460   -5.6873    0.0000 C   0  0  0  0  0  0  0  0  0  0  0  0
   43.9899   -4.8635    0.0000 C   0  0  0  0  0  0  0  0  0  0  0  0
   43.2105   -6.0612    0.0000 N   0  0  0  0  0  0  0  0  0  0  0  0
   44.7253   -4.4896    0.0000 C   0  0  0  0  0  0  0  0  0  0  0  0
   45.4168   -4.9396    0.0000 N   0  0  0  0  0  0  0  0  0  0  0  0
   44.7692   -3.6658    0.0000 O   0  0  0  0  0  0  0  0  0  0  0  0
   44.6375   -6.1373    0.0000 C   0  0  0  0  0  0  0  0  0  0  0  0
   42.5190   -5.6113    0.0000 C   0  0  0  0  0  0  0  0  0  0  0  0
   41.7836   -5.9851    0.0000 C   0  0  0  0  0  0  0  0  0  0  0  0
   41.7397   -6.8090    0.0000 N   0  0  0  0  0  0  0  0  0  0  0  0
   41.0921   -5.5352    0.0000 C   0  0  0  0  0  0  0  0  0  0  0  0
   40.3567   -5.9091    0.0000 O   0  0  0  0  0  0  0  0  0  0  0  0
   41.1360   -4.7114    0.0000 N   0  0  0  0  0  0  0  0  0  0  0  0
   44.5935   -6.9611    0.0000 N   0  0  0  0  0  0  0  0  0  0  0  0
   45.2850   -7.4111    0.0000 C   0  0  0  0  0  0  0  0  0  0  0  0
   46.0204   -7.0372    0.0000 C   0  0  0  0  0  0  0  0  0  0  0  0
   46.0644   -6.2134    0.0000 C   0  0  0  0  0  0  0  0  0  0  0  0
   45.3729   -5.7634    0.0000 N   0  0  0  0  0  0  0  0  0  0  0  0
   46.7119   -7.4871    0.0000 C   0  0  0  0  0  0  0  0  0  0  0  0
   45.2411   -8.2349    0.0000 N   0  0  0  0  0  0  0  0  0  0  0  0
   46.7998   -5.8395    0.0000 C   0  0  0  0  0  0  0  0  0  0  0  0
   46.8437   -5.0156    0.0000 N   0  0  0  0  0  0  0  0  0  0  0  0
   47.4913   -6.2894    0.0000 O   0  0  0  0  0  0  0  0  0  0  0  0
   47.5791   -4.6418    0.0000 C   0  0  0  0  0  0  0  0  0  0  0  0
   47.6230   -3.8179    0.0000 C   0  0  0  0  0  0  0  0  0  0  0  0
   48.2706   -5.0917    0.0000 C   0  0  0  0  0  0  0  0  0  0  0  0
   48.2267   -5.9155    0.0000 O   0  0  0  0  0  0  0  0  0  0  0  0
   49.0060   -4.7178    0.0000 N   0  0  0  0  0  0  0  0  0  0  0  0
   49.6975   -5.1678    0.0000 C   0  0  0  0  0  0  0  0  0  0  0  0
   50.4330   -4.7939    0.0000 C   0  0  0  0  0  0  0  0  0  0  0  0
   49.6536   -5.9916    0.0000 C   0  0  0  0  0  0  0  0  0  0  0  0
   50.4769   -3.9701    0.0000 O   0  0  0  0  0  0  0  0  0  0  0  0
   51.1245   -5.2439    0.0000 C   0  0  0  0  0  0  0  0  0  0  0  0
   51.8599   -4.8700    0.0000 C   0  0  0  0  0  0  0  0  0  0  0  0
   51.0805   -6.0677    0.0000 C   0  0  0  0  0  0  0  0  0  0  0  0
   51.9038   -4.0462    0.0000 O   0  0  0  0  0  0  0  0  0  0  0  0
   52.5514   -5.3199    0.0000 N   0  0  0  0  0  0  0  0  0  0  0  0
   53.2868   -4.9461    0.0000 C   0  0  0  0  0  0  0  0  0  0  0  0
   53.9783   -5.3960    0.0000 C   0  0  0  0  0  0  0  0  0  0  0  0
   53.3307   -4.1222    0.0000 C   0  0  0  0  0  0  0  0  0  0  0  0
   54.0661   -3.7484    0.0000 O   0  0  0  0  0  0  0  0  0  0  0  0
   52.6392   -3.6723    0.0000 C   0  0  0  0  0  0  0  0  0  0  0  0
   54.7137   -5.0221    0.0000 N   0  0  0  0  0  0  0  0  0  0  0  0
   53.9344   -6.2198    0.0000 O   0  0  0  0  0  0  0  0  0  0  0  0
   55.4052   -5.4721    0.0000 C   0  0  0  0  0  0  0  0  0  0  0  0
   56.1406   -5.0982    0.0000 C   0  0  0  0  0  0  0  0  0  0  0  0
   57.9662   -7.3568    0.0000 C   0  0  0  0  0  0  0  0  0  0  0  0
   58.7629   -7.5710    0.0000 S   0  0  0  0  0  0  0  0  0  0  0  0
   58.8053   -8.3949    0.0000 C   0  0  0  0  0  0  0  0  0  0  0  0
   58.0349   -8.6899    0.0000 C   0  0  0  0  0  0  0  0  0  0  0  0
   57.5163   -8.0483    0.0000 N   0  0  0  0  0  0  0  0  0  0  0  0
   57.8206   -9.4866    0.0000 C   0  0  0  0  0  0  0  0  0  0  0  0
   57.0235   -9.6994    0.0000 N   0  0  0  0  0  0  0  0  0  0  0  0
   58.4035  -10.0705    0.0000 O   0  0  0  0  0  0  0  0  0  0  0  0
   56.8093  -10.4961    0.0000 C   0  0  0  0  0  0  0  0  0  0  0  0
   56.0122  -10.7089    0.0000 C   0  0  0  0  0  0  0  0  0  0  0  0
   55.7980  -11.5056    0.0000 C   0  0  0  0  0  0  0  0  0  0  0  0
   55.0009  -11.7184    0.0000 S   0  0  0  0  0  0  0  0  0  0  0  0
   54.7866  -12.5151    0.0000 C   0  0  0  0  0  0  0  0  0  0  0  0
   54.4180  -11.1345    0.0000 C   0  0  0  0  0  0  0  0  0  0  0  0
   48.3585   -3.4441    0.0000 O   0  0  0  0  0  0  0  0  0  0  0  0
   46.8697   -3.4817    0.0000 C   0  0  0  0  0  0  0  0  0  0  0  0
   46.6989   -2.6746    0.0000 C   0  0  0  0  0  0  0  0  0  0  0  0
   45.8785   -2.5876    0.0000 N   0  0  0  0  0  0  0  0  0  0  0  0
   45.5422   -3.3410    0.0000 C   0  0  0  0  0  0  0  0  0  0  0  0
   46.1548   -3.8936    0.0000 N   0  0  0  0  0  0  0  0  0  0  0  0
   48.7337   -2.7093    0.0000 C   0  0  0  0  0  0  0  0  0  0  0  0
   49.5576   -2.6669    0.0000 O   0  0  0  0  0  0  0  0  0  0  0  0
   49.9328   -1.9321    0.0000 C   0  0  0  0  0  0  0  0  0  0  0  0
   49.4841   -1.2398    0.0000 C   0  0  0  0  0  0  0  0  0  0  0  0
   48.6602   -1.2823    0.0000 C   0  0  0  0  0  0  0  0  0  0  0  0
   48.2850   -2.0170    0.0000 C   0  0  0  0  0  0  0  0  0  0  0  0
   47.4611   -2.0594    0.0000 O   0  0  0  0  0  0  0  0  0  0  0  0
   48.2115   -0.5900    0.0000 O   0  0  0  0  0  0  0  0  0  0  0  0
   49.8593   -0.5051    0.0000 O   0  0  0  0  0  0  0  0  0  0  0  0
   50.7567   -1.8897    0.0000 C   0  0  0  0  0  0  0  0  0  0  0  0
   51.2054   -2.5820    0.0000 O   0  0  0  0  0  0  0  0  0  0  0  0
   47.0124   -1.3671    0.0000 C   0  0  0  0  0  0  0  0  0  0  0  0
   46.1885   -1.4096    0.0000 C   0  0  0  0  0  0  0  0  0  0  0  0
   45.7397   -0.7173    0.0000 C   0  0  0  0  0  0  0  0  0  0  0  0
   46.1150    0.0175    0.0000 C   0  0  0  0  0  0  0  0  0  0  0  0
   46.9389    0.0599    0.0000 C   0  0  0  0  0  0  0  0  0  0  0  0
   47.3876   -0.6324    0.0000 O   0  0  0  0  0  0  0  0  0  0  0  0
   44.9158   -0.7597    0.0000 O   0  0  0  0  0  0  0  0  0  0  0  0
   45.6663    0.7098    0.0000 O   0  0  0  0  0  0  0  0  0  0  0  0
   47.3141    0.7947    0.0000 C   0  0  0  0  0  0  0  0  0  0  0  0
   46.8654    1.4870    0.0000 O   0  0  0  0  0  0  0  0  0  0  0  0
   45.8132   -2.1443    0.0000 O   0  0  0  0  0  0  0  0  0  0  0  0
   44.4671   -0.0674    0.0000 C   0  0  0  0  0  0  0  0  0  0  0  0
   44.8423    0.6674    0.0000 N   0  0  0  0  0  0  0  0  0  0  0  0
   43.6432   -0.1098    0.0000 O   0  0  0  0  0  0  0  0  0  0  0  0
   48.3145   -4.2679    0.0000 H   0  0  0  0  0  0  0  0  0  0  0  0
 50 51  1  0
 51  1  1  0
 52 53  1  0
 20 25  1  0
  1  2  1  0
 22 26  1  0
  8 13  1  0
 26 27  1  0
 53 54  1  0
 54 55  2  0
 55 56  1  0
 56 52  2  0
  4 52  1  0
 26 28  2  0
 57 58  1  0
 13 14  1  0
 57 59  2  0
 58 60  1  0
  6  7  1  1
 60 61  1  0
 29 30  1  0
 61 62  1  0
 14 15  1  6
 62 63  1  0
 29 31  1  0
 63 64  1  0
 63 65  1  0
 31 32  2  0
 30 66  1  6
 14 16  1  0
 30 67  1  0
 67 68  2  0
 31 33  1  0
  6  8  1  0
 34 33  1  0
 16 17  2  0
 68 69  1  0
 69 70  1  0
 70 71  2  0
 71 67  1  0
 34 35  1  0
 72 66  1  1
 72 73  1  0
  2  3  1  0
 34 36  1  1
 16 18  1  0
 35 37  1  1
  7  9  1  0
 72 77  1  0
 73 74  1  0
 74 75  1  0
 75 76  1  0
 76 77  1  0
 35 38  1  0
 12 19  2  0
 77 78  1  1
 38 39  1  0
 76 79  1  1
  3  4  2  0
 75 80  1  6
 38 40  1  1
 74 81  1  6
 19 20  1  0
 81 82  1  0
 39 41  2  0
 83 78  1  6
 83 84  1  0
  9 10  1  0
 39 42  1  0
 20 21  2  0
  4  5  1  0
 83 88  1  0
 84 85  1  0
 85 86  1  0
 86 87  1  0
 87 88  1  0
 43 44  1  0
 21 22  1  0
 85 89  1  1
 43 45  1  0
 86 90  1  6
  9 11  2  0
 87 91  1  1
 45 46  1  1
 91 92  1  0
 22 23  2  0
 84 93  1  1
 45 47  1  0
 89 94  1  0
 23 12  1  0
 94 95  1  0
 44 48  1  0
 94 96  2  0
  5  1  2  0
 44 49  2  0
 21 24  1  0
 48 50  1  0
  6 12  1  0
 29 97  1  6
 29 27  1  0
 43 42  1  1
 57 55  1  0
M  CHG  1  63   1
M  END
> <chembl_id>
CHEMBL403664

> <chembl_pref_name>
BLEOMYCIN
