
     RDKit          2D

 26 28  0  0  0  0  0  0  0  0999 V2000
    4.9500   -3.5282    0.0000 C   0  0  0  0  0  0  0  0  0  0  0  0
    5.6644   -3.1157    0.0000 C   0  0  0  0  0  0  0  0  0  0  0  0
    4.9500   -4.3532    0.0000 C   0  0  0  0  0  0  0  0  0  0  0  0
    4.2355   -4.7657    0.0000 C   0  0  0  0  0  0  0  0  0  0  0  0
    3.5210   -4.3532    0.0000 C   0  0  0  0  0  0  0  0  0  0  0  0
    2.8065   -4.7657    0.0000 O   0  0  0  0  0  0  0  0  0  0  0  0
    3.5210   -3.5282    0.0000 C   0  0  0  0  0  0  0  0  0  0  0  0
    4.2355   -3.1157    0.0000 C   0  0  0  0  0  0  0  0  0  0  0  0
    4.2355   -2.2907    0.0000 C   0  0  0  0  0  0  0  0  0  0  0  0
    4.9500   -1.8782    0.0000 N   0  0  0  0  0  0  0  0  0  0  0  0
    5.6644   -2.2907    0.0000 C   0  0  0  0  0  0  0  0  0  0  0  0
    6.3789   -1.8782    0.0000 C   0  0  0  0  0  0  0  0  0  0  0  0
    6.3789   -1.0532    0.0000 O   0  0  0  0  0  0  0  0  0  0  0  0
    6.3789   -3.5282    0.0000 O   0  0  0  0  0  0  0  0  0  0  0  0
    0.6631   -4.3532    0.0000 C   0  0  0  0  0  0  0  0  0  0  0  0
    0.6631   -3.5282    0.0000 C   0  0  0  0  0  0  0  0  0  0  0  0
    1.3776   -4.7657    0.0000 C   0  0  0  0  0  0  0  0  0  0  0  0
    2.0921   -4.3532    0.0000 C   0  0  0  0  0  0  0  0  0  0  0  0
    2.0921   -3.5282    0.0000 C   0  0  0  0  0  0  0  0  0  0  0  0
    1.3776   -3.1157    0.0000 C   0  0  0  0  0  0  0  0  0  0  0  0
    7.8078   -1.8782    0.0000 C   0  0  0  0  0  0  0  0  0  0  0  0
    9.2368   -1.8782    0.0000 O   0  0  0  0  0  0  0  0  0  0  0  0
    8.5223   -3.1157    0.0000 O   0  0  0  0  0  0  0  0  0  0  0  0
    8.5223   -2.2907    0.0000 C   0  0  0  0  0  0  0  0  0  0  0  0
    7.0934   -2.2907    0.0000 N   0  0  0  0  0  0  0  0  0  0  0  0
    3.5210   -1.8782    0.0000 C   0  0  0  0  0  0  0  0  0  0  0  0
  1  2  1  0
  1  3  1  0
  2 11  2  0
  4  3  2  0
  4  5  1  0
  5  7  2  0
  6  5  1  0
  6 18  1  0
  7  8  1  0
  8  1  2  0
  9 10  2  0
  9  8  1  0
 11 10  1  0
 12 11  1  0
 12 25  1  0
 13 12  2  0
 14  2  1  0
 15 16  1  0
 15 17  2  0
 16 20  2  0
 17 18  1  0
 18 19  2  0
 20 19  1  0
 21 24  1  0
 21 25  1  0
 24 23  2  0
 24 22  1  0
  9 26  1  0
M  END
> <chembl_id>
CHEMBL2338329

> <chembl_pref_name>
ROXADUSTAT
