
     RDKit          2D

 22 24  0  0  0  0  0  0  0  0999 V2000
    0.1625    0.6833    0.0000 C   0  0  0  0  0  0  0  0  0  0  0  0
   -0.1083    1.9250    0.0000 N   0  0  0  0  0  0  0  0  0  0  0  0
   -0.6208   -0.2917    0.0000 C   0  0  0  0  0  0  0  0  0  0  0  0
   -2.6958    0.6833    0.0000 N   0  0  0  0  0  0  0  0  0  0  0  0
   -2.4208    1.9458    0.0000 C   0  0  0  0  0  0  0  0  0  0  0  0
   -1.9208   -0.2917    0.0000 C   0  0  0  0  0  0  0  0  0  0  0  0
   -1.2750    2.4750    0.0000 C   0  0  0  0  0  0  0  0  0  0  0  0
    1.4125    0.3958    0.0000 C   0  0  0  0  0  0  0  0  0  0  0  0
   -2.5333   -1.4167    0.0000 C   0  0  0  0  0  0  0  0  0  0  0  0
    0.0042   -1.4042    0.0000 C   0  0  0  0  0  0  0  0  0  0  0  0
   -3.3958    2.7458    0.0000 O   0  0  0  0  0  0  0  0  0  0  0  0
    2.3000    1.3208    0.0000 C   0  0  0  0  0  0  0  0  0  0  0  0
   -2.0250    3.3958    0.0000 O   0  0  0  0  0  0  0  0  0  0  0  0
   -0.6125   -2.5375    0.0000 C   0  0  0  0  0  0  0  0  0  0  0  0
   -3.9458    0.3958    0.0000 C   0  0  0  0  0  0  0  0  0  0  0  0
   -1.9375   -2.5375    0.0000 C   0  0  0  0  0  0  0  0  0  0  0  0
    1.9042    2.5250    0.0000 Cl  0  0  0  0  0  0  0  0  0  0  0  0
    0.0167   -3.2792    0.0000 Cl  0  0  0  0  0  0  0  0  0  0  0  0
    1.7792   -0.8250    0.0000 C   0  0  0  0  0  0  0  0  0  0  0  0
    3.5417    1.0208    0.0000 C   0  0  0  0  0  0  0  0  0  0  0  0
    3.0375   -1.1167    0.0000 C   0  0  0  0  0  0  0  0  0  0  0  0
    3.9375   -0.2000    0.0000 C   0  0  0  0  0  0  0  0  0  0  0  0
  2  1  2  0
  3  1  1  0
  4  6  1  0
  5  7  1  0
  6  3  2  0
  7  2  1  0
  8  1  1  0
  9  6  1  0
 10  3  1  0
 11  5  2  0
 12  8  1  0
 13  7  1  0
 14 10  2  0
 15  4  1  0
 16 14  1  0
 17 12  1  0
 18 14  1  0
 19  8  2  0
 20 12  2  0
 21 19  1  0
 22 21  2  0
  4  5  1  0
 20 22  1  0
  9 16  2  0
M  END
> <chembl_id>
CHEMBL22097

> <chembl_pref_name>
LORMETAZEPAM
