
     RDKit          2D

 18 17  0  0  0  0  0  0  0  0999 V2000
    4.4000   -6.1542    0.0000 Cl  0  0  0  0  0  0  0  0  0  0  0  0
    4.1958   -4.4333    0.0000 C   0  0  0  0  0  0  0  0  0  0  0  0
    4.8083   -4.0750    0.0000 C   0  0  0  0  0  0  0  0  0  0  0  0
    1.7458   -4.4375    0.0000 C   0  0  0  0  0  0  0  0  0  0  0  0
    3.5833   -4.0792    0.0000 C   0  0  0  0  0  0  0  0  0  0  0  0
    1.7458   -5.1500    0.0000 C   0  0  0  0  0  0  0  0  0  0  0  0
    2.3583   -4.0833    0.0000 C   0  0  0  0  0  0  0  0  0  0  0  0
    2.9708   -4.4375    0.0000 C   0  0  0  0  0  0  0  0  0  0  0  0
    4.8083   -3.3667    0.0000 O   0  0  0  0  0  0  0  0  0  0  0  0
    2.3583   -5.5042    0.0000 C   0  0  0  0  0  0  0  0  0  0  0  0
    4.5417   -5.0417    0.0000 N   0  0  0  0  0  0  0  0  0  0  0  0
    2.9708   -5.1500    0.0000 C   0  0  0  0  0  0  0  0  0  0  0  0
    5.4250   -4.4292    0.0000 O   0  0  0  0  0  0  0  0  0  0  0  0
    1.1333   -4.0833    0.0000 O   0  0  0  0  0  0  0  0  0  0  0  0
    1.1333   -5.5042    0.0000 O   0  0  0  0  0  0  0  0  0  0  0  0
    3.8375   -5.0417    0.0000 C   0  0  0  0  0  0  0  0  0  0  0  0
    6.0375   -4.0708    0.0000 C   0  0  0  0  0  0  0  0  0  0  0  0
    6.6500   -4.4250    0.0000 C   0  0  0  0  0  0  0  0  0  0  0  0
  3  2  1  0
  4  7  1  0
  5  2  1  0
  6  4  2  0
  7  8  2  0
  8  5  1  0
  9  3  2  0
 10 12  2  0
  2 11  1  1
 12  8  1  0
 13  3  1  0
 14  4  1  0
 15  6  1  0
 16  2  1  0
 17 13  1  0
 18 17  1  0
 10  6  1  0
M  END
> <chembl_id>
CHEMBL1200432

> <chembl_pref_name>
METHYLDOPATE HYDROCHLORIDE
