
     RDKit          2D

 29 30  0  0  1  0  0  0  0  0999 V2000
   -1.7083   -1.3042    0.0000 C   0  0  0  0  0  0  0  0  0  0  0  0
   -2.3208   -0.9500    0.0000 O   0  0  0  0  0  0  0  0  0  0  0  0
   -2.3250   -0.2500    0.0000 C   0  0  0  0  0  0  0  0  0  0  0  0
   -2.9375    0.8125    0.0000 C   0  0  0  0  0  0  0  0  0  0  0  0
   -1.7125    0.1083    0.0000 C   0  0  0  0  0  0  0  0  0  0  0  0
   -1.3750   -1.9167    0.0000 C   0  0  0  0  0  0  0  0  0  0  0  0
   -2.9375    0.1083    0.0000 C   0  0  0  0  0  0  0  0  0  0  0  0
   -1.7125    0.8125    0.0000 C   0  0  0  0  0  0  0  0  0  0  0  0
   -1.1000   -0.2417    0.0000 C   0  0  0  0  0  0  0  0  0  0  0  0
   -1.1000   -0.9500    0.0000 C   0  0  0  0  0  0  0  0  0  0  0  0
    2.5792    1.1708    0.0000 C   0  0  0  0  0  0  0  0  0  0  0  0
   -3.5500    1.1708    0.0000 O   0  0  0  0  0  0  0  0  0  0  0  0
    2.5792    1.8750    0.0000 O   0  0  0  0  0  0  0  0  0  0  0  0
   -2.0833   -1.9042    0.0000 O   0  0  0  0  0  0  0  0  0  0  0  0
   -1.9708   -2.3042    0.0000 F   0  0  0  0  0  0  0  0  0  0  0  0
   -1.3708   -2.6250    0.0000 F   0  0  0  0  0  0  0  0  0  0  0  0
    3.1917    0.8125    0.0000 O   0  0  0  0  0  0  0  0  0  0  0  0
   -0.6708   -1.9292    0.0000 C   0  0  0  0  0  0  0  0  0  0  0  0
   -1.0958    1.1708    0.0000 C   0  0  0  0  0  0  0  0  0  0  0  0
    1.9667    0.8125    0.0000 C   0  0  0  0  0  0  0  0  0  0  0  0
   -0.3250   -2.5500    0.0000 C   0  0  0  0  0  0  0  0  0  0  0  0
   -0.4833    0.8125    0.0000 C   0  0  0  0  0  0  0  0  0  0  0  0
    1.3542    1.1708    0.0000 C   0  0  0  0  0  0  0  0  0  0  0  0
    0.3792   -2.5625    0.0000 C   0  0  0  0  0  0  0  0  0  0  0  0
    0.7417    0.8125    0.0000 C   0  0  0  0  0  0  0  0  0  0  0  0
    0.1292    1.1708    0.0000 C   0  0  0  0  0  0  0  0  0  0  0  0
    0.7250   -3.1792    0.0000 C   0  0  0  0  0  0  0  0  0  0  0  0
   -1.1000    0.4625    0.0000 H   0  0  0  0  0  0  0  0  0  0  0  0
   -2.9458   -0.6000    0.0000 H   0  0  0  0  0  0  0  0  0  0  0  0
  2  1  1  0
  3  2  1  0
  4  7  1  0
  5  9  1  0
  6  1  1  0
  7  3  1  0
  8  5  1  0
  9 10  1  0
 10  1  1  0
 11 20  1  0
 12  4  2  0
 13 11  2  0
  1 14  1  1
 15  6  1  0
 16  6  1  0
 17 11  1  0
 18  6  1  0
  8 19  1  6
 20 23  1  0
 21 18  1  0
 22 19  1  0
 23 25  1  0
 24 21  1  0
 25 26  1  0
 26 22  1  0
 27 24  1  0
  5 28  1  6
  3 29  1  1
  3  5  1  0
  4  8  1  0
M  END
> <chembl_id>
CHEMBL1201134

> <chembl_pref_name>
LUBIPROSTONE
