
     RDKit          2D

 18 19  0  0  0  0  0  0  0  0999 V2000
    0.0292   -1.8542    0.0000 N   0  0  0  0  0  0  0  0  0  0  0  0
    1.0042   -1.8042    0.0000 C   0  0  0  0  0  0  0  0  0  0  0  0
   -1.3708   -2.7792    0.0000 C   0  0  0  0  0  0  0  0  0  0  0  0
   -1.9833   -2.0167    0.0000 S   0  0  0  0  0  0  0  0  0  0  0  0
   -0.4000   -2.7250    0.0000 C   0  0  0  0  0  0  0  0  0  0  0  0
    1.5417   -2.6167    0.0000 N   0  0  0  0  0  0  0  0  0  0  0  0
   -2.8958   -2.3625    0.0000 C   0  0  0  0  0  0  0  0  0  0  0  0
   -1.9083   -3.5917    0.0000 C   0  0  0  0  0  0  0  0  0  0  0  0
   -0.4833   -1.0417    0.0000 C   0  0  0  0  0  0  0  0  0  0  0  0
   -2.8500   -3.3375    0.0000 C   0  0  0  0  0  0  0  0  0  0  0  0
   -1.9833   -0.2667    0.0000 N   0  0  0  0  0  0  0  0  0  0  0  0
   -1.4583   -1.0875    0.0000 C   0  0  0  0  0  0  0  0  0  0  0  0
    1.4500   -0.9417    0.0000 C   0  0  0  0  0  0  0  0  0  0  0  0
    2.5167   -2.5792    0.0000 C   0  0  0  0  0  0  0  0  0  0  0  0
   -2.9625   -0.3167    0.0000 C   0  0  0  0  0  0  0  0  0  0  0  0
   -1.5458    0.5875    0.0000 C   0  0  0  0  0  0  0  0  0  0  0  0
    2.4250   -0.8875    0.0000 C   0  0  0  0  0  0  0  0  0  0  0  0
    2.9542   -1.7042    0.0000 C   0  0  0  0  0  0  0  0  0  0  0  0
  2  1  1  0
  3  5  1  0
  4  3  1  0
  5  1  1  0
  6  2  2  0
  7  4  1  0
  8  3  2  0
  9  1  1  0
 10  8  1  0
 11 12  1  0
 12  9  1  0
 13  2  1  0
 14  6  1  0
 15 11  1  0
 16 11  1  0
 17 13  2  0
 18 14  2  0
 10  7  2  0
 17 18  1  0
M  END
> <chembl_id>
CHEMBL1411979

> <chembl_pref_name>
METHAPYRILENE
