
     RDKit          2D

 22 24  0  0  0  0  0  0  0  0999 V2000
    0.0000    0.0000    0.0000 Cl  0  0  0  0  0  0  0  0  0  0  0  0
    1.3397    0.8907    0.0000 C   0  0  0  0  0  0  0  0  0  0  0  0
    0.5001    4.5012    0.0000 C   0  0  0  0  0  0  0  0  0  0  0  0
    6.2401    4.5005    0.0000 C   0  0  0  0  0  0  0  0  0  0  0  0
    0.5000    3.3965    0.0000 C   0  0  0  0  0  0  0  0  0  0  0  0
    6.2400    3.3959    0.0000 C   0  0  0  0  0  0  0  0  0  0  0  0
    2.6930    1.6719    0.0000 C   0  0  0  0  0  0  0  0  0  0  0  0
    1.4568    5.0534    0.0000 C   0  0  0  0  0  0  0  0  0  0  0  0
    5.2835    5.0529    0.0000 C   0  0  0  0  0  0  0  0  0  0  0  0
    1.4566    2.8441    0.0000 C   0  0  0  0  0  0  0  0  0  0  0  0
    5.2833    2.8437    0.0000 C   0  0  0  0  0  0  0  0  0  0  0  0
    3.7607    4.3766    0.0000 C   0  0  0  0  0  0  0  0  0  0  0  0
    3.3697    2.0625    0.0000 C   0  0  0  0  0  0  0  0  0  0  0  0
    3.7606    3.5203    0.0000 C   0  0  0  0  0  0  0  0  0  0  0  0
    2.6930    0.8906    0.0000 C   0  0  0  0  0  0  0  0  0  0  0  0
    3.3701    5.0533    0.0000 C   0  0  0  0  0  0  0  0  0  0  0  0
    2.4134    4.5009    0.0000 C   0  0  0  0  0  0  0  0  0  0  0  0
    4.3268    4.5007    0.0000 C   0  0  0  0  0  0  0  0  0  0  0  0
    2.4133    3.3963    0.0000 C   0  0  0  0  0  0  0  0  0  0  0  0
    4.3267    3.3961    0.0000 C   0  0  0  0  0  0  0  0  0  0  0  0
    3.3698    2.8438    0.0000 C   0  0  0  0  0  0  0  0  0  0  0  0
    2.0163    0.5000    0.0000 N   0  0  0  0  0  0  0  0  0  0  0  0
  2 22  1  0
  3  5  2  0
  3  8  1  0
  4  6  2  0
  4  9  1  0
  5 10  1  0
  6 11  1  0
  7 13  1  0
  7 15  1  0
  8 17  2  0
  9 18  2  0
 10 19  2  0
 11 20  2  0
 12 14  1  0
 12 16  1  0
 13 21  1  0
 14 21  1  0
 15 22  1  0
 16 17  1  0
 16 18  1  0
 17 19  1  0
 18 20  1  0
 19 21  1  0
 20 21  1  0
M  END
> <chembl_id>
CHEMBL1237135

> <chembl_pref_name>
MAPROTILINE HYDROCHLORIDE
