
     RDKit          2D

 18 18  0  0  0  0  0  0  0  0999 V2000
    2.3750    1.4000    0.0000 C   0  0  0  0  0  0  0  0  0  0  0  0
   -2.3333   -0.2667    0.0000 C   0  0  0  0  0  0  0  0  0  0  0  0
    1.4417    0.8458    0.0000 C   0  0  0  0  0  0  0  0  0  0  0  0
   -3.2708   -0.8167    0.0000 C   0  0  0  0  0  0  0  0  0  0  0  0
    1.4500   -0.2167    0.0000 C   0  0  0  0  0  0  0  0  0  0  0  0
    3.3042    0.8833    0.0000 C   0  0  0  0  0  0  0  0  0  0  0  0
   -2.3333    0.8208    0.0000 O   0  0  0  0  0  0  0  0  0  0  0  0
   -1.3833   -0.8000    0.0000 N   0  0  0  0  0  0  0  0  0  0  0  0
    2.4042   -0.7542    0.0000 C   0  0  0  0  0  0  0  0  0  0  0  0
   -0.4500   -0.2500    0.0000 N   0  0  0  0  0  0  0  0  0  0  0  0
    3.3292   -0.2042    0.0000 C   0  0  0  0  0  0  0  0  0  0  0  0
    2.3542    2.4833    0.0000 O   0  0  0  0  0  0  0  0  0  0  0  0
   -4.2083   -0.2792    0.0000 N   0  0  0  0  0  0  0  0  0  0  0  0
    0.4792    1.4000    0.0000 O   0  0  0  0  0  0  0  0  0  0  0  0
    4.2625    1.4333    0.0000 O   0  0  0  0  0  0  0  0  0  0  0  0
    0.5042   -0.7917    0.0000 C   0  0  0  0  0  0  0  0  0  0  0  0
   -3.2458   -1.8542    0.0000 C   0  0  0  0  0  0  0  0  0  0  0  0
   -2.3208   -2.4042    0.0000 O   0  0  0  0  0  0  0  0  0  0  0  0
  2  8  1  0
  3  1  2  0
  4  2  1  0
  5  3  1  0
  6  1  1  0
  7  2  2  0
  8 10  1  0
  9 11  1  0
 10 16  1  0
 11  6  2  0
 12  1  1  0
 13  4  1  0
 14  3  1  0
 15  6  1  0
 16  5  1  0
 17  4  1  0
 18 17  1  0
  5  9  2  0
M  END
> <chembl_id>
CHEMBL1096979

> <chembl_pref_name>
BENSERAZIDE
