
     RDKit          2D

  3  0  0  0  0  0  0  0  0  0999 V2000
    3.6500   -3.2167    0.0000 Sr  0  0  0  0  0 15  0  0  0  0  0  0
    2.4000   -3.2167    0.0000 Cl  0  0  0  0  0  0  0  0  0  0  0  0
    4.8542   -3.2167    0.0000 Cl  0  0  0  0  0  0  0  0  0  0  0  0
M  CHG  3   1   2   2  -1   3  -1
M  END
> <chembl_id>
CHEMBL2219640

> <chembl_pref_name>
STRONTIUM CHLORIDE
