
     RDKit          2D

 14 14  0  0  0  0  0  0  0  0999 V2000
   -0.1458   -4.6417    0.0000 C   0  0  0  0  0  0  0  0  0  0  0  0
   -0.7708   -4.9792    0.0000 N   0  0  0  0  0  0  0  0  0  0  0  0
    0.4250   -5.0542    0.0000 O   0  0  0  0  0  0  0  0  0  0  0  0
    0.0792   -3.9667    0.0000 C   0  0  0  0  0  0  0  0  0  0  0  0
    2.2250   -6.7833    0.0000 C   0  0  0  0  0  0  0  0  0  0  0  0
    1.0042   -4.6417    0.0000 C   0  0  0  0  0  0  0  0  0  0  0  0
    1.6000   -5.7083    0.0000 N   0  0  0  0  0  0  0  0  0  0  0  0
    0.7917   -3.9750    0.0000 C   0  0  0  0  0  0  0  0  0  0  0  0
   -0.7833   -5.6917    0.0000 O   0  0  0  0  0  0  0  0  0  0  0  0
   -1.3833   -4.6167    0.0000 O   0  0  0  0  0  0  0  0  0  0  0  0
    1.6167   -5.0000    0.0000 C   0  0  0  0  0  0  0  0  0  0  0  0
    2.2208   -6.0708    0.0000 N   0  0  0  0  0  0  0  0  0  0  0  0
    1.6292   -7.1500    0.0000 O   0  0  0  0  0  0  0  0  0  0  0  0
    2.8542   -7.1250    0.0000 N   0  0  0  0  0  0  0  0  0  0  0  0
  2  1  1  0
  3  1  1  0
  4  1  2  0
  5 12  1  0
  6  3  1  0
  7 11  2  0
  8  4  1  0
  9  2  1  0
 10  2  2  0
 11  6  1  0
 12  7  1  0
 13  5  2  0
 14  5  1  0
  8  6  2  0
M  CHG  2   2   1   9  -1
M  END
> <chembl_id>
CHEMBL869

> <chembl_pref_name>
NITROFURAZONE
