
     RDKit          2D

 29 31  0  0  1  0  0  0  0  0999 V2000
    5.0042   -4.4875    0.0000 C   0  0  0  0  0  0  0  0  0  0  0  0
    5.6917   -4.6417    0.0000 C   0  0  0  0  0  0  0  0  0  0  0  0
    4.4542   -4.9417    0.0000 C   0  0  0  0  0  0  0  0  0  0  0  0
    3.8417   -4.5917    0.0000 C   0  0  0  0  0  0  0  0  0  0  0  0
    6.2417   -4.2042    0.0000 C   0  0  0  0  0  0  0  0  0  0  0  0
    3.2292   -4.9542    0.0000 C   0  0  0  0  0  0  0  0  0  0  0  0
    4.6917   -3.8667    0.0000 C   0  0  0  0  0  0  0  0  0  0  0  0
    4.4542   -5.6375    0.0000 C   0  0  0  0  0  0  0  0  0  0  0  0
    6.2417   -3.5042    0.0000 C   0  0  0  0  0  0  0  0  0  0  0  0
    6.0042   -5.2792    0.0000 C   0  0  0  0  0  0  0  0  0  0  0  0
    3.2292   -5.6417    0.0000 C   0  0  0  0  0  0  0  0  0  0  0  0
    4.9917   -3.2250    0.0000 C   0  0  0  0  0  0  0  0  0  0  0  0
    5.6875   -3.0625    0.0000 C   0  0  0  0  0  0  0  0  0  0  0  0
    6.7125   -5.2792    0.0000 N   0  0  0  0  0  0  0  0  0  0  0  0
    3.8417   -6.0042    0.0000 C   0  0  0  0  0  0  0  0  0  0  0  0
    7.0667   -5.9000    0.0000 C   0  0  0  0  0  0  0  0  0  0  0  0
    5.0250   -6.0792    0.0000 C   0  0  0  0  0  0  0  0  0  0  0  0
    6.8792   -3.1917    0.0000 O   0  0  0  0  0  0  0  0  0  0  0  0
    5.6917   -5.9250    0.0000 C   0  0  0  0  0  0  0  0  0  0  0  0
    7.7917   -5.8917    0.0000 O   0  0  0  0  0  0  0  0  0  0  0  0
    3.8417   -3.8875    0.0000 O   0  0  0  0  0  0  0  0  0  0  0  0
    2.6125   -4.6000    0.0000 O   0  0  0  0  0  0  0  0  0  0  0  0
    2.6167   -6.0042    0.0000 O   0  0  0  0  0  0  0  0  0  0  0  0
    5.8500   -2.3750    0.0000 O   0  0  0  0  0  0  0  0  0  0  0  0
    6.7167   -6.5125    0.0000 C   0  0  0  0  0  0  0  0  0  0  0  0
    3.2250   -3.5292    0.0000 C   0  0  0  0  0  0  0  0  0  0  0  0
    1.9917   -4.9625    0.0000 C   0  0  0  0  0  0  0  0  0  0  0  0
    2.6125   -6.7167    0.0000 C   0  0  0  0  0  0  0  0  0  0  0  0
    5.3167   -1.8875    0.0000 C   0  0  0  0  0  0  0  0  0  0  0  0
  2  1  1  0
  3  1  1  0
  4  3  2  0
  5  2  2  0
  6  4  1  0
  7  1  2  0
  8  3  1  0
  9  5  1  0
 10  2  1  0
 11 15  1  0
 12  7  1  0
 13 12  2  0
 10 14  1  1
 15  8  2  0
 16 14  1  0
 17  8  1  0
 18  9  2  0
 19 10  1  0
 20 16  2  0
 21  4  1  0
 22  6  1  0
 23 11  1  0
 24 13  1  0
 25 16  1  0
 26 21  1  0
 27 22  1  0
 28 23  1  0
 29 24  1  0
 13  9  1  0
 19 17  1  0
 11  6  2  0
M  END
> <chembl_id>
CHEMBL107

> <chembl_pref_name>
COLCHICINE
