
     RDKit          2D

 26 29  0  0  1  0  0  0  0  0999 V2000
    5.5917   -3.9417    0.0000 C   0  0  0  0  0  0  0  0  0  0  0  0
    5.6042   -4.6542    0.0000 C   0  0  0  0  0  0  0  0  0  0  0  0
    4.9875   -5.0167    0.0000 C   0  0  0  0  0  0  0  0  0  0  0  0
    4.3750   -4.6625    0.0000 C   0  0  0  0  0  0  0  0  0  0  0  0
    3.7625   -5.0167    0.0000 C   0  0  0  0  0  0  0  0  0  0  0  0
    6.2667   -3.7250    0.0000 C   0  0  0  0  0  0  0  0  0  0  0  0
    3.7667   -5.7375    0.0000 C   0  0  0  0  0  0  0  0  0  0  0  0
    6.8417   -3.3042    0.0000 C   0  0  0  0  0  0  0  0  0  0  0  0
    4.9875   -3.6000    0.0000 C   0  0  0  0  0  0  0  0  0  0  0  0
    4.3750   -3.9500    0.0000 C   0  0  0  0  0  0  0  0  0  0  0  0
    6.2750   -4.8667    0.0000 C   0  0  0  0  0  0  0  0  0  0  0  0
    4.9875   -5.7250    0.0000 C   0  0  0  0  0  0  0  0  0  0  0  0
    7.4167   -2.8792    0.0000 C   0  0  0  0  0  0  0  0  0  0  0  0
    3.1500   -4.6667    0.0000 C   0  0  0  0  0  0  0  0  0  0  0  0
    4.3750   -6.0792    0.0000 C   0  0  0  0  0  0  0  0  0  0  0  0
    6.6875   -4.3000    0.0000 C   0  0  0  0  0  0  0  0  0  0  0  0
    3.1542   -6.0917    0.0000 C   0  0  0  0  0  0  0  0  0  0  0  0
    2.5417   -5.7292    0.0000 C   0  0  0  0  0  0  0  0  0  0  0  0
    6.2667   -3.0167    0.0000 O   0  0  0  0  0  0  0  0  0  0  0  0
    2.5375   -5.0292    0.0000 C   0  0  0  0  0  0  0  0  0  0  0  0
    5.5792   -3.2292    0.0000 C   0  0  0  0  0  0  0  0  0  0  0  0
    1.9167   -6.0917    0.0000 O   0  0  0  0  0  0  0  0  0  0  0  0
    1.2875   -5.7417    0.0000 C   0  0  0  0  0  0  0  0  0  0  0  0
    5.6042   -5.3667    0.0000 H   0  0  0  0  0  0  0  0  0  0  0  0
    4.9875   -4.3042    0.0000 H   0  0  0  0  0  0  0  0  0  0  0  0
    4.3750   -5.3667    0.0000 H   0  0  0  0  0  0  0  0  0  0  0  0
  2  1  1  0
  3  2  1  0
  4 10  1  0
  5  4  1  0
  6  1  1  0
  7  5  2  0
  6  8  1  6
  9  1  1  0
 10  9  1  0
 11  2  1  0
 12  3  1  0
 13  8  3  0
 14  5  1  0
 15 12  1  0
 16  6  1  0
 17  7  1  0
 18 20  1  0
  6 19  1  1
 20 14  2  0
  1 21  1  1
 22 18  1  0
 23 22  1  0
  2 24  1  6
  3 25  1  1
  4 26  1  6
 16 11  1  0
  4  3  1  0
  7 15  1  0
 18 17  2  0
M  END
> <chembl_id>
CHEMBL1201151

> <chembl_pref_name>
MESTRANOL
