
     RDKit          2D

 24 27  0  0  0  0  0  0  0  0999 V2000
    4.0750   -5.5792    0.0000 C   0  0  0  0  0  0  0  0  0  0  0  0
    3.6167   -5.0875    0.0000 C   0  0  0  0  0  0  0  0  0  0  0  0
    4.7167   -3.9417    0.0000 C   0  0  0  0  0  0  0  0  0  0  0  0
    4.7167   -4.8625    0.0000 C   0  0  0  0  0  0  0  0  0  0  0  0
    5.2417   -4.4292    0.0000 N   0  0  0  0  0  0  0  0  0  0  0  0
    3.6167   -4.4292    0.0000 C   0  0  0  0  0  0  0  0  0  0  0  0
    4.0625   -3.9417    0.0000 C   0  0  0  0  0  0  0  0  0  0  0  0
    4.7625   -5.5792    0.0000 C   0  0  0  0  0  0  0  0  0  0  0  0
    5.2417   -5.0625    0.0000 C   0  0  0  0  0  0  0  0  0  0  0  0
    3.0375   -5.4250    0.0000 C   0  0  0  0  0  0  0  0  0  0  0  0
    5.8167   -4.1792    0.0000 C   0  0  0  0  0  0  0  0  0  0  0  0
    3.0375   -4.0917    0.0000 C   0  0  0  0  0  0  0  0  0  0  0  0
    2.4542   -5.1000    0.0000 C   0  0  0  0  0  0  0  0  0  0  0  0
    3.9542   -6.2542    0.0000 C   0  0  0  0  0  0  0  0  0  0  0  0
    6.3542   -4.6125    0.0000 C   0  0  0  0  0  0  0  0  0  0  0  0
    2.4542   -4.4292    0.0000 C   0  0  0  0  0  0  0  0  0  0  0  0
    5.4417   -5.5792    0.0000 C   0  0  0  0  0  0  0  0  0  0  0  0
    7.0000   -4.3667    0.0000 C   0  0  0  0  0  0  0  0  0  0  0  0
    1.8667   -5.4625    0.0000 O   0  0  0  0  0  0  0  0  0  0  0  0
    7.5417   -4.8042    0.0000 C   0  0  0  0  0  0  0  0  0  0  0  0
    7.0917   -3.6792    0.0000 C   0  0  0  0  0  0  0  0  0  0  0  0
    8.1792   -4.5417    0.0000 C   0  0  0  0  0  0  0  0  0  0  0  0
    7.7417   -3.4292    0.0000 C   0  0  0  0  0  0  0  0  0  0  0  0
    8.2792   -3.8625    0.0000 C   0  0  0  0  0  0  0  0  0  0  0  0
  2  1  1  0
  3  4  1  0
  4  1  1  0
  5  9  1  0
  6  2  2  0
  7  3  1  0
  8  1  1  0
  9  8  1  0
 10  2  1  0
 11  5  1  0
 12  6  1  0
 13 10  2  0
 14  1  1  0
 15 11  1  0
 16 13  1  0
 17  4  1  0
 18 15  1  0
 19 13  1  0
 20 18  2  0
 21 18  1  0
 22 20  1  0
 23 21  2  0
 24 22  2  0
  3  5  1  0
  6  7  1  0
 12 16  2  0
 23 24  1  0
M  END
> <chembl_id>
CHEMBL46399

> <chembl_pref_name>
PHENAZOCINE
