
     RDKit          2D

 89 94  0  0  1  0  0  0  0  0999 V2000
   10.3792   -1.9167    0.0000 N   0  0  0  0  0  0  0  0  0  0  0  0
    9.8042   -2.2542    0.0000 C   0  0  0  0  0  0  0  0  0  0  0  0
    0.4792   -3.4292    0.0000 C   0  0  0  0  0  0  0  0  0  0  0  0
    6.1250   -2.2125    0.0000 C   0  0  0  0  0  0  0  0  0  0  0  0
    2.5000   -2.2125    0.0000 C   0  0  0  0  0  0  0  0  0  0  0  0
    5.4792   -1.8792    0.0000 C   0  0  0  0  0  0  0  0  0  0  0  0
    0.6917   -1.8792    0.0000 C   0  0  0  0  0  0  0  0  0  0  0  0
    4.3625   -1.8792    0.0000 C   0  0  0  0  0  0  0  0  0  0  0  0
   -1.1708   -2.2125    0.0000 C   0  0  0  0  0  0  0  0  0  0  0  0
    7.9542   -1.9167    0.0000 C   0  0  0  0  0  0  0  0  0  0  0  0
   -2.9750   -1.8792    0.0000 C   0  0  0  0  0  0  0  0  0  0  0  0
   -4.1583   -1.8417    0.0000 N   0  0  0  0  0  0  0  0  0  0  0  0
    4.9250   -2.2125    0.0000 N   0  0  0  0  0  0  0  0  0  0  0  0
    1.3000   -2.2125    0.0000 N   0  0  0  0  0  0  0  0  0  0  0  0
   11.0417   -1.9167    0.0000 C   0  0  0  0  0  0  0  0  0  0  0  0
    1.9292   -1.8792    0.0000 C   0  0  0  0  0  0  0  0  0  0  0  0
    0.4792   -4.5750    0.0000 N   0  0  0  0  0  0  0  0  0  0  0  0
    3.1042   -1.8792    0.0000 N   0  0  0  0  0  0  0  0  0  0  0  0
    6.7417   -1.9167    0.0000 N   0  0  0  0  0  0  0  0  0  0  0  0
   -0.5333   -1.8792    0.0000 N   0  0  0  0  0  0  0  0  0  0  0  0
   -2.3333   -2.2125    0.0000 N   0  0  0  0  0  0  0  0  0  0  0  0
    8.5667   -2.2125    0.0000 N   0  0  0  0  0  0  0  0  0  0  0  0
    0.1125   -4.0542    0.0000 C   0  0  0  0  0  0  0  0  0  0  0  0
   -1.7500   -1.8792    0.0000 C   0  0  0  0  0  0  0  0  0  0  0  0
    0.0542   -2.2125    0.0000 C   0  0  0  0  0  0  0  0  0  0  0  0
    3.7417   -2.2125    0.0000 C   0  0  0  0  0  0  0  0  0  0  0  0
    7.3500   -2.2125    0.0000 C   0  0  0  0  0  0  0  0  0  0  0  0
   11.6417   -2.2542    0.0000 C   0  0  0  0  0  0  0  0  0  0  0  0
    9.1792   -1.9167    0.0000 C   0  0  0  0  0  0  0  0  0  0  0  0
    0.0167   -0.4542    0.0000 N   0  0  0  0  0  0  0  0  0  0  0  0
   -3.5833   -2.2125    0.0000 C   0  0  0  0  0  0  0  0  0  0  0  0
   11.0375   -0.0792    0.0000 C   0  0  0  0  0  0  0  0  0  0  0  0
   -4.7375   -2.2125    0.0000 C   0  0  0  0  0  0  0  0  0  0  0  0
    1.1375   -3.6667    0.0000 C   0  0  0  0  0  0  0  0  0  0  0  0
    0.0542   -2.9042    0.0000 C   0  0  0  0  0  0  0  0  0  0  0  0
   -1.1958   -0.5625    0.0000 C   0  0  0  0  0  0  0  0  0  0  0  0
   -1.7500   -0.8917    0.0000 C   0  0  0  0  0  0  0  0  0  0  0  0
   -0.9250    0.1833    0.0000 N   0  0  0  0  0  0  0  0  0  0  0  0
   -0.2625    0.1833    0.0000 C   0  0  0  0  0  0  0  0  0  0  0  0
    1.1375   -4.3167    0.0000 C   0  0  0  0  0  0  0  0  0  0  0  0
   11.0375   -0.7250    0.0000 N   0  0  0  0  0  0  0  0  0  0  0  0
   -0.5875   -0.9292    0.0000 C   0  0  0  0  0  0  0  0  0  0  0  0
    9.8042   -2.8792    0.0000 O   0  0  0  0  0  0  0  0  0  0  0  0
    5.4792   -1.0417    0.0000 C   0  0  0  0  0  0  0  0  0  0  0  0
    6.1250   -2.9667    0.0000 O   0  0  0  0  0  0  0  0  0  0  0  0
    2.5000   -2.9667    0.0000 O   0  0  0  0  0  0  0  0  0  0  0  0
    4.3625   -1.0792    0.0000 O   0  0  0  0  0  0  0  0  0  0  0  0
    0.6917   -1.1667    0.0000 O   0  0  0  0  0  0  0  0  0  0  0  0
   -1.1708   -2.9042    0.0000 O   0  0  0  0  0  0  0  0  0  0  0  0
    7.9542   -1.1292    0.0000 O   0  0  0  0  0  0  0  0  0  0  0  0
   -2.9750   -1.1292    0.0000 O   0  0  0  0  0  0  0  0  0  0  0  0
    3.7417   -3.2500    0.0000 C   0  0  0  0  0  0  0  0  0  0  0  0
   11.6417   -2.9042    0.0000 O   0  0  0  0  0  0  0  0  0  0  0  0
    7.3292   -3.1875    0.0000 C   0  0  0  0  0  0  0  0  0  0  0  0
   -5.3208   -1.8792    0.0000 O   0  0  0  0  0  0  0  0  0  0  0  0
   -3.8333   -2.8417    0.0000 C   0  0  0  0  0  0  0  0  0  0  0  0
    6.1250   -0.6542    0.0000 O   0  0  0  0  0  0  0  0  0  0  0  0
   10.3792    0.2833    0.0000 N   0  0  0  0  0  0  0  0  0  0  0  0
    6.1250    0.2333    0.0000 C   0  0  0  0  0  0  0  0  0  0  0  0
   12.2542   -1.9167    0.0000 N   0  0  0  0  0  0  0  0  0  0  0  0
   11.5917    0.2833    0.0000 N   0  0  0  0  0  0  0  0  0  0  0  0
   10.1750   -1.2625    0.0000 C   0  0  0  0  0  0  0  0  0  0  0  0
   -4.5208   -2.8417    0.0000 C   0  0  0  0  0  0  0  0  0  0  0  0
    4.4042   -3.6042    0.0000 C   0  0  0  0  0  0  0  0  0  0  0  0
    5.6417   -4.3375    0.0000 C   0  0  0  0  0  0  0  0  0  0  0  0
    1.9292   -1.2250    0.0000 C   0  0  0  0  0  0  0  0  0  0  0  0
    4.4042   -4.3375    0.0000 C   0  0  0  0  0  0  0  0  0  0  0  0
    5.0292   -3.2125    0.0000 C   0  0  0  0  0  0  0  0  0  0  0  0
    5.6417   -3.6042    0.0000 C   0  0  0  0  0  0  0  0  0  0  0  0
    4.9917   -4.7042    0.0000 C   0  0  0  0  0  0  0  0  0  0  0  0
   11.3042   -1.2625    0.0000 C   0  0  0  0  0  0  0  0  0  0  0  0
    6.2542   -4.7042    0.0000 O   0  0  0  0  0  0  0  0  0  0  0  0
    2.5375   -0.8417    0.0000 O   0  0  0  0  0  0  0  0  0  0  0  0
   10.7167   -0.8917    0.0000 C   0  0  0  0  0  0  0  0  0  0  0  0
    9.1792   -1.1667    0.0000 C   0  0  0  0  0  0  0  0  0  0  0  0
    1.7917   -3.3042    0.0000 C   0  0  0  0  0  0  0  0  0  0  0  0
    7.9042   -3.5167    0.0000 C   0  0  0  0  0  0  0  0  0  0  0  0
    1.7917   -4.7042    0.0000 C   0  0  0  0  0  0  0  0  0  0  0  0
    5.5500    0.5458    0.0000 C   0  0  0  0  0  0  0  0  0  0  0  0
    6.7917    0.4750    0.0000 C   0  0  0  0  0  0  0  0  0  0  0  0
    6.1250    1.0333    0.0000 C   0  0  0  0  0  0  0  0  0  0  0  0
   12.8167   -2.2542    0.0000 C   0  0  0  0  0  0  0  0  0  0  0  0
    9.7542   -0.0792    0.0000 C   0  0  0  0  0  0  0  0  0  0  0  0
    9.7542   -0.8042    0.0000 C   0  0  0  0  0  0  0  0  0  0  0  0
    7.9042   -4.2542    0.0000 C   0  0  0  0  0  0  0  0  0  0  0  0
    8.6292   -3.1875    0.0000 C   0  0  0  0  0  0  0  0  0  0  0  0
   13.5250   -1.9167    0.0000 C   0  0  0  0  0  0  0  0  0  0  0  0
    2.4042   -3.6667    0.0000 C   0  0  0  0  0  0  0  0  0  0  0  0
    2.4042   -4.3167    0.0000 C   0  0  0  0  0  0  0  0  0  0  0  0
  2  1  1  0
  3 35  1  0
  4 19  1  0
  5 18  1  0
  6  4  1  0
  7 14  1  0
  8 13  1  0
  9 20  1  0
 10 22  1  0
 11 21  1  0
 12 31  1  0
 13  6  1  0
 14 16  1  0
 15  1  1  0
 16  5  1  0
 17 23  1  0
 18 26  1  0
 19 27  1  0
 20 25  1  0
 21 24  1  0
 22 29  1  0
 23  3  2  0
 24  9  1  0
 25  7  1  0
 26  8  1  0
 27 10  1  0
 15 28  1  1
 29  2  1  0
 30 42  1  0
 31 11  1  6
 32 58  1  0
 33 12  1  0
 34  3  1  0
 25 35  1  6
 36 37  1  0
 24 37  1  1
 38 36  1  0
 39 38  1  0
 40 34  1  0
 41 32  2  0
 42 36  2  0
 43  2  2  0
  6 44  1  6
 45  4  2  0
 46  5  2  0
 47  8  2  0
 48  7  2  0
 49  9  2  0
 50 10  2  0
 51 11  2  0
 26 52  1  6
 53 28  2  0
 27 54  1  6
 55 33  2  0
 56 31  1  0
 57 44  1  0
 58 83  1  0
 59 57  1  0
 60 28  1  0
 61 32  1  0
 62  1  1  0
 63 56  1  0
 64 52  1  0
 65 70  1  0
 16 66  1  1
 67 64  1  0
 68 64  2  0
 69 68  1  0
 70 67  2  0
 71 15  1  0
 72 65  1  0
 73 66  1  0
 74 62  1  0
 29 75  1  1
 76 34  2  0
 77 54  1  0
 78 40  2  0
 79 59  1  0
 80 59  1  0
 81 59  1  0
 82 60  1  0
 83 84  1  0
 84 75  1  0
 85 77  1  0
 86 77  1  0
 87 82  1  0
 88 76  1  0
 89 88  2  0
 71 74  1  0
 69 65  2  0
 40 17  1  0
 78 89  1  0
 30 39  2  0
 63 33  1  0
M  END
> <chembl_id>
CHEMBL2110824

> <chembl_pref_name>
BUSERELIN
