
     RDKit          2D

 22 23  0  0  0  0  0  0  0  0999 V2000
   -0.2583   -3.7167    0.0000 Cl  0  0  0  0  0  0  0  0  0  0  0  0
   -0.8625   -1.7667    0.0000 N   0  0  0  0  0  0  0  0  0  0  0  0
   -2.0875   -1.4792    0.0000 C   0  0  0  0  0  0  0  0  0  0  0  0
   -1.5375   -1.9167    0.0000 C   0  0  0  0  0  0  0  0  0  0  0  0
   -1.5375   -0.3292    0.0000 N   0  0  0  0  0  0  0  0  0  0  0  0
   -0.5500   -1.1292    0.0000 C   0  0  0  0  0  0  0  0  0  0  0  0
   -2.0875   -0.7667    0.0000 C   0  0  0  0  0  0  0  0  0  0  0  0
   -0.8625   -0.4792    0.0000 C   0  0  0  0  0  0  0  0  0  0  0  0
   -0.4208   -2.3167    0.0000 O   0  0  0  0  0  0  0  0  0  0  0  0
   -2.7000   -1.8292    0.0000 C   0  0  0  0  0  0  0  0  0  0  0  0
   -1.9083   -2.5167    0.0000 C   0  0  0  0  0  0  0  0  0  0  0  0
   -2.7000   -0.4167    0.0000 C   0  0  0  0  0  0  0  0  0  0  0  0
   -0.4208    0.0958    0.0000 N   0  0  0  0  0  0  0  0  0  0  0  0
   -3.3125   -1.4917    0.0000 C   0  0  0  0  0  0  0  0  0  0  0  0
   -3.3125   -0.7542    0.0000 C   0  0  0  0  0  0  0  0  0  0  0  0
   -3.9250   -1.8667    0.0000 Cl  0  0  0  0  0  0  0  0  0  0  0  0
   -2.6208   -2.5042    0.0000 C   0  0  0  0  0  0  0  0  0  0  0  0
   -1.5708   -3.1292    0.0000 C   0  0  0  0  0  0  0  0  0  0  0  0
   -0.6958    0.7458    0.0000 C   0  0  0  0  0  0  0  0  0  0  0  0
   -2.9875   -3.1167    0.0000 C   0  0  0  0  0  0  0  0  0  0  0  0
   -1.9375   -3.7417    0.0000 C   0  0  0  0  0  0  0  0  0  0  0  0
   -2.6375   -3.7417    0.0000 C   0  0  0  0  0  0  0  0  0  0  0  0
  3  4  1  0
  4  2  2  0
  5  8  2  0
  6  2  1  0
  7  3  2  0
  8  6  1  0
  9  2  1  0
 10  3  1  0
 11  4  1  0
 12  7  1  0
 13  8  1  0
 14 10  2  0
 15 14  1  0
 16 14  1  0
 17 11  1  0
 18 11  2  0
 19 13  1  0
 20 17  2  0
 21 18  1  0
 22 20  1  0
  7  5  1  0
 21 22  2  0
 12 15  2  0
M  CHG  2   2   1   9  -1
M  END
> <chembl_id>
CHEMBL1200703

> <chembl_pref_name>
CHLORDIAZEPOXIDE HYDROCHLORIDE
