
     RDKit          2D

 31 33  0  0  0  0  0  0  0  0999 V2000
    7.0417   -4.5667    0.0000 C   0  0  0  0  0  0  0  0  0  0  0  0
    7.0250   -6.0000    0.0000 C   0  0  0  0  0  0  0  0  0  0  0  0
    7.0417   -3.8542    0.0000 O   0  0  0  0  0  0  0  0  0  0  0  0
    7.0167   -6.7042    0.0000 O   0  0  0  0  0  0  0  0  0  0  0  0
    6.4167   -4.9292    0.0000 C   0  0  0  0  0  0  0  0  0  0  0  0
    6.4167   -5.6417    0.0000 C   0  0  0  0  0  0  0  0  0  0  0  0
    7.6292   -5.6500    0.0000 O   0  0  0  0  0  0  0  0  0  0  0  0
    7.6417   -4.9375    0.0000 O   0  0  0  0  0  0  0  0  0  0  0  0
    3.0375   -5.3042    0.0000 C   0  0  0  0  0  0  0  0  0  0  0  0
    2.3042   -5.3042    0.0000 N   0  0  0  0  0  0  0  0  0  0  0  0
    3.4667   -5.8667    0.0000 C   0  0  0  0  0  0  0  0  0  0  0  0
    3.3750   -4.6875    0.0000 N   0  0  0  0  0  0  0  0  0  0  0  0
    3.2917   -6.5542    0.0000 C   0  0  0  0  0  0  0  0  0  0  0  0
    2.6417   -6.8542    0.0000 O   0  0  0  0  0  0  0  0  0  0  0  0
    1.8667   -5.8542    0.0000 C   0  0  0  0  0  0  0  0  0  0  0  0
    2.0167   -6.5250    0.0000 C   0  0  0  0  0  0  0  0  0  0  0  0
    4.0750   -3.4542    0.0000 N   0  0  0  0  0  0  0  0  0  0  0  0
    4.1625   -5.6792    0.0000 C   0  0  0  0  0  0  0  0  0  0  0  0
    4.0875   -4.6875    0.0000 C   0  0  0  0  0  0  0  0  0  0  0  0
    3.0292   -4.0667    0.0000 C   0  0  0  0  0  0  0  0  0  0  0  0
    3.8167   -7.0542    0.0000 C   0  0  0  0  0  0  0  0  0  0  0  0
    4.4292   -4.0708    0.0000 C   0  0  0  0  0  0  0  0  0  0  0  0
    3.3667   -3.4625    0.0000 C   0  0  0  0  0  0  0  0  0  0  0  0
    4.6667   -6.1667    0.0000 C   0  0  0  0  0  0  0  0  0  0  0  0
    4.4875   -6.8500    0.0000 C   0  0  0  0  0  0  0  0  0  0  0  0
    5.3750   -5.9917    0.0000 Cl  0  0  0  0  0  0  0  0  0  0  0  0
    4.4167   -2.8125    0.0000 C   0  0  0  0  0  0  0  0  0  0  0  0
    1.1875   -5.6417    0.0000 C   0  0  0  0  0  0  0  0  0  0  0  0
    1.4917   -7.0167    0.0000 C   0  0  0  0  0  0  0  0  0  0  0  0
    0.6750   -6.1250    0.0000 C   0  0  0  0  0  0  0  0  0  0  0  0
    0.8167   -6.8042    0.0000 C   0  0  0  0  0  0  0  0  0  0  0  0
  2  6  1  0
  3  1  2  0
  4  2  2  0
  5  1  1  0
  6  5  1  0
  7  2  1  0
  8  1  1  0
 10  9  2  0
 11  9  1  0
 12  9  1  0
 13 11  2  0
 14 13  1  0
 15 10  1  0
 16 15  2  0
 17 23  1  0
 18 11  1  0
 19 12  1  0
 20 12  1  0
 21 13  1  0
 22 19  1  0
 23 20  1  0
 24 18  2  0
 25 21  2  0
 26 24  1  0
 27 17  1  0
 28 15  1  0
 29 16  1  0
 30 28  2  0
 31 30  1  0
 17 22  1  0
 16 14  1  0
 24 25  1  0
 31 29  2  0
M  END
> <chembl_id>
CHEMBL1201155

> <chembl_pref_name>
LOXAPINE SUCCINATE
