
     RDKit          2D

 80 89  0  0  0  0  0  0  0  0999 V2000
    0.2619    5.1542    0.0000 N   0  0  0  0  0  0  0  0  0  0  0  0
   -0.4055    4.6692    0.0000 C   0  0  0  0  0  0  0  0  0  0  0  0
   -0.1506    3.8846    0.0000 C   0  0  0  0  0  0  0  0  0  0  0  0
    0.6744    3.8846    0.0000 C   0  0  0  0  0  0  0  0  0  0  0  0
    0.9293    4.6692    0.0000 C   0  0  0  0  0  0  0  0  0  0  0  0
    1.7140    4.9242    0.0000 C   0  0  0  0  0  0  0  0  0  0  0  0
   -1.1901    4.9242    0.0000 C   0  0  0  0  0  0  0  0  0  0  0  0
   -1.6027    5.6386    0.0000 C   0  0  0  0  0  0  0  0  0  0  0  0
   -2.4277    5.6386    0.0000 C   0  0  0  0  0  0  0  0  0  0  0  0
   -2.8402    4.9242    0.0000 C   0  0  0  0  0  0  0  0  0  0  0  0
   -2.4277    4.2097    0.0000 C   0  0  0  0  0  0  0  0  0  0  0  0
   -1.6027    4.2097    0.0000 C   0  0  0  0  0  0  0  0  0  0  0  0
    3.3640    4.9242    0.0000 C   0  0  0  0  0  0  0  0  0  0  0  0
    2.9515    5.6386    0.0000 C   0  0  0  0  0  0  0  0  0  0  0  0
    2.1265    5.6386    0.0000 C   0  0  0  0  0  0  0  0  0  0  0  0
    2.1265    4.2097    0.0000 C   0  0  0  0  0  0  0  0  0  0  0  0
    2.9515    4.2097    0.0000 C   0  0  0  0  0  0  0  0  0  0  0  0
   -3.6471    5.0957    0.0000 N   0  0  0  0  0  0  0  0  0  0  0  0
   -3.7334    5.9162    0.0000 C   0  0  0  0  0  0  0  0  0  0  0  0
   -2.9797    6.2517    0.0000 N   0  0  0  0  0  0  0  0  0  0  0  0
    4.1709    5.0957    0.0000 N   0  0  0  0  0  0  0  0  0  0  0  0
    4.2572    5.9162    0.0000 C   0  0  0  0  0  0  0  0  0  0  0  0
    3.5035    6.2517    0.0000 N   0  0  0  0  0  0  0  0  0  0  0  0
   -4.4478    6.3286    0.0000 C   0  0  0  0  0  0  0  0  0  0  0  0
    4.9716    6.3286    0.0000 C   0  0  0  0  0  0  0  0  0  0  0  0
   -4.5341    7.1491    0.0000 N   0  0  0  0  0  0  0  0  0  0  0  0
   -5.3410    7.3206    0.0000 C   0  0  0  0  0  0  0  0  0  0  0  0
   -5.7535    6.6062    0.0000 C   0  0  0  0  0  0  0  0  0  0  0  0
   -5.2015    5.9931    0.0000 C   0  0  0  0  0  0  0  0  0  0  0  0
   -3.9210    7.7012    0.0000 C   0  0  0  0  0  0  0  0  0  0  0  0
   -4.0926    8.5081    0.0000 C   0  0  0  0  0  0  0  0  0  0  0  0
   -3.1364    7.4462    0.0000 O   0  0  0  0  0  0  0  0  0  0  0  0
   -3.4795    9.0602    0.0000 N   0  0  0  0  0  0  0  0  0  0  0  0
   -4.8772    8.7631    0.0000 C   0  0  0  0  0  0  0  0  0  0  0  0
   -5.0487    9.5700    0.0000 O   0  0  0  0  0  0  0  0  0  0  0  0
   -5.8334    9.8249    0.0000 C   0  0  0  0  0  0  0  0  0  0  0  0
   -5.4903    8.2110    0.0000 C   0  0  0  0  0  0  0  0  0  0  0  0
   -3.6510    9.8671    0.0000 C   0  0  0  0  0  0  0  0  0  0  0  0
   -3.0379   10.4192    0.0000 O   0  0  0  0  0  0  0  0  0  0  0  0
   -4.4356   10.1221    0.0000 O   0  0  0  0  0  0  0  0  0  0  0  0
   -3.2095   11.2262    0.0000 C   0  0  0  0  0  0  0  0  0  0  0  0
   -1.1902    3.4952    0.0000 F   0  0  0  0  0  0  0  0  0  0  0  0
    0.2619    5.9792    0.0000 C   0  0  0  0  0  0  0  0  0  0  0  0
    0.9764    6.3917    0.0000 C   0  0  0  0  0  0  0  0  0  0  0  0
    0.9764    7.2167    0.0000 C   0  0  0  0  0  0  0  0  0  0  0  0
    0.2619    7.6292    0.0000 C   0  0  0  0  0  0  0  0  0  0  0  0
   -0.4526    7.2167    0.0000 C   0  0  0  0  0  0  0  0  0  0  0  0
   -0.4526    6.3917    0.0000 C   0  0  0  0  0  0  0  0  0  0  0  0
    1.6909    7.6292    0.0000 F   0  0  0  0  0  0  0  0  0  0  0  0
   -1.1671    7.6292    0.0000 F   0  0  0  0  0  0  0  0  0  0  0  0
    0.2619    8.4542    0.0000 N   0  0  0  0  0  0  0  0  0  0  0  0
    0.9764    8.8667    0.0000 C   0  0  0  0  0  0  0  0  0  0  0  0
    0.9764    9.6917    0.0000 C   0  0  0  0  0  0  0  0  0  0  0  0
    0.2619   10.1042    0.0000 C   0  0  0  0  0  0  0  0  0  0  0  0
   -0.4526    9.6917    0.0000 C   0  0  0  0  0  0  0  0  0  0  0  0
   -0.4526    8.8667    0.0000 C   0  0  0  0  0  0  0  0  0  0  0  0
    0.2619   10.9292    0.0000 C   0  0  0  0  0  0  0  0  0  0  0  0
    0.9764   11.3417    0.0000 C   0  0  0  0  0  0  0  0  0  0  0  0
    0.9764   12.1667    0.0000 C   0  0  0  0  0  0  0  0  0  0  0  0
    0.2619   12.5792    0.0000 C   0  0  0  0  0  0  0  0  0  0  0  0
   -0.4526   12.1667    0.0000 C   0  0  0  0  0  0  0  0  0  0  0  0
   -0.4526   11.3417    0.0000 C   0  0  0  0  0  0  0  0  0  0  0  0
    0.2619   13.4042    0.0000 F   0  0  0  0  0  0  0  0  0  0  0  0
    1.7140    3.4952    0.0000 F   0  0  0  0  0  0  0  0  0  0  0  0
    5.7253    5.9931    0.0000 C   0  0  0  0  0  0  0  0  0  0  0  0
    6.2773    6.6062    0.0000 C   0  0  0  0  0  0  0  0  0  0  0  0
    5.8648    7.3206    0.0000 C   0  0  0  0  0  0  0  0  0  0  0  0
    5.0579    7.1491    0.0000 N   0  0  0  0  0  0  0  0  0  0  0  0
    4.4448    7.7012    0.0000 C   0  0  0  0  0  0  0  0  0  0  0  0
    3.6602    7.4462    0.0000 O   0  0  0  0  0  0  0  0  0  0  0  0
    4.6164    8.5081    0.0000 C   0  0  0  0  0  0  0  0  0  0  0  0
    4.0033    9.0602    0.0000 N   0  0  0  0  0  0  0  0  0  0  0  0
    4.1748    9.8671    0.0000 C   0  0  0  0  0  0  0  0  0  0  0  0
    3.5617   10.4192    0.0000 O   0  0  0  0  0  0  0  0  0  0  0  0
    4.9595   10.1221    0.0000 O   0  0  0  0  0  0  0  0  0  0  0  0
    3.7333   11.2262    0.0000 C   0  0  0  0  0  0  0  0  0  0  0  0
    5.4010    8.7631    0.0000 C   0  0  0  0  0  0  0  0  0  0  0  0
    5.5725    9.5700    0.0000 O   0  0  0  0  0  0  0  0  0  0  0  0
    6.3572    9.8249    0.0000 C   0  0  0  0  0  0  0  0  0  0  0  0
    6.0141    8.2110    0.0000 C   0  0  0  0  0  0  0  0  0  0  0  0
  1  2  1  0
  2  3  1  0
  3  4  1  0
  4  5  1  0
  1  5  1  0
  5  6  1  1
  2  7  1  6
  7  8  2  0
 12  7  1  0
  8  9  1  0
 10 11  1  0
 11 12  2  0
 15  6  2  0
  6 16  1  0
 14 15  1  0
 16 17  2  0
 17 13  1  0
 10 18  1  0
  9 10  2  0
  9 20  1  0
 18 19  1  0
 19 20  2  0
 13 21  1  0
 14 13  2  0
 14 23  1  0
 21 22  1  0
 22 23  2  0
 24 19  1  6
 25 22  1  1
 24 26  1  0
 24 29  1  0
 26 27  1  0
 27 28  1  0
 28 29  1  0
 26 30  1  0
 30 31  1  0
 30 32  2  0
 31 33  1  6
 31 34  1  0
 34 35  1  1
 35 36  1  0
 34 37  1  0
 33 38  1  0
 38 39  1  0
 38 40  2  0
 39 41  1  0
 12 42  1  0
  1 43  1  0
 43 44  1  0
 43 48  2  0
 44 45  2  0
 45 46  1  0
 46 47  2  0
 47 48  1  0
 45 49  1  0
 47 50  1  0
 46 51  1  0
 51 52  1  0
 56 51  1  0
 52 53  1  0
 53 54  1  0
 54 55  1  0
 55 56  1  0
 54 57  1  0
 57 58  1  0
 57 62  2  0
 58 59  2  0
 59 60  1  0
 60 61  2  0
 61 62  1  0
 60 63  1  0
 16 64  1  0
 25 65  1  0
 25 68  1  0
 65 66  1  0
 66 67  1  0
 67 68  1  0
 68 69  1  0
 69 70  2  0
 69 71  1  0
 71 72  1  1
 72 73  1  0
 73 74  1  0
 73 75  2  0
 74 76  1  0
 71 77  1  0
 77 78  1  6
 78 79  1  0
 77 80  1  0
M  END
> <chembl_id>
CHEMBL3545123

> <chembl_pref_name>
PIBRENTASVIR
