
     RDKit          2D

 31 32  0  0  1  0  0  0  0  0999 V2000
    4.5917   -8.8375    0.0000 C   0  0  0  0  0  0  0  0  0  0  0  0
    4.5917   -8.1125    0.0000 C   0  0  0  0  0  0  0  0  0  0  0  0
    3.9667   -7.7542    0.0000 C   0  0  0  0  0  0  0  0  0  0  0  0
    3.3625   -6.7000    0.0000 C   0  0  0  0  0  0  0  0  0  0  0  0
    5.2125   -9.1917    0.0000 C   0  0  0  0  0  0  0  0  0  0  0  0
    3.9667   -9.1917    0.0000 C   0  0  0  0  0  0  0  0  0  0  0  0
    3.9667   -7.0542    0.0000 O   0  0  0  0  0  0  0  0  0  0  0  0
    5.2125   -7.7542    0.0000 C   0  0  0  0  0  0  0  0  0  0  0  0
    5.8250   -8.8375    0.0000 C   0  0  0  0  0  0  0  0  0  0  0  0
    3.3542   -8.1125    0.0000 C   0  0  0  0  0  0  0  0  0  0  0  0
    3.9917   -4.8667    0.0000 C   0  0  0  0  0  0  0  0  0  0  0  0
    4.6042   -4.5167    0.0000 C   0  0  0  0  0  0  0  0  0  0  0  0
    5.2167   -7.0417    0.0000 C   0  0  0  0  0  0  0  0  0  0  0  0
    3.3542   -8.8375    0.0000 C   0  0  0  0  0  0  0  0  0  0  0  0
    5.8250   -8.1125    0.0000 C   0  0  0  0  0  0  0  0  0  0  0  0
    3.3625   -5.9917    0.0000 O   0  0  0  0  0  0  0  0  0  0  0  0
    3.3792   -4.5042    0.0000 O   0  0  0  0  0  0  0  0  0  0  0  0
    3.9917   -5.5750    0.0000 O   0  0  0  0  0  0  0  0  0  0  0  0
    5.2042   -4.8667    0.0000 C   0  0  0  0  0  0  0  0  0  0  0  0
    5.2042   -5.5750    0.0000 C   0  0  0  0  0  0  0  0  0  0  0  0
    2.7542   -7.0542    0.0000 C   0  0  0  0  0  0  0  0  0  0  0  0
    5.8167   -6.6667    0.0000 C   0  0  0  0  0  0  0  0  0  0  0  0
    2.7292   -9.1917    0.0000 O   0  0  0  0  0  0  0  0  0  0  0  0
    5.8167   -5.9250    0.0000 C   0  0  0  0  0  0  0  0  0  0  0  0
    5.8000   -4.5167    0.0000 O   0  0  0  0  0  0  0  0  0  0  0  0
    6.3625   -5.6417    0.0000 O   0  0  0  0  0  0  0  0  0  0  0  0
    6.4417   -7.7542    0.0000 C   0  0  0  0  0  0  0  0  0  0  0  0
    2.1417   -6.7000    0.0000 C   0  0  0  0  0  0  0  0  0  0  0  0
    2.7542   -7.7542    0.0000 C   0  0  0  0  0  0  0  0  0  0  0  0
    1.5417   -7.0542    0.0000 C   0  0  0  0  0  0  0  0  0  0  0  0
    4.5917   -7.3750    0.0000 H   0  0  0  0  0  0  0  0  0  0  0  0
  2  1  1  0
  3  2  1  0
  4  7  1  0
  5  1  1  0
  6  1  2  0
  3  7  1  6
  8  2  1  0
  9  5  2  0
 10 14  1  0
 11 12  1  0
 12 19  1  0
  8 13  1  1
 14  6  1  0
 15  9  1  0
 16  4  2  0
 17 11  1  0
 18 11  2  0
 19 20  1  0
 20 24  1  0
 21  4  1  0
 22 13  1  0
 14 23  1  1
 24 22  1  6
 19 25  1  6
 26 24  1  0
 15 27  1  1
 28 21  1  0
 21 29  1  1
 30 28  1  0
  2 31  1  1
 10  3  1  0
 15  8  1  0
M  END
> <chembl_id>
CHEMBL1144

> <chembl_pref_name>
PRAVASTATIN
