
     RDKit          2D

 26 29  0  0  1  0  0  0  0  0999 V2000
    6.2750   -5.8292    0.0000 C   0  0  0  0  0  0  0  0  0  0  0  0
    4.4292   -6.8792    0.0000 C   0  0  0  0  0  0  0  0  0  0  0  0
    4.4292   -7.5917    0.0000 C   0  0  0  0  0  0  0  0  0  0  0  0
    6.2667   -6.5375    0.0000 C   0  0  0  0  0  0  0  0  0  0  0  0
    5.0417   -6.5292    0.0000 C   0  0  0  0  0  0  0  0  0  0  0  0
    5.6542   -6.8875    0.0000 C   0  0  0  0  0  0  0  0  0  0  0  0
    6.9500   -5.6167    0.0000 C   0  0  0  0  0  0  0  0  0  0  0  0
    3.8167   -7.9417    0.0000 C   0  0  0  0  0  0  0  0  0  0  0  0
    5.6625   -5.4667    0.0000 C   0  0  0  0  0  0  0  0  0  0  0  0
    5.0417   -5.8167    0.0000 C   0  0  0  0  0  0  0  0  0  0  0  0
    6.9375   -6.7667    0.0000 C   0  0  0  0  0  0  0  0  0  0  0  0
    3.8167   -6.5292    0.0000 C   0  0  0  0  0  0  0  0  0  0  0  0
    7.3542   -6.1917    0.0000 C   0  0  0  0  0  0  0  0  0  0  0  0
    5.6500   -7.5917    0.0000 C   0  0  0  0  0  0  0  0  0  0  0  0
    6.9417   -4.9125    0.0000 C   0  0  0  0  0  0  0  0  0  0  0  0
    5.0375   -7.9417    0.0000 C   0  0  0  0  0  0  0  0  0  0  0  0
    3.2042   -7.5917    0.0000 C   0  0  0  0  0  0  0  0  0  0  0  0
    6.3292   -4.5625    0.0000 O   0  0  0  0  0  0  0  0  0  0  0  0
    2.5917   -7.9417    0.0000 O   0  0  0  0  0  0  0  0  0  0  0  0
    3.2042   -6.8792    0.0000 C   0  0  0  0  0  0  0  0  0  0  0  0
    6.2667   -5.1250    0.0000 C   0  0  0  0  0  0  0  0  0  0  0  0
    4.4250   -6.1750    0.0000 C   0  0  0  0  0  0  0  0  0  0  0  0
    7.5542   -4.5500    0.0000 C   0  0  0  0  0  0  0  0  0  0  0  0
    5.0375   -7.2375    0.0000 H   0  0  0  0  0  0  0  0  0  0  0  0
    6.2625   -7.2417    0.0000 H   0  0  0  0  0  0  0  0  0  0  0  0
    5.6500   -6.1792    0.0000 H   0  0  0  0  0  0  0  0  0  0  0  0
  2  5  1  0
  3  2  1  0
  4  1  1  0
  5 10  1  0
  6  4  1  0
  7  1  1  0
  8  3  2  0
  9  1  1  0
 10  9  1  0
 11  4  1  0
 12  2  1  0
 13  7  1  0
 14  6  1  0
  7 15  1  1
 16 14  1  0
 17 20  1  0
 18 15  2  0
 19 17  2  0
 20 12  1  0
  1 21  1  1
  2 22  1  1
 23 15  1  0
  5 24  1  6
  4 25  1  6
  6 26  1  1
 13 11  1  0
  5  6  1  0
 16  3  1  0
 17  8  1  0
M  END
> <chembl_id>
CHEMBL103

> <chembl_pref_name>
PROGESTERONE
