
     RDKit          2D

 30 32  0  0  0  0  0  0  0  0999 V2000
    5.2792   -5.2542    0.0000 C   0  0  0  0  0  0  0  0  0  0  0  0
    7.1292   -4.9167    0.0000 C   0  0  0  0  0  0  0  0  0  0  0  0
    5.9042   -4.9000    0.0000 C   0  0  0  0  0  0  0  0  0  0  0  0
    6.5125   -5.2667    0.0000 C   0  0  0  0  0  0  0  0  0  0  0  0
    5.2792   -5.9625    0.0000 O   0  0  0  0  0  0  0  0  0  0  0  0
    7.1292   -4.2042    0.0000 O   0  0  0  0  0  0  0  0  0  0  0  0
    7.7417   -5.2792    0.0000 O   0  0  0  0  0  0  0  0  0  0  0  0
    4.6750   -4.8875    0.0000 O   0  0  0  0  0  0  0  0  0  0  0  0
    3.2625   -4.2667    0.0000 C   0  0  0  0  0  0  0  0  0  0  0  0
    2.6292   -4.5542    0.0000 C   0  0  0  0  0  0  0  0  0  0  0  0
    3.4417   -3.5667    0.0000 C   0  0  0  0  0  0  0  0  0  0  0  0
    2.9667   -2.9917    0.0000 C   0  0  0  0  0  0  0  0  0  0  0  0
    1.9917   -4.2542    0.0000 C   0  0  0  0  0  0  0  0  0  0  0  0
    2.6125   -5.2417    0.0000 C   0  0  0  0  0  0  0  0  0  0  0  0
    1.8417   -3.5417    0.0000 C   0  0  0  0  0  0  0  0  0  0  0  0
    4.1375   -3.5250    0.0000 S   0  0  0  0  0  0  0  0  0  0  0  0
    2.2583   -3.0042    0.0000 C   0  0  0  0  0  0  0  0  0  0  0  0
    3.8792   -4.6125    0.0000 C   0  0  0  0  0  0  0  0  0  0  0  0
    2.6000   -6.6792    0.0000 N   0  0  0  0  0  0  0  0  0  0  0  0
    4.3917   -4.1417    0.0000 C   0  0  0  0  0  0  0  0  0  0  0  0
    3.2667   -2.3292    0.0000 O   0  0  0  0  0  0  0  0  0  0  0  0
    1.9917   -5.6042    0.0000 C   0  0  0  0  0  0  0  0  0  0  0  0
    3.2000   -5.6167    0.0000 C   0  0  0  0  0  0  0  0  0  0  0  0
    1.9667   -6.3250    0.0000 C   0  0  0  0  0  0  0  0  0  0  0  0
    3.2167   -6.3417    0.0000 C   0  0  0  0  0  0  0  0  0  0  0  0
    1.4667   -4.7375    0.0000 C   0  0  0  0  0  0  0  0  0  0  0  0
    1.1417   -3.3500    0.0000 C   0  0  0  0  0  0  0  0  0  0  0  0
    2.6250   -7.4042    0.0000 C   0  0  0  0  0  0  0  0  0  0  0  0
    0.7792   -4.5083    0.0000 C   0  0  0  0  0  0  0  0  0  0  0  0
    0.6167   -3.8292    0.0000 C   0  0  0  0  0  0  0  0  0  0  0  0
  2  4  1  0
  3  1  1  0
  4  3  2  0
  5  1  2  0
  6  2  2  0
  7  2  1  0
  8  1  1  0
 10  9  1  0
 11  9  2  0
 12 11  1  0
 13 10  1  0
 14 10  2  0
 15 13  2  0
 16 11  1  0
 17 12  1  0
 18  9  1  0
 19 25  1  0
 20 18  2  0
 21 12  2  0
 22 14  1  0
 23 14  1  0
 24 22  1  0
 25 23  1  0
 26 13  1  0
 27 15  1  0
 28 19  1  0
 29 26  2  0
 30 27  2  0
 20 16  1  0
 17 15  1  0
 19 24  1  0
 29 30  1  0
M  END
> <chembl_id>
CHEMBL1633

> <chembl_pref_name>
KETOTIFEN FUMARATE
