
     RDKit          2D

 50 53  0  0  1  0  0  0  0  0999 V2000
    9.6250   -6.6542    0.0000 N   0  0  0  0  0  0  0  0  0  0  0  0
    7.1042   -6.6042    0.0000 C   0  0  0  0  0  0  0  0  0  0  0  0
   10.1917   -6.2417    0.0000 C   0  0  0  0  0  0  0  0  0  0  0  0
    6.5042   -6.2625    0.0000 N   0  0  0  0  0  0  0  0  0  0  0  0
    5.2375   -6.2625    0.0000 C   0  0  0  0  0  0  0  0  0  0  0  0
    9.0167   -6.2417    0.0000 C   0  0  0  0  0  0  0  0  0  0  0  0
    9.9667   -5.5500    0.0000 S   0  0  0  0  0  0  0  0  0  0  0  0
    5.8542   -6.6042    0.0000 C   0  0  0  0  0  0  0  0  0  0  0  0
    0.8417   -6.6042    0.0000 C   0  0  0  0  0  0  0  0  0  0  0  0
    7.7542   -6.2625    0.0000 N   0  0  0  0  0  0  0  0  0  0  0  0
    4.6250   -6.6042    0.0000 N   0  0  0  0  0  0  0  0  0  0  0  0
   -1.9375   -5.5500    0.0000 N   0  0  0  0  0  0  0  0  0  0  0  0
    1.4625   -6.2625    0.0000 N   0  0  0  0  0  0  0  0  0  0  0  0
   -1.0208   -6.2417    0.0000 C   0  0  0  0  0  0  0  0  0  0  0  0
    9.2667   -5.5500    0.0000 C   0  0  0  0  0  0  0  0  0  0  0  0
    2.1125   -6.6375    0.0000 C   0  0  0  0  0  0  0  0  0  0  0  0
   -1.6000   -6.6375    0.0000 S   0  0  0  0  0  0  0  0  0  0  0  0
   -2.1750   -6.2167    0.0000 C   0  0  0  0  0  0  0  0  0  0  0  0
    8.3750   -6.6042    0.0000 C   0  0  0  0  0  0  0  0  0  0  0  0
    3.3292   -6.6042    0.0000 C   0  0  0  0  0  0  0  0  0  0  0  0
    3.9667   -6.2625    0.0000 C   0  0  0  0  0  0  0  0  0  0  0  0
   -1.2500   -5.5500    0.0000 C   0  0  0  0  0  0  0  0  0  0  0  0
    2.7167   -6.2625    0.0000 C   0  0  0  0  0  0  0  0  0  0  0  0
    7.1042   -7.3125    0.0000 O   0  0  0  0  0  0  0  0  0  0  0  0
    5.2375   -5.5500    0.0000 O   0  0  0  0  0  0  0  0  0  0  0  0
    0.8417   -7.2917    0.0000 O   0  0  0  0  0  0  0  0  0  0  0  0
    2.1125   -7.3792    0.0000 C   0  0  0  0  0  0  0  0  0  0  0  0
    0.2125   -6.2625    0.0000 O   0  0  0  0  0  0  0  0  0  0  0  0
   10.8042   -6.5917    0.0000 C   0  0  0  0  0  0  0  0  0  0  0  0
   -0.3958   -6.5917    0.0000 C   0  0  0  0  0  0  0  0  0  0  0  0
    3.9667   -5.5417    0.0000 C   0  0  0  0  0  0  0  0  0  0  0  0
    5.8542   -7.3250    0.0000 C   0  0  0  0  0  0  0  0  0  0  0  0
    2.7125   -7.7417    0.0000 C   0  0  0  0  0  0  0  0  0  0  0  0
    2.7167   -5.6000    0.0000 O   0  0  0  0  0  0  0  0  0  0  0  0
    4.2625   -4.9167    0.0000 C   0  0  0  0  0  0  0  0  0  0  0  0
    7.7542   -5.5292    0.0000 C   0  0  0  0  0  0  0  0  0  0  0  0
   10.8042   -7.3125    0.0000 C   0  0  0  0  0  0  0  0  0  0  0  0
   11.4417   -6.1917    0.0000 C   0  0  0  0  0  0  0  0  0  0  0  0
    5.2875   -7.6542    0.0000 C   0  0  0  0  0  0  0  0  0  0  0  0
    6.4500   -7.6542    0.0000 C   0  0  0  0  0  0  0  0  0  0  0  0
    2.7125   -8.4417    0.0000 C   0  0  0  0  0  0  0  0  0  0  0  0
    3.2667   -7.3792    0.0000 C   0  0  0  0  0  0  0  0  0  0  0  0
    3.8792   -4.3292    0.0000 C   0  0  0  0  0  0  0  0  0  0  0  0
    4.9667   -4.8917    0.0000 C   0  0  0  0  0  0  0  0  0  0  0  0
    4.1875   -3.6792    0.0000 C   0  0  0  0  0  0  0  0  0  0  0  0
    5.2792   -4.2583    0.0000 C   0  0  0  0  0  0  0  0  0  0  0  0
    3.2667   -8.8042    0.0000 C   0  0  0  0  0  0  0  0  0  0  0  0
    3.8667   -7.7417    0.0000 C   0  0  0  0  0  0  0  0  0  0  0  0
    3.8667   -8.4417    0.0000 C   0  0  0  0  0  0  0  0  0  0  0  0
    4.9042   -3.6792    0.0000 C   0  0  0  0  0  0  0  0  0  0  0  0
  2 10  1  0
  3  1  2  0
  4  2  1  0
  5  8  1  0
  6  1  1  0
  7  3  1  0
  8  4  1  0
  9 13  1  0
 10 19  1  0
 11  5  1  0
 12 22  1  0
 13 16  1  0
 14 30  1  0
 15  6  2  0
 16 23  1  0
 17 14  1  0
 18 17  1  0
 19  6  1  0
 20 21  1  0
 21 11  1  0
 22 14  2  0
 23 20  1  0
 24  2  2  0
 25  5  2  0
 26  9  2  0
 16 27  1  6
 28  9  1  0
 29  3  1  0
 30 28  1  0
 21 31  1  6
  8 32  1  1
 33 27  1  0
 23 34  1  1
 35 31  1  0
 36 10  1  0
 37 29  1  0
 38 29  1  0
 39 32  1  0
 40 32  1  0
 41 33  1  0
 42 33  2  0
 43 35  1  0
 44 35  2  0
 45 43  2  0
 46 44  1  0
 47 41  2  0
 48 42  1  0
 49 48  2  0
 50 46  2  0
  7 15  1  0
 50 45  1  0
 49 47  1  0
 18 12  2  0
M  END
> <chembl_id>
CHEMBL163

> <chembl_pref_name>
RITONAVIR
