
     RDKit          2D

 22 20  0  0  0  0  0  0  0  0999 V2000
   18.6018   -6.4058    0.0000 O   0  0  0  0  0  0  0  0  0  0  0  0
   12.6197   -5.0671    0.0000 N   0  0  0  0  0  0  0  0  0  0  0  0
   13.0693   -5.7616    0.0000 C   0  0  0  0  0  0  0  0  0  0  0  0
   13.8937   -5.7185    0.0000 C   0  0  0  0  0  0  0  0  0  0  0  0
   14.2695   -4.9817    0.0000 C   0  0  0  0  0  0  0  0  0  0  0  0
   13.8147   -4.2867    0.0000 C   0  0  0  0  0  0  0  0  0  0  0  0
   12.9919   -4.3332    0.0000 C   0  0  0  0  0  0  0  0  0  0  0  0
   14.3429   -6.4105    0.0000 C   0  0  0  0  0  0  0  0  0  0  0  0
   13.9681   -7.1455    0.0000 C   0  0  0  0  0  0  0  0  0  0  0  0
   15.1667   -6.3676    0.0000 C   0  0  0  0  0  0  0  0  0  0  0  0
   13.1455   -7.1841    0.0000 C   0  0  0  0  0  0  0  0  0  0  0  0
   12.7708   -7.9182    0.0000 C   0  0  0  0  0  0  0  0  0  0  0  0
   13.2200   -8.6112    0.0000 C   0  0  0  0  0  0  0  0  0  0  0  0
   14.0480   -8.5654    0.0000 C   0  0  0  0  0  0  0  0  0  0  0  0
   14.4190   -7.8308    0.0000 C   0  0  0  0  0  0  0  0  0  0  0  0
   12.8463   -9.3467    0.0000 Br  0  0  0  0  0  0  0  0  0  0  0  0
   15.5415   -5.6326    0.0000 C   0  0  0  0  0  0  0  0  0  0  0  0
   16.3654   -5.5896    0.0000 N   0  0  0  0  0  0  0  0  0  0  0  0
   16.7400   -4.8546    0.0000 C   0  0  0  0  0  0  0  0  0  0  0  0
   16.8145   -6.2816    0.0000 C   0  0  0  0  0  0  0  0  0  0  0  0
   18.5541   -4.8605    0.0000 Cl  0  0  0  0  0  0  0  0  0  0  0  0
   18.5562   -5.5395    0.0000 Cl  0  0  0  0  0  0  0  0  0  0  0  0
  5  6  1  0
  9 11  2  0
  3  4  1  0
 11 12  1  0
  6  7  2  0
 12 13  2  0
  7  2  1  0
 13 14  1  0
  2  3  2  0
 14 15  2  0
 15  9  1  0
  4  8  1  0
 13 16  1  0
  4  5  2  0
 10 17  1  0
  8  9  1  0
 17 18  1  0
 18 19  1  0
  8 10  2  0
 18 20  1  0
M  END
> <chembl_id>
CHEMBL2355333

> <chembl_pref_name>
ZIMELDINE HYDROCHLORIDE
