
     RDKit          2D

 39 41  0  0  0  0  0  0  0  0999 V2000
   -0.8663   -1.0030    0.0000 O   0  0  0  0  0  0  0  0  0  0  0  0
   -6.4742    1.6913    0.0000 C   0  0  0  0  0  0  0  0  0  0  0  0
   -5.7597    0.4538    0.0000 C   0  0  0  0  0  0  0  0  0  0  0  0
   -5.7597    1.2788    0.0000 C   0  0  0  0  0  0  0  0  0  0  0  0
   -5.0452    0.0412    0.0000 C   0  0  0  0  0  0  0  0  0  0  0  0
   -4.3307    0.4537    0.0000 C   0  0  0  0  0  0  0  0  0  0  0  0
   -4.3307    1.2787    0.0000 C   0  0  0  0  0  0  0  0  0  0  0  0
   -5.0452    1.6912    0.0000 C   0  0  0  0  0  0  0  0  0  0  0  0
   -2.9018    1.2787    0.0000 N   0  0  0  0  0  0  0  0  0  0  0  0
   -3.6163    1.6912    0.0000 C   0  0  0  0  0  0  0  0  0  0  0  0
   -3.6162    2.5162    0.0000 C   0  0  0  0  0  0  0  0  0  0  0  0
   -2.9018    2.9287    0.0000 C   0  0  0  0  0  0  0  0  0  0  0  0
   -2.1873    2.5162    0.0000 C   0  0  0  0  0  0  0  0  0  0  0  0
   -2.1873    1.6912    0.0000 N   0  0  0  0  0  0  0  0  0  0  0  0
   -1.4728    1.2787    0.0000 C   0  0  0  0  0  0  0  0  0  0  0  0
   -0.7583    1.6912    0.0000 C   0  0  0  0  0  0  0  0  0  0  0  0
   -0.7583    2.5162    0.0000 C   0  0  0  0  0  0  0  0  0  0  0  0
   -1.4728    2.9287    0.0000 O   0  0  0  0  0  0  0  0  0  0  0  0
   -0.0439    1.2787    0.0000 C   0  0  0  0  0  0  0  0  0  0  0  0
    0.6706    1.6911    0.0000 C   0  0  0  0  0  0  0  0  0  0  0  0
    0.6706    2.5161    0.0000 C   0  0  0  0  0  0  0  0  0  0  0  0
   -0.0439    2.9287    0.0000 C   0  0  0  0  0  0  0  0  0  0  0  0
    1.3851    0.4536    0.0000 N   0  0  0  0  0  0  0  0  0  0  0  0
    1.3851    1.2786    0.0000 C   0  0  0  0  0  0  0  0  0  0  0  0
    2.0995    1.6911    0.0000 N   0  0  0  0  0  0  0  0  0  0  0  0
    2.0995    0.0411    0.0000 C   0  0  0  0  0  0  0  0  0  0  0  0
    2.8140    0.4536    0.0000 C   0  0  0  0  0  0  0  0  0  0  0  0
    2.8140    1.2786    0.0000 C   0  0  0  0  0  0  0  0  0  0  0  0
    3.5285    0.0411    0.0000 O   0  0  0  0  0  0  0  0  0  0  0  0
    4.2429    0.4536    0.0000 C   0  0  0  0  0  0  0  0  0  0  0  0
    4.9574   -0.7839    0.0000 C   0  0  0  0  0  0  0  0  0  0  0  0
    4.9574    0.0411    0.0000 C   0  0  0  0  0  0  0  0  0  0  0  0
    5.6719    0.4536    0.0000 C   0  0  0  0  0  0  0  0  0  0  0  0
    5.6719   -1.1964    0.0000 C   0  0  0  0  0  0  0  0  0  0  0  0
    6.3863   -0.7839    0.0000 N   0  0  0  0  0  0  0  0  0  0  0  0
    6.3863    0.0411    0.0000 C   0  0  0  0  0  0  0  0  0  0  0  0
   -7.1886    2.1038    0.0000 N   0  0  0  0  0  0  0  0  0  0  0  0
    7.1008   -1.1964    0.0000 C   0  0  0  0  0  0  0  0  0  0  0  0
   -0.9574   -0.2964    0.0000 Cl  0  0  0  0  0  0  0  0  0  0  0  0
  3  4  2  0
  2  4  1  0
  5  6  2  0
  6  7  1  0
  7  8  2  0
  3  5  1  0
  4  8  1  0
  9 10  2  0
  7 10  1  0
 11 12  2  0
 12 13  1  0
 13 14  1  0
  9 14  1  0
 10 11  1  0
 15 16  1  0
 16 17  2  0
 13 18  2  0
 14 15  1  0
 19 20  2  0
 20 21  1  0
 21 22  2  0
 16 19  1  0
 17 22  1  0
 23 24  2  0
 20 24  1  0
 26 27  2  0
 27 28  1  0
 25 28  2  0
 23 26  1  0
 25 24  1  0
 29 30  1  0
 27 29  1  0
 31 32  1  0
 30 32  1  0
 34 35  1  0
 35 36  1  0
 33 36  1  0
 31 34  1  0
 33 32  1  0
  2 37  3  0
 35 38  1  0
M  END
> <chembl_id>
CHEMBL4594292

> <chembl_pref_name>
TEPOTINIB HYDROCHLORIDE
