
     RDKit          2D

 36 36  0  0  0  0  0  0  0  0999 V2000
   13.4062  -30.4071    0.0000 O   0  0  0  0  0  0  0  0  0  0  0  0
   10.0758  -27.7705    0.0000 N   0  0  0  0  0  0  0  0  0  0  0  0
    9.2508  -27.7705    0.0000 C   0  0  0  0  0  0  0  0  0  0  0  0
    9.2508  -26.9455    0.0000 C   0  0  0  0  0  0  0  0  0  0  0  0
   10.0758  -26.9455    0.0000 C   0  0  0  0  0  0  0  0  0  0  0  0
   10.7850  -28.1807    0.0000 C   0  0  0  0  0  0  0  0  0  0  0  0
   11.5039  -27.7705    0.0000 C   0  0  0  0  0  0  0  0  0  0  0  0
    7.1232  -25.7201    0.0000 C   0  0  0  0  0  0  0  0  0  0  0  0
    7.1183  -26.5451    0.0000 C   0  0  0  0  0  0  0  0  0  0  0  0
    7.7841  -25.2136    0.0000 N   0  0  0  0  0  0  0  0  0  0  0  0
    8.5416  -26.5403    0.0000 N   0  0  0  0  0  0  0  0  0  0  0  0
    7.8275  -26.9504    0.0000 C   0  0  0  0  0  0  0  0  0  0  0  0
   10.7850  -26.5307    0.0000 S   0  0  0  0  0  0  0  0  0  0  0  0
    7.5140  -24.4320    0.0000 C   0  0  0  0  0  0  0  0  0  0  0  0
   12.9271  -27.7705    0.0000 N   0  0  0  0  0  0  0  0  0  0  0  0
   10.7850  -29.0057    0.0000 C   0  0  0  0  0  0  0  0  0  0  0  0
    6.4429  -25.2425    0.0000 C   0  0  0  0  0  0  0  0  0  0  0  0
    6.6890  -24.4465    0.0000 S   0  0  0  0  0  0  0  0  0  0  0  0
   12.2131  -28.1903    0.0000 C   0  0  0  0  0  0  0  0  0  0  0  0
   11.5039  -26.9455    0.0000 C   0  0  0  0  0  0  0  0  0  0  0  0
    6.3995  -26.9455    0.0000 N   0  0  0  0  0  0  0  0  0  0  0  0
    8.5416  -28.1807    0.0000 O   0  0  0  0  0  0  0  0  0  0  0  0
    7.8275  -27.7754    0.0000 O   0  0  0  0  0  0  0  0  0  0  0  0
   11.4943  -29.4205    0.0000 O   0  0  0  0  0  0  0  0  0  0  0  0
   10.0710  -29.4109    0.0000 O   0  0  0  0  0  0  0  0  0  0  0  0
    8.0929  -23.8482    0.0000 N   0  0  0  0  0  0  0  0  0  0  0  0
    6.3995  -27.7705    0.0000 O   0  0  0  0  0  0  0  0  0  0  0  0
   12.9223  -28.5955    0.0000 C   0  0  0  0  0  0  0  0  0  0  0  0
   13.1877  -26.9938    0.0000 C   0  0  0  0  0  0  0  0  0  0  0  0
   13.5881  -28.2675    0.0000 C   0  0  0  0  0  0  0  0  0  0  0  0
    7.1087  -28.1903    0.0000 C   0  0  0  0  0  0  0  0  0  0  0  0
   14.2587  -27.7850    0.0000 C   0  0  0  0  0  0  0  0  0  0  0  0
   14.0127  -26.9938    0.0000 C   0  0  0  0  0  0  0  0  0  0  0  0
   10.0758  -26.1205    0.0000 H   0  0  0  0  0  0  0  0  0  0  0  0
   13.8631  -29.1649    0.0000 Cl  0  0  0  0  0  0  0  0  0  0  0  0
   12.5219  -29.5267    0.0000 Cl  0  0  0  0  0  0  0  0  0  0  0  0
  3  2  1  0
  4  5  1  0
  5  2  1  0
  6  2  1  0
  7  6  2  0
  8  9  1  0
  9 12  1  0
 10  8  1  0
  4 11  1  1
 12 11  1  0
 13  5  1  0
 14 10  2  0
 15 19  1  0
 16  6  1  0
 17  8  2  0
 18 17  1  0
 19  7  1  0
 20  7  1  0
 21  9  2  0
 22  3  2  0
 23 12  2  0
 24 16  1  0
 25 16  2  0
 26 14  1  0
 27 21  1  0
 28 15  1  0
 29 15  1  0
 30 15  1  0
 31 27  1  0
 32 30  1  0
 33 29  1  0
  5 34  1  6
  3  4  1  0
 13 20  1  0
 33 32  1  0
 18 14  1  0
M  CHG  2  15   1  35  -1
M  END
> <chembl_id>
CHEMBL1200962

> <chembl_pref_name>
CEFEPIME HYDROCHLORIDE
