
     RDKit          2D

 29 32  0  0  0  0  0  0  0  0999 V2000
   13.1106   -8.9330    0.0000 N   0  0  0  0  0  0  0  0  0  0  0  0
   12.8912   -9.7168    0.0000 N   0  0  0  0  0  0  0  0  0  0  0  0
   12.4370   -8.4716    0.0000 C   0  0  0  0  0  0  0  0  0  0  0  0
   12.0649   -9.7490    0.0000 C   0  0  0  0  0  0  0  0  0  0  0  0
   11.7864   -8.9816    0.0000 C   0  0  0  0  0  0  0  0  0  0  0  0
    9.6584   -8.5693    0.0000 S   0  0  0  0  0  0  0  0  0  0  0  0
   11.0889   -8.5638    0.0000 C   0  0  0  0  0  0  0  0  0  0  0  0
   13.8291   -8.5097    0.0000 C   0  0  0  0  0  0  0  0  0  0  0  0
   13.3145  -10.4208    0.0000 C   0  0  0  0  0  0  0  0  0  0  0  0
   12.3952   -7.6549    0.0000 O   0  0  0  0  0  0  0  0  0  0  0  0
   11.6180  -10.4177    0.0000 O   0  0  0  0  0  0  0  0  0  0  0  0
   10.3704   -8.9870    0.0000 C   0  0  0  0  0  0  0  0  0  0  0  0
    9.6503   -7.7525    0.0000 O   0  0  0  0  0  0  0  0  0  0  0  0
    8.9446   -8.9876    0.0000 C   0  0  0  0  0  0  0  0  0  0  0  0
   14.1408  -10.4032    0.0000 C   0  0  0  0  0  0  0  0  0  0  0  0
   12.9257  -11.1377    0.0000 C   0  0  0  0  0  0  0  0  0  0  0  0
   13.8163   -7.6834    0.0000 C   0  0  0  0  0  0  0  0  0  0  0  0
   14.5412   -8.9275    0.0000 C   0  0  0  0  0  0  0  0  0  0  0  0
    8.9477   -9.7899    0.0000 C   0  0  0  0  0  0  0  0  0  0  0  0
    8.2229   -8.5699    0.0000 C   0  0  0  0  0  0  0  0  0  0  0  0
   14.5641  -11.1023    0.0000 C   0  0  0  0  0  0  0  0  0  0  0  0
   13.3538  -11.8416    0.0000 C   0  0  0  0  0  0  0  0  0  0  0  0
   15.2549   -8.5043    0.0000 C   0  0  0  0  0  0  0  0  0  0  0  0
   14.5348   -7.2746    0.0000 C   0  0  0  0  0  0  0  0  0  0  0  0
    8.2243  -10.1987    0.0000 C   0  0  0  0  0  0  0  0  0  0  0  0
    7.5091   -8.9836    0.0000 C   0  0  0  0  0  0  0  0  0  0  0  0
   14.1753  -11.8144    0.0000 C   0  0  0  0  0  0  0  0  0  0  0  0
   15.2614   -7.6874    0.0000 C   0  0  0  0  0  0  0  0  0  0  0  0
    7.5122   -9.7810    0.0000 C   0  0  0  0  0  0  0  0  0  0  0  0
  2  1  1  0
  3  1  1  0
  4  2  1  0
  5  3  1  0
  6 12  1  0
  7  5  1  0
  8  1  1  0
  9  2  1  0
 10  3  2  0
 11  4  2  0
 12  7  1  0
 13  6  1  0
 14  6  1  0
 15  9  2  0
 16  9  1  0
 17  8  2  0
 18  8  1  0
 19 14  2  0
 20 14  1  0
 21 15  1  0
 22 16  2  0
 23 18  2  0
 24 17  1  0
 25 19  1  0
 26 20  2  0
 27 22  1  0
 28 23  1  0
 29 26  1  0
  5  4  1  0
 28 24  2  0
 27 21  2  0
 29 25  2  0
M  CHG  2   6   1  13  -1
M  END
> <chembl_id>
CHEMBL832

> <chembl_pref_name>
SULFINPYRAZONE
