
     RDKit          2D

 13 13  0  0  0  0  0  0  0  0999 V2000
    0.6500   -0.1542    0.0000 C   0  0  0  0  0  0  0  0  0  0  0  0
   -0.6583   -0.8917    0.0000 C   0  0  0  0  0  0  0  0  0  0  0  0
    0.6500    1.2500    0.0000 N   0  0  0  0  0  0  0  0  0  0  0  0
    1.8792   -0.8917    0.0000 O   0  0  0  0  0  0  0  0  0  0  0  0
   -1.8833   -3.0417    0.0000 N   0  0  0  0  0  0  0  0  0  0  0  0
   -0.6583   -2.3375    0.0000 C   0  0  0  0  0  0  0  0  0  0  0  0
   -1.8833   -0.1917    0.0000 C   0  0  0  0  0  0  0  0  0  0  0  0
    1.8792    1.9875    0.0000 C   0  0  0  0  0  0  0  0  0  0  0  0
   -0.5833    1.9583    0.0000 C   0  0  0  0  0  0  0  0  0  0  0  0
   -3.1208   -2.3375    0.0000 C   0  0  0  0  0  0  0  0  0  0  0  0
   -3.1208   -0.9292    0.0000 C   0  0  0  0  0  0  0  0  0  0  0  0
    3.1167    1.2833    0.0000 C   0  0  0  0  0  0  0  0  0  0  0  0
   -0.5833    3.4000    0.0000 C   0  0  0  0  0  0  0  0  0  0  0  0
  2  1  1  0
  3  1  1  0
  4  1  2  0
  5  6  1  0
  6  2  2  0
  7  2  1  0
  8  3  1  0
  9  3  1  0
 10 11  1  0
 11  7  2  0
 12  8  1  0
 13  9  1  0
  5 10  2  0
M  END
> <chembl_id>
CHEMBL2104607

> <chembl_pref_name>
NIKETHAMIDE
