
     RDKit          2D

 27 26  0  0  0  0  0  0  0  0999 V2000
   -0.4625   -1.3625    0.0000 Cl  0  0  0  0  0  0  0  0  0  0  0  0
   -2.4208   -2.1042    0.0000 N   0  0  0  0  0  0  0  0  0  0  0  0
   -3.5625   -1.5792    0.0000 C   0  0  0  0  0  0  0  0  0  0  0  0
   -3.1833   -2.0917    0.0000 C   0  0  0  0  0  0  0  0  0  0  0  0
   -1.2208    0.0000    0.0000 C   0  0  0  0  0  0  0  0  0  0  0  0
   -4.2208   -1.5792    0.0000 O   0  0  0  0  0  0  0  0  0  0  0  0
   -1.5250    0.5250    0.0000 O   0  0  0  0  0  0  0  0  0  0  0  0
   -3.0458   -1.0500    0.0000 N   0  0  0  0  0  0  0  0  0  0  0  0
   -1.5250   -0.5167    0.0000 O   0  0  0  0  0  0  0  0  0  0  0  0
   -2.1125   -2.6292    0.0000 C   0  0  0  0  0  0  0  0  0  0  0  0
   -2.1125   -1.5792    0.0000 C   0  0  0  0  0  0  0  0  0  0  0  0
   -0.2208    0.0000    0.0000 C   0  0  0  0  0  0  0  0  0  0  0  0
   -2.4458   -1.0500    0.0000 C   0  0  0  0  0  0  0  0  0  0  0  0
   -2.1333   -0.5167    0.0000 C   0  0  0  0  0  0  0  0  0  0  0  0
    0.0750    0.5208    0.0000 C   0  0  0  0  0  0  0  0  0  0  0  0
    3.7542    2.6458    0.0000 C   0  0  0  0  0  0  0  0  0  0  0  0
   -1.5083   -2.6292    0.0000 C   0  0  0  0  0  0  0  0  0  0  0  0
   -1.5083   -1.5792    0.0000 C   0  0  0  0  0  0  0  0  0  0  0  0
    3.4292    2.1000    0.0000 C   0  0  0  0  0  0  0  0  0  0  0  0
    0.6917    0.5208    0.0000 C   0  0  0  0  0  0  0  0  0  0  0  0
    1.0042    1.0625    0.0000 C   0  0  0  0  0  0  0  0  0  0  0  0
    1.6167    1.0625    0.0000 C   0  0  0  0  0  0  0  0  0  0  0  0
    1.9167    1.5833    0.0000 C   0  0  0  0  0  0  0  0  0  0  0  0
    2.5250    1.5833    0.0000 C   0  0  0  0  0  0  0  0  0  0  0  0
    2.8167    2.1000    0.0000 C   0  0  0  0  0  0  0  0  0  0  0  0
    4.3375    2.6458    0.0000 C   0  0  0  0  0  0  0  0  0  0  0  0
   -1.2000   -2.1042    0.0000 C   0  0  0  0  0  0  0  0  0  0  0  0
  3  4  1  0
  4  2  1  0
  5  9  1  0
  6  3  2  0
  7  5  2  0
  8  3  1  0
  9 14  1  0
 10  2  2  0
 11  2  1  0
 12  5  1  0
 13  8  1  0
 14 13  1  0
 15 12  1  0
 16 19  1  0
 17 10  1  0
 18 11  2  0
 19 25  1  0
 20 15  1  0
 21 20  1  0
 22 21  1  0
 23 22  1  0
 24 23  1  0
 25 24  1  0
 26 16  1  0
 27 17  2  0
 18 27  1  0
M  CHG  2   1  -1   2   1
M  END
> <chembl_id>
CHEMBL1201787

> <chembl_pref_name>
LAPYRIUM CHLORIDE
