
     RDKit          2D

 14 14  0  0  1  0  0  0  0  0999 V2000
    4.9500   -5.4167    0.0000 N   0  0  0  0  0  0  0  0  0  0  0  0
    4.3292   -6.4917    0.0000 C   0  0  0  0  0  0  0  0  0  0  0  0
    4.3292   -5.7917    0.0000 C   0  0  0  0  0  0  0  0  0  0  0  0
    4.9500   -6.8500    0.0000 C   0  0  0  0  0  0  0  0  0  0  0  0
    5.5750   -6.4917    0.0000 C   0  0  0  0  0  0  0  0  0  0  0  0
    5.5750   -5.7667    0.0000 C   0  0  0  0  0  0  0  0  0  0  0  0
    3.7167   -6.8417    0.0000 O   0  0  0  0  0  0  0  0  0  0  0  0
    4.9500   -7.5500    0.0000 O   0  0  0  0  0  0  0  0  0  0  0  0
    6.1792   -6.8500    0.0000 O   0  0  0  0  0  0  0  0  0  0  0  0
    4.9500   -4.7042    0.0000 C   0  0  0  0  0  0  0  0  0  0  0  0
    3.7292   -5.4375    0.0000 C   0  0  0  0  0  0  0  0  0  0  0  0
    3.1167   -5.7875    0.0000 O   0  0  0  0  0  0  0  0  0  0  0  0
    6.1667   -4.7042    0.0000 O   0  0  0  0  0  0  0  0  0  0  0  0
    5.5542   -4.3500    0.0000 C   0  0  0  0  0  0  0  0  0  0  0  0
  2  3  1  0
  3  1  1  0
  4  5  1  0
  5  6  1  0
  6  1  1  0
  2  7  1  6
  4  8  1  1
  5  9  1  6
 10  1  1  0
  3 11  1  1
 12 11  1  0
 13 14  1  0
 14 10  1  0
  4  2  1  0
M  END
> <chembl_id>
CHEMBL1561

> <chembl_pref_name>
MIGLITOL
