
     RDKit          2D

 36 38  0  0  1  0  0  0  0  0999 V2000
    0.1875   -0.6542    0.0000 O   0  0  0  0  0  0  0  0  0  0  0  0
   -0.4250   -1.0167    0.0000 C   0  0  0  0  0  0  0  0  0  0  0  0
    0.1917   -1.3667    0.0000 C   0  0  0  0  0  0  0  0  0  0  0  0
   -2.2625   -3.4917    0.0000 C   0  0  0  0  0  0  0  0  0  0  0  0
   -1.6500   -3.1375    0.0000 C   0  0  0  0  0  0  0  0  0  0  0  0
   -2.8750   -3.1417    0.0000 C   0  0  0  0  0  0  0  0  0  0  0  0
    3.8667   -2.0792    0.0000 N   0  0  0  0  0  0  0  0  0  0  0  0
    0.8042   -3.1417    0.0000 N   0  0  0  0  0  0  0  0  0  0  0  0
    0.1917   -3.4917    0.0000 C   0  0  0  0  0  0  0  0  0  0  0  0
    0.8042   -2.4292    0.0000 C   0  0  0  0  0  0  0  0  0  0  0  0
    2.6417   -2.0792    0.0000 C   0  0  0  0  0  0  0  0  0  0  0  0
   -1.0375   -3.4917    0.0000 C   0  0  0  0  0  0  0  0  0  0  0  0
    0.1917   -2.0792    0.0000 C   0  0  0  0  0  0  0  0  0  0  0  0
   -0.4250   -3.1417    0.0000 C   0  0  0  0  0  0  0  0  0  0  0  0
    2.0292   -2.4292    0.0000 C   0  0  0  0  0  0  0  0  0  0  0  0
    1.4167   -2.0792    0.0000 C   0  0  0  0  0  0  0  0  0  0  0  0
   -2.8750   -2.4292    0.0000 C   0  0  0  0  0  0  0  0  0  0  0  0
    3.8667   -1.3667    0.0000 C   0  0  0  0  0  0  0  0  0  0  0  0
    3.2542   -1.0167    0.0000 S   0  0  0  0  0  0  0  0  0  0  0  0
    2.6375   -1.3667    0.0000 C   0  0  0  0  0  0  0  0  0  0  0  0
   -2.2625   -4.2042    0.0000 O   0  0  0  0  0  0  0  0  0  0  0  0
    0.1917   -4.2042    0.0000 O   0  0  0  0  0  0  0  0  0  0  0  0
   -2.2708   -2.0750    0.0000 C   0  0  0  0  0  0  0  0  0  0  0  0
   -1.0375   -1.3667    0.0000 C   0  0  0  0  0  0  0  0  0  0  0  0
   -3.4958   -2.0792    0.0000 O   0  0  0  0  0  0  0  0  0  0  0  0
   -1.0375   -4.2042    0.0000 O   0  0  0  0  0  0  0  0  0  0  0  0
   -0.6083   -0.3250    0.0000 C   0  0  0  0  0  0  0  0  0  0  0  0
   -2.2708   -2.7875    0.0000 C   0  0  0  0  0  0  0  0  0  0  0  0
   -1.0375   -2.7792    0.0000 C   0  0  0  0  0  0  0  0  0  0  0  0
   -3.4958   -3.4917    0.0000 C   0  0  0  0  0  0  0  0  0  0  0  0
    1.4167   -1.3667    0.0000 C   0  0  0  0  0  0  0  0  0  0  0  0
    4.4792   -1.0167    0.0000 C   0  0  0  0  0  0  0  0  0  0  0  0
   -1.6500   -1.0167    0.0000 C   0  0  0  0  0  0  0  0  0  0  0  0
   -2.2625   -1.3667    0.0000 C   0  0  0  0  0  0  0  0  0  0  0  0
   -1.6500   -2.4292    0.0000 C   0  0  0  0  0  0  0  0  0  0  0  0
    0.8750   -1.1792    0.0000 H   0  0  0  0  0  0  0  0  0  0  0  0
  2  1  1  0
  3  1  1  0
  4  6  1  0
  5 12  1  0
  6 17  1  0
  7 11  1  0
  8 10  1  0
  9  8  1  0
 10 13  1  0
 11 15  1  0
 12 14  1  0
 13  3  1  0
 14  9  1  0
 15 16  2  0
 10 16  1  1
 17 23  1  0
 18  7  2  0
 19 20  1  0
 20 11  2  0
 21  4  2  0
 22  9  2  0
 23 34  1  0
 24  2  1  0
 17 25  1  1
 12 26  1  6
  2 27  1  6
 28  5  1  0
 29  5  1  0
  6 30  1  6
 31 16  1  0
 32 18  1  0
 33 24  1  0
 34 33  1  0
 23 35  1  6
  3 36  1  6
  2  3  1  0
 19 18  1  0
  5  4  1  0
M  END
> <chembl_id>
CHEMBL1201752

> <chembl_pref_name>
IXABEPILONE
