
     RDKit          2D

 22 23  0  0  0  0  0  0  0  0999 V2000
   -0.7583    0.3458    0.0000 C   0  0  0  0  0  0  0  0  0  0  0  0
   -0.7708   -0.6792    0.0000 C   0  0  0  0  0  0  0  0  0  0  0  0
   -1.6583    0.8750    0.0000 C   0  0  0  0  0  0  0  0  0  0  0  0
   -1.6833   -1.1875    0.0000 C   0  0  0  0  0  0  0  0  0  0  0  0
   -2.5708    0.3750    0.0000 C   0  0  0  0  0  0  0  0  0  0  0  0
    0.1292    0.8333    0.0000 C   0  0  0  0  0  0  0  0  0  0  0  0
    2.6917   -0.7875    0.0000 N   0  0  0  0  0  0  0  0  0  0  0  0
   -2.5708   -0.6542    0.0000 C   0  0  0  0  0  0  0  0  0  0  0  0
    0.1292    1.8375    0.0000 O   0  0  0  0  0  0  0  0  0  0  0  0
   -1.6583    1.7333    0.0000 O   0  0  0  0  0  0  0  0  0  0  0  0
    0.1167   -1.2042    0.0000 O   0  0  0  0  0  0  0  0  0  0  0  0
   -3.4833   -1.1667    0.0000 O   0  0  0  0  0  0  0  0  0  0  0  0
    1.8167   -1.2917    0.0000 C   0  0  0  0  0  0  0  0  0  0  0  0
    0.9250   -0.7000    0.0000 C   0  0  0  0  0  0  0  0  0  0  0  0
    3.6417   -1.2375    0.0000 C   0  0  0  0  0  0  0  0  0  0  0  0
    2.8292    0.2000    0.0000 C   0  0  0  0  0  0  0  0  0  0  0  0
    0.9667    0.3000    0.0000 C   0  0  0  0  0  0  0  0  0  0  0  0
    0.1000   -2.2292    0.0000 C   0  0  0  0  0  0  0  0  0  0  0  0
   -0.7708    2.2333    0.0000 C   0  0  0  0  0  0  0  0  0  0  0  0
   -4.3458   -0.6417    0.0000 C   0  0  0  0  0  0  0  0  0  0  0  0
    4.3417   -0.4792    0.0000 C   0  0  0  0  0  0  0  0  0  0  0  0
    3.8042    0.4375    0.0000 C   0  0  0  0  0  0  0  0  0  0  0  0
  2  1  1  0
  3  1  2  0
  4  2  2  0
  5  3  1  0
  6  1  1  0
  7 13  1  0
  8  5  2  0
  9  6  2  0
 10  3  1  0
 11  2  1  0
 12  8  1  0
 13 14  1  0
 14 17  1  0
 15  7  1  0
 16  7  1  0
 17  6  1  0
 18 11  1  0
 19 10  1  0
 20 12  1  0
 21 15  1  0
 22 16  1  0
  4  8  1  0
 21 22  1  0
M  END
> <chembl_id>
CHEMBL188921

> <chembl_pref_name>
BUFLOMEDIL
