
     RDKit          2D

  7  6  0  0  0  0  0  0  0  0999 V2000
    6.4625   -4.7250    0.0000 S   0  0  0  0  0  0  0  0  0  0  0  0
    6.0500   -5.4375    0.0000 C   0  0  0  0  0  0  0  0  0  0  0  0
    7.1750   -5.1375    0.0000 O   0  0  0  0  0  0  0  0  0  0  0  0
    6.8750   -4.0125    0.0000 O   0  0  0  0  0  0  0  0  0  0  0  0
    5.7458   -4.3125    0.0000 O   0  0  0  0  0  0  0  0  0  0  0  0
    4.8125   -6.1542    0.0000 S   0  0  0  0  0  0  0  0  0  0  0  0
    5.2250   -5.4375    0.0000 C   0  0  0  0  0  0  0  0  0  0  0  0
  2  1  1  0
  3  1  2  0
  4  1  2  0
  5  1  1  0
  6  7  1  0
  7  2  1  0
M  END
> <chembl_id>
CHEMBL1098319

> <chembl_pref_name>
2-MERCAPTOETHANESULFONIC ACID
