
     RDKit          2D

 46 49  0  0  0  0  0  0  0  0999 V2000
   -0.4125   -6.2759    0.0000 C   0  0  0  0  0  0  0  0  0  0  0  0
    0.3020   -5.8634    0.0000 C   0  0  0  0  0  0  0  0  0  0  0  0
    1.0164   -6.2759    0.0000 C   0  0  0  0  0  0  0  0  0  0  0  0
    1.7309   -5.8634    0.0000 C   0  0  0  0  0  0  0  0  0  0  0  0
    2.4454   -6.2759    0.0000 O   0  0  0  0  0  0  0  0  0  0  0  0
    1.7309   -5.0384    0.0000 O   0  0  0  0  0  0  0  0  0  0  0  0
   -1.1270   -5.8634    0.0000 O   0  0  0  0  0  0  0  0  0  0  0  0
   -0.4125   -7.1009    0.0000 O   0  0  0  0  0  0  0  0  0  0  0  0
    1.4289   -6.9904    0.0000 O   0  0  0  0  0  0  0  0  0  0  0  0
   -6.2919   -5.5167    0.0000 C   0  0  0  0  0  0  0  0  0  0  0  0
   -7.0064   -5.9292    0.0000 C   0  0  0  0  0  0  0  0  0  0  0  0
   -7.7209   -5.5167    0.0000 C   0  0  0  0  0  0  0  0  0  0  0  0
   -7.7209   -4.6917    0.0000 C   0  0  0  0  0  0  0  0  0  0  0  0
   -7.0064   -4.2792    0.0000 C   0  0  0  0  0  0  0  0  0  0  0  0
   -6.2919   -4.6917    0.0000 C   0  0  0  0  0  0  0  0  0  0  0  0
   -5.5775   -4.2792    0.0000 C   0  0  0  0  0  0  0  0  0  0  0  0
   -4.8630   -4.6917    0.0000 C   0  0  0  0  0  0  0  0  0  0  0  0
   -4.8630   -5.5167    0.0000 C   0  0  0  0  0  0  0  0  0  0  0  0
   -5.5775   -5.9292    0.0000 N   0  0  0  0  0  0  0  0  0  0  0  0
   -8.4353   -5.9292    0.0000 O   0  0  0  0  0  0  0  0  0  0  0  0
   -8.4353   -4.2792    0.0000 O   0  0  0  0  0  0  0  0  0  0  0  0
   -5.5775   -3.4542    0.0000 O   0  0  0  0  0  0  0  0  0  0  0  0
   -4.8630   -3.0417    0.0000 C   0  0  0  0  0  0  0  0  0  0  0  0
   -4.1485   -3.4542    0.0000 C   0  0  0  0  0  0  0  0  0  0  0  0
   -4.8630   -2.2167    0.0000 C   0  0  0  0  0  0  0  0  0  0  0  0
   -4.1485   -1.8042    0.0000 C   0  0  0  0  0  0  0  0  0  0  0  0
   -3.4340   -2.2167    0.0000 C   0  0  0  0  0  0  0  0  0  0  0  0
   -3.4340   -3.0417    0.0000 C   0  0  0  0  0  0  0  0  0  0  0  0
   -2.7196   -1.8042    0.0000 N   0  0  0  0  0  0  0  0  0  0  0  0
   -2.0051   -2.2167    0.0000 C   0  0  0  0  0  0  0  0  0  0  0  0
   -2.0051   -3.0417    0.0000 O   0  0  0  0  0  0  0  0  0  0  0  0
   -1.2906   -1.8042    0.0000 C   0  0  0  0  0  0  0  0  0  0  0  0
   -0.4782   -1.6609    0.0000 C   0  0  0  0  0  0  0  0  0  0  0  0
   -0.7603   -2.4362    0.0000 C   0  0  0  0  0  0  0  0  0  0  0  0
   -1.5728   -1.0290    0.0000 C   0  0  0  0  0  0  0  0  0  0  0  0
   -1.0425   -0.3970    0.0000 N   0  0  0  0  0  0  0  0  0  0  0  0
   -2.3853   -0.8857    0.0000 O   0  0  0  0  0  0  0  0  0  0  0  0
   -1.3247    0.3783    0.0000 C   0  0  0  0  0  0  0  0  0  0  0  0
   -1.0765    1.7855    0.0000 C   0  0  0  0  0  0  0  0  0  0  0  0
   -0.7944    1.0103    0.0000 C   0  0  0  0  0  0  0  0  0  0  0  0
   -2.1371    0.5215    0.0000 C   0  0  0  0  0  0  0  0  0  0  0  0
   -2.4193    1.2968    0.0000 C   0  0  0  0  0  0  0  0  0  0  0  0
   -1.8890    1.9288    0.0000 C   0  0  0  0  0  0  0  0  0  0  0  0
   -2.1712    2.7040    0.0000 F   0  0  0  0  0  0  0  0  0  0  0  0
   -8.4353   -6.7542    0.0000 C   0  0  0  0  0  0  0  0  0  0  0  0
   -8.4353   -3.4542    0.0000 C   0  0  0  0  0  0  0  0  0  0  0  0
  1  2  1  0
  2  3  1  0
  3  4  1  0
  4  5  1  0
  4  6  2  0
  1  7  1  0
  1  8  2  0
  3  9  1  1
 10 11  1  0
 10 15  2  0
 10 19  1  0
 11 12  2  0
 12 13  1  0
 13 14  2  0
 14 15  1  0
 15 16  1  0
 16 17  2  0
 17 18  1  0
 18 19  2  0
 12 20  1  0
 13 21  1  0
 16 22  1  0
 22 23  1  0
 24 23  2  0
 23 25  1  0
 24 28  1  0
 25 26  2  0
 26 27  1  0
 27 28  2  0
 27 29  1  0
 29 30  1  0
 30 31  2  0
 30 32  1  0
 32 33  1  0
 33 34  1  0
 34 32  1  0
 32 35  1  0
 35 36  1  0
 35 37  2  0
 36 38  1  0
 40 38  2  0
 38 41  1  0
 39 40  1  0
 39 43  2  0
 41 42  2  0
 42 43  1  0
 43 44  1  0
 20 45  1  0
 21 46  1  0
M  END
> <chembl_id>
CHEMBL2103868

> <chembl_pref_name>
CABOZANTINIB S-MALATE
