
     RDKit          2D

 27 29  0  0  0  0  0  0  0  0999 V2000
    7.0542   -5.6875    0.0000 Cl  0  0  0  0  0  0  0  0  0  0  0  0
    6.2292   -4.1875    0.0000 C   0  0  0  0  0  0  0  0  0  0  0  0
    4.9875   -4.1875    0.0000 C   0  0  0  0  0  0  0  0  0  0  0  0
    5.6000   -5.2417    0.0000 N   0  0  0  0  0  0  0  0  0  0  0  0
    5.6000   -3.8250    0.0000 C   0  0  0  0  0  0  0  0  0  0  0  0
    4.9875   -4.9000    0.0000 C   0  0  0  0  0  0  0  0  0  0  0  0
    6.2292   -4.9000    0.0000 C   0  0  0  0  0  0  0  0  0  0  0  0
    4.3792   -3.8250    0.0000 C   0  0  0  0  0  0  0  0  0  0  0  0
    3.7417   -4.9042    0.0000 C   0  0  0  0  0  0  0  0  0  0  0  0
    3.1250   -5.2750    0.0000 N   0  0  0  0  0  0  0  0  0  0  0  0
    4.3792   -5.2417    0.0000 C   0  0  0  0  0  0  0  0  0  0  0  0
    3.7417   -4.1875    0.0000 C   0  0  0  0  0  0  0  0  0  0  0  0
    5.6000   -5.9542    0.0000 C   0  0  0  0  0  0  0  0  0  0  0  0
    6.8375   -3.8250    0.0000 C   0  0  0  0  0  0  0  0  0  0  0  0
    5.2042   -6.5667    0.0000 C   0  0  0  0  0  0  0  0  0  0  0  0
    5.9417   -6.5667    0.0000 C   0  0  0  0  0  0  0  0  0  0  0  0
    5.6000   -3.1250    0.0000 O   0  0  0  0  0  0  0  0  0  0  0  0
    2.5167   -4.9042    0.0000 C   0  0  0  0  0  0  0  0  0  0  0  0
    1.9042   -5.9667    0.0000 N   0  0  0  0  0  0  0  0  0  0  0  0
    6.8375   -3.1292    0.0000 O   0  0  0  0  0  0  0  0  0  0  0  0
    3.1542   -3.8250    0.0000 F   0  0  0  0  0  0  0  0  0  0  0  0
    1.9042   -5.3042    0.0000 C   0  0  0  0  0  0  0  0  0  0  0  0
    7.4542   -4.1875    0.0000 O   0  0  0  0  0  0  0  0  0  0  0  0
    3.1250   -5.9667    0.0000 C   0  0  0  0  0  0  0  0  0  0  0  0
    2.5167   -6.3375    0.0000 C   0  0  0  0  0  0  0  0  0  0  0  0
    4.3792   -3.1292    0.0000 C   0  0  0  0  0  0  0  0  0  0  0  0
    1.2792   -5.0042    0.0000 C   0  0  0  0  0  0  0  0  0  0  0  0
  3  5  1  0
  4  7  1  0
  5  2  1  0
  6  4  1  0
  7  2  2  0
  8  3  1  0
  9 11  2  0
 10  9  1  0
 11  6  1  0
 12  8  2  0
 13  4  1  0
 14  2  1  0
 15 13  1  0
 16 13  1  0
 17  5  2  0
 18 10  1  0
 19 25  1  0
 20 14  2  0
 21 12  1  0
 22 18  1  0
 23 14  1  0
 24 10  1  0
 25 24  1  0
 26  8  1  0
 27 22  1  0
  6  3  2  0
 16 15  1  0
  9 12  1  0
 19 22  1  0
M  END
> <chembl_id>
CHEMBL1200393

> <chembl_pref_name>
GREPAFLOXACIN HYDROCHLORIDE
