
     RDKit          2D

 27 30  0  0  0  0  0  0  0  0999 V2000
    0.8667    2.0208    0.0000 N   0  0  0  0  0  0  0  0  0  0  0  0
    0.0750    2.5333    0.0000 C   0  0  0  0  0  0  0  0  0  0  0  0
    2.5042    0.9958    0.0000 N   0  0  0  0  0  0  0  0  0  0  0  0
    2.5042   -1.9292    0.0000 C   0  0  0  0  0  0  0  0  0  0  0  0
    3.2875   -2.3917    0.0000 C   0  0  0  0  0  0  0  0  0  0  0  0
    1.7125   -2.4667    0.0000 O   0  0  0  0  0  0  0  0  0  0  0  0
    3.0917   -3.3542    0.0000 O   0  0  0  0  0  0  0  0  0  0  0  0
    2.1292   -3.3542    0.0000 C   0  0  0  0  0  0  0  0  0  0  0  0
    2.5042   -0.8917    0.0000 C   0  0  0  0  0  0  0  0  0  0  0  0
    0.8792    1.0708    0.0000 C   0  0  0  0  0  0  0  0  0  0  0  0
    1.7375    2.4708    0.0000 C   0  0  0  0  0  0  0  0  0  0  0  0
   -0.7625    2.0625    0.0000 C   0  0  0  0  0  0  0  0  0  0  0  0
    0.0750    3.4458    0.0000 O   0  0  0  0  0  0  0  0  0  0  0  0
    3.3292   -0.4542    0.0000 C   0  0  0  0  0  0  0  0  0  0  0  0
    3.3292    0.5208    0.0000 C   0  0  0  0  0  0  0  0  0  0  0  0
    4.1750   -1.9292    0.0000 C   0  0  0  0  0  0  0  0  0  0  0  0
   -0.7625    1.0833    0.0000 O   0  0  0  0  0  0  0  0  0  0  0  0
    2.5042    1.9708    0.0000 C   0  0  0  0  0  0  0  0  0  0  0  0
    1.6792    0.5625    0.0000 C   0  0  0  0  0  0  0  0  0  0  0  0
   -1.5750    0.5625    0.0000 C   0  0  0  0  0  0  0  0  0  0  0  0
    4.1542   -0.9792    0.0000 C   0  0  0  0  0  0  0  0  0  0  0  0
   -3.2125   -0.4875    0.0000 C   0  0  0  0  0  0  0  0  0  0  0  0
   -3.9958   -1.0125    0.0000 Cl  0  0  0  0  0  0  0  0  0  0  0  0
   -1.5750   -0.3667    0.0000 C   0  0  0  0  0  0  0  0  0  0  0  0
   -2.4833    0.9375    0.0000 C   0  0  0  0  0  0  0  0  0  0  0  0
   -2.3875   -0.9042    0.0000 C   0  0  0  0  0  0  0  0  0  0  0  0
   -3.2250    0.4458    0.0000 C   0  0  0  0  0  0  0  0  0  0  0  0
  2  1  1  0
  3 18  1  0
  4  9  2  0
  5 16  2  0
  6  4  1  0
  7  5  1  0
  8  6  1  0
  9 14  1  0
 10  1  1  0
 11  1  1  0
 12  2  1  0
 13  2  2  0
 14 15  1  0
 15  3  1  0
 16 21  1  0
 17 12  1  0
 18 11  1  0
 19 10  1  0
 20 17  1  0
 21 14  2  0
 22 27  1  0
 23 22  1  0
 24 20  2  0
 25 20  1  0
 26 24  1  0
 27 25  2  0
  3 19  1  0
 26 22  2  0
  5  4  1  0
  7  8  1  0
M  END
> <chembl_id>
CHEMBL254857

> <chembl_pref_name>
FIPEXIDE
