
     RDKit          2D

 43 48  0  0  0  0  0  0  0  0999 V2000
    8.4015   -0.8568    0.0000 O   0  0  0  0  0  0  0  0  0  0  0  0
    8.9273   -1.4926    0.0000 C   0  0  0  0  0  0  0  0  0  0  0  0
    9.7506   -1.4410    0.0000 N   0  0  0  0  0  0  0  0  0  0  0  0
    1.3733   -0.7631    0.0000 C   0  0  0  0  0  0  0  0  0  0  0  0
    1.8858   -0.1167    0.0000 C   0  0  0  0  0  0  0  0  0  0  0  0
    1.6768   -1.5303    0.0000 C   0  0  0  0  0  0  0  0  0  0  0  0
    2.7964   -2.4181    0.0000 C   0  0  0  0  0  0  0  0  0  0  0  0
    2.2839   -3.0645    0.0000 C   0  0  0  0  0  0  0  0  0  0  0  0
    1.4677   -2.9438    0.0000 C   0  0  0  0  0  0  0  0  0  0  0  0
    1.7362   -2.4475    0.0000 H   0  0  0  0  0  0  0  0  0  0  0  0
    2.5874   -3.8317    0.0000 N   0  0  0  0  0  0  0  0  0  0  0  0
    3.6126   -2.5388    0.0000 C   0  0  0  0  0  0  0  0  0  0  0  0
    3.9161   -3.3059    0.0000 C   0  0  0  0  0  0  0  0  0  0  0  0
    3.4035   -3.9524    0.0000 C   0  0  0  0  0  0  0  0  0  0  0  0
    3.7070   -4.7195    0.0000 O   0  0  0  0  0  0  0  0  0  0  0  0
    2.4929   -1.6510    0.0000 C   0  0  0  0  0  0  0  0  0  0  0  0
    3.0055   -1.0045    0.0000 C   0  0  0  0  0  0  0  0  0  0  0  0
    2.7020   -0.2374    0.0000 C   0  0  0  0  0  0  0  0  0  0  0  0
    6.0609   -2.9009    0.0000 C   0  0  0  0  0  0  0  0  0  0  0  0
    6.3645   -3.6680    0.0000 C   0  0  0  0  0  0  0  0  0  0  0  0
    5.2448   -2.7802    0.0000 C   0  0  0  0  0  0  0  0  0  0  0  0
    4.9413   -2.0131    0.0000 O   0  0  0  0  0  0  0  0  0  0  0  0
    7.3896   -2.3752    0.0000 C   0  0  0  0  0  0  0  0  0  0  0  0
    6.5735   -2.2545    0.0000 C   0  0  0  0  0  0  0  0  0  0  0  0
    8.0254   -1.8494    0.0000 C   0  0  0  0  0  0  0  0  0  0  0  0
    8.7219   -2.2916    0.0000 C   0  0  0  0  0  0  0  0  0  0  0  0
    9.4184   -2.7338    0.0000 C   0  0  0  0  0  0  0  0  0  0  0  0
    9.5558   -3.5473    0.0000 C   0  0  0  0  0  0  0  0  0  0  0  0
   10.3290   -3.8351    0.0000 C   0  0  0  0  0  0  0  0  0  0  0  0
   10.9648   -3.3093    0.0000 C   0  0  0  0  0  0  0  0  0  0  0  0
   10.8274   -2.4959    0.0000 N   0  0  0  0  0  0  0  0  0  0  0  0
   10.0542   -2.2081    0.0000 C   0  0  0  0  0  0  0  0  0  0  0  0
    8.5166   -3.0907    0.0000 C   0  0  0  0  0  0  0  0  0  0  0  0
    7.6932   -3.1423    0.0000 C   0  0  0  0  0  0  0  0  0  0  0  0
    7.1806   -3.7887    0.0000 N   0  0  0  0  0  0  0  0  0  0  0  0
    2.0748   -4.4781    0.0000 C   0  0  0  0  0  0  0  0  0  0  0  0
    0.4425   -4.2367    0.0000 F   0  0  0  0  0  0  0  0  0  0  0  0
    1.1380   -5.1735    0.0000 F   0  0  0  0  0  0  0  0  0  0  0  0
    1.3794   -3.5413    0.0000 F   0  0  0  0  0  0  0  0  0  0  0  0
    1.2587   -4.3574    0.0000 C   0  0  0  0  0  0  0  0  0  0  0  0
    4.4287   -2.6595    0.0000 H   0  0  0  0  0  0  0  0  0  0  0  0
    2.0708   -2.0255    0.0000 H   0  0  0  0  0  0  0  0  0  0  0  0
    4.7322   -3.4266    0.0000 N   0  0  0  0  0  0  0  0  0  0  0  0
  1  2  2  0
  2  3  1  0
  4  5  1  0
  4  6  2  0
  5 18  2  0
  6 16  1  0
  7 16  1  6
  8  9  1  6
  8 10  1  1
  8  7  1  0
 11  8  1  0
 11 14  1  0
 11 36  1  0
 12 13  1  0
 12  7  1  0
 13 14  1  0
 13 41  1  1
 14 15  2  0
 16 17  2  0
 17 18  1  0
 19 20  1  0
 19 24  2  0
 20 35  2  0
 21 19  1  0
 21 22  2  0
 23 24  1  0
 23 25  1  0
 26 25  1  0
 27 32  2  0
 28 29  2  0
 28 27  1  0
 29 30  1  0
 30 31  2  0
 32 31  1  0
 32  3  1  0
 33 34  1  0
 33 26  1  0
 34 23  2  0
 35 34  1  0
 36 40  1  0
 40 39  1  0
 40 38  1  0
 40 37  1  0
  7 42  1  1
 13 43  1  6
 21 43  1  0
 26 27  1  1
 26  2  1  6
M  END
> <chembl_id>
CHEMBL2364638

> <chembl_pref_name>
UBROGEPANT
