
     RDKit          2D

 38 41  0  0  0  0  0  0  0  0999 V2000
    2.9179    0.8478    0.0000 C   0  0  0  0  0  0  0  0  0  0  0  0
    2.2035    0.4353    0.0000 C   0  0  0  0  0  0  0  0  0  0  0  0
    2.2035   -0.3897    0.0000 C   0  0  0  0  0  0  0  0  0  0  0  0
    2.9179   -0.8022    0.0000 C   0  0  0  0  0  0  0  0  0  0  0  0
    3.6324   -0.3897    0.0000 C   0  0  0  0  0  0  0  0  0  0  0  0
    3.6324    0.4353    0.0000 C   0  0  0  0  0  0  0  0  0  0  0  0
    0.7745    0.4353    0.0000 O   0  0  0  0  0  0  0  0  0  0  0  0
    0.7745   -0.3897    0.0000 C   0  0  0  0  0  0  0  0  0  0  0  0
    1.4890   -0.8022    0.0000 N   0  0  0  0  0  0  0  0  0  0  0  0
   -0.6544    0.4353    0.0000 N   0  0  0  0  0  0  0  0  0  0  0  0
   -0.6544   -0.3897    0.0000 C   0  0  0  0  0  0  0  0  0  0  0  0
    0.0601   -0.8022    0.0000 N   0  0  0  0  0  0  0  0  0  0  0  0
   -1.3689    0.8478    0.0000 C   0  0  0  0  0  0  0  0  0  0  0  0
   -2.0833    0.4353    0.0000 N   0  0  0  0  0  0  0  0  0  0  0  0
   -2.0833   -0.3897    0.0000 C   0  0  0  0  0  0  0  0  0  0  0  0
   -1.3689   -0.8022    0.0000 C   0  0  0  0  0  0  0  0  0  0  0  0
   -3.5123    0.4353    0.0000 C   0  0  0  0  0  0  0  0  0  0  0  0
   -3.5123   -0.3897    0.0000 C   0  0  0  0  0  0  0  0  0  0  0  0
   -2.7978   -0.8022    0.0000 N   0  0  0  0  0  0  0  0  0  0  0  0
   -4.2267    0.8478    0.0000 C   0  0  0  0  0  0  0  0  0  0  0  0
   -4.9412    0.4353    0.0000 C   0  0  0  0  0  0  0  0  0  0  0  0
   -4.9412   -0.3897    0.0000 C   0  0  0  0  0  0  0  0  0  0  0  0
   -4.2267   -0.8022    0.0000 C   0  0  0  0  0  0  0  0  0  0  0  0
   -6.3467    2.1235    0.0000 C   0  0  0  0  0  0  0  0  0  0  0  0
   -7.0611    1.7110    0.0000 N   0  0  0  0  0  0  0  0  0  0  0  0
   -7.0611    0.8860    0.0000 C   0  0  0  0  0  0  0  0  0  0  0  0
   -6.3467    0.4735    0.0000 C   0  0  0  0  0  0  0  0  0  0  0  0
   -5.6322    0.8860    0.0000 N   0  0  0  0  0  0  0  0  0  0  0  0
   -5.6322    1.7110    0.0000 C   0  0  0  0  0  0  0  0  0  0  0  0
   -7.7756    2.1235    0.0000 C   0  0  0  0  0  0  0  0  0  0  0  0
   -8.5107    1.7490    0.0000 C   0  0  0  0  0  0  0  0  0  0  0  0
    0.0601   -1.6272    0.0000 C   0  0  0  0  0  0  0  0  0  0  0  0
    1.4890    0.8478    0.0000 Cl  0  0  0  0  0  0  0  0  0  0  0  0
    2.8748    1.6717    0.0000 O   0  0  0  0  0  0  0  0  0  0  0  0
    3.5667    2.1210    0.0000 C   0  0  0  0  0  0  0  0  0  0  0  0
    4.2998   -0.8746    0.0000 O   0  0  0  0  0  0  0  0  0  0  0  0
    5.0535   -0.5391    0.0000 C   0  0  0  0  0  0  0  0  0  0  0  0
    2.9179   -1.6272    0.0000 Cl  0  0  0  0  0  0  0  0  0  0  0  0
  1  2  1  0
  2  3  2  0
  3  4  1  0
  4  5  2  0
  5  6  1  0
  1  6  2  0
  7  8  2  0
  8  9  1  0
  9  3  1  0
 10 11  2  0
 11 12  1  0
 12  8  1  0
 13 14  2  0
 14 15  1  0
 15 16  2  0
 13 10  1  0
 16 11  1  0
 17 18  1  0
 18 19  1  0
 19 15  1  0
 20 21  1  0
 21 22  2  0
 22 23  1  0
 20 17  2  0
 23 18  2  0
 24 25  1  0
 25 26  1  0
 26 27  1  0
 27 28  1  0
 28 29  1  0
 24 29  1  0
 25 30  1  0
 30 31  1  0
 28 21  1  0
 12 32  1  0
  2 33  1  0
  1 34  1  0
 34 35  1  0
  5 36  1  0
 36 37  1  0
  4 38  1  0
M  END
> <chembl_id>
CHEMBL1852688

> <chembl_pref_name>
INFIGRATINIB
