
     RDKit          2D

 26 26  0  0  0  0  0  0  0  0999 V2000
    5.4611    1.1584    0.0000 C   0  0  0  0  0  0  0  0  0  0  0  0
    5.4599    0.3310    0.0000 C   0  0  0  0  0  0  0  0  0  0  0  0
    6.1747   -0.0819    0.0000 N   0  0  0  0  0  0  0  0  0  0  0  0
    6.8912    0.3315    0.0000 C   0  0  0  0  0  0  0  0  0  0  0  0
    6.8883    1.1620    0.0000 C   0  0  0  0  0  0  0  0  0  0  0  0
    6.1729    1.5711    0.0000 C   0  0  0  0  0  0  0  0  0  0  0  0
    5.7625   -0.7917    0.0000 C   0  0  0  0  0  0  0  0  0  0  0  0
    6.1750   -1.5042    0.0000 C   0  0  0  0  0  0  0  0  0  0  0  0
    5.7667   -2.2167    0.0000 N   0  0  0  0  0  0  0  0  0  0  0  0
    6.1792   -2.9292    0.0000 C   0  0  0  0  0  0  0  0  0  0  0  0
    5.7708   -3.6417    0.0000 C   0  0  0  0  0  0  0  0  0  0  0  0
    6.1833   -4.3542    0.0000 O   0  0  0  0  0  0  0  0  0  0  0  0
    5.7750   -5.0667    0.0000 C   0  0  0  0  0  0  0  0  0  0  0  0
    6.1875   -5.7792    0.0000 C   0  0  0  0  0  0  0  0  0  0  0  0
    5.7792   -6.4917    0.0000 C   0  0  0  0  0  0  0  0  0  0  0  0
    6.1917   -7.2042    0.0000 C   0  0  0  0  0  0  0  0  0  0  0  0
    5.7833   -7.9167    0.0000 C   0  0  0  0  0  0  0  0  0  0  0  0
    6.1958   -8.6292    0.0000 C   0  0  0  0  0  0  0  0  0  0  0  0
    5.7875   -9.3417    0.0000 C   0  0  0  0  0  0  0  0  0  0  0  0
    6.2000  -10.0542    0.0000 C   0  0  0  0  0  0  0  0  0  0  0  0
    5.7917  -10.7667    0.0000 C   0  0  0  0  0  0  0  0  0  0  0  0
    6.2042  -11.4792    0.0000 C   0  0  0  0  0  0  0  0  0  0  0  0
    5.7958  -12.1917    0.0000 C   0  0  0  0  0  0  0  0  0  0  0  0
    6.2083  -12.9042    0.0000 C   0  0  0  0  0  0  0  0  0  0  0  0
    7.0000   -1.5024    0.0000 O   0  0  0  0  0  0  0  0  0  0  0  0
    4.9500   -5.0685    0.0000 O   0  0  0  0  0  0  0  0  0  0  0  0
 12 13  1  0
  6  1  1  0
 13 14  1  0
  2  3  1  0
 14 15  1  0
  3  7  1  0
 15 16  1  0
 16 17  1  0
  7  8  1  0
 17 18  1  0
  3  4  2  0
 18 19  1  0
  8  9  1  0
 19 20  1  0
  1  2  2  0
 20 21  1  0
  9 10  1  0
 21 22  1  0
  4  5  1  0
 22 23  1  0
 10 11  1  0
 23 24  1  0
  8 25  2  0
 11 12  1  0
 13 26  2  0
  5  6  2  0
M  CHG  1   3   1
M  END
> <chembl_id>
CHEMBL1201786

> <chembl_pref_name>
LAPYRIUM
