
     RDKit          2D

 30 30  0  0  0  0  0  0  0  0999 V2000
    2.4833  -15.6750    0.0000 P   0  0  0  0  0  0  0  0  0  0  0  0
    2.1250  -15.0542    0.0000 O   0  0  0  0  0  0  0  0  0  0  0  0
    3.0958  -16.0292    0.0000 O   0  0  0  0  0  0  0  0  0  0  0  0
    2.8292  -15.0542    0.0000 O   0  0  0  0  0  0  0  0  0  0  0  0
    1.8667  -16.0292    0.0000 O   0  0  0  0  0  0  0  0  0  0  0  0
   -0.6583  -14.0625    0.0000 C   0  0  0  0  0  0  0  0  0  0  0  0
   -1.3708  -14.0625    0.0000 C   0  0  0  0  0  0  0  0  0  0  0  0
    0.0542  -14.0625    0.0000 C   0  0  0  0  0  0  0  0  0  0  0  0
    1.1167  -13.4500    0.0000 N   0  0  0  0  0  0  0  0  0  0  0  0
    0.4042  -13.4500    0.0000 C   0  0  0  0  0  0  0  0  0  0  0  0
   -0.6583  -14.7750    0.0000 C   0  0  0  0  0  0  0  0  0  0  0  0
   -0.6583  -13.3500    0.0000 C   0  0  0  0  0  0  0  0  0  0  0  0
   -1.2833  -15.1292    0.0000 N   0  0  0  0  0  0  0  0  0  0  0  0
   -1.7208  -14.6750    0.0000 O   0  0  0  0  0  0  0  0  0  0  0  0
   -1.7333  -13.4375    0.0000 N   0  0  0  0  0  0  0  0  0  0  0  0
    1.4667  -14.0667    0.0000 C   0  0  0  0  0  0  0  0  0  0  0  0
    1.4667  -12.8333    0.0000 C   0  0  0  0  0  0  0  0  0  0  0  0
   -1.2833  -15.8417    0.0000 C   0  0  0  0  0  0  0  0  0  0  0  0
   -0.0458  -15.1250    0.0000 C   0  0  0  0  0  0  0  0  0  0  0  0
   -1.2833  -12.9917    0.0000 C   0  0  0  0  0  0  0  0  0  0  0  0
   -0.0458  -13.0000    0.0000 C   0  0  0  0  0  0  0  0  0  0  0  0
    1.1292  -14.6875    0.0000 C   0  0  0  0  0  0  0  0  0  0  0  0
    2.1667  -12.8333    0.0000 C   0  0  0  0  0  0  0  0  0  0  0  0
    1.1042  -12.2083    0.0000 C   0  0  0  0  0  0  0  0  0  0  0  0
    2.1792  -14.0667    0.0000 C   0  0  0  0  0  0  0  0  0  0  0  0
   -0.6583  -16.1875    0.0000 C   0  0  0  0  0  0  0  0  0  0  0  0
   -1.2833  -12.2792    0.0000 C   0  0  0  0  0  0  0  0  0  0  0  0
   -0.0458  -12.2917    0.0000 C   0  0  0  0  0  0  0  0  0  0  0  0
   -0.0458  -15.8375    0.0000 C   0  0  0  0  0  0  0  0  0  0  0  0
   -0.6583  -11.9375    0.0000 C   0  0  0  0  0  0  0  0  0  0  0  0
  2  1  2  0
  3  1  1  0
  4  1  1  0
  5  1  1  0
  7  6  1  0
  8  6  1  0
  9 10  1  0
 10  8  1  0
 11  6  1  0
 12  6  1  0
 13 11  2  0
 14  7  2  0
 15  7  1  0
 16  9  1  0
 17  9  1  0
 18 13  1  0
 19 11  1  0
 20 12  1  0
 21 12  2  0
 22 16  1  0
 23 17  1  0
 24 17  1  0
 25 16  1  0
 26 29  1  0
 27 20  2  0
 28 21  1  0
 29 19  2  0
 30 27  1  0
 28 30  2  0
 18 26  2  0
M  END
> <chembl_id>
CHEMBL1201020

> <chembl_pref_name>
DISOPYRAMIDE PHOSPHATE
