
     RDKit          2D

 64 71  0  0  0  0  0  0  0  0999 V2000
   11.0749   -1.8103    0.0000 C   0  0  0  0  0  0  0  0  0  0  0  0
   11.0847   -0.9900    0.0000 C   0  0  0  0  0  0  0  0  0  0  0  0
    8.9346   -2.2130    0.0000 C   0  0  0  0  0  0  0  0  0  0  0  0
   10.3615   -2.2179    0.0000 C   0  0  0  0  0  0  0  0  0  0  0  0
    9.6481   -1.8005    0.0000 C   0  0  0  0  0  0  0  0  0  0  0  0
   12.1330    0.0388    0.0000 C   0  0  0  0  0  0  0  0  0  0  0  0
   11.8709   -0.7425    0.0000 C   0  0  0  0  0  0  0  0  0  0  0  0
   -1.2181   -5.7219    0.0000 C   0  0  0  0  0  0  0  0  0  0  0  0
    4.7318   -4.1689    0.0000 C   0  0  0  0  0  0  0  0  0  0  0  0
    1.5482   -4.5911    0.0000 C   0  0  0  0  0  0  0  0  0  0  0  0
    0.0146   -5.0085    0.0000 C   0  0  0  0  0  0  0  0  0  0  0  0
    3.1982   -4.5911    0.0000 C   0  0  0  0  0  0  0  0  0  0  0  0
    6.3820   -4.1689    0.0000 C   0  0  0  0  0  0  0  0  0  0  0  0
    2.7858   -3.8777    0.0000 O   0  0  0  0  0  0  0  0  0  0  0  0
   -0.3931   -4.2951    0.0000 O   0  0  0  0  0  0  0  0  0  0  0  0
    5.9743   -3.4555    0.0000 O   0  0  0  0  0  0  0  0  0  0  0  0
   -0.3931   -5.7219    0.0000 C   0  0  0  0  0  0  0  0  0  0  0  0
    2.7858   -5.2997    0.0000 C   0  0  0  0  0  0  0  0  0  0  0  0
    5.9743   -4.8823    0.0000 C   0  0  0  0  0  0  0  0  0  0  0  0
   -1.6356   -5.0085    0.0000 C   0  0  0  0  0  0  0  0  0  0  0  0
   12.9192    0.2863    0.0000 C   0  0  0  0  0  0  0  0  0  0  0  0
    8.9346   -3.0333    0.0000 C   0  0  0  0  0  0  0  0  0  0  0  0
    5.1444   -4.8823    0.0000 C   0  0  0  0  0  0  0  0  0  0  0  0
    1.9606   -5.2997    0.0000 C   0  0  0  0  0  0  0  0  0  0  0  0
    1.9606   -3.8777    0.0000 C   0  0  0  0  0  0  0  0  0  0  0  0
    5.1444   -3.4555    0.0000 C   0  0  0  0  0  0  0  0  0  0  0  0
   12.9240    1.1114    0.0000 C   0  0  0  0  0  0  0  0  0  0  0  0
   -1.2181   -4.2951    0.0000 C   0  0  0  0  0  0  0  0  0  0  0  0
   11.8563   -2.0771    0.0000 C   0  0  0  0  0  0  0  0  0  0  0  0
   10.3713   -0.5678    0.0000 C   0  0  0  0  0  0  0  0  0  0  0  0
    0.7280   -4.5911    0.0000 O   0  0  0  0  0  0  0  0  0  0  0  0
    3.9068   -4.1689    0.0000 O   0  0  0  0  0  0  0  0  0  0  0  0
    9.6530   -0.9755    0.0000 C   0  0  0  0  0  0  0  0  0  0  0  0
   -1.6307   -6.4353    0.0000 O   0  0  0  0  0  0  0  0  0  0  0  0
   12.1426    1.3735    0.0000 O   0  0  0  0  0  0  0  0  0  0  0  0
   12.3465   -1.4123    0.0000 C   0  0  0  0  0  0  0  0  0  0  0  0
    8.2212   -1.7957    0.0000 C   0  0  0  0  0  0  0  0  0  0  0  0
   10.3567   -3.0429    0.0000 C   0  0  0  0  0  0  0  0  0  0  0  0
   -2.4557   -6.4353    0.0000 C   0  0  0  0  0  0  0  0  0  0  0  0
   11.6525    0.7134    0.0000 C   0  0  0  0  0  0  0  0  0  0  0  0
    7.0954   -3.7467    0.0000 O   0  0  0  0  0  0  0  0  0  0  0  0
    8.2212   -3.4506    0.0000 C   0  0  0  0  0  0  0  0  0  0  0  0
    9.6433   -3.4506    0.0000 C   0  0  0  0  0  0  0  0  0  0  0  0
   13.5986    1.5919    0.0000 O   0  0  0  0  0  0  0  0  0  0  0  0
    7.5127   -3.0333    0.0000 C   0  0  0  0  0  0  0  0  0  0  0  0
   11.0701   -2.6353    0.0000 O   0  0  0  0  0  0  0  0  0  0  0  0
   -2.8682   -5.7219    0.0000 O   0  0  0  0  0  0  0  0  0  0  0  0
    7.5127   -2.2130    0.0000 C   0  0  0  0  0  0  0  0  0  0  0  0
   -2.4606   -5.0085    0.0000 O   0  0  0  0  0  0  0  0  0  0  0  0
   11.0798   -0.1650    0.0000 C   0  0  0  0  0  0  0  0  0  0  0  0
    1.5482   -6.0180    0.0000 O   0  0  0  0  0  0  0  0  0  0  0  0
    4.7367   -5.5957    0.0000 O   0  0  0  0  0  0  0  0  0  0  0  0
    8.9299   -1.3880    0.0000 C   0  0  0  0  0  0  0  0  0  0  0  0
    1.5482   -3.1594    0.0000 C   0  0  0  0  0  0  0  0  0  0  0  0
    4.7367   -2.7372    0.0000 C   0  0  0  0  0  0  0  0  0  0  0  0
   -1.6307   -3.5767    0.0000 C   0  0  0  0  0  0  0  0  0  0  0  0
   -2.8682   -7.1536    0.0000 C   0  0  0  0  0  0  0  0  0  0  0  0
   10.3567   -1.3880    0.0000 H   0  0  0  0  0  0  0  0  0  0  0  0
    7.0954   -4.5766    0.0000 H   0  0  0  0  0  0  0  0  0  0  0  0
    3.9068   -4.9988    0.0000 H   0  0  0  0  0  0  0  0  0  0  0  0
    8.9299   -3.8583    0.0000 H   0  0  0  0  0  0  0  0  0  0  0  0
    0.7280   -5.4210    0.0000 H   0  0  0  0  0  0  0  0  0  0  0  0
    6.6877   -3.0333    0.0000 H   0  0  0  0  0  0  0  0  0  0  0  0
    9.6481   -2.6255    0.0000 H   0  0  0  0  0  0  0  0  0  0  0  0
  2  1  1  0
  3  5  1  0
  4  1  1  0
  5  4  1  0
  7  6  1  1
  7  2  1  0
  8 17  1  0
  9 26  1  0
 10 25  1  0
 11 31  1  0
 12 32  1  0
 13 41  1  0
 14 12  1  0
 15 11  1  0
 16 13  1  0
 17 11  1  0
 18 12  1  0
 19 13  1  0
 20 28  1  0
 21  6  2  0
 22  3  1  0
 23 19  1  0
 24 18  1  0
 25 14  1  0
 26 16  1  0
 27 21  1  0
 28 15  1  0
 29  1  1  0
 30  2  1  0
 10 31  1  6
  9 32  1  6
 33 30  1  0
  8 34  1  6
 35 40  1  0
 36 29  1  0
 37  3  1  0
 38  4  1  0
 39 34  1  0
 40  6  1  0
 41 45  1  0
 42 22  1  0
 43 38  1  0
 44 27  2  0
 45 42  1  0
  1 46  1  1
 47 39  2  0
 48 37  1  0
 20 49  1  6
  2 50  1  1
 24 51  1  6
 23 52  1  6
  3 53  1  1
 25 54  1  1
 26 55  1  1
 28 56  1  1
 57 39  1  0
  4 58  1  1
 13 59  1  6
 12 60  1  6
 22 61  1  1
 11 62  1  6
 45 63  1  6
  7 36  1  0
 33  5  1  0
 43 22  1  0
 35 27  1  0
 45 48  1  0
  9 23  1  0
 10 24  1  0
 20  8  1  0
  5 64  1  6
M  END
> <chembl_id>
CHEMBL3545057

> <chembl_pref_name>
ACETYLDIGITOXIN
