
     RDKit          2D

 28 31  0  0  0  0  0  0  0  0999 V2000
   -0.2125    1.2333    0.0000 C   0  0  0  0  0  0  0  0  0  0  0  0
    0.3375    1.8458    0.0000 C   0  0  0  0  0  0  0  0  0  0  0  0
    0.2000    0.5125    0.0000 C   0  0  0  0  0  0  0  0  0  0  0  0
    1.0917    1.5083    0.0000 C   0  0  0  0  0  0  0  0  0  0  0  0
   -1.0458    1.2333    0.0000 C   0  0  0  0  0  0  0  0  0  0  0  0
    1.0042    0.6875    0.0000 C   0  0  0  0  0  0  0  0  0  0  0  0
   -0.2125   -0.2042    0.0000 C   0  0  0  0  0  0  0  0  0  0  0  0
   -1.4583    0.5125    0.0000 C   0  0  0  0  0  0  0  0  0  0  0  0
    3.9625    0.6833    0.0000 N   0  0  0  0  0  0  0  0  0  0  0  0
   -1.0458   -0.2042    0.0000 C   0  0  0  0  0  0  0  0  0  0  0  0
    1.8125    1.9250    0.0000 C   0  0  0  0  0  0  0  0  0  0  0  0
    0.1667    2.6583    0.0000 O   0  0  0  0  0  0  0  0  0  0  0  0
    4.6792    0.2708    0.0000 C   0  0  0  0  0  0  0  0  0  0  0  0
    3.9625    1.5083    0.0000 C   0  0  0  0  0  0  0  0  0  0  0  0
    3.2417    0.2708    0.0000 C   0  0  0  0  0  0  0  0  0  0  0  0
    2.5292    1.5083    0.0000 C   0  0  0  0  0  0  0  0  0  0  0  0
   -2.2833    0.5125    0.0000 O   0  0  0  0  0  0  0  0  0  0  0  0
   -1.4583   -0.9167    0.0000 O   0  0  0  0  0  0  0  0  0  0  0  0
    5.3917    0.6833    0.0000 C   0  0  0  0  0  0  0  0  0  0  0  0
    3.2417    1.9250    0.0000 C   0  0  0  0  0  0  0  0  0  0  0  0
    2.5292    0.6833    0.0000 C   0  0  0  0  0  0  0  0  0  0  0  0
   -2.6958   -0.2042    0.0000 C   0  0  0  0  0  0  0  0  0  0  0  0
   -2.2833   -0.9167    0.0000 C   0  0  0  0  0  0  0  0  0  0  0  0
    5.3917    1.5083    0.0000 C   0  0  0  0  0  0  0  0  0  0  0  0
    6.1125    0.2708    0.0000 C   0  0  0  0  0  0  0  0  0  0  0  0
    6.8292    0.6833    0.0000 C   0  0  0  0  0  0  0  0  0  0  0  0
    6.1125    1.9250    0.0000 C   0  0  0  0  0  0  0  0  0  0  0  0
    6.8292    1.5083    0.0000 C   0  0  0  0  0  0  0  0  0  0  0  0
  2  1  1  0
  3  1  2  0
  4  2  1  0
  5  1  1  0
  6  3  1  0
  7  3  1  0
  8  5  2  0
  9 14  1  0
 10  8  1  0
 11  4  1  0
 12  2  2  0
 13  9  1  0
 14 20  1  0
 15 21  1  0
 16 11  1  0
 17  8  1  0
 18 10  1  0
 19 13  1  0
 20 16  1  0
 21 16  1  0
 22 17  1  0
 23 18  1  0
 24 19  1  0
 25 19  2  0
 26 25  1  0
 27 24  2  0
 28 27  1  0
  6  4  1  0
 10  7  2  0
 15  9  1  0
 28 26  2  0
M  END
> <chembl_id>
CHEMBL502

> <chembl_pref_name>
DONEPEZIL
