
     RDKit          2D

 14 14  0  0  0  0  0  0  0  0999 V2000
   -0.7250   -3.0542    0.0000 N   0  0  0  0  0  0  0  0  0  0  0  0
   -1.3458   -2.6917    0.0000 C   0  0  0  0  0  0  0  0  0  0  0  0
   -0.1125   -2.7042    0.0000 C   0  0  0  0  0  0  0  0  0  0  0  0
   -1.3458   -1.9917    0.0000 N   0  0  0  0  0  0  0  0  0  0  0  0
   -0.1125   -1.9875    0.0000 C   0  0  0  0  0  0  0  0  0  0  0  0
   -0.7250   -1.6292    0.0000 C   0  0  0  0  0  0  0  0  0  0  0  0
   -1.9750   -3.0375    0.0000 O   0  0  0  0  0  0  0  0  0  0  0  0
    0.5167   -3.0750    0.0000 O   0  0  0  0  0  0  0  0  0  0  0  0
   -0.7250   -0.9250    0.0000 O   0  0  0  0  0  0  0  0  0  0  0  0
   -0.7250   -3.7667    0.0000 C   0  0  0  0  0  0  0  0  0  0  0  0
    0.2375   -1.3667    0.0000 C   0  0  0  0  0  0  0  0  0  0  0  0
    0.5917   -1.9875    0.0000 C   0  0  0  0  0  0  0  0  0  0  0  0
    0.9417   -1.3625    0.0000 C   0  0  0  0  0  0  0  0  0  0  0  0
    0.9500   -2.6000    0.0000 C   0  0  0  0  0  0  0  0  0  0  0  0
  2  1  1  0
  3  1  1  0
  4  2  1  0
  5  3  1  0
  6  5  1  0
  7  2  2  0
  8  3  2  0
  9  6  2  0
 10  1  1  0
 11  5  1  0
 12  5  1  0
 13 11  1  0
 14 12  1  0
  6  4  1  0
M  END
> <chembl_id>
CHEMBL450

> <chembl_pref_name>
METHARBITAL
