
     RDKit          2D

 60 59  0  0  0  0  0  0  0  0999 V2000
   -1.5850   -0.6182    0.0000 S   0  0  0  0  0  0  0  0  0  0  0  0
   -0.8729   -0.2016    0.0000 N   0  0  0  0  0  0  0  0  0  0  0  0
   -1.1781   -1.3303    0.0000 O   0  0  0  0  0  0  0  0  0  0  0  0
   -2.0015   -1.3303    0.0000 O   0  0  0  0  0  0  0  0  0  0  0  0
    1.3410   -1.4660    0.0000 C   0  0  0  0  0  0  0  0  0  0  0  0
    1.3410   -0.6231    0.0000 C   0  0  0  0  0  0  0  0  0  0  0  0
    0.5853   -1.8825    0.0000 C   0  0  0  0  0  0  0  0  0  0  0  0
   -0.1414   -0.6231    0.0000 C   0  0  0  0  0  0  0  0  0  0  0  0
   -2.3020   -0.2113    0.0000 C   0  0  0  0  0  0  0  0  0  0  0  0
    2.0046   -1.8825    0.0000 C   0  0  0  0  0  0  0  0  0  0  0  0
    4.8143   -1.8438    0.0000 N   0  0  0  0  0  0  0  0  0  0  0  0
    0.5853   -0.1967    0.0000 C   0  0  0  0  0  0  0  0  0  0  0  0
   -0.1414   -1.4660    0.0000 C   0  0  0  0  0  0  0  0  0  0  0  0
    2.0046   -2.8175    0.0000 O   0  0  0  0  0  0  0  0  0  0  0  0
    3.4192   -1.8438    0.0000 C   0  0  0  0  0  0  0  0  0  0  0  0
    4.1409   -1.4660    0.0000 C   0  0  0  0  0  0  0  0  0  0  0  0
    2.7507   -1.4660    0.0000 C   0  0  0  0  0  0  0  0  0  0  0  0
    4.8143   -2.6964    0.0000 C   0  0  0  0  0  0  0  0  0  0  0  0
    5.5119   -1.4320    0.0000 C   0  0  0  0  0  0  0  0  0  0  0  0
    6.1804   -1.8438    0.0000 C   0  0  0  0  0  0  0  0  0  0  0  0
    8.9658   -1.8293    0.0000 C   0  0  0  0  0  0  0  0  0  0  0  0
    8.2586   -1.4320    0.0000 C   0  0  0  0  0  0  0  0  0  0  0  0
    6.9071   -1.4320    0.0000 C   0  0  0  0  0  0  0  0  0  0  0  0
    7.5707   -1.8293    0.0000 C   0  0  0  0  0  0  0  0  0  0  0  0
    5.5119   -3.1082    0.0000 C   0  0  0  0  0  0  0  0  0  0  0  0
    9.6538   -1.4320    0.0000 C   0  0  0  0  0  0  0  0  0  0  0  0
   -2.1363   -3.6768    0.0000 S   0  0  0  0  0  0  0  0  0  0  0  0
   -1.4242   -3.2602    0.0000 N   0  0  0  0  0  0  0  0  0  0  0  0
   -1.7294   -4.3889    0.0000 O   0  0  0  0  0  0  0  0  0  0  0  0
   -2.5529   -4.3889    0.0000 O   0  0  0  0  0  0  0  0  0  0  0  0
    0.7897   -4.5246    0.0000 C   0  0  0  0  0  0  0  0  0  0  0  0
    0.7897   -3.6817    0.0000 C   0  0  0  0  0  0  0  0  0  0  0  0
    0.0339   -4.9411    0.0000 C   0  0  0  0  0  0  0  0  0  0  0  0
   -0.6927   -3.6817    0.0000 C   0  0  0  0  0  0  0  0  0  0  0  0
   -2.8533   -3.2699    0.0000 C   0  0  0  0  0  0  0  0  0  0  0  0
    1.4533   -4.9411    0.0000 C   0  0  0  0  0  0  0  0  0  0  0  0
    4.2630   -4.9024    0.0000 N   0  0  0  0  0  0  0  0  0  0  0  0
    0.0339   -3.2553    0.0000 C   0  0  0  0  0  0  0  0  0  0  0  0
   -0.6927   -4.5246    0.0000 C   0  0  0  0  0  0  0  0  0  0  0  0
    1.4533   -5.8761    0.0000 O   0  0  0  0  0  0  0  0  0  0  0  0
    2.8678   -4.9024    0.0000 C   0  0  0  0  0  0  0  0  0  0  0  0
    3.5896   -4.5246    0.0000 C   0  0  0  0  0  0  0  0  0  0  0  0
    2.1993   -4.5246    0.0000 C   0  0  0  0  0  0  0  0  0  0  0  0
    4.2630   -5.7550    0.0000 C   0  0  0  0  0  0  0  0  0  0  0  0
    4.9606   -4.4906    0.0000 C   0  0  0  0  0  0  0  0  0  0  0  0
    5.6291   -4.9024    0.0000 C   0  0  0  0  0  0  0  0  0  0  0  0
    8.4145   -4.8879    0.0000 C   0  0  0  0  0  0  0  0  0  0  0  0
    7.7073   -4.4906    0.0000 C   0  0  0  0  0  0  0  0  0  0  0  0
    6.3557   -4.4906    0.0000 C   0  0  0  0  0  0  0  0  0  0  0  0
    7.0193   -4.8879    0.0000 C   0  0  0  0  0  0  0  0  0  0  0  0
    4.9606   -6.1668    0.0000 C   0  0  0  0  0  0  0  0  0  0  0  0
    9.1024   -4.4906    0.0000 C   0  0  0  0  0  0  0  0  0  0  0  0
   12.3694   -2.2105    0.0000 C   0  0  0  0  0  0  0  0  0  0  0  0
   10.9355   -3.8527    0.0000 C   0  0  0  0  0  0  0  0  0  0  0  0
   11.6476   -2.6174    0.0000 C   0  0  0  0  0  0  0  0  0  0  0  0
   11.6476   -3.4457    0.0000 C   0  0  0  0  0  0  0  0  0  0  0  0
   12.3743   -1.3821    0.0000 O   0  0  0  0  0  0  0  0  0  0  0  0
   10.9307   -4.6762    0.0000 O   0  0  0  0  0  0  0  0  0  0  0  0
   13.0815   -2.6270    0.0000 O   0  0  0  0  0  0  0  0  0  0  0  0
   10.2234   -3.4312    0.0000 O   0  0  0  0  0  0  0  0  0  0  0  0
  2  1  1  0
  3  1  2  0
  4  1  2  0
  5  7  1  0
  6 12  1  0
  7 13  2  0
  8  2  1  0
  9  1  1  0
 10  5  1  0
 11 16  1  0
 12  8  2  0
 13  8  1  0
 14 10  1  0
 15 17  1  0
 16 15  1  0
 17 10  1  0
 18 11  1  0
 19 11  1  0
 20 19  1  0
 21 22  1  0
 22 24  1  0
 23 20  1  0
 24 23  1  0
 25 18  1  0
 26 21  1  0
  6  5  2  0
 28 27  1  0
 29 27  2  0
 30 27  2  0
 31 33  1  0
 32 38  1  0
 33 39  2  0
 34 28  1  0
 35 27  1  0
 36 31  1  0
 37 42  1  0
 38 34  2  0
 39 34  1  0
 40 36  1  0
 41 43  1  0
 42 41  1  0
 43 36  1  0
 44 37  1  0
 45 37  1  0
 46 45  1  0
 47 48  1  0
 48 50  1  0
 49 46  1  0
 50 49  1  0
 51 44  1  0
 52 47  1  0
 32 31  2  0
 54 56  1  0
 55 53  1  0
 56 55  2  0
 57 53  2  0
 58 54  2  0
 59 53  1  0
 60 54  1  0
M  END
> <chembl_id>
CHEMBL2355456

> <chembl_pref_name>
IBUTILIDE FUMARATE
