
     RDKit          2D

 28 31  0  0  1  0  0  0  0  0999 V2000
    0.9417   -5.3042    0.0000 C   0  0  0  0  0  0  0  0  0  0  0  0
    2.7875   -4.2583    0.0000 C   0  0  0  0  0  0  0  0  0  0  0  0
    0.9417   -6.0167    0.0000 C   0  0  0  0  0  0  0  0  0  0  0  0
    1.5542   -4.9542    0.0000 C   0  0  0  0  0  0  0  0  0  0  0  0
    2.1667   -5.3125    0.0000 C   0  0  0  0  0  0  0  0  0  0  0  0
    2.7792   -4.9625    0.0000 C   0  0  0  0  0  0  0  0  0  0  0  0
    2.1750   -3.8958    0.0000 C   0  0  0  0  0  0  0  0  0  0  0  0
    1.5583   -4.2458    0.0000 C   0  0  0  0  0  0  0  0  0  0  0  0
    3.4625   -4.0458    0.0000 C   0  0  0  0  0  0  0  0  0  0  0  0
    2.1625   -6.0208    0.0000 C   0  0  0  0  0  0  0  0  0  0  0  0
    0.3292   -6.3667    0.0000 C   0  0  0  0  0  0  0  0  0  0  0  0
    1.5500   -6.3708    0.0000 C   0  0  0  0  0  0  0  0  0  0  0  0
    0.3292   -4.9542    0.0000 C   0  0  0  0  0  0  0  0  0  0  0  0
    3.4500   -5.1917    0.0000 C   0  0  0  0  0  0  0  0  0  0  0  0
    3.8708   -4.6208    0.0000 C   0  0  0  0  0  0  0  0  0  0  0  0
    3.4542   -3.3375    0.0000 C   0  0  0  0  0  0  0  0  0  0  0  0
   -0.2833   -6.0167    0.0000 C   0  0  0  0  0  0  0  0  0  0  0  0
    2.8417   -2.9875    0.0000 O   0  0  0  0  0  0  0  0  0  0  0  0
   -0.8958   -6.3667    0.0000 O   0  0  0  0  0  0  0  0  0  0  0  0
   -0.2833   -5.3042    0.0000 C   0  0  0  0  0  0  0  0  0  0  0  0
    0.9375   -4.6000    0.0000 C   0  0  0  0  0  0  0  0  0  0  0  0
    2.7792   -3.5500    0.0000 C   0  0  0  0  0  0  0  0  0  0  0  0
    0.9458   -3.8875    0.0000 O   0  0  0  0  0  0  0  0  0  0  0  0
    1.5458   -7.0792    0.0000 C   0  0  0  0  0  0  0  0  0  0  0  0
    4.0667   -2.9750    0.0000 C   0  0  0  0  0  0  0  0  0  0  0  0
    2.1625   -4.6042    0.0000 H   0  0  0  0  0  0  0  0  0  0  0  0
    2.7750   -5.6667    0.0000 H   0  0  0  0  0  0  0  0  0  0  0  0
    1.5500   -5.6625    0.0000 H   0  0  0  0  0  0  0  0  0  0  0  0
  2  7  1  0
  3  1  1  0
  4  1  1  0
  5  4  1  0
  6  5  1  0
  7  8  1  0
  8  4  1  0
  9  2  1  0
 10 12  1  0
 11  3  2  0
 12  3  1  0
 13  1  1  0
 14  6  1  0
 15 14  1  0
  9 16  1  1
 17 11  1  0
 18 16  2  0
 19 17  2  0
 20 13  1  0
  1 21  1  1
  2 22  1  1
  8 23  1  1
 12 24  1  6
 25 16  1  0
  5 26  1  1
  6 27  1  6
  4 28  1  6
 17 20  1  0
  5 10  1  0
  6  2  1  0
  9 15  1  0
M  END
> <chembl_id>
CHEMBL1201173

> <chembl_pref_name>
MEDRYSONE
