
     RDKit          2D

 22 23  0  0  0  0  0  0  0  0999 V2000
   -5.7455    1.2964    0.0000 C   0  0  0  0  0  0  0  0  0  0  0  0
   -6.5705    1.2964    0.0000 C   0  0  0  0  0  0  0  0  0  0  0  0
   -6.5705    0.4714    0.0000 C   0  0  0  0  0  0  0  0  0  0  0  0
   -5.7455    0.4714    0.0000 N   0  0  0  0  0  0  0  0  0  0  0  0
   -4.9610    0.2165    0.0000 C   0  0  0  0  0  0  0  0  0  0  0  0
   -4.4760    0.8839    0.0000 C   0  0  0  0  0  0  0  0  0  0  0  0
   -4.9609    1.5513    0.0000 C   0  0  0  0  0  0  0  0  0  0  0  0
   -3.6510    0.8839    0.0000 S   0  0  0  0  0  0  0  0  0  0  0  0
   -3.2385    1.5984    0.0000 C   0  0  0  0  0  0  0  0  0  0  0  0
   -2.4135    1.5983    0.0000 C   0  0  0  0  0  0  0  0  0  0  0  0
   -2.0010    2.3128    0.0000 N   0  0  0  0  0  0  0  0  0  0  0  0
   -1.1760    2.3128    0.0000 C   0  0  0  0  0  0  0  0  0  0  0  0
   -0.7635    3.0272    0.0000 N   0  0  0  0  0  0  0  0  0  0  0  0
   -7.1539    1.8798    0.0000 C   0  0  0  0  0  0  0  0  0  0  0  0
   -7.1539   -0.1119    0.0000 O   0  0  0  0  0  0  0  0  0  0  0  0
   -4.7060   -0.5681    0.0000 C   0  0  0  0  0  0  0  0  0  0  0  0
   -3.8991   -0.7397    0.0000 O   0  0  0  0  0  0  0  0  0  0  0  0
   -5.2581   -1.1812    0.0000 O   0  0  0  0  0  0  0  0  0  0  0  0
   -5.7455    2.1214    0.0000 H   0  0  0  0  0  0  0  0  0  0  0  0
   -6.3570    2.0933    0.0000 H   0  0  0  0  0  0  0  0  0  0  0  0
   -7.9508    1.6663    0.0000 C   0  0  0  0  0  0  0  0  0  0  0  0
   -6.9404    2.6767    0.0000 O   0  0  0  0  0  0  0  0  0  0  0  0
  1  2  1  0
  2  3  1  0
  3  4  1  0
  4  5  1  0
  1  4  1  0
  1  7  1  0
  5  6  2  0
  6  7  1  0
  6  8  1  0
  8  9  1  0
  9 10  1  0
 10 11  1  0
 11 12  1  0
 12 13  2  0
  2 14  1  0
  3 15  2  0
  5 16  1  0
 16 17  1  0
 16 18  2  0
  1 19  1  6
  2 20  1  1
 14 21  1  0
 14 22  1  1
M  END
> <chembl_id>
CHEMBL148

> <chembl_pref_name>
IMIPENEM
