
     RDKit          2D

 21 23  0  0  0  0  0  0  0  0999 V2000
    3.4417   -2.7417    0.0000 N   0  0  0  0  0  0  0  0  0  0  0  0
    1.3292   -2.7417    0.0000 C   0  0  0  0  0  0  0  0  0  0  0  0
    2.0292   -2.7417    0.0000 C   0  0  0  0  0  0  0  0  0  0  0  0
    0.9792   -3.3542    0.0000 C   0  0  0  0  0  0  0  0  0  0  0  0
    0.9792   -2.1417    0.0000 C   0  0  0  0  0  0  0  0  0  0  0  0
    2.3792   -3.3542    0.0000 C   0  0  0  0  0  0  0  0  0  0  0  0
    2.3792   -2.1417    0.0000 C   0  0  0  0  0  0  0  0  0  0  0  0
    3.0917   -3.3542    0.0000 C   0  0  0  0  0  0  0  0  0  0  0  0
    3.0917   -2.1417    0.0000 C   0  0  0  0  0  0  0  0  0  0  0  0
    4.0542   -3.0917    0.0000 C   0  0  0  0  0  0  0  0  0  0  0  0
    4.0542   -2.3792    0.0000 C   0  0  0  0  0  0  0  0  0  0  0  0
    0.2792   -2.1417    0.0000 C   0  0  0  0  0  0  0  0  0  0  0  0
    1.3292   -3.9542    0.0000 C   0  0  0  0  0  0  0  0  0  0  0  0
    0.2792   -3.3542    0.0000 C   0  0  0  0  0  0  0  0  0  0  0  0
    1.3292   -1.5417    0.0000 C   0  0  0  0  0  0  0  0  0  0  0  0
   -0.0833   -1.5417    0.0000 C   0  0  0  0  0  0  0  0  0  0  0  0
    0.9792   -4.5667    0.0000 C   0  0  0  0  0  0  0  0  0  0  0  0
   -0.0833   -3.9542    0.0000 C   0  0  0  0  0  0  0  0  0  0  0  0
    0.9792   -0.9292    0.0000 C   0  0  0  0  0  0  0  0  0  0  0  0
    0.2792   -0.9292    0.0000 C   0  0  0  0  0  0  0  0  0  0  0  0
    0.2792   -4.5667    0.0000 C   0  0  0  0  0  0  0  0  0  0  0  0
  2  3  2  0
  3  6  1  0
  4  2  1  0
  5  2  1  0
  6  8  1  0
  7  9  1  0
  8  1  1  0
  9  1  1  0
 10  1  1  0
 11  1  1  0
 12  5  1  0
 13  4  1  0
 14  4  2  0
 15  5  2  0
 16 12  2  0
 17 13  2  0
 18 14  1  0
 19 15  1  0
 20 16  1  0
 21 18  2  0
  3  7  1  0
 19 20  2  0
 17 21  1  0
M  CHG  1   1   1
M  END
> <chembl_id>
CHEMBL1201340

> <chembl_pref_name>
DIPHEMANIL
