
     RDKit          2D

 76 81  0  0  0  0  0  0  0  0999 V2000
  -13.9322   -1.8562    0.0000 C   0  0  0  0  0  0  0  0  0  0  0  0
  -13.2177   -2.2687    0.0000 C   0  0  0  0  0  0  0  0  0  0  0  0
  -12.5032   -1.8562    0.0000 C   0  0  0  0  0  0  0  0  0  0  0  0
  -12.5032   -1.0312    0.0000 C   0  0  0  0  0  0  0  0  0  0  0  0
  -13.2177   -0.6187    0.0000 C   0  0  0  0  0  0  0  0  0  0  0  0
  -13.9322   -1.0312    0.0000 C   0  0  0  0  0  0  0  0  0  0  0  0
  -14.6467   -0.6187    0.0000 C   0  0  0  0  0  0  0  0  0  0  0  0
  -13.2177    0.2063    0.0000 C   0  0  0  0  0  0  0  0  0  0  0  0
  -13.9322    0.6188    0.0000 C   0  0  0  0  0  0  0  0  0  0  0  0
  -14.6467    0.2063    0.0000 N   0  0  0  0  0  0  0  0  0  0  0  0
  -12.5032    0.6188    0.0000 C   0  0  0  0  0  0  0  0  0  0  0  0
  -13.2177    1.0313    0.0000 H   0  0  0  0  0  0  0  0  0  0  0  0
  -12.5032    1.4438    0.0000 C   0  0  0  0  0  0  0  0  0  0  0  0
  -11.7888    1.8563    0.0000 C   0  0  0  0  0  0  0  0  0  0  0  0
  -11.0743    1.4438    0.0000 C   0  0  0  0  0  0  0  0  0  0  0  0
  -11.0743    0.6188    0.0000 C   0  0  0  0  0  0  0  0  0  0  0  0
  -11.7888    0.2063    0.0000 C   0  0  0  0  0  0  0  0  0  0  0  0
  -15.3611    0.6188    0.0000 C   0  0  0  0  0  0  0  0  0  0  0  0
  -10.3598    0.2063    0.0000 S   0  0  0  0  0  0  0  0  0  0  0  0
  -10.7723   -0.5082    0.0000 O   0  0  0  0  0  0  0  0  0  0  0  0
   -9.9473    0.9207    0.0000 O   0  0  0  0  0  0  0  0  0  0  0  0
   -9.6454   -0.2062    0.0000 N   0  0  0  0  0  0  0  0  0  0  0  0
   -8.9309    0.2063    0.0000 C   0  0  0  0  0  0  0  0  0  0  0  0
   -8.2164   -0.2062    0.0000 C   0  0  0  0  0  0  0  0  0  0  0  0
   -7.5019    0.2062    0.0000 O   0  0  0  0  0  0  0  0  0  0  0  0
   -6.7875   -0.2063    0.0000 C   0  0  0  0  0  0  0  0  0  0  0  0
   -6.0730    0.2062    0.0000 C   0  0  0  0  0  0  0  0  0  0  0  0
   -5.3585   -0.2063    0.0000 O   0  0  0  0  0  0  0  0  0  0  0  0
   -4.6441    0.2062    0.0000 C   0  0  0  0  0  0  0  0  0  0  0  0
   -3.9296   -0.2063    0.0000 C   0  0  0  0  0  0  0  0  0  0  0  0
   -3.2151    0.2062    0.0000 N   0  0  0  0  0  0  0  0  0  0  0  0
   -2.5006   -0.2063    0.0000 C   0  0  0  0  0  0  0  0  0  0  0  0
   -1.7862    0.2062    0.0000 N   0  0  0  0  0  0  0  0  0  0  0  0
   -2.5006   -1.0313    0.0000 O   0  0  0  0  0  0  0  0  0  0  0  0
   -1.0717   -0.2063    0.0000 C   0  0  0  0  0  0  0  0  0  0  0  0
   -0.3572    0.2062    0.0000 C   0  0  0  0  0  0  0  0  0  0  0  0
    0.3572   -0.2063    0.0000 C   0  0  0  0  0  0  0  0  0  0  0  0
    1.0717    0.2062    0.0000 C   0  0  0  0  0  0  0  0  0  0  0  0
    1.7862   -0.2063    0.0000 N   0  0  0  0  0  0  0  0  0  0  0  0
    2.5006    0.2062    0.0000 C   0  0  0  0  0  0  0  0  0  0  0  0
    2.5006    1.0312    0.0000 O   0  0  0  0  0  0  0  0  0  0  0  0
    3.2151   -0.2063    0.0000 N   0  0  0  0  0  0  0  0  0  0  0  0
    3.9296    0.2062    0.0000 C   0  0  0  0  0  0  0  0  0  0  0  0
    4.6441   -0.2063    0.0000 C   0  0  0  0  0  0  0  0  0  0  0  0
    5.3585    0.2062    0.0000 O   0  0  0  0  0  0  0  0  0  0  0  0
    6.0730   -0.2063    0.0000 C   0  0  0  0  0  0  0  0  0  0  0  0
    6.7875    0.2062    0.0000 C   0  0  0  0  0  0  0  0  0  0  0  0
    7.5019   -0.2063    0.0000 O   0  0  0  0  0  0  0  0  0  0  0  0
    8.2164    0.2062    0.0000 C   0  0  0  0  0  0  0  0  0  0  0  0
    8.9309   -0.2063    0.0000 C   0  0  0  0  0  0  0  0  0  0  0  0
    9.6454    0.2062    0.0000 N   0  0  0  0  0  0  0  0  0  0  0  0
   10.3598   -0.2063    0.0000 S   0  0  0  0  0  0  0  0  0  0  0  0
    9.9473   -0.9207    0.0000 O   0  0  0  0  0  0  0  0  0  0  0  0
   10.7723    0.5082    0.0000 O   0  0  0  0  0  0  0  0  0  0  0  0
   11.0743   -0.6188    0.0000 C   0  0  0  0  0  0  0  0  0  0  0  0
   12.5032   -0.6188    0.0000 C   0  0  0  0  0  0  0  0  0  0  0  0
   11.7888   -0.2063    0.0000 C   0  0  0  0  0  0  0  0  0  0  0  0
   11.0743   -1.4438    0.0000 C   0  0  0  0  0  0  0  0  0  0  0  0
   11.7888   -1.8563    0.0000 C   0  0  0  0  0  0  0  0  0  0  0  0
   12.5032   -1.4438    0.0000 C   0  0  0  0  0  0  0  0  0  0  0  0
   13.2177   -0.2063    0.0000 C   0  0  0  0  0  0  0  0  0  0  0  0
   13.2177   -1.0313    0.0000 H   0  0  0  0  0  0  0  0  0  0  0  0
   14.6467    0.6187    0.0000 C   0  0  0  0  0  0  0  0  0  0  0  0
   14.6467   -0.2063    0.0000 N   0  0  0  0  0  0  0  0  0  0  0  0
   13.9322   -0.6188    0.0000 C   0  0  0  0  0  0  0  0  0  0  0  0
   13.2177    0.6187    0.0000 C   0  0  0  0  0  0  0  0  0  0  0  0
   13.9322    1.0312    0.0000 C   0  0  0  0  0  0  0  0  0  0  0  0
   13.9322    1.8562    0.0000 C   0  0  0  0  0  0  0  0  0  0  0  0
   12.5032    1.0312    0.0000 C   0  0  0  0  0  0  0  0  0  0  0  0
   12.5032    1.8562    0.0000 C   0  0  0  0  0  0  0  0  0  0  0  0
   13.2177    2.2687    0.0000 C   0  0  0  0  0  0  0  0  0  0  0  0
   11.7888    2.2688    0.0000 Cl  0  0  0  0  0  0  0  0  0  0  0  0
   14.6467    2.2687    0.0000 Cl  0  0  0  0  0  0  0  0  0  0  0  0
   15.3611   -0.6188    0.0000 C   0  0  0  0  0  0  0  0  0  0  0  0
  -14.6467   -2.2687    0.0000 Cl  0  0  0  0  0  0  0  0  0  0  0  0
  -11.7888   -2.2687    0.0000 Cl  0  0  0  0  0  0  0  0  0  0  0  0
  1  2  2  0
  2  3  1  0
  3  4  2  0
  4  5  1  0
  5  6  2  0
  1  6  1  0
  8  9  1  0
  9 10  1  0
  7 10  1  0
  5  8  1  0
  7  6  1  0
  8 11  1  1
  8 12  1  6
 13 14  2  0
 14 15  1  0
 15 16  2  0
 16 17  1  0
 11 13  1  0
 11 17  2  0
 10 18  1  0
 16 19  1  0
 19 20  2  0
 19 21  2  0
 19 22  1  0
 22 23  1  0
 23 24  1  0
 24 25  1  0
 25 26  1  0
 26 27  1  0
 27 28  1  0
 28 29  1  0
 29 30  1  0
 30 31  1  0
 31 32  1  0
 32 33  1  0
 32 34  2  0
 33 35  1  0
 35 36  1  0
 36 37  1  0
 37 38  1  0
 38 39  1  0
 39 40  1  0
 40 41  2  0
 40 42  1  0
 42 43  1  0
 43 44  1  0
 44 45  1  0
 45 46  1  0
 46 47  1  0
 47 48  1  0
 48 49  1  0
 49 50  1  0
 50 51  1  0
 51 52  1  0
 52 53  2  0
 52 54  2  0
 52 55  1  0
 56 57  1  0
 58 59  2  0
 59 60  1  0
 56 60  2  0
 57 55  2  0
 55 58  1  0
 61 56  1  1
 61 62  1  6
 63 64  1  0
 64 65  1  0
 63 67  1  0
 65 61  1  0
 61 66  1  0
 69 70  1  0
 70 71  2  0
 68 71  1  0
 68 67  2  0
 66 69  2  0
 67 66  1  0
 70 72  1  0
 68 73  1  0
 64 74  1  0
  1 75  1  0
  3 76  1  0
M  END
> <chembl_id>
CHEMBL3304485

> <chembl_pref_name>
TENAPANOR
