
     RDKit          2D

 28 28  0  0  0  0  0  0  0  0999 V2000
    3.6417   -3.9417    0.0000 C   0  0  0  0  0  0  0  0  0  0  0  0
    5.5000   -4.2250    0.0000 C   0  0  0  0  0  0  0  0  0  0  0  0
    5.5292   -4.9417    0.0000 O   0  0  0  0  0  0  0  0  0  0  0  0
    3.6167   -3.2375    0.0000 O   0  0  0  0  0  0  0  0  0  0  0  0
    4.8667   -3.9000    0.0000 C   0  0  0  0  0  0  0  0  0  0  0  0
    4.2750   -4.2750    0.0000 C   0  0  0  0  0  0  0  0  0  0  0  0
    3.0417   -4.3167    0.0000 O   0  0  0  0  0  0  0  0  0  0  0  0
    6.1000   -3.8625    0.0000 O   0  0  0  0  0  0  0  0  0  0  0  0
   -2.2625   -3.9917    0.0000 S   0  0  0  0  0  0  0  0  0  0  0  0
    0.8667   -3.0542    0.0000 N   0  0  0  0  0  0  0  0  0  0  0  0
    0.1917   -3.9917    0.0000 C   0  0  0  0  0  0  0  0  0  0  0  0
    0.8750   -4.2125    0.0000 C   0  0  0  0  0  0  0  0  0  0  0  0
    1.2917   -3.6292    0.0000 C   0  0  0  0  0  0  0  0  0  0  0  0
    0.1917   -3.2792    0.0000 C   0  0  0  0  0  0  0  0  0  0  0  0
   -1.9125   -3.3792    0.0000 O   0  0  0  0  0  0  0  0  0  0  0  0
   -2.6208   -3.3792    0.0000 O   0  0  0  0  0  0  0  0  0  0  0  0
   -1.6458   -4.3500    0.0000 C   0  0  0  0  0  0  0  0  0  0  0  0
   -0.4208   -4.3500    0.0000 C   0  0  0  0  0  0  0  0  0  0  0  0
   -2.8750   -4.3500    0.0000 N   0  0  0  0  0  0  0  0  0  0  0  0
   -1.0333   -3.9917    0.0000 C   0  0  0  0  0  0  0  0  0  0  0  0
    0.8667   -4.9167    0.0000 C   0  0  0  0  0  0  0  0  0  0  0  0
   -0.4208   -2.9292    0.0000 C   0  0  0  0  0  0  0  0  0  0  0  0
    2.0917   -4.9292    0.0000 N   0  0  0  0  0  0  0  0  0  0  0  0
    1.4792   -5.2792    0.0000 C   0  0  0  0  0  0  0  0  0  0  0  0
   -1.0333   -3.2875    0.0000 C   0  0  0  0  0  0  0  0  0  0  0  0
   -3.4875   -3.9917    0.0000 C   0  0  0  0  0  0  0  0  0  0  0  0
    2.7042   -5.2917    0.0000 C   0  0  0  0  0  0  0  0  0  0  0  0
    2.1042   -4.2167    0.0000 C   0  0  0  0  0  0  0  0  0  0  0  0
  2  5  1  0
  3  2  2  0
  4  1  2  0
  5  6  1  0
  6  1  1  0
  7  1  1  0
  8  2  1  0
 10 14  1  0
 11 18  2  0
 12 11  1  0
 13 12  2  0
 14 22  2  0
 15  9  2  0
 16  9  2  0
 17  9  1  0
 18 20  1  0
 19  9  1  0
 20 17  1  0
 21 12  1  0
 22 25  1  0
 23 24  1  0
 24 21  1  0
 25 20  2  0
 26 19  1  0
 27 23  1  0
 28 23  1  0
 14 11  1  0
 10 13  1  0
M  END
> <chembl_id>
CHEMBL1201150

> <chembl_pref_name>
SUMATRIPTAN SUCCINATE
