
     RDKit          2D

116117  0  0  1  0  0  0  0  0999 V2000
   30.4145   18.3848    0.0000 N   0  0  0  0  0  0  0  0  0  0  0  0
   30.4145   17.5598    0.0000 C   0  0  0  0  0  0  0  0  0  0  0  0
   29.7000   17.1473    0.0000 C   0  0  0  0  0  0  0  0  0  0  0  0
   28.9855   17.5598    0.0000 C   0  0  0  0  0  0  0  0  0  0  0  0
   28.2711   17.1473    0.0000 N   0  0  0  0  0  0  0  0  0  0  0  0
   28.9855   18.3848    0.0000 O   0  0  0  0  0  0  0  0  0  0  0  0
   31.1289   17.1473    0.0000 C   0  0  0  0  0  0  0  0  0  0  0  0
   31.1289   16.3223    0.0000 O   0  0  0  0  0  0  0  0  0  0  0  0
   31.8434   17.5598    0.0000 N   0  0  0  0  0  0  0  0  0  0  0  0
   32.5579   17.1473    0.0000 C   0  0  0  0  0  0  0  0  0  0  0  0
   32.5579   16.3223    0.0000 C   0  0  0  0  0  0  0  0  0  0  0  0
   33.2724   15.9098    0.0000 C   0  0  0  0  0  0  0  0  0  0  0  0
   33.9868   16.3223    0.0000 O   0  0  0  0  0  0  0  0  0  0  0  0
   33.2724   15.0848    0.0000 O   0  0  0  0  0  0  0  0  0  0  0  0
   33.2724   17.5598    0.0000 C   0  0  0  0  0  0  0  0  0  0  0  0
   33.2724   18.3848    0.0000 O   0  0  0  0  0  0  0  0  0  0  0  0
   33.9868   17.1473    0.0000 N   0  0  0  0  0  0  0  0  0  0  0  0
   34.7013   17.5598    0.0000 C   0  0  0  0  0  0  0  0  0  0  0  0
   34.7013   18.3848    0.0000 C   0  0  0  0  0  0  0  0  0  0  0  0
   35.4158   18.7973    0.0000 C   0  0  0  0  0  0  0  0  0  0  0  0
   35.4158   19.6223    0.0000 C   0  0  0  0  0  0  0  0  0  0  0  0
   34.7013   20.0348    0.0000 O   0  0  0  0  0  0  0  0  0  0  0  0
   36.1302   20.0348    0.0000 O   0  0  0  0  0  0  0  0  0  0  0  0
   35.4158   17.1473    0.0000 C   0  0  0  0  0  0  0  0  0  0  0  0
   35.4158   16.3223    0.0000 O   0  0  0  0  0  0  0  0  0  0  0  0
   36.1302   17.5598    0.0000 N   0  0  0  0  0  0  0  0  0  0  0  0
   36.8447   17.1473    0.0000 C   0  0  0  0  0  0  0  0  0  0  0  0
   36.8447   16.3223    0.0000 C   0  0  0  0  0  0  0  0  0  0  0  0
   38.6238   14.6516    0.0000 S   0  0  0  0  0  0  0  0  0  0  0  0
   37.5592   17.5598    0.0000 C   0  0  0  0  0  0  0  0  0  0  0  0
   37.5592   18.3848    0.0000 O   0  0  0  0  0  0  0  0  0  0  0  0
   38.2737   17.1473    0.0000 N   0  0  0  0  0  0  0  0  0  0  0  0
   38.9881   17.5598    0.0000 C   0  0  0  0  0  0  0  0  0  0  0  0
   38.9881   18.3848    0.0000 C   0  0  0  0  0  0  0  0  0  0  0  0
   39.7026   18.7973    0.0000 C   0  0  0  0  0  0  0  0  0  0  0  0
   39.7026   19.6223    0.0000 C   0  0  0  0  0  0  0  0  0  0  0  0
   38.9881   20.0348    0.0000 O   0  0  0  0  0  0  0  0  0  0  0  0
   40.4171   20.0348    0.0000 O   0  0  0  0  0  0  0  0  0  0  0  0
   39.7026   17.1473    0.0000 C   0  0  0  0  0  0  0  0  0  0  0  0
   39.7026   16.3223    0.0000 O   0  0  0  0  0  0  0  0  0  0  0  0
   40.4171   17.5598    0.0000 N   0  0  0  0  0  0  0  0  0  0  0  0
   41.1315   17.1473    0.0000 C   0  0  0  0  0  0  0  0  0  0  0  0
   41.1315   16.3223    0.0000 C   0  0  0  0  0  0  0  0  0  0  0  0
   41.8460   15.9098    0.0000 C   0  0  0  0  0  0  0  0  0  0  0  0
   42.5605   16.3223    0.0000 C   0  0  0  0  0  0  0  0  0  0  0  0
   41.8460   15.0848    0.0000 C   0  0  0  0  0  0  0  0  0  0  0  0
   41.8460   17.5598    0.0000 C   0  0  0  0  0  0  0  0  0  0  0  0
   41.8460   18.3848    0.0000 O   0  0  0  0  0  0  0  0  0  0  0  0
   42.5605   17.1473    0.0000 N   0  0  0  0  0  0  0  0  0  0  0  0
   43.2749   17.5598    0.0000 C   0  0  0  0  0  0  0  0  0  0  0  0
   43.3717   19.1107    0.0000 C   0  0  0  0  0  0  0  0  0  0  0  0
   44.8605   20.0071    0.0000 S   0  0  0  0  0  0  0  0  0  0  0  0
   43.9894   17.1473    0.0000 C   0  0  0  0  0  0  0  0  0  0  0  0
   43.9894   16.3223    0.0000 O   0  0  0  0  0  0  0  0  0  0  0  0
   44.7039   17.5598    0.0000 N   0  0  0  0  0  0  0  0  0  0  0  0
   45.4184   17.1473    0.0000 C   0  0  0  0  0  0  0  0  0  0  0  0
   45.4184   16.3223    0.0000 C   0  0  0  0  0  0  0  0  0  0  0  0
   46.1328   15.9098    0.0000 C   0  0  0  0  0  0  0  0  0  0  0  0
   44.7039   15.9098    0.0000 C   0  0  0  0  0  0  0  0  0  0  0  0
   46.1328   17.5598    0.0000 C   0  0  0  0  0  0  0  0  0  0  0  0
   46.1328   18.3848    0.0000 O   0  0  0  0  0  0  0  0  0  0  0  0
   46.8473   17.1473    0.0000 N   0  0  0  0  0  0  0  0  0  0  0  0
   47.5618   17.5598    0.0000 C   0  0  0  0  0  0  0  0  0  0  0  0
   47.5618   18.3848    0.0000 C   0  0  0  0  0  0  0  0  0  0  0  0
   48.2762   18.7973    0.0000 C   0  0  0  0  0  0  0  0  0  0  0  0
   48.2762   19.6223    0.0000 N   0  0  0  0  0  0  0  0  0  0  0  0
   48.9907   18.3848    0.0000 O   0  0  0  0  0  0  0  0  0  0  0  0
   48.2762   17.1473    0.0000 C   0  0  0  0  0  0  0  0  0  0  0  0
   48.2762   16.3223    0.0000 O   0  0  0  0  0  0  0  0  0  0  0  0
   48.9907   17.5598    0.0000 N   0  0  0  0  0  0  0  0  0  0  0  0
   49.7052   17.1473    0.0000 C   0  0  0  0  0  0  0  0  0  0  0  0
   49.7052   16.3223    0.0000 C   0  0  0  0  0  0  0  0  0  0  0  0
   50.4197   15.9098    0.0000 C   0  0  0  0  0  0  0  0  0  0  0  0
   48.9907   15.9098    0.0000 C   0  0  0  0  0  0  0  0  0  0  0  0
   50.4197   17.5598    0.0000 C   0  0  0  0  0  0  0  0  0  0  0  0
   50.4197   18.3848    0.0000 O   0  0  0  0  0  0  0  0  0  0  0  0
   51.1341   17.1473    0.0000 N   0  0  0  0  0  0  0  0  0  0  0  0
   51.8486   17.5598    0.0000 C   0  0  0  0  0  0  0  0  0  0  0  0
   51.8486   18.3848    0.0000 C   0  0  0  0  0  0  0  0  0  0  0  0
   52.5631   17.1473    0.0000 C   0  0  0  0  0  0  0  0  0  0  0  0
   52.5631   16.3223    0.0000 O   0  0  0  0  0  0  0  0  0  0  0  0
   53.2775   17.5598    0.0000 N   0  0  0  0  0  0  0  0  0  0  0  0
   53.9920   17.1473    0.0000 C   0  0  0  0  0  0  0  0  0  0  0  0
   53.9920   16.3223    0.0000 C   0  0  0  0  0  0  0  0  0  0  0  0
   55.4807   14.8452    0.0000 S   0  0  0  0  0  0  0  0  0  0  0  0
   54.7065   17.5598    0.0000 C   0  0  0  0  0  0  0  0  0  0  0  0
   54.7065   18.3848    0.0000 O   0  0  0  0  0  0  0  0  0  0  0  0
   55.4210   17.1473    0.0000 N   0  0  0  0  0  0  0  0  0  0  0  0
   56.1354   17.5598    0.0000 C   0  0  0  0  0  0  0  0  0  0  0  0
   56.1354   18.3848    0.0000 C   0  0  0  0  0  0  0  0  0  0  0  0
   56.8499   18.7973    0.0000 O   0  0  0  0  0  0  0  0  0  0  0  0
   55.4210   18.7973    0.0000 C   0  0  0  0  0  0  0  0  0  0  0  0
   56.8499   17.1473    0.0000 C   0  0  0  0  0  0  0  0  0  0  0  0
   56.8499   16.3223    0.0000 O   0  0  0  0  0  0  0  0  0  0  0  0
   57.5644   17.5598    0.0000 N   0  0  0  0  0  0  0  0  0  0  0  0
   58.2788   17.1473    0.0000 C   0  0  0  0  0  0  0  0  0  0  0  0
   58.9933   17.5598    0.0000 C   0  0  0  0  0  0  0  0  0  0  0  0
   58.9933   18.3848    0.0000 O   0  0  0  0  0  0  0  0  0  0  0  0
   59.7078   17.1473    0.0000 N   0  0  0  0  0  0  0  0  0  0  0  0
   60.4223   17.5598    0.0000 C   0  0  0  0  0  0  0  0  0  0  0  0
   60.3739   18.8687    0.0000 C   0  0  0  0  0  0  0  0  0  0  0  0
   61.7174   19.9587    0.0000 S   0  0  0  0  0  0  0  0  0  0  0  0
   61.1367   17.1473    0.0000 C   0  0  0  0  0  0  0  0  0  0  0  0
   61.1367   16.3223    0.0000 O   0  0  0  0  0  0  0  0  0  0  0  0
   61.8512   17.5598    0.0000 N   0  0  0  0  0  0  0  0  0  0  0  0
   62.5657   17.1473    0.0000 C   0  0  0  0  0  0  0  0  0  0  0  0
   63.2801   17.5598    0.0000 C   0  0  0  0  0  0  0  0  0  0  0  0
   63.9946   17.1473    0.0000 C   0  0  0  0  0  0  0  0  0  0  0  0
   64.7091   17.5598    0.0000 C   0  0  0  0  0  0  0  0  0  0  0  0
   63.9946   16.3223    0.0000 C   0  0  0  0  0  0  0  0  0  0  0  0
   62.5657   16.3223    0.0000 C   0  0  0  0  0  0  0  0  0  0  0  0
   63.2801   15.9098    0.0000 O   0  0  0  0  0  0  0  0  0  0  0  0
   61.8512   15.9098    0.0000 O   0  0  0  0  0  0  0  0  0  0  0  0
   55.2694   18.0598    0.0000 H   0  0  0  0  0  0  0  0  0  0  0  0
   53.1260   16.6473    0.0000 H   0  0  0  0  0  0  0  0  0  0  0  0
   43.2749   16.5598    0.0000 H   0  0  0  0  0  0  0  0  0  0  0  0
  2  1  1  6
  2  3  1  0
  3  4  1  0
  4  5  1  0
  4  6  2  0
  2  7  1  0
  7  8  2  0
  7  9  1  0
 10  9  1  6
 10 11  1  0
 11 12  1  0
 12 13  1  0
 12 14  2  0
 10 15  1  0
 15 16  2  0
 15 17  1  0
 18 17  1  1
 18 19  1  0
 19 20  1  0
 20 21  1  0
 21 22  1  0
 21 23  2  0
 18 24  1  0
 24 25  2  0
 24 26  1  0
 27 26  1  6
 27 28  1  0
 28 29  1  0
 27 30  1  0
 30 31  2  0
 30 32  1  0
 33 32  1  0
 33 34  1  1
 34 35  1  0
 35 36  1  0
 36 37  1  0
 36 38  2  0
 33 39  1  0
 39 40  2  0
 39 41  1  0
 42 41  1  0
 42 43  1  6
 43 44  1  0
 44 45  1  0
 44 46  1  0
 42 47  1  0
 47 48  2  0
 47 49  1  0
 50 49  1  0
 50 51  1  0
 51 52  1  0
 50 53  1  0
 53 54  2  0
 53 55  1  0
 56 55  1  0
 56 57  1  6
 57 58  1  0
 57 59  1  0
 56 60  1  0
 60 61  2  0
 60 62  1  0
 63 62  1  0
 63 64  1  1
 64 65  1  0
 65 66  1  0
 65 67  2  0
 63 68  1  0
 68 69  2  0
 68 70  1  0
 71 70  1  0
 71 72  1  6
 72 73  1  0
 72 74  1  0
 71 75  1  0
 75 76  2  0
 75 77  1  0
 77 78  1  0
 78 79  1  1
 78 80  1  0
 80 81  2  0
 80 82  1  0
 83 82  1  0
 83 84  1  0
 84 85  1  0
 83 86  1  0
 86 87  2  0
 86 88  1  0
 89 88  1  0
 89 90  1  0
 90 91  1  1
 90 92  1  0
 89 93  1  0
 93 94  2  0
 93 95  1  0
 95 96  1  0
 96 97  1  0
 97 98  2  0
 97 99  1  0
100 99  1  0
100101  1  0
101102  1  0
100103  1  1
103104  2  0
103105  1  0
106105  1  1
106107  1  0
107108  1  0
108109  1  0
108110  1  0
106111  1  0
111112  2  0
111113  1  0
 29 85  1  0
 52102  1  0
 89114  1  6
 83115  1  1
 50116  1  6
M  END
> <chembl_id>
CHEMBL2103867

> <chembl_pref_name>
PLECANATIDE
