
     RDKit          2D

 14 13  0  0  0  0  0  0  0  0999 V2000
   -0.7958   -4.3042    0.0000 S   0  0  0  0  0  0  0  0  0  0  0  0
    3.4917   -4.6417    0.0000 S   0  0  0  0  0  0  0  0  0  0  0  0
   -0.4458   -3.6875    0.0000 O   0  0  0  0  0  0  0  0  0  0  0  0
   -1.1583   -3.6875    0.0000 O   0  0  0  0  0  0  0  0  0  0  0  0
    3.1292   -5.2542    0.0000 O   0  0  0  0  0  0  0  0  0  0  0  0
    3.8417   -5.2542    0.0000 O   0  0  0  0  0  0  0  0  0  0  0  0
    2.8792   -4.2917    0.0000 O   0  0  0  0  0  0  0  0  0  0  0  0
   -0.1833   -4.6542    0.0000 O   0  0  0  0  0  0  0  0  0  0  0  0
   -1.4083   -4.6542    0.0000 C   0  0  0  0  0  0  0  0  0  0  0  0
    4.1042   -4.2875    0.0000 C   0  0  0  0  0  0  0  0  0  0  0  0
    2.2667   -4.6417    0.0000 C   0  0  0  0  0  0  0  0  0  0  0  0
    0.4292   -4.3000    0.0000 C   0  0  0  0  0  0  0  0  0  0  0  0
    1.0417   -4.6500    0.0000 C   0  0  0  0  0  0  0  0  0  0  0  0
    1.6542   -4.2917    0.0000 C   0  0  0  0  0  0  0  0  0  0  0  0
  2  7  1  0
  3  1  2  0
  4  1  2  0
  5  2  2  0
  6  2  2  0
  7 11  1  0
  8  1  1  0
  9  1  1  0
 10  2  1  0
 11 14  1  0
 12  8  1  0
 13 12  1  0
 14 13  1  0
M  END
> <chembl_id>
CHEMBL820

> <chembl_pref_name>
BUSULFAN
