
     RDKit          2D

 26 28  0  0  0  0  0  0  0  0999 V2000
   -3.4455    1.8075    0.0000 C   0  0  0  0  0  0  0  0  0  0  0  0
   -4.1526    1.3825    0.0000 C   0  0  0  0  0  0  0  0  0  0  0  0
   -4.1382    0.5576    0.0000 C   0  0  0  0  0  0  0  0  0  0  0  0
   -3.4167    0.1577    0.0000 C   0  0  0  0  0  0  0  0  0  0  0  0
   -2.7095    0.5826    0.0000 C   0  0  0  0  0  0  0  0  0  0  0  0
   -2.7239    1.4075    0.0000 C   0  0  0  0  0  0  0  0  0  0  0  0
   -1.9880    0.1826    0.0000 C   0  0  0  0  0  0  0  0  0  0  0  0
   -1.2808    0.6075    0.0000 C   0  0  0  0  0  0  0  0  0  0  0  0
   -1.2952    1.4324    0.0000 C   0  0  0  0  0  0  0  0  0  0  0  0
   -2.0168    1.8323    0.0000 C   0  0  0  0  0  0  0  0  0  0  0  0
   -3.0330    2.5219    0.0000 C   0  0  0  0  0  0  0  0  0  0  0  0
   -3.9187    2.4833    0.0000 C   0  0  0  0  0  0  0  0  0  0  0  0
   -3.8660   -0.5342    0.0000 C   0  0  0  0  0  0  0  0  0  0  0  0
   -2.9435   -0.5181    0.0000 C   0  0  0  0  0  0  0  0  0  0  0  0
   -0.5663    0.1950    0.0000 N   0  0  0  0  0  0  0  0  0  0  0  0
    0.1482    0.6075    0.0000 C   0  0  0  0  0  0  0  0  0  0  0  0
    0.8626    0.1950    0.0000 C   0  0  0  0  0  0  0  0  0  0  0  0
    0.1482    1.4325    0.0000 O   0  0  0  0  0  0  0  0  0  0  0  0
    1.5771    0.6075    0.0000 C   0  0  0  0  0  0  0  0  0  0  0  0
    0.8626   -0.6300    0.0000 C   0  0  0  0  0  0  0  0  0  0  0  0
    1.5771   -1.0425    0.0000 C   0  0  0  0  0  0  0  0  0  0  0  0
    2.2916   -0.6300    0.0000 C   0  0  0  0  0  0  0  0  0  0  0  0
    2.2916    0.1950    0.0000 C   0  0  0  0  0  0  0  0  0  0  0  0
    3.0060   -1.0425    0.0000 C   0  0  0  0  0  0  0  0  0  0  0  0
    3.7205   -0.6300    0.0000 O   0  0  0  0  0  0  0  0  0  0  0  0
    3.0060   -1.8675    0.0000 O   0  0  0  0  0  0  0  0  0  0  0  0
  1  2  1  0
  2  3  1  0
  3  4  1  0
  4  5  1  0
  5  6  2  0
  1  6  1  0
  7  8  2  0
  8  9  1  0
  9 10  2  0
  5  7  1  0
  6 10  1  0
  1 11  1  0
  1 12  1  0
  4 13  1  0
  4 14  1  0
  8 15  1  0
 15 16  1  0
 16 17  1  0
 16 18  2  0
 20 21  1  0
 21 22  2  0
 22 23  1  0
 19 23  2  0
 19 17  1  0
 17 20  2  0
 22 24  1  0
 24 25  2  0
 24 26  1  0
M  END
> <chembl_id>
CHEMBL25202

> <chembl_pref_name>
TAMIBAROTENE
