
     RDKit          2D

 20 21  0  0  0  0  0  0  0  0999 V2000
    3.0167    0.1458    0.0000 C   0  0  0  0  0  0  0  0  0  0  0  0
    2.5292    0.8083    0.0000 N   0  0  0  0  0  0  0  0  0  0  0  0
    2.5292   -0.5667    0.0000 S   0  0  0  0  0  0  0  0  0  0  0  0
    1.6917   -0.3167    0.0000 C   0  0  0  0  0  0  0  0  0  0  0  0
    1.6917    0.5625    0.0000 C   0  0  0  0  0  0  0  0  0  0  0  0
    3.8750    0.1583    0.0000 N   0  0  0  0  0  0  0  0  0  0  0  0
    0.9542   -0.7375    0.0000 C   0  0  0  0  0  0  0  0  0  0  0  0
    0.9542    0.9833    0.0000 C   0  0  0  0  0  0  0  0  0  0  0  0
    0.1875   -0.3167    0.0000 C   0  0  0  0  0  0  0  0  0  0  0  0
   -2.8458   -0.3417    0.0000 N   0  0  0  0  0  0  0  0  0  0  0  0
    0.1875    0.5625    0.0000 C   0  0  0  0  0  0  0  0  0  0  0  0
   -0.5750   -0.7667    0.0000 O   0  0  0  0  0  0  0  0  0  0  0  0
   -1.3375   -0.3167    0.0000 C   0  0  0  0  0  0  0  0  0  0  0  0
    4.2792    0.9083    0.0000 C   0  0  0  0  0  0  0  0  0  0  0  0
    4.3375   -0.5792    0.0000 C   0  0  0  0  0  0  0  0  0  0  0  0
   -2.1000   -0.7667    0.0000 C   0  0  0  0  0  0  0  0  0  0  0  0
   -2.8708    0.5125    0.0000 C   0  0  0  0  0  0  0  0  0  0  0  0
   -3.5833   -0.7917    0.0000 C   0  0  0  0  0  0  0  0  0  0  0  0
   -2.1250    0.9583    0.0000 C   0  0  0  0  0  0  0  0  0  0  0  0
   -4.3458   -0.3667    0.0000 C   0  0  0  0  0  0  0  0  0  0  0  0
  2  1  2  0
  3  1  1  0
  4  3  1  0
  5  2  1  0
  6  1  1  0
  7  4  1  0
  8  5  1  0
  9  7  2  0
 10 16  1  0
 11  8  2  0
 12  9  1  0
 13 12  1  0
 14  6  1  0
 15  6  1  0
 16 13  1  0
 17 10  1  0
 18 10  1  0
 19 17  1  0
 20 18  1  0
  5  4  2  0
 11  9  1  0
M  END
> <chembl_id>
CHEMBL1184360

> <chembl_pref_name>
DIAMTHAZOLE
