
     RDKit          2D

 25 28  0  0  0  0  0  0  0  0999 V2000
    0.2125   -3.6250    0.0000 C   0  0  0  0  0  0  0  0  0  0  0  0
   -0.4000   -3.9792    0.0000 N   0  0  0  0  0  0  0  0  0  0  0  0
   -0.4458   -2.4917    0.0000 C   0  0  0  0  0  0  0  0  0  0  0  0
   -1.3333   -4.6500    0.0000 N   0  0  0  0  0  0  0  0  0  0  0  0
   -0.6208   -4.6500    0.0000 C   0  0  0  0  0  0  0  0  0  0  0  0
   -0.9750   -3.5542    0.0000 C   0  0  0  0  0  0  0  0  0  0  0  0
   -1.1583   -2.4917    0.0000 C   0  0  0  0  0  0  0  0  0  0  0  0
   -1.5500   -3.9792    0.0000 C   0  0  0  0  0  0  0  0  0  0  0  0
    0.8250   -3.9792    0.0000 C   0  0  0  0  0  0  0  0  0  0  0  0
    0.5625   -3.0042    0.0000 C   0  0  0  0  0  0  0  0  0  0  0  0
   -1.5083   -3.1042    0.0000 Cl  0  0  0  0  0  0  0  0  0  0  0  0
   -0.0958   -1.8792    0.0000 C   0  0  0  0  0  0  0  0  0  0  0  0
   -1.5083   -1.8792    0.0000 C   0  0  0  0  0  0  0  0  0  0  0  0
    0.8167   -4.6875    0.0000 C   0  0  0  0  0  0  0  0  0  0  0  0
    1.2750   -2.9917    0.0000 C   0  0  0  0  0  0  0  0  0  0  0  0
    0.2000   -2.3917    0.0000 C   0  0  0  0  0  0  0  0  0  0  0  0
    1.4292   -3.6250    0.0000 C   0  0  0  0  0  0  0  0  0  0  0  0
   -0.4458   -1.2667    0.0000 C   0  0  0  0  0  0  0  0  0  0  0  0
    2.0417   -3.9750    0.0000 C   0  0  0  0  0  0  0  0  0  0  0  0
    1.6250   -2.3750    0.0000 C   0  0  0  0  0  0  0  0  0  0  0  0
    0.5417   -1.7750    0.0000 C   0  0  0  0  0  0  0  0  0  0  0  0
   -1.1583   -1.2667    0.0000 C   0  0  0  0  0  0  0  0  0  0  0  0
    1.4292   -5.0417    0.0000 C   0  0  0  0  0  0  0  0  0  0  0  0
    1.2542   -1.7625    0.0000 C   0  0  0  0  0  0  0  0  0  0  0  0
    2.0417   -4.6875    0.0000 C   0  0  0  0  0  0  0  0  0  0  0  0
  2  1  1  0
  3  1  1  0
  4  5  2  0
  5  2  1  0
  6  2  1  0
  7  3  2  0
  8  6  2  0
  9  1  1  0
 10  1  1  0
 11  7  1  0
 12  3  1  0
 13  7  1  0
 14  9  2  0
 15 10  2  0
 16 10  1  0
 17  9  1  0
 18 12  2  0
 19 17  2  0
 20 15  1  0
 21 16  2  0
 22 18  1  0
 23 14  1  0
 24 21  1  0
 25 19  1  0
  4  8  1  0
 24 20  2  0
 25 23  2  0
 13 22  2  0
M  END
> <chembl_id>
CHEMBL104

> <chembl_pref_name>
CLOTRIMAZOLE
