
     RDKit          2D

 24 26  0  0  0  0  0  0  0  0999 V2000
    2.8875   -7.9042    0.0000 S   0  0  0  0  0  0  0  0  0  0  0  0
    1.0792  -11.1125    0.0000 N   0  0  0  0  0  0  0  0  0  0  0  0
    2.2750   -8.2667    0.0000 C   0  0  0  0  0  0  0  0  0  0  0  0
    1.0750  -10.4042    0.0000 N   0  0  0  0  0  0  0  0  0  0  0  0
    1.6833  -10.0417    0.0000 C   0  0  0  0  0  0  0  0  0  0  0  0
    0.4083  -11.3375    0.0000 C   0  0  0  0  0  0  0  0  0  0  0  0
    2.2833   -8.9750    0.0000 C   0  0  0  0  0  0  0  0  0  0  0  0
    1.5042  -11.6833    0.0000 C   0  0  0  0  0  0  0  0  0  0  0  0
    0.4125  -12.0458    0.0000 C   0  0  0  0  0  0  0  0  0  0  0  0
    1.6750   -9.3333    0.0000 C   0  0  0  0  0  0  0  0  0  0  0  0
    1.0875  -12.2625    0.0000 C   0  0  0  0  0  0  0  0  0  0  0  0
    1.6583   -7.9167    0.0000 C   0  0  0  0  0  0  0  0  0  0  0  0
    3.2375   -7.2875    0.0000 O   0  0  0  0  0  0  0  0  0  0  0  0
    2.5292   -7.2875    0.0000 O   0  0  0  0  0  0  0  0  0  0  0  0
    3.5042   -8.2542    0.0000 N   0  0  0  0  0  0  0  0  0  0  0  0
    2.3000  -10.3875    0.0000 O   0  0  0  0  0  0  0  0  0  0  0  0
    1.0583   -8.9917    0.0000 C   0  0  0  0  0  0  0  0  0  0  0  0
    1.0458   -8.2833    0.0000 C   0  0  0  0  0  0  0  0  0  0  0  0
    1.6500   -7.2125    0.0000 Cl  0  0  0  0  0  0  0  0  0  0  0  0
   -0.2042  -10.9833    0.0000 C   0  0  0  0  0  0  0  0  0  0  0  0
   -0.2042  -12.4042    0.0000 C   0  0  0  0  0  0  0  0  0  0  0  0
    2.2125  -11.6792    0.0000 C   0  0  0  0  0  0  0  0  0  0  0  0
   -0.8167  -11.3375    0.0000 C   0  0  0  0  0  0  0  0  0  0  0  0
   -0.8167  -12.0500    0.0000 C   0  0  0  0  0  0  0  0  0  0  0  0
  2  4  1  0
  3  1  1  0
  4  5  1  0
  5 10  1  0
  6  2  1  0
  7  3  1  0
  8  2  1  0
  9  6  1  0
 10  7  2  0
 11  8  1  0
 12  3  2  0
 13  1  2  0
 14  1  2  0
 15  1  1  0
 16  5  2  0
 17 18  2  0
 18 12  1  0
 19 12  1  0
 20  6  2  0
 21  9  2  0
 22  8  1  0
 23 20  1  0
 24 21  1  0
 10 17  1  0
 11  9  1  0
 24 23  2  0
M  END
> <chembl_id>
CHEMBL406

> <chembl_pref_name>
INDAPAMIDE
