
     RDKit          2D

 31 33  0  0  1  0  0  0  0  0999 V2000
    4.5750   -8.0167    0.0000 C   0  0  0  0  0  0  0  0  0  0  0  0
    3.9625   -8.3667    0.0000 C   0  0  0  0  0  0  0  0  0  0  0  0
    4.5792   -7.3042    0.0000 N   0  0  0  0  0  0  0  0  0  0  0  0
    5.1792   -8.3667    0.0000 N   0  0  0  0  0  0  0  0  0  0  0  0
    3.3500   -8.0125    0.0000 N   0  0  0  0  0  0  0  0  0  0  0  0
    4.5667   -9.4167    0.0000 N   0  0  0  0  0  0  0  0  0  0  0  0
    3.9542   -9.0667    0.0000 C   0  0  0  0  0  0  0  0  0  0  0  0
    5.1792   -9.0750    0.0000 C   0  0  0  0  0  0  0  0  0  0  0  0
    3.9667   -6.9542    0.0000 C   0  0  0  0  0  0  0  0  0  0  0  0
    3.3542   -7.3042    0.0000 C   0  0  0  0  0  0  0  0  0  0  0  0
    8.8750   -6.9667    0.0000 P   0  0  0  0  0  0  0  0  0  0  0  0
    5.1917   -6.9542    0.0000 C   0  0  0  0  0  0  0  0  0  0  0  0
    3.9667   -6.2500    0.0000 C   0  0  0  0  0  0  0  0  0  0  0  0
    5.8042   -7.3125    0.0000 C   0  0  0  0  0  0  0  0  0  0  0  0
    6.4167   -6.9542    0.0000 C   0  0  0  0  0  0  0  0  0  0  0  0
    2.7417   -6.9542    0.0000 C   0  0  0  0  0  0  0  0  0  0  0  0
    3.3542   -5.8917    0.0000 C   0  0  0  0  0  0  0  0  0  0  0  0
    2.7417   -6.2500    0.0000 C   0  0  0  0  0  0  0  0  0  0  0  0
    7.0292   -7.3125    0.0000 C   0  0  0  0  0  0  0  0  0  0  0  0
    8.2542   -7.3167    0.0000 O   0  0  0  0  0  0  0  0  0  0  0  0
    9.4875   -7.3167    0.0000 O   0  0  0  0  0  0  0  0  0  0  0  0
    7.6417   -6.9625    0.0000 C   0  0  0  0  0  0  0  0  0  0  0  0
    3.3417   -9.4167    0.0000 O   0  0  0  0  0  0  0  0  0  0  0  0
    8.5167   -6.3500    0.0000 O   0  0  0  0  0  0  0  0  0  0  0  0
    5.7917   -9.4292    0.0000 O   0  0  0  0  0  0  0  0  0  0  0  0
    9.2250   -6.3500    0.0000 O   0  0  0  0  0  0  0  0  0  0  0  0
    5.8042   -8.0167    0.0000 O   0  0  0  0  0  0  0  0  0  0  0  0
    6.4167   -6.2500    0.0000 O   0  0  0  0  0  0  0  0  0  0  0  0
    7.0292   -8.0167    0.0000 O   0  0  0  0  0  0  0  0  0  0  0  0
    3.3542   -5.1875    0.0000 C   0  0  0  0  0  0  0  0  0  0  0  0
    2.1292   -5.8917    0.0000 C   0  0  0  0  0  0  0  0  0  0  0  0
  2  1  1  0
  3  1  1  0
  4  1  2  0
  5  2  2  0
  6  8  1  0
  7  2  1  0
  8  4  1  0
  9  3  1  0
 10  9  1  0
 11 20  1  0
 12  3  1  0
 13  9  2  0
 14 12  1  0
 15 14  1  0
 16 10  2  0
 17 13  1  0
 18 17  2  0
 19 15  1  0
 20 22  1  0
 21 11  1  0
 22 19  1  0
 23  7  2  0
 24 11  2  0
 25  8  2  0
 26 11  1  0
 14 27  1  1
 15 28  1  6
 19 29  1  1
 30 17  1  0
 31 18  1  0
  6  7  1  0
 10  5  1  0
 16 18  1  0
M  END
> <chembl_id>
CHEMBL1201794

> <chembl_pref_name>
RIBOFLAVIN 5'-PHOSPHATE
