
     RDKit          2D

 24 28  0  0  0  0  0  0  0  0999 V2000
   -8.6045  -17.2190    0.0000 C   0  0  0  0  0  0  0  0  0  0  0  0
  -10.1417  -17.2190    0.0000 C   0  0  0  0  0  0  0  0  0  0  0  0
   -7.8404  -15.8819    0.0000 C   0  0  0  0  0  0  0  0  0  0  0  0
  -10.9058  -18.5561    0.0000 C   0  0  0  0  0  0  0  0  0  0  0  0
   -7.8496  -18.5561    0.0000 C   0  0  0  0  0  0  0  0  0  0  0  0
   -9.4504  -19.3202    0.0000 O   0  0  0  0  0  0  0  0  0  0  0  0
   -8.6045  -14.5630    0.0000 C   0  0  0  0  0  0  0  0  0  0  0  0
  -10.9058  -15.8819    0.0000 C   0  0  0  0  0  0  0  0  0  0  0  0
   -6.2942  -15.9000    0.0000 C   0  0  0  0  0  0  0  0  0  0  0  0
  -10.1417  -14.5448    0.0000 C   0  0  0  0  0  0  0  0  0  0  0  0
   -7.8223  -13.2259    0.0000 N   0  0  0  0  0  0  0  0  0  0  0  0
   -9.3958  -15.8728    0.0000 C   0  0  0  0  0  0  0  0  0  0  0  0
   -5.5482  -17.2371    0.0000 C   0  0  0  0  0  0  0  0  0  0  0  0
   -6.3123  -18.5561    0.0000 C   0  0  0  0  0  0  0  0  0  0  0  0
  -12.4520  -18.5561    0.0000 C   0  0  0  0  0  0  0  0  0  0  0  0
   -9.3777  -13.2259    0.0000 C   0  0  0  0  0  0  0  0  0  0  0  0
  -12.4520  -15.8819    0.0000 C   0  0  0  0  0  0  0  0  0  0  0  0
  -13.2161  -17.2190    0.0000 C   0  0  0  0  0  0  0  0  0  0  0  0
  -13.2252  -19.8932    0.0000 O   0  0  0  0  0  0  0  0  0  0  0  0
   -5.5482  -19.9113    0.0000 O   0  0  0  0  0  0  0  0  0  0  0  0
   -6.4852  -12.4437    0.0000 C   0  0  0  0  0  0  0  0  0  0  0  0
   -9.0969  -13.6926    0.0000 H   0  0  0  0  0  0  0  0  0  0  0  0
   -7.6288  -19.5314    0.0000 H   0  0  0  0  0  0  0  0  0  0  0  0
   -7.3360  -15.0184    0.0000 H   0  0  0  0  0  0  0  0  0  0  0  0
  2  1  1  0
  3  1  1  0
  4  2  1  0
  5  1  1  0
  5  6  1  0
  7  3  1  0
  8  2  2  0
  9  3  1  0
 10  7  1  0
  7 11  1  0
  1 12  1  1
 13 14  1  0
 14  5  1  0
 15  4  2  0
 16 12  1  0
 17  8  1  0
 18 15  1  0
 19 15  1  0
 14 20  1  6
 21 11  1  0
  6  4  1  0
 16 11  1  0
  9 13  2  0
 10  8  1  0
 17 18  2  0
  7 22  1  6
  5 23  1  1
  3 24  1  1
M  END
> <chembl_id>
CHEMBL70

> <chembl_pref_name>
MORPHINE
