
     RDKit          2D

 63 65  0  0  0  0  0  0  0  0999 V2000
    6.2411   -2.4025    0.0000 O   0  0  0  0  0  0  0  0  0  0  0  0
    1.0016    0.0177    0.0000 C   0  0  0  0  0  0  0  0  0  0  0  0
    1.8410   -0.2327    0.0000 C   0  0  0  0  0  0  0  0  0  0  0  0
    2.7093   -0.0728    0.0000 C   0  0  0  0  0  0  0  0  0  0  0  0
    3.1379   -0.7778    0.0000 C   0  0  0  0  0  0  0  0  0  0  0  0
    3.9627   -0.7591    0.0000 C   0  0  0  0  0  0  0  0  0  0  0  0
    4.3589   -0.0354    0.0000 C   0  0  0  0  0  0  0  0  0  0  0  0
    3.9303    0.6695    0.0000 C   0  0  0  0  0  0  0  0  0  0  0  0
    3.1055    0.6508    0.0000 C   0  0  0  0  0  0  0  0  0  0  0  0
    2.3935    0.7841    0.0000 C   0  0  0  0  0  0  0  0  0  0  0  0
    1.4451    0.8351    0.0000 C   0  0  0  0  0  0  0  0  0  0  0  0
    0.8282    0.4936    0.0000 C   0  0  0  0  0  0  0  0  0  0  0  0
   -0.0655    0.6853    0.0000 C   0  0  0  0  0  0  0  0  0  0  0  0
   -0.5304    0.1749    0.0000 C   0  0  0  0  0  0  0  0  0  0  0  0
    0.2816   -0.2665    0.0000 C   0  0  0  0  0  0  0  0  0  0  0  0
    1.0137    1.2144    0.0000 C   0  0  0  0  0  0  0  0  0  0  0  0
    1.1837    2.0217    0.0000 C   0  0  0  0  0  0  0  0  0  0  0  0
    0.5658    1.9072    0.0000 C   0  0  0  0  0  0  0  0  0  0  0  0
   -0.3175    1.4708    0.0000 C   0  0  0  0  0  0  0  0  0  0  0  0
    3.1724    1.4731    0.0000 C   0  0  0  0  0  0  0  0  0  0  0  0
    3.1566   -1.6026    0.0000 C   0  0  0  0  0  0  0  0  0  0  0  0
    1.0371   -0.8066    0.0000 O   0  0  0  0  0  0  0  0  0  0  0  0
    1.7966   -1.0565    0.0000 O   0  0  0  0  0  0  0  0  0  0  0  0
    2.3461   -1.0093    0.0000 O   0  0  0  0  0  0  0  0  0  0  0  0
    3.9814   -1.5838    0.0000 O   0  0  0  0  0  0  0  0  0  0  0  0
    4.3265    1.3932    0.0000 O   0  0  0  0  0  0  0  0  0  0  0  0
    2.4918    1.6032    0.0000 O   0  0  0  0  0  0  0  0  0  0  0  0
    1.2603    1.6391    0.0000 O   0  0  0  0  0  0  0  0  0  0  0  0
   -1.3439    0.0377    0.0000 O   0  0  0  0  0  0  0  0  0  0  0  0
   -1.8695    0.6736    0.0000 C   0  0  0  0  0  0  0  0  0  0  0  0
   -1.5815    1.4467    0.0000 O   0  0  0  0  0  0  0  0  0  0  0  0
   -2.6830    0.5364    0.0000 C   0  0  0  0  0  0  0  0  0  0  0  0
   -2.9709   -0.2367    0.0000 O   0  0  0  0  0  0  0  0  0  0  0  0
   -3.2085    1.1724    0.0000 C   0  0  0  0  0  0  0  0  0  0  0  0
   -2.9206    1.9455    0.0000 C   0  0  0  0  0  0  0  0  0  0  0  0
   -3.4461    2.5814    0.0000 C   0  0  0  0  0  0  0  0  0  0  0  0
   -3.1582    3.3545    0.0000 C   0  0  0  0  0  0  0  0  0  0  0  0
   -2.3447    3.4917    0.0000 C   0  0  0  0  0  0  0  0  0  0  0  0
   -1.8191    2.8558    0.0000 C   0  0  0  0  0  0  0  0  0  0  0  0
   -2.1071    2.0827    0.0000 C   0  0  0  0  0  0  0  0  0  0  0  0
   -4.0221    1.0352    0.0000 N   0  0  0  0  0  0  0  0  0  0  0  0
   -4.3100    0.2621    0.0000 C   0  0  0  0  0  0  0  0  0  0  0  0
   -3.7845   -0.3738    0.0000 O   0  0  0  0  0  0  0  0  0  0  0  0
   -5.1235    0.1249    0.0000 O   0  0  0  0  0  0  0  0  0  0  0  0
   -5.6491    0.7608    0.0000 C   0  0  0  0  0  0  0  0  0  0  0  0
   -6.1746    1.3968    0.0000 C   0  0  0  0  0  0  0  0  0  0  0  0
   -6.2850    0.2353    0.0000 C   0  0  0  0  0  0  0  0  0  0  0  0
   -5.0132    1.2864    0.0000 C   0  0  0  0  0  0  0  0  0  0  0  0
    1.0609   -1.4300    0.0000 C   0  0  0  0  0  0  0  0  0  0  0  0
    0.3697   -0.9796    0.0000 O   0  0  0  0  0  0  0  0  0  0  0  0
    1.0165   -2.2538    0.0000 C   0  0  0  0  0  0  0  0  0  0  0  0
    1.7077   -2.7041    0.0000 C   0  0  0  0  0  0  0  0  0  0  0  0
    1.6632   -3.5279    0.0000 C   0  0  0  0  0  0  0  0  0  0  0  0
    0.9276   -3.9014    0.0000 C   0  0  0  0  0  0  0  0  0  0  0  0
    0.2364   -3.4510    0.0000 C   0  0  0  0  0  0  0  0  0  0  0  0
    0.2808   -2.6272    0.0000 C   0  0  0  0  0  0  0  0  0  0  0  0
    2.1507   -1.8108    0.0000 C   0  0  0  0  0  0  0  0  0  0  0  0
    2.7471   -2.3808    0.0000 O   0  0  0  0  0  0  0  0  0  0  0  0
    1.3588   -2.0424    0.0000 C   0  0  0  0  0  0  0  0  0  0  0  0
    4.7642   -0.9544    0.0000 H   0  0  0  0  0  0  0  0  0  0  0  0
    2.1348   -0.6650    0.0000 H   0  0  0  0  0  0  0  0  0  0  0  0
    4.7775   -3.9214    0.0000 O   0  0  0  0  0  0  0  0  0  0  0  0
    5.3298   -3.1758    0.0000 O   0  0  0  0  0  0  0  0  0  0  0  0
  2  3  1  0
  2 15  1  0
  2 16  1  0
  2 22  1  1
  3  4  1  0
  3 23  1  6
  4  5  1  0
  4  9  1  0
  5  6  1  0
 21  5  1  0
  5 24  1  6
  6  7  1  0
  6 25  1  0
  7  8  1  0
  8  9  1  0
  8 26  1  1
  9 10  1  0
  9 20  1  1
 11 10  1  0
 10 27  2  0
 11 12  1  0
 11 28  1  1
 12 13  2  0
 12 16  1  0
 13 14  1  0
 13 19  1  0
 14 15  1  0
 14 29  1  6
 16 17  1  0
 16 18  1  0
 21 25  1  0
 49 23  1  0
 57 24  1  0
 30 29  1  0
 30 31  2  0
 30 32  1  0
 32 33  1  6
 32 34  1  0
 34 35  1  0
 34 41  1  1
 35 36  1  0
 35 40  2  0
 36 37  2  0
 37 38  1  0
 38 39  2  0
 39 40  1  0
 42 41  1  0
 42 43  2  0
 42 44  1  0
 45 44  1  0
 45 46  1  0
 45 47  1  0
 45 48  1  0
 49 50  2  0
 49 51  1  0
 51 52  2  0
 51 56  1  0
 52 53  1  0
 53 54  2  0
 54 55  1  0
 55 56  2  0
 57 58  2  0
 57 59  1  0
  6 60  1  6
  4 61  1  6
M  END
> <chembl_id>
CHEMBL3545252

> <chembl_pref_name>
DOCETAXEL
