
     RDKit          2D

 31 35  0  0  1  0  0  0  0  0999 V2000
    2.8625   -1.8792    0.0000 N   0  0  0  0  0  0  0  0  0  0  0  0
    3.4875   -0.8125    0.0000 C   0  0  0  0  0  0  0  0  0  0  0  0
    2.2500   -1.5250    0.0000 C   0  0  0  0  0  0  0  0  0  0  0  0
    1.6375   -1.8792    0.0000 C   0  0  0  0  0  0  0  0  0  0  0  0
    2.2500   -0.8125    0.0000 C   0  0  0  0  0  0  0  0  0  0  0  0
    3.4875   -1.5292    0.0000 C   0  0  0  0  0  0  0  0  0  0  0  0
    0.4125   -1.8792    0.0000 N   0  0  0  0  0  0  0  0  0  0  0  0
    2.8667   -0.4500    0.0000 C   0  0  0  0  0  0  0  0  0  0  0  0
    1.0250   -1.5250    0.0000 C   0  0  0  0  0  0  0  0  0  0  0  0
    1.0250   -0.8125    0.0000 C   0  0  0  0  0  0  0  0  0  0  0  0
    2.8667   -2.5917    0.0000 C   0  0  0  0  0  0  0  0  0  0  0  0
    1.6375   -0.4542    0.0000 C   0  0  0  0  0  0  0  0  0  0  0  0
    4.1000   -0.4542    0.0000 C   0  0  0  0  0  0  0  0  0  0  0  0
   -0.5208   -2.5500    0.0000 C   0  0  0  0  0  0  0  0  0  0  0  0
    1.6417   -2.5875    0.0000 C   0  0  0  0  0  0  0  0  0  0  0  0
   -0.7375   -1.8792    0.0000 C   0  0  0  0  0  0  0  0  0  0  0  0
    0.1917   -2.5500    0.0000 C   0  0  0  0  0  0  0  0  0  0  0  0
   -0.1625   -1.4542    0.0000 C   0  0  0  0  0  0  0  0  0  0  0  0
    2.5042   -3.2042    0.0000 C   0  0  0  0  0  0  0  0  0  0  0  0
    3.2167   -3.2042    0.0000 C   0  0  0  0  0  0  0  0  0  0  0  0
    1.6375   -3.2917    0.0000 N   0  0  0  0  0  0  0  0  0  0  0  0
   -0.9875   -3.0792    0.0000 N   0  0  0  0  0  0  0  0  0  0  0  0
    2.8667    0.2583    0.0000 O   0  0  0  0  0  0  0  0  0  0  0  0
   -1.4250   -1.7292    0.0000 O   0  0  0  0  0  0  0  0  0  0  0  0
    4.1000    0.2500    0.0000 O   0  0  0  0  0  0  0  0  0  0  0  0
    0.4125   -0.4542    0.0000 F   0  0  0  0  0  0  0  0  0  0  0  0
    4.7125   -0.8125    0.0000 O   0  0  0  0  0  0  0  0  0  0  0  0
   -1.6833   -2.9292    0.0000 C   0  0  0  0  0  0  0  0  0  0  0  0
   -1.9083   -2.2542    0.0000 C   0  0  0  0  0  0  0  0  0  0  0  0
   -0.9208   -1.1917    0.0000 H   0  0  0  0  0  0  0  0  0  0  0  0
   -0.1708   -3.1625    0.0000 H   0  0  0  0  0  0  0  0  0  0  0  0
  2  6  2  0
  3  1  1  0
  4  3  2  0
  5  3  1  0
  6  1  1  0
  7  9  1  0
  8  2  1  0
  9  4  1  0
 10 12  1  0
 11  1  1  0
 12  5  2  0
 13  2  1  0
 14 17  1  0
 15  4  1  0
 16 18  1  0
 17  7  1  0
 18  7  1  0
 19 11  1  0
 20 11  1  0
 21 15  3  0
 22 14  1  0
 23  8  2  0
 24 16  1  0
 25 13  2  0
 26 10  1  0
 27 13  1  0
 28 22  1  0
 29 24  1  0
 16 30  1  6
 14 31  1  1
 19 20  1  0
  8  5  1  0
  9 10  2  0
 16 14  1  0
 28 29  1  0
M  END
> <chembl_id>
CHEMBL1908370

> <chembl_pref_name>
FINAFLOXACIN
