
     RDKit          2D

 30 31  0  0  0  0  0  0  0  0999 V2000
    5.4792  -11.8542    0.0000 C   0  0  0  0  0  0  0  0  0  0  0  0
    4.8667  -11.5000    0.0000 C   0  0  0  0  0  0  0  0  0  0  0  0
    4.8667  -10.7917    0.0000 O   0  0  0  0  0  0  0  0  0  0  0  0
    5.4792  -12.5625    0.0000 O   0  0  0  0  0  0  0  0  0  0  0  0
    6.0958  -11.5000    0.0000 O   0  0  0  0  0  0  0  0  0  0  0  0
    4.2542  -11.8542    0.0000 O   0  0  0  0  0  0  0  0  0  0  0  0
    0.3042  -11.0208    0.0000 C   0  0  0  0  0  0  0  0  0  0  0  0
   -0.3708  -11.2458    0.0000 C   0  0  0  0  0  0  0  0  0  0  0  0
    0.7292  -11.5958    0.0000 O   0  0  0  0  0  0  0  0  0  0  0  0
   -0.3667  -11.9583    0.0000 C   0  0  0  0  0  0  0  0  0  0  0  0
   -2.8250  -12.6625    0.0000 N   0  0  0  0  0  0  0  0  0  0  0  0
    0.3000  -10.3125    0.0000 C   0  0  0  0  0  0  0  0  0  0  0  0
   -2.2083  -12.3125    0.0000 C   0  0  0  0  0  0  0  0  0  0  0  0
   -0.9833  -10.8917    0.0000 C   0  0  0  0  0  0  0  0  0  0  0  0
    0.3125  -12.1750    0.0000 C   0  0  0  0  0  0  0  0  0  0  0  0
   -0.9833  -12.3125    0.0000 C   0  0  0  0  0  0  0  0  0  0  0  0
   -1.5958  -11.9583    0.0000 C   0  0  0  0  0  0  0  0  0  0  0  0
    0.9083   -9.9500    0.0000 C   0  0  0  0  0  0  0  0  0  0  0  0
   -0.3167   -9.9667    0.0000 C   0  0  0  0  0  0  0  0  0  0  0  0
   -1.5958  -11.2500    0.0000 C   0  0  0  0  0  0  0  0  0  0  0  0
    0.2833   -8.8958    0.0000 C   0  0  0  0  0  0  0  0  0  0  0  0
    0.9167  -10.6625    0.0000 C   0  0  0  0  0  0  0  0  0  0  0  0
    2.7583  -11.0000    0.0000 N   0  0  0  0  0  0  0  0  0  0  0  0
   -0.3292   -9.2583    0.0000 C   0  0  0  0  0  0  0  0  0  0  0  0
    0.9042   -9.2417    0.0000 C   0  0  0  0  0  0  0  0  0  0  0  0
    0.2750   -8.1875    0.0000 F   0  0  0  0  0  0  0  0  0  0  0  0
    1.5292  -11.0083    0.0000 C   0  0  0  0  0  0  0  0  0  0  0  0
    2.1417  -10.6500    0.0000 C   0  0  0  0  0  0  0  0  0  0  0  0
    3.3667  -10.6375    0.0000 C   0  0  0  0  0  0  0  0  0  0  0  0
    2.7625  -11.7083    0.0000 C   0  0  0  0  0  0  0  0  0  0  0  0
  2  1  1  0
  3  2  2  0
  4  1  2  0
  5  1  1  0
  6  2  1  0
  8  7  1  0
  9  7  1  0
 10  8  1  0
 11 13  3  0
 12  7  1  0
 13 17  1  0
 14  8  2  0
 15  9  1  0
 16 10  2  0
 17 16  1  0
 18 12  2  0
 19 12  1  0
 20 14  1  0
 21 24  1  0
  7 22  1  1
 23 28  1  0
 24 19  2  0
 25 18  1  0
 26 21  1  0
 27 22  1  0
 28 27  1  0
 29 23  1  0
 30 23  1  0
 15 10  1  0
 21 25  2  0
 17 20  2  0
M  END
> <chembl_id>
CHEMBL1200322

> <chembl_pref_name>
ESCITALOPRAM OXALATE
