
     RDKit          2D

 27 29  0  0  0  0  0  0  0  0999 V2000
    0.8227   -2.6246    0.0000 C   0  0  0  0  0  0  0  0  0  0  0  0
    1.5268   -1.3943    0.0000 C   0  0  0  0  0  0  0  0  0  0  0  0
    2.2503   -1.7965    0.0000 C   0  0  0  0  0  0  0  0  0  0  0  0
    3.0072   -1.4011    0.0000 C   0  0  0  0  0  0  0  0  0  0  0  0
    3.6678   -1.7837    0.0000 N   0  0  0  0  0  0  0  0  0  0  0  0
    2.2489   -2.6215    0.0000 C   0  0  0  0  0  0  0  0  0  0  0  0
    1.5329   -3.0303    0.0000 C   0  0  0  0  0  0  0  0  0  0  0  0
    0.8272   -1.7971    0.0000 C   0  0  0  0  0  0  0  0  0  0  0  0
    5.8195   -1.3868    0.0000 C   0  0  0  0  0  0  0  0  0  0  0  0
    5.0886   -1.7915    0.0000 N   0  0  0  0  0  0  0  0  0  0  0  0
    4.3893   -1.3851    0.0000 C   0  0  0  0  0  0  0  0  0  0  0  0
    4.3912   -0.5556    0.0000 C   0  0  0  0  0  0  0  0  0  0  0  0
    5.0996   -0.1475    0.0000 C   0  0  0  0  0  0  0  0  0  0  0  0
    5.8163   -0.5682    0.0000 C   0  0  0  0  0  0  0  0  0  0  0  0
    6.4805   -1.7798    0.0000 C   0  0  0  0  0  0  0  0  0  0  0  0
    7.2359   -1.3902    0.0000 C   0  0  0  0  0  0  0  0  0  0  0  0
    7.2400   -0.5557    0.0000 C   0  0  0  0  0  0  0  0  0  0  0  0
    7.9480   -0.1479    0.0000 C   0  0  0  0  0  0  0  0  0  0  0  0
    8.6560   -0.5483    0.0000 N   0  0  0  0  0  0  0  0  0  0  0  0
    8.6666   -1.3844    0.0000 C   0  0  0  0  0  0  0  0  0  0  0  0
    7.9522   -1.7973    0.0000 C   0  0  0  0  0  0  0  0  0  0  0  0
    9.4938   -0.1390    0.0000 C   0  0  0  0  0  0  0  0  0  0  0  0
    3.0252   -0.5763    0.0000 O   0  0  0  0  0  0  0  0  0  0  0  0
    1.5268   -0.5693    0.0000 F   0  0  0  0  0  0  0  0  0  0  0  0
    0.1082   -3.0371    0.0000 F   0  0  0  0  0  0  0  0  0  0  0  0
    2.8323   -3.2049    0.0000 F   0  0  0  0  0  0  0  0  0  0  0  0
    6.4805   -2.6048    0.0000 O   0  0  0  0  0  0  0  0  0  0  0  0
  1  7  1  0
  1  8  2  0
  2  3  2  0
  3  4  1  0
  4  5  1  0
  5 11  1  0
  6  3  1  0
  7  6  2  0
  8  2  1  0
  9 10  1  0
  9 15  1  0
 11 12  1  0
 11 10  2  0
 12 13  2  0
 13 14  1  0
 14  9  2  0
 16 15  1  0
 16 17  1  0
 17 18  1  0
 19 18  1  0
 19 20  1  0
 19 22  1  0
 20 21  1  0
 21 16  1  0
  4 23  2  0
  2 24  1  0
  1 25  1  0
  6 26  1  0
 15 27  2  0
M  END
> <chembl_id>
CHEMBL3039520

> <chembl_pref_name>
LASMIDITAN
