
     RDKit          2D

 29 30  0  0  0  0  0  0  0  0999 V2000
    2.7792   -3.8917    0.0000 C   0  0  0  0  0  0  0  0  0  0  0  0
    2.7375   -4.7042    0.0000 C   0  0  0  0  0  0  0  0  0  0  0  0
    2.8875   -2.2417    0.0000 N   0  0  0  0  0  0  0  0  0  0  0  0
    2.0542   -1.1917    0.0000 N   0  0  0  0  0  0  0  0  0  0  0  0
    3.5167   -3.5250    0.0000 C   0  0  0  0  0  0  0  0  0  0  0  0
    5.5792   -4.8917    0.0000 C   0  0  0  0  0  0  0  0  0  0  0  0
    5.6375   -4.0667    0.0000 C   0  0  0  0  0  0  0  0  0  0  0  0
    2.8542   -1.4167    0.0000 C   0  0  0  0  0  0  0  0  0  0  0  0
    2.0042   -5.0750    0.0000 C   0  0  0  0  0  0  0  0  0  0  0  0
    2.1000   -3.4292    0.0000 C   0  0  0  0  0  0  0  0  0  0  0  0
    6.2667   -5.3500    0.0000 C   0  0  0  0  0  0  0  0  0  0  0  0
    3.5750   -2.7000    0.0000 C   0  0  0  0  0  0  0  0  0  0  0  0
    4.2042   -3.9792    0.0000 O   0  0  0  0  0  0  0  0  0  0  0  0
    1.6042   -1.8792    0.0000 C   0  0  0  0  0  0  0  0  0  0  0  0
    2.1167   -2.5292    0.0000 C   0  0  0  0  0  0  0  0  0  0  0  0
    4.9500   -3.6125    0.0000 C   0  0  0  0  0  0  0  0  0  0  0  0
    6.3667   -3.7042    0.0000 C   0  0  0  0  0  0  0  0  0  0  0  0
    1.3042   -4.6167    0.0000 C   0  0  0  0  0  0  0  0  0  0  0  0
    7.0042   -4.9792    0.0000 C   0  0  0  0  0  0  0  0  0  0  0  0
    3.4292   -5.1625    0.0000 Cl  0  0  0  0  0  0  0  0  0  0  0  0
    4.8417   -5.2542    0.0000 Cl  0  0  0  0  0  0  0  0  0  0  0  0
    1.3625   -3.7917    0.0000 C   0  0  0  0  0  0  0  0  0  0  0  0
    7.0542   -4.1542    0.0000 C   0  0  0  0  0  0  0  0  0  0  0  0
    7.6917   -5.4375    0.0000 Cl  0  0  0  0  0  0  0  0  0  0  0  0
    0.5667   -4.9875    0.0000 Cl  0  0  0  0  0  0  0  0  0  0  0  0
    9.0042   -4.1917    0.0000 N   0  0  0  0  0  0  0  0  0  0  0  0
    9.4167   -4.9042    0.0000 O   0  0  0  0  0  0  0  0  0  0  0  0
    8.1792   -4.1917    0.0000 O   0  0  0  0  0  0  0  0  0  0  0  0
    9.4250   -3.4792    0.0000 O   0  0  0  0  0  0  0  0  0  0  0  0
  2  1  1  0
  3 12  1  0
  4  8  2  0
  5  1  1  0
  6  7  2  0
  7 16  1  0
  8  3  1  0
  9  2  2  0
 10  1  2  0
 11  6  1  0
 12  5  1  0
 13  5  1  0
 14 15  2  0
 15  3  1  0
 16 13  1  0
 17  7  1  0
 18 22  2  0
 19 23  1  0
 20  2  1  0
 21  6  1  0
 22 10  1  0
 23 17  2  0
 24 19  1  0
 25 18  1  0
 18  9  1  0
  4 14  1  0
 11 19  2  0
 27 26  1  0
 28 26  2  0
 29 26  1  0
M  CHG  2  26   1  27  -1
M  END
> <chembl_id>
CHEMBL1559

> <chembl_pref_name>
MICONAZOLE NITRATE
