
     RDKit          2D

 45 46  0  0  0  0  0  0  0  0999 V2000
    4.1068   -0.6481    0.0000 C   0  0  0  0  0  0  0  0  0  0  0  0
    5.5175   -0.6481    0.0000 C   0  0  0  0  0  0  0  0  0  0  0  0
    3.4039   -1.0546    0.0000 C   0  0  0  0  0  0  0  0  0  0  0  0
    4.8145   -1.0546    0.0000 C   0  0  0  0  0  0  0  0  0  0  0  0
    5.5175    0.1647    0.0000 O   0  0  0  0  0  0  0  0  0  0  0  0
    3.4039   -1.8675    0.0000 O   0  0  0  0  0  0  0  0  0  0  0  0
    6.2204   -1.0546    0.0000 O   0  0  0  0  0  0  0  0  0  0  0  0
    2.7010   -0.6481    0.0000 O   0  0  0  0  0  0  0  0  0  0  0  0
    4.8145   -1.8675    0.0000 O   0  0  0  0  0  0  0  0  0  0  0  0
    1.1811   -2.8834    0.0000 N   0  0  0  0  0  0  0  0  0  0  0  0
    0.4734   -3.2898    0.0000 C   0  0  0  0  0  0  0  0  0  0  0  0
    1.1668   -4.4948    0.0000 S   0  0  0  0  0  0  0  0  0  0  0  0
    1.8984   -3.3185    0.0000 C   0  0  0  0  0  0  0  0  0  0  0  0
    0.4926   -4.1362    0.0000 C   0  0  0  0  0  0  0  0  0  0  0  0
    1.8792   -4.0883    0.0000 C   0  0  0  0  0  0  0  0  0  0  0  0
   -0.2439   -2.8595    0.0000 C   0  0  0  0  0  0  0  0  0  0  0  0
   -0.2534   -0.4065    0.0000 N   0  0  0  0  0  0  0  0  0  0  0  0
   -1.6592    0.3825    0.0000 N   0  0  0  0  0  0  0  0  0  0  0  0
   -0.2247   -4.5474    0.0000 C   0  0  0  0  0  0  0  0  0  0  0  0
    1.1668   -2.0418    0.0000 C   0  0  0  0  0  0  0  0  0  0  0  0
   -0.9563   -3.2755    0.0000 C   0  0  0  0  0  0  0  0  0  0  0  0
   -1.6449   -0.4495    0.0000 C   0  0  0  0  0  0  0  0  0  0  0  0
   -0.9468    0.7985    0.0000 C   0  0  0  0  0  0  0  0  0  0  0  0
   -0.2247    0.3682    0.0000 C   0  0  0  0  0  0  0  0  0  0  0  0
   -0.9563   -0.8177    0.0000 C   0  0  0  0  0  0  0  0  0  0  0  0
    0.4877   -1.6784    0.0000 C   0  0  0  0  0  0  0  0  0  0  0  0
   -1.6353   -2.9025    0.0000 S   0  0  0  0  0  0  0  0  0  0  0  0
   -0.9420   -4.1075    0.0000 C   0  0  0  0  0  0  0  0  0  0  0  0
    0.4734   -0.8368    0.0000 C   0  0  0  0  0  0  0  0  0  0  0  0
    2.6108   -2.9025    0.0000 C   0  0  0  0  0  0  0  0  0  0  0  0
    2.6013   -4.5187    0.0000 C   0  0  0  0  0  0  0  0  0  0  0  0
   -2.3765    0.8177    0.0000 C   0  0  0  0  0  0  0  0  0  0  0  0
   -2.3526   -3.3137    0.0000 C   0  0  0  0  0  0  0  0  0  0  0  0
    3.2898   -3.2707    0.0000 C   0  0  0  0  0  0  0  0  0  0  0  0
   -3.0363   -2.9456    0.0000 C   0  0  0  0  0  0  0  0  0  0  0  0
    3.3042   -4.1075    0.0000 C   0  0  0  0  0  0  0  0  0  0  0  0
    5.6089   -3.2850    0.0000 C   0  0  0  0  0  0  0  0  0  0  0  0
    7.0196   -3.2850    0.0000 C   0  0  0  0  0  0  0  0  0  0  0  0
    4.9060   -3.6915    0.0000 C   0  0  0  0  0  0  0  0  0  0  0  0
    6.3167   -3.6915    0.0000 C   0  0  0  0  0  0  0  0  0  0  0  0
    7.0196   -2.4722    0.0000 O   0  0  0  0  0  0  0  0  0  0  0  0
    4.9060   -4.5044    0.0000 O   0  0  0  0  0  0  0  0  0  0  0  0
    7.7225   -3.6915    0.0000 O   0  0  0  0  0  0  0  0  0  0  0  0
    4.2031   -3.2850    0.0000 O   0  0  0  0  0  0  0  0  0  0  0  0
    6.3167   -4.5044    0.0000 O   0  0  0  0  0  0  0  0  0  0  0  0
  2  4  1  0
  3  1  1  0
  4  1  1  0
  5  2  2  0
  6  3  2  0
  7  2  1  0
  8  3  1  0
  9  4  1  0
 11 10  1  0
 12 15  1  0
 13 10  1  0
 14 11  2  0
 15 13  2  0
 16 11  1  0
 17 29  1  0
 18 23  1  0
 19 14  1  0
 20 10  1  0
 21 16  2  0
 22 25  1  0
 23 24  1  0
 24 17  1  0
 25 17  1  0
 26 20  1  0
 27 21  1  0
 28 21  1  0
 29 26  1  0
 30 13  1  0
 31 15  1  0
 32 18  1  0
 33 27  1  0
 34 30  2  0
 35 33  1  0
 36 31  2  0
 12 14  1  0
 34 36  1  0
 28 19  2  0
 22 18  1  0
 38 40  1  0
 39 37  1  0
 40 37  1  0
 41 38  2  0
 42 39  2  0
 43 38  1  0
 44 39  1  0
 45 40  1  0
M  END
> <chembl_id>
CHEMBL2359670

> <chembl_pref_name>
THIETHYLPERAZINE MALATE
