
     RDKit          2D

 27 29  0  0  1  0  0  0  0  0999 V2000
    5.2750   -3.3667    0.0000 N   0  0  0  0  0  0  0  0  0  0  0  0
    5.2750   -4.0875    0.0000 C   0  0  0  0  0  0  0  0  0  0  0  0
    4.5542   -3.3667    0.0000 C   0  0  0  0  0  0  0  0  0  0  0  0
    4.5542   -4.0875    0.0000 C   0  0  0  0  0  0  0  0  0  0  0  0
    5.9417   -3.1542    0.0000 C   0  0  0  0  0  0  0  0  0  0  0  0
    5.9417   -4.3000    0.0000 S   0  0  0  0  0  0  0  0  0  0  0  0
    6.3542   -3.7292    0.0000 C   0  0  0  0  0  0  0  0  0  0  0  0
    3.9667   -5.1542    0.0000 C   0  0  0  0  0  0  0  0  0  0  0  0
    3.9667   -4.4417    0.0000 N   0  0  0  0  0  0  0  0  0  0  0  0
    3.3542   -5.5250    0.0000 C   0  0  0  0  0  0  0  0  0  0  0  0
    5.9292   -2.4375    0.0000 C   0  0  0  0  0  0  0  0  0  0  0  0
    2.7667   -5.1625    0.0000 C   0  0  0  0  0  0  0  0  0  0  0  0
    4.1167   -2.7500    0.0000 O   0  0  0  0  0  0  0  0  0  0  0  0
    4.5792   -5.5042    0.0000 O   0  0  0  0  0  0  0  0  0  0  0  0
    6.5542   -2.0917    0.0000 O   0  0  0  0  0  0  0  0  0  0  0  0
    3.3750   -6.2167    0.0000 C   0  0  0  0  0  0  0  0  0  0  0  0
    5.3167   -2.0875    0.0000 O   0  0  0  0  0  0  0  0  0  0  0  0
    2.1292   -5.5167    0.0000 O   0  0  0  0  0  0  0  0  0  0  0  0
    2.7417   -4.4667    0.0000 O   0  0  0  0  0  0  0  0  0  0  0  0
    6.9292   -4.1500    0.0000 C   0  0  0  0  0  0  0  0  0  0  0  0
    6.9625   -3.3542    0.0000 C   0  0  0  0  0  0  0  0  0  0  0  0
    3.9667   -6.5542    0.0000 C   0  0  0  0  0  0  0  0  0  0  0  0
    2.7667   -6.5750    0.0000 C   0  0  0  0  0  0  0  0  0  0  0  0
    3.9792   -7.2667    0.0000 C   0  0  0  0  0  0  0  0  0  0  0  0
    2.7667   -7.2667    0.0000 C   0  0  0  0  0  0  0  0  0  0  0  0
    3.3667   -7.6292    0.0000 C   0  0  0  0  0  0  0  0  0  0  0  0
    5.2750   -4.7875    0.0000 H   0  0  0  0  0  0  0  0  0  0  0  0
  2  1  1  0
  3  1  1  0
  4  3  1  0
  5  1  1  0
  6  2  1  0
  7  5  1  0
  8  9  1  0
  4  9  1  6
 10  8  1  0
  5 11  1  1
 12 10  1  0
 13  3  2  0
 14  8  2  0
 15 11  1  0
 16 10  1  0
 17 11  2  0
 18 12  2  0
 19 12  1  0
 20  7  1  0
 21  7  1  0
 22 16  2  0
 23 16  1  0
 24 22  1  0
 25 23  2  0
 26 24  2  0
  2 27  1  1
  6  7  1  0
  2  4  1  0
 25 26  1  0
M  END
> <chembl_id>
CHEMBL1214

> <chembl_pref_name>
CARBENICILLIN
