
     RDKit          2D

 31 35  0  0  0  0  0  0  0  0999 V2000
    1.9915   -6.6281    0.0000 N   0  0  0  0  0  0  0  0  0  0  0  0
    1.2771   -5.3906    0.0000 C   0  0  0  0  0  0  0  0  0  0  0  0
    2.7060   -5.3906    0.0000 N   0  0  0  0  0  0  0  0  0  0  0  0
    1.9915   -4.9781    0.0000 C   0  0  0  0  0  0  0  0  0  0  0  0
    2.7060   -6.2156    0.0000 C   0  0  0  0  0  0  0  0  0  0  0  0
    1.9915   -0.0281    0.0000 C   0  0  0  0  0  0  0  0  0  0  0  0
    1.2771   -0.4406    0.0000 C   0  0  0  0  0  0  0  0  0  0  0  0
    2.7060   -0.4406    0.0000 C   0  0  0  0  0  0  0  0  0  0  0  0
    3.4205   -0.0281    0.0000 F   0  0  0  0  0  0  0  0  0  0  0  0
    2.7060   -1.2656    0.0000 C   0  0  0  0  0  0  0  0  0  0  0  0
    4.1349   -1.2656    0.0000 O   0  0  0  0  0  0  0  0  0  0  0  0
    3.4205   -1.6781    0.0000 C   0  0  0  0  0  0  0  0  0  0  0  0
    3.4205   -2.5031    0.0000 N   0  0  0  0  0  0  0  0  0  0  0  0
    1.9915   -1.6781    0.0000 C   0  0  0  0  0  0  0  0  0  0  0  0
    1.2771   -1.2656    0.0000 C   0  0  0  0  0  0  0  0  0  0  0  0
    2.7060   -2.9156    0.0000 C   0  0  0  0  0  0  0  0  0  0  0  0
    2.7060   -3.7406    0.0000 C   0  0  0  0  0  0  0  0  0  0  0  0
    3.4205   -4.1531    0.0000 C   0  0  0  0  0  0  0  0  0  0  0  0
    3.4205   -4.9781    0.0000 C   0  0  0  0  0  0  0  0  0  0  0  0
    4.1349   -2.9156    0.0000 C   0  0  0  0  0  0  0  0  0  0  0  0
    4.1349   -3.7406    0.0000 C   0  0  0  0  0  0  0  0  0  0  0  0
    4.8494   -4.1531    0.0000 C   0  0  0  0  0  0  0  0  0  0  0  0
    5.5639   -3.7406    0.0000 C   0  0  0  0  0  0  0  0  0  0  0  0
    5.5639   -2.9156    0.0000 C   0  0  0  0  0  0  0  0  0  0  0  0
    4.8494   -2.5031    0.0000 C   0  0  0  0  0  0  0  0  0  0  0  0
    1.9915   -2.5031    0.0000 N   0  0  0  0  0  0  0  0  0  0  0  0
    1.9915   -4.1531    0.0000 N   0  0  0  0  0  0  0  0  0  0  0  0
    1.2771   -6.2156    0.0000 C   0  0  0  0  0  0  0  0  0  0  0  0
    0.4924   -6.4705    0.0000 N   0  0  0  0  0  0  0  0  0  0  0  0
    0.0075   -5.8031    0.0000 C   0  0  0  0  0  0  0  0  0  0  0  0
    0.4924   -5.1356    0.0000 N   0  0  0  0  0  0  0  0  0  0  0  0
  1 28  2  0
  1  5  1  0
  2  4  2  0
  3  4  1  0
  5  3  2  0
  6  7  1  0
  6  8  2  0
  7 15  2  0
  8  9  1  0
 10  8  1  0
 10 12  1  0
 11 12  2  0
 12 13  1  0
 13 20  1  0
 14 10  2  0
 15 14  1  0
 16 13  1  0
 16 17  1  0
 17 18  1  0
 18 19  1  0
 20 25  2  0
 21 20  1  0
 21 22  2  0
 22 23  1  0
 23 24  2  0
 25 24  1  0
 14 26  1  0
 26 16  2  0
 17 27  1  6
  4 27  1  0
  2 31  1  0
 28 29  1  0
 29 30  1  0
 30 31  2  0
  2 28  1  0
M  END
> <chembl_id>
CHEMBL2216870

> <chembl_pref_name>
IDELALISIB
