
     RDKit          2D

 19 19  0  0  0  0  0  0  0  0999 V2000
   -1.7875    0.3708    0.0000 C   0  0  0  0  0  0  0  0  0  0  0  0
   -0.9625   -0.7917    0.0000 C   0  0  0  0  0  0  0  0  0  0  0  0
   -3.1625   -0.0875    0.0000 S   0  0  0  0  0  0  0  0  0  0  0  0
    0.4542   -0.7917    0.0000 N   0  0  0  0  0  0  0  0  0  0  0  0
   -1.7875   -1.9000    0.0000 C   0  0  0  0  0  0  0  0  0  0  0  0
    1.1542   -2.0292    0.0000 C   0  0  0  0  0  0  0  0  0  0  0  0
   -1.3333    1.7208    0.0000 C   0  0  0  0  0  0  0  0  0  0  0  0
   -3.1458   -1.4417    0.0000 C   0  0  0  0  0  0  0  0  0  0  0  0
    0.4292   -3.2375    0.0000 O   0  0  0  0  0  0  0  0  0  0  0  0
   -2.2625    2.7833    0.0000 O   0  0  0  0  0  0  0  0  0  0  0  0
    2.5542   -2.0167    0.0000 C   0  0  0  0  0  0  0  0  0  0  0  0
    0.0292    1.9875    0.0000 O   0  0  0  0  0  0  0  0  0  0  0  0
    3.2792   -0.8250    0.0000 N   0  0  0  0  0  0  0  0  0  0  0  0
   -1.3625   -3.2375    0.0000 C   0  0  0  0  0  0  0  0  0  0  0  0
    2.5667    0.3958    0.0000 C   0  0  0  0  0  0  0  0  0  0  0  0
    3.2417   -3.2667    0.0000 C   0  0  0  0  0  0  0  0  0  0  0  0
    0.6042    3.5958    0.0000 C   0  0  0  0  0  0  0  0  0  0  0  0
    3.2542    1.6333    0.0000 C   0  0  0  0  0  0  0  0  0  0  0  0
    2.5667    2.8833    0.0000 C   0  0  0  0  0  0  0  0  0  0  0  0
  2  1  2  0
  3  1  1  0
  4  2  1  0
  5  2  1  0
  6  4  1  0
  7  1  1  0
  8  3  1  0
  9  6  2  0
 10  7  2  0
 11  6  1  0
 12  7  1  0
 13 11  1  0
 14  5  1  0
 15 13  1  0
 16 11  1  0
 17 12  1  0
 18 15  1  0
 19 18  1  0
  5  8  2  0
M  END
> <chembl_id>
CHEMBL1093

> <chembl_pref_name>
ARTICAINE
