
     RDKit          2D

 27 29  0  0  0  0  0  0  0  0999 V2000
   -0.6125    1.6458    0.0000 C   0  0  0  0  0  0  0  0  0  0  0  0
   -1.5625    1.9458    0.0000 N   0  0  0  0  0  0  0  0  0  0  0  0
   -0.6125    3.2458    0.0000 N   0  0  0  0  0  0  0  0  0  0  0  0
   -0.0458    2.4583    0.0000 C   0  0  0  0  0  0  0  0  0  0  0  0
   -1.5625    2.9375    0.0000 C   0  0  0  0  0  0  0  0  0  0  0  0
   -0.2833    0.6708    0.0000 C   0  0  0  0  0  0  0  0  0  0  0  0
   -0.9458   -0.0750    0.0000 C   0  0  0  0  0  0  0  0  0  0  0  0
   -2.4208    1.4458    0.0000 C   0  0  0  0  0  0  0  0  0  0  0  0
   -2.4208    3.4458    0.0000 C   0  0  0  0  0  0  0  0  0  0  0  0
   -3.2750    1.9458    0.0000 C   0  0  0  0  0  0  0  0  0  0  0  0
    0.9417    2.3625    0.0000 C   0  0  0  0  0  0  0  0  0  0  0  0
   -3.2750    2.9375    0.0000 C   0  0  0  0  0  0  0  0  0  0  0  0
   -0.6125   -1.0167    0.0000 N   0  0  0  0  0  0  0  0  0  0  0  0
   -1.9125    0.1208    0.0000 O   0  0  0  0  0  0  0  0  0  0  0  0
    1.3792    1.4625    0.0000 C   0  0  0  0  0  0  0  0  0  0  0  0
    1.5167    3.1833    0.0000 C   0  0  0  0  0  0  0  0  0  0  0  0
   -4.1583    1.4208    0.0000 Cl  0  0  0  0  0  0  0  0  0  0  0  0
    2.9167    2.1875    0.0000 C   0  0  0  0  0  0  0  0  0  0  0  0
    2.3750    1.3750    0.0000 C   0  0  0  0  0  0  0  0  0  0  0  0
    2.5042    3.0958    0.0000 C   0  0  0  0  0  0  0  0  0  0  0  0
    3.9375    2.1000    0.0000 Cl  0  0  0  0  0  0  0  0  0  0  0  0
    0.3500   -1.1917    0.0000 C   0  0  0  0  0  0  0  0  0  0  0  0
   -1.2750   -1.7667    0.0000 C   0  0  0  0  0  0  0  0  0  0  0  0
   -0.9458   -2.6917    0.0000 C   0  0  0  0  0  0  0  0  0  0  0  0
    0.9875   -0.4667    0.0000 C   0  0  0  0  0  0  0  0  0  0  0  0
    1.9542   -0.6875    0.0000 C   0  0  0  0  0  0  0  0  0  0  0  0
   -1.5833   -3.4375    0.0000 C   0  0  0  0  0  0  0  0  0  0  0  0
  2  1  1  0
  3  4  1  0
  4  1  2  0
  5  2  1  0
  6  1  1  0
  7  6  1  0
  8  2  1  0
  9  5  1  0
 10  8  2  0
 11  4  1  0
 12 10  1  0
 13  7  1  0
 14  7  2  0
 15 11  1  0
 16 11  2  0
 17 10  1  0
 18 20  2  0
 19 15  2  0
 20 16  1  0
 21 18  1  0
 22 13  1  0
 23 13  1  0
 24 23  1  0
 25 22  1  0
 26 25  1  0
 27 24  1  0
  3  5  2  0
 19 18  1  0
  9 12  2  0
M  END
> <chembl_id>
CHEMBL54349

> <chembl_pref_name>
ALPIDEM
