
     RDKit          2D

 24 24  0  0  0  0  0  0  0  0999 V2000
   -6.4969    1.5317    0.0000 C   0  0  0  0  0  0  0  0  0  0  0  0
   -7.2114    1.1191    0.0000 C   0  0  0  0  0  0  0  0  0  0  0  0
   -7.2114    0.2941    0.0000 C   0  0  0  0  0  0  0  0  0  0  0  0
   -6.4969   -0.1183    0.0000 C   0  0  0  0  0  0  0  0  0  0  0  0
   -5.7824    0.2941    0.0000 C   0  0  0  0  0  0  0  0  0  0  0  0
   -5.7824    1.1191    0.0000 C   0  0  0  0  0  0  0  0  0  0  0  0
   -5.0680    1.5316    0.0000 C   0  0  0  0  0  0  0  0  0  0  0  0
   -4.3535    1.1191    0.0000 C   0  0  0  0  0  0  0  0  0  0  0  0
   -3.6390    1.5316    0.0000 C   0  0  0  0  0  0  0  0  0  0  0  0
   -2.9246    1.1191    0.0000 C   0  0  0  0  0  0  0  0  0  0  0  0
   -2.2101    1.5316    0.0000 C   0  0  0  0  0  0  0  0  0  0  0  0
   -1.4956    1.1191    0.0000 C   0  0  0  0  0  0  0  0  0  0  0  0
   -0.7811    1.5316    0.0000 C   0  0  0  0  0  0  0  0  0  0  0  0
   -0.0667    1.1191    0.0000 C   0  0  0  0  0  0  0  0  0  0  0  0
    0.6477    1.5316    0.0000 C   0  0  0  0  0  0  0  0  0  0  0  0
    1.3622    1.1191    0.0000 C   0  0  0  0  0  0  0  0  0  0  0  0
    2.0766    1.5316    0.0000 O   0  0  0  0  0  0  0  0  0  0  0  0
   -6.4969    2.3567    0.0000 O   0  0  0  0  0  0  0  0  0  0  0  0
   -6.4969   -0.9433    0.0000 O   0  0  0  0  0  0  0  0  0  0  0  0
   -7.9258    1.5316    0.0000 O   0  0  0  0  0  0  0  0  0  0  0  0
   -7.9259    2.3566    0.0000 C   0  0  0  0  0  0  0  0  0  0  0  0
   -7.9258   -0.1183    0.0000 O   0  0  0  0  0  0  0  0  0  0  0  0
   -7.9259   -0.9433    0.0000 C   0  0  0  0  0  0  0  0  0  0  0  0
   -5.0680   -0.1183    0.0000 C   0  0  0  0  0  0  0  0  0  0  0  0
  1  2  1  0
  2  3  2  0
  3  4  1  0
  4  5  1  0
  5  6  2  0
  1  6  1  0
  7  8  1  0
  8  9  1  0
  9 10  1  0
 10 11  1  0
 11 12  1  0
 12 13  1  0
 13 14  1  0
 14 15  1  0
 15 16  1  0
 16 17  1  0
  6  7  1  0
  1 18  2  0
  4 19  2  0
  2 20  1  0
 20 21  1  0
  3 22  1  0
 22 23  1  0
  5 24  1  0
M  END
> <chembl_id>
CHEMBL252556

> <chembl_pref_name>
IDEBENONE
