
     RDKit          2D

 17 16  0  0  0  0  0  0  0  0999 V2000
    4.5821   -6.7021    0.0000 O   0  0  0  0  0  0  0  0  0  0  0  0
    1.4786   -6.4864    0.0000 C   0  0  0  0  0  0  0  0  0  0  0  0
    2.1864   -6.0647    0.0000 P   0  0  0  0  0  0  0  0  0  0  0  0
    1.8810   -7.1990    0.0000 P   0  0  0  0  0  0  0  0  0  0  0  0
    0.7612   -6.0841    0.0000 C   0  0  0  0  0  0  0  0  0  0  0  0
    0.0485   -6.5010    0.0000 N   0  0  0  0  0  0  0  0  0  0  0  0
   -1.2847   -6.5010    0.0000 N   0  0  0  0  0  0  0  0  0  0  0  0
   -0.6205   -6.0114    0.0000 C   0  0  0  0  0  0  0  0  0  0  0  0
    2.5936   -6.7822    0.0000 O   0  0  0  0  0  0  0  0  0  0  0  0
    1.7647   -5.3424    0.0000 O   0  0  0  0  0  0  0  0  0  0  0  0
    1.0617   -7.1990    0.0000 O   0  0  0  0  0  0  0  0  0  0  0  0
   -1.0326   -7.2863    0.0000 C   0  0  0  0  0  0  0  0  0  0  0  0
   -0.2036   -7.2863    0.0000 C   0  0  0  0  0  0  0  0  0  0  0  0
    2.5936   -7.6112    0.0000 O   0  0  0  0  0  0  0  0  0  0  0  0
    2.9038   -6.4670    0.0000 O   0  0  0  0  0  0  0  0  0  0  0  0
    2.5936   -5.3424    0.0000 O   0  0  0  0  0  0  0  0  0  0  0  0
    1.4689   -7.9068    0.0000 O   0  0  0  0  0  0  0  0  0  0  0  0
  3  2  1  0
  4  2  1  0
  5  2  1  0
  6  5  1  0
  7  8  2  0
  8  6  1  0
  9  4  2  0
 10  3  2  0
 11  2  1  0
 12 13  2  0
 13  6  1  0
 14  4  1  0
 15  3  1  0
 16  3  1  0
 17  4  1  0
 12  7  1  0
M  END
> <chembl_id>
CHEMBL4303669

> <chembl_pref_name>
ZOLEDRONIC ACID
