
     RDKit          2D

 36 38  0  0  0  0  0  0  0  0999 V2000
    7.8279    0.0000    0.0000 Cl  0  0  0  0  0  0  0  0  0  0  0  0
   -4.0551    0.4646    0.0000 C   0  0  0  0  0  0  0  0  0  0  0  0
   -4.4676   -0.2499    0.0000 C   0  0  0  0  0  0  0  0  0  0  0  0
   -4.0551   -0.9644    0.0000 C   0  0  0  0  0  0  0  0  0  0  0  0
   -3.2301   -0.9644    0.0000 C   0  0  0  0  0  0  0  0  0  0  0  0
   -2.8176   -0.2499    0.0000 C   0  0  0  0  0  0  0  0  0  0  0  0
   -3.2301    0.4646    0.0000 C   0  0  0  0  0  0  0  0  0  0  0  0
   -2.0019   -0.3728    0.0000 C   0  0  0  0  0  0  0  0  0  0  0  0
   -2.9287    1.2326    0.0000 C   0  0  0  0  0  0  0  0  0  0  0  0
   -1.3971    0.1883    0.0000 C   0  0  0  0  0  0  0  0  0  0  0  0
   -2.1404    1.4757    0.0000 C   0  0  0  0  0  0  0  0  0  0  0  0
   -1.4587    1.0110    0.0000 N   0  0  0  0  0  0  0  0  0  0  0  0
   -2.0174    2.2915    0.0000 O   0  0  0  0  0  0  0  0  0  0  0  0
   -0.7443    1.4235    0.0000 C   0  0  0  0  0  0  0  0  0  0  0  0
   -0.0298    1.0110    0.0000 C   0  0  0  0  0  0  0  0  0  0  0  0
    0.6847    1.4235    0.0000 C   0  0  0  0  0  0  0  0  0  0  0  0
    1.3991    1.0110    0.0000 N   0  0  0  0  0  0  0  0  0  0  0  0
    1.3991    0.1860    0.0000 C   0  0  0  0  0  0  0  0  0  0  0  0
    2.1136    1.4235    0.0000 C   0  0  0  0  0  0  0  0  0  0  0  0
    2.8281    1.0110    0.0000 C   0  0  0  0  0  0  0  0  0  0  0  0
    3.6250    1.2245    0.0000 C   0  0  0  0  0  0  0  0  0  0  0  0
    3.8385    0.4276    0.0000 C   0  0  0  0  0  0  0  0  0  0  0  0
    3.0416    0.2141    0.0000 C   0  0  0  0  0  0  0  0  0  0  0  0
    4.4219   -0.1557    0.0000 C   0  0  0  0  0  0  0  0  0  0  0  0
    2.8281   -0.5828    0.0000 C   0  0  0  0  0  0  0  0  0  0  0  0
    3.4114   -1.1661    0.0000 C   0  0  0  0  0  0  0  0  0  0  0  0
    4.2083   -0.9526    0.0000 C   0  0  0  0  0  0  0  0  0  0  0  0
    2.9358    1.8289    0.0000 H   0  0  0  0  0  0  0  0  0  0  0  0
   -5.2926   -0.2499    0.0000 O   0  0  0  0  0  0  0  0  0  0  0  0
   -5.7051   -0.9644    0.0000 C   0  0  0  0  0  0  0  0  0  0  0  0
   -4.4676   -1.6788    0.0000 O   0  0  0  0  0  0  0  0  0  0  0  0
   -4.0551   -2.3933    0.0000 C   0  0  0  0  0  0  0  0  0  0  0  0
    4.7917   -1.5360    0.0000 O   0  0  0  0  0  0  0  0  0  0  0  0
    5.5886   -1.3225    0.0000 C   0  0  0  0  0  0  0  0  0  0  0  0
    3.1979   -1.9630    0.0000 O   0  0  0  0  0  0  0  0  0  0  0  0
    3.7813   -2.5464    0.0000 C   0  0  0  0  0  0  0  0  0  0  0  0
  2  3  1  0
  2  7  2  0
  3  4  2  0
  4  5  1  0
  5  6  2  0
  6  7  1  0
  6  8  1  0
  7  9  1  0
  8 10  1  0
  9 11  1  0
 11 12  1  0
 10 12  1  0
 11 13  2  0
 12 14  1  0
 14 15  1  0
 15 16  1  0
 16 17  1  0
 17 18  1  0
 17 19  1  0
 20 19  1  1
 20 21  1  0
 21 22  1  0
 20 23  1  0
 25 26  2  0
 26 27  1  0
 24 27  2  0
 24 22  1  0
 23 25  1  0
 22 23  2  0
 20 28  1  6
  3 29  1  0
 29 30  1  0
  4 31  1  0
 31 32  1  0
 27 33  1  0
 33 34  1  0
 26 35  1  0
 35 36  1  0
M  END
> <chembl_id>
CHEMBL2145077

> <chembl_pref_name>
IVABRADINE HYDROCHLORIDE
