
     RDKit          2D

 12 12  0  0  0  0  0  0  0  0999 V2000
    4.7625   -6.2292    0.0000 C   0  0  0  0  0  0  0  0  0  0  0  0
    4.1625   -5.8667    0.0000 C   0  0  0  0  0  0  0  0  0  0  0  0
    4.7792   -4.8125    0.0000 N   0  0  0  0  0  0  0  0  0  0  0  0
    5.3792   -5.8792    0.0000 C   0  0  0  0  0  0  0  0  0  0  0  0
    4.1542   -5.1667    0.0000 C   0  0  0  0  0  0  0  0  0  0  0  0
    5.3875   -5.1667    0.0000 C   0  0  0  0  0  0  0  0  0  0  0  0
    3.5292   -6.2167    0.0000 O   0  0  0  0  0  0  0  0  0  0  0  0
    4.7542   -6.9292    0.0000 C   0  0  0  0  0  0  0  0  0  0  0  0
    5.9917   -6.2417    0.0000 C   0  0  0  0  0  0  0  0  0  0  0  0
    5.3667   -7.3000    0.0000 O   0  0  0  0  0  0  0  0  0  0  0  0
    6.6125   -5.9000    0.0000 O   0  0  0  0  0  0  0  0  0  0  0  0
    3.5417   -4.8042    0.0000 C   0  0  0  0  0  0  0  0  0  0  0  0
  2  1  2  0
  3  6  1  0
  4  1  1  0
  5  2  1  0
  6  4  2  0
  7  2  1  0
  8  1  1  0
  9  4  1  0
 10  8  1  0
 11  9  1  0
 12  5  1  0
  3  5  2  0
M  END
> <chembl_id>
CHEMBL1364

> <chembl_pref_name>
PYRIDOXINE
