
     RDKit          2D

 24 24  0  0  0  0  0  0  0  0999 V2000
   -2.7625   -0.7000    0.0000 C   0  0  0  0  0  0  0  0  0  0  0  0
   -0.3958   -0.7000    0.0000 C   0  0  0  0  0  0  0  0  0  0  0  0
    1.9750    0.7000    0.0000 C   0  0  0  0  0  0  0  0  0  0  0  0
   -0.7958    0.0000    0.0000 C   0  0  0  0  0  0  0  0  0  0  0  0
   -3.1625   -1.3792    0.0000 N   0  0  0  0  0  0  0  0  0  0  0  0
   -1.5833    0.0000    0.0000 O   0  0  0  0  0  0  0  0  0  0  0  0
   -1.9833   -0.7000    0.0000 C   0  0  0  0  0  0  0  0  0  0  0  0
    0.3875   -0.7000    0.0000 C   0  0  0  0  0  0  0  0  0  0  0  0
   -3.1625    0.0000    0.0000 O   0  0  0  0  0  0  0  0  0  0  0  0
    0.7875    0.0000    0.0000 C   0  0  0  0  0  0  0  0  0  0  0  0
    1.5875    1.3833    0.0000 O   0  0  0  0  0  0  0  0  0  0  0  0
   -0.3958    0.6833    0.0000 C   0  0  0  0  0  0  0  0  0  0  0  0
    1.5875    0.0000    0.0000 C   0  0  0  0  0  0  0  0  0  0  0  0
    0.3875    0.6833    0.0000 C   0  0  0  0  0  0  0  0  0  0  0  0
   -0.7958   -1.3792    0.0000 O   0  0  0  0  0  0  0  0  0  0  0  0
    2.7750    0.7000    0.0000 O   0  0  0  0  0  0  0  0  0  0  0  0
   -3.9458   -1.3792    0.0000 C   0  0  0  0  0  0  0  0  0  0  0  0
   -2.7625   -2.0625    0.0000 C   0  0  0  0  0  0  0  0  0  0  0  0
    3.1542    1.3833    0.0000 C   0  0  0  0  0  0  0  0  0  0  0  0
   -1.5958   -1.3792    0.0000 C   0  0  0  0  0  0  0  0  0  0  0  0
    3.9542    1.3833    0.0000 C   0  0  0  0  0  0  0  0  0  0  0  0
   -4.3458   -2.0625    0.0000 C   0  0  0  0  0  0  0  0  0  0  0  0
   -1.9833   -2.0625    0.0000 C   0  0  0  0  0  0  0  0  0  0  0  0
    4.3417    2.0708    0.0000 C   0  0  0  0  0  0  0  0  0  0  0  0
  2  4  1  0
  3 13  1  0
  4  6  1  0
  5  1  1  0
  6  7  1  0
  7  1  1  0
  8  2  2  0
  9  1  2  0
 10 14  2  0
 11  3  2  0
 12  4  2  0
 13 10  1  0
 14 12  1  0
 15  2  1  0
 16  3  1  0
 17  5  1  0
 18  5  1  0
 19 16  1  0
 20 15  1  0
 21 19  1  0
 22 17  1  0
 23 18  1  0
 24 21  1  0
  8 10  1  0
M  END
> <chembl_id>
CHEMBL2105345

> <chembl_pref_name>
PROPANIDID
