
     RDKit          2D

 13 13  0  0  0  0  0  0  0  0999 V2000
    5.0750   -6.5917    0.0000 C   0  0  0  0  0  0  0  0  0  0  0  0
    4.4542   -6.2417    0.0000 C   0  0  0  0  0  0  0  0  0  0  0  0
    5.6875   -6.2417    0.0000 C   0  0  0  0  0  0  0  0  0  0  0  0
    5.0750   -7.3125    0.0000 O   0  0  0  0  0  0  0  0  0  0  0  0
    3.8417   -6.5917    0.0000 C   0  0  0  0  0  0  0  0  0  0  0  0
    6.3042   -6.5917    0.0000 C   0  0  0  0  0  0  0  0  0  0  0  0
    4.4542   -5.5375    0.0000 C   0  0  0  0  0  0  0  0  0  0  0  0
    5.6875   -5.5375    0.0000 C   0  0  0  0  0  0  0  0  0  0  0  0
    5.0750   -5.1792    0.0000 C   0  0  0  0  0  0  0  0  0  0  0  0
    3.2250   -6.2417    0.0000 C   0  0  0  0  0  0  0  0  0  0  0  0
    3.8417   -7.3125    0.0000 C   0  0  0  0  0  0  0  0  0  0  0  0
    6.9167   -6.2417    0.0000 C   0  0  0  0  0  0  0  0  0  0  0  0
    6.3042   -7.3125    0.0000 C   0  0  0  0  0  0  0  0  0  0  0  0
  2  1  2  0
  3  1  1  0
  4  1  1  0
  5  2  1  0
  6  3  1  0
  7  2  1  0
  8  3  2  0
  9  8  1  0
 10  5  1  0
 11  5  1  0
 12  6  1  0
 13  6  1  0
  9  7  2  0
M  END
> <chembl_id>
CHEMBL526

> <chembl_pref_name>
PROPOFOL
