
     RDKit          2D

 11 10  0  0  0  0  0  0  0  0999 V2000
    1.6558   -3.1234    0.0000 S   0  0  0  0  0  0  0  0  0  0  0  0
    2.3728   -2.7213    0.0000 O   0  0  0  0  0  0  0  0  0  0  0  0
    2.0579   -3.8307    0.0000 O   0  0  0  0  0  0  0  0  0  0  0  0
    1.2392   -3.8307    0.0000 O   0  0  0  0  0  0  0  0  0  0  0  0
   -1.9193   -2.6826    0.0000 C   0  0  0  0  0  0  0  0  0  0  0  0
   -1.9144   -1.8543    0.0000 O   0  0  0  0  0  0  0  0  0  0  0  0
    0.9437   -2.7019    0.0000 C   0  0  0  0  0  0  0  0  0  0  0  0
   -1.2072   -3.0992    0.0000 N   0  0  0  0  0  0  0  0  0  0  0  0
    0.2219   -3.1088    0.0000 C   0  0  0  0  0  0  0  0  0  0  0  0
   -0.4902   -2.6923    0.0000 C   0  0  0  0  0  0  0  0  0  0  0  0
   -2.6362   -3.0895    0.0000 C   0  0  0  0  0  0  0  0  0  0  0  0
  2  1  1  0
  3  1  2  0
  4  1  2  0
  5  8  1  0
  6  5  2  0
  7  1  1  0
  8 10  1  0
  9  7  1  0
 10  9  1  0
 11  5  1  0
M  END
> <chembl_id>
CHEMBL1201293

> <chembl_pref_name>
ACAMPROSATE
