
     RDKit          2D

 12 12  0  0  0  0  0  0  0  0999 V2000
    6.9806  -20.2986    0.0000 C   0  0  0  0  0  0  0  0  0  0  0  0
    7.6994  -20.7100    0.0000 C   0  0  0  0  0  0  0  0  0  0  0  0
    6.9806  -19.4797    0.0000 C   0  0  0  0  0  0  0  0  0  0  0  0
    6.2642  -20.7100    0.0000 Cl  0  0  0  0  0  0  0  0  0  0  0  0
    8.4037  -20.2986    0.0000 C   0  0  0  0  0  0  0  0  0  0  0  0
    7.6913  -21.5411    0.0000 Cl  0  0  0  0  0  0  0  0  0  0  0  0
    7.6994  -19.0683    0.0000 C   0  0  0  0  0  0  0  0  0  0  0  0
    6.2642  -19.0683    0.0000 Cl  0  0  0  0  0  0  0  0  0  0  0  0
    8.4037  -19.4736    0.0000 C   0  0  0  0  0  0  0  0  0  0  0  0
    9.1247  -20.7040    0.0000 Cl  0  0  0  0  0  0  0  0  0  0  0  0
    7.6994  -18.2312    0.0000 Cl  0  0  0  0  0  0  0  0  0  0  0  0
    9.1247  -19.0601    0.0000 Cl  0  0  0  0  0  0  0  0  0  0  0  0
  1  2  1  0
  1  3  1  0
  1  4  1  6
  2  5  1  0
  2  6  1  6
  3  7  1  0
  3  8  1  1
  5  9  1  0
  5 10  1  1
  7 11  1  6
  9 12  1  6
  7  9  1  0
M  END
> <chembl_id>
CHEMBL15891

> <chembl_pref_name>
LINDANE
