
     RDKit          2D

 18 19  0  0  0  0  0  0  0  0999 V2000
    1.3875    0.0500    0.0000 C   0  0  0  0  0  0  0  0  0  0  0  0
    0.5042   -0.6250    0.0000 S   0  0  0  0  0  0  0  0  0  0  0  0
   -0.4125    0.0333    0.0000 C   0  0  0  0  0  0  0  0  0  0  0  0
    2.3792   -0.5042    0.0000 C   0  0  0  0  0  0  0  0  0  0  0  0
   -1.4125   -0.5000    0.0000 C   0  0  0  0  0  0  0  0  0  0  0  0
    1.0417    1.1208    0.0000 C   0  0  0  0  0  0  0  0  0  0  0  0
   -0.0708    1.1208    0.0000 C   0  0  0  0  0  0  0  0  0  0  0  0
    3.3417    0.0833    0.0000 C   0  0  0  0  0  0  0  0  0  0  0  0
   -1.4625   -1.6542    0.0000 O   0  0  0  0  0  0  0  0  0  0  0  0
    3.3542    1.2500    0.0000 O   0  0  0  0  0  0  0  0  0  0  0  0
   -2.3583    0.1000    0.0000 C   0  0  0  0  0  0  0  0  0  0  0  0
    4.2542   -0.5375    0.0000 O   0  0  0  0  0  0  0  0  0  0  0  0
    2.3792   -1.6167    0.0000 C   0  0  0  0  0  0  0  0  0  0  0  0
   -2.3208    1.2458    0.0000 C   0  0  0  0  0  0  0  0  0  0  0  0
   -3.3583   -0.4375    0.0000 C   0  0  0  0  0  0  0  0  0  0  0  0
   -3.2833    1.8708    0.0000 C   0  0  0  0  0  0  0  0  0  0  0  0
   -4.3458    0.1750    0.0000 C   0  0  0  0  0  0  0  0  0  0  0  0
   -4.3208    1.3333    0.0000 C   0  0  0  0  0  0  0  0  0  0  0  0
  2  1  1  0
  3  2  1  0
  4  1  1  0
  5  3  1  0
  6  1  2  0
  7  6  1  0
  8  4  1  0
  9  5  2  0
 10  8  2  0
 11  5  1  0
 12  8  1  0
 13  4  1  0
 14 11  2  0
 15 11  1  0
 16 14  1  0
 17 15  2  0
 18 17  1  0
  3  7  2  0
 16 18  2  0
M  END
> <chembl_id>
CHEMBL365795

> <chembl_pref_name>
TIAPROFENIC ACID
