
     RDKit          2D

 15 15  0  0  0  0  0  0  0  0999 V2000
    4.3167   -3.8375    0.0000 N   0  0  0  0  0  0  0  0  0  0  0  0
    2.4750   -4.1917    0.0000 C   0  0  0  0  0  0  0  0  0  0  0  0
    4.9000   -4.1667    0.0000 C   0  0  0  0  0  0  0  0  0  0  0  0
    3.7042   -4.1917    0.0000 C   0  0  0  0  0  0  0  0  0  0  0  0
    3.0917   -3.8375    0.0000 C   0  0  0  0  0  0  0  0  0  0  0  0
    4.9000   -4.9042    0.0000 N   0  0  0  0  0  0  0  0  0  0  0  0
    2.4750   -4.9042    0.0000 C   0  0  0  0  0  0  0  0  0  0  0  0
    1.8542   -3.8375    0.0000 C   0  0  0  0  0  0  0  0  0  0  0  0
    3.7125   -4.8917    0.0000 O   0  0  0  0  0  0  0  0  0  0  0  0
    5.4792   -3.7667    0.0000 N   0  0  0  0  0  0  0  0  0  0  0  0
    1.8542   -3.1292    0.0000 Cl  0  0  0  0  0  0  0  0  0  0  0  0
    3.0917   -5.2667    0.0000 Cl  0  0  0  0  0  0  0  0  0  0  0  0
    1.2417   -4.9042    0.0000 C   0  0  0  0  0  0  0  0  0  0  0  0
    1.8542   -5.2667    0.0000 C   0  0  0  0  0  0  0  0  0  0  0  0
    1.2417   -4.1917    0.0000 C   0  0  0  0  0  0  0  0  0  0  0  0
  2  5  1  0
  3  1  1  0
  4  1  1  0
  5  4  1  0
  6  3  2  0
  7  2  2  0
  8  2  1  0
  9  4  2  0
 10  3  1  0
 11  8  1  0
 12  7  1  0
 13 15  1  0
 14  7  1  0
 15  8  2  0
 13 14  2  0
M  END
> <chembl_id>
CHEMBL862

> <chembl_pref_name>
GUANFACINE
