
     RDKit          2D

 49 54  0  0  1  0  0  0  0  0999 V2000
   -0.1958   -3.3000    0.0000 C   0  0  0  0  0  0  0  0  0  0  0  0
   -0.8708   -3.5167    0.0000 N   0  0  0  0  0  0  0  0  0  0  0  0
   -0.2000   -2.5917    0.0000 C   0  0  0  0  0  0  0  0  0  0  0  0
    1.0167   -5.4042    0.0000 C   0  0  0  0  0  0  0  0  0  0  0  0
    1.0167   -4.7042    0.0000 C   0  0  0  0  0  0  0  0  0  0  0  0
    0.4125   -3.6500    0.0000 C   0  0  0  0  0  0  0  0  0  0  0  0
    1.0250   -3.3000    0.0000 N   0  0  0  0  0  0  0  0  0  0  0  0
   -1.2958   -2.9500    0.0000 C   0  0  0  0  0  0  0  0  0  0  0  0
   -0.8750   -2.3792    0.0000 C   0  0  0  0  0  0  0  0  0  0  0  0
    1.6292   -4.3542    0.0000 C   0  0  0  0  0  0  0  0  0  0  0  0
    2.2375   -5.4167    0.0000 C   0  0  0  0  0  0  0  0  0  0  0  0
    0.4042   -4.3542    0.0000 C   0  0  0  0  0  0  0  0  0  0  0  0
    1.6250   -5.7625    0.0000 C   0  0  0  0  0  0  0  0  0  0  0  0
    6.5167   -6.5000    0.0000 C   0  0  0  0  0  0  0  0  0  0  0  0
    0.4042   -5.7542    0.0000 C   0  0  0  0  0  0  0  0  0  0  0  0
    1.6375   -3.6500    0.0000 C   0  0  0  0  0  0  0  0  0  0  0  0
    5.9042   -6.8542    0.0000 C   0  0  0  0  0  0  0  0  0  0  0  0
    6.5250   -5.7875    0.0000 C   0  0  0  0  0  0  0  0  0  0  0  0
    2.2417   -4.7042    0.0000 C   0  0  0  0  0  0  0  0  0  0  0  0
    0.4125   -2.2375    0.0000 C   0  0  0  0  0  0  0  0  0  0  0  0
    2.8500   -5.7667    0.0000 O   0  0  0  0  0  0  0  0  0  0  0  0
   -1.9875   -2.8792    0.0000 C   0  0  0  0  0  0  0  0  0  0  0  0
    3.4625   -5.4167    0.0000 C   0  0  0  0  0  0  0  0  0  0  0  0
   -1.1625   -1.7375    0.0000 C   0  0  0  0  0  0  0  0  0  0  0  0
    1.0250   -2.5917    0.0000 C   0  0  0  0  0  0  0  0  0  0  0  0
    4.0750   -5.7792    0.0000 C   0  0  0  0  0  0  0  0  0  0  0  0
    4.6917   -5.4292    0.0000 C   0  0  0  0  0  0  0  0  0  0  0  0
    5.3000   -5.7875    0.0000 C   0  0  0  0  0  0  0  0  0  0  0  0
    5.2917   -6.4917    0.0000 C   0  0  0  0  0  0  0  0  0  0  0  0
    5.9125   -5.4292    0.0000 C   0  0  0  0  0  0  0  0  0  0  0  0
    0.4000   -6.4667    0.0000 O   0  0  0  0  0  0  0  0  0  0  0  0
    3.4667   -4.7125    0.0000 O   0  0  0  0  0  0  0  0  0  0  0  0
   -2.2833   -2.2417    0.0000 C   0  0  0  0  0  0  0  0  0  0  0  0
    7.1292   -6.8542    0.0000 O   0  0  0  0  0  0  0  0  0  0  0  0
   -1.8708   -1.6625    0.0000 C   0  0  0  0  0  0  0  0  0  0  0  0
    1.6167   -6.4667    0.0000 O   0  0  0  0  0  0  0  0  0  0  0  0
   -0.2083   -5.4000    0.0000 O   0  0  0  0  0  0  0  0  0  0  0  0
    7.1375   -5.4375    0.0000 O   0  0  0  0  0  0  0  0  0  0  0  0
    5.9042   -7.5625    0.0000 O   0  0  0  0  0  0  0  0  0  0  0  0
   -2.9833   -2.1667    0.0000 O   0  0  0  0  0  0  0  0  0  0  0  0
    7.1292   -7.5667    0.0000 C   0  0  0  0  0  0  0  0  0  0  0  0
    1.0042   -6.8167    0.0000 C   0  0  0  0  0  0  0  0  0  0  0  0
    7.7500   -5.7917    0.0000 C   0  0  0  0  0  0  0  0  0  0  0  0
   -0.8250   -5.7500    0.0000 C   0  0  0  0  0  0  0  0  0  0  0  0
    5.2875   -7.9125    0.0000 C   0  0  0  0  0  0  0  0  0  0  0  0
   -3.2750   -1.5250    0.0000 C   0  0  0  0  0  0  0  0  0  0  0  0
    2.2417   -4.0000    0.0000 H   0  0  0  0  0  0  0  0  0  0  0  0
   -0.2083   -4.0000    0.0000 H   0  0  0  0  0  0  0  0  0  0  0  0
    0.4042   -5.0542    0.0000 H   0  0  0  0  0  0  0  0  0  0  0  0
  2  1  1  0
  3  1  2  0
  4  5  1  0
  5 12  1  0
  6  1  1  0
  7  6  1  0
  8  2  1  0
  9  3  1  0
 10  5  1  0
 11 19  1  0
 12  6  1  0
 13  4  1  0
 14 18  1  0
  4 15  1  1
 16  7  1  0
 17 29  1  0
 18 30  2  0
 19 10  1  0
 20  3  1  0
 11 21  1  1
 22  8  1  0
 23 21  1  0
 24  9  1  0
 25  7  1  0
 26 23  1  0
 27 26  2  0
 28 27  1  0
 29 28  2  0
 30 28  1  0
 31 15  2  0
 32 23  2  0
 33 22  2  0
 34 14  1  0
 35 24  2  0
 13 36  1  6
 37 15  1  0
 38 18  1  0
 39 17  1  0
 40 33  1  0
 41 34  1  0
 42 36  1  0
 43 38  1  0
 44 37  1  0
 45 39  1  0
 46 40  1  0
 10 47  1  6
  6 48  1  1
  5 49  1  6
  9  8  2  0
 20 25  1  0
 10 16  1  0
 33 35  1  0
 11 13  1  0
 14 17  2  0
M  END
> <chembl_id>
CHEMBL1668

> <chembl_pref_name>
RESCINNAMINE
