
     RDKit          2D

 20 21  0  0  0  0  0  0  0  0999 V2000
    1.6417   -1.7917    0.0000 C   0  0  0  0  0  0  0  0  0  0  0  0
    1.0000   -1.4000    0.0000 C   0  0  0  0  0  0  0  0  0  0  0  0
    2.2542   -1.4500    0.0000 C   0  0  0  0  0  0  0  0  0  0  0  0
    2.8625   -1.7917    0.0000 C   0  0  0  0  0  0  0  0  0  0  0  0
    4.1125   -1.7917    0.0000 C   0  0  0  0  0  0  0  0  0  0  0  0
    0.3792   -1.7542    0.0000 C   0  0  0  0  0  0  0  0  0  0  0  0
    3.4667   -1.4500    0.0000 C   0  0  0  0  0  0  0  0  0  0  0  0
    1.0000   -0.7042    0.0000 O   0  0  0  0  0  0  0  0  0  0  0  0
    4.6917   -1.4167    0.0000 O   0  0  0  0  0  0  0  0  0  0  0  0
    4.0917   -2.5000    0.0000 O   0  0  0  0  0  0  0  0  0  0  0  0
    2.2542   -0.7042    0.0000 N   0  0  0  0  0  0  0  0  0  0  0  0
    0.3792   -2.4667    0.0000 C   0  0  0  0  0  0  0  0  0  0  0  0
   -0.2333   -1.4000    0.0000 C   0  0  0  0  0  0  0  0  0  0  0  0
   -0.8500   -2.4667    0.0000 C   0  0  0  0  0  0  0  0  0  0  0  0
    1.6417   -2.5000    0.0000 C   0  0  0  0  0  0  0  0  0  0  0  0
   -0.2333   -2.8250    0.0000 C   0  0  0  0  0  0  0  0  0  0  0  0
   -0.8500   -1.7542    0.0000 C   0  0  0  0  0  0  0  0  0  0  0  0
   -1.4583   -2.8250    0.0000 Br  0  0  0  0  0  0  0  0  0  0  0  0
    2.8625   -2.5000    0.0000 C   0  0  0  0  0  0  0  0  0  0  0  0
    2.2542   -2.8750    0.0000 C   0  0  0  0  0  0  0  0  0  0  0  0
  2  1  1  0
  3  1  2  0
  4  3  1  0
  5  7  1  0
  6  2  1  0
  7  4  1  0
  8  2  2  0
  9  5  1  0
 10  5  2  0
 11  3  1  0
 12  6  2  0
 13  6  1  0
 14 17  1  0
 15  1  1  0
 16 12  1  0
 17 13  2  0
 18 14  1  0
 19 20  1  0
 20 15  2  0
 19  4  2  0
 14 16  2  0
M  END
> <chembl_id>
CHEMBL1077

> <chembl_pref_name>
BROMFENAC
