
     RDKit          2D

 26 27  0  0  0  0  0  0  0  0999 V2000
    6.6000   -5.4250    0.0000 C   0  0  0  0  0  0  0  0  0  0  0  0
    6.5917   -6.1375    0.0000 O   0  0  0  0  0  0  0  0  0  0  0  0
    5.9875   -5.0625    0.0000 C   0  0  0  0  0  0  0  0  0  0  0  0
    7.2167   -5.0625    0.0000 O   0  0  0  0  0  0  0  0  0  0  0  0
    5.9792   -4.3542    0.0000 O   0  0  0  0  0  0  0  0  0  0  0  0
    5.3667   -5.4250    0.0000 C   0  0  0  0  0  0  0  0  0  0  0  0
    3.0917   -4.8500    0.0000 N   0  0  0  0  0  0  0  0  0  0  0  0
    3.0917   -4.1417    0.0000 C   0  0  0  0  0  0  0  0  0  0  0  0
    3.0917   -6.2667    0.0000 N   0  0  0  0  0  0  0  0  0  0  0  0
    2.4875   -5.2042    0.0000 C   0  0  0  0  0  0  0  0  0  0  0  0
    3.7042   -5.2042    0.0000 C   0  0  0  0  0  0  0  0  0  0  0  0
    2.4750   -3.7875    0.0000 C   0  0  0  0  0  0  0  0  0  0  0  0
    3.7042   -3.7792    0.0000 C   0  0  0  0  0  0  0  0  0  0  0  0
    3.7042   -5.9125    0.0000 C   0  0  0  0  0  0  0  0  0  0  0  0
    2.4875   -5.9125    0.0000 C   0  0  0  0  0  0  0  0  0  0  0  0
    3.0917   -6.9750    0.0000 C   0  0  0  0  0  0  0  0  0  0  0  0
    2.4750   -3.0750    0.0000 C   0  0  0  0  0  0  0  0  0  0  0  0
    1.8625   -4.1417    0.0000 C   0  0  0  0  0  0  0  0  0  0  0  0
    4.3167   -4.1292    0.0000 C   0  0  0  0  0  0  0  0  0  0  0  0
    3.6917   -3.0792    0.0000 C   0  0  0  0  0  0  0  0  0  0  0  0
    4.3042   -2.7167    0.0000 C   0  0  0  0  0  0  0  0  0  0  0  0
    1.8625   -2.7167    0.0000 C   0  0  0  0  0  0  0  0  0  0  0  0
    1.2500   -3.7917    0.0000 C   0  0  0  0  0  0  0  0  0  0  0  0
    4.9250   -3.7750    0.0000 C   0  0  0  0  0  0  0  0  0  0  0  0
    4.9167   -3.0667    0.0000 C   0  0  0  0  0  0  0  0  0  0  0  0
    1.2417   -3.0750    0.0000 C   0  0  0  0  0  0  0  0  0  0  0  0
  2  1  2  0
  3  1  1  0
  4  1  1  0
  5  3  1  0
  6  3  1  0
  8  7  1  0
  9 15  1  0
 10  7  1  0
 11  7  1  0
 12  8  1  0
 13  8  1  0
 14 11  1  0
 15 10  1  0
 16  9  1  0
 17 12  2  0
 18 12  1  0
 19 13  2  0
 20 13  1  0
 21 20  2  0
 22 17  1  0
 23 18  2  0
 24 19  1  0
 25 24  2  0
 26 23  1  0
 14  9  1  0
 21 25  1  0
 26 22  2  0
M  END
> <chembl_id>
CHEMBL1200497

> <chembl_pref_name>
CYCLIZINE LACTATE
