
     RDKit          2D

 25 28  0  0  0  0  0  0  0  0999 V2000
   11.2200   -0.1850    0.0000 Cl  0  0  0  0  0  0  0  0  0  0  0  0
    4.2600   -1.1100    0.0000 C   0  0  0  0  0  0  0  0  0  0  0  0
    5.6700   -1.1900    0.0000 C   0  0  0  0  0  0  0  0  0  0  0  0
    3.5700    0.1400    0.0000 C   0  0  0  0  0  0  0  0  0  0  0  0
    6.4200   -2.4500    0.0000 C   0  0  0  0  0  0  0  0  0  0  0  0
    3.5000   -2.3300    0.0000 C   0  0  0  0  0  0  0  0  0  0  0  0
    4.8400   -3.3800    0.0000 O   0  0  0  0  0  0  0  0  0  0  0  0
    4.3000    1.3800    0.0000 C   0  0  0  0  0  0  0  0  0  0  0  0
    6.4800    0.0200    0.0000 C   0  0  0  0  0  0  0  0  0  0  0  0
    2.0600    0.2200    0.0000 C   0  0  0  0  0  0  0  0  0  0  0  0
    5.7800    1.3300    0.0000 C   0  0  0  0  0  0  0  0  0  0  0  0
    3.6300    2.6400    0.0000 N   0  0  0  0  0  0  0  0  0  0  0  0
    5.1200    0.0000    0.0000 C   0  0  0  0  0  0  0  0  0  0  0  0
    1.2700   -1.0400    0.0000 C   0  0  0  0  0  0  0  0  0  0  0  0
    2.0000   -2.2900    0.0000 C   0  0  0  0  0  0  0  0  0  0  0  0
    7.9300   -2.4700    0.0000 C   0  0  0  0  0  0  0  0  0  0  0  0
    5.1700    2.6400    0.0000 C   0  0  0  0  0  0  0  0  0  0  0  0
    7.9700    0.0200    0.0000 C   0  0  0  0  0  0  0  0  0  0  0  0
    8.7200   -1.2400    0.0000 C   0  0  0  0  0  0  0  0  0  0  0  0
    8.4503   -3.5513    0.0000 O   0  0  0  0  0  0  0  0  0  0  0  0
    1.3325   -3.2873    0.0000 O   0  0  0  0  0  0  0  0  0  0  0  0
    2.6179    3.2848    0.0000 C   0  0  0  0  0  0  0  0  0  0  0  0
    3.0968    1.0210    0.0000 H   0  0  0  0  0  0  0  0  0  0  0  0
    4.8294    2.2284    0.0000 H   0  0  0  0  0  0  0  0  0  0  0  0
    3.1612   -3.2709    0.0000 H   0  0  0  0  0  0  0  0  0  0  0  0
  2  3  1  0
  2  4  1  0
  3  5  1  0
  2  6  1  0
  5  7  1  0
  6  7  1  0
  4  8  1  0
  3  9  2  0
  4 10  1  0
  8 11  1  0
  9 11  1  0
  8 12  1  0
  2 13  1  6
 10 14  2  0
  6 15  1  0
 14 15  1  0
  5 16  2  0
 12 17  1  0
 13 17  1  0
  9 18  1  0
 16 19  1  0
 18 19  2  0
 16 20  1  0
 15 21  1  1
 12 22  1  0
  4 23  1  6
  8 24  1  1
  6 25  1  6
M  END
> <chembl_id>
CHEMBL556578

> <chembl_pref_name>
MORPHINE HYDROCHLORIDE
