
     RDKit          2D

 37 40  0  0  1  0  0  0  0  0999 V2000
   31.3668   -0.1420    0.0000 N   0  0  0  0  0  0  0  0  0  0  0  0
   30.5317   -0.1420    0.0000 C   0  0  0  0  0  0  0  0  0  0  0  0
   30.5317    0.7193    0.0000 C   0  0  0  0  0  0  0  0  0  0  0  0
   31.3668    0.7088    0.0000 C   0  0  0  0  0  0  0  0  0  0  0  0
   32.0916   -0.5727    0.0000 C   0  0  0  0  0  0  0  0  0  0  0  0
   28.8301    2.5051    0.0000 S   0  0  0  0  0  0  0  0  0  0  0  0
   32.8322   -0.1420    0.0000 C   0  0  0  0  0  0  0  0  0  0  0  0
   29.1556    1.1132    0.0000 C   0  0  0  0  0  0  0  0  0  0  0  0
   29.9592    1.3076    0.0000 N   0  0  0  0  0  0  0  0  0  0  0  0
   28.5937    1.7172    0.0000 C   0  0  0  0  0  0  0  0  0  0  0  0
   32.0916    1.1343    0.0000 S   0  0  0  0  0  0  0  0  0  0  0  0
   34.2764   -0.1420    0.0000 N   0  0  0  0  0  0  0  0  0  0  0  0
   32.0916   -1.4078    0.0000 C   0  0  0  0  0  0  0  0  0  0  0  0
   33.5569   -0.5570    0.0000 C   0  0  0  0  0  0  0  0  0  0  0  0
   32.8322    0.7088    0.0000 C   0  0  0  0  0  0  0  0  0  0  0  0
   36.3931    1.0817    0.0000 C   0  0  0  0  0  0  0  0  0  0  0  0
   29.0926    3.2614    0.0000 O   0  0  0  0  0  0  0  0  0  0  0  0
   29.9592   -0.7303    0.0000 O   0  0  0  0  0  0  0  0  0  0  0  0
   28.0422    2.7729    0.0000 O   0  0  0  0  0  0  0  0  0  0  0  0
   29.6021    2.2529    0.0000 O   0  0  0  0  0  0  0  0  0  0  0  0
   28.9351    0.3254    0.0000 O   0  0  0  0  0  0  0  0  0  0  0  0
   35.6787    0.6878    0.0000 C   0  0  0  0  0  0  0  0  0  0  0  0
   31.3826   -1.8017    0.0000 O   0  0  0  0  0  0  0  0  0  0  0  0
   27.7901    1.5439    0.0000 C   0  0  0  0  0  0  0  0  0  0  0  0
   32.8164   -1.8175    0.0000 O   0  0  0  0  0  0  0  0  0  0  0  0
   36.3931    1.9010    0.0000 O   0  0  0  0  0  0  0  0  0  0  0  0
   34.2502    0.6720    0.0000 C   0  0  0  0  0  0  0  0  0  0  0  0
   34.9908   -0.5517    0.0000 C   0  0  0  0  0  0  0  0  0  0  0  0
   34.9540    1.0974    0.0000 C   0  0  0  0  0  0  0  0  0  0  0  0
   35.6998   -0.1158    0.0000 C   0  0  0  0  0  0  0  0  0  0  0  0
   37.0864    0.6563    0.0000 N   0  0  0  0  0  0  0  0  0  0  0  0
   27.5643    0.7666    0.0000 C   0  0  0  0  0  0  0  0  0  0  0  0
   27.2387    2.1531    0.0000 C   0  0  0  0  0  0  0  0  0  0  0  0
   26.7660    0.5932    0.0000 C   0  0  0  0  0  0  0  0  0  0  0  0
   26.4298    1.9483    0.0000 C   0  0  0  0  0  0  0  0  0  0  0  0
   26.1987    1.1815    0.0000 C   0  0  0  0  0  0  0  0  0  0  0  0
   31.3353    1.5229    0.0000 H   0  0  0  0  0  0  0  0  0  0  0  0
  2  1  1  0
  3  4  1  0
  4  1  1  0
  5  1  1  0
  6 10  1  0
  7  5  2  0
  8  9  1  0
  3  9  1  1
 10  8  1  0
 11  4  1  0
 12 14  1  0
 13  5  1  0
 14  7  1  0
 15  7  1  0
 16 22  1  0
 17  6  1  0
 18  2  2  0
 19  6  2  0
 20  6  2  0
 21  8  2  0
 22 30  2  0
 23 13  1  0
 10 24  1  1
 25 13  2  0
 26 16  2  0
 27 12  1  0
 28 12  2  0
 29 27  2  0
 30 28  1  0
 31 16  1  0
 32 24  1  0
 33 24  2  0
 34 32  2  0
 35 33  1  0
 36 34  1  0
  4 37  1  6
  2  3  1  0
 11 15  1  0
 29 22  1  0
 35 36  2  0
M  CHG  2  12   1  23  -1
M  END
> <chembl_id>
CHEMBL3351077

> <chembl_pref_name>
CEFSULODIN
