
     RDKit          2D

 23 25  0  0  0  0  0  0  0  0999 V2000
    7.6417   -4.1250    0.0000 Cl  0  0  0  0  0  0  0  0  0  0  0  0
    6.0917   -5.1042    0.0000 C   0  0  0  0  0  0  0  0  0  0  0  0
    5.4625   -5.4125    0.0000 C   0  0  0  0  0  0  0  0  0  0  0  0
    6.7292   -5.4167    0.0000 C   0  0  0  0  0  0  0  0  0  0  0  0
    6.1000   -4.3917    0.0000 C   0  0  0  0  0  0  0  0  0  0  0  0
    5.7542   -6.6625    0.0000 C   0  0  0  0  0  0  0  0  0  0  0  0
    6.4500   -6.6667    0.0000 C   0  0  0  0  0  0  0  0  0  0  0  0
    6.1000   -2.9792    0.0000 N   0  0  0  0  0  0  0  0  0  0  0  0
    6.8917   -6.1167    0.0000 C   0  0  0  0  0  0  0  0  0  0  0  0
    5.3042   -6.1125    0.0000 C   0  0  0  0  0  0  0  0  0  0  0  0
    5.4917   -4.0417    0.0000 C   0  0  0  0  0  0  0  0  0  0  0  0
    6.7125   -4.0417    0.0000 C   0  0  0  0  0  0  0  0  0  0  0  0
    5.4917   -3.3292    0.0000 C   0  0  0  0  0  0  0  0  0  0  0  0
    6.7125   -3.3375    0.0000 C   0  0  0  0  0  0  0  0  0  0  0  0
    4.9417   -4.9292    0.0000 C   0  0  0  0  0  0  0  0  0  0  0  0
    7.2542   -4.9292    0.0000 C   0  0  0  0  0  0  0  0  0  0  0  0
    6.1000   -2.2750    0.0000 C   0  0  0  0  0  0  0  0  0  0  0  0
    7.5750   -6.3167    0.0000 C   0  0  0  0  0  0  0  0  0  0  0  0
    4.6292   -6.3167    0.0000 C   0  0  0  0  0  0  0  0  0  0  0  0
    7.9375   -5.1417    0.0000 C   0  0  0  0  0  0  0  0  0  0  0  0
    4.2542   -5.1375    0.0000 C   0  0  0  0  0  0  0  0  0  0  0  0
    8.0917   -5.8375    0.0000 C   0  0  0  0  0  0  0  0  0  0  0  0
    4.1042   -5.8292    0.0000 C   0  0  0  0  0  0  0  0  0  0  0  0
  3  2  1  0
  4  2  1  0
  5  2  2  0
  6 10  1  0
  7  9  1  0
  8 14  1  0
  9  4  1  0
 10  3  2  0
 11  5  1  0
 12  5  1  0
 13 11  1  0
 14 12  1  0
 15  3  1  0
 16  4  2  0
 17  8  1  0
 18  9  2  0
 19 10  1  0
 20 16  1  0
 21 15  2  0
 22 20  2  0
 23 21  1  0
  8 13  1  0
  7  6  2  0
 22 18  1  0
 23 19  2  0
M  END
> <chembl_id>
CHEMBL1716

> <chembl_pref_name>
CYPROHEPTADINE HYDROCHLORIDE
