
     RDKit          2D

 27 28  0  0  0  0  0  0  0  0999 V2000
    6.0542   -8.9958    0.0000 Na  0  0  0  0  0 15  0  0  0  0  0  0
    4.0042   -7.5167    0.0000 N   0  0  0  0  0  0  0  0  0  0  0  0
    3.2958   -7.5167    0.0000 C   0  0  0  0  0  0  0  0  0  0  0  0
    3.2958   -6.8125    0.0000 C   0  0  0  0  0  0  0  0  0  0  0  0
    4.0042   -6.8125    0.0000 C   0  0  0  0  0  0  0  0  0  0  0  0
    0.8375   -6.8167    0.0000 C   0  0  0  0  0  0  0  0  0  0  0  0
    4.6125   -7.8750    0.0000 C   0  0  0  0  0  0  0  0  0  0  0  0
    1.4500   -6.4583    0.0000 C   0  0  0  0  0  0  0  0  0  0  0  0
    0.2625   -6.3958    0.0000 N   0  0  0  0  0  0  0  0  0  0  0  0
    2.6792   -6.4542    0.0000 N   0  0  0  0  0  0  0  0  0  0  0  0
    2.0625   -6.8125    0.0000 C   0  0  0  0  0  0  0  0  0  0  0  0
   -0.3083   -6.8167    0.0000 C   0  0  0  0  0  0  0  0  0  0  0  0
    4.6125   -8.5792    0.0000 C   0  0  0  0  0  0  0  0  0  0  0  0
    0.6167   -7.4875    0.0000 C   0  0  0  0  0  0  0  0  0  0  0  0
   -0.0917   -7.4875    0.0000 S   0  0  0  0  0  0  0  0  0  0  0  0
    4.6125   -6.4542    0.0000 S   0  0  0  0  0  0  0  0  0  0  0  0
    5.2250   -7.5167    0.0000 C   0  0  0  0  0  0  0  0  0  0  0  0
    1.4458   -5.7458    0.0000 N   0  0  0  0  0  0  0  0  0  0  0  0
    2.7917   -8.0208    0.0000 O   0  0  0  0  0  0  0  0  0  0  0  0
    2.0667   -7.5208    0.0000 O   0  0  0  0  0  0  0  0  0  0  0  0
    5.2292   -8.9375    0.0000 O   0  0  0  0  0  0  0  0  0  0  0  0
    4.0000   -8.9375    0.0000 O   0  0  0  0  0  0  0  0  0  0  0  0
   -0.9250   -6.4625    0.0000 N   0  0  0  0  0  0  0  0  0  0  0  0
    5.2250   -6.8125    0.0000 C   0  0  0  0  0  0  0  0  0  0  0  0
    2.0625   -5.3958    0.0000 O   0  0  0  0  0  0  0  0  0  0  0  0
    2.0667   -4.6875    0.0000 C   0  0  0  0  0  0  0  0  0  0  0  0
    4.0000   -6.1042    0.0000 H   0  0  0  0  0  0  0  0  0  0  0  0
  3  2  1  0
  4  5  1  0
  5  2  1  0
  6  8  1  0
  7  2  1  0
  8 11  1  0
  9  6  1  0
  4 10  1  1
 11 10  1  0
 12  9  2  0
 13  7  1  0
 14  6  2  0
 15 14  1  0
 16  5  1  0
 17  7  2  0
 18  8  2  0
 19  3  2  0
 20 11  2  0
 21 13  1  0
 22 13  2  0
 23 12  1  0
 24 16  1  0
 25 18  1  0
 26 25  1  0
  5 27  1  6
  3  4  1  0
 24 17  1  0
 15 12  1  0
M  CHG  2   1   1  21  -1
M  END
> <chembl_id>
CHEMBL1201019

> <chembl_pref_name>
CEFTIZOXIME SODIUM
