
     RDKit          2D

 46 49  0  0  0  0  0  0  0  0999 V2000
   -1.2500    0.2708    0.0000 N   0  0  0  0  0  0  0  0  0  0  0  0
   -1.7333   -0.3958    0.0000 C   0  0  0  0  0  0  0  0  0  0  0  0
   -1.2500   -1.0625    0.0000 N   0  0  0  0  0  0  0  0  0  0  0  0
    2.3917    0.0167    0.0000 N   0  0  0  0  0  0  0  0  0  0  0  0
   -0.4667    0.0167    0.0000 C   0  0  0  0  0  0  0  0  0  0  0  0
    1.6792    0.4292    0.0000 C   0  0  0  0  0  0  0  0  0  0  0  0
   -0.4667   -0.8083    0.0000 C   0  0  0  0  0  0  0  0  0  0  0  0
   -6.6792    1.0333    0.0000 N   0  0  0  0  0  0  0  0  0  0  0  0
   -6.2667    0.3208    0.0000 C   0  0  0  0  0  0  0  0  0  0  0  0
    0.9625    0.0167    0.0000 C   0  0  0  0  0  0  0  0  0  0  0  0
   -6.2667    1.7458    0.0000 C   0  0  0  0  0  0  0  0  0  0  0  0
    2.3917   -0.8083    0.0000 C   0  0  0  0  0  0  0  0  0  0  0  0
    0.2500    0.4292    0.0000 C   0  0  0  0  0  0  0  0  0  0  0  0
    3.1083    0.4292    0.0000 C   0  0  0  0  0  0  0  0  0  0  0  0
    3.8208    0.0167    0.0000 C   0  0  0  0  0  0  0  0  0  0  0  0
    0.2500   -1.2208    0.0000 C   0  0  0  0  0  0  0  0  0  0  0  0
    4.5375    0.4292    0.0000 C   0  0  0  0  0  0  0  0  0  0  0  0
   -5.4458    0.3208    0.0000 C   0  0  0  0  0  0  0  0  0  0  0  0
   -6.6792   -0.3958    0.0000 N   0  0  0  0  0  0  0  0  0  0  0  0
   -2.5583   -0.3958    0.0000 C   0  0  0  0  0  0  0  0  0  0  0  0
    1.6792   -1.2208    0.0000 N   0  0  0  0  0  0  0  0  0  0  0  0
    1.6792    1.2542    0.0000 O   0  0  0  0  0  0  0  0  0  0  0  0
    0.9625   -0.8083    0.0000 C   0  0  0  0  0  0  0  0  0  0  0  0
   -6.6792    2.4625    0.0000 O   0  0  0  0  0  0  0  0  0  0  0  0
   -2.9708    0.3208    0.0000 N   0  0  0  0  0  0  0  0  0  0  0  0
    4.5375    1.2542    0.0000 O   0  0  0  0  0  0  0  0  0  0  0  0
   -5.0333    1.0333    0.0000 C   0  0  0  0  0  0  0  0  0  0  0  0
   -5.0333   -0.3958    0.0000 C   0  0  0  0  0  0  0  0  0  0  0  0
   -3.7958    0.3208    0.0000 C   0  0  0  0  0  0  0  0  0  0  0  0
   -5.4458    1.7458    0.0000 O   0  0  0  0  0  0  0  0  0  0  0  0
   -1.5042   -1.8458    0.0000 C   0  0  0  0  0  0  0  0  0  0  0  0
   -4.2083   -0.3958    0.0000 C   0  0  0  0  0  0  0  0  0  0  0  0
   -4.2083    1.0333    0.0000 C   0  0  0  0  0  0  0  0  0  0  0  0
    5.2500    0.0167    0.0000 O   0  0  0  0  0  0  0  0  0  0  0  0
    3.1083   -1.2208    0.0000 C   0  0  0  0  0  0  0  0  0  0  0  0
    1.6792   -2.0458    0.0000 C   0  0  0  0  0  0  0  0  0  0  0  0
   -5.0333    2.4625    0.0000 C   0  0  0  0  0  0  0  0  0  0  0  0
    5.9667    0.4292    0.0000 C   0  0  0  0  0  0  0  0  0  0  0  0
   -4.2083    2.4625    0.0000 C   0  0  0  0  0  0  0  0  0  0  0  0
   -2.5583    2.4625    0.0000 C   0  0  0  0  0  0  0  0  0  0  0  0
   -2.9708    1.7458    0.0000 C   0  0  0  0  0  0  0  0  0  0  0  0
   -3.7958    1.7458    0.0000 C   0  0  0  0  0  0  0  0  0  0  0  0
    6.6792    0.0167    0.0000 C   0  0  0  0  0  0  0  0  0  0  0  0
    3.1083   -2.0458    0.0000 C   0  0  0  0  0  0  0  0  0  0  0  0
    2.3917   -2.4583    0.0000 C   0  0  0  0  0  0  0  0  0  0  0  0
   -1.7333    2.4625    0.0000 C   0  0  0  0  0  0  0  0  0  0  0  0
  2  1  2  0
  3  2  1  0
  4  6  1  0
  5  1  1  0
  6 10  1  0
  7  5  2  0
  8  9  1  0
  9 18  1  0
 10 13  2  0
 11  8  1  0
 12  4  1  0
 13  5  1  0
 14  4  1  0
 15 14  1  0
 16  7  1  0
 17 15  1  0
 18 27  1  0
 19  9  2  0
 20  2  1  0
 21 12  2  0
 22  6  2  0
 23 10  1  0
 24 11  2  0
 25 20  1  0
 26 17  2  0
 27 33  2  0
 28 32  1  0
 29 25  1  0
 30 11  1  0
 31  3  1  0
 32 29  2  0
 33 29  1  0
 34 17  1  0
 35 12  1  0
 36 21  1  0
 37 30  1  0
 38 34  1  0
 39 37  1  0
 40 41  1  0
 41 42  1  0
 42 39  1  0
 43 38  1  0
 44 35  2  0
 45 44  1  0
 46 40  1  0
  7  3  1  0
 23 16  2  0
 28 18  2  0
 45 36  2  0
M  END
> <chembl_id>
CHEMBL539697

> <chembl_pref_name>
DABIGATRAN ETEXILATE
