
     RDKit          2D

 10  9  0  0  1  0  0  0  0  0999 V2000
    1.1917   -6.5625    0.0000 C   0  0  0  0  0  0  0  0  0  0  0  0
    1.1917   -4.4375    0.0000 C   0  0  0  0  0  0  0  0  0  0  0  0
    1.1917   -7.2667    0.0000 O   0  0  0  0  0  0  0  0  0  0  0  0
    0.5792   -6.2042    0.0000 C   0  0  0  0  0  0  0  0  0  0  0  0
    0.5792   -4.0792    0.0000 O   0  0  0  0  0  0  0  0  0  0  0  0
    0.5792   -5.5000    0.0000 C   0  0  0  0  0  0  0  0  0  0  0  0
    1.1917   -5.1417    0.0000 C   0  0  0  0  0  0  0  0  0  0  0  0
    1.8042   -4.0792    0.0000 N   0  0  0  0  0  0  0  0  0  0  0  0
    1.8042   -6.2042    0.0000 O   0  0  0  0  0  0  0  0  0  0  0  0
   -0.0333   -6.5625    0.0000 N   0  0  0  0  0  0  0  0  0  0  0  0
  2  7  1  0
  3  1  2  0
  4  1  1  0
  5  2  2  0
  4  6  1  1
  7  6  1  0
  8  2  1  0
  9  1  1  0
 10  4  1  0
M  END
> <chembl_id>
CHEMBL930

> <chembl_pref_name>
GLUTAMINE
