
     RDKit          2D

 26 26  0  0  0  0  0  0  0  0999 V2000
    1.9042   -6.8750    0.0000 Cl  0  0  0  0  0  0  0  0  0  0  0  0
    2.5417   -4.9000    0.0000 C   0  0  0  0  0  0  0  0  0  0  0  0
    2.5417   -4.1833    0.0000 C   0  0  0  0  0  0  0  0  0  0  0  0
    1.9292   -5.2833    0.0000 N   0  0  0  0  0  0  0  0  0  0  0  0
    3.2333   -5.1208    0.0000 N   0  0  0  0  0  0  0  0  0  0  0  0
    1.3167   -4.1833    0.0000 N   0  0  0  0  0  0  0  0  0  0  0  0
    3.2500   -3.9708    0.0000 N   0  0  0  0  0  0  0  0  0  0  0  0
    1.9292   -3.8250    0.0000 C   0  0  0  0  0  0  0  0  0  0  0  0
    1.3167   -4.9000    0.0000 C   0  0  0  0  0  0  0  0  0  0  0  0
    3.6667   -4.5458    0.0000 C   0  0  0  0  0  0  0  0  0  0  0  0
    6.3167   -6.1708    0.0000 C   0  0  0  0  0  0  0  0  0  0  0  0
    3.2333   -5.8250    0.0000 C   0  0  0  0  0  0  0  0  0  0  0  0
    6.9292   -5.8250    0.0000 C   0  0  0  0  0  0  0  0  0  0  0  0
    1.9292   -3.1125    0.0000 O   0  0  0  0  0  0  0  0  0  0  0  0
    5.7000   -5.8250    0.0000 O   0  0  0  0  0  0  0  0  0  0  0  0
    6.3167   -6.8750    0.0000 O   0  0  0  0  0  0  0  0  0  0  0  0
    0.7167   -5.2458    0.0000 N   0  0  0  0  0  0  0  0  0  0  0  0
    3.8417   -6.1875    0.0000 O   0  0  0  0  0  0  0  0  0  0  0  0
    4.4667   -5.8250    0.0000 C   0  0  0  0  0  0  0  0  0  0  0  0
    6.9458   -5.1166    0.0000 N   0  0  0  0  0  0  0  0  0  0  0  0
    5.0917   -6.1708    0.0000 C   0  0  0  0  0  0  0  0  0  0  0  0
    7.5458   -6.2000    0.0000 C   0  0  0  0  0  0  0  0  0  0  0  0
    5.0750   -4.7458    0.0000 O   0  0  0  0  0  0  0  0  0  0  0  0
    4.4667   -5.1083    0.0000 C   0  0  0  0  0  0  0  0  0  0  0  0
    7.5250   -6.8875    0.0000 C   0  0  0  0  0  0  0  0  0  0  0  0
    8.1458   -5.8708    0.0000 C   0  0  0  0  0  0  0  0  0  0  0  0
  3  2  2  0
  4  2  1  0
  5  2  1  0
  6  9  2  0
  7  3  1  0
  8  3  1  0
  9  4  1  0
 10  5  1  0
 11 15  1  0
 12  5  1  0
 13 11  1  0
 14  8  2  0
 15 21  1  0
 16 11  2  0
 17  9  1  0
 18 12  1  0
 19 18  1  0
 13 20  1  1
 21 19  1  0
 22 13  1  0
 23 24  1  0
 24 19  1  0
 25 22  1  0
 26 22  1  0
  7 10  2  0
  8  6  1  0
M  END
> <chembl_id>
CHEMBL1200454

> <chembl_pref_name>
VALGANCICLOVIR HYDROCHLORIDE
