
     RDKit          2D

 34 37  0  0  0  0  0  0  0  0999 V2000
    1.1428   -0.9333    0.0000 Cl  0  0  0  0  0  0  0  0  0  0  0  0
    5.8364    0.6713    0.0000 C   0  0  0  0  0  0  0  0  0  0  0  0
    5.8364   -0.1537    0.0000 C   0  0  0  0  0  0  0  0  0  0  0  0
    6.5509   -0.5662    0.0000 C   0  0  0  0  0  0  0  0  0  0  0  0
    7.2653   -0.1537    0.0000 C   0  0  0  0  0  0  0  0  0  0  0  0
    7.2653    0.6713    0.0000 C   0  0  0  0  0  0  0  0  0  0  0  0
    6.5509    1.0838    0.0000 C   0  0  0  0  0  0  0  0  0  0  0  0
    6.7224   -1.3732    0.0000 C   0  0  0  0  0  0  0  0  0  0  0  0
    7.5429   -1.4594    0.0000 C   0  0  0  0  0  0  0  0  0  0  0  0
    7.8784   -0.7057    0.0000 O   0  0  0  0  0  0  0  0  0  0  0  0
    7.9554   -2.1739    0.0000 C   0  0  0  0  0  0  0  0  0  0  0  0
    8.7804   -2.1739    0.0000 N   0  0  0  0  0  0  0  0  0  0  0  0
    7.5429   -2.8883    0.0000 O   0  0  0  0  0  0  0  0  0  0  0  0
    5.1219    1.0838    0.0000 N   0  0  0  0  0  0  0  0  0  0  0  0
    5.1219    1.9088    0.0000 C   0  0  0  0  0  0  0  0  0  0  0  0
    4.4075    2.3213    0.0000 C   0  0  0  0  0  0  0  0  0  0  0  0
    3.6930    1.9088    0.0000 N   0  0  0  0  0  0  0  0  0  0  0  0
    3.6930    1.0838    0.0000 C   0  0  0  0  0  0  0  0  0  0  0  0
    4.4075    0.6713    0.0000 C   0  0  0  0  0  0  0  0  0  0  0  0
    2.9785    2.3213    0.0000 C   0  0  0  0  0  0  0  0  0  0  0  0
    2.2640    1.9088    0.0000 C   0  0  0  0  0  0  0  0  0  0  0  0
    1.5496    2.3213    0.0000 C   0  0  0  0  0  0  0  0  0  0  0  0
    0.8351    1.9088    0.0000 C   0  0  0  0  0  0  0  0  0  0  0  0
    0.1206    2.3213    0.0000 C   0  0  0  0  0  0  0  0  0  0  0  0
    0.0344    3.1418    0.0000 C   0  0  0  0  0  0  0  0  0  0  0  0
   -0.7726    3.3133    0.0000 N   0  0  0  0  0  0  0  0  0  0  0  0
   -1.1851    2.5989    0.0000 C   0  0  0  0  0  0  0  0  0  0  0  0
   -0.6330    1.9858    0.0000 C   0  0  0  0  0  0  0  0  0  0  0  0
   -1.9920    2.4273    0.0000 C   0  0  0  0  0  0  0  0  0  0  0  0
   -2.2470    1.6427    0.0000 C   0  0  0  0  0  0  0  0  0  0  0  0
   -1.6949    1.0296    0.0000 C   0  0  0  0  0  0  0  0  0  0  0  0
   -0.8880    1.2011    0.0000 C   0  0  0  0  0  0  0  0  0  0  0  0
   -1.9125    0.2375    0.0000 C   0  0  0  0  0  0  0  0  0  0  0  0
   -2.1292   -0.5583    0.0000 N   0  0  0  0  0  0  0  0  0  0  0  0
  4  5  2  0
  5  6  1  0
  6  7  2  0
  7  2  1  0
  4  8  1  0
  8  9  2  0
  9 10  1  0
 10  5  1  0
  9 11  1  0
 11 12  1  0
 11 13  2  0
  2 14  1  0
 14 15  1  0
 15 16  1  0
 16 17  1  0
 17 18  1  0
 18 19  1  0
 19 14  1  0
 17 20  1  0
 20 21  1  0
 21 22  1  0
 22 23  1  0
 23 24  1  0
 24 25  2  0
 25 26  1  0
 26 27  1  0
 27 28  2  0
 28 24  1  0
 27 29  1  0
 29 30  2  0
 30 31  1  0
 31 32  2  0
 32 28  1  0
  2  3  2  0
 31 33  1  0
 33 34  3  0
  3  4  1  0
M  END
> <chembl_id>
CHEMBL1615374

> <chembl_pref_name>
VILAZODONE HYDROCHLORIDE
