
     RDKit         2D

 24 27  0  0  0  0  0  0  0  0999 V2000
   -0.5124   -3.6601    0.0000 C   0  0  0  0  0  0  0  0  0  0  0  0
   -0.5136   -4.4851    0.0000 C   0  0  0  0  0  0  0  0  0  0  0  0
    0.1991   -4.8967    0.0000 C   0  0  0  0  0  0  0  0  0  0  0  0
    0.1973   -3.2485    0.0000 C   0  0  0  0  0  0  0  0  0  0  0  0
    0.9106   -3.6566    0.0000 C   0  0  0  0  0  0  0  0  0  0  0  0
    0.9155   -4.4851    0.0000 C   0  0  0  0  0  0  0  0  0  0  0  0
    1.7051   -4.7366    0.0000 N   0  0  0  0  0  0  0  0  0  0  0  0
    2.1882   -4.0634    0.0000 C   0  0  0  0  0  0  0  0  0  0  0  0
    1.6973   -3.3959    0.0000 C   0  0  0  0  0  0  0  0  0  0  0  0
    3.0108   -4.0585    0.0000 O   0  0  0  0  0  0  0  0  0  0  0  0
    1.2796   -2.6797    0.0000 C   0  0  0  0  0  0  0  0  0  0  0  0
    2.4055   -2.9788    0.0000 C   0  0  0  0  0  0  0  0  0  0  0  0
    1.6940   -1.9604    0.0000 C   0  0  0  0  0  0  0  0  0  0  0  0
    1.2771   -1.2447    0.0000 C   0  0  0  0  0  0  0  0  0  0  0  0
    0.4471   -1.2478    0.0000 C   0  0  0  0  0  0  0  0  0  0  0  0
    0.0359   -1.9726    0.0000 C   0  0  0  0  0  0  0  0  0  0  0  0
    0.4552   -2.6854    0.0000 C   0  0  0  0  0  0  0  0  0  0  0  0
    3.1204   -3.3866    0.0000 C   0  0  0  0  0  0  0  0  0  0  0  0
    3.8282   -2.9703    0.0000 C   0  0  0  0  0  0  0  0  0  0  0  0
    3.8216   -2.1475    0.0000 C   0  0  0  0  0  0  0  0  0  0  0  0
    3.1013   -1.7428    0.0000 C   0  0  0  0  0  0  0  0  0  0  0  0
    2.3964   -2.1615    0.0000 C   0  0  0  0  0  0  0  0  0  0  0  0
    0.0318   -0.5377    0.0000 O   0  0  0  0  0  0  0  0  0  0  0  0
    4.5298   -1.7291    0.0000 O   0  0  0  0  0  0  0  0  0  0  0  0
  9 12  1  0
  2  3  1  0
 11 13  2  0
  3  6  2  0
 13 14  1  0
  1  2  2  0
 14 15  2  0
  5  4  2  0
 15 16  1  0
  6  7  1  0
 16 17  2  0
 17 11  1  0
  7  8  1  0
 12 18  2  0
  8  9  1  0
 18 19  1  0
  9  5  1  0
 19 20  2  0
  4  1  1  0
 20 21  1  0
  8 10  2  0
 21 22  2  0
 22 12  1  0
  5  6  1  0
 15 23  1  0
  9 11  1  0
 20 24  1  0
M  END
> <chembl_id>
CHEMBL245807

> <chembl_pref_name>
OXYPHENISATINE
