
     RDKit          2D

 37 38  0  0  0  0  0  0  0  0999 V2000
    7.6792   -7.5625    0.0000 Cl  0  0  0  0  0  0  0  0  0  0  0  0
    5.5125   -4.9292    0.0000 N   0  0  0  0  0  0  0  0  0  0  0  0
    5.5125   -4.2417    0.0000 C   0  0  0  0  0  0  0  0  0  0  0  0
    6.1042   -5.3042    0.0000 C   0  0  0  0  0  0  0  0  0  0  0  0
    4.9042   -5.2917    0.0000 C   0  0  0  0  0  0  0  0  0  0  0  0
    4.9042   -6.0250    0.0000 C   0  0  0  0  0  0  0  0  0  0  0  0
    5.5125   -6.3750    0.0000 C   0  0  0  0  0  0  0  0  0  0  0  0
    6.1042   -6.0250    0.0000 C   0  0  0  0  0  0  0  0  0  0  0  0
    4.1542   -4.2417    0.0000 N   0  0  0  0  0  0  0  0  0  0  0  0
    6.7167   -4.9500    0.0000 C   0  0  0  0  0  0  0  0  0  0  0  0
    4.8250   -3.8667    0.0000 C   0  0  0  0  0  0  0  0  0  0  0  0
    3.5292   -3.1792    0.0000 C   0  0  0  0  0  0  0  0  0  0  0  0
    5.5125   -7.0667    0.0000 C   0  0  0  0  0  0  0  0  0  0  0  0
    4.3042   -6.3750    0.0000 C   0  0  0  0  0  0  0  0  0  0  0  0
    4.9042   -7.4167    0.0000 C   0  0  0  0  0  0  0  0  0  0  0  0
    4.3042   -7.0667    0.0000 C   0  0  0  0  0  0  0  0  0  0  0  0
    3.5292   -3.8917    0.0000 C   0  0  0  0  0  0  0  0  0  0  0  0
    6.0917   -3.8917    0.0000 O   0  0  0  0  0  0  0  0  0  0  0  0
    6.7167   -4.2417    0.0000 O   0  0  0  0  0  0  0  0  0  0  0  0
    4.1500   -2.8125    0.0000 O   0  0  0  0  0  0  0  0  0  0  0  0
    2.9125   -4.2417    0.0000 C   0  0  0  0  0  0  0  0  0  0  0  0
    7.3292   -5.2917    0.0000 O   0  0  0  0  0  0  0  0  0  0  0  0
    2.9375   -2.8125    0.0000 O   0  0  0  0  0  0  0  0  0  0  0  0
    2.2667   -3.8917    0.0000 C   0  0  0  0  0  0  0  0  0  0  0  0
    4.9042   -8.1167    0.0000 O   0  0  0  0  0  0  0  0  0  0  0  0
    3.6917   -7.4042    0.0000 O   0  0  0  0  0  0  0  0  0  0  0  0
    1.6417   -4.2125    0.0000 C   0  0  0  0  0  0  0  0  0  0  0  0
    4.8250   -3.2042    0.0000 C   0  0  0  0  0  0  0  0  0  0  0  0
    2.3042   -3.1792    0.0000 C   0  0  0  0  0  0  0  0  0  0  0  0
    3.1042   -7.0542    0.0000 C   0  0  0  0  0  0  0  0  0  0  0  0
    5.5125   -8.4625    0.0000 C   0  0  0  0  0  0  0  0  0  0  0  0
    1.0167   -3.8375    0.0000 C   0  0  0  0  0  0  0  0  0  0  0  0
    1.6417   -4.9500    0.0000 C   0  0  0  0  0  0  0  0  0  0  0  0
    1.7042   -2.8125    0.0000 C   0  0  0  0  0  0  0  0  0  0  0  0
    0.3792   -4.2125    0.0000 C   0  0  0  0  0  0  0  0  0  0  0  0
    1.0167   -5.3042    0.0000 C   0  0  0  0  0  0  0  0  0  0  0  0
    0.3792   -4.9500    0.0000 C   0  0  0  0  0  0  0  0  0  0  0  0
  3  2  1  0
  4  2  1  0
  5  2  1  0
  6  5  1  0
  7  6  1  0
  8  4  1  0
  9 11  1  0
  4 10  1  6
 11  3  1  0
 17 12  1  1
 13  7  2  0
 14  6  2  0
 15 16  2  0
 16 14  1  0
 17  9  1  0
 18  3  2  0
 19 10  2  0
 20 12  2  0
 21 17  1  0
 22 10  1  0
 23 12  1  0
 24 21  1  0
 25 15  1  0
 26 16  1  0
 27 24  1  0
 11 28  1  1
 29 23  1  0
 30 26  1  0
 31 25  1  0
 32 27  2  0
 33 27  1  0
 34 29  1  0
 35 32  1  0
 36 33  2  0
 37 35  2  0
  7  8  1  0
 13 15  1  0
 37 36  1  0
M  END
> <chembl_id>
CHEMBL1200534

> <chembl_pref_name>
MOEXIPRIL HYDROCHLORIDE
