
     RDKit          2D

 31 34  0  0  1  0  0  0  0  0999 V2000
    1.4417    1.4833    0.0000 N   0  0  0  0  0  0  0  0  0  0  0  0
    1.4417    0.4625    0.0000 C   0  0  0  0  0  0  0  0  0  0  0  0
    0.4625    1.4708    0.0000 C   0  0  0  0  0  0  0  0  0  0  0  0
    0.4625    0.4625    0.0000 C   0  0  0  0  0  0  0  0  0  0  0  0
   -2.4500   -0.9875    0.0000 C   0  0  0  0  0  0  0  0  0  0  0  0
   -2.1375   -0.0292    0.0000 C   0  0  0  0  0  0  0  0  0  0  0  0
    2.3792    1.7833    0.0000 C   0  0  0  0  0  0  0  0  0  0  0  0
    2.4167    0.1583    0.0000 S   0  0  0  0  0  0  0  0  0  0  0  0
   -1.2708    0.4625    0.0000 C   0  0  0  0  0  0  0  0  0  0  0  0
   -3.4458   -0.9792    0.0000 N   0  0  0  0  0  0  0  0  0  0  0  0
    2.9917    0.9625    0.0000 C   0  0  0  0  0  0  0  0  0  0  0  0
   -0.4000   -0.0417    0.0000 N   0  0  0  0  0  0  0  0  0  0  0  0
   -1.9500   -1.8500    0.0000 C   0  0  0  0  0  0  0  0  0  0  0  0
   -3.7583   -0.0292    0.0000 O   0  0  0  0  0  0  0  0  0  0  0  0
   -2.9500    0.5583    0.0000 C   0  0  0  0  0  0  0  0  0  0  0  0
    2.6917    2.7375    0.0000 C   0  0  0  0  0  0  0  0  0  0  0  0
   -0.4000    1.9708    0.0000 O   0  0  0  0  0  0  0  0  0  0  0  0
   -2.4583   -2.7167    0.0000 C   0  0  0  0  0  0  0  0  0  0  0  0
   -0.9583   -1.8542    0.0000 C   0  0  0  0  0  0  0  0  0  0  0  0
   -1.2708    1.4708    0.0000 O   0  0  0  0  0  0  0  0  0  0  0  0
    2.0250    3.4833    0.0000 O   0  0  0  0  0  0  0  0  0  0  0  0
    3.6750    2.9458    0.0000 O   0  0  0  0  0  0  0  0  0  0  0  0
   -3.4583   -2.7042    0.0000 Cl  0  0  0  0  0  0  0  0  0  0  0  0
   -0.4458   -0.9917    0.0000 Cl  0  0  0  0  0  0  0  0  0  0  0  0
    3.8792    0.4583    0.0000 C   0  0  0  0  0  0  0  0  0  0  0  0
    3.8750    1.4833    0.0000 C   0  0  0  0  0  0  0  0  0  0  0  0
   -2.9500    1.5583    0.0000 C   0  0  0  0  0  0  0  0  0  0  0  0
   -0.9708   -3.5917    0.0000 C   0  0  0  0  0  0  0  0  0  0  0  0
   -1.9708   -3.5792    0.0000 C   0  0  0  0  0  0  0  0  0  0  0  0
   -0.4625   -2.7292    0.0000 C   0  0  0  0  0  0  0  0  0  0  0  0
    1.8667   -0.4417    0.0000 H   0  0  0  0  0  0  0  0  0  0  0  0
  2  1  1  0
  3  1  1  0
  4  3  1  0
  5  6  1  0
  6  9  1  0
  7  1  1  0
  8  2  1  0
  9 12  1  0
 10  5  2  0
 11  7  1  0
  4 12  1  6
 13  5  1  0
 14 15  1  0
 15  6  2  0
  7 16  1  1
 17  3  2  0
 18 13  2  0
 19 13  1  0
 20  9  2  0
 21 16  2  0
 22 16  1  0
 23 18  1  0
 24 19  1  0
 25 11  1  0
 26 11  1  0
 27 15  1  0
 28 30  1  0
 29 18  1  0
 30 19  2  0
  2 31  1  1
  8 11  1  0
  2  4  1  0
 10 14  1  0
 29 28  2  0
M  END
> <chembl_id>
CHEMBL893

> <chembl_pref_name>
DICLOXACILLIN
