
     RDKit          2D

  4  3  0  0  0  0  0  0  0  0999 V2000
   -1.8583   -1.3667    0.0000 C   0  0  0  0  0  0  0  0  0  0  0  0
   -1.8583   -0.6542    0.0000 O   0  0  0  0  0  0  0  0  0  0  0  0
   -1.2458   -1.7167    0.0000 N   0  0  0  0  0  0  0  0  0  0  0  0
   -2.4708   -1.7167    0.0000 N   0  0  0  0  0  0  0  0  0  0  0  0
  2  1  2  0
  3  1  1  0
  4  1  1  0
M  ISO  1   1  13
M  END
> <chembl_id>
CHEMBL2096648

> <chembl_pref_name>
UREA C 13
