
     RDKit          2D

 26 28  0  0  0  0  0  0  0  0999 V2000
    5.3042   -4.5625    0.0000 Cl  0  0  0  0  0  0  0  0  0  0  0  0
    7.1375   -3.9667    0.0000 N   0  0  0  0  0  0  0  0  0  0  0  0
    6.5375   -3.6250    0.0000 C   0  0  0  0  0  0  0  0  0  0  0  0
    7.1417   -2.5542    0.0000 S   0  0  0  0  0  0  0  0  0  0  0  0
    7.7542   -3.6167    0.0000 C   0  0  0  0  0  0  0  0  0  0  0  0
    6.5417   -2.9125    0.0000 C   0  0  0  0  0  0  0  0  0  0  0  0
    7.7625   -2.9042    0.0000 C   0  0  0  0  0  0  0  0  0  0  0  0
    7.1375   -4.6792    0.0000 C   0  0  0  0  0  0  0  0  0  0  0  0
    5.9000   -6.0792    0.0000 N   0  0  0  0  0  0  0  0  0  0  0  0
    5.9250   -3.9667    0.0000 C   0  0  0  0  0  0  0  0  0  0  0  0
    6.5250   -5.0167    0.0000 C   0  0  0  0  0  0  0  0  0  0  0  0
    6.5167   -5.7292    0.0000 C   0  0  0  0  0  0  0  0  0  0  0  0
    5.9250   -2.5417    0.0000 C   0  0  0  0  0  0  0  0  0  0  0  0
    5.3042   -3.6125    0.0000 C   0  0  0  0  0  0  0  0  0  0  0  0
    4.6917   -3.9625    0.0000 S   0  0  0  0  0  0  0  0  0  0  0  0
    5.3042   -2.9000    0.0000 C   0  0  0  0  0  0  0  0  0  0  0  0
    5.3000   -5.7292    0.0000 C   0  0  0  0  0  0  0  0  0  0  0  0
    5.8917   -6.7917    0.0000 C   0  0  0  0  0  0  0  0  0  0  0  0
    8.3667   -3.9792    0.0000 C   0  0  0  0  0  0  0  0  0  0  0  0
    8.3750   -2.5542    0.0000 C   0  0  0  0  0  0  0  0  0  0  0  0
    7.1292   -6.0917    0.0000 C   0  0  0  0  0  0  0  0  0  0  0  0
    4.0750   -3.6042    0.0000 C   0  0  0  0  0  0  0  0  0  0  0  0
    6.5125   -7.1542    0.0000 C   0  0  0  0  0  0  0  0  0  0  0  0
    8.9875   -3.6292    0.0000 C   0  0  0  0  0  0  0  0  0  0  0  0
    8.9917   -2.9167    0.0000 C   0  0  0  0  0  0  0  0  0  0  0  0
    7.1292   -6.8042    0.0000 C   0  0  0  0  0  0  0  0  0  0  0  0
  3  2  1  0
  4  7  1  0
  5  2  1  0
  6  3  1  0
  7  5  2  0
  8  2  1  0
  9 12  1  0
 10  3  2  0
 11  8  1  0
 12 11  1  0
 13  6  2  0
 14 10  1  0
 15 14  1  0
 16 14  2  0
 17  9  1  0
 18  9  1  0
 19  5  1  0
 20  7  1  0
 21 12  1  0
 22 15  1  0
 23 26  1  0
 24 19  2  0
 25 24  1  0
 26 21  1  0
  4  6  1  0
 25 20  2  0
 16 13  1  0
 23 18  1  0
M  END
> <chembl_id>
CHEMBL1200916

> <chembl_pref_name>
THIORIDAZINE HYDROCHLORIDE
