
     RDKit          2D

 16 17  0  0  0  0  0  0  0  0999 V2000
    0.3000    0.6458    0.0000 C   0  0  0  0  0  0  0  0  0  0  0  0
   -0.3458   -0.5167    0.0000 C   0  0  0  0  0  0  0  0  0  0  0  0
   -0.3458    1.8000    0.0000 O   0  0  0  0  0  0  0  0  0  0  0  0
    1.6542    0.6458    0.0000 C   0  0  0  0  0  0  0  0  0  0  0  0
   -1.6625   -0.5167    0.0000 C   0  0  0  0  0  0  0  0  0  0  0  0
    0.3000   -1.6792    0.0000 O   0  0  0  0  0  0  0  0  0  0  0  0
    2.3375    1.7708    0.0000 C   0  0  0  0  0  0  0  0  0  0  0  0
    2.3375   -0.5167    0.0000 C   0  0  0  0  0  0  0  0  0  0  0  0
   -2.3583    0.6458    0.0000 C   0  0  0  0  0  0  0  0  0  0  0  0
   -2.3583   -1.6667    0.0000 C   0  0  0  0  0  0  0  0  0  0  0  0
   -3.6500    0.6458    0.0000 C   0  0  0  0  0  0  0  0  0  0  0  0
   -3.6500   -1.6667    0.0000 C   0  0  0  0  0  0  0  0  0  0  0  0
    3.6625    1.7708    0.0000 C   0  0  0  0  0  0  0  0  0  0  0  0
    3.6625   -0.5500    0.0000 C   0  0  0  0  0  0  0  0  0  0  0  0
   -4.3458   -0.5167    0.0000 C   0  0  0  0  0  0  0  0  0  0  0  0
    4.3417    0.6458    0.0000 C   0  0  0  0  0  0  0  0  0  0  0  0
  2  1  1  0
  3  1  2  0
  4  1  1  0
  5  2  1  0
  6  2  1  0
  7  4  1  0
  8  4  2  0
  9  5  2  0
 10  5  1  0
 11  9  1  0
 12 10  2  0
 13  7  2  0
 14  8  1  0
 15 12  1  0
 16 14  2  0
 13 16  1  0
 11 15  2  0
M  END
> <chembl_id>
CHEMBL190677

> <chembl_pref_name>
BENZOIN
