
     RDKit          2D

 17 18  0  0  0  0  0  0  0  0999 V2000
    3.8792   -7.1917    0.0000 S   0  0  0  0  0  0  0  0  0  0  0  0
    6.3333   -7.1917    0.0000 S   0  0  0  0  0  0  0  0  0  0  0  0
    4.4917   -6.8375    0.0000 C   0  0  0  0  0  0  0  0  0  0  0  0
    5.7167   -6.8375    0.0000 C   0  0  0  0  0  0  0  0  0  0  0  0
    3.2708   -6.8333    0.0000 N   0  0  0  0  0  0  0  0  0  0  0  0
    5.1042   -7.1917    0.0000 C   0  0  0  0  0  0  0  0  0  0  0  0
    4.4958   -6.1292    0.0000 C   0  0  0  0  0  0  0  0  0  0  0  0
    5.7167   -6.1250    0.0000 C   0  0  0  0  0  0  0  0  0  0  0  0
    3.8875   -5.7750    0.0000 N   0  0  0  0  0  0  0  0  0  0  0  0
    5.1042   -5.7708    0.0000 C   0  0  0  0  0  0  0  0  0  0  0  0
    3.2750   -6.1250    0.0000 C   0  0  0  0  0  0  0  0  0  0  0  0
    4.2292   -7.8042    0.0000 O   0  0  0  0  0  0  0  0  0  0  0  0
    3.5167   -7.8042    0.0000 O   0  0  0  0  0  0  0  0  0  0  0  0
    6.6792   -7.8042    0.0000 O   0  0  0  0  0  0  0  0  0  0  0  0
    5.9750   -7.8042    0.0000 O   0  0  0  0  0  0  0  0  0  0  0  0
    6.9458   -6.8333    0.0000 N   0  0  0  0  0  0  0  0  0  0  0  0
    6.3292   -5.7667    0.0000 Cl  0  0  0  0  0  0  0  0  0  0  0  0
  2  4  1  0
  3  1  1  0
  4  6  2  0
  5  1  1  0
  6  3  1  0
  7  3  2  0
  8  4  1  0
  9 11  2  0
 10  7  1  0
 11  5  1  0
 12  1  2  0
 13  1  2  0
 14  2  2  0
 15  2  2  0
 16  2  1  0
 17  8  1  0
  9  7  1  0
 10  8  2  0
M  END
> <chembl_id>
CHEMBL842

> <chembl_pref_name>
CHLOROTHIAZIDE
