
     RDKit          2D

 95 96  0  0  0  0  0  0  0  0999 V2000
    1.6125    5.4309    0.0000 C   0  0  0  0  0  0  0  0  0  0  0  0
    2.3191    5.0216    0.0000 C   0  0  0  0  0  0  0  0  0  0  0  0
    3.0305    6.2739    0.0000 C   0  0  0  0  0  0  0  0  0  0  0  0
   -2.6512    5.4309    0.0000 C   0  0  0  0  0  0  0  0  0  0  0  0
    0.1994    5.4309    0.0000 C   0  0  0  0  0  0  0  0  0  0  0  0
    3.0305    5.4309    0.0000 C   0  0  0  0  0  0  0  0  0  0  0  0
   -3.3675    5.0216    0.0000 C   0  0  0  0  0  0  0  0  0  0  0  0
    1.6125    6.2739    0.0000 C   0  0  0  0  0  0  0  0  0  0  0  0
    2.3191    6.6686    0.0000 C   0  0  0  0  0  0  0  0  0  0  0  0
   -1.2332    5.4309    0.0000 C   0  0  0  0  0  0  0  0  0  0  0  0
   -4.0740    5.4309    0.0000 C   0  0  0  0  0  0  0  0  0  0  0  0
    0.9011    5.0216    0.0000 O   0  0  0  0  0  0  0  0  0  0  0  0
   -2.6512    6.2739    0.0000 O   0  0  0  0  0  0  0  0  0  0  0  0
   -1.2332    6.2739    0.0000 C   0  0  0  0  0  0  0  0  0  0  0  0
    0.1994    6.2739    0.0000 O   0  0  0  0  0  0  0  0  0  0  0  0
   -1.9495    5.0216    0.0000 O   0  0  0  0  0  0  0  0  0  0  0  0
   -4.0740    6.2739    0.0000 C   0  0  0  0  0  0  0  0  0  0  0  0
   -3.3675    6.6686    0.0000 C   0  0  0  0  0  0  0  0  0  0  0  0
    2.3191    4.1981    0.0000 N   0  0  0  0  0  0  0  0  0  0  0  0
    3.7468    6.6589    0.0000 N   0  0  0  0  0  0  0  0  0  0  0  0
   -0.5218    6.6686    0.0000 C   0  0  0  0  0  0  0  0  0  0  0  0
    3.0305    3.7741    0.0000 C   0  0  0  0  0  0  0  0  0  0  0  0
    4.4534    6.2349    0.0000 C   0  0  0  0  0  0  0  0  0  0  0  0
    3.0305    2.9409    0.0000 N   0  0  0  0  0  0  0  0  0  0  0  0
    4.4680    5.3725    0.0000 N   0  0  0  0  0  0  0  0  0  0  0  0
   -3.3675    4.1884    0.0000 N   0  0  0  0  0  0  0  0  0  0  0  0
    3.7517    5.0216    0.0000 O   0  0  0  0  0  0  0  0  0  0  0  0
    0.9011    6.6686    0.0000 O   0  0  0  0  0  0  0  0  0  0  0  0
    2.3191    7.5165    0.0000 O   0  0  0  0  0  0  0  0  0  0  0  0
   -4.8001    5.0070    0.0000 O   0  0  0  0  0  0  0  0  0  0  0  0
    5.1989    6.6247    0.0000 N   0  0  0  0  0  0  0  0  0  0  0  0
    3.7517    4.1981    0.0000 N   0  0  0  0  0  0  0  0  0  0  0  0
   -4.8001    6.6832    0.0000 O   0  0  0  0  0  0  0  0  0  0  0  0
   -1.9495    6.6686    0.0000 C   0  0  0  0  0  0  0  0  0  0  0  0
   -3.3675    7.5165    0.0000 C   0  0  0  0  0  0  0  0  0  0  0  0
   -1.9495    7.5165    0.0000 O   0  0  0  0  0  0  0  0  0  0  0  0
   -4.0838    7.9258    0.0000 O   0  0  0  0  0  0  0  0  0  0  0  0
   -0.5218    7.5165    0.0000 C   0  0  0  0  0  0  0  0  0  0  0  0
   -2.6414    3.7644    0.0000 C   0  0  0  0  0  0  0  0  0  0  0  0
   -1.9476    5.8614    0.0000 O   0  0  0  0  0  0  0  0  0  0  0  0
    1.4326    0.0292    0.0000 C   0  0  0  0  0  0  0  0  0  0  0  0
    2.1392   -0.3801    0.0000 C   0  0  0  0  0  0  0  0  0  0  0  0
    2.8506    0.8722    0.0000 C   0  0  0  0  0  0  0  0  0  0  0  0
   -2.8311    0.0292    0.0000 C   0  0  0  0  0  0  0  0  0  0  0  0
    0.0195    0.0292    0.0000 C   0  0  0  0  0  0  0  0  0  0  0  0
    2.8506    0.0292    0.0000 C   0  0  0  0  0  0  0  0  0  0  0  0
   -3.5474   -0.3801    0.0000 C   0  0  0  0  0  0  0  0  0  0  0  0
    1.4326    0.8722    0.0000 C   0  0  0  0  0  0  0  0  0  0  0  0
    2.1392    1.2669    0.0000 C   0  0  0  0  0  0  0  0  0  0  0  0
   -1.4131    0.0292    0.0000 C   0  0  0  0  0  0  0  0  0  0  0  0
   -4.2539    0.0292    0.0000 C   0  0  0  0  0  0  0  0  0  0  0  0
    0.7212   -0.3801    0.0000 O   0  0  0  0  0  0  0  0  0  0  0  0
   -2.8311    0.8722    0.0000 O   0  0  0  0  0  0  0  0  0  0  0  0
   -1.4131    0.8722    0.0000 C   0  0  0  0  0  0  0  0  0  0  0  0
    0.0195    0.8722    0.0000 O   0  0  0  0  0  0  0  0  0  0  0  0
   -2.1294   -0.3801    0.0000 O   0  0  0  0  0  0  0  0  0  0  0  0
   -4.2539    0.8722    0.0000 C   0  0  0  0  0  0  0  0  0  0  0  0
   -3.5474    1.2669    0.0000 C   0  0  0  0  0  0  0  0  0  0  0  0
    2.1392   -1.2036    0.0000 N   0  0  0  0  0  0  0  0  0  0  0  0
    3.5669    1.2572    0.0000 N   0  0  0  0  0  0  0  0  0  0  0  0
   -0.7017    1.2669    0.0000 C   0  0  0  0  0  0  0  0  0  0  0  0
    2.8506   -1.6276    0.0000 C   0  0  0  0  0  0  0  0  0  0  0  0
    4.2735    0.8332    0.0000 C   0  0  0  0  0  0  0  0  0  0  0  0
    2.8506   -2.4608    0.0000 N   0  0  0  0  0  0  0  0  0  0  0  0
    4.2881   -0.0292    0.0000 N   0  0  0  0  0  0  0  0  0  0  0  0
   -3.5474   -1.2133    0.0000 N   0  0  0  0  0  0  0  0  0  0  0  0
    3.5718   -0.3801    0.0000 O   0  0  0  0  0  0  0  0  0  0  0  0
    0.7212    1.2669    0.0000 O   0  0  0  0  0  0  0  0  0  0  0  0
    2.1392    2.1148    0.0000 O   0  0  0  0  0  0  0  0  0  0  0  0
   -4.9800   -0.3947    0.0000 O   0  0  0  0  0  0  0  0  0  0  0  0
    5.0190    1.2230    0.0000 N   0  0  0  0  0  0  0  0  0  0  0  0
    3.5718   -1.2036    0.0000 N   0  0  0  0  0  0  0  0  0  0  0  0
   -4.9800    1.2815    0.0000 O   0  0  0  0  0  0  0  0  0  0  0  0
   -2.1294    1.2669    0.0000 C   0  0  0  0  0  0  0  0  0  0  0  0
   -3.5474    2.1148    0.0000 C   0  0  0  0  0  0  0  0  0  0  0  0
   -2.1294    2.1148    0.0000 O   0  0  0  0  0  0  0  0  0  0  0  0
   -4.2637    2.5241    0.0000 O   0  0  0  0  0  0  0  0  0  0  0  0
   -0.7017    2.1148    0.0000 C   0  0  0  0  0  0  0  0  0  0  0  0
   -2.8213   -1.6373    0.0000 C   0  0  0  0  0  0  0  0  0  0  0  0
   -2.1275    0.4597    0.0000 O   0  0  0  0  0  0  0  0  0  0  0  0
    7.2857   -0.9643    0.0000 S   0  0  0  0  0  0  0  0  0  0  0  0
    7.2857   -0.1393    0.0000 O   0  0  0  0  0  0  0  0  0  0  0  0
    7.2857   -1.7893    0.0000 O   0  0  0  0  0  0  0  0  0  0  0  0
    8.1107   -0.9643    0.0000 O   0  0  0  0  0  0  0  0  0  0  0  0
    6.4607   -0.9643    0.0000 O   0  0  0  0  0  0  0  0  0  0  0  0
    5.7321   -3.6429    0.0000 S   0  0  0  0  0  0  0  0  0  0  0  0
    5.7321   -2.8179    0.0000 O   0  0  0  0  0  0  0  0  0  0  0  0
    5.7321   -4.4679    0.0000 O   0  0  0  0  0  0  0  0  0  0  0  0
    6.5571   -3.6429    0.0000 O   0  0  0  0  0  0  0  0  0  0  0  0
    4.9071   -3.6429    0.0000 O   0  0  0  0  0  0  0  0  0  0  0  0
    9.8571   -3.7232    0.0000 S   0  0  0  0  0  0  0  0  0  0  0  0
    9.8571   -2.8982    0.0000 O   0  0  0  0  0  0  0  0  0  0  0  0
    9.8571   -4.5482    0.0000 O   0  0  0  0  0  0  0  0  0  0  0  0
   10.6821   -3.7232    0.0000 O   0  0  0  0  0  0  0  0  0  0  0  0
    9.0321   -3.7232    0.0000 O   0  0  0  0  0  0  0  0  0  0  0  0
  2  1  1  0
  3  9  1  0
  4 16  1  1
  5 12  1  1
  6  2  1  0
  7  4  1  0
  8  1  1  0
  9  8  1  0
 10  5  1  0
 11  7  1  0
  1 12  1  1
 13  4  1  0
 14 10  1  0
 15  5  1  0
 10 16  1  6
 17 18  1  0
 18 13  1  0
  2 19  1  6
  3 20  1  6
 21 15  1  0
 22 19  1  0
 23 20  1  0
 24 22  1  0
 25 23  1  0
  7 26  1  1
  6 27  1  1
  8 28  1  6
  9 29  1  1
 11 30  1  6
 31 23  2  0
 32 22  2  0
 17 33  1  1
 14 34  1  1
 18 35  1  6
 36 34  1  0
 37 35  1  0
 21 38  1  6
 39 26  1  0
  6  3  1  0
 14 21  1  0
 11 17  1  0
 14 40  1  0
 42 41  1  0
 43 49  1  0
 44 56  1  1
 45 52  1  1
 46 42  1  0
 47 44  1  0
 48 41  1  0
 49 48  1  0
 50 45  1  0
 51 47  1  0
 41 52  1  1
 53 44  1  0
 54 50  1  0
 55 45  1  0
 50 56  1  6
 57 58  1  0
 58 53  1  0
 42 59  1  6
 43 60  1  6
 61 55  1  0
 62 59  1  0
 63 60  1  0
 64 62  1  0
 65 63  1  0
 47 66  1  1
 46 67  1  1
 48 68  1  6
 49 69  1  1
 51 70  1  6
 71 63  2  0
 72 62  2  0
 57 73  1  1
 54 74  1  1
 58 75  1  6
 76 74  1  0
 77 75  1  0
 61 78  1  6
 79 66  1  0
 46 43  1  0
 54 61  1  0
 51 57  1  0
 54 80  1  0
 81 82  2  0
 81 83  2  0
 81 84  1  0
 81 85  1  0
 86 87  2  0
 86 88  2  0
 86 89  1  0
 86 90  1  0
 91 92  2  0
 91 93  2  0
 91 94  1  0
 91 95  1  0
M  END
> <chembl_id>
CHEMBL3188576

> <chembl_pref_name>
DIHYDROSTREPTOMYCIN SULFATE
