
     RDKit          2D

 16 16  0  0  1  0  0  0  0  0999 V2000
   -0.5500   -2.3167    0.0000 C   0  0  0  0  0  0  0  0  0  0  0  0
    0.0542   -2.6625    0.0000 C   0  0  0  0  0  0  0  0  0  0  0  0
    0.6792   -2.3042    0.0000 C   0  0  0  0  0  0  0  0  0  0  0  0
    1.2875   -2.6667    0.0000 C   0  0  0  0  0  0  0  0  0  0  0  0
   -1.1583   -2.6667    0.0000 F   0  0  0  0  0  0  0  0  0  0  0  0
   -0.5500   -1.6292    0.0000 F   0  0  0  0  0  0  0  0  0  0  0  0
   -1.1833   -1.9542    0.0000 F   0  0  0  0  0  0  0  0  0  0  0  0
    1.9000   -2.3125    0.0000 C   0  0  0  0  0  0  0  0  0  0  0  0
    3.1500   -2.3125    0.0000 N   0  0  0  0  0  0  0  0  0  0  0  0
    0.0542   -3.3917    0.0000 C   0  0  0  0  0  0  0  0  0  0  0  0
    2.5250   -2.6667    0.0000 C   0  0  0  0  0  0  0  0  0  0  0  0
    0.6875   -3.7417    0.0000 C   0  0  0  0  0  0  0  0  0  0  0  0
    1.2917   -3.3875    0.0000 C   0  0  0  0  0  0  0  0  0  0  0  0
    3.7667   -2.6667    0.0000 C   0  0  0  0  0  0  0  0  0  0  0  0
    2.5250   -3.3167    0.0000 C   0  0  0  0  0  0  0  0  0  0  0  0
    4.3917   -2.3000    0.0000 C   0  0  0  0  0  0  0  0  0  0  0  0
  2  1  1  0
  3  2  1  0
  4  3  2  0
  5  1  1  0
  6  1  1  0
  7  1  1  0
  8  4  1  0
  9 11  1  0
 10  2  2  0
 11  8  1  0
 12 10  1  0
 13 12  2  0
 14  9  1  0
 11 15  1  1
 16 14  1  0
 13  4  1  0
M  END
> <chembl_id>
CHEMBL248702

> <chembl_pref_name>
DEXFENFLURAMINE
