
     RDKit          2D

 17 19  0  0  0  0  0  0  0  0999 V2000
   -0.4792   -3.0583    0.0000 C   0  0  0  0  0  0  0  0  0  0  0  0
    1.3833   -3.3958    0.0000 C   0  0  0  0  0  0  0  0  0  0  0  0
   -1.0917   -3.4000    0.0000 C   0  0  0  0  0  0  0  0  0  0  0  0
    0.1292   -3.4000    0.0000 C   0  0  0  0  0  0  0  0  0  0  0  0
    0.7583   -3.0583    0.0000 N   0  0  0  0  0  0  0  0  0  0  0  0
    1.6167   -4.0958    0.0000 N   0  0  0  0  0  0  0  0  0  0  0  0
    1.9708   -3.0292    0.0000 N   0  0  0  0  0  0  0  0  0  0  0  0
   -1.7083   -3.0583    0.0000 N   0  0  0  0  0  0  0  0  0  0  0  0
   -1.0917   -4.1250    0.0000 C   0  0  0  0  0  0  0  0  0  0  0  0
   -1.7083   -4.4750    0.0000 N   0  0  0  0  0  0  0  0  0  0  0  0
    0.1292   -4.1250    0.0000 C   0  0  0  0  0  0  0  0  0  0  0  0
   -0.4792   -4.4750    0.0000 C   0  0  0  0  0  0  0  0  0  0  0  0
   -0.4792   -2.3375    0.0000 Br  0  0  0  0  0  0  0  0  0  0  0  0
    2.3042   -4.0958    0.0000 C   0  0  0  0  0  0  0  0  0  0  0  0
    2.5333   -3.3958    0.0000 C   0  0  0  0  0  0  0  0  0  0  0  0
   -2.3417   -3.4000    0.0000 C   0  0  0  0  0  0  0  0  0  0  0  0
   -2.3417   -4.1250    0.0000 C   0  0  0  0  0  0  0  0  0  0  0  0
  2  5  1  0
  3  1  1  0
  4  1  2  0
  5  4  1  0
  6  2  2  0
  7  2  1  0
  8  3  1  0
  9  3  2  0
 10  9  1  0
 11  4  1  0
 12 11  2  0
 13  1  1  0
 14  6  1  0
 15  7  1  0
 16  8  2  0
 17 10  2  0
 12  9  1  0
 17 16  1  0
 14 15  1  0
M  END
> <chembl_id>
CHEMBL844

> <chembl_pref_name>
BRIMONIDINE
