
     RDKit          2D

 26 27  0  0  0  0  0  0  0  0999 V2000
   -0.0083   -5.3125    0.0000 C   0  0  0  0  0  0  0  0  0  0  0  0
    0.6083   -4.9542    0.0000 C   0  0  0  0  0  0  0  0  0  0  0  0
    3.0542   -5.6625    0.0000 C   0  0  0  0  0  0  0  0  0  0  0  0
    2.4458   -5.3125    0.0000 C   0  0  0  0  0  0  0  0  0  0  0  0
    0.6083   -4.2500    0.0000 O   0  0  0  0  0  0  0  0  0  0  0  0
   -0.6208   -4.9542    0.0000 C   0  0  0  0  0  0  0  0  0  0  0  0
   -0.3625   -5.9250    0.0000 C   0  0  0  0  0  0  0  0  0  0  0  0
    0.3417   -5.9250    0.0000 O   0  0  0  0  0  0  0  0  0  0  0  0
    1.2208   -5.3125    0.0000 O   0  0  0  0  0  0  0  0  0  0  0  0
    4.2833   -5.6625    0.0000 N   0  0  0  0  0  0  0  0  0  0  0  0
    3.6667   -6.0167    0.0000 C   0  0  0  0  0  0  0  0  0  0  0  0
    1.8333   -4.9542    0.0000 C   0  0  0  0  0  0  0  0  0  0  0  0
   -1.2292   -5.3083    0.0000 C   0  0  0  0  0  0  0  0  0  0  0  0
   -0.6167   -4.2458    0.0000 C   0  0  0  0  0  0  0  0  0  0  0  0
    4.8958   -6.0167    0.0000 C   0  0  0  0  0  0  0  0  0  0  0  0
    4.2833   -4.9542    0.0000 C   0  0  0  0  0  0  0  0  0  0  0  0
   -1.0750   -5.9167    0.0000 C   0  0  0  0  0  0  0  0  0  0  0  0
   -0.0125   -6.5375    0.0000 C   0  0  0  0  0  0  0  0  0  0  0  0
    5.5083   -5.6625    0.0000 C   0  0  0  0  0  0  0  0  0  0  0  0
    4.8958   -4.6000    0.0000 C   0  0  0  0  0  0  0  0  0  0  0  0
   -1.2292   -3.8917    0.0000 C   0  0  0  0  0  0  0  0  0  0  0  0
   -1.8417   -4.9583    0.0000 C   0  0  0  0  0  0  0  0  0  0  0  0
   -0.3750   -7.1500    0.0000 C   0  0  0  0  0  0  0  0  0  0  0  0
   -1.4333   -6.5250    0.0000 C   0  0  0  0  0  0  0  0  0  0  0  0
   -1.8458   -4.2458    0.0000 C   0  0  0  0  0  0  0  0  0  0  0  0
   -1.0833   -7.1458    0.0000 C   0  0  0  0  0  0  0  0  0  0  0  0
  2  1  1  0
  3  4  3  0
  4 12  1  0
  5  2  2  0
  6  1  1  0
  7  1  1  0
  8  1  1  0
  9  2  1  0
 10 11  1  0
 11  3  1  0
 12  9  1  0
 13  6  1  0
 14  6  2  0
 15 10  1  0
 16 10  1  0
 17  7  1  0
 18  7  1  0
 19 15  1  0
 20 16  1  0
 21 14  1  0
 22 13  2  0
 23 18  1  0
 24 17  1  0
 25 21  2  0
 26 24  1  0
 23 26  1  0
 22 25  1  0
M  END
> <chembl_id>
CHEMBL1231

> <chembl_pref_name>
OXYBUTYNIN
