
     RDKit          2D

 11 11  0  0  0  0  0  0  0  0999 V2000
    5.5000   -6.7542    0.0000 N   0  0  0  0  0  0  0  0  0  0  0  0
    5.7250   -6.0792    0.0000 C   0  0  0  0  0  0  0  0  0  0  0  0
    4.7792   -6.7542    0.0000 C   0  0  0  0  0  0  0  0  0  0  0  0
    5.1417   -5.6542    0.0000 O   0  0  0  0  0  0  0  0  0  0  0  0
    4.5667   -6.0750    0.0000 C   0  0  0  0  0  0  0  0  0  0  0  0
    6.4042   -5.8625    0.0000 O   0  0  0  0  0  0  0  0  0  0  0  0
    4.3542   -7.3292    0.0000 O   0  0  0  0  0  0  0  0  0  0  0  0
    5.9250   -7.3375    0.0000 C   0  0  0  0  0  0  0  0  0  0  0  0
    4.3750   -5.4292    0.0000 C   0  0  0  0  0  0  0  0  0  0  0  0
    3.9542   -6.4417    0.0000 C   0  0  0  0  0  0  0  0  0  0  0  0
    3.7375   -5.1500    0.0000 C   0  0  0  0  0  0  0  0  0  0  0  0
  2  1  1  0
  3  1  1  0
  4  2  1  0
  5  3  1  0
  6  2  2  0
  7  3  2  0
  8  1  1  0
  9  5  1  0
 10  5  1  0
 11  9  1  0
  4  5  1  0
M  END
> <chembl_id>
CHEMBL1100

> <chembl_pref_name>
PARAMETHADIONE
