
     RDKit          2D

 23 25  0  0  1  0  0  0  0  0999 V2000
    1.3542    0.7333    0.0000 N   0  0  0  0  0  0  0  0  0  0  0  0
    0.6542    0.0500    0.0000 C   0  0  0  0  0  0  0  0  0  0  0  0
    2.3167    0.5958    0.0000 C   0  0  0  0  0  0  0  0  0  0  0  0
    2.7667    1.4583    0.0000 C   0  0  0  0  0  0  0  0  0  0  0  0
    2.0792    2.1458    0.0000 N   0  0  0  0  0  0  0  0  0  0  0  0
    0.8042   -0.9167    0.0000 C   0  0  0  0  0  0  0  0  0  0  0  0
    1.2042    1.7000    0.0000 C   0  0  0  0  0  0  0  0  0  0  0  0
   -0.2833    0.2208    0.0000 O   0  0  0  0  0  0  0  0  0  0  0  0
   -0.7458   -0.6417    0.0000 C   0  0  0  0  0  0  0  0  0  0  0  0
   -0.0583   -1.3417    0.0000 C   0  0  0  0  0  0  0  0  0  0  0  0
   -3.2833   -0.1542    0.0000 P   0  0  0  0  0  0  0  0  0  0  0  0
    3.7417    1.5000    0.0000 C   0  0  0  0  0  0  0  0  0  0  0  0
    2.8417   -0.2417    0.0000 N   0  0  0  0  0  0  0  0  0  0  0  0
    4.2750    0.6833    0.0000 N   0  0  0  0  0  0  0  0  0  0  0  0
   -1.7208   -0.7792    0.0000 C   0  0  0  0  0  0  0  0  0  0  0  0
    3.8167   -0.1875    0.0000 C   0  0  0  0  0  0  0  0  0  0  0  0
   -2.3208   -0.0167    0.0000 O   0  0  0  0  0  0  0  0  0  0  0  0
   -4.2208   -0.4667    0.0000 O   0  0  0  0  0  0  0  0  0  0  0  0
    1.6542   -1.3667    0.0000 O   0  0  0  0  0  0  0  0  0  0  0  0
   -3.6750    0.7375    0.0000 O   0  0  0  0  0  0  0  0  0  0  0  0
   -3.0625   -1.1167    0.0000 O   0  0  0  0  0  0  0  0  0  0  0  0
    4.1917    2.3750    0.0000 N   0  0  0  0  0  0  0  0  0  0  0  0
   -0.2333   -2.3042    0.0000 O   0  0  0  0  0  0  0  0  0  0  0  0
  2  1  1  1
  3  1  1  0
  4  3  2  0
  5  7  2  0
  6  2  1  0
  7  1  1  0
  8  2  1  0
  9  8  1  0
 10  6  1  0
 11 17  1  0
 12  4  1  0
 13  3  1  0
 14 16  1  0
  9 15  1  1
 16 13  2  0
 17 15  1  0
 18 11  2  0
  6 19  1  6
 20 11  1  0
 21 11  1  0
 22 12  1  0
 10 23  1  6
  4  5  1  0
  9 10  1  0
 12 14  2  0
M  END
> <chembl_id>
CHEMBL752

> <chembl_pref_name>
ADENOSINE PHOSPHATE
