
     RDKit          2D

 87 85  0  0  0  0  0  0  0  0999 V2000
    1.6500  -21.9509    0.0000 O   0  0  0  0  0  0  0  0  0  0  0  0
  -12.7580  -19.6821    0.0000 O   0  0  0  0  0  0  0  0  0  0  0  0
  -12.0436  -19.2696    0.0000 C   0  0  0  0  0  0  0  0  0  0  0  0
  -11.3291  -19.6821    0.0000 C   0  0  0  0  0  0  0  0  0  0  0  0
  -10.6146  -19.2696    0.0000 N   0  0  0  0  0  0  0  0  0  0  0  0
   -9.9002  -19.6821    0.0000 C   0  0  0  0  0  0  0  0  0  0  0  0
   -9.1857  -19.2696    0.0000 C   0  0  0  0  0  0  0  0  0  0  0  0
   -8.4712  -19.6821    0.0000 N   0  0  0  0  0  0  0  0  0  0  0  0
   -7.7567  -19.2696    0.0000 C   0  0  0  0  0  0  0  0  0  0  0  0
   -7.0423  -19.6821    0.0000 C   0  0  0  0  0  0  0  0  0  0  0  0
   -6.3278  -19.2696    0.0000 C   0  0  0  0  0  0  0  0  0  0  0  0
   -5.6133  -19.6821    0.0000 C   0  0  0  0  0  0  0  0  0  0  0  0
   -4.8989  -19.2696    0.0000 N   0  0  0  0  0  0  0  0  0  0  0  0
   -4.1844  -19.6821    0.0000 C   0  0  0  0  0  0  0  0  0  0  0  0
   -3.4699  -19.2696    0.0000 C   0  0  0  0  0  0  0  0  0  0  0  0
   -2.7554  -19.6821    0.0000 N   0  0  0  0  0  0  0  0  0  0  0  0
   -2.0410  -19.2696    0.0000 C   0  0  0  0  0  0  0  0  0  0  0  0
   -1.3265  -19.6821    0.0000 C   0  0  0  0  0  0  0  0  0  0  0  0
   -0.6120  -19.2696    0.0000 O   0  0  0  0  0  0  0  0  0  0  0  0
    0.1024  -19.6821    0.0000 P   0  0  0  0  0  0  0  0  0  0  0  0
    0.1024  -20.5071    0.0000 O   0  0  0  0  0  0  0  0  0  0  0  0
   -0.6120  -20.9196    0.0000 C   0  0  0  0  0  0  0  0  0  0  0  0
   -0.6120  -21.7446    0.0000 C   0  0  0  0  0  0  0  0  0  0  0  0
   -1.3265  -22.1571    0.0000 O   0  0  0  0  0  0  0  0  0  0  0  0
    0.1024  -22.1571    0.0000 C   0  0  0  0  0  0  0  0  0  0  0  0
    0.1024  -22.9821    0.0000 O   0  0  0  0  0  0  0  0  0  0  0  0
   -0.6120  -23.3946    0.0000 C   0  0  0  0  0  0  0  0  0  0  0  0
   -0.6120  -24.2196    0.0000 O   0  0  0  0  0  0  0  0  0  0  0  0
   -1.3265  -22.9821    0.0000 C   0  0  0  0  0  0  0  0  0  0  0  0
   -2.0410  -23.3946    0.0000 C   0  0  0  0  0  0  0  0  0  0  0  0
   -2.7554  -22.9821    0.0000 C   0  0  0  0  0  0  0  0  0  0  0  0
   -3.4699  -23.3946    0.0000 C   0  0  0  0  0  0  0  0  0  0  0  0
   -4.1844  -22.9821    0.0000 C   0  0  0  0  0  0  0  0  0  0  0  0
   -4.8989  -23.3946    0.0000 C   0  0  0  0  0  0  0  0  0  0  0  0
   -5.6133  -22.9821    0.0000 C   0  0  0  0  0  0  0  0  0  0  0  0
   -6.3278  -23.3946    0.0000 C   0  0  0  0  0  0  0  0  0  0  0  0
   -7.0423  -22.9821    0.0000 C   0  0  0  0  0  0  0  0  0  0  0  0
   -7.7567  -23.3946    0.0000 C   0  0  0  0  0  0  0  0  0  0  0  0
   -8.4712  -22.9821    0.0000 C   0  0  0  0  0  0  0  0  0  0  0  0
   -9.1857  -23.3946    0.0000 C   0  0  0  0  0  0  0  0  0  0  0  0
   -9.9002  -22.9821    0.0000 C   0  0  0  0  0  0  0  0  0  0  0  0
  -10.6146  -23.3946    0.0000 C   0  0  0  0  0  0  0  0  0  0  0  0
  -11.3291  -22.9821    0.0000 C   0  0  0  0  0  0  0  0  0  0  0  0
   -2.0410  -21.7446    0.0000 C   0  0  0  0  0  0  0  0  0  0  0  0
   -2.7554  -22.1571    0.0000 C   0  0  0  0  0  0  0  0  0  0  0  0
   -3.4699  -21.7446    0.0000 C   0  0  0  0  0  0  0  0  0  0  0  0
   -4.1844  -22.1571    0.0000 C   0  0  0  0  0  0  0  0  0  0  0  0
   -4.8989  -21.7446    0.0000 C   0  0  0  0  0  0  0  0  0  0  0  0
   -5.6133  -22.1571    0.0000 C   0  0  0  0  0  0  0  0  0  0  0  0
   -6.3278  -21.7446    0.0000 C   0  0  0  0  0  0  0  0  0  0  0  0
   -7.0423  -22.1571    0.0000 C   0  0  0  0  0  0  0  0  0  0  0  0
   -7.7567  -21.7446    0.0000 C   0  0  0  0  0  0  0  0  0  0  0  0
   -8.4712  -22.1571    0.0000 C   0  0  0  0  0  0  0  0  0  0  0  0
   -9.1857  -21.7446    0.0000 C   0  0  0  0  0  0  0  0  0  0  0  0
   -9.9002  -22.1571    0.0000 C   0  0  0  0  0  0  0  0  0  0  0  0
  -10.6146  -21.7446    0.0000 C   0  0  0  0  0  0  0  0  0  0  0  0
  -11.3291  -22.1571    0.0000 C   0  0  0  0  0  0  0  0  0  0  0  0
  -12.0436  -21.7446    0.0000 C   0  0  0  0  0  0  0  0  0  0  0  0
  -12.7580  -22.1571    0.0000 C   0  0  0  0  0  0  0  0  0  0  0  0
   -2.0410  -20.9196    0.0000 O   0  0  0  0  0  0  0  0  0  0  0  0
    0.9274  -19.6821    0.0000 O   0  0  0  0  0  0  0  0  0  0  0  0
    0.3160  -18.8853    0.0000 O   0  0  0  0  0  0  0  0  0  0  0  0
   -3.4699  -18.4446    0.0000 O   0  0  0  0  0  0  0  0  0  0  0  0
   -4.1844  -20.5071    0.0000 C   0  0  0  0  0  0  0  0  0  0  0  0
   -5.6133  -20.5071    0.0000 O   0  0  0  0  0  0  0  0  0  0  0  0
   -7.7567  -18.4446    0.0000 C   0  0  0  0  0  0  0  0  0  0  0  0
   -7.0423  -18.0321    0.0000 N   0  0  0  0  0  0  0  0  0  0  0  0
   -8.4712  -18.0321    0.0000 O   0  0  0  0  0  0  0  0  0  0  0  0
   -9.1857  -18.4446    0.0000 O   0  0  0  0  0  0  0  0  0  0  0  0
   -9.9002  -20.5071    0.0000 C   0  0  0  0  0  0  0  0  0  0  0  0
  -11.3291  -20.5071    0.0000 O   0  0  0  0  0  0  0  0  0  0  0  0
  -12.0436  -18.4446    0.0000 C   0  0  0  0  0  0  0  0  0  0  0  0
  -13.4725  -19.2696    0.0000 C   0  0  0  0  0  0  0  0  0  0  0  0
  -13.4725  -18.4446    0.0000 C   0  0  0  0  0  0  0  0  0  0  0  0
  -14.1870  -18.0321    0.0000 C   0  0  0  0  0  0  0  0  0  0  0  0
  -14.9015  -18.4446    0.0000 O   0  0  0  0  0  0  0  0  0  0  0  0
  -14.9015  -19.2696    0.0000 C   0  0  0  0  0  0  0  0  0  0  0  0
  -14.1870  -19.6821    0.0000 C   0  0  0  0  0  0  0  0  0  0  0  0
  -12.7580  -18.0321    0.0000 N   0  0  0  0  0  0  0  0  0  0  0  0
  -12.7580  -17.2071    0.0000 C   0  0  0  0  0  0  0  0  0  0  0  0
  -12.0436  -16.7946    0.0000 C   0  0  0  0  0  0  0  0  0  0  0  0
  -13.4725  -16.7946    0.0000 O   0  0  0  0  0  0  0  0  0  0  0  0
  -14.1870  -17.2071    0.0000 O   0  0  0  0  0  0  0  0  0  0  0  0
  -15.6159  -19.6821    0.0000 C   0  0  0  0  0  0  0  0  0  0  0  0
  -15.6159  -20.5071    0.0000 O   0  0  0  0  0  0  0  0  0  0  0  0
  -14.1870  -20.5071    0.0000 O   0  0  0  0  0  0  0  0  0  0  0  0
    1.7384  -19.6821    0.0000 Na  0  0  0  0  0 15  0  0  0  0  0  0
  2  3  1  0
  3  4  1  0
  4  5  1  0
  5  6  1  0
  6  7  1  0
  7  8  1  0
  8  9  1  0
  9 10  1  0
 10 11  1  0
 11 12  1  0
 12 13  1  0
 13 14  1  0
 14 15  1  0
 15 16  1  0
 16 17  1  0
 17 18  1  0
 18 19  1  0
 19 20  1  0
 20 21  1  0
 21 22  1  0
 22 23  1  0
 23 24  1  1
 23 25  1  0
 25 26  1  0
 26 27  1  0
 27 28  2  0
 27 29  1  0
 29 30  1  0
 30 31  1  0
 31 32  1  0
 32 33  1  0
 33 34  1  0
 34 35  1  0
 35 36  1  0
 36 37  1  0
 37 38  1  0
 38 39  1  0
 39 40  1  0
 40 41  1  0
 41 42  1  0
 42 43  1  0
 24 44  1  0
 44 45  1  0
 45 46  1  0
 46 47  1  0
 47 48  1  0
 48 49  1  0
 49 50  1  0
 50 51  1  0
 51 52  1  0
 52 53  1  0
 53 54  1  0
 54 55  1  0
 55 56  1  0
 56 57  1  0
 57 58  1  0
 58 59  1  0
 44 60  2  0
 20 61  1  0
 20 62  2  0
 15 63  2  0
 14 64  1  6
 12 65  2  0
  9 66  1  1
 66 67  1  0
 66 68  2  0
  7 69  2  0
  6 70  1  6
  4 71  2  0
  3 72  1  6
 73  2  1  1
 73 74  1  0
 78 73  1  0
 74 75  1  0
 75 76  1  0
 76 77  1  0
 77 78  1  0
 74 79  1  6
 79 80  1  0
 80 81  1  0
 80 82  2  0
 75 83  1  0
 77 84  1  1
 84 85  1  0
 78 86  1  6
M  CHG  2  61  -1  87   1
M  END
> <chembl_id>
CHEMBL2107354

> <chembl_pref_name>
MIFAMURTIDE
