
     RDKit          2D

 17 16  0  0  0  0  0  0  0  0999 V2000
    0.0417   -0.3042    0.0000 C   0  0  0  0  0  0  0  0  0  0  0  0
   -1.1583    0.3833    0.0000 C   0  0  0  0  0  0  0  0  0  0  0  0
    1.2375    0.3833    0.0000 C   0  0  0  0  0  0  0  0  0  0  0  0
   -2.3625   -0.3167    0.0000 C   0  0  0  0  0  0  0  0  0  0  0  0
    2.4417   -0.3000    0.0000 C   0  0  0  0  0  0  0  0  0  0  0  0
   -0.9833   -1.5125    0.0000 F   0  0  0  0  0  0  0  0  0  0  0  0
    0.9542   -1.4125    0.0000 F   0  0  0  0  0  0  0  0  0  0  0  0
   -0.4708    1.8000    0.0000 F   0  0  0  0  0  0  0  0  0  0  0  0
   -2.2083    1.4458    0.0000 F   0  0  0  0  0  0  0  0  0  0  0  0
    0.6417    1.8000    0.0000 F   0  0  0  0  0  0  0  0  0  0  0  0
    2.3375    1.2958    0.0000 F   0  0  0  0  0  0  0  0  0  0  0  0
   -3.5708   -1.0000    0.0000 F   0  0  0  0  0  0  0  0  0  0  0  0
   -2.3708   -1.7042    0.0000 F   0  0  0  0  0  0  0  0  0  0  0  0
   -3.5708    0.3833    0.0000 F   0  0  0  0  0  0  0  0  0  0  0  0
    2.4375   -1.6917    0.0000 F   0  0  0  0  0  0  0  0  0  0  0  0
    3.6417    0.4083    0.0000 F   0  0  0  0  0  0  0  0  0  0  0  0
    3.6417   -0.9917    0.0000 F   0  0  0  0  0  0  0  0  0  0  0  0
  2  1  1  0
  3  1  1  0
  4  2  1  0
  5  3  1  0
  6  1  1  0
  7  1  1  0
  8  2  1  0
  9  2  1  0
 10  3  1  0
 11  3  1  0
 12  4  1  0
 13  4  1  0
 14  4  1  0
 15  5  1  0
 16  5  1  0
 17  5  1  0
M  END
> <chembl_id>
CHEMBL1899801

> <chembl_pref_name>
PERFLENAPENT
