
     RDKit          2D

 20 23  0  0  0  0  0  0  0  0999 V2000
    5.0792   -4.6167    0.0000 N   0  0  0  0  0  0  0  0  0  0  0  0
    4.4417   -4.9375    0.0000 C   0  0  0  0  0  0  0  0  0  0  0  0
    5.6792   -4.9417    0.0000 C   0  0  0  0  0  0  0  0  0  0  0  0
    5.3917   -6.1542    0.0000 N   0  0  0  0  0  0  0  0  0  0  0  0
    4.2792   -5.5917    0.0000 C   0  0  0  0  0  0  0  0  0  0  0  0
    4.7000   -6.1542    0.0000 C   0  0  0  0  0  0  0  0  0  0  0  0
    5.8375   -5.6042    0.0000 C   0  0  0  0  0  0  0  0  0  0  0  0
    5.0792   -3.9292    0.0000 C   0  0  0  0  0  0  0  0  0  0  0  0
    6.2500   -4.4667    0.0000 N   0  0  0  0  0  0  0  0  0  0  0  0
    4.7625   -3.2542    0.0000 C   0  0  0  0  0  0  0  0  0  0  0  0
    5.4500   -3.2417    0.0000 C   0  0  0  0  0  0  0  0  0  0  0  0
    3.9250   -4.4292    0.0000 N   0  0  0  0  0  0  0  0  0  0  0  0
    4.3792   -6.7792    0.0000 O   0  0  0  0  0  0  0  0  0  0  0  0
    6.5167   -5.8500    0.0000 C   0  0  0  0  0  0  0  0  0  0  0  0
    3.5875   -5.7792    0.0000 C   0  0  0  0  0  0  0  0  0  0  0  0
    6.9250   -4.7000    0.0000 C   0  0  0  0  0  0  0  0  0  0  0  0
    3.2417   -4.6167    0.0000 C   0  0  0  0  0  0  0  0  0  0  0  0
    7.0667   -5.3750    0.0000 C   0  0  0  0  0  0  0  0  0  0  0  0
    6.6792   -6.5417    0.0000 C   0  0  0  0  0  0  0  0  0  0  0  0
    3.0792   -5.2917    0.0000 C   0  0  0  0  0  0  0  0  0  0  0  0
  2  1  1  0
  3  1  1  0
  4  7  1  0
  5  2  2  0
  6  5  1  0
  7  3  2  0
  8  1  1  0
  9  3  1  0
 10  8  1  0
 11  8  1  0
 12  2  1  0
 13  6  2  0
 14  7  1  0
 15  5  1  0
 16  9  2  0
 17 12  2  0
 18 16  1  0
 19 14  1  0
 20 17  1  0
 11 10  1  0
  6  4  1  0
 18 14  2  0
 20 15  2  0
M  END
> <chembl_id>
CHEMBL57

> <chembl_pref_name>
NEVIRAPINE
