
     RDKit          2D

 49 51  0  0  0  0  0  0  0  0999 V2000
   -5.2500   -2.5189    0.0000 C   0  0  0  0  0  0  0  0  0  0  0  0
   -5.9644   -2.1064    0.0000 C   0  0  0  0  0  0  0  0  0  0  0  0
   -5.9644   -1.2814    0.0000 C   0  0  0  0  0  0  0  0  0  0  0  0
   -5.2499   -0.8689    0.0000 C   0  0  0  0  0  0  0  0  0  0  0  0
   -4.5355   -1.2814    0.0000 C   0  0  0  0  0  0  0  0  0  0  0  0
   -4.5355   -2.1064    0.0000 C   0  0  0  0  0  0  0  0  0  0  0  0
   -5.2499   -0.0439    0.0000 C   0  0  0  0  0  0  0  0  0  0  0  0
   -4.5355    0.3686    0.0000 C   0  0  0  0  0  0  0  0  0  0  0  0
   -4.5354    1.1936    0.0000 N   0  0  0  0  0  0  0  0  0  0  0  0
   -3.8210   -0.0439    0.0000 C   0  0  0  0  0  0  0  0  0  0  0  0
   -3.8210   -0.8689    0.0000 O   0  0  0  0  0  0  0  0  0  0  0  0
   -3.1065    0.3686    0.0000 N   0  0  0  0  0  0  0  0  0  0  0  0
   -2.3920   -0.0439    0.0000 C   0  0  0  0  0  0  0  0  0  0  0  0
   -1.6776    0.3686    0.0000 C   0  0  0  0  0  0  0  0  0  0  0  0
   -2.3921   -0.8689    0.0000 C   0  0  0  0  0  0  0  0  0  0  0  0
   -1.6776   -1.2814    0.0000 C   0  0  0  0  0  0  0  0  0  0  0  0
   -1.6776    1.1936    0.0000 O   0  0  0  0  0  0  0  0  0  0  0  0
   -0.9631   -0.0439    0.0000 N   0  0  0  0  0  0  0  0  0  0  0  0
   -0.2486    0.3686    0.0000 C   0  0  0  0  0  0  0  0  0  0  0  0
   -0.2486    1.1936    0.0000 C   0  0  0  0  0  0  0  0  0  0  0  0
    0.4659    1.6061    0.0000 C   0  0  0  0  0  0  0  0  0  0  0  0
    0.4659    2.4311    0.0000 C   0  0  0  0  0  0  0  0  0  0  0  0
    1.1803    1.1936    0.0000 C   0  0  0  0  0  0  0  0  0  0  0  0
    0.4658   -0.0439    0.0000 C   0  0  0  0  0  0  0  0  0  0  0  0
    0.4658   -0.8689    0.0000 O   0  0  0  0  0  0  0  0  0  0  0  0
    1.1803    0.3686    0.0000 N   0  0  0  0  0  0  0  0  0  0  0  0
    1.8948   -0.0440    0.0000 C   0  0  0  0  0  0  0  0  0  0  0  0
    2.6093    0.3685    0.0000 C   0  0  0  0  0  0  0  0  0  0  0  0
    2.6093    1.1935    0.0000 O   0  0  0  0  0  0  0  0  0  0  0  0
    3.3237   -0.0440    0.0000 N   0  0  0  0  0  0  0  0  0  0  0  0
    1.8948   -0.8690    0.0000 C   0  0  0  0  0  0  0  0  0  0  0  0
    2.6092   -1.2815    0.0000 C   0  0  0  0  0  0  0  0  0  0  0  0
    2.6092   -2.1065    0.0000 C   0  0  0  0  0  0  0  0  0  0  0  0
    3.3237   -2.5190    0.0000 C   0  0  0  0  0  0  0  0  0  0  0  0
    3.3237   -3.3440    0.0000 N   0  0  0  0  0  0  0  0  0  0  0  0
   -0.9631   -0.8689    0.0000 C   0  0  0  0  0  0  0  0  0  0  0  0
   -0.2486   -1.2814    0.0000 C   0  0  0  0  0  0  0  0  0  0  0  0
   -0.2487   -2.1064    0.0000 C   0  0  0  0  0  0  0  0  0  0  0  0
   -0.9631   -2.5189    0.0000 C   0  0  0  0  0  0  0  0  0  0  0  0
   -1.6776   -2.1064    0.0000 C   0  0  0  0  0  0  0  0  0  0  0  0
    4.0382    0.3685    0.0000 C   0  0  0  0  0  0  0  0  0  0  0  0
    3.3237   -0.8690    0.0000 C   0  0  0  0  0  0  0  0  0  0  0  0
    4.0382   -1.2815    0.0000 C   0  0  0  0  0  0  0  0  0  0  0  0
    4.7527   -0.8690    0.0000 C   0  0  0  0  0  0  0  0  0  0  0  0
    4.7527   -0.0440    0.0000 C   0  0  0  0  0  0  0  0  0  0  0  0
    5.2193   -1.6570    0.0000 N   0  0  0  0  0  0  0  0  0  0  0  0
    5.4004   -0.6621    0.0000 C   0  0  0  0  0  0  0  0  0  0  0  0
    5.6902    0.0965    0.0000 O   0  0  0  0  0  0  0  0  0  0  0  0
    5.9645   -1.2432    0.0000 O   0  0  0  0  0  0  0  0  0  0  0  0
  1  2  1  0
  2  3  2  0
  3  4  1  0
  4  5  2  0
  5  6  1  0
  1  6  2  0
  4  7  1  0
  8  7  1  1
  8  9  1  0
  8 10  1  0
 10 11  2  0
 10 12  1  0
 12 13  1  0
 13 14  1  0
 13 15  1  1
 15 16  1  0
 14 17  2  0
 14 18  1  0
 18 19  1  0
 19 20  1  6
 20 21  1  0
 21 22  1  0
 21 23  1  0
 19 24  1  0
 24 25  2  0
 24 26  1  0
 26 27  1  0
 27 28  1  0
 28 29  2  0
 28 30  1  0
 27 31  1  1
 31 32  1  0
 32 33  1  0
 33 34  1  0
 34 35  1  0
 36 37  2  0
 37 38  1  0
 38 39  2  0
 39 40  1  0
 16 36  1  0
 16 40  2  0
 42 43  1  0
 43 44  1  0
 44 45  1  0
 41 45  1  0
 41 30  1  0
 30 42  1  0
 44 46  1  0
 44 47  1  0
 47 48  1  0
 47 49  2  0
M  END
> <chembl_id>
CHEMBL3989915

> <chembl_pref_name>
DIFELIKEFALIN
