
     RDKit          2D

 13 12  0  0  0  0  0  0  0  0999 V2000
    2.2793    1.4787    0.0000 Cl  0  0  0  0  0  0  0  0  0  0  0  0
    0.8949   -0.5095    0.0000 C   0  0  0  0  0  0  0  0  0  0  0  0
    1.6094   -0.9220    0.0000 O   0  0  0  0  0  0  0  0  0  0  0  0
    0.1804   -0.9220    0.0000 C   0  0  0  0  0  0  0  0  0  0  0  0
    0.1804   -1.7470    0.0000 N   0  0  0  0  0  0  0  0  0  0  0  0
   -0.5340   -0.5095    0.0000 C   0  0  0  0  0  0  0  0  0  0  0  0
   -1.2485   -0.9220    0.0000 O   0  0  0  0  0  0  0  0  0  0  0  0
   -0.5340    0.3155    0.0000 C   0  0  0  0  0  0  0  0  0  0  0  0
   -1.2485    0.7280    0.0000 O   0  0  0  0  0  0  0  0  0  0  0  0
    0.1804    0.7280    0.0000 C   0  0  0  0  0  0  0  0  0  0  0  0
    0.8949    0.3155    0.0000 O   0  0  0  0  0  0  0  0  0  0  0  0
    0.1804    1.5530    0.0000 C   0  0  0  0  0  0  0  0  0  0  0  0
   -0.5340    1.9655    0.0000 O   0  0  0  0  0  0  0  0  0  0  0  0
  2  3  1  0
  2  4  1  0
  2 11  1  0
  4  5  1  6
  4  6  1  0
  6  7  1  1
  6  8  1  0
  8  9  1  6
  8 10  1  0
 10 11  1  0
 10 12  1  1
 12 13  1  0
M  END
> <chembl_id>
CHEMBL1707007

> <chembl_pref_name>
GLUCOSAMINE HYDROCHLORIDE
