
     RDKit          2D

 31 34  0  0  1  0  0  0  0  0999 V2000
    2.0577    0.3300    0.0000 C   0  0  0  0  0  0  0  0  0  0  0  0
    0.6309   -0.4950    0.0000 N   0  0  0  0  0  0  0  0  0  0  0  0
    1.3443    0.7376    0.0000 C   0  0  0  0  0  0  0  0  0  0  0  0
    2.7711   -0.0874    0.0000 C   0  0  0  0  0  0  0  0  0  0  0  0
   -1.5093   -1.7326    0.0000 C   0  0  0  0  0  0  0  0  0  0  0  0
    0.6309    0.3300    0.0000 C   0  0  0  0  0  0  0  0  0  0  0  0
   -1.5238   -3.3826    0.0000 N   0  0  0  0  0  0  0  0  0  0  0  0
   -1.5142   -2.5528    0.0000 C   0  0  0  0  0  0  0  0  0  0  0  0
    2.0577   -0.4999    0.0000 C   0  0  0  0  0  0  0  0  0  0  0  0
   -0.0825   -0.9076    0.0000 C   0  0  0  0  0  0  0  0  0  0  0  0
    1.3443   -0.9076    0.0000 C   0  0  0  0  0  0  0  0  0  0  0  0
   -2.2227   -2.1451    0.0000 C   0  0  0  0  0  0  0  0  0  0  0  0
    2.4751    1.0434    0.0000 C   0  0  0  0  0  0  0  0  0  0  0  0
    2.7711   -0.9076    0.0000 O   0  0  0  0  0  0  0  0  0  0  0  0
   -1.5142   -0.9076    0.0000 C   0  0  0  0  0  0  0  0  0  0  0  0
   -0.7959   -2.1451    0.0000 C   0  0  0  0  0  0  0  0  0  0  0  0
   -0.0825   -1.7326    0.0000 C   0  0  0  0  0  0  0  0  0  0  0  0
   -0.7959   -0.4950    0.0000 C   0  0  0  0  0  0  0  0  0  0  0  0
   -2.9361   -1.7374    0.0000 C   0  0  0  0  0  0  0  0  0  0  0  0
   -2.2227   -2.9750    0.0000 C   0  0  0  0  0  0  0  0  0  0  0  0
    3.4846    0.3300    0.0000 O   0  0  0  0  0  0  0  0  0  0  0  0
   -3.6495   -2.9750    0.0000 C   0  0  0  0  0  0  0  0  0  0  0  0
   -2.9361   -3.3923    0.0000 C   0  0  0  0  0  0  0  0  0  0  0  0
   -3.6495   -2.1548    0.0000 C   0  0  0  0  0  0  0  0  0  0  0  0
   -4.3629   -3.3923    0.0000 F   0  0  0  0  0  0  0  0  0  0  0  0
    1.3443    1.5675    0.0000 C   0  0  0  0  0  0  0  0  0  0  0  0
    3.2953    1.0434    0.0000 C   0  0  0  0  0  0  0  0  0  0  0  0
    2.0577    1.7471    0.0000 C   0  0  0  0  0  0  0  0  0  0  0  0
    2.4654    2.4702    0.0000 C   0  0  0  0  0  0  0  0  0  0  0  0
    3.7126    1.7568    0.0000 C   0  0  0  0  0  0  0  0  0  0  0  0
    3.2953    2.4702    0.0000 C   0  0  0  0  0  0  0  0  0  0  0  0
  2 11  1  0
  3  1  1  0
  4  1  1  0
  5 15  1  0
  6  3  1  0
  7  8  3  0
  8  5  1  0
  9  1  1  0
 10  2  1  1
 11  9  1  0
  5 12  1  6
  1 13  1  1
 14  4  2  0
 15 18  1  0
 16 17  1  0
 17 10  1  0
 18 10  1  0
 19 12  2  0
 20 12  1  0
 21  4  1  0
 22 23  1  0
 23 20  2  0
 24 19  1  0
 25 22  1  0
  3 26  1  1
 27 13  2  0
 28 13  1  0
 29 28  2  0
 30 27  1  0
 31 30  2  0
  2  6  1  0
 31 29  1  0
 16  5  1  0
 22 24  2  0
M  END
> <chembl_id>
CHEMBL1615438

> <chembl_pref_name>
LEVOCABASTINE
