
     RDKit          2D

 38 43  0  0  0  0  0  0  0  0999 V2000
    7.7777   -7.7238    0.0000 Cl  0  0  0  0  0  0  0  0  0  0  0  0
    4.6754   -5.9007    0.0000 C   0  0  0  0  0  0  0  0  0  0  0  0
    5.0774   -5.1900    0.0000 C   0  0  0  0  0  0  0  0  0  0  0  0
    5.0774   -6.6064    0.0000 C   0  0  0  0  0  0  0  0  0  0  0  0
    5.9007   -6.6162    0.0000 C   0  0  0  0  0  0  0  0  0  0  0  0
    3.8423   -5.9007    0.0000 C   0  0  0  0  0  0  0  0  0  0  0  0
    6.3124   -5.9007    0.0000 C   0  0  0  0  0  0  0  0  0  0  0  0
    3.4404   -6.6162    0.0000 C   0  0  0  0  0  0  0  0  0  0  0  0
    4.2246   -7.0279    0.0000 O   0  0  0  0  0  0  0  0  0  0  0  0
    4.6754   -4.4745    0.0000 C   0  0  0  0  0  0  0  0  0  0  0  0
    5.0871   -3.7541    0.0000 N   0  0  0  0  0  0  0  0  0  0  0  0
    3.4257   -5.1900    0.0000 C   0  0  0  0  0  0  0  0  0  0  0  0
    5.9007   -5.1803    0.0000 C   0  0  0  0  0  0  0  0  0  0  0  0
    7.0328   -5.4743    0.0000 C   0  0  0  0  0  0  0  0  0  0  0  0
    3.8423   -4.4745    0.0000 C   0  0  0  0  0  0  0  0  0  0  0  0
    5.1753   -5.8075    0.0000 C   0  0  0  0  0  0  0  0  0  0  0  0
    5.7831   -6.0183    0.0000 C   0  0  0  0  0  0  0  0  0  0  0  0
    4.2540   -5.1803    0.0000 C   0  0  0  0  0  0  0  0  0  0  0  0
    5.7978   -3.3424    0.0000 C   0  0  0  0  0  0  0  0  0  0  0  0
    7.7532   -5.8860    0.0000 C   0  0  0  0  0  0  0  0  0  0  0  0
    2.6171   -6.6211    0.0000 C   0  0  0  0  0  0  0  0  0  0  0  0
    6.5182   -3.7541    0.0000 C   0  0  0  0  0  0  0  0  0  0  0  0
    4.2540   -3.7541    0.0000 C   0  0  0  0  0  0  0  0  0  0  0  0
    6.9299   -4.4745    0.0000 C   0  0  0  0  0  0  0  0  0  0  0  0
    7.3416   -3.7541    0.0000 C   0  0  0  0  0  0  0  0  0  0  0  0
    2.6024   -5.1950    0.0000 C   0  0  0  0  0  0  0  0  0  0  0  0
    6.3124   -7.3269    0.0000 O   0  0  0  0  0  0  0  0  0  0  0  0
    2.1956   -5.9154    0.0000 C   0  0  0  0  0  0  0  0  0  0  0  0
    7.4395   -4.7637    0.0000 O   0  0  0  0  0  0  0  0  0  0  0  0
    2.2103   -7.3416    0.0000 O   0  0  0  0  0  0  0  0  0  0  0  0
    6.6064   -4.7637    0.0000 C   0  0  0  0  0  0  0  0  0  0  0  0
    8.4590   -5.4596    0.0000 C   0  0  0  0  0  0  0  0  0  0  0  0
    7.3269   -6.6015    0.0000 C   0  0  0  0  0  0  0  0  0  0  0  0
    8.1502   -6.6015    0.0000 C   0  0  0  0  0  0  0  0  0  0  0  0
    5.9007   -8.0473    0.0000 C   0  0  0  0  0  0  0  0  0  0  0  0
    6.5681   -4.9339    0.0000 H   0  0  0  0  0  0  0  0  0  0  0  0
    4.1735   -3.6096    0.0000 H   0  0  0  0  0  0  0  0  0  0  0  0
    5.2991   -7.5815    0.0000 H   0  0  0  0  0  0  0  0  0  0  0  0
  3  2  1  0
  4  2  1  0
  5  4  1  0
  6  2  1  0
  7  5  1  0
  8  6  1  0
  4  9  1  0
 10  3  1  0
 11 23  1  0
 12  6  2  0
  3 13  1  1
  7 14  1  0
 15 12  1  0
  3 16  1  0
  5 17  1  0
  2 18  1  1
 19 11  1  0
 20 14  1  0
 21  8  2  0
 22 19  1  0
 23 18  1  0
 24 22  1  0
 25 22  1  0
 26 12  1  0
  5 27  1  1
 28 26  2  0
 14 29  1  6
 30 21  1  0
 31 14  1  0
 32 20  1  0
 33 20  1  0
 34 20  1  0
 35 27  1  0
  7 36  1  1
  8  9  1  0
  7 13  1  0
 10 11  1  0
 10 15  1  0
 16 17  1  0
 28 21  1  0
 25 24  1  0
 10 37  1  6
  4 38  1  1
M  END
> <chembl_id>
CHEMBL2368861

> <chembl_pref_name>
BUPRENORPHINE HYDROCHLORIDE
