
     RDKit          2D

 38 39  0  0  0  0  0  0  0  0999 V2000
    2.6792   -3.9125    0.0000 N   0  0  0  0  0  0  0  0  0  0  0  0
    3.2792   -3.5542    0.0000 C   0  0  0  0  0  0  0  0  0  0  0  0
    2.6750   -6.0167    0.0000 N   0  0  0  0  0  0  0  0  0  0  0  0
    2.6792   -4.6167    0.0000 C   0  0  0  0  0  0  0  0  0  0  0  0
    2.0667   -4.9500    0.0000 C   0  0  0  0  0  0  0  0  0  0  0  0
    3.2792   -4.9542    0.0000 C   0  0  0  0  0  0  0  0  0  0  0  0
    3.2792   -2.8417    0.0000 O   0  0  0  0  0  0  0  0  0  0  0  0
    2.0500   -3.5542    0.0000 C   0  0  0  0  0  0  0  0  0  0  0  0
    3.2792   -5.6625    0.0000 C   0  0  0  0  0  0  0  0  0  0  0  0
    2.0667   -5.6542    0.0000 C   0  0  0  0  0  0  0  0  0  0  0  0
    2.6750   -6.7250    0.0000 C   0  0  0  0  0  0  0  0  0  0  0  0
    3.2167   -7.1042    0.0000 C   0  0  0  0  0  0  0  0  0  0  0  0
    3.8542   -6.7917    0.0000 C   0  0  0  0  0  0  0  0  0  0  0  0
    3.8917   -3.9125    0.0000 C   0  0  0  0  0  0  0  0  0  0  0  0
    2.0500   -2.8292    0.0000 C   0  0  0  0  0  0  0  0  0  0  0  0
    1.4542   -3.9250    0.0000 C   0  0  0  0  0  0  0  0  0  0  0  0
    4.4292   -7.1875    0.0000 C   0  0  0  0  0  0  0  0  0  0  0  0
    3.8542   -6.1125    0.0000 C   0  0  0  0  0  0  0  0  0  0  0  0
    4.5000   -3.5667    0.0000 C   0  0  0  0  0  0  0  0  0  0  0  0
    0.8125   -3.5792    0.0000 C   0  0  0  0  0  0  0  0  0  0  0  0
    1.4042   -2.5000    0.0000 C   0  0  0  0  0  0  0  0  0  0  0  0
    5.1375   -6.8750    0.0000 C   0  0  0  0  0  0  0  0  0  0  0  0
    4.5167   -5.7750    0.0000 C   0  0  0  0  0  0  0  0  0  0  0  0
    5.1250   -6.1792    0.0000 C   0  0  0  0  0  0  0  0  0  0  0  0
    0.8042   -2.8542    0.0000 C   0  0  0  0  0  0  0  0  0  0  0  0
    8.1292   -4.7917    0.0000 C   0  0  0  0  0  0  0  0  0  0  0  0
    7.5167   -4.4292    0.0000 C   0  0  0  0  0  0  0  0  0  0  0  0
    8.1292   -5.4917    0.0000 C   0  0  0  0  0  0  0  0  0  0  0  0
    8.7417   -4.4417    0.0000 C   0  0  0  0  0  0  0  0  0  0  0  0
    7.5167   -3.7292    0.0000 C   0  0  0  0  0  0  0  0  0  0  0  0
    8.7417   -5.8417    0.0000 C   0  0  0  0  0  0  0  0  0  0  0  0
    8.7417   -3.7417    0.0000 O   0  0  0  0  0  0  0  0  0  0  0  0
    6.9167   -3.3917    0.0000 O   0  0  0  0  0  0  0  0  0  0  0  0
    9.3417   -5.4917    0.0000 O   0  0  0  0  0  0  0  0  0  0  0  0
    7.4375   -5.1500    0.0000 O   0  0  0  0  0  0  0  0  0  0  0  0
    9.3417   -4.8042    0.0000 O   0  0  0  0  0  0  0  0  0  0  0  0
    8.7292   -6.5500    0.0000 O   0  0  0  0  0  0  0  0  0  0  0  0
    8.1292   -3.3917    0.0000 O   0  0  0  0  0  0  0  0  0  0  0  0
  2  1  1  0
  3  9  1  0
  4  1  1  0
  5  4  1  0
  6  4  1  0
  7  2  2  0
  8  1  1  0
  9  6  1  0
 10  5  1  0
 11  3  1  0
 12 11  1  0
 13 12  1  0
 14  2  1  0
 15  8  2  0
 16  8  1  0
 17 13  2  0
 18 13  1  0
 19 14  1  0
 20 16  2  0
 21 15  1  0
 22 17  1  0
 23 18  2  0
 24 23  1  0
 25 20  1  0
  3 10  1  0
 25 21  2  0
 24 22  2  0
 27 26  1  0
 28 26  1  0
 29 26  1  0
 30 27  1  0
 31 28  1  0
 32 29  2  0
 33 30  2  0
 34 31  2  0
 35 26  1  0
 36 29  1  0
 37 31  1  0
 38 30  1  0
M  END
> <chembl_id>
CHEMBL688

> <chembl_pref_name>
FENTANYL CITRATE
