
     RDKit          2D

182185  0  0  1  0  0  0  0  0999 V2000
    5.2608   -0.2702    0.0000 N   0  0  0  0  0  0  0  0  0  0  0  0
    6.1255   -0.6127    0.0000 C   0  0  0  0  0  0  0  0  0  0  0  0
    3.7833    0.3783    0.0000 N   0  0  0  0  0  0  0  0  0  0  0  0
   12.1067   -1.8917    0.0000 N   0  0  0  0  0  0  0  0  0  0  0  0
    1.7295    0.7385    0.0000 N   0  0  0  0  0  0  0  0  0  0  0  0
    4.5400   -0.7748    0.0000 C   0  0  0  0  0  0  0  0  0  0  0  0
   -9.7104    4.7921    0.0000 N   0  0  0  0  0  0  0  0  0  0  0  0
   -8.4314    4.1076    0.0000 N   0  0  0  0  0  0  0  0  0  0  0  0
   26.6454   -6.8282    0.0000 N   0  0  0  0  0  0  0  0  0  0  0  0
   17.9619   -4.1076    0.0000 N   0  0  0  0  0  0  0  0  0  0  0  0
    3.0448    0.7385    0.0000 C   0  0  0  0  0  0  0  0  0  0  0  0
   -9.0618    3.7111    0.0000 C   0  0  0  0  0  0  0  0  0  0  0  0
    0.3965    1.6033    0.0000 N   0  0  0  0  0  0  0  0  0  0  0  0
   13.0977   -3.5313    0.0000 C   0  0  0  0  0  0  0  0  0  0  0  0
   -1.5492    1.9276    0.0000 N   0  0  0  0  0  0  0  0  0  0  0  0
   -5.0264    3.1166    0.0000 N   0  0  0  0  0  0  0  0  0  0  0  0
   11.1338   -1.6214    0.0000 C   0  0  0  0  0  0  0  0  0  0  0  0
   -7.1161    4.2516    0.0000 C   0  0  0  0  0  0  0  0  0  0  0  0
   14.3948   -3.2429    0.0000 N   0  0  0  0  0  0  0  0  0  0  0  0
   -6.4317    3.9273    0.0000 N   0  0  0  0  0  0  0  0  0  0  0  0
   -2.9545    2.6842    0.0000 N   0  0  0  0  0  0  0  0  0  0  0  0
  -19.9794    7.7106    0.0000 N   0  0  0  0  0  0  0  0  0  0  0  0
  -11.8183    5.1886    0.0000 N   0  0  0  0  0  0  0  0  0  0  0  0
    1.0451    0.3783    0.0000 C   0  0  0  0  0  0  0  0  0  0  0  0
    3.8015   -0.3783    0.0000 C   0  0  0  0  0  0  0  0  0  0  0  0
   -9.7104    4.0895    0.0000 C   0  0  0  0  0  0  0  0  0  0  0  0
    2.3963    0.3602    0.0000 C   0  0  0  0  0  0  0  0  0  0  0  0
   12.1607   -2.9908    0.0000 C   0  0  0  0  0  0  0  0  0  0  0  0
  -20.6821    7.9809    0.0000 C   0  0  0  0  0  0  0  0  0  0  0  0
   -0.1980    1.9998    0.0000 C   0  0  0  0  0  0  0  0  0  0  0  0
   -3.6752    3.0626    0.0000 C   0  0  0  0  0  0  0  0  0  0  0  0
  -10.4130    5.1886    0.0000 C   0  0  0  0  0  0  0  0  0  0  0  0
   16.6648   -3.6934    0.0000 C   0  0  0  0  0  0  0  0  0  0  0  0
   -2.2518    1.4952    0.0000 C   0  0  0  0  0  0  0  0  0  0  0  0
   25.4746   -7.3686    0.0000 C   0  0  0  0  0  0  0  0  0  0  0  0
   -5.6750    2.7383    0.0000 C   0  0  0  0  0  0  0  0  0  0  0  0
  -12.4128    4.7921    0.0000 C   0  0  0  0  0  0  0  0  0  0  0  0
   -7.7288    3.8733    0.0000 C   0  0  0  0  0  0  0  0  0  0  0  0
   27.7446   -7.4767    0.0000 C   0  0  0  0  0  0  0  0  0  0  0  0
    6.8822   -0.2344    0.0000 C   0  0  0  0  0  0  0  0  0  0  0  0
   10.1791   -2.1260    0.0000 C   0  0  0  0  0  0  0  0  0  0  0  0
   18.0160   -5.3689    0.0000 C   0  0  0  0  0  0  0  0  0  0  0  0
    9.4224   -1.5315    0.0000 N   0  0  0  0  0  0  0  0  0  0  0  0
    0.3965    0.7926    0.0000 C   0  0  0  0  0  0  0  0  0  0  0  0
   19.4031   -5.8553    0.0000 C   0  0  0  0  0  0  0  0  0  0  0  0
  -13.1336    5.9811    0.0000 N   0  0  0  0  0  0  0  0  0  0  0  0
   23.9431   -5.8912    0.0000 N   0  0  0  0  0  0  0  0  0  0  0  0
  -16.5744    6.8640    0.0000 N   0  0  0  0  0  0  0  0  0  0  0  0
   -0.8648    1.6033    0.0000 C   0  0  0  0  0  0  0  0  0  0  0  0
   -4.3597    2.6842    0.0000 C   0  0  0  0  0  0  0  0  0  0  0  0
  -19.2228    6.5216    0.0000 C   0  0  0  0  0  0  0  0  0  0  0  0
  -15.7637    5.8190    0.0000 C   0  0  0  0  0  0  0  0  0  0  0  0
    7.6389   -0.6127    0.0000 N   0  0  0  0  0  0  0  0  0  0  0  0
   20.2678   -5.1886    0.0000 N   0  0  0  0  0  0  0  0  0  0  0  0
  -18.6823    6.9721    0.0000 N   0  0  0  0  0  0  0  0  0  0  0  0
  -15.1333    6.2155    0.0000 N   0  0  0  0  0  0  0  0  0  0  0  0
   -0.2521    0.4324    0.0000 C   0  0  0  0  0  0  0  0  0  0  0  0
  -21.4589    7.6019    0.0000 C   0  0  0  0  0  0  0  0  0  0  0  0
   28.9695   -6.9721    0.0000 C   0  0  0  0  0  0  0  0  0  0  0  0
   -2.9545    1.8735    0.0000 C   0  0  0  0  0  0  0  0  0  0  0  0
   -8.3052    0.3602    0.0000 C   0  0  0  0  0  0  0  0  0  0  0  0
   16.0162  -10.1251    0.0000 C   0  0  0  0  0  0  0  0  0  0  0  0
   -6.4317    3.1166    0.0000 C   0  0  0  0  0  0  0  0  0  0  0  0
  -11.0257    4.7921    0.0000 C   0  0  0  0  0  0  0  0  0  0  0  0
   15.3136   -4.1076    0.0000 C   0  0  0  0  0  0  0  0  0  0  0  0
    8.5577   -2.0720    0.0000 C   0  0  0  0  0  0  0  0  0  0  0  0
  -17.3311    7.1883    0.0000 C   0  0  0  0  0  0  0  0  0  0  0  0
   22.6100   -5.0986    0.0000 C   0  0  0  0  0  0  0  0  0  0  0  0
  -13.8180    6.3236    0.0000 C   0  0  0  0  0  0  0  0  0  0  0  0
  -13.0795    5.1886    0.0000 C   0  0  0  0  0  0  0  0  0  0  0  0
   24.0153   -6.8640    0.0000 C   0  0  0  0  0  0  0  0  0  0  0  0
  -19.9254    6.8640    0.0000 C   0  0  0  0  0  0  0  0  0  0  0  0
  -16.5204    6.1074    0.0000 C   0  0  0  0  0  0  0  0  0  0  0  0
   -0.3602   -0.2702    0.0000 C   0  0  0  0  0  0  0  0  0  0  0  0
    1.9639  -14.7731    0.0000 S   0  0  0  0  0  0  0  0  0  0  0  0
   11.2959   -5.4770    0.0000 S   0  0  0  0  0  0  0  0  0  0  0  0
    3.0989   -3.8555    0.0000 S   0  0  0  0  0  0  0  0  0  0  0  0
  -10.4130   -5.5851    0.0000 S   0  0  0  0  0  0  0  0  0  0  0  0
   25.3665  -14.7731    0.0000 S   0  0  0  0  0  0  0  0  0  0  0  0
  -22.8980   -3.8015    0.0000 S   0  0  0  0  0  0  0  0  0  0  0  0
   -8.9537    0.6304    0.0000 N   0  0  0  0  0  0  0  0  0  0  0  0
   14.8090  -10.5034    0.0000 N   0  0  0  0  0  0  0  0  0  0  0  0
    4.5400   -1.6396    0.0000 O   0  0  0  0  0  0  0  0  0  0  0  0
   -9.0618    2.8464    0.0000 O   0  0  0  0  0  0  0  0  0  0  0  0
   13.0977   -4.3238    0.0000 O   0  0  0  0  0  0  0  0  0  0  0  0
    3.0448    1.4952    0.0000 O   0  0  0  0  0  0  0  0  0  0  0  0
   11.1338   -0.8289    0.0000 O   0  0  0  0  0  0  0  0  0  0  0  0
   -7.1161    5.0805    0.0000 O   0  0  0  0  0  0  0  0  0  0  0  0
  -20.6821    8.6476    0.0000 O   0  0  0  0  0  0  0  0  0  0  0  0
   -3.6752    3.8192    0.0000 O   0  0  0  0  0  0  0  0  0  0  0  0
   -0.2521    2.7923    0.0000 O   0  0  0  0  0  0  0  0  0  0  0  0
    1.0451   -0.4864    0.0000 O   0  0  0  0  0  0  0  0  0  0  0  0
   16.6648   -2.7746    0.0000 O   0  0  0  0  0  0  0  0  0  0  0  0
   25.4746   -8.5577    0.0000 O   0  0  0  0  0  0  0  0  0  0  0  0
  -12.4128    4.0895    0.0000 O   0  0  0  0  0  0  0  0  0  0  0  0
   -5.6750    1.9998    0.0000 O   0  0  0  0  0  0  0  0  0  0  0  0
   -2.2518    1.0087    0.0000 O   0  0  0  0  0  0  0  0  0  0  0  0
  -10.4130    5.9811    0.0000 O   0  0  0  0  0  0  0  0  0  0  0  0
   -0.8648    0.3783    0.0000 C   0  0  0  0  0  0  0  0  0  0  0  0
    6.8822    0.7385    0.0000 O   0  0  0  0  0  0  0  0  0  0  0  0
   19.4031   -6.8282    0.0000 O   0  0  0  0  0  0  0  0  0  0  0  0
  -10.4130    3.6571    0.0000 C   0  0  0  0  0  0  0  0  0  0  0  0
    2.0179   -0.5046    0.0000 C   0  0  0  0  0  0  0  0  0  0  0  0
    3.1529   -0.8289    0.0000 C   0  0  0  0  0  0  0  0  0  0  0  0
   11.2959   -3.5313    0.0000 C   0  0  0  0  0  0  0  0  0  0  0  0
  -19.2228    5.6568    0.0000 O   0  0  0  0  0  0  0  0  0  0  0  0
  -15.7637    5.0623    0.0000 O   0  0  0  0  0  0  0  0  0  0  0  0
   27.7446   -8.7739    0.0000 C   0  0  0  0  0  0  0  0  0  0  0  0
   -4.4137    1.8735    0.0000 C   0  0  0  0  0  0  0  0  0  0  0  0
   28.9695   -5.9634    0.0000 O   0  0  0  0  0  0  0  0  0  0  0  0
   21.3488   -5.8912    0.0000 C   0  0  0  0  0  0  0  0  0  0  0  0
  -17.8716    6.6837    0.0000 C   0  0  0  0  0  0  0  0  0  0  0  0
    7.6389   -1.6214    0.0000 C   0  0  0  0  0  0  0  0  0  0  0  0
  -14.4125    5.8371    0.0000 C   0  0  0  0  0  0  0  0  0  0  0  0
    6.1255   -1.5315    0.0000 C   0  0  0  0  0  0  0  0  0  0  0  0
    8.5577   -2.9367    0.0000 O   0  0  0  0  0  0  0  0  0  0  0  0
  -17.3311    7.8909    0.0000 O   0  0  0  0  0  0  0  0  0  0  0  0
   22.6100   -4.0536    0.0000 O   0  0  0  0  0  0  0  0  0  0  0  0
  -13.8180    7.1161    0.0000 O   0  0  0  0  0  0  0  0  0  0  0  0
  -22.8251    7.8509    0.0000 C   0  0  0  0  0  0  0  0  0  0  0  0
   -1.0810   -0.6667    0.0000 O   0  0  0  0  0  0  0  0  0  0  0  0
   -7.6207    0.7385    0.0000 N   0  0  0  0  0  0  0  0  0  0  0  0
   16.4305   -8.8279    0.0000 N   0  0  0  0  0  0  0  0  0  0  0  0
   17.0431  -11.0979    0.0000 N   0  0  0  0  0  0  0  0  0  0  0  0
   -8.2511   -0.4864    0.0000 N   0  0  0  0  0  0  0  0  0  0  0  0
  -21.4145    6.9231    0.0000 N   0  0  0  0  0  0  0  0  0  0  0  0
   30.1767   -7.4767    0.0000 N   0  0  0  0  0  0  0  0  0  0  0  0
   -1.5492   -0.2344    0.0000 C   0  0  0  0  0  0  0  0  0  0  0  0
   -3.5671    1.4952    0.0000 C   0  0  0  0  0  0  0  0  0  0  0  0
   -2.9545   -0.9370    0.0000 C   0  0  0  0  0  0  0  0  0  0  0  0
    0.3424   -0.7748    0.0000 O   0  0  0  0  0  0  0  0  0  0  0  0
   -7.7288    3.0085    0.0000 C   0  0  0  0  0  0  0  0  0  0  0  0
   10.1791   -2.9908    0.0000 C   0  0  0  0  0  0  0  0  0  0  0  0
   17.2593   -5.9993    0.0000 C   0  0  0  0  0  0  0  0  0  0  0  0
   -4.2516    0.2702    0.0000 S   0  0  0  0  0  0  0  0  0  0  0  0
   -2.2518    0.1980    0.0000 C   0  0  0  0  0  0  0  0  0  0  0  0
   -1.5668   -0.9363    0.0000 C   0  0  0  0  0  0  0  0  0  0  0  0
  -18.1959    3.1166    0.0000 N   0  0  0  0  0  0  0  0  0  0  0  0
   22.2676  -12.4309    0.0000 N   0  0  0  0  0  0  0  0  0  0  0  0
  -21.7812    4.0895    0.0000 N   0  0  0  0  0  0  0  0  0  0  0  0
  -12.4668    1.7654    0.0000 N   0  0  0  0  0  0  0  0  0  0  0  0
   -2.2518   -1.3693    0.0000 C   0  0  0  0  0  0  0  0  0  0  0  0
   -2.9545   -0.1263    0.0000 C   0  0  0  0  0  0  0  0  0  0  0  0
    6.9903   -2.1260    0.0000 O   0  0  0  0  0  0  0  0  0  0  0  0
   -3.6571   -1.3693    0.0000 O   0  0  0  0  0  0  0  0  0  0  0  0
    9.5305   -3.5313    0.0000 O   0  0  0  0  0  0  0  0  0  0  0  0
   -8.1971    2.4321    0.0000 O   0  0  0  0  0  0  0  0  0  0  0  0
   17.2593   -7.0984    0.0000 O   0  0  0  0  0  0  0  0  0  0  0  0
  -11.0257    3.9995    0.0000 C   0  0  0  0  0  0  0  0  0  0  0  0
   -7.0621    2.7383    0.0000 C   0  0  0  0  0  0  0  0  0  0  0  0
   14.7731   -5.3507    0.0000 C   0  0  0  0  0  0  0  0  0  0  0  0
   -4.9542    1.4952    0.0000 C   0  0  0  0  0  0  0  0  0  0  0  0
   22.8803   -7.6207    0.0000 C   0  0  0  0  0  0  0  0  0  0  0  0
  -20.5381    6.4675    0.0000 C   0  0  0  0  0  0  0  0  0  0  0  0
  -17.1149    5.6568    0.0000 C   0  0  0  0  0  0  0  0  0  0  0  0
  -13.7640    4.7921    0.0000 C   0  0  0  0  0  0  0  0  0  0  0  0
   -3.5671    0.7385    0.0000 C   0  0  0  0  0  0  0  0  0  0  0  0
   15.1515   -7.6207    0.0000 C   0  0  0  0  0  0  0  0  0  0  0  0
   -7.7106    1.4952    0.0000 C   0  0  0  0  0  0  0  0  0  0  0  0
  -21.1685    4.5218    0.0000 C   0  0  0  0  0  0  0  0  0  0  0  0
  -12.4668    2.4321    0.0000 C   0  0  0  0  0  0  0  0  0  0  0  0
  -17.4932    3.5490    0.0000 C   0  0  0  0  0  0  0  0  0  0  0  0
   23.0783  -11.3681    0.0000 C   0  0  0  0  0  0  0  0  0  0  0  0
    5.5310   -2.1260    0.0000 C   0  0  0  0  0  0  0  0  0  0  0  0
   -4.2516   -0.5046    0.0000 C   0  0  0  0  0  0  0  0  0  0  0  0
   15.7819   -6.3417    0.0000 C   0  0  0  0  0  0  0  0  0  0  0  0
   -7.0080    1.9276    0.0000 C   0  0  0  0  0  0  0  0  0  0  0  0
   23.1505   -8.9719    0.0000 C   0  0  0  0  0  0  0  0  0  0  0  0
  -20.5381    5.6568    0.0000 C   0  0  0  0  0  0  0  0  0  0  0  0
  -11.7642    3.6571    0.0000 C   0  0  0  0  0  0  0  0  0  0  0  0
  -17.0068    4.7921    0.0000 C   0  0  0  0  0  0  0  0  0  0  0  0
  -17.6554    4.3238    0.0000 C   0  0  0  0  0  0  0  0  0  0  0  0
   22.4838   -9.9447    0.0000 C   0  0  0  0  0  0  0  0  0  0  0  0
  -11.8183    2.8464    0.0000 C   0  0  0  0  0  0  0  0  0  0  0  0
  -21.1685    5.2967    0.0000 C   0  0  0  0  0  0  0  0  0  0  0  0
   -5.7831    1.4952    0.0000 C   0  0  0  0  0  0  0  0  0  0  0  0
   -4.5759    0.7385    0.0000 C   0  0  0  0  0  0  0  0  0  0  0  0
   11.4471   -2.5933    0.0000 H   0  0  0  0  0  0  0  0  0  0  0  0
    2.3785    1.2752    0.0000 H   0  0  0  0  0  0  0  0  0  0  0  0
   -9.0068    4.6383    0.0000 H   0  0  0  0  0  0  0  0  0  0  0  0
    2.9555   -0.0988    0.0000 H   0  0  0  0  0  0  0  0  0  0  0  0
    6.1238    0.3855    0.0000 H   0  0  0  0  0  0  0  0  0  0  0  0
  2  1  1  0
 25  3  1  0
  4 17  1  0
 27  5  1  0
  6  1  1  0
 26  7  1  0
  8 12  1  0
 39  9  1  0
 10 33  1  0
 11  3  1  0
 12 26  1  0
 44 13  1  0
 14 28  1  0
 49 15  1  0
 50 16  1  0
 17 41  1  0
 18 38  1  0
 19 14  1  0
 20 18  1  0
 60 21  1  0
 22 29  1  0
 64 23  1  0
 24  5  1  0
 25  6  1  0
 26102  1  0
 27 11  1  0
 28  4  1  0
 29 58  1  0
 30 13  1  0
 31 21  1  0
 32  7  1  0
 33 65  1  0
 34 15  1  0
 35  9  1  0
 36 16  1  0
 37 23  1  0
 38  8  1  0
 39108  1  0
 40  2  1  0
 41 43  1  0
 42 10  1  0
 43 66  1  0
 44 24  1  0
 45 42  1  0
 46 69  1  0
 71 47  1  0
 48 67  1  0
 49 30  1  0
 50 31  1  0
 51 72  1  0
 52 73  1  0
 53 40  1  0
 54111  1  0
 55 51  1  0
 56 52  1  0
 44 57  1  6
 58120  1  0
 39 59  1  6
 60 34  1  0
 61122  1  0
 62123  1  0
 63 36  1  0
 64 32  1  0
 65 19  1  0
 66113  1  0
 67112  1  0
 68 47  1  0
 69114  1  0
 70 37  1  0
 71 35  1  0
 72 22  1  0
 73 48  1  0
 74 57  1  0
 75103  1  0
 76105  1  0
 77104  1  0
 78 76  1  0
 79 75  1  0
 80 77  1  0
 81 61  2  0
 82 62  2  0
 83  6  2  0
 84 12  2  0
 85 14  2  0
 86 11  2  0
 87 17  2  0
 88 18  2  0
 89 29  2  0
 90 31  2  0
 91 30  2  0
 92 24  2  0
 93 33  2  0
 94 35  2  0
 95 37  2  0
 96 36  2  0
 97 34  2  0
 98 32  2  0
 49 99  1  6
100 40  2  0
101 45  2  0
102 78  1  0
103 27  1  0
104 25  1  0
105 28  1  0
106 51  2  0
107 52  2  0
108 79  1  0
 50109  1  6
110 59  2  0
111 68  1  0
112 55  1  0
113 53  1  0
114 56  1  0
115  2  1  0
116 66  2  0
117 67  2  0
118 68  2  0
119 69  2  0
120 80  1  0
121 74  2  0
122159  1  0
123158  1  0
124 62  1  0
125 61  1  0
 58126  1  1
127 59  1  0
128 99  1  0
 60129  1  6
130142  2  0
131 74  1  0
 38132  1  6
 41133  1  6
 42134  1  6
135157  1  0
136128  1  0
137128  2  0
138162  1  0
139163  1  0
140160  1  0
141161  1  0
142137  1  0
143136  2  0
115144  1  6
145130  1  0
146133  1  0
147132  1  0
148134  1  0
 64149  1  6
 63150  1  6
 65151  1  6
152109  1  0
 71153  1  6
 72154  1  6
 73155  1  6
 70156  1  6
157129  1  0
158166  1  0
159167  1  0
160175  1  0
161174  1  0
162172  1  0
163173  1  0
164115  1  0
165135  1  0
166151  1  0
167150  1  0
168153  1  0
169154  1  0
170149  1  0
171155  1  0
172171  1  0
173168  1  0
174170  1  0
175169  1  0
176152  1  0
177152  1  0
143130  1  0
 54 45  1  0
 63 20  1  0
 70 46  1  0
 28178  1  1
 27179  1  1
 26180  1  1
 25181  1  1
  2182  1  1
M  END
> <chembl_id>
CHEMBL4594214

> <chembl_pref_name>
ZICONOTIDE
