
     RDKit          2D

 43 48  0  0  0  0  0  0  0  0999 V2000
   -3.3196   -1.0838    0.0000 C   0  0  0  0  0  0  0  0  0  0  0  0
   -3.8388   -1.7250    0.0000 C   0  0  0  0  0  0  0  0  0  0  0  0
   -3.5432   -2.4952    0.0000 C   0  0  0  0  0  0  0  0  0  0  0  0
   -2.7283   -2.6242    0.0000 C   0  0  0  0  0  0  0  0  0  0  0  0
   -2.2091   -1.9831    0.0000 C   0  0  0  0  0  0  0  0  0  0  0  0
   -2.5048   -1.2129    0.0000 C   0  0  0  0  0  0  0  0  0  0  0  0
   -3.6153   -0.3136    0.0000 F   0  0  0  0  0  0  0  0  0  0  0  0
   -2.4327   -3.3945    0.0000 F   0  0  0  0  0  0  0  0  0  0  0  0
   -1.3943   -2.1122    0.0000 F   0  0  0  0  0  0  0  0  0  0  0  0
   -2.0555   -0.5210    0.0000 C   0  0  0  0  0  0  0  0  0  0  0  0
   -1.8320    0.8904    0.0000 N   0  0  0  0  0  0  0  0  0  0  0  0
   -2.3511    0.2492    0.0000 C   0  0  0  0  0  0  0  0  0  0  0  0
   -1.2406   -0.6500    0.0000 C   0  0  0  0  0  0  0  0  0  0  0  0
   -0.7215   -0.0089    0.0000 C   0  0  0  0  0  0  0  0  0  0  0  0
   -1.0170    0.7613    0.0000 C   0  0  0  0  0  0  0  0  0  0  0  0
   -3.1581    0.4208    0.0000 C   0  0  0  0  0  0  0  0  0  0  0  0
   -2.1276    1.6606    0.0000 C   0  0  0  0  0  0  0  0  0  0  0  0
   -1.6427    2.3280    0.0000 C   0  0  0  0  0  0  0  0  0  0  0  0
   -1.7127    3.0727    0.0000 F   0  0  0  0  0  0  0  0  0  0  0  0
   -1.1578    2.9955    0.0000 F   0  0  0  0  0  0  0  0  0  0  0  0
   -0.9233    2.4925    0.0000 F   0  0  0  0  0  0  0  0  0  0  0  0
   -0.4979    1.4025    0.0000 O   0  0  0  0  0  0  0  0  0  0  0  0
    0.0855   -0.1804    0.0000 N   0  0  0  0  0  0  0  0  0  0  0  0
    0.3405   -0.9650    0.0000 C   0  0  0  0  0  0  0  0  0  0  0  0
   -0.2116   -1.5781    0.0000 O   0  0  0  0  0  0  0  0  0  0  0  0
    1.1373   -1.1786    0.0000 C   0  0  0  0  0  0  0  0  0  0  0  0
    1.7504   -0.6264    0.0000 C   0  0  0  0  0  0  0  0  0  0  0  0
    1.3089   -1.9856    0.0000 C   0  0  0  0  0  0  0  0  0  0  0  0
    2.0935   -2.2405    0.0000 N   0  0  0  0  0  0  0  0  0  0  0  0
    2.7066   -1.6885    0.0000 C   0  0  0  0  0  0  0  0  0  0  0  0
    2.5350   -0.8815    0.0000 C   0  0  0  0  0  0  0  0  0  0  0  0
    3.2495   -0.4690    0.0000 C   0  0  0  0  0  0  0  0  0  0  0  0
    3.5271   -1.7747    0.0000 C   0  0  0  0  0  0  0  0  0  0  0  0
    3.8626   -1.0209    0.0000 C   0  0  0  0  0  0  0  0  0  0  0  0
    4.2371   -0.2859    0.0000 C   0  0  0  0  0  0  0  0  0  0  0  0
    5.0519   -0.4150    0.0000 C   0  0  0  0  0  0  0  0  0  0  0  0
    5.1811   -1.2298    0.0000 N   0  0  0  0  0  0  0  0  0  0  0  0
    4.4460   -1.6044    0.0000 C   0  0  0  0  0  0  0  0  0  0  0  0
    4.2745   -2.4114    0.0000 O   0  0  0  0  0  0  0  0  0  0  0  0
    5.5712    0.2261    0.0000 N   0  0  0  0  0  0  0  0  0  0  0  0
    3.9415    0.4843    0.0000 C   0  0  0  0  0  0  0  0  0  0  0  0
    4.4607    1.1254    0.0000 C   0  0  0  0  0  0  0  0  0  0  0  0
    5.2755    0.9963    0.0000 C   0  0  0  0  0  0  0  0  0  0  0  0
  1  2  1  0
  2  3  2  0
  3  4  1  0
  4  5  2  0
  5  6  1  0
  1  6  2  0
  1  7  1  0
  4  8  1  0
  5  9  1  0
 10  6  1  1
 11 12  1  0
 13 14  1  0
 14 15  1  0
 11 15  1  0
 12 10  1  0
 10 13  1  0
 12 16  1  1
 11 17  1  0
 17 18  1  0
 18 19  1  0
 18 20  1  0
 18 21  1  0
 15 22  2  0
 14 23  1  1
 23 24  1  0
 24 25  2  0
 24 26  1  0
 28 29  1  0
 29 30  2  0
 30 31  1  0
 27 31  2  0
 27 26  1  0
 26 28  2  0
 31 32  1  0
 30 33  1  0
 34 32  1  6
 34 33  1  1
 34 35  1  0
 35 36  1  0
 36 37  1  0
 37 38  1  0
 38 34  1  0
 38 39  2  0
 36 40  2  0
 35 41  2  0
 41 42  1  0
 40 43  1  0
 43 42  2  0
M  END
> <chembl_id>
CHEMBL3991065

> <chembl_pref_name>
ATOGEPANT
