
     RDKit          2D

 42 46  0  0  0  0  0  0  0  0999 V2000
    4.9906   -1.8268    0.0000 O   0  0  0  0  0  0  0  0  0  0  0  0
    5.7051   -1.4143    0.0000 C   0  0  0  0  0  0  0  0  0  0  0  0
    6.4196   -1.8268    0.0000 C   0  0  0  0  0  0  0  0  0  0  0  0
    7.1340   -1.4143    0.0000 C   0  0  0  0  0  0  0  0  0  0  0  0
    7.8485   -1.8268    0.0000 C   0  0  0  0  0  0  0  0  0  0  0  0
    8.5630   -1.4143    0.0000 O   0  0  0  0  0  0  0  0  0  0  0  0
    7.8485   -2.6518    0.0000 O   0  0  0  0  0  0  0  0  0  0  0  0
    5.7051   -0.5893    0.0000 O   0  0  0  0  0  0  0  0  0  0  0  0
    6.4196   -2.6518    0.0000 O   0  0  0  0  0  0  0  0  0  0  0  0
    7.1340   -0.5893    0.0000 O   0  0  0  0  0  0  0  0  0  0  0  0
    1.0614    1.3277    0.0000 N   0  0  0  0  0  0  0  0  0  0  0  0
   -0.5757    1.1687    0.0000 C   0  0  0  0  0  0  0  0  0  0  0  0
   -0.0988    0.5113    0.0000 C   0  0  0  0  0  0  0  0  0  0  0  0
   -0.5757   -0.1590    0.0000 N   0  0  0  0  0  0  0  0  0  0  0  0
    0.5801    2.0066    0.0000 C   0  0  0  0  0  0  0  0  0  0  0  0
    0.7133    0.5801    0.0000 C   0  0  0  0  0  0  0  0  0  0  0  0
    0.9196    2.7328    0.0000 C   0  0  0  0  0  0  0  0  0  0  0  0
    1.8735    1.4051    0.0000 C   0  0  0  0  0  0  0  0  0  0  0  0
   -0.8895    1.9422    0.0000 C   0  0  0  0  0  0  0  0  0  0  0  0
    1.9895   -0.0172    0.0000 C   0  0  0  0  0  0  0  0  0  0  0  0
   -1.3750    0.9238    0.0000 C   0  0  0  0  0  0  0  0  0  0  0  0
   -1.3750    0.0988    0.0000 C   0  0  0  0  0  0  0  0  0  0  0  0
   -0.2535    1.9207    0.0000 C   0  0  0  0  0  0  0  0  0  0  0  0
    2.3375    0.7304    0.0000 C   0  0  0  0  0  0  0  0  0  0  0  0
    1.1730   -0.0773    0.0000 C   0  0  0  0  0  0  0  0  0  0  0  0
    1.2934    2.2257    0.0000 C   0  0  0  0  0  0  0  0  0  0  0  0
    2.3203    2.0839    0.0000 O   0  0  0  0  0  0  0  0  0  0  0  0
   -1.6972    2.0324    0.0000 O   0  0  0  0  0  0  0  0  0  0  0  0
   -0.3094   -0.9196    0.0000 C   0  0  0  0  0  0  0  0  0  0  0  0
   -2.1226    1.3277    0.0000 C   0  0  0  0  0  0  0  0  0  0  0  0
   -2.1226   -0.3094    0.0000 C   0  0  0  0  0  0  0  0  0  0  0  0
    3.1496    0.7949    0.0000 C   0  0  0  0  0  0  0  0  0  0  0  0
    2.1700    2.4492    0.0000 C   0  0  0  0  0  0  0  0  0  0  0  0
    3.6008    0.1289    0.0000 C   0  0  0  0  0  0  0  0  0  0  0  0
   -2.8230    0.9238    0.0000 C   0  0  0  0  0  0  0  0  0  0  0  0
   -2.8230    0.0988    0.0000 C   0  0  0  0  0  0  0  0  0  0  0  0
    2.4020    3.3516    0.0000 C   0  0  0  0  0  0  0  0  0  0  0  0
    0.1031   -0.1719    0.0000 H   0  0  0  0  0  0  0  0  0  0  0  0
    0.6188   -0.2191    0.0000 H   0  0  0  0  0  0  0  0  0  0  0  0
    0.3653    1.2633    0.0000 H   0  0  0  0  0  0  0  0  0  0  0  0
    1.1387    3.6050    0.0000 H   0  0  0  0  0  0  0  0  0  0  0  0
    2.4407   -0.7004    0.0000 H   0  0  0  0  0  0  0  0  0  0  0  0
  1  2  1  0
  2  3  1  0
  3  4  1  0
  4  5  1  0
  5  6  1  0
  5  7  2  0
  2  8  2  0
  3  9  1  0
  4 10  1  0
 12 13  1  0
 13 16  1  0
 14 13  1  0
 15 11  1  0
 16 11  1  0
 17 15  1  0
 18 11  1  0
 19 17  1  0
 20 24  1  0
 21 12  1  0
 22 14  1  0
 23 15  1  0
 24 18  1  0
 25 16  1  0
 26 11  1  0
 18 27  1  6
 19 28  1  6
 29 14  1  0
 30 21  1  0
 31 22  1  0
 24 32  1  1
 33 26  1  0
 34 32  1  0
 35 30  2  0
 36 31  2  0
 37 33  1  0
 13 38  1  1
 16 39  1  6
 15 40  1  6
 17 41  1  1
 20 42  1  1
 25 20  1  0
 12 23  1  6
 17 20  1  0
 12 19  1  0
 21 22  2  0
 35 36  1  0
M  CHG  2   1  -1  11   1
M  END
> <chembl_id>
CHEMBL3833388

> <chembl_pref_name>
PRAJMALIUM BITARTRATE
