
     RDKit          2D

 22 23  0  0  0  0  0  0  0  0999 V2000
    5.8202   -2.7640    0.0000 C   0  0  0  0  0  0  0  0  0  0  0  0
    6.8978   -3.5773    0.0000 C   0  0  0  0  0  0  0  0  0  0  0  0
    6.3784   -3.1407    0.0000 C   0  0  0  0  0  0  0  0  0  0  0  0
    5.3913   -3.1407    0.0000 C   0  0  0  0  0  0  0  0  0  0  0  0
    5.2474   -2.3163    0.0000 N   0  0  0  0  0  0  0  0  0  0  0  0
    6.7599   -2.7486    0.0000 C   0  0  0  0  0  0  0  0  0  0  0  0
    4.8638   -3.8646    0.0000 C   0  0  0  0  0  0  0  0  0  0  0  0
    5.4914   -3.4843    0.0000 C   0  0  0  0  0  0  0  0  0  0  0  0
    5.4564   -1.5179    0.0000 C   0  0  0  0  0  0  0  0  0  0  0  0
    4.4490   -2.5299    0.0000 C   0  0  0  0  0  0  0  0  0  0  0  0
    4.5629   -3.1407    0.0000 H   0  0  0  0  0  0  0  0  0  0  0  0
    6.2222   -2.0467    0.0000 H   0  0  0  0  0  0  0  0  0  0  0  0
    7.1065   -4.3670    0.0000 O   0  0  0  0  0  0  0  0  0  0  0  0
    7.8176   -4.7772    0.0000 C   0  0  0  0  0  0  0  0  0  0  0  0
    8.5338   -4.3687    0.0000 C   0  0  0  0  0  0  0  0  0  0  0  0
    7.8157   -5.6022    0.0000 O   0  0  0  0  0  0  0  0  0  0  0  0
    9.2479   -4.7807    0.0000 C   0  0  0  0  0  0  0  0  0  0  0  0
    8.5358   -3.5436    0.0000 C   0  0  0  0  0  0  0  0  0  0  0  0
    9.2520   -3.1305    0.0000 C   0  0  0  0  0  0  0  0  0  0  0  0
    9.2541   -2.3055    0.0000 C   0  0  0  0  0  0  0  0  0  0  0  0
    9.9641   -4.3722    0.0000 C   0  0  0  0  0  0  0  0  0  0  0  0
   10.6783   -4.7842    0.0000 C   0  0  0  0  0  0  0  0  0  0  0  0
  2  3  1  0
  4 11  1  1
  3  4  1  0
  1 12  1  6
  4  5  1  0
  2 13  1  6
  5  1  1  0
 13 14  1  0
  1  6  1  0
 14 15  1  0
  6  2  1  0
 14 16  2  0
  4  7  1  0
 15 17  1  0
  1  8  1  0
 15 18  1  0
  7  8  1  0
 18 19  1  0
 19 20  1  0
  5  9  1  0
 17 21  1  0
 21 22  1  0
  5 10  1  0
M  CHG  1   5   1
M  END
> <chembl_id>
CHEMBL1186610

> <chembl_pref_name>
ANISOTROPINE
