
     RDKit          2D

 32 34  0  0  0  0  0  0  0  0999 V2000
   -2.8377   -3.3650    0.0000 N   0  0  0  0  0  0  0  0  0  0  0  0
   -3.6581   -3.4513    0.0000 C   0  0  0  0  0  0  0  0  0  0  0  0
   -3.9937   -4.2050    0.0000 C   0  0  0  0  0  0  0  0  0  0  0  0
   -4.1431   -2.7838    0.0000 N   0  0  0  0  0  0  0  0  0  0  0  0
   -3.8075   -2.0302    0.0000 C   0  0  0  0  0  0  0  0  0  0  0  0
   -4.2924   -1.3627    0.0000 O   0  0  0  0  0  0  0  0  0  0  0  0
   -2.9870   -1.9439    0.0000 C   0  0  0  0  0  0  0  0  0  0  0  0
   -2.6515   -1.1903    0.0000 C   0  0  0  0  0  0  0  0  0  0  0  0
   -1.8310   -1.1040    0.0000 C   0  0  0  0  0  0  0  0  0  0  0  0
   -1.3461   -1.7715    0.0000 C   0  0  0  0  0  0  0  0  0  0  0  0
   -1.6816   -2.5251    0.0000 C   0  0  0  0  0  0  0  0  0  0  0  0
   -2.5021   -2.6114    0.0000 C   0  0  0  0  0  0  0  0  0  0  0  0
   -1.4954   -0.3503    0.0000 C   0  0  0  0  0  0  0  0  0  0  0  0
   -0.6750   -0.2641    0.0000 N   0  0  0  0  0  0  0  0  0  0  0  0
    0.5538    1.4816    0.0000 C   0  0  0  0  0  0  0  0  0  0  0  0
    0.4676    0.6611    0.0000 S   0  0  0  0  0  0  0  0  0  0  0  0
   -0.3394    0.4896    0.0000 C   0  0  0  0  0  0  0  0  0  0  0  0
   -0.7519    1.2040    0.0000 C   0  0  0  0  0  0  0  0  0  0  0  0
   -0.1999    1.8171    0.0000 C   0  0  0  0  0  0  0  0  0  0  0  0
    1.2683    1.8941    0.0000 C   0  0  0  0  0  0  0  0  0  0  0  0
    1.2683    2.7191    0.0000 O   0  0  0  0  0  0  0  0  0  0  0  0
    1.9828    1.4816    0.0000 N   0  0  0  0  0  0  0  0  0  0  0  0
    2.6972    1.8941    0.0000 C   0  0  0  0  0  0  0  0  0  0  0  0
    3.4117    1.4816    0.0000 C   0  0  0  0  0  0  0  0  0  0  0  0
    4.1262    1.8941    0.0000 C   0  0  0  0  0  0  0  0  0  0  0  0
    4.8406    1.4816    0.0000 C   0  0  0  0  0  0  0  0  0  0  0  0
    5.5551    1.8941    0.0000 O   0  0  0  0  0  0  0  0  0  0  0  0
    4.8406    0.6566    0.0000 O   0  0  0  0  0  0  0  0  0  0  0  0
    2.6972    2.7191    0.0000 C   0  0  0  0  0  0  0  0  0  0  0  0
    3.4117    3.1316    0.0000 O   0  0  0  0  0  0  0  0  0  0  0  0
    1.9828    3.1316    0.0000 O   0  0  0  0  0  0  0  0  0  0  0  0
   -0.1900   -0.9316    0.0000 C   0  0  0  0  0  0  0  0  0  0  0  0
  2  1  1  0
 12  1  1  0
  2  3  1  0
  2  4  2  0
  5  4  1  0
  5  6  2  0
  5  7  1  0
  7  8  2  0
  7 12  1  0
  8  9  1  0
  9 10  2  0
  9 13  1  0
 10 11  1  0
 11 12  2  0
 13 14  1  0
 17 14  1  0
 32 14  1  0
 15 16  1  0
 15 19  2  0
 20 15  1  0
 17 16  1  0
 17 18  2  0
 18 19  1  0
 20 21  2  0
 20 22  1  0
 23 22  1  6
 23 24  1  0
 23 29  1  0
 24 25  1  0
 26 25  1  0
 26 27  2  0
 26 28  1  0
 29 30  2  0
 29 31  1  0
M  END
> <chembl_id>
CHEMBL225071

> <chembl_pref_name>
RALTITREXED
