
     RDKit          2D

 13 13  0  0  0  0  0  0  0  0999 V2000
    1.4917   -4.5083    0.0000 C   0  0  0  0  0  0  0  0  0  0  0  0
   -0.3458   -5.5917    0.0000 N   0  0  0  0  0  0  0  0  0  0  0  0
    0.8917   -4.1625    0.0000 O   0  0  0  0  0  0  0  0  0  0  0  0
    2.1167   -4.1667    0.0000 N   0  0  0  0  0  0  0  0  0  0  0  0
    1.5000   -5.2042    0.0000 O   0  0  0  0  0  0  0  0  0  0  0  0
    0.2750   -5.2292    0.0000 C   0  0  0  0  0  0  0  0  0  0  0  0
    0.2750   -4.5167    0.0000 C   0  0  0  0  0  0  0  0  0  0  0  0
   -0.9583   -5.2292    0.0000 C   0  0  0  0  0  0  0  0  0  0  0  0
   -0.3458   -6.3000    0.0000 C   0  0  0  0  0  0  0  0  0  0  0  0
   -0.9583   -4.5167    0.0000 C   0  0  0  0  0  0  0  0  0  0  0  0
    2.7167   -4.5417    0.0000 C   0  0  0  0  0  0  0  0  0  0  0  0
    2.1292   -3.4625    0.0000 C   0  0  0  0  0  0  0  0  0  0  0  0
   -0.3458   -4.1625    0.0000 C   0  0  0  0  0  0  0  0  0  0  0  0
  2  6  1  0
  3  1  1  0
  4  1  1  0
  5  1  2  0
  6  7  2  0
  7  3  1  0
  8 10  1  0
  9  2  1  0
 10 13  2  0
 11  4  1  0
 12  4  1  0
 13  7  1  0
  8  2  2  0
M  CHG  1   2   1
M  END
> <chembl_id>
CHEMBL1115

> <chembl_pref_name>
PYRIDOSTIGMINE
