
     RDKit          2D

 29 32  0  0  0  0  0  0  0  0999 V2000
    2.1292   -0.3042    0.0000 O   0  0  0  0  0  0  0  0  0  0  0  0
   -2.0958   -0.2917    0.0000 O   0  0  0  0  0  0  0  0  0  0  0  0
    2.6792    0.0208    0.0000 C   0  0  0  0  0  0  0  0  0  0  0  0
   -2.6375    0.0208    0.0000 C   0  0  0  0  0  0  0  0  0  0  0  0
    1.5917    0.0000    0.0000 C   0  0  0  0  0  0  0  0  0  0  0  0
   -1.5458    0.0208    0.0000 C   0  0  0  0  0  0  0  0  0  0  0  0
    2.6667    0.6458    0.0000 C   0  0  0  0  0  0  0  0  0  0  0  0
   -2.6375    0.6500    0.0000 C   0  0  0  0  0  0  0  0  0  0  0  0
    1.0542   -0.3292    0.0000 C   0  0  0  0  0  0  0  0  0  0  0  0
   -1.0000   -0.2917    0.0000 C   0  0  0  0  0  0  0  0  0  0  0  0
    3.2042    0.9708    0.0000 C   0  0  0  0  0  0  0  0  0  0  0  0
   -3.1833    0.9708    0.0000 C   0  0  0  0  0  0  0  0  0  0  0  0
    2.1167    0.9500    0.0000 C   0  0  0  0  0  0  0  0  0  0  0  0
   -2.0958    0.9708    0.0000 C   0  0  0  0  0  0  0  0  0  0  0  0
    1.5792    0.6250    0.0000 C   0  0  0  0  0  0  0  0  0  0  0  0
   -1.5458    0.6500    0.0000 C   0  0  0  0  0  0  0  0  0  0  0  0
   -3.1833   -0.2917    0.0000 C   0  0  0  0  0  0  0  0  0  0  0  0
    3.2292   -0.2875    0.0000 C   0  0  0  0  0  0  0  0  0  0  0  0
    0.0250   -0.3125    0.0000 N   0  0  0  0  0  0  0  0  0  0  0  0
    3.7542    0.6708    0.0000 C   0  0  0  0  0  0  0  0  0  0  0  0
   -3.7250    0.6500    0.0000 C   0  0  0  0  0  0  0  0  0  0  0  0
   -3.7250    0.0208    0.0000 C   0  0  0  0  0  0  0  0  0  0  0  0
    3.7750    0.0458    0.0000 C   0  0  0  0  0  0  0  0  0  0  0  0
    4.3000    0.9958    0.0000 F   0  0  0  0  0  0  0  0  0  0  0  0
   -4.2708    0.9708    0.0000 F   0  0  0  0  0  0  0  0  0  0  0  0
    1.0167   -0.9250    0.0000 O   0  0  0  0  0  0  0  0  0  0  0  0
   -1.0125   -0.9417    0.0000 O   0  0  0  0  0  0  0  0  0  0  0  0
   -0.4833    0.0625    0.0000 C   0  0  0  0  0  0  0  0  0  0  0  0
    0.5417    0.0458    0.0000 C   0  0  0  0  0  0  0  0  0  0  0  0
  2  6  1  0
  3  1  1  0
  4  2  1  0
  5  1  1  0
  6 10  1  0
  7  3  2  0
  8 14  1  0
  9  5  1  0
 10 28  1  0
 11  7  1  0
 12  8  1  0
 13 15  1  0
 14 16  1  0
 15  5  1  0
 16  6  1  0
 17  4  1  0
 18  3  1  0
 19 29  1  0
 20 23  1  0
 21 12  2  0
 22 17  2  0
 23 18  2  0
 24 20  1  0
 25 21  1  0
 26  9  1  0
 27 10  1  0
 28 19  1  0
 29  9  1  0
  7 13  1  0
 11 20  2  0
  4  8  2  0
 22 21  1  0
M  END
> <chembl_id>
CHEMBL434394

> <chembl_pref_name>
NEBIVOLOL
