
     RDKit          2D

 26 27  0  0  0  0  0  0  0  0999 V2000
    1.4292   -1.8125    0.0000 Cl  0  0  0  0  0  0  0  0  0  0  0  0
    5.1292   -0.4167    0.0000 N   0  0  0  0  0  0  0  0  0  0  0  0
    5.3417    0.2833    0.0000 C   0  0  0  0  0  0  0  0  0  0  0  0
    4.4167   -0.4167    0.0000 C   0  0  0  0  0  0  0  0  0  0  0  0
    4.7542    0.6583    0.0000 S   0  0  0  0  0  0  0  0  0  0  0  0
    4.1792    0.2833    0.0000 C   0  0  0  0  0  0  0  0  0  0  0  0
   -1.3708   -0.7917    0.0000 N   0  0  0  0  0  0  0  0  0  0  0  0
    5.9917    0.5333    0.0000 O   0  0  0  0  0  0  0  0  0  0  0  0
    4.0167   -1.0042    0.0000 O   0  0  0  0  0  0  0  0  0  0  0  0
    3.5667    0.6333    0.0000 C   0  0  0  0  0  0  0  0  0  0  0  0
   -0.7458   -0.4292    0.0000 C   0  0  0  0  0  0  0  0  0  0  0  0
   -1.9833   -0.4292    0.0000 C   0  0  0  0  0  0  0  0  0  0  0  0
    2.9542    0.2833    0.0000 C   0  0  0  0  0  0  0  0  0  0  0  0
    1.7167   -0.4292    0.0000 C   0  0  0  0  0  0  0  0  0  0  0  0
   -0.1333   -0.7917    0.0000 C   0  0  0  0  0  0  0  0  0  0  0  0
   -1.9833    0.2833    0.0000 C   0  0  0  0  0  0  0  0  0  0  0  0
   -0.7458    0.2833    0.0000 C   0  0  0  0  0  0  0  0  0  0  0  0
    2.3292    0.6333    0.0000 C   0  0  0  0  0  0  0  0  0  0  0  0
    2.9542   -0.4292    0.0000 C   0  0  0  0  0  0  0  0  0  0  0  0
    0.4917   -0.4292    0.0000 C   0  0  0  0  0  0  0  0  0  0  0  0
    1.7167    0.2833    0.0000 C   0  0  0  0  0  0  0  0  0  0  0  0
    2.3292   -0.7917    0.0000 C   0  0  0  0  0  0  0  0  0  0  0  0
   -1.3708    0.6333    0.0000 C   0  0  0  0  0  0  0  0  0  0  0  0
    1.1042   -0.7917    0.0000 O   0  0  0  0  0  0  0  0  0  0  0  0
   -2.5958    0.6333    0.0000 C   0  0  0  0  0  0  0  0  0  0  0  0
   -3.2208    0.2833    0.0000 C   0  0  0  0  0  0  0  0  0  0  0  0
  3  2  1  0
  4  2  1  0
  5  3  1  0
  6  4  1  0
  7 11  1  0
  8  3  2  0
  9  4  2  0
 10  6  1  0
 11 15  1  0
 12  7  2  0
 13 10  1  0
 14 21  2  0
 15 20  1  0
 16 23  2  0
 17 11  2  0
 18 13  2  0
 19 13  1  0
 20 24  1  0
 21 18  1  0
 22 19  2  0
 23 17  1  0
 24 14  1  0
 25 16  1  0
 26 25  1  0
  5  6  1  0
 14 22  1  0
 16 12  1  0
M  END
> <chembl_id>
CHEMBL1715

> <chembl_pref_name>
PIOGLITAZONE HYDROCHLORIDE
