
     RDKit          2D

 39 43  0  0  1  0  0  0  0  0999 V2000
   10.9386    2.6582    0.0000 C   0  0  0  0  0  0  0  0  0  0  0  0
   11.6531    3.0707    0.0000 O   0  0  0  0  0  0  0  0  0  0  0  0
   11.6531    3.8957    0.0000 C   0  0  0  0  0  0  0  0  0  0  0  0
   10.9386    4.3082    0.0000 C   0  0  0  0  0  0  0  0  0  0  0  0
   10.9386    5.1332    0.0000 C   0  0  0  0  0  0  0  0  0  0  0  0
   11.6531    5.5457    0.0000 C   0  0  0  0  0  0  0  0  0  0  0  0
   12.3676    5.1332    0.0000 C   0  0  0  0  0  0  0  0  0  0  0  0
   13.0820    5.5457    0.0000 C   0  0  0  0  0  0  0  0  0  0  0  0
   13.0820    6.3707    0.0000 O   0  0  0  0  0  0  0  0  0  0  0  0
   13.7965    5.1332    0.0000 C   0  0  0  0  0  0  0  0  0  0  0  0
   14.5110    5.5457    0.0000 C   0  0  0  0  0  0  0  0  0  0  0  0
   14.5110    6.3707    0.0000 O   0  0  0  0  0  0  0  0  0  0  0  0
   15.2254    5.1332    0.0000 C   0  0  0  0  0  0  0  0  0  0  0  0
   15.9399    5.5457    0.0000 C   0  0  0  0  0  0  0  0  0  0  0  0
   16.6544    5.1332    0.0000 C   0  0  0  0  0  0  0  0  0  0  0  0
   17.4668    4.9900    0.0000 O   0  0  0  0  0  0  0  0  0  0  0  0
   16.6544    4.3082    0.0000 C   0  0  0  0  0  0  0  0  0  0  0  0
   15.9399    3.8957    0.0000 C   0  0  0  0  0  0  0  0  0  0  0  0
   15.9399    3.0707    0.0000 O   0  0  0  0  0  0  0  0  0  0  0  0
   16.6544    2.6582    0.0000 C   0  0  0  0  0  0  0  0  0  0  0  0
   17.3689    3.0707    0.0000 C   0  0  0  0  0  0  0  0  0  0  0  0
   18.0833    2.6582    0.0000 C   0  0  0  0  0  0  0  0  0  0  0  0
   18.7978    3.0707    0.0000 N   0  0  0  0  0  0  0  0  0  0  0  0
   18.0833    1.8332    0.0000 C   0  0  0  0  0  0  0  0  0  0  0  0
   18.7978    1.4207    0.0000 O   0  0  0  0  0  0  0  0  0  0  0  0
   17.3689    1.4207    0.0000 C   0  0  0  0  0  0  0  0  0  0  0  0
   17.3689    0.5957    0.0000 C   0  0  0  0  0  0  0  0  0  0  0  0
   16.6544    1.8332    0.0000 O   0  0  0  0  0  0  0  0  0  0  0  0
   15.2254    4.3082    0.0000 C   0  0  0  0  0  0  0  0  0  0  0  0
   14.5110    3.8957    0.0000 C   0  0  0  0  0  0  0  0  0  0  0  0
   14.5110    3.0707    0.0000 O   0  0  0  0  0  0  0  0  0  0  0  0
   13.7965    4.3082    0.0000 C   0  0  0  0  0  0  0  0  0  0  0  0
   13.0820    3.8957    0.0000 C   0  0  0  0  0  0  0  0  0  0  0  0
   13.0820    3.0707    0.0000 O   0  0  0  0  0  0  0  0  0  0  0  0
   12.3676    4.3082    0.0000 C   0  0  0  0  0  0  0  0  0  0  0  0
   16.9365    5.9085    0.0000 C   0  0  0  0  0  0  0  0  0  0  0  0
   17.7490    6.0517    0.0000 O   0  0  0  0  0  0  0  0  0  0  0  0
   16.4062    6.5405    0.0000 C   0  0  0  0  0  0  0  0  0  0  0  0
   16.6884    7.3157    0.0000 O   0  0  0  0  0  0  0  0  0  0  0  0
  1  2  1  0
  2  3  1  0
  3  4  2  0
  4  5  1  0
  5  6  2  0
  6  7  1  0
  7  8  1  0
  8  9  2  0
  8 10  1  0
 10 11  2  0
 11 12  1  0
 11 13  1  0
 13 14  1  0
 14 15  1  0
 15 16  1  6
 15 17  1  0
 17 18  1  0
 18 19  1  6
 20 19  1  1
 20 21  1  0
 21 22  1  0
 22 23  1  6
 22 24  1  0
 24 25  1  1
 24 26  1  0
 26 27  1  6
 26 28  1  0
 20 28  1  0
 18 29  1  0
 13 29  2  0
 29 30  1  0
 30 31  1  0
 30 32  2  0
 10 32  1  0
 32 33  1  0
 33 34  2  0
 33 35  1  0
  3 35  1  0
  7 35  2  0
 15 36  1  1
 36 37  2  0
 36 38  1  0
 38 39  1  0
M  END
> <chembl_id>
CHEMBL417

> <chembl_pref_name>
EPIRUBICIN
