
     RDKit          2D

 35 36  0  0  0  0  0  0  0  0999 V2000
    6.0082   -8.3173    0.0000 N   0  0  0  0  0  0  0  0  0  0  0  0
    7.4324   -8.3173    0.0000 N   0  0  0  0  0  0  0  0  0  0  0  0
    6.0082   -7.4840    0.0000 C   0  0  0  0  0  0  0  0  0  0  0  0
    7.4324   -7.4840    0.0000 C   0  0  0  0  0  0  0  0  0  0  0  0
    6.7203   -7.0625    0.0000 C   0  0  0  0  0  0  0  0  0  0  0  0
    6.7203   -8.7388    0.0000 C   0  0  0  0  0  0  0  0  0  0  0  0
    7.2435   -6.4279    0.0000 C   0  0  0  0  0  0  0  0  0  0  0  0
    8.1446   -7.0625    0.0000 O   0  0  0  0  0  0  0  0  0  0  0  0
    5.2911   -7.0625    0.0000 O   0  0  0  0  0  0  0  0  0  0  0  0
    6.7203   -9.5817    0.0000 O   0  0  0  0  0  0  0  0  0  0  0  0
    6.9674   -5.6576    0.0000 C   0  0  0  0  0  0  0  0  0  0  0  0
    6.1971   -6.4279    0.0000 C   0  0  0  0  0  0  0  0  0  0  0  0
    8.0574   -6.5587    0.0000 C   0  0  0  0  0  0  0  0  0  0  0  0
    7.5002   -5.0278    0.0000 C   0  0  0  0  0  0  0  0  0  0  0  0
    5.3638   -6.4230    0.0000 C   0  0  0  0  0  0  0  0  0  0  0  0
    8.5903   -5.9289    0.0000 C   0  0  0  0  0  0  0  0  0  0  0  0
    8.3141   -5.1490    0.0000 C   0  0  0  0  0  0  0  0  0  0  0  0
    2.2431   -5.4405    0.0000 N   0  0  0  0  0  0  0  0  0  0  0  0
    3.6674   -5.4405    0.0000 N   0  0  0  0  0  0  0  0  0  0  0  0
    2.2431   -4.6072    0.0000 C   0  0  0  0  0  0  0  0  0  0  0  0
    3.6674   -4.6072    0.0000 C   0  0  0  0  0  0  0  0  0  0  0  0
    2.9552   -4.1857    0.0000 C   0  0  0  0  0  0  0  0  0  0  0  0
    2.9552   -5.8619    0.0000 C   0  0  0  0  0  0  0  0  0  0  0  0
    3.4784   -3.5511    0.0000 C   0  0  0  0  0  0  0  0  0  0  0  0
    4.3795   -4.1857    0.0000 O   0  0  0  0  0  0  0  0  0  0  0  0
    1.5260   -4.1857    0.0000 O   0  0  0  0  0  0  0  0  0  0  0  0
    2.9552   -6.7049    0.0000 O   0  0  0  0  0  0  0  0  0  0  0  0
    3.2023   -2.7808    0.0000 C   0  0  0  0  0  0  0  0  0  0  0  0
    2.4320   -3.5511    0.0000 C   0  0  0  0  0  0  0  0  0  0  0  0
    4.2923   -3.6819    0.0000 C   0  0  0  0  0  0  0  0  0  0  0  0
    3.7351   -2.1510    0.0000 C   0  0  0  0  0  0  0  0  0  0  0  0
    1.5987   -3.5462    0.0000 C   0  0  0  0  0  0  0  0  0  0  0  0
    4.8252   -3.0521    0.0000 C   0  0  0  0  0  0  0  0  0  0  0  0
    4.5490   -2.2721    0.0000 C   0  0  0  0  0  0  0  0  0  0  0  0
    3.1393   -8.7541    0.0000 Ca  0  0  0  0  0 15  0  0  0  0  0  0
  2  6  1  0
  3  1  1  0
  4  2  1  0
  5  3  1  0
  6  1  1  0
  7  5  1  0
  8  4  2  0
  9  3  2  0
 10  6  2  0
 11  7  2  0
 12  5  1  0
 13  7  1  0
 14 11  1  0
 15 12  1  0
 16 13  1  0
 17 16  1  0
  5  4  1  0
 17 14  1  0
 19 23  1  0
 20 18  1  0
 21 19  1  0
 22 20  1  0
 23 18  1  0
 24 22  1  0
 25 21  2  0
 26 20  2  0
 27 23  2  0
 28 24  2  0
 29 22  1  0
 30 24  1  0
 31 28  1  0
 32 29  1  0
 33 30  1  0
 34 33  1  0
 22 21  1  0
 34 31  1  0
M  CHG  3   1  -1  18  -1  35   2
M  END
> <chembl_id>
CHEMBL2106556

> <chembl_pref_name>
CYCLOBARBITAL CALCIUM
