
     RDKit          2D

 17 16  0  0  0  0  0  0  0  0999 V2000
    7.3292   -5.8417    0.0000 O   0  0  0  0  0  0  0  0  0  0  0  0
    6.0125   -4.3917    0.0000 C   0  0  0  0  0  0  0  0  0  0  0  0
    6.6167   -4.0542    0.0000 C   0  0  0  0  0  0  0  0  0  0  0  0
    5.4000   -4.0542    0.0000 C   0  0  0  0  0  0  0  0  0  0  0  0
    3.5167   -4.4042    0.0000 C   0  0  0  0  0  0  0  0  0  0  0  0
    6.3500   -4.9792    0.0000 N   0  0  0  0  0  0  0  0  0  0  0  0
    3.5167   -5.1292    0.0000 C   0  0  0  0  0  0  0  0  0  0  0  0
    4.1375   -4.0792    0.0000 C   0  0  0  0  0  0  0  0  0  0  0  0
    4.7625   -4.4042    0.0000 C   0  0  0  0  0  0  0  0  0  0  0  0
    6.6167   -3.3375    0.0000 O   0  0  0  0  0  0  0  0  0  0  0  0
    4.1375   -5.4792    0.0000 C   0  0  0  0  0  0  0  0  0  0  0  0
    7.2375   -4.4042    0.0000 O   0  0  0  0  0  0  0  0  0  0  0  0
    4.7625   -5.1292    0.0000 C   0  0  0  0  0  0  0  0  0  0  0  0
    5.9875   -5.5917    0.0000 N   0  0  0  0  0  0  0  0  0  0  0  0
    2.9125   -4.0542    0.0000 O   0  0  0  0  0  0  0  0  0  0  0  0
    5.6542   -5.0042    0.0000 C   0  0  0  0  0  0  0  0  0  0  0  0
    2.9125   -5.4917    0.0000 O   0  0  0  0  0  0  0  0  0  0  0  0
  3  2  1  0
  4  2  1  0
  5  8  2  0
  6  2  1  0
  7 11  2  0
  8  9  1  0
  9  4  1  0
 10  3  2  0
 11 13  1  0
 12  3  1  0
 13  9  2  0
 14  6  1  0
 15  5  1  0
  2 16  1  6
 17  7  1  0
  5  7  1  0
M  END
> <chembl_id>
CHEMBL1200748

> <chembl_pref_name>
CARBIDOPA
