
     RDKit          2D

 10  9  0  0  0  0  0  0  0  0999 V2000
    0.2042   -2.7250    0.0000 C   0  0  0  0  0  0  0  0  0  0  0  0
    0.8167   -3.0667    0.0000 N   0  0  0  0  0  0  0  0  0  0  0  0
    2.0417   -3.0667    0.0000 C   0  0  0  0  0  0  0  0  0  0  0  0
    0.2000   -2.0125    0.0000 O   0  0  0  0  0  0  0  0  0  0  0  0
    2.0542   -3.7792    0.0000 O   0  0  0  0  0  0  0  0  0  0  0  0
   -0.4083   -3.0750    0.0000 C   0  0  0  0  0  0  0  0  0  0  0  0
    1.4292   -2.7167    0.0000 C   0  0  0  0  0  0  0  0  0  0  0  0
   -1.0333   -2.7250    0.0000 S   0  0  0  0  0  0  0  0  0  0  0  0
    2.6500   -2.7042    0.0000 O   0  0  0  0  0  0  0  0  0  0  0  0
   -0.4083   -3.7917    0.0000 C   0  0  0  0  0  0  0  0  0  0  0  0
  2  1  1  0
  3  7  1  0
  4  1  2  0
  5  3  2  0
  6  1  1  0
  7  2  1  0
  8  6  1  0
  9  3  1  0
 10  6  1  0
M  END
> <chembl_id>
CHEMBL1314

> <chembl_pref_name>
TIOPRONIN
