
     RDKit          2D

 27 24  0  0  0  0  0  0  0  0999 V2000
    9.9383   -4.3985    0.0000 C   0  0  0  0  0  0  0  0  0  0  0  0
   10.3549   -5.1106    0.0000 C   0  0  0  0  0  0  0  0  0  0  0  0
    9.9383   -5.8227    0.0000 C   0  0  0  0  0  0  0  0  0  0  0  0
   10.3549   -3.6864    0.0000 C   0  0  0  0  0  0  0  0  0  0  0  0
   10.3549   -6.5444    0.0000 C   0  0  0  0  0  0  0  0  0  0  0  0
   11.1736   -3.6864    0.0000 O   0  0  0  0  0  0  0  0  0  0  0  0
    9.9383   -2.9694    0.0000 O   0  0  0  0  0  0  0  0  0  0  0  0
    9.1099   -4.3985    0.0000 O   0  0  0  0  0  0  0  0  0  0  0  0
   11.1736   -5.1106    0.0000 O   0  0  0  0  0  0  0  0  0  0  0  0
    9.1099   -5.8227    0.0000 O   0  0  0  0  0  0  0  0  0  0  0  0
   11.1736   -6.5444    0.0000 O   0  0  0  0  0  0  0  0  0  0  0  0
   10.3549   -7.9735    0.0000 O   0  0  0  0  0  0  0  0  0  0  0  0
    9.9383   -7.2614    0.0000 C   0  0  0  0  0  0  0  0  0  0  0  0
    5.0914   -4.5246    0.0000 C   0  0  0  0  0  0  0  0  0  0  0  0
    5.5079   -5.2367    0.0000 C   0  0  0  0  0  0  0  0  0  0  0  0
    5.0914   -5.9488    0.0000 C   0  0  0  0  0  0  0  0  0  0  0  0
    5.5079   -3.8125    0.0000 C   0  0  0  0  0  0  0  0  0  0  0  0
    5.5079   -6.6706    0.0000 C   0  0  0  0  0  0  0  0  0  0  0  0
    6.3266   -3.8125    0.0000 O   0  0  0  0  0  0  0  0  0  0  0  0
    5.0914   -3.0955    0.0000 O   0  0  0  0  0  0  0  0  0  0  0  0
    4.2630   -4.5246    0.0000 O   0  0  0  0  0  0  0  0  0  0  0  0
    6.3266   -5.2367    0.0000 O   0  0  0  0  0  0  0  0  0  0  0  0
    4.2630   -5.9488    0.0000 O   0  0  0  0  0  0  0  0  0  0  0  0
    6.3266   -6.6706    0.0000 O   0  0  0  0  0  0  0  0  0  0  0  0
    5.5079   -8.0996    0.0000 O   0  0  0  0  0  0  0  0  0  0  0  0
    5.0914   -7.3875    0.0000 C   0  0  0  0  0  0  0  0  0  0  0  0
    7.3294   -3.7785    0.0000 Ca  0  0  0  0  0 15  0  0  0  0  0  0
  2  1  1  0
  3  2  1  0
  4  1  1  0
  5  3  1  0
  6  4  1  0
  7  4  2  0
  1  8  1  1
  2  9  1  1
  3 10  1  1
  5 11  1  6
 12 13  1  0
 13  5  1  0
 15 14  1  0
 16 15  1  0
 17 14  1  0
 18 16  1  0
 19 17  1  0
 20 17  2  0
 14 21  1  1
 15 22  1  1
 16 23  1  1
 18 24  1  6
 25 26  1  0
 26 18  1  0
M  CHG  3   6  -1  19  -1  27   2
M  END
> <chembl_id>
CHEMBL2106119

> <chembl_pref_name>
CALCIUM GLUCONATE
