
     RDKit          2D

 18 18  0  0  0  0  0  0  0  0999 V2000
    2.1500   -6.8417    0.0000 Na  0  0  0  0  0 15  0  0  0  0  0  0
    3.6917   -7.2542    0.0000 S   0  0  0  0  0  0  0  0  0  0  0  0
    6.1458   -7.2542    0.0000 S   0  0  0  0  0  0  0  0  0  0  0  0
    4.3042   -6.9000    0.0000 C   0  0  0  0  0  0  0  0  0  0  0  0
    5.5292   -6.9000    0.0000 C   0  0  0  0  0  0  0  0  0  0  0  0
    3.0833   -6.8958    0.0000 N   0  0  0  0  0  0  0  0  0  0  0  0
    4.9167   -7.2542    0.0000 C   0  0  0  0  0  0  0  0  0  0  0  0
    4.3083   -6.1917    0.0000 C   0  0  0  0  0  0  0  0  0  0  0  0
    5.5292   -6.1875    0.0000 C   0  0  0  0  0  0  0  0  0  0  0  0
    3.7000   -5.8375    0.0000 N   0  0  0  0  0  0  0  0  0  0  0  0
    3.0875   -6.1875    0.0000 C   0  0  0  0  0  0  0  0  0  0  0  0
    4.9167   -5.8333    0.0000 C   0  0  0  0  0  0  0  0  0  0  0  0
    4.0417   -7.8667    0.0000 O   0  0  0  0  0  0  0  0  0  0  0  0
    3.3292   -7.8667    0.0000 O   0  0  0  0  0  0  0  0  0  0  0  0
    6.4917   -7.8667    0.0000 O   0  0  0  0  0  0  0  0  0  0  0  0
    5.7875   -7.8667    0.0000 O   0  0  0  0  0  0  0  0  0  0  0  0
    6.7583   -6.8958    0.0000 N   0  0  0  0  0  0  0  0  0  0  0  0
    6.1417   -5.8292    0.0000 Cl  0  0  0  0  0  0  0  0  0  0  0  0
  3  5  1  0
  4  2  1  0
  5  7  2  0
  6  2  1  0
  7  4  1  0
  8  4  2  0
  9  5  1  0
 10 11  2  0
 11  6  1  0
 12  8  1  0
 13  2  2  0
 14  2  2  0
 15  3  2  0
 16  3  2  0
 17  3  1  0
 18  9  1  0
 10  8  1  0
 12  9  2  0
M  CHG  2   1   1   6  -1
M  END
> <chembl_id>
CHEMBL1200616

> <chembl_pref_name>
CHLOROTHIAZIDE SODIUM
