
     RDKit          2D

 27 30  0  0  1  0  0  0  0  0999 V2000
    6.1000   -4.6667    0.0000 C   0  0  0  0  0  0  0  0  0  0  0  0
    6.1000   -5.3625    0.0000 C   0  0  0  0  0  0  0  0  0  0  0  0
    4.2542   -6.4167    0.0000 C   0  0  0  0  0  0  0  0  0  0  0  0
    5.4875   -5.7042    0.0000 C   0  0  0  0  0  0  0  0  0  0  0  0
    4.8750   -5.3417    0.0000 C   0  0  0  0  0  0  0  0  0  0  0  0
    4.2542   -5.7042    0.0000 C   0  0  0  0  0  0  0  0  0  0  0  0
    6.7667   -4.4417    0.0000 C   0  0  0  0  0  0  0  0  0  0  0  0
    3.6417   -6.7750    0.0000 C   0  0  0  0  0  0  0  0  0  0  0  0
    7.3417   -4.0375    0.0000 C   0  0  0  0  0  0  0  0  0  0  0  0
    5.4875   -4.3042    0.0000 C   0  0  0  0  0  0  0  0  0  0  0  0
    4.8750   -4.6417    0.0000 C   0  0  0  0  0  0  0  0  0  0  0  0
    5.4875   -6.4167    0.0000 C   0  0  0  0  0  0  0  0  0  0  0  0
    6.7667   -5.5792    0.0000 C   0  0  0  0  0  0  0  0  0  0  0  0
    7.9250   -3.6375    0.0000 C   0  0  0  0  0  0  0  0  0  0  0  0
    3.6417   -5.3417    0.0000 C   0  0  0  0  0  0  0  0  0  0  0  0
    4.8750   -6.7750    0.0000 C   0  0  0  0  0  0  0  0  0  0  0  0
    3.0292   -6.4167    0.0000 C   0  0  0  0  0  0  0  0  0  0  0  0
    7.1875   -4.9750    0.0000 C   0  0  0  0  0  0  0  0  0  0  0  0
    2.4250   -6.7792    0.0000 O   0  0  0  0  0  0  0  0  0  0  0  0
    3.0292   -5.7042    0.0000 C   0  0  0  0  0  0  0  0  0  0  0  0
    6.8167   -3.7042    0.0000 O   0  0  0  0  0  0  0  0  0  0  0  0
    6.1000   -3.9375    0.0000 C   0  0  0  0  0  0  0  0  0  0  0  0
    5.4875   -3.5875    0.0000 C   0  0  0  0  0  0  0  0  0  0  0  0
    6.1000   -6.0667    0.0000 H   0  0  0  0  0  0  0  0  0  0  0  0
    5.4875   -5.0000    0.0000 H   0  0  0  0  0  0  0  0  0  0  0  0
    4.8667   -6.0917    0.0000 H   0  0  0  0  0  0  0  0  0  0  0  0
    4.2625   -5.0167    0.0000 H   0  0  0  0  0  0  0  0  0  0  0  0
  2  1  1  0
  3  6  1  0
  4  2  1  0
  5 11  1  0
  6  5  1  0
  7  1  1  0
  8  3  2  0
  9  7  1  0
 10  1  1  0
 11 10  1  0
 12  4  1  0
 13  2  1  0
 14  9  3  0
 15  6  1  0
 16 12  1  0
 17 20  1  0
 18  7  1  0
 19 17  2  0
 20 15  1  0
  7 21  1  1
  1 22  1  1
 23 22  1  0
  2 24  1  6
  4 25  1  1
  5 26  1  6
  6 27  1  1
 18 13  1  0
  5  4  1  0
  3 16  1  0
 17  8  1  0
M  END
> <chembl_id>
CHEMBL1389

> <chembl_pref_name>
LEVONORGESTREL
