
     RDKit          2D

 27 27  0  0  0  0  0  0  0  0999 V2000
    5.2125   -9.1542    0.0000 Cl  0  0  0  0  0  0  0  0  0  0  0  0
    2.3408   -8.3167    0.0000 C   0  0  0  0  0  0  0  0  0  0  0  0
    2.7015   -7.7105    0.0000 C   0  0  0  0  0  0  0  0  0  0  0  0
    5.1792   -7.1042    0.0000 C   0  0  0  0  0  0  0  0  0  0  0  0
    4.4750   -7.1042    0.0000 C   0  0  0  0  0  0  0  0  0  0  0  0
    2.3499   -7.0917    0.0000 O   0  0  0  0  0  0  0  0  0  0  0  0
    1.7220   -8.6684    0.0000 C   0  0  0  0  0  0  0  0  0  0  0  0
    2.9469   -8.6858    0.0000 C   0  0  0  0  0  0  0  0  0  0  0  0
    1.9933   -7.6980    0.0000 O   0  0  0  0  0  0  0  0  0  0  0  0
    3.4058   -7.7104    0.0000 O   0  0  0  0  0  0  0  0  0  0  0  0
    6.2417   -7.7167    0.0000 N   0  0  0  0  0  0  0  0  0  0  0  0
    5.8917   -7.1042    0.0000 C   0  0  0  0  0  0  0  0  0  0  0  0
    3.7666   -7.1042    0.0000 C   0  0  0  0  0  0  0  0  0  0  0  0
    1.7094   -9.3808    0.0000 C   0  0  0  0  0  0  0  0  0  0  0  0
    1.1158   -8.3034    0.0000 C   0  0  0  0  0  0  0  0  0  0  0  0
    5.8917   -8.3292    0.0000 C   0  0  0  0  0  0  0  0  0  0  0  0
    6.9542   -7.7167    0.0000 C   0  0  0  0  0  0  0  0  0  0  0  0
    2.9344   -9.3899    0.0000 C   0  0  0  0  0  0  0  0  0  0  0  0
    3.5573   -8.3382    0.0000 C   0  0  0  0  0  0  0  0  0  0  0  0
    6.2417   -8.9417    0.0000 C   0  0  0  0  0  0  0  0  0  0  0  0
    7.3042   -8.3292    0.0000 C   0  0  0  0  0  0  0  0  0  0  0  0
    1.0908   -9.7199    0.0000 C   0  0  0  0  0  0  0  0  0  0  0  0
    0.4972   -8.6468    0.0000 C   0  0  0  0  0  0  0  0  0  0  0  0
    4.1718   -8.6991    0.0000 C   0  0  0  0  0  0  0  0  0  0  0  0
    3.5324   -9.7505    0.0000 C   0  0  0  0  0  0  0  0  0  0  0  0
    0.4846   -9.3591    0.0000 C   0  0  0  0  0  0  0  0  0  0  0  0
    4.1592   -9.4115    0.0000 C   0  0  0  0  0  0  0  0  0  0  0  0
  3  2  1  0
  4  5  3  0
  5 13  1  0
  6  3  2  0
  7  2  1  0
  8  2  1  0
  9  2  1  0
 10  3  1  0
 11 12  1  0
 12  4  1  0
 13 10  1  0
 14  7  1  0
 15  7  2  0
 16 11  1  0
 17 11  1  0
 18  8  1  0
 19  8  1  0
 20 16  1  0
 21 17  1  0
 22 14  2  0
 23 15  1  0
 24 19  1  0
 25 18  1  0
 26 22  1  0
 27 25  1  0
 27 24  1  0
 26 23  2  0
M  END
> <chembl_id>
CHEMBL1133

> <chembl_pref_name>
OXYBUTYNIN CHLORIDE
