
     RDKit          2D

 20 21  0  0  0  0  0  0  0  0999 V2000
    2.6792    0.3958    0.0000 N   0  0  0  0  0  0  0  0  0  0  0  0
    1.8292   -0.1042    0.0000 C   0  0  0  0  0  0  0  0  0  0  0  0
   -2.4583    0.2958    0.0000 C   0  0  0  0  0  0  0  0  0  0  0  0
   -3.3083   -0.1875    0.0000 N   0  0  0  0  0  0  0  0  0  0  0  0
   -1.5958   -0.1875    0.0000 C   0  0  0  0  0  0  0  0  0  0  0  0
    1.8292   -1.1167    0.0000 C   0  0  0  0  0  0  0  0  0  0  0  0
    0.9167    0.2958    0.0000 O   0  0  0  0  0  0  0  0  0  0  0  0
   -0.7333    0.3208    0.0000 C   0  0  0  0  0  0  0  0  0  0  0  0
   -1.6083   -1.1667    0.0000 C   0  0  0  0  0  0  0  0  0  0  0  0
    0.9792   -1.6417    0.0000 O   0  0  0  0  0  0  0  0  0  0  0  0
    0.1042   -1.1417    0.0000 C   0  0  0  0  0  0  0  0  0  0  0  0
   -4.1583    0.2833    0.0000 O   0  0  0  0  0  0  0  0  0  0  0  0
    0.1042   -0.1417    0.0000 C   0  0  0  0  0  0  0  0  0  0  0  0
   -0.7333   -1.6667    0.0000 C   0  0  0  0  0  0  0  0  0  0  0  0
    3.5167   -0.1042    0.0000 C   0  0  0  0  0  0  0  0  0  0  0  0
    2.6792    1.3458    0.0000 C   0  0  0  0  0  0  0  0  0  0  0  0
   -2.4583    1.2833    0.0000 C   0  0  0  0  0  0  0  0  0  0  0  0
    4.3417    0.4458    0.0000 C   0  0  0  0  0  0  0  0  0  0  0  0
    3.4375    1.8958    0.0000 C   0  0  0  0  0  0  0  0  0  0  0  0
    4.3417    1.4000    0.0000 C   0  0  0  0  0  0  0  0  0  0  0  0
  2  1  1  0
  3  5  1  0
  4  3  2  0
  5  9  1  0
  6  2  1  0
  7  2  2  0
  8 13  1  0
  9 14  2  0
 10  6  1  0
 11 10  1  0
 12  4  1  0
 13 11  2  0
 14 11  1  0
 15  1  1  0
 16  1  1  0
 17  3  1  0
 18 15  1  0
 19 16  1  0
 20 19  1  0
 18 20  1  0
  5  8  2  0
M  END
> <chembl_id>
CHEMBL1998966

> <chembl_pref_name>
PIFOXIME
