
     RDKit          2D

 27 31  0  0  0  0  0  0  0  0999 V2000
    5.7708   -2.8750    0.0000 Cl  0  0  0  0  0  0  0  0  0  0  0  0
    5.7250   -0.6667    0.0000 C   0  0  0  0  0  0  0  0  0  0  0  0
    6.0792   -0.0583    0.0000 C   0  0  0  0  0  0  0  0  0  0  0  0
    5.0208   -0.6708    0.0000 C   0  0  0  0  0  0  0  0  0  0  0  0
    6.0708   -1.2792    0.0000 C   0  0  0  0  0  0  0  0  0  0  0  0
    4.6708   -1.2792    0.0000 C   0  0  0  0  0  0  0  0  0  0  0  0
    5.4000   -1.7167    0.0000 O   0  0  0  0  0  0  0  0  0  0  0  0
    5.7292    0.5500    0.0000 C   0  0  0  0  0  0  0  0  0  0  0  0
    6.0833    1.1625    0.0000 N   0  0  0  0  0  0  0  0  0  0  0  0
    4.6708   -0.0583    0.0000 C   0  0  0  0  0  0  0  0  0  0  0  0
    5.0208    0.5542    0.0000 C   0  0  0  0  0  0  0  0  0  0  0  0
    6.7750   -1.2833    0.0000 C   0  0  0  0  0  0  0  0  0  0  0  0
    5.3667   -0.0500    0.0000 C   0  0  0  0  0  0  0  0  0  0  0  0
    6.7833   -0.0625    0.0000 C   0  0  0  0  0  0  0  0  0  0  0  0
    6.6917    1.5208    0.0000 C   0  0  0  0  0  0  0  0  0  0  0  0
    3.9625   -1.2792    0.0000 C   0  0  0  0  0  0  0  0  0  0  0  0
    5.3750    1.1625    0.0000 C   0  0  0  0  0  0  0  0  0  0  0  0
    7.3083    1.1750    0.0000 C   0  0  0  0  0  0  0  0  0  0  0  0
    7.6708    0.5667    0.0000 C   0  0  0  0  0  0  0  0  0  0  0  0
    8.0208    1.1833    0.0000 C   0  0  0  0  0  0  0  0  0  0  0  0
    7.1292   -0.6750    0.0000 C   0  0  0  0  0  0  0  0  0  0  0  0
    3.9625   -0.0583    0.0000 C   0  0  0  0  0  0  0  0  0  0  0  0
    6.4292    0.5583    0.0000 O   0  0  0  0  0  0  0  0  0  0  0  0
    3.6125   -0.6708    0.0000 C   0  0  0  0  0  0  0  0  0  0  0  0
    7.1250   -1.9000    0.0000 C   0  0  0  0  0  0  0  0  0  0  0  0
    3.6083   -1.8917    0.0000 O   0  0  0  0  0  0  0  0  0  0  0  0
    6.0667   -1.9875    0.0000 H   0  0  0  0  0  0  0  0  0  0  0  0
  3  2  1  0
  4  2  1  0
  5  2  1  0
  6  4  1  0
  7  5  1  0
  8  3  1  0
  8  9  1  1
 10  4  2  0
 11  8  1  0
 12  5  1  0
  2 13  1  1
 14  3  1  0
 15  9  1  0
 16  6  2  0
 17 13  1  0
 18 15  1  0
 19 18  1  0
 20 18  1  0
 21 14  1  0
 22 10  1  0
  3 23  1  1
 24 22  2  0
 25 12  2  0
 26 16  1  0
  5 27  1  1
 17  9  1  0
  7  6  1  0
 11 10  1  0
 21 12  1  0
 16 24  1  0
 19 20  1  0
M  END
> <chembl_id>
CHEMBL1201152

> <chembl_pref_name>
NALMEFENE HYDROCHLORIDE
