
     RDKit          2D

 12 11  0  0  0  0  0  0  0  0999 V2000
   -0.7375   -0.5375    0.0000 P   0  0  0  0  0  0  0  0  0  0  0  0
    0.6917   -0.5375    0.0000 C   0  0  0  0  0  0  0  0  0  0  0  0
    1.3792    0.7208    0.0000 C   0  0  0  0  0  0  0  0  0  0  0  0
   -1.2833   -1.8500    0.0000 O   0  0  0  0  0  0  0  0  0  0  0  0
    0.6417    1.9583    0.0000 Cl  0  0  0  0  0  0  0  0  0  0  0  0
    2.7667    1.0958    0.0000 Cl  0  0  0  0  0  0  0  0  0  0  0  0
    2.7667    0.3458    0.0000 Cl  0  0  0  0  0  0  0  0  0  0  0  0
   -2.0833   -0.0542    0.0000 O   0  0  0  0  0  0  0  0  0  0  0  0
   -1.0375    0.8875    0.0000 O   0  0  0  0  0  0  0  0  0  0  0  0
    1.3792   -1.7625    0.0000 O   0  0  0  0  0  0  0  0  0  0  0  0
   -3.1625   -0.9792    0.0000 C   0  0  0  0  0  0  0  0  0  0  0  0
   -2.4208    1.3375    0.0000 C   0  0  0  0  0  0  0  0  0  0  0  0
  2  1  1  0
  3  2  1  0
  4  1  2  0
  5  3  1  0
  6  3  1  0
  7  3  1  0
  8  1  1  0
  9  1  1  0
 10  2  1  0
 11  8  1  0
 12  9  1  0
M  END
> <chembl_id>
CHEMBL167150

> <chembl_pref_name>
TRICHLORFON
