
     RDKit          2D

 35 38  0  0  0  0  0  0  0  0999 V2000
   -0.3341   -0.8456    0.0000 C   0  0  0  0  0  0  0  0  0  0  0  0
   -1.0486   -1.2581    0.0000 C   0  0  0  0  0  0  0  0  0  0  0  0
   -1.0486   -2.0831    0.0000 C   0  0  0  0  0  0  0  0  0  0  0  0
   -0.3341   -2.4956    0.0000 C   0  0  0  0  0  0  0  0  0  0  0  0
    0.3804   -2.0831    0.0000 C   0  0  0  0  0  0  0  0  0  0  0  0
    0.3804   -1.2581    0.0000 C   0  0  0  0  0  0  0  0  0  0  0  0
   -0.3341   -0.0206    0.0000 C   0  0  0  0  0  0  0  0  0  0  0  0
    0.3804    0.3919    0.0000 F   0  0  0  0  0  0  0  0  0  0  0  0
   -1.0486    0.3919    0.0000 F   0  0  0  0  0  0  0  0  0  0  0  0
   -0.3341    0.8044    0.0000 F   0  0  0  0  0  0  0  0  0  0  0  0
    1.0949   -2.4956    0.0000 C   0  0  0  0  0  0  0  0  0  0  0  0
    1.8093   -2.0831    0.0000 F   0  0  0  0  0  0  0  0  0  0  0  0
    1.0948   -3.3206    0.0000 F   0  0  0  0  0  0  0  0  0  0  0  0
    1.8093   -2.9081    0.0000 F   0  0  0  0  0  0  0  0  0  0  0  0
   -1.7631   -2.4956    0.0000 C   0  0  0  0  0  0  0  0  0  0  0  0
   -2.4776   -2.0831    0.0000 O   0  0  0  0  0  0  0  0  0  0  0  0
   -1.7631   -3.3206    0.0000 C   0  0  0  0  0  0  0  0  0  0  0  0
   -3.1920   -2.4956    0.0000 C   0  0  0  0  0  0  0  0  0  0  0  0
   -3.9065   -2.0831    0.0000 C   0  0  0  0  0  0  0  0  0  0  0  0
   -4.6210   -2.4956    0.0000 C   0  0  0  0  0  0  0  0  0  0  0  0
   -3.1920   -0.8456    0.0000 C   0  0  0  0  0  0  0  0  0  0  0  0
   -3.9065   -0.4331    0.0000 C   0  0  0  0  0  0  0  0  0  0  0  0
   -4.6210   -0.8456    0.0000 C   0  0  0  0  0  0  0  0  0  0  0  0
   -4.6210   -1.6706    0.0000 C   0  0  0  0  0  0  0  0  0  0  0  0
   -3.1920   -1.6706    0.0000 N   0  0  0  0  0  0  0  0  0  0  0  0
   -4.1840    0.8726    0.0000 C   0  0  0  0  0  0  0  0  0  0  0  0
   -4.5195    0.1189    0.0000 N   0  0  0  0  0  0  0  0  0  0  0  0
   -3.1920   -0.0206    0.0000 C   0  0  0  0  0  0  0  0  0  0  0  0
   -3.3635    0.7863    0.0000 C   0  0  0  0  0  0  0  0  0  0  0  0
   -4.5965    1.5871    0.0000 O   0  0  0  0  0  0  0  0  0  0  0  0
   -5.3355   -2.0831    0.0000 C   0  0  0  0  0  0  0  0  0  0  0  0
   -6.0499   -2.4956    0.0000 C   0  0  0  0  0  0  0  0  0  0  0  0
   -6.0499   -3.3206    0.0000 C   0  0  0  0  0  0  0  0  0  0  0  0
   -5.3354   -3.7331    0.0000 C   0  0  0  0  0  0  0  0  0  0  0  0
   -4.6210   -3.3206    0.0000 C   0  0  0  0  0  0  0  0  0  0  0  0
  1  2  1  0
  1  6  2  0
  2  3  2  0
  3  4  1  0
  4  5  2  0
  5  6  1  0
  1  7  1  0
  7  8  1  0
  7  9  1  0
  7 10  1  0
  5 11  1  0
 11 12  1  0
 11 13  1  0
 11 14  1  0
  3 15  1  0
 15 16  1  0
 15 17  1  1
 16 18  1  0
 19 18  1  1
 19 20  1  0
 24 19  1  0
 19 25  1  0
 21 22  1  0
 22 23  1  0
 23 24  1  0
 25 21  1  0
 22 27  1  1
 22 28  1  0
 26 27  1  0
 28 29  1  0
 26 29  1  0
 26 30  2  0
 20 31  1  0
 20 35  2  0
 31 32  2  0
 32 33  1  0
 33 34  2  0
 34 35  1  0
M  END
> <chembl_id>
CHEMBL3707331

> <chembl_pref_name>
ROLAPITANT
