
     RDKit          2D

 59 67  0  0  0  0  0  0  0  0999 V2000
    4.5035    3.0800    0.0000 C   0  0  0  0  0  0  0  0  0  0  0  0
    3.7890    3.4924    0.0000 C   0  0  0  0  0  0  0  0  0  0  0  0
    3.0745    3.0799    0.0000 C   0  0  0  0  0  0  0  0  0  0  0  0
    3.0745    2.2549    0.0000 C   0  0  0  0  0  0  0  0  0  0  0  0
    3.7890    1.8424    0.0000 C   0  0  0  0  0  0  0  0  0  0  0  0
    4.5035    2.2550    0.0000 C   0  0  0  0  0  0  0  0  0  0  0  0
    2.3600    3.4925    0.0000 C   0  0  0  0  0  0  0  0  0  0  0  0
    1.6455    3.0800    0.0000 N   0  0  0  0  0  0  0  0  0  0  0  0
    1.6455    2.2550    0.0000 C   0  0  0  0  0  0  0  0  0  0  0  0
    2.3600    1.8425    0.0000 C   0  0  0  0  0  0  0  0  0  0  0  0
    3.0745    0.6050    0.0000 C   0  0  0  0  0  0  0  0  0  0  0  0
    3.0745    1.4300    0.0000 S   0  0  0  0  0  0  0  0  0  0  0  0
    1.0999    1.2112    0.0000 C   0  0  0  0  0  0  0  0  0  0  0  0
    2.3600    0.1925    0.0000 C   0  0  0  0  0  0  0  0  0  0  0  0
    3.0745   -1.0450    0.0000 C   0  0  0  0  0  0  0  0  0  0  0  0
    3.0745   -0.2200    0.0000 N   0  0  0  0  0  0  0  0  0  0  0  0
    1.6456   -0.2200    0.0000 C   0  0  0  0  0  0  0  0  0  0  0  0
    1.6456   -1.0450    0.0000 C   0  0  0  0  0  0  0  0  0  0  0  0
    2.3600   -1.4575    0.0000 C   0  0  0  0  0  0  0  0  0  0  0  0
    0.9311    0.1925    0.0000 C   0  0  0  0  0  0  0  0  0  0  0  0
    0.2166   -0.2200    0.0000 C   0  0  0  0  0  0  0  0  0  0  0  0
    0.2166   -1.0450    0.0000 C   0  0  0  0  0  0  0  0  0  0  0  0
    0.9311   -1.4575    0.0000 C   0  0  0  0  0  0  0  0  0  0  0  0
    3.9605    4.2994    0.0000 O   0  0  0  0  0  0  0  0  0  0  0  0
    4.7810    4.3856    0.0000 C   0  0  0  0  0  0  0  0  0  0  0  0
    5.1165    3.6320    0.0000 O   0  0  0  0  0  0  0  0  0  0  0  0
    0.3855    0.7987    0.0000 O   0  0  0  0  0  0  0  0  0  0  0  0
    0.6062    2.6978    0.0000 O   0  0  0  0  0  0  0  0  0  0  0  0
    1.7767    4.0758    0.0000 C   0  0  0  0  0  0  0  0  0  0  0  0
    2.7725    4.2069    0.0000 H   0  0  0  0  0  0  0  0  0  0  0  0
    5.2179    1.8424    0.0000 C   0  0  0  0  0  0  0  0  0  0  0  0
    3.7890    1.0174    0.0000 O   0  0  0  0  0  0  0  0  0  0  0  0
    4.5034    0.6049    0.0000 C   0  0  0  0  0  0  0  0  0  0  0  0
    4.5034   -0.2201    0.0000 O   0  0  0  0  0  0  0  0  0  0  0  0
    5.2179    1.0174    0.0000 C   0  0  0  0  0  0  0  0  0  0  0  0
   -0.4979    0.1925    0.0000 O   0  0  0  0  0  0  0  0  0  0  0  0
   -1.2124   -0.2200    0.0000 C   0  0  0  0  0  0  0  0  0  0  0  0
   -0.4979   -1.4575    0.0000 O   0  0  0  0  0  0  0  0  0  0  0  0
   -2.8796    0.7038    0.0000 C   0  0  0  0  0  0  0  0  0  0  0  0
   -3.5941    0.2913    0.0000 C   0  0  0  0  0  0  0  0  0  0  0  0
   -3.5941   -0.5337    0.0000 C   0  0  0  0  0  0  0  0  0  0  0  0
   -2.8796   -0.9462    0.0000 C   0  0  0  0  0  0  0  0  0  0  0  0
   -2.1651   -0.5337    0.0000 C   0  0  0  0  0  0  0  0  0  0  0  0
   -2.1651    0.2913    0.0000 C   0  0  0  0  0  0  0  0  0  0  0  0
   -2.8796    1.5288    0.0000 C   0  0  0  0  0  0  0  0  0  0  0  0
    0.9311    3.4925    0.0000 C   0  0  0  0  0  0  0  0  0  0  0  0
    0.9508    4.3173    0.0000 O   0  0  0  0  0  0  0  0  0  0  0  0
   -0.9094    1.7581    0.0000 N   0  0  0  0  0  0  0  0  0  0  0  0
   -0.9094    2.5831    0.0000 C   0  0  0  0  0  0  0  0  0  0  0  0
   -0.1949    1.3456    0.0000 C   0  0  0  0  0  0  0  0  0  0  0  0
    0.0186    0.5487    0.0000 H   0  0  0  0  0  0  0  0  0  0  0  0
   -1.2868    3.3167    0.0000 H   0  0  0  0  0  0  0  0  0  0  0  0
    1.6455    1.4300    0.0000 H   0  0  0  0  0  0  0  0  0  0  0  0
   -1.4507   -0.9463    0.0000 O   0  0  0  0  0  0  0  0  0  0  0  0
   -2.8796   -1.7712    0.0000 O   0  0  0  0  0  0  0  0  0  0  0  0
   -2.1652   -2.1837    0.0000 C   0  0  0  0  0  0  0  0  0  0  0  0
   -4.3086   -0.9463    0.0000 C   0  0  0  0  0  0  0  0  0  0  0  0
   -1.6238    1.3456    0.0000 C   0  0  0  0  0  0  0  0  0  0  0  0
    1.9475    1.1280    0.0000 H   0  0  0  0  0  0  0  0  0  0  0  0
  2  3  1  0
  4  5  1  0
  5  6  2  0
  6  1  1  0
  3  7  1  0
  4  3  2  0
 10  4  1  0
  7  8  1  0
  8  9  1  0
  9 10  1  0
 10 12  1  1
 11 12  1  0
 14 13  1  6
 14 11  1  1
 16 14  1  0
 14 17  1  0
 15 16  1  0
 18 19  1  0
 19 15  1  0
 17 20  1  0
 18 17  2  0
 23 18  1  0
 20 21  2  0
 21 22  1  0
 22 23  2  0
  2 24  1  0
  1  2  2  0
  1 26  1  0
 24 25  1  0
 25 26  1  0
 13 27  2  0
 13 28  1  0
  7 29  1  1
 29 28  1  0
  7 30  1  0
  6 31  1  0
  5 32  1  0
 32 33  1  0
 33 34  2  0
 33 35  1  0
 21 36  1  0
 36 37  1  0
 22 38  1  0
 39 40  1  0
 39 44  2  0
 40 41  2  0
 41 42  1  0
 42 43  2  0
 43 44  1  0
 39 45  1  0
  8 46  1  0
 46 47  1  6
 48 49  1  0
 48 50  1  0
 45 49  1  0
 49 46  1  0
 44 50  1  0
 50  9  1  0
 50 51  1  6
 49 52  1  6
  9 53  1  6
 43 54  1  0
 42 55  1  0
 55 56  1  0
 41 57  1  0
 48 58  1  0
 10 59  1  6
M  END
> <chembl_id>
CHEMBL450449

> <chembl_pref_name>
TRABECTEDIN
