
     RDKit          2D

 12  9  0  0  0  0  0  0  0  0999 V2000
    7.3366   -6.6295    0.0000 Cl  0  0  0  0  0  0  0  0  0  0  0  0
    4.8533   -5.8084    0.0000 N   0  0  0  0  0  0  0  0  0  0  0  0
    7.0071   -5.3699    0.0000 N   0  0  0  0  0  0  0  0  0  0  0  0
    9.1950   -5.7353    0.0000 N   0  0  0  0  0  0  0  0  0  0  0  0
    2.6655   -5.4429    0.0000 N   0  0  0  0  0  0  0  0  0  0  0  0
    6.2908   -5.7889    0.0000 C   0  0  0  0  0  0  0  0  0  0  0  0
    5.5696   -5.3991    0.0000 C   0  0  0  0  0  0  0  0  0  0  0  0
    7.7380   -5.7646    0.0000 C   0  0  0  0  0  0  0  0  0  0  0  0
    4.1224   -5.4283    0.0000 C   0  0  0  0  0  0  0  0  0  0  0  0
    8.4640   -5.3406    0.0000 C   0  0  0  0  0  0  0  0  0  0  0  0
    3.4061   -5.8376    0.0000 C   0  0  0  0  0  0  0  0  0  0  0  0
    5.7304   -6.6855    0.0000 Cl  0  0  0  0  0  0  0  0  0  0  0  0
  3  6  1  0
  4 10  1  0
  5 11  1  0
  6  7  1  0
  7  2  1  0
  8  3  1  0
  9  2  1  0
 10  8  1  0
 11  9  1  0
M  END
> <chembl_id>
CHEMBL3989777

> <chembl_pref_name>
TRIENTINE HYDROCHLORIDE
