
     RDKit          2D

 32 34  0  0  0  0  0  0  0  0999 V2000
   -6.5213   -0.9019    0.0000 C   0  0  0  0  0  0  0  0  0  0  0  0
   -5.9492   -0.3074    0.0000 C   0  0  0  0  0  0  0  0  0  0  0  0
   -5.1484   -0.5056    0.0000 C   0  0  0  0  0  0  0  0  0  0  0  0
   -4.5764    0.0889    0.0000 N   0  0  0  0  0  0  0  0  0  0  0  0
   -3.7755   -0.1093    0.0000 S   0  0  0  0  0  0  0  0  0  0  0  0
   -3.9737   -0.9101    0.0000 O   0  0  0  0  0  0  0  0  0  0  0  0
   -3.5773    0.6916    0.0000 O   0  0  0  0  0  0  0  0  0  0  0  0
   -2.9747   -0.3074    0.0000 N   0  0  0  0  0  0  0  0  0  0  0  0
   -2.4026    0.2870    0.0000 C   0  0  0  0  0  0  0  0  0  0  0  0
   -2.6314    1.0797    0.0000 N   0  0  0  0  0  0  0  0  0  0  0  0
   -2.0594    1.6742    0.0000 C   0  0  0  0  0  0  0  0  0  0  0  0
   -1.2586    1.4760    0.0000 N   0  0  0  0  0  0  0  0  0  0  0  0
   -1.0297    0.6834    0.0000 C   0  0  0  0  0  0  0  0  0  0  0  0
   -1.6018    0.0889    0.0000 C   0  0  0  0  0  0  0  0  0  0  0  0
   -1.3730   -0.7037    0.0000 C   0  0  0  0  0  0  0  0  0  0  0  0
   -1.7162   -2.0909    0.0000 C   0  0  0  0  0  0  0  0  0  0  0  0
   -1.9450   -1.2982    0.0000 C   0  0  0  0  0  0  0  0  0  0  0  0
   -0.5721   -0.9019    0.0000 C   0  0  0  0  0  0  0  0  0  0  0  0
   -0.3433   -1.6945    0.0000 C   0  0  0  0  0  0  0  0  0  0  0  0
   -0.9153   -2.2890    0.0000 C   0  0  0  0  0  0  0  0  0  0  0  0
   -0.6865   -3.0817    0.0000 Br  0  0  0  0  0  0  0  0  0  0  0  0
   -0.2289    0.4852    0.0000 O   0  0  0  0  0  0  0  0  0  0  0  0
    0.3431    1.0797    0.0000 C   0  0  0  0  0  0  0  0  0  0  0  0
    1.1440    0.8815    0.0000 C   0  0  0  0  0  0  0  0  0  0  0  0
    1.7160    1.4760    0.0000 O   0  0  0  0  0  0  0  0  0  0  0  0
    2.5169    1.2778    0.0000 C   0  0  0  0  0  0  0  0  0  0  0  0
    2.7457    0.4852    0.0000 N   0  0  0  0  0  0  0  0  0  0  0  0
    3.0889    1.8723    0.0000 N   0  0  0  0  0  0  0  0  0  0  0  0
    3.8898    1.6742    0.0000 C   0  0  0  0  0  0  0  0  0  0  0  0
    4.1186    0.8815    0.0000 C   0  0  0  0  0  0  0  0  0  0  0  0
    3.5465    0.2870    0.0000 C   0  0  0  0  0  0  0  0  0  0  0  0
    4.9194    0.6834    0.0000 Br  0  0  0  0  0  0  0  0  0  0  0  0
  1  2  1  0
  2  3  1  0
  3  4  1  0
  4  5  1  0
  5  6  2  0
  5  7  2  0
  5  8  1  0
  8  9  1  0
  9 10  2  0
  9 14  1  0
 10 11  1  0
 11 12  2  0
 12 13  1  0
 13 14  2  0
 14 15  1  0
 17 15  2  0
 15 18  1  0
 16 17  1  0
 16 20  2  0
 18 19  2  0
 19 20  1  0
 20 21  1  0
 13 22  1  0
 22 23  1  0
 23 24  1  0
 24 25  1  0
 25 26  1  0
 27 26  1  0
 26 28  2  0
 27 31  2  0
 28 29  1  0
 29 30  2  0
 30 31  1  0
 30 32  1  0
M  END
> <chembl_id>
CHEMBL2103873

> <chembl_pref_name>
MACITENTAN
