
     RDKit          2D

 26 28  0  0  0  0  0  0  0  0999 V2000
    2.3667   -2.2167    0.0000 C   0  0  0  0  0  0  0  0  0  0  0  0
    2.3667   -2.9417    0.0000 C   0  0  0  0  0  0  0  0  0  0  0  0
    3.5792   -2.2167    0.0000 C   0  0  0  0  0  0  0  0  0  0  0  0
    4.1917   -1.8542    0.0000 C   0  0  0  0  0  0  0  0  0  0  0  0
    2.9792   -1.8542    0.0000 C   0  0  0  0  0  0  0  0  0  0  0  0
    2.9792   -3.2917    0.0000 C   0  0  0  0  0  0  0  0  0  0  0  0
    3.5792   -2.9417    0.0000 C   0  0  0  0  0  0  0  0  0  0  0  0
    1.7417   -3.2917    0.0000 C   0  0  0  0  0  0  0  0  0  0  0  0
    1.7417   -1.8542    0.0000 C   0  0  0  0  0  0  0  0  0  0  0  0
    6.6542   -3.2667    0.0000 C   0  0  0  0  0  0  0  0  0  0  0  0
    4.8042   -2.2167    0.0000 C   0  0  0  0  0  0  0  0  0  0  0  0
    6.0417   -2.9167    0.0000 C   0  0  0  0  0  0  0  0  0  0  0  0
    4.1917   -1.1417    0.0000 C   0  0  0  0  0  0  0  0  0  0  0  0
    1.1292   -2.2167    0.0000 C   0  0  0  0  0  0  0  0  0  0  0  0
    1.1292   -2.9417    0.0000 C   0  0  0  0  0  0  0  0  0  0  0  0
    6.6542   -3.9542    0.0000 O   0  0  0  0  0  0  0  0  0  0  0  0
    4.8042   -2.9167    0.0000 C   0  0  0  0  0  0  0  0  0  0  0  0
    5.4417   -1.8542    0.0000 C   0  0  0  0  0  0  0  0  0  0  0  0
    5.4417   -3.2917    0.0000 C   0  0  0  0  0  0  0  0  0  0  0  0
    6.0417   -2.2167    0.0000 C   0  0  0  0  0  0  0  0  0  0  0  0
    7.2667   -2.8792    0.0000 O   0  0  0  0  0  0  0  0  0  0  0  0
    4.1917   -3.3042    0.0000 C   0  0  0  0  0  0  0  0  0  0  0  0
    1.3917   -1.2458    0.0000 C   0  0  0  0  0  0  0  0  0  0  0  0
    1.3917   -3.9042    0.0000 C   0  0  0  0  0  0  0  0  0  0  0  0
    2.1000   -3.9042    0.0000 C   0  0  0  0  0  0  0  0  0  0  0  0
    2.1000   -1.2458    0.0000 C   0  0  0  0  0  0  0  0  0  0  0  0
  2  1  1  0
  3  5  1  0
  4  3  1  0
  5  1  2  0
  6  2  2  0
  7  3  2  0
  8  2  1  0
  9  1  1  0
 10 12  1  0
 11  4  1  0
 12 20  2  0
 13  4  2  0
 14  9  1  0
 15 14  1  0
 16 10  2  0
 17 11  1  0
 18 11  2  0
 19 17  2  0
 20 18  1  0
 21 10  1  0
 22  7  1  0
 23  9  1  0
 24  8  1  0
 25  8  1  0
 26  9  1  0
  8 15  1  0
  6  7  1  0
 19 12  1  0
M  END
> <chembl_id>
CHEMBL1023

> <chembl_pref_name>
BEXAROTENE
