
     RDKit          2D

 15 16  0  0  1  0  0  0  0  0999 V2000
    4.1638   -9.2577    0.0000 C   0  0  0  0  0  0  0  0  0  0  0  0
    4.7471   -9.8412    0.0000 C   0  0  0  0  0  0  0  0  0  0  0  0
    4.5336  -10.6381    0.0000 C   0  0  0  0  0  0  0  0  0  0  0  0
    5.1170  -11.2214    0.0000 O   0  0  0  0  0  0  0  0  0  0  0  0
    5.9139  -11.0079    0.0000 C   0  0  0  0  0  0  0  0  0  0  0  0
    6.1274  -10.2110    0.0000 C   0  0  0  0  0  0  0  0  0  0  0  0
    5.5440   -9.6277    0.0000 N   0  0  0  0  0  0  0  0  0  0  0  0
    5.7576   -8.8308    0.0000 C   0  0  0  0  0  0  0  0  0  0  0  0
    3.7367  -10.8515    0.0000 C   0  0  0  0  0  0  0  0  0  0  0  0
    3.1534  -10.2681    0.0000 C   0  0  0  0  0  0  0  0  0  0  0  0
    2.3565  -10.4817    0.0000 C   0  0  0  0  0  0  0  0  0  0  0  0
    2.1429  -11.2785    0.0000 C   0  0  0  0  0  0  0  0  0  0  0  0
    2.7262  -11.8619    0.0000 C   0  0  0  0  0  0  0  0  0  0  0  0
    3.5231  -11.6484    0.0000 C   0  0  0  0  0  0  0  0  0  0  0  0
    3.8191  -10.2255    0.0000 H   0  0  0  0  0  0  0  0  0  0  0  0
  2  1  1  6
  2  3  1  0
  3  4  1  0
  4  5  1  0
  5  6  1  0
  6  7  1  0
  2  7  1  0
  7  8  1  0
  3  9  1  0
  9 10  2  0
 10 11  1  0
 11 12  2  0
 12 13  1  0
 13 14  2  0
  9 14  1  0
  3 15  1  6
M  END
> <chembl_id>
CHEMBL1615439

> <chembl_pref_name>
PHENDIMETRAZINE
