
     RDKit          2D

 38 41  0  0  0  0  0  0  0  0999 V2000
   -4.2839    0.7634    0.0000 C   0  0  0  0  0  0  0  0  0  0  0  0
   -3.5694    1.1755    0.0000 C   0  0  0  0  0  0  0  0  0  0  0  0
   -2.8577    0.7639    0.0000 C   0  0  0  0  0  0  0  0  0  0  0  0
   -2.8577   -0.0612    0.0000 C   0  0  0  0  0  0  0  0  0  0  0  0
   -3.5677   -0.4728    0.0000 C   0  0  0  0  0  0  0  0  0  0  0  0
   -4.2839   -0.0649    0.0000 C   0  0  0  0  0  0  0  0  0  0  0  0
   -4.9985    1.1759    0.0000 Cl  0  0  0  0  0  0  0  0  0  0  0  0
   -3.6560   -1.2932    0.0000 N   0  0  0  0  0  0  0  0  0  0  0  0
   -2.9899   -1.7799    0.0000 C   0  0  0  0  0  0  0  0  0  0  0  0
   -3.2623   -2.5768    0.0000 C   0  0  0  0  0  0  0  0  0  0  0  0
   -4.0676   -2.5713    0.0000 C   0  0  0  0  0  0  0  0  0  0  0  0
   -4.3164   -1.7803    0.0000 N   0  0  0  0  0  0  0  0  0  0  0  0
   -4.5544   -3.2374    0.0000 C   0  0  0  0  0  0  0  0  0  0  0  0
   -2.1431   -0.4736    0.0000 C   0  0  0  0  0  0  0  0  0  0  0  0
   -1.4286   -0.0612    0.0000 O   0  0  0  0  0  0  0  0  0  0  0  0
   -2.1431   -1.2988    0.0000 C   0  0  0  0  0  0  0  0  0  0  0  0
   -0.7140   -0.4736    0.0000 C   0  0  0  0  0  0  0  0  0  0  0  0
    0.0005   -0.0613    0.0000 C   0  0  0  0  0  0  0  0  0  0  0  0
    0.7125   -0.4732    0.0000 C   0  0  0  0  0  0  0  0  0  0  0  0
    0.7125   -1.2986    0.0000 N   0  0  0  0  0  0  0  0  0  0  0  0
    0.0023   -1.7105    0.0000 C   0  0  0  0  0  0  0  0  0  0  0  0
   -0.7140   -1.3023    0.0000 N   0  0  0  0  0  0  0  0  0  0  0  0
    1.4271   -0.0608    0.0000 C   0  0  0  0  0  0  0  0  0  0  0  0
    1.4274    0.7643    0.0000 C   0  0  0  0  0  0  0  0  0  0  0  0
    2.1401    1.1749    0.0000 C   0  0  0  0  0  0  0  0  0  0  0  0
    2.8549    0.7622    0.0000 C   0  0  0  0  0  0  0  0  0  0  0  0
    2.8563   -0.0587    0.0000 C   0  0  0  0  0  0  0  0  0  0  0  0
    2.1447   -0.4750    0.0000 C   0  0  0  0  0  0  0  0  0  0  0  0
    3.5694    1.1748    0.0000 C   0  0  0  0  0  0  0  0  0  0  0  0
    3.5694    1.9998    0.0000 C   0  0  0  0  0  0  0  0  0  0  0  0
    4.2839    2.4124    0.0000 C   0  0  0  0  0  0  0  0  0  0  0  0
    2.8549    2.4124    0.0000 N   0  0  0  0  0  0  0  0  0  0  0  0
    4.2839    3.2374    0.0000 O   0  0  0  0  0  0  0  0  0  0  0  0
    4.9985    1.9998    0.0000 O   0  0  0  0  0  0  0  0  0  0  0  0
    0.0023   -2.5356    0.0000 N   0  0  0  0  0  0  0  0  0  0  0  0
   -1.4286   -1.7113    0.0000 F   0  0  0  0  0  0  0  0  0  0  0  0
   -2.8577   -1.7113    0.0000 F   0  0  0  0  0  0  0  0  0  0  0  0
   -2.1431   -2.1238    0.0000 F   0  0  0  0  0  0  0  0  0  0  0  0
  2  1  2  0
  3  2  1  0
  4  3  2  0
  5  4  1  0
  1  6  1  0
  6  5  2  0
  1  7  1  0
  8  5  1  0
  8  9  1  0
  9 10  2  0
 10 11  1  0
  8 12  1  0
 12 11  2  0
 11 13  1  0
  4 14  1  0
 14 15  1  0
 14 16  1  1
 15 17  1  0
 18 17  2  0
 19 18  1  0
 20 19  2  0
 21 20  1  0
 22 21  2  0
 17 22  1  0
 23 19  1  0
 24 23  2  0
 25 24  1  0
 26 25  2  0
 27 26  1  0
 23 28  1  0
 28 27  2  0
 26 29  1  0
 30 29  1  6
 30 31  1  0
 30 32  1  0
 31 33  2  0
 31 34  1  0
 21 35  1  0
 16 36  1  0
 16 37  1  0
 16 38  1  0
M  END
> <chembl_id>
CHEMBL2103855

> <chembl_pref_name>
TELOTRISTAT
