
     RDKit          2D

 90 95  0  0  0  0  0  0  0  0999 V2000
   -3.5784    5.6320    0.0000 Na  0  0  0  0  0 15  0  0  0  0  0  0
   -1.5214   -1.3661    0.0000 N   0  0  0  0  0  0  0  0  0  0  0  0
    3.5021    0.6055    0.0000 N   0  0  0  0  0  0  0  0  0  0  0  0
   -1.2782   -2.1545    0.0000 C   0  0  0  0  0  0  0  0  0  0  0  0
   -1.5214   -0.5411    0.0000 C   0  0  0  0  0  0  0  0  0  0  0  0
    3.8601   -0.1378    0.0000 C   0  0  0  0  0  0  0  0  0  0  0  0
    0.5995    1.7447    0.0000 C   0  0  0  0  0  0  0  0  0  0  0  0
   -1.2782    0.2472    0.0000 C   0  0  0  0  0  0  0  0  0  0  0  0
   -0.8135   -2.8361    0.0000 C   0  0  0  0  0  0  0  0  0  0  0  0
    3.9830   -0.9536    0.0000 C   0  0  0  0  0  0  0  0  0  0  0  0
   -0.8135    0.9289    0.0000 N   0  0  0  0  0  0  0  0  0  0  0  0
    1.4222    1.8063    0.0000 N   0  0  0  0  0  0  0  0  0  0  0  0
    3.8601   -1.7694    0.0000 N   0  0  0  0  0  0  0  0  0  0  0  0
   -0.1685    1.4433    0.0000 C   0  0  0  0  0  0  0  0  0  0  0  0
   -0.1685   -3.3505    0.0000 N   0  0  0  0  0  0  0  0  0  0  0  0
   -1.1067    6.0094    0.0000 S   0  0  0  0  0  0  0  0  0  0  0  0
    2.2265    1.6227    0.0000 C   0  0  0  0  0  0  0  0  0  0  0  0
    2.9410    1.2102    0.0000 C   0  0  0  0  0  0  0  0  0  0  0  0
    3.5021   -2.5127    0.0000 C   0  0  0  0  0  0  0  0  0  0  0  0
    4.9920   -7.9058    0.0000 N   0  0  0  0  0  0  0  0  0  0  0  0
    0.4159    2.5490    0.0000 C   0  0  0  0  0  0  0  0  0  0  0  0
    6.0356   -7.0735    0.0000 C   0  0  0  0  0  0  0  0  0  0  0  0
   -2.3463   -1.3538    0.0000 C   0  0  0  0  0  0  0  0  0  0  0  0
    6.3255   -7.8459    0.0000 C   0  0  0  0  0  0  0  0  0  0  0  0
    5.2115   -7.1105    0.0000 C   0  0  0  0  0  0  0  0  0  0  0  0
    5.6805   -8.3603    0.0000 O   0  0  0  0  0  0  0  0  0  0  0  0
   -1.9528   -2.6293    0.0000 C   0  0  0  0  0  0  0  0  0  0  0  0
    2.9410   -3.1175    0.0000 C   0  0  0  0  0  0  0  0  0  0  0  0
   -0.1348    4.9619    0.0000 C   0  0  0  0  0  0  0  0  0  0  0  0
    3.1540   -4.5304    0.0000 C   0  0  0  0  0  0  0  0  0  0  0  0
    0.5995   -3.6519    0.0000 C   0  0  0  0  0  0  0  0  0  0  0  0
   -2.6129   -2.1345    0.0000 C   0  0  0  0  0  0  0  0  0  0  0  0
    3.4554   -3.7625    0.0000 N   0  0  0  0  0  0  0  0  0  0  0  0
   -0.9232    5.2051    0.0000 O   0  0  0  0  0  0  0  0  0  0  0  0
    1.0207    3.1101    0.0000 C   0  0  0  0  0  0  0  0  0  0  0  0
    0.8371    3.9144    0.0000 C   0  0  0  0  0  0  0  0  0  0  0  0
    2.2265   -3.5300    0.0000 C   0  0  0  0  0  0  0  0  0  0  0  0
    0.0488    4.1576    0.0000 C   0  0  0  0  0  0  0  0  0  0  0  0
    4.2507    0.9523    0.0000 C   0  0  0  0  0  0  0  0  0  0  0  0
    3.3427    1.9308    0.0000 C   0  0  0  0  0  0  0  0  0  0  0  0
    1.4222   -3.7135    0.0000 C   0  0  0  0  0  0  0  0  0  0  0  0
    4.6484    0.1053    0.0000 O   0  0  0  0  0  0  0  0  0  0  0  0
   -2.3372   -0.4182    0.0000 O   0  0  0  0  0  0  0  0  0  0  0  0
   -1.2903    6.8137    0.0000 O   0  0  0  0  0  0  0  0  0  0  0  0
   -0.3024    6.1930    0.0000 O   0  0  0  0  0  0  0  0  0  0  0  0
    7.1208   -8.0654    0.0000 C   0  0  0  0  0  0  0  0  0  0  0  0
    3.6683   -5.1755    0.0000 C   0  0  0  0  0  0  0  0  0  0  0  0
   -1.4182   -3.3973    0.0000 O   0  0  0  0  0  0  0  0  0  0  0  0
    4.6971   -6.4655    0.0000 C   0  0  0  0  0  0  0  0  0  0  0  0
    0.4700    5.5231    0.0000 C   0  0  0  0  0  0  0  0  0  0  0  0
   -0.5810    2.1577    0.0000 O   0  0  0  0  0  0  0  0  0  0  0  0
    2.5279    2.3907    0.0000 O   0  0  0  0  0  0  0  0  0  0  0  0
    4.1838   -2.9774    0.0000 O   0  0  0  0  0  0  0  0  0  0  0  0
    2.3382   -4.6534    0.0000 O   0  0  0  0  0  0  0  0  0  0  0  0
    4.8080   -0.9536    0.0000 C   0  0  0  0  0  0  0  0  0  0  0  0
    4.1522    1.7714    0.0000 C   0  0  0  0  0  0  0  0  0  0  0  0
    1.4419    4.4756    0.0000 C   0  0  0  0  0  0  0  0  0  0  0  0
   -1.9111    5.8258    0.0000 O   0  0  0  0  0  0  0  0  0  0  0  0
    1.2583    5.2799    0.0000 C   0  0  0  0  0  0  0  0  0  0  0  0
    3.3669   -5.9434    0.0000 C   0  0  0  0  0  0  0  0  0  0  0  0
    4.4841   -5.0525    0.0000 C   0  0  0  0  0  0  0  0  0  0  0  0
    4.9985   -5.6975    0.0000 C   0  0  0  0  0  0  0  0  0  0  0  0
    3.8813   -6.5884    0.0000 C   0  0  0  0  0  0  0  0  0  0  0  0
    7.3284   -8.8638    0.0000 C   0  0  0  0  0  0  0  0  0  0  0  0
    7.7085   -7.4864    0.0000 C   0  0  0  0  0  0  0  0  0  0  0  0
   -0.3724    2.7922    0.0000 O   0  0  0  0  0  0  0  0  0  0  0  0
   -1.9652   -3.4543    0.0000 O   0  0  0  0  0  0  0  0  0  0  0  0
    0.4159   -4.4562    0.0000 O   0  0  0  0  0  0  0  0  0  0  0  0
    1.8090    2.8669    0.0000 O   0  0  0  0  0  0  0  0  0  0  0  0
    8.7113   -8.5043    0.0000 C   0  0  0  0  0  0  0  0  0  0  0  0
    1.4838   -4.5362    0.0000 O   0  0  0  0  0  0  0  0  0  0  0  0
    8.1236   -9.0833    0.0000 C   0  0  0  0  0  0  0  0  0  0  0  0
    8.5038   -7.7059    0.0000 C   0  0  0  0  0  0  0  0  0  0  0  0
    0.2864    6.3274    0.0000 O   0  0  0  0  0  0  0  0  0  0  0  0
    4.7570    2.3325    0.0000 O   0  0  0  0  0  0  0  0  0  0  0  0
    5.2205   -1.6681    0.0000 O   0  0  0  0  0  0  0  0  0  0  0  0
   -3.4013   -2.3777    0.0000 C   0  0  0  0  0  0  0  0  0  0  0  0
    9.5066   -8.7238    0.0000 O   0  0  0  0  0  0  0  0  0  0  0  0
    5.2205   -0.2391    0.0000 C   0  0  0  0  0  0  0  0  0  0  0  0
   10.0943   -8.1448    0.0000 C   0  0  0  0  0  0  0  0  0  0  0  0
   10.8896   -8.3643    0.0000 C   0  0  0  0  0  0  0  0  0  0  0  0
   12.2726   -8.0048    0.0000 C   0  0  0  0  0  0  0  0  0  0  0  0
   11.4773   -7.7853    0.0000 C   0  0  0  0  0  0  0  0  0  0  0  0
   12.8603   -7.4258    0.0000 C   0  0  0  0  0  0  0  0  0  0  0  0
   -2.0215    0.6052    0.0000 C   0  0  0  0  0  0  0  0  0  0  0  0
   -2.7360    0.1927    0.0000 C   0  0  0  0  0  0  0  0  0  0  0  0
   -2.0215    1.4302    0.0000 O   0  0  0  0  0  0  0  0  0  0  0  0
   -3.4505    0.6052    0.0000 C   0  0  0  0  0  0  0  0  0  0  0  0
   -4.1649    0.1927    0.0000 N   0  0  0  0  0  0  0  0  0  0  0  0
   -3.4505    1.4302    0.0000 O   0  0  0  0  0  0  0  0  0  0  0  0
  3 18  1  0
  4  2  1  0
  5  2  1  0
  6  3  1  0
  7 14  1  0
  8  5  1  0
  4  9  1  6
 10 13  1  0
 11  8  1  0
  7 12  1  6
 13 19  1  0
 14 11  1  0
 15  9  1  0
 16 34  1  0
 17 12  1  0
 18 17  1  6
 19 28  1  0
 20 25  2  0
  7 21  1  0
 22 25  1  0
 23  2  1  0
 24 22  2  0
 25 49  1  0
 26 20  1  0
 27  4  1  0
 28 37  1  0
 29 38  1  0
 30 33  1  0
 31 15  1  0
 32 23  1  0
 28 33  1  1
 34 29  1  0
 35 21  1  0
 36 35  1  0
 37 41  1  0
 38 36  2  0
 39  3  1  0
 18 40  1  0
 41 31  1  0
 42  6  2  0
 43  5  2  0
 44 16  2  0
 45 16  2  0
 46 24  1  0
 47 30  1  0
 48  9  2  0
 49 62  2  0
 50 59  1  0
 51 14  2  0
 52 17  2  0
 53 19  2  0
 54 30  2  0
 10 55  1  6
 56 40  1  0
 57 36  1  0
 58 16  1  0
 59 57  2  0
 60 47  1  0
 61 47  2  0
 62 61  1  0
 63 60  2  0
 64 46  1  0
 65 46  2  0
 21 66  1  6
 27 67  1  1
 31 68  1  1
 35 69  1  6
 70 73  2  0
 41 71  1  1
 72 64  2  0
 73 65  1  0
 74 50  1  0
 56 75  1  1
 55 76  1  1
 32 77  1  1
 78 70  1  0
 79 55  1  0
 80 78  1  0
 81 80  1  0
 82 83  1  0
 83 81  1  0
 84 82  1  0
 27 32  1  0
 56 39  1  0
 10  6  1  0
 29 50  2  0
 63 49  1  0
 24 26  1  0
 72 70  1  0
  8 85  1  6
 85 86  1  0
 85 87  1  1
 86 88  1  0
 88 89  1  0
 88 90  2  0
M  CHG  2   1   1  58  -1
M  END
> <chembl_id>
CHEMBL1237070

> <chembl_pref_name>
MICAFUNGIN SODIUM
