
     RDKit          2D

 26 27  0  0  0  0  0  0  0  0999 V2000
    4.2417   -7.8125    0.0000 O   0  0  0  0  0  0  0  0  0  0  0  0
    5.6542   -6.3417    0.0000 N   0  0  0  0  0  0  0  0  0  0  0  0
    4.9542   -6.3417    0.0000 C   0  0  0  0  0  0  0  0  0  0  0  0
    4.9542   -5.6250    0.0000 C   0  0  0  0  0  0  0  0  0  0  0  0
    5.6542   -5.6250    0.0000 C   0  0  0  0  0  0  0  0  0  0  0  0
    6.2625   -6.6917    0.0000 C   0  0  0  0  0  0  0  0  0  0  0  0
    4.3292   -5.2667    0.0000 N   0  0  0  0  0  0  0  0  0  0  0  0
    6.2625   -5.2750    0.0000 S   0  0  0  0  0  0  0  0  0  0  0  0
    3.7292   -5.6250    0.0000 C   0  0  0  0  0  0  0  0  0  0  0  0
    6.8792   -6.3417    0.0000 C   0  0  0  0  0  0  0  0  0  0  0  0
    6.2625   -7.4042    0.0000 C   0  0  0  0  0  0  0  0  0  0  0  0
    3.1125   -5.2750    0.0000 C   0  0  0  0  0  0  0  0  0  0  0  0
    6.8792   -5.6250    0.0000 C   0  0  0  0  0  0  0  0  0  0  0  0
    4.4500   -6.8417    0.0000 O   0  0  0  0  0  0  0  0  0  0  0  0
    3.7417   -6.3375    0.0000 O   0  0  0  0  0  0  0  0  0  0  0  0
    5.6542   -7.7667    0.0000 O   0  0  0  0  0  0  0  0  0  0  0  0
    2.5042   -5.6417    0.0000 C   0  0  0  0  0  0  0  0  0  0  0  0
    3.1125   -4.5625    0.0000 N   0  0  0  0  0  0  0  0  0  0  0  0
    6.8792   -7.7667    0.0000 O   0  0  0  0  0  0  0  0  0  0  0  0
    7.5000   -6.6917    0.0000 C   0  0  0  0  0  0  0  0  0  0  0  0
    2.5000   -6.3542    0.0000 C   0  0  0  0  0  0  0  0  0  0  0  0
    1.8792   -5.2917    0.0000 C   0  0  0  0  0  0  0  0  0  0  0  0
    1.8875   -6.7125    0.0000 C   0  0  0  0  0  0  0  0  0  0  0  0
    1.2542   -5.6500    0.0000 C   0  0  0  0  0  0  0  0  0  0  0  0
    1.2625   -6.3625    0.0000 C   0  0  0  0  0  0  0  0  0  0  0  0
    5.6542   -4.9167    0.0000 H   0  0  0  0  0  0  0  0  0  0  0  0
  3  2  1  0
  4  5  1  0
  5  2  1  0
  6  2  1  0
  4  7  1  1
  8  5  1  0
  9  7  1  0
 10  6  2  0
 11  6  1  0
 12  9  1  0
 13 10  1  0
 14  3  2  0
 15  9  2  0
 16 11  2  0
 17 12  1  0
 12 18  1  1
 19 11  1  0
 20 10  1  0
 21 17  1  0
 22 17  2  0
 23 21  2  0
 24 22  1  0
 25 23  1  0
  5 26  1  6
  4  3  1  0
 13  8  1  0
 25 24  2  0
M  END
> <chembl_id>
CHEMBL1200544

> <chembl_pref_name>
CEPHALEXIN
