
     RDKit          2D

 28 32  0  0  1  0  0  0  0  0999 V2000
    4.3667   -5.8917    0.0000 C   0  0  0  0  0  0  0  0  0  0  0  0
    3.7542   -6.2417    0.0000 C   0  0  0  0  0  0  0  0  0  0  0  0
    4.3667   -5.1917    0.0000 C   0  0  0  0  0  0  0  0  0  0  0  0
    4.3667   -6.6042    0.0000 O   0  0  0  0  0  0  0  0  0  0  0  0
    3.1417   -5.8917    0.0000 C   0  0  0  0  0  0  0  0  0  0  0  0
    3.1417   -5.1917    0.0000 C   0  0  0  0  0  0  0  0  0  0  0  0
    4.9875   -4.8542    0.0000 C   0  0  0  0  0  0  0  0  0  0  0  0
    6.2042   -4.1625    0.0000 C   0  0  0  0  0  0  0  0  0  0  0  0
    6.2042   -4.8542    0.0000 C   0  0  0  0  0  0  0  0  0  0  0  0
    3.7542   -4.8542    0.0000 C   0  0  0  0  0  0  0  0  0  0  0  0
    5.5917   -5.1917    0.0000 C   0  0  0  0  0  0  0  0  0  0  0  0
    4.9875   -6.2417    0.0000 C   0  0  0  0  0  0  0  0  0  0  0  0
    2.5250   -4.8417    0.0000 C   0  0  0  0  0  0  0  0  0  0  0  0
    5.5917   -3.8042    0.0000 C   0  0  0  0  0  0  0  0  0  0  0  0
    1.9167   -4.4875    0.0000 N   0  0  0  0  0  0  0  0  0  0  0  0
    4.9875   -4.1625    0.0000 C   0  0  0  0  0  0  0  0  0  0  0  0
    5.5917   -5.8917    0.0000 C   0  0  0  0  0  0  0  0  0  0  0  0
    6.9667   -5.1042    0.0000 C   0  0  0  0  0  0  0  0  0  0  0  0
    6.9292   -3.8792    0.0000 C   0  0  0  0  0  0  0  0  0  0  0  0
    7.4167   -4.5042    0.0000 C   0  0  0  0  0  0  0  0  0  0  0  0
    2.5625   -6.1875    0.0000 O   0  0  0  0  0  0  0  0  0  0  0  0
    4.3667   -4.5042    0.0000 C   0  0  0  0  0  0  0  0  0  0  0  0
    6.2042   -3.4542    0.0000 C   0  0  0  0  0  0  0  0  0  0  0  0
    6.9292   -3.0417    0.0000 O   0  0  0  0  0  0  0  0  0  0  0  0
    6.4527   -5.7003    0.0000 H   0  0  0  0  0  0  0  0  0  0  0  0
    6.2975   -5.8498    0.0000 H   0  0  0  0  0  0  0  0  0  0  0  0
    4.1280   -4.3431    0.0000 H   0  0  0  0  0  0  0  0  0  0  0  0
    3.2515   -7.1061    0.0000 H   0  0  0  0  0  0  0  0  0  0  0  0
  2  1  1  0
  3  1  1  0
  1  4  1  6
  5  2  1  0
  6 10  1  0
  7  3  1  0
  8  9  1  0
  9 11  1  0
 10  3  1  0
 11 17  1  0
 12  1  1  0
 13  6  1  0
 14 16  1  0
 15 13  3  0
 16  7  1  0
 17 12  1  0
 18  9  1  0
 19  8  1  0
 20 18  1  0
 21  5  1  0
  3 22  1  1
  8 23  1  1
 19 24  1  1
  2  4  1  0
 11  7  1  0
  6  5  2  0
  8 14  1  0
 20 19  1  0
 11 25  1  1
  9 26  1  6
  7 27  1  6
  2 28  1  1
M  END
> <chembl_id>
CHEMBL1200907

> <chembl_pref_name>
TRILOSTANE
