
     RDKit          2D

 93 92  0  0  0  0  0  0  0  0999 V2000
    4.3380   -1.0602    0.0000 C   0  0  0  0  0  0  0  0  0  0  0  0
    5.7018   -2.3220    0.0000 C   0  0  0  0  0  0  0  0  0  0  0  0
    5.7018   -3.7441    0.0000 C   0  0  0  0  0  0  0  0  0  0  0  0
    3.9303   -1.7688    0.0000 C   0  0  0  0  0  0  0  0  0  0  0  0
    5.2892   -3.0354    0.0000 C   0  0  0  0  0  0  0  0  0  0  0  0
    3.1053   -1.7688    0.0000 C   0  0  0  0  0  0  0  0  0  0  0  0
    3.9303   -0.3468    0.0000 O   0  0  0  0  0  0  0  0  0  0  0  0
    5.2941   -1.6038    0.0000 O   0  0  0  0  0  0  0  0  0  0  0  0
    4.5807   -4.8845    0.0000 C   0  0  0  0  0  0  0  0  0  0  0  0
    2.6880   -1.0602    0.0000 C   0  0  0  0  0  0  0  0  0  0  0  0
    5.2941   -4.4623    0.0000 O   0  0  0  0  0  0  0  0  0  0  0  0
    4.1730   -4.1711    0.0000 O   0  0  0  0  0  0  0  0  0  0  0  0
    3.1053   -0.3468    0.0000 C   0  0  0  0  0  0  0  0  0  0  0  0
    6.5317   -3.7441    0.0000 C   0  0  0  0  0  0  0  0  0  0  0  0
    6.5317   -2.3220    0.0000 C   0  0  0  0  0  0  0  0  0  0  0  0
    6.9393   -3.0354    0.0000 C   0  0  0  0  0  0  0  0  0  0  0  0
    3.3431   -4.1711    0.0000 C   0  0  0  0  0  0  0  0  0  0  0  0
    3.3431   -5.5931    0.0000 C   0  0  0  0  0  0  0  0  0  0  0  0
    4.1730   -5.5931    0.0000 C   0  0  0  0  0  0  0  0  0  0  0  0
    2.9306   -4.8845    0.0000 C   0  0  0  0  0  0  0  0  0  0  0  0
    2.6927   -2.4871    0.0000 N   0  0  0  0  0  0  0  0  0  0  0  0
    4.3428   -2.4871    0.0000 O   0  0  0  0  0  0  0  0  0  0  0  0
    4.4642   -3.0354    0.0000 O   0  0  0  0  0  0  0  0  0  0  0  0
    6.9441   -1.6086    0.0000 N   0  0  0  0  0  0  0  0  0  0  0  0
    6.9393   -4.4623    0.0000 N   0  0  0  0  0  0  0  0  0  0  0  0
    1.8628   -1.0602    0.0000 O   0  0  0  0  0  0  0  0  0  0  0  0
    4.5807   -6.3113    0.0000 N   0  0  0  0  0  0  0  0  0  0  0  0
    2.1056   -4.8845    0.0000 O   0  0  0  0  0  0  0  0  0  0  0  0
    2.6927    0.3715    0.0000 C   0  0  0  0  0  0  0  0  0  0  0  0
    2.1103   -3.4529    0.0000 N   0  0  0  0  0  0  0  0  0  0  0  0
    2.9355   -3.4529    0.0000 C   0  0  0  0  0  0  0  0  0  0  0  0
    1.8677    0.3715    0.0000 O   0  0  0  0  0  0  0  0  0  0  0  0
    5.2941   -5.2970    0.0000 H   0  0  0  0  0  0  0  0  0  0  0  0
    5.0466   -0.6429    0.0000 H   0  0  0  0  0  0  0  0  0  0  0  0
   -1.0969   -6.0422    0.0000 C   0  0  0  0  0  0  0  0  0  0  0  0
    0.2670   -7.3040    0.0000 C   0  0  0  0  0  0  0  0  0  0  0  0
    0.2670   -8.7260    0.0000 C   0  0  0  0  0  0  0  0  0  0  0  0
   -1.5045   -6.7507    0.0000 C   0  0  0  0  0  0  0  0  0  0  0  0
   -0.1456   -8.0174    0.0000 C   0  0  0  0  0  0  0  0  0  0  0  0
   -2.3295   -6.7507    0.0000 C   0  0  0  0  0  0  0  0  0  0  0  0
   -1.5045   -5.3288    0.0000 O   0  0  0  0  0  0  0  0  0  0  0  0
   -0.1407   -6.5858    0.0000 O   0  0  0  0  0  0  0  0  0  0  0  0
   -0.8541   -9.8665    0.0000 C   0  0  0  0  0  0  0  0  0  0  0  0
   -2.7469   -6.0422    0.0000 C   0  0  0  0  0  0  0  0  0  0  0  0
   -0.1407   -9.4442    0.0000 O   0  0  0  0  0  0  0  0  0  0  0  0
   -1.2618   -9.1530    0.0000 O   0  0  0  0  0  0  0  0  0  0  0  0
   -2.3295   -5.3288    0.0000 C   0  0  0  0  0  0  0  0  0  0  0  0
    1.0969   -8.7260    0.0000 C   0  0  0  0  0  0  0  0  0  0  0  0
    1.0969   -7.3040    0.0000 C   0  0  0  0  0  0  0  0  0  0  0  0
    1.5045   -8.0174    0.0000 C   0  0  0  0  0  0  0  0  0  0  0  0
   -2.0917   -9.1530    0.0000 C   0  0  0  0  0  0  0  0  0  0  0  0
   -2.0917  -10.5751    0.0000 C   0  0  0  0  0  0  0  0  0  0  0  0
   -1.2618  -10.5751    0.0000 C   0  0  0  0  0  0  0  0  0  0  0  0
   -2.5042   -9.8665    0.0000 C   0  0  0  0  0  0  0  0  0  0  0  0
   -2.7421   -7.4690    0.0000 N   0  0  0  0  0  0  0  0  0  0  0  0
   -1.0920   -7.4690    0.0000 O   0  0  0  0  0  0  0  0  0  0  0  0
   -0.9706   -8.0174    0.0000 O   0  0  0  0  0  0  0  0  0  0  0  0
    1.5093   -6.5906    0.0000 N   0  0  0  0  0  0  0  0  0  0  0  0
    1.5045   -9.4442    0.0000 N   0  0  0  0  0  0  0  0  0  0  0  0
   -3.5720   -6.0422    0.0000 O   0  0  0  0  0  0  0  0  0  0  0  0
   -0.8541  -11.2933    0.0000 N   0  0  0  0  0  0  0  0  0  0  0  0
   -3.3292   -9.8665    0.0000 O   0  0  0  0  0  0  0  0  0  0  0  0
   -2.7421   -4.6105    0.0000 C   0  0  0  0  0  0  0  0  0  0  0  0
   -3.3245   -8.4348    0.0000 N   0  0  0  0  0  0  0  0  0  0  0  0
   -2.4993   -8.4348    0.0000 C   0  0  0  0  0  0  0  0  0  0  0  0
   -3.5671   -4.6105    0.0000 O   0  0  0  0  0  0  0  0  0  0  0  0
   -0.1407  -10.2790    0.0000 H   0  0  0  0  0  0  0  0  0  0  0  0
   -0.3882   -5.6249    0.0000 H   0  0  0  0  0  0  0  0  0  0  0  0
    3.0526   -8.3038    0.0000 S   0  0  0  0  0  0  0  0  0  0  0  0
    3.4555   -7.5758    0.0000 O   0  0  0  0  0  0  0  0  0  0  0  0
    2.6304   -7.5758    0.0000 O   0  0  0  0  0  0  0  0  0  0  0  0
    2.3344   -8.7115    0.0000 O   0  0  0  0  0  0  0  0  0  0  0  0
    3.7660   -8.7115    0.0000 O   0  0  0  0  0  0  0  0  0  0  0  0
    3.5405  -10.0924    0.0000 S   0  0  0  0  0  0  0  0  0  0  0  0
    3.9434   -9.3644    0.0000 O   0  0  0  0  0  0  0  0  0  0  0  0
    3.1183   -9.3644    0.0000 O   0  0  0  0  0  0  0  0  0  0  0  0
    2.8223  -10.5001    0.0000 O   0  0  0  0  0  0  0  0  0  0  0  0
    4.2540  -10.5001    0.0000 O   0  0  0  0  0  0  0  0  0  0  0  0
    3.2459  -12.2085    0.0000 S   0  0  0  0  0  0  0  0  0  0  0  0
    3.6488  -11.4805    0.0000 O   0  0  0  0  0  0  0  0  0  0  0  0
    2.8237  -11.4805    0.0000 O   0  0  0  0  0  0  0  0  0  0  0  0
    2.5277  -12.6161    0.0000 O   0  0  0  0  0  0  0  0  0  0  0  0
    3.9593  -12.6161    0.0000 O   0  0  0  0  0  0  0  0  0  0  0  0
    0.5941  -12.8246    0.0000 S   0  0  0  0  0  0  0  0  0  0  0  0
    0.9970  -12.0966    0.0000 O   0  0  0  0  0  0  0  0  0  0  0  0
    0.1719  -12.0966    0.0000 O   0  0  0  0  0  0  0  0  0  0  0  0
   -0.1241  -13.2322    0.0000 O   0  0  0  0  0  0  0  0  0  0  0  0
    1.3075  -13.2322    0.0000 O   0  0  0  0  0  0  0  0  0  0  0  0
   -2.4327  -12.7710    0.0000 S   0  0  0  0  0  0  0  0  0  0  0  0
   -2.0298  -12.0430    0.0000 O   0  0  0  0  0  0  0  0  0  0  0  0
   -2.8549  -12.0430    0.0000 O   0  0  0  0  0  0  0  0  0  0  0  0
   -3.1509  -13.1786    0.0000 O   0  0  0  0  0  0  0  0  0  0  0  0
   -1.7193  -13.1786    0.0000 O   0  0  0  0  0  0  0  0  0  0  0  0
  2  8  1  1
  3  5  1  0
  4  1  1  0
  5  2  1  0
  6  4  1  0
  7  1  1  0
  8  1  1  0
  9 11  1  0
 10 13  1  0
  3 11  1  1
 12  9  1  0
 13  7  1  0
 14  3  1  0
 15  2  1  0
 16 15  1  0
 17 12  1  0
 18 19  1  0
 19  9  1  0
 20 17  1  0
  6 21  1  1
  4 22  1  6
  5 23  1  6
 15 24  1  6
 14 25  1  6
 10 26  1  6
 19 27  1  6
 20 28  1  6
 13 29  1  1
 30 31  1  0
 17 31  1  1
 32 29  1  0
  9 33  1  1
  1 34  1  1
 10  6  1  0
 16 14  1  0
 20 18  1  0
 36 42  1  1
 37 39  1  0
 38 35  1  0
 39 36  1  0
 40 38  1  0
 41 35  1  0
 42 35  1  0
 43 45  1  0
 44 47  1  0
 37 45  1  1
 46 43  1  0
 47 41  1  0
 48 37  1  0
 49 36  1  0
 50 49  1  0
 51 46  1  0
 52 53  1  0
 53 43  1  0
 54 51  1  0
 40 55  1  1
 38 56  1  6
 39 57  1  6
 49 58  1  6
 48 59  1  6
 44 60  1  6
 53 61  1  6
 54 62  1  6
 47 63  1  1
 64 65  1  0
 51 65  1  1
 66 63  1  0
 43 67  1  1
 35 68  1  1
 44 40  1  0
 50 48  1  0
 54 52  1  0
 70 69  2  0
 71 69  2  0
 72 69  1  0
 73 69  1  0
 75 74  2  0
 76 74  2  0
 77 74  1  0
 78 74  1  0
 80 79  2  0
 81 79  2  0
 82 79  1  0
 83 79  1  0
 85 84  2  0
 86 84  2  0
 87 84  1  0
 88 84  1  0
 90 89  2  0
 91 89  2  0
 92 89  1  0
 93 89  1  0
M  END
> <chembl_id>
CHEMBL3989564

> <chembl_pref_name>
TOBRAMYCIN SULFATE
