
     RDKit          2D

 24 27  0  0  0  0  0  0  0  0999 V2000
    2.7250   -0.9375    0.0000 N   0  0  0  0  0  0  0  0  0  0  0  0
    3.2625   -2.5792    0.0000 N   0  0  0  0  0  0  0  0  0  0  0  0
    2.3792   -1.9625    0.0000 C   0  0  0  0  0  0  0  0  0  0  0  0
    2.1625    0.0250    0.0000 C   0  0  0  0  0  0  0  0  0  0  0  0
    3.8000   -0.9375    0.0000 C   0  0  0  0  0  0  0  0  0  0  0  0
    4.1250   -1.9625    0.0000 C   0  0  0  0  0  0  0  0  0  0  0  0
    1.0542    0.0250    0.0000 C   0  0  0  0  0  0  0  0  0  0  0  0
   -1.0875    0.0250    0.0000 C   0  0  0  0  0  0  0  0  0  0  0  0
    0.5167   -0.9375    0.0000 C   0  0  0  0  0  0  0  0  0  0  0  0
    0.5167    0.9708    0.0000 C   0  0  0  0  0  0  0  0  0  0  0  0
   -0.5500   -0.9375    0.0000 C   0  0  0  0  0  0  0  0  0  0  0  0
   -0.5500    0.9708    0.0000 C   0  0  0  0  0  0  0  0  0  0  0  0
    2.7000    0.9708    0.0000 C   0  0  0  0  0  0  0  0  0  0  0  0
   -2.1958    0.0250    0.0000 C   0  0  0  0  0  0  0  0  0  0  0  0
    2.1625    1.9083    0.0000 C   0  0  0  0  0  0  0  0  0  0  0  0
    3.8000    0.9708    0.0000 C   0  0  0  0  0  0  0  0  0  0  0  0
   -2.7333   -0.9375    0.0000 C   0  0  0  0  0  0  0  0  0  0  0  0
   -2.7333    0.9708    0.0000 C   0  0  0  0  0  0  0  0  0  0  0  0
    2.7250    2.8500    0.0000 C   0  0  0  0  0  0  0  0  0  0  0  0
    4.3417    1.9083    0.0000 C   0  0  0  0  0  0  0  0  0  0  0  0
   -3.8083   -0.9375    0.0000 C   0  0  0  0  0  0  0  0  0  0  0  0
   -3.8083    0.9708    0.0000 C   0  0  0  0  0  0  0  0  0  0  0  0
    3.7792    2.8500    0.0000 C   0  0  0  0  0  0  0  0  0  0  0  0
   -4.3458    0.0250    0.0000 C   0  0  0  0  0  0  0  0  0  0  0  0
  2  3  2  0
  3  1  1  0
  4  1  1  0
  5  1  1  0
  6  5  2  0
  7  4  1  0
  8 12  1  0
  9  7  2  0
 10  7  1  0
 11  9  1  0
 12 10  2  0
 13  4  1  0
 14  8  1  0
 15 13  1  0
 16 13  2  0
 17 14  2  0
 18 14  1  0
 19 15  2  0
 20 16  1  0
 21 17  1  0
 22 18  2  0
 23 20  2  0
 24 22  1  0
  6  2  1  0
 11  8  2  0
 19 23  1  0
 21 24  2  0
M  END
> <chembl_id>
CHEMBL277535

> <chembl_pref_name>
BIFONAZOLE
