
     RDKit          2D

 28 32  0  0  1  0  0  0  0  0999 V2000
    1.8917   -5.6167    0.0000 C   0  0  0  0  0  0  0  0  0  0  0  0
    3.7375   -4.5667    0.0000 C   0  0  0  0  0  0  0  0  0  0  0  0
    1.8917   -6.3250    0.0000 C   0  0  0  0  0  0  0  0  0  0  0  0
    2.5042   -5.2625    0.0000 C   0  0  0  0  0  0  0  0  0  0  0  0
    0.6667   -5.6167    0.0000 C   0  0  0  0  0  0  0  0  0  0  0  0
    3.7292   -5.2708    0.0000 C   0  0  0  0  0  0  0  0  0  0  0  0
    0.6667   -6.3250    0.0000 C   0  0  0  0  0  0  0  0  0  0  0  0
    3.1167   -5.6208    0.0000 C   0  0  0  0  0  0  0  0  0  0  0  0
    1.2792   -6.6792    0.0000 C   0  0  0  0  0  0  0  0  0  0  0  0
    1.2792   -5.2625    0.0000 C   0  0  0  0  0  0  0  0  0  0  0  0
    4.4125   -4.3542    0.0000 C   0  0  0  0  0  0  0  0  0  0  0  0
   -0.4250   -5.9750    0.0000 N   0  0  0  0  0  0  0  0  0  0  0  0
    5.0250   -3.9917    0.0000 C   0  0  0  0  0  0  0  0  0  0  0  0
    3.1250   -4.2042    0.0000 C   0  0  0  0  0  0  0  0  0  0  0  0
   -0.0042   -6.5458    0.0000 O   0  0  0  0  0  0  0  0  0  0  0  0
    2.5083   -4.5542    0.0000 C   0  0  0  0  0  0  0  0  0  0  0  0
    3.1125   -6.3292    0.0000 C   0  0  0  0  0  0  0  0  0  0  0  0
    4.4000   -5.5000    0.0000 C   0  0  0  0  0  0  0  0  0  0  0  0
    5.6375   -3.6375    0.0000 C   0  0  0  0  0  0  0  0  0  0  0  0
    2.5000   -6.6792    0.0000 C   0  0  0  0  0  0  0  0  0  0  0  0
   -0.0083   -5.4000    0.0000 C   0  0  0  0  0  0  0  0  0  0  0  0
    4.8208   -4.9292    0.0000 C   0  0  0  0  0  0  0  0  0  0  0  0
    4.4042   -3.6417    0.0000 O   0  0  0  0  0  0  0  0  0  0  0  0
    1.8875   -4.9042    0.0000 C   0  0  0  0  0  0  0  0  0  0  0  0
    3.7292   -3.8542    0.0000 C   0  0  0  0  0  0  0  0  0  0  0  0
    3.1125   -4.9125    0.0000 H   0  0  0  0  0  0  0  0  0  0  0  0
    2.5000   -5.9667    0.0000 H   0  0  0  0  0  0  0  0  0  0  0  0
    3.7250   -5.9792    0.0000 H   0  0  0  0  0  0  0  0  0  0  0  0
  2 14  1  0
  3  1  1  0
  4  1  1  0
  5 10  1  0
  6  8  1  0
  7  9  1  0
  8  4  1  0
  9  3  2  0
 10  1  1  0
 11  2  1  0
 12 21  2  0
 13 11  1  0
 14 16  1  0
 15  7  1  0
 16  4  1  0
 17 20  1  0
 18  6  1  0
 19 13  3  0
 20  3  1  0
 21  5  1  0
 22 18  1  0
 11 23  1  1
  1 24  1  1
  2 25  1  1
  8 26  1  1
  4 27  1  6
  6 28  1  6
  5  7  2  0
  8 17  1  0
  6  2  1  0
 15 12  1  0
 11 22  1  0
M  END
> <chembl_id>
CHEMBL1479

> <chembl_pref_name>
DANAZOL
