
     RDKit          2D

 32 34  0  0  0  0  0  0  0  0999 V2000
   -3.4694   -0.9134    0.0000 C   0  0  0  0  0  0  0  0  0  0  0  0
   -3.4695   -0.0884    0.0000 C   0  0  0  0  0  0  0  0  0  0  0  0
   -4.1839    0.3241    0.0000 C   0  0  0  0  0  0  0  0  0  0  0  0
   -4.8984   -0.0884    0.0000 C   0  0  0  0  0  0  0  0  0  0  0  0
   -4.8984   -0.9134    0.0000 C   0  0  0  0  0  0  0  0  0  0  0  0
   -4.1839   -1.3259    0.0000 C   0  0  0  0  0  0  0  0  0  0  0  0
   -2.6849   -1.1683    0.0000 C   0  0  0  0  0  0  0  0  0  0  0  0
   -2.1999   -0.5009    0.0000 N   0  0  0  0  0  0  0  0  0  0  0  0
   -2.6848    0.1665    0.0000 C   0  0  0  0  0  0  0  0  0  0  0  0
   -4.1839   -2.1509    0.0000 N   0  0  0  0  0  0  0  0  0  0  0  0
   -2.4299   -1.9530    0.0000 O   0  0  0  0  0  0  0  0  0  0  0  0
   -2.4299    0.9511    0.0000 O   0  0  0  0  0  0  0  0  0  0  0  0
   -1.3749   -0.5009    0.0000 C   0  0  0  0  0  0  0  0  0  0  0  0
   -0.9624    0.2136    0.0000 C   0  0  0  0  0  0  0  0  0  0  0  0
   -0.9624   -1.2154    0.0000 C   0  0  0  0  0  0  0  0  0  0  0  0
   -1.3750   -1.9299    0.0000 C   0  0  0  0  0  0  0  0  0  0  0  0
   -0.9625   -2.6443    0.0000 C   0  0  0  0  0  0  0  0  0  0  0  0
   -0.1375   -2.6443    0.0000 C   0  0  0  0  0  0  0  0  0  0  0  0
    0.2751   -1.9298    0.0000 C   0  0  0  0  0  0  0  0  0  0  0  0
   -0.1374   -1.2154    0.0000 C   0  0  0  0  0  0  0  0  0  0  0  0
   -0.1374    0.2136    0.0000 S   0  0  0  0  0  0  0  0  0  0  0  0
    0.2751    0.9280    0.0000 C   0  0  0  0  0  0  0  0  0  0  0  0
    0.0761   -0.5833    0.0000 O   0  0  0  0  0  0  0  0  0  0  0  0
    0.6876    0.2136    0.0000 O   0  0  0  0  0  0  0  0  0  0  0  0
    1.1001   -1.9299    0.0000 O   0  0  0  0  0  0  0  0  0  0  0  0
    1.5126   -1.2154    0.0000 C   0  0  0  0  0  0  0  0  0  0  0  0
    2.3376   -1.2154    0.0000 C   0  0  0  0  0  0  0  0  0  0  0  0
    0.2750   -3.3588    0.0000 O   0  0  0  0  0  0  0  0  0  0  0  0
    1.1000   -3.3588    0.0000 C   0  0  0  0  0  0  0  0  0  0  0  0
   -4.8984   -2.5634    0.0000 C   0  0  0  0  0  0  0  0  0  0  0  0
   -4.8984   -3.3884    0.0000 O   0  0  0  0  0  0  0  0  0  0  0  0
   -5.6129   -2.1509    0.0000 C   0  0  0  0  0  0  0  0  0  0  0  0
  6  1  1  0
  2  3  1  0
  3  4  2  0
  4  5  1  0
  5  6  2  0
  1  7  1  0
  2  1  2  0
  2  9  1  0
  7  8  1  0
  8  9  1  0
  6 10  1  0
  7 11  2  0
  9 12  2  0
  8 13  1  0
 13 14  1  6
 13 15  1  0
 15 16  1  0
 15 20  2  0
 16 17  2  0
 17 18  1  0
 18 19  2  0
 19 20  1  0
 14 21  1  0
 21 22  1  0
 21 23  2  0
 21 24  2  0
 19 25  1  0
 25 26  1  0
 26 27  1  0
 18 28  1  0
 28 29  1  0
 10 30  1  0
 30 31  2  0
 30 32  1  0
M  END
> <chembl_id>
CHEMBL514800

> <chembl_pref_name>
APREMILAST
