
     RDKit          2D

 14 13  0  0  1  0  0  0  0  0999 V2000
    0.5042   -5.5875    0.0000 C   0  0  0  0  0  0  0  0  0  0  0  0
   -0.7208   -5.5667    0.0000 C   0  0  0  0  0  0  0  0  0  0  0  0
   -0.1000   -5.2250    0.0000 C   0  0  0  0  0  0  0  0  0  0  0  0
    0.4917   -6.3000    0.0000 O   0  0  0  0  0  0  0  0  0  0  0  0
    1.1167   -5.2500    0.0000 N   0  0  0  0  0  0  0  0  0  0  0  0
   -0.0875   -4.5083    0.0000 O   0  0  0  0  0  0  0  0  0  0  0  0
   -1.3292   -5.2042    0.0000 C   0  0  0  0  0  0  0  0  0  0  0  0
    2.3542   -5.2875    0.0000 C   0  0  0  0  0  0  0  0  0  0  0  0
   -0.3708   -6.1792    0.0000 C   0  0  0  0  0  0  0  0  0  0  0  0
   -1.0833   -6.1792    0.0000 C   0  0  0  0  0  0  0  0  0  0  0  0
   -1.9458   -5.5500    0.0000 O   0  0  0  0  0  0  0  0  0  0  0  0
    3.6000   -5.3042    0.0000 O   0  0  0  0  0  0  0  0  0  0  0  0
    1.7375   -5.6125    0.0000 C   0  0  0  0  0  0  0  0  0  0  0  0
    2.9750   -5.6375    0.0000 C   0  0  0  0  0  0  0  0  0  0  0  0
  2  3  1  0
  3  1  1  0
  4  1  2  0
  5  1  1  0
  3  6  1  1
  7  2  1  0
  8 13  1  0
  9  2  1  0
 10  2  1  0
 11  7  1  0
 12 14  1  0
 13  5  1  0
 14  8  1  0
M  END
> <chembl_id>
CHEMBL1200979

> <chembl_pref_name>
DEXPANTHENOL
