
     RDKit          2D

 22 25  0  0  0  0  0  0  0  0999 V2000
    1.6667   -1.9625    0.0000 C   0  0  0  0  0  0  0  0  0  0  0  0
    0.9667   -1.9625    0.0000 N   0  0  0  0  0  0  0  0  0  0  0  0
    2.1167   -2.5167    0.0000 C   0  0  0  0  0  0  0  0  0  0  0  0
    1.9667   -3.2042    0.0000 C   0  0  0  0  0  0  0  0  0  0  0  0
    1.3042   -3.5167    0.0000 O   0  0  0  0  0  0  0  0  0  0  0  0
    2.0208   -1.3542    0.0000 N   0  0  0  0  0  0  0  0  0  0  0  0
    0.5167   -2.5167    0.0000 C   0  0  0  0  0  0  0  0  0  0  0  0
    0.6667   -3.1917    0.0000 C   0  0  0  0  0  0  0  0  0  0  0  0
    2.7917   -2.3042    0.0000 C   0  0  0  0  0  0  0  0  0  0  0  0
    2.7458   -0.1208    0.0000 N   0  0  0  0  0  0  0  0  0  0  0  0
    2.4792   -3.6875    0.0000 C   0  0  0  0  0  0  0  0  0  0  0  0
    3.3167   -2.7917    0.0000 C   0  0  0  0  0  0  0  0  0  0  0  0
    3.1542   -3.4792    0.0000 C   0  0  0  0  0  0  0  0  0  0  0  0
    3.9917   -2.5917    0.0000 Cl  0  0  0  0  0  0  0  0  0  0  0  0
    1.6833   -0.7458    0.0000 C   0  0  0  0  0  0  0  0  0  0  0  0
    2.7417   -1.3583    0.0000 C   0  0  0  0  0  0  0  0  0  0  0  0
   -0.1458   -2.2917    0.0000 C   0  0  0  0  0  0  0  0  0  0  0  0
    3.0958   -0.7333    0.0000 C   0  0  0  0  0  0  0  0  0  0  0  0
    2.0375   -0.1208    0.0000 C   0  0  0  0  0  0  0  0  0  0  0  0
    0.1542   -3.6750    0.0000 C   0  0  0  0  0  0  0  0  0  0  0  0
   -0.6708   -2.7542    0.0000 C   0  0  0  0  0  0  0  0  0  0  0  0
   -0.5333   -3.4542    0.0000 C   0  0  0  0  0  0  0  0  0  0  0  0
  2  1  2  0
  3  1  1  0
  4  3  2  0
  5  4  1  0
  6  1  1  0
  7  2  1  0
  8  7  2  0
  9  3  1  0
 10 18  1  0
 11  4  1  0
 12  9  2  0
 13 12  1  0
 14 12  1  0
 15  6  1  0
 16  6  1  0
 17  7  1  0
 18 16  1  0
 19 15  1  0
 20  8  1  0
 21 17  2  0
 22 21  1  0
 19 10  1  0
  5  8  1  0
 11 13  2  0
 20 22  2  0
M  END
> <chembl_id>
CHEMBL1113

> <chembl_pref_name>
AMOXAPINE
