
     RDKit          2D

 72 80  0  0  1  0  0  0  0  0999 V2000
    3.1750    1.3000    0.0000 C   0  0  0  0  0  0  0  0  0  0  0  0
    3.1750    1.6833    0.0000 C   0  0  0  0  0  0  0  0  0  0  0  0
   -3.0333   -1.9000    0.0000 C   0  0  0  0  0  0  0  0  0  0  0  0
    2.5167    1.3000    0.0000 C   0  0  0  0  0  0  0  0  0  0  0  0
    2.1917    1.1208    0.0000 C   0  0  0  0  0  0  0  0  0  0  0  0
   -3.0333   -2.2792    0.0000 C   0  0  0  0  0  0  0  0  0  0  0  0
    2.8500    1.1208    0.0000 C   0  0  0  0  0  0  0  0  0  0  0  0
   -3.3583   -2.4667    0.0000 C   0  0  0  0  0  0  0  0  0  0  0  0
   -3.3583   -1.7167    0.0000 O   0  0  0  0  0  0  0  0  0  0  0  0
   -2.3833   -1.5250    0.0000 C   0  0  0  0  0  0  0  0  0  0  0  0
    3.5292    1.8000    0.0000 C   0  0  0  0  0  0  0  0  0  0  0  0
    2.8500    1.8708    0.0000 C   0  0  0  0  0  0  0  0  0  0  0  0
    3.6500    2.1583    0.0000 C   0  0  0  0  0  0  0  0  0  0  0  0
   -2.7083   -1.7167    0.0000 O   0  0  0  0  0  0  0  0  0  0  0  0
   -2.0583   -1.7167    0.0000 C   0  0  0  0  0  0  0  0  0  0  0  0
   -3.6833   -2.2792    0.0000 C   0  0  0  0  0  0  0  0  0  0  0  0
    0.2375   -0.0167    0.0000 C   0  0  0  0  0  0  0  0  0  0  0  0
   -1.0750   -0.7667    0.0000 C   0  0  0  0  0  0  0  0  0  0  0  0
   -3.6833   -1.9000    0.0000 C   0  0  0  0  0  0  0  0  0  0  0  0
   -1.7250   -1.1417    0.0000 C   0  0  0  0  0  0  0  0  0  0  0  0
   -0.4208   -0.3917    0.0000 C   0  0  0  0  0  0  0  0  0  0  0  0
    2.5167    1.6833    0.0000 C   0  0  0  0  0  0  0  0  0  0  0  0
    0.8875    0.3625    0.0000 C   0  0  0  0  0  0  0  0  0  0  0  0
   -2.0583   -0.9542    0.0000 O   0  0  0  0  0  0  0  0  0  0  0  0
   -0.7458   -0.2042    0.0000 O   0  0  0  0  0  0  0  0  0  0  0  0
   -1.7250   -1.5250    0.0000 C   0  0  0  0  0  0  0  0  0  0  0  0
    0.5542    0.5458    0.0000 O   0  0  0  0  0  0  0  0  0  0  0  0
   -0.4208   -0.7667    0.0000 C   0  0  0  0  0  0  0  0  0  0  0  0
    0.8875   -0.0167    0.0000 C   0  0  0  0  0  0  0  0  0  0  0  0
    4.0042    2.2750    0.0000 C   0  0  0  0  0  0  0  0  0  0  0  0
    2.1917    0.7375    0.0000 C   0  0  0  0  0  0  0  0  0  0  0  0
   -0.7458   -0.9542    0.0000 C   0  0  0  0  0  0  0  0  0  0  0  0
    0.5542   -0.2042    0.0000 C   0  0  0  0  0  0  0  0  0  0  0  0
   -2.3833   -1.1417    0.0000 C   0  0  0  0  0  0  0  0  0  0  0  0
    3.5292    1.1833    0.0000 C   0  0  0  0  0  0  0  0  0  0  0  0
    0.2375    0.3625    0.0000 C   0  0  0  0  0  0  0  0  0  0  0  0
   -1.0750   -0.3917    0.0000 C   0  0  0  0  0  0  0  0  0  0  0  0
    4.0125    2.6583    0.0000 C   0  0  0  0  0  0  0  0  0  0  0  0
   -1.4000   -0.9542    0.0000 O   0  0  0  0  0  0  0  0  0  0  0  0
   -0.0958   -0.2042    0.0000 O   0  0  0  0  0  0  0  0  0  0  0  0
   -2.0583   -2.0917    0.0000 O   0  0  0  0  0  0  0  0  0  0  0  0
    3.6542    2.7708    0.0000 O   0  0  0  0  0  0  0  0  0  0  0  0
    3.7542    1.4958    0.0000 C   0  0  0  0  0  0  0  0  0  0  0  0
    1.8667    1.3000    0.0000 C   0  0  0  0  0  0  0  0  0  0  0  0
    2.8500    0.7375    0.0000 C   0  0  0  0  0  0  0  0  0  0  0  0
   -1.7250   -2.2792    0.0000 C   0  0  0  0  0  0  0  0  0  0  0  0
    3.4292    2.4625    0.0000 C   0  0  0  0  0  0  0  0  0  0  0  0
    1.2167    0.5458    0.0000 O   0  0  0  0  0  0  0  0  0  0  0  0
    1.8667    0.5458    0.0000 C   0  0  0  0  0  0  0  0  0  0  0  0
    2.5167    0.5458    0.0000 C   0  0  0  0  0  0  0  0  0  0  0  0
    3.2167    0.9250    0.0000 O   0  0  0  0  0  0  0  0  0  0  0  0
    4.3167    2.8750    0.0000 O   0  0  0  0  0  0  0  0  0  0  0  0
    1.5375    0.7375    0.0000 C   0  0  0  0  0  0  0  0  0  0  0  0
   -1.7250   -2.6542    0.0000 O   0  0  0  0  0  0  0  0  0  0  0  0
   -2.7083   -2.4667    0.0000 O   0  0  0  0  0  0  0  0  0  0  0  0
   -3.3583   -2.8417    0.0000 O   0  0  0  0  0  0  0  0  0  0  0  0
   -4.0208   -2.4667    0.0000 O   0  0  0  0  0  0  0  0  0  0  0  0
    3.2167    2.0583    0.0000 C   0  0  0  0  0  0  0  0  0  0  0  0
    2.8542    2.2458    0.0000 O   0  0  0  0  0  0  0  0  0  0  0  0
    1.5375    1.1208    0.0000 C   0  0  0  0  0  0  0  0  0  0  0  0
    0.5542   -0.5792    0.0000 O   0  0  0  0  0  0  0  0  0  0  0  0
   -0.7458   -1.3375    0.0000 O   0  0  0  0  0  0  0  0  0  0  0  0
    2.1917    1.4958    0.0000 C   0  0  0  0  0  0  0  0  0  0  0  0
   -4.0208   -1.7167    0.0000 C   0  0  0  0  0  0  0  0  0  0  0  0
   -4.3000   -1.9542    0.0000 O   0  0  0  0  0  0  0  0  0  0  0  0
   -2.7083   -0.9542    0.0000 C   0  0  0  0  0  0  0  0  0  0  0  0
   -0.0958    0.5458    0.0000 C   0  0  0  0  0  0  0  0  0  0  0  0
   -1.4000   -0.2042    0.0000 C   0  0  0  0  0  0  0  0  0  0  0  0
   -1.4000   -2.0917    0.0000 C   0  0  0  0  0  0  0  0  0  0  0  0
    2.8500    1.4958    0.0000 H   0  0  0  0  0  0  0  0  0  0  0  0
    2.4875    0.9250    0.0000 H   0  0  0  0  0  0  0  0  0  0  0  0
    2.1917    0.3625    0.0000 H   0  0  0  0  0  0  0  0  0  0  0  0
  2  1  1  0
  3 14  1  1
  4  7  1  0
  5  4  1  0
  6  3  1  0
  7  1  1  0
  8  6  1  0
  9  3  1  0
 10 15  1  0
 11  2  1  0
 12  2  1  0
 11 13  1  1
 10 14  1  6
 15 26  1  0
 16 19  1  0
 17 33  1  0
 18 32  1  0
 19  9  1  0
 20 39  1  1
 21 40  1  1
 22  4  1  0
 23 48  1  1
 24 20  1  0
 25 21  1  0
 26 20  1  0
 27 23  1  0
 28 21  1  0
 29 23  1  0
 30 13  2  0
 31 50  1  0
 32 28  1  0
 33 29  1  0
 34 24  1  0
 35  1  1  0
 36 27  1  0
 37 25  1  0
 38 30  1  0
 18 39  1  6
 17 40  1  6
 15 41  1  6
 42 47  1  0
 43 35  1  0
 44  5  1  0
 45  7  1  0
 46 41  1  0
 47 13  1  0
 53 48  1  1
 49 31  1  0
 50 45  1  0
  1 51  1  1
 52 38  2  0
 53 49  1  0
 54 46  2  0
  6 55  1  6
  8 56  1  1
 16 57  1  6
  2 58  1  1
 12 59  1  1
 60 44  1  0
 33 61  1  6
 32 62  1  6
  5 63  1  1
 19 64  1  1
 65 64  1  0
 34 66  1  1
 36 67  1  1
 37 68  1  1
 69 46  1  0
  7 70  1  1
  4 71  1  6
 31 72  1  1
 11 43  1  0
 12 22  1  0
  5 31  1  0
 60 53  1  0
 42 38  1  0
 36 17  1  0
 37 18  1  0
 34 10  1  0
  8 16  1  0
M  END
> <chembl_id>
CHEMBL506569

> <chembl_pref_name>
LANATOSIDE C
