
     RDKit          2D

 25 27  0  0  1  0  0  0  0  0999 V2000
   -0.3701   -7.0841    0.0000 C   0  0  0  0  0  0  0  0  0  0  0  0
   -1.0846   -7.4966    0.0000 C   0  0  0  0  0  0  0  0  0  0  0  0
   -1.0846   -8.3216    0.0000 C   0  0  0  0  0  0  0  0  0  0  0  0
   -0.3701   -8.7341    0.0000 C   0  0  0  0  0  0  0  0  0  0  0  0
    0.3443   -8.3216    0.0000 C   0  0  0  0  0  0  0  0  0  0  0  0
    0.3443   -7.4966    0.0000 C   0  0  0  0  0  0  0  0  0  0  0  0
    1.7733   -7.4966    0.0000 C   0  0  0  0  0  0  0  0  0  0  0  0
    1.0588   -7.0841    0.0000 C   0  0  0  0  0  0  0  0  0  0  0  0
    3.2023   -7.4967    0.0000 C   0  0  0  0  0  0  0  0  0  0  0  0
    2.4878   -7.0842    0.0000 N   0  0  0  0  0  0  0  0  0  0  0  0
    2.4878   -6.2591    0.0000 C   0  0  0  0  0  0  0  0  0  0  0  0
    3.2023   -5.8466    0.0000 C   0  0  0  0  0  0  0  0  0  0  0  0
    3.9167   -6.2591    0.0000 C   0  0  0  0  0  0  0  0  0  0  0  0
    3.9167   -7.0842    0.0000 C   0  0  0  0  0  0  0  0  0  0  0  0
    5.3457   -7.0842    0.0000 O   0  0  0  0  0  0  0  0  0  0  0  0
    5.3457   -6.2592    0.0000 C   0  0  0  0  0  0  0  0  0  0  0  0
    4.6312   -5.8467    0.0000 N   0  0  0  0  0  0  0  0  0  0  0  0
    6.7747   -6.2592    0.0000 C   0  0  0  0  0  0  0  0  0  0  0  0
    6.0602   -5.8467    0.0000 C   0  0  0  0  0  0  0  0  0  0  0  0
    5.3457   -4.6091    0.0000 C   0  0  0  0  0  0  0  0  0  0  0  0
    4.6312   -5.0216    0.0000 C   0  0  0  0  0  0  0  0  0  0  0  0
    3.9167   -4.6091    0.0000 C   0  0  0  0  0  0  0  0  0  0  0  0
    4.6312   -3.3716    0.0000 C   0  0  0  0  0  0  0  0  0  0  0  0
    3.9167   -3.7841    0.0000 C   0  0  0  0  0  0  0  0  0  0  0  0
    5.3457   -3.7841    0.0000 C   0  0  0  0  0  0  0  0  0  0  0  0
  1  2  2  0
  2  3  1  0
  3  4  2  0
  4  5  1  0
  5  6  2  0
  1  6  1  0
  7  8  1  0
  6  8  1  0
  9 10  1  0
  7 10  1  0
 11 12  1  0
 12 13  1  0
 13 14  1  0
  9 14  1  0
 10 11  1  0
 15 16  2  0
 16 17  1  0
 13 17  1  0
 18 19  1  0
 16 19  1  0
 20 21  1  0
 21 17  1  0
 22 21  2  0
 23 24  2  0
 23 25  1  0
 20 25  2  0
 24 22  1  0
M  END
> <chembl_id>
CHEMBL596

> <chembl_pref_name>
FENTANYL
