
     RDKit          2D

 32 35  0  0  0  0  0  0  0  0999 V2000
    3.3375   -3.5250    0.0000 C   0  0  0  0  0  0  0  0  0  0  0  0
    2.0958   -4.2167    0.0000 C   0  0  0  0  0  0  0  0  0  0  0  0
    1.4750   -4.5667    0.0000 C   0  0  0  0  0  0  0  0  0  0  0  0
    2.7000   -4.5750    0.0000 C   0  0  0  0  0  0  0  0  0  0  0  0
    4.0000   -3.3042    0.0000 C   0  0  0  0  0  0  0  0  0  0  0  0
    2.1000   -3.5042    0.0000 C   0  0  0  0  0  0  0  0  0  0  0  0
    3.3250   -4.2292    0.0000 C   0  0  0  0  0  0  0  0  0  0  0  0
    1.4625   -5.2667    0.0000 C   0  0  0  0  0  0  0  0  0  0  0  0
    2.7125   -3.1542    0.0000 C   0  0  0  0  0  0  0  0  0  0  0  0
    3.9750   -2.6042    0.0000 C   0  0  0  0  0  0  0  0  0  0  0  0
    0.8500   -5.6250    0.0000 C   0  0  0  0  0  0  0  0  0  0  0  0
    4.4000   -3.8750    0.0000 C   0  0  0  0  0  0  0  0  0  0  0  0
    3.9958   -4.4417    0.0000 C   0  0  0  0  0  0  0  0  0  0  0  0
    2.7000   -5.2875    0.0000 C   0  0  0  0  0  0  0  0  0  0  0  0
    0.8625   -4.2125    0.0000 C   0  0  0  0  0  0  0  0  0  0  0  0
    2.0875   -5.6417    0.0000 C   0  0  0  0  0  0  0  0  0  0  0  0
    0.2333   -5.2792    0.0000 C   0  0  0  0  0  0  0  0  0  0  0  0
    5.1750   -1.1875    0.0000 C   0  0  0  0  0  0  0  0  0  0  0  0
    4.5833   -2.2417    0.0000 C   0  0  0  0  0  0  0  0  0  0  0  0
    3.3708   -2.2625    0.0000 O   0  0  0  0  0  0  0  0  0  0  0  0
    4.5708   -1.5417    0.0000 O   0  0  0  0  0  0  0  0  0  0  0  0
    5.1583   -0.4792    0.0000 O   0  0  0  0  0  0  0  0  0  0  0  0
   -0.3917   -5.6542    0.0000 O   0  0  0  0  0  0  0  0  0  0  0  0
    4.5875   -2.9000    0.0000 O   0  0  0  0  0  0  0  0  0  0  0  0
    3.3250   -2.8167    0.0000 C   0  0  0  0  0  0  0  0  0  0  0  0
    0.2458   -4.5625    0.0000 C   0  0  0  0  0  0  0  0  0  0  0  0
    1.4750   -3.8542    0.0000 C   0  0  0  0  0  0  0  0  0  0  0  0
    5.7833   -1.5292    0.0000 C   0  0  0  0  0  0  0  0  0  0  0  0
    2.7125   -3.8667    0.0000 H   0  0  0  0  0  0  0  0  0  0  0  0
    3.3375   -4.9292    0.0000 H   0  0  0  0  0  0  0  0  0  0  0  0
    1.4884   -3.1469    0.0000 O   0  0  0  0  0  0  0  0  0  0  0  0
    2.0917   -4.9250    0.0000 F   0  0  0  0  0  0  0  0  0  0  0  0
  3  2  1  0
  4  7  1  0
  5  1  1  0
  6  9  1  0
  7  1  1  0
  8  3  1  0
  9  1  1  0
  5 10  1  1
 11  8  2  0
 12  5  1  0
 13  7  1  0
 14  4  1  0
 15  3  1  0
 16 14  1  0
 17 26  1  0
 18 21  1  0
 19 10  1  0
 20 10  2  0
 21 19  1  0
 22 18  2  0
 23 17  2  0
  5 24  1  6
  1 25  1  1
 26 15  1  0
  3 27  1  1
 28 18  1  0
  4 29  1  1
  7 30  1  6
 12 13  1  0
  2  4  1  0
  8 16  1  0
 17 11  1  0
  6 31  1  1
  2  6  1  0
  2 32  1  6
M  END
> <chembl_id>
CHEMBL1201010

> <chembl_pref_name>
FLUDROCORTISONE ACETATE
