
     RDKit          2D

 26 27  0  0  0  0  0  0  0  0999 V2000
    6.6167   -3.2167    0.0000 C   0  0  0  0  0  0  0  0  0  0  0  0
    7.2417   -3.5667    0.0000 C   0  0  0  0  0  0  0  0  0  0  0  0
    1.7042   -4.6292    0.0000 C   0  0  0  0  0  0  0  0  0  0  0  0
    4.7792   -3.5667    0.0000 N   0  0  0  0  0  0  0  0  0  0  0  0
    4.1542   -3.2167    0.0000 N   0  0  0  0  0  0  0  0  0  0  0  0
    2.9292   -6.7667    0.0000 C   0  0  0  0  0  0  0  0  0  0  0  0
    6.6167   -2.5042    0.0000 C   0  0  0  0  0  0  0  0  0  0  0  0
    6.0042   -3.5667    0.0000 C   0  0  0  0  0  0  0  0  0  0  0  0
    2.3125   -4.2792    0.0000 C   0  0  0  0  0  0  0  0  0  0  0  0
    7.8417   -3.2167    0.0000 O   0  0  0  0  0  0  0  0  0  0  0  0
    2.3125   -6.4042    0.0000 C   0  0  0  0  0  0  0  0  0  0  0  0
    7.2417   -4.2792    0.0000 O   0  0  0  0  0  0  0  0  0  0  0  0
    3.5417   -6.4042    0.0000 O   0  0  0  0  0  0  0  0  0  0  0  0
    1.0792   -4.2792    0.0000 O   0  0  0  0  0  0  0  0  0  0  0  0
    2.9292   -7.4792    0.0000 O   0  0  0  0  0  0  0  0  0  0  0  0
    5.3917   -3.2167    0.0000 C   0  0  0  0  0  0  0  0  0  0  0  0
    1.7042   -5.3417    0.0000 N   0  0  0  0  0  0  0  0  0  0  0  0
    6.0042   -2.1542    0.0000 C   0  0  0  0  0  0  0  0  0  0  0  0
    2.9292   -4.6292    0.0000 C   0  0  0  0  0  0  0  0  0  0  0  0
    2.3125   -3.5667    0.0000 C   0  0  0  0  0  0  0  0  0  0  0  0
    3.5417   -3.5667    0.0000 C   0  0  0  0  0  0  0  0  0  0  0  0
    2.3125   -5.6917    0.0000 C   0  0  0  0  0  0  0  0  0  0  0  0
    5.3917   -2.5042    0.0000 C   0  0  0  0  0  0  0  0  0  0  0  0
    2.9292   -3.2167    0.0000 C   0  0  0  0  0  0  0  0  0  0  0  0
    3.5417   -4.2792    0.0000 C   0  0  0  0  0  0  0  0  0  0  0  0
    7.2417   -2.1542    0.0000 O   0  0  0  0  0  0  0  0  0  0  0  0
  2  1  1  0
  3  9  1  0
  4 16  1  0
  5  4  2  0
  6 11  1  0
  7  1  1  0
  8  1  2  0
  9 19  2  0
 10  2  1  0
 11 22  1  0
 12  2  2  0
 13  6  1  0
 14  3  2  0
 15  6  2  0
 16  8  1  0
 17  3  1  0
 18  7  2  0
 19 25  1  0
 20 24  2  0
 21  5  1  0
 22 17  1  0
 23 16  2  0
 24 21  1  0
 25 21  2  0
 26  7  1  0
 18 23  1  0
 20  9  1  0
M  END
> <chembl_id>
CHEMBL1201346

> <chembl_pref_name>
BALSALAZIDE
