
     RDKit          2D

 27 30  0  0  0  0  0  0  0  0999 V2000
   -1.4833   -0.4542    0.0000 N   0  0  0  0  0  0  0  0  0  0  0  0
   -0.5208   -1.0250    0.0000 C   0  0  0  0  0  0  0  0  0  0  0  0
   -1.4833   -2.7542    0.0000 S   0  0  0  0  0  0  0  0  0  0  0  0
   -2.4458   -1.0250    0.0000 C   0  0  0  0  0  0  0  0  0  0  0  0
   -0.5208   -2.1792    0.0000 C   0  0  0  0  0  0  0  0  0  0  0  0
   -2.4458   -2.1792    0.0000 C   0  0  0  0  0  0  0  0  0  0  0  0
    0.4792   -0.4542    0.0000 C   0  0  0  0  0  0  0  0  0  0  0  0
    1.4125    1.2583    0.0000 N   0  0  0  0  0  0  0  0  0  0  0  0
    3.3792    2.4125    0.0000 N   0  0  0  0  0  0  0  0  0  0  0  0
    0.4792   -2.7542    0.0000 C   0  0  0  0  0  0  0  0  0  0  0  0
   -1.4833    0.6625    0.0000 C   0  0  0  0  0  0  0  0  0  0  0  0
    1.4167   -1.0250    0.0000 C   0  0  0  0  0  0  0  0  0  0  0  0
    2.3667    2.9625    0.0000 C   0  0  0  0  0  0  0  0  0  0  0  0
    3.3792    1.2833    0.0000 C   0  0  0  0  0  0  0  0  0  0  0  0
    1.4000    2.4000    0.0000 C   0  0  0  0  0  0  0  0  0  0  0  0
    2.3792    0.7000    0.0000 C   0  0  0  0  0  0  0  0  0  0  0  0
   -0.5333    1.2250    0.0000 C   0  0  0  0  0  0  0  0  0  0  0  0
    2.3667   -0.4375    0.0000 S   0  0  0  0  0  0  0  0  0  0  0  0
    1.4167   -2.1792    0.0000 C   0  0  0  0  0  0  0  0  0  0  0  0
    0.4667    0.6750    0.0000 C   0  0  0  0  0  0  0  0  0  0  0  0
   -3.4000   -0.4542    0.0000 C   0  0  0  0  0  0  0  0  0  0  0  0
   -3.4000   -2.7542    0.0000 C   0  0  0  0  0  0  0  0  0  0  0  0
    4.3417    2.9625    0.0000 C   0  0  0  0  0  0  0  0  0  0  0  0
    3.3792   -0.9625    0.0000 C   0  0  0  0  0  0  0  0  0  0  0  0
   -4.3458   -0.9875    0.0000 C   0  0  0  0  0  0  0  0  0  0  0  0
    3.3667   -2.0042    0.0000 C   0  0  0  0  0  0  0  0  0  0  0  0
   -4.3458   -2.2167    0.0000 C   0  0  0  0  0  0  0  0  0  0  0  0
  2  1  1  0
  3  6  1  0
  4  1  1  0
  5  2  2  0
  6  4  2  0
  7  2  1  0
  8 20  1  0
  9 14  1  0
 10  5  1  0
 11  1  1  0
 12  7  2  0
 13 15  1  0
 14 16  1  0
 15  8  1  0
 16  8  1  0
 17 11  1  0
 18 12  1  0
 19 12  1  0
 20 17  1  0
 21  4  1  0
 22  6  1  0
 23  9  1  0
 24 18  1  0
 25 21  2  0
 26 24  1  0
 27 25  1  0
  5  3  1  0
 22 27  2  0
 10 19  2  0
 13  9  1  0
M  END
> <chembl_id>
CHEMBL1378

> <chembl_pref_name>
THIETHYLPERAZINE
