
     RDKit          2D

 19 20  0  0  1  0  0  0  0  0999 V2000
    1.4750   -0.2667    0.0000 N   0  0  0  0  0  0  0  0  0  0  0  0
    3.3167   -1.3292    0.0000 N   0  0  0  0  0  0  0  0  0  0  0  0
   -3.2833    1.4000    0.0000 N   0  0  0  0  0  0  0  0  0  0  0  0
   -1.4208    0.3708    0.0000 N   0  0  0  0  0  0  0  0  0  0  0  0
    3.3167   -0.2542    0.0000 C   0  0  0  0  0  0  0  0  0  0  0  0
    2.4000   -1.8542    0.0000 C   0  0  0  0  0  0  0  0  0  0  0  0
   -3.2833    0.3375    0.0000 C   0  0  0  0  0  0  0  0  0  0  0  0
   -2.3708    1.9458    0.0000 C   0  0  0  0  0  0  0  0  0  0  0  0
    2.4000    0.2833    0.0000 C   0  0  0  0  0  0  0  0  0  0  0  0
    1.4792   -1.3292    0.0000 C   0  0  0  0  0  0  0  0  0  0  0  0
    0.5042    0.4708    0.0000 C   0  0  0  0  0  0  0  0  0  0  0  0
   -0.4708   -0.1750    0.0000 C   0  0  0  0  0  0  0  0  0  0  0  0
   -1.4583    1.4333    0.0000 C   0  0  0  0  0  0  0  0  0  0  0  0
   -2.3458   -0.1875    0.0000 C   0  0  0  0  0  0  0  0  0  0  0  0
    2.4000   -2.9292    0.0000 O   0  0  0  0  0  0  0  0  0  0  0  0
    4.2625    0.3000    0.0000 O   0  0  0  0  0  0  0  0  0  0  0  0
   -4.2083   -0.2292    0.0000 O   0  0  0  0  0  0  0  0  0  0  0  0
   -2.4083    3.0083    0.0000 O   0  0  0  0  0  0  0  0  0  0  0  0
    0.5375    1.5000    0.0000 C   0  0  0  0  0  0  0  0  0  0  0  0
  2  6  1  0
  3  7  1  0
  4 12  1  0
  5  9  1  0
  6 10  1  0
  7 14  1  0
  8 13  1  0
  9  1  1  0
 10  1  1  0
 11  1  1  0
 12 11  1  0
 13  4  1  0
 14  4  1  0
 15  6  2  0
 16  5  2  0
 17  7  2  0
 18  8  2  0
 11 19  1  6
  5  2  1  0
  8  3  1  0
M  END
> <chembl_id>
CHEMBL1738

> <chembl_pref_name>
DEXRAZOXANE
