
     RDKit          2D

 26 29  0  0  1  0  0  0  0  0999 V2000
    5.9042   -5.3792    0.0000 N   0  0  0  0  0  0  0  0  0  0  0  0
    6.5042   -4.3167    0.0000 C   0  0  0  0  0  0  0  0  0  0  0  0
    5.2792   -5.0167    0.0000 C   0  0  0  0  0  0  0  0  0  0  0  0
    4.6542   -5.3792    0.0000 C   0  0  0  0  0  0  0  0  0  0  0  0
    5.2792   -4.3042    0.0000 C   0  0  0  0  0  0  0  0  0  0  0  0
    6.5042   -5.0125    0.0000 C   0  0  0  0  0  0  0  0  0  0  0  0
    5.8792   -3.9667    0.0000 C   0  0  0  0  0  0  0  0  0  0  0  0
    4.0292   -5.0125    0.0000 C   0  0  0  0  0  0  0  0  0  0  0  0
    4.6542   -6.0917    0.0000 O   0  0  0  0  0  0  0  0  0  0  0  0
    4.0292   -4.3167    0.0000 C   0  0  0  0  0  0  0  0  0  0  0  0
    4.6417   -3.9667    0.0000 C   0  0  0  0  0  0  0  0  0  0  0  0
    3.4167   -5.3542    0.0000 N   0  0  0  0  0  0  0  0  0  0  0  0
    7.1167   -3.9667    0.0000 C   0  0  0  0  0  0  0  0  0  0  0  0
    5.9042   -6.0917    0.0000 C   0  0  0  0  0  0  0  0  0  0  0  0
    2.1750   -6.0917    0.0000 N   0  0  0  0  0  0  0  0  0  0  0  0
    5.8792   -3.2542    0.0000 O   0  0  0  0  0  0  0  0  0  0  0  0
    5.2792   -6.4500    0.0000 C   0  0  0  0  0  0  0  0  0  0  0  0
    2.8000   -5.0125    0.0000 C   0  0  0  0  0  0  0  0  0  0  0  0
    3.4167   -6.0917    0.0000 C   0  0  0  0  0  0  0  0  0  0  0  0
    7.1167   -3.2417    0.0000 O   0  0  0  0  0  0  0  0  0  0  0  0
    3.4167   -3.9667    0.0000 F   0  0  0  0  0  0  0  0  0  0  0  0
    2.1750   -5.3542    0.0000 C   0  0  0  0  0  0  0  0  0  0  0  0
    2.8000   -6.4500    0.0000 C   0  0  0  0  0  0  0  0  0  0  0  0
    7.7417   -4.3042    0.0000 O   0  0  0  0  0  0  0  0  0  0  0  0
    1.5875   -6.4250    0.0000 C   0  0  0  0  0  0  0  0  0  0  0  0
    6.4875   -6.3875    0.0000 C   0  0  0  0  0  0  0  0  0  0  0  0
  2  6  2  0
  3  1  1  0
  4  3  1  0
  5  3  2  0
  6  1  1  0
  7  2  1  0
  8  4  2  0
  9 17  1  0
 10 11  2  0
 11  5  1  0
 12  8  1  0
 13  2  1  0
 14  1  1  0
 15 23  1  0
 16  7  2  0
 17 14  1  0
 18 12  1  0
 19 12  1  0
 20 13  2  0
 21 10  1  0
 22 18  1  0
 23 19  1  0
 24 13  1  0
 25 15  1  0
 14 26  1  1
  9  4  1  0
  7  5  1  0
 10  8  1  0
 15 22  1  0
M  END
> <chembl_id>
CHEMBL33

> <chembl_pref_name>
LEVOFLOXACIN ANHYDROUS
