
     RDKit          2D

 26 29  0  0  1  0  0  0  0  0999 V2000
   -0.4958   -0.3792    0.0000 C   0  0  0  0  0  0  0  0  0  0  0  0
   -0.5250   -2.3667    0.0000 C   0  0  0  0  0  0  0  0  0  0  0  0
    0.2792   -0.9167    0.0000 C   0  0  0  0  0  0  0  0  0  0  0  0
   -1.3708   -0.8750    0.0000 C   0  0  0  0  0  0  0  0  0  0  0  0
    1.1417   -0.4292    0.0000 N   0  0  0  0  0  0  0  0  0  0  0  0
   -1.3833   -1.8542    0.0000 C   0  0  0  0  0  0  0  0  0  0  0  0
    1.2417    2.4708    0.0000 C   0  0  0  0  0  0  0  0  0  0  0  0
    0.2792   -1.8542    0.0000 C   0  0  0  0  0  0  0  0  0  0  0  0
   -0.4875    0.5208    0.0000 C   0  0  0  0  0  0  0  0  0  0  0  0
   -0.5208   -3.4042    0.0000 C   0  0  0  0  0  0  0  0  0  0  0  0
   -2.2083   -3.4042    0.0000 N   0  0  0  0  0  0  0  0  0  0  0  0
    0.3542    1.9833    0.0000 N   0  0  0  0  0  0  0  0  0  0  0  0
    0.3375    0.9833    0.0000 C   0  0  0  0  0  0  0  0  0  0  0  0
   -2.2208   -2.3417    0.0000 C   0  0  0  0  0  0  0  0  0  0  0  0
    1.1625    0.4875    0.0000 C   0  0  0  0  0  0  0  0  0  0  0  0
    2.1167    1.9750    0.0000 N   0  0  0  0  0  0  0  0  0  0  0  0
    1.2542    3.4833    0.0000 O   0  0  0  0  0  0  0  0  0  0  0  0
   -2.1833   -0.3792    0.0000 C   0  0  0  0  0  0  0  0  0  0  0  0
    2.0042   -0.9417    0.0000 C   0  0  0  0  0  0  0  0  0  0  0  0
   -3.0708   -0.9000    0.0000 C   0  0  0  0  0  0  0  0  0  0  0  0
   -3.0583   -1.8167    0.0000 C   0  0  0  0  0  0  0  0  0  0  0  0
    2.0875    0.9625    0.0000 C   0  0  0  0  0  0  0  0  0  0  0  0
    3.0250    2.4083    0.0000 C   0  0  0  0  0  0  0  0  0  0  0  0
    2.9625    0.4583    0.0000 C   0  0  0  0  0  0  0  0  0  0  0  0
    3.0625    3.4208    0.0000 C   0  0  0  0  0  0  0  0  0  0  0  0
    1.1542   -1.4167    0.0000 H   0  0  0  0  0  0  0  0  0  0  0  0
  2  6  1  0
  3  1  1  0
  4  1  1  0
  5  3  1  0
  6  4  1  0
  7 12  1  0
  8  3  1  0
  9  1  2  0
 10  2  2  0
 11 14  1  0
 13 12  1  6
 13  9  1  0
 14  6  2  0
 15 13  1  0
 16  7  1  0
 17  7  2  0
 18  4  2  0
 19  5  1  0
 20 18  1  0
 21 20  2  0
 22 16  1  0
 23 16  1  0
 24 22  1  0
 25 23  1  0
  3 26  1  1
  8  2  1  0
  5 15  1  0
 14 21  1  0
 10 11  1  0
M  END
> <chembl_id>
CHEMBL157138

> <chembl_pref_name>
LISURIDE
