
     RDKit          2D

 22 23  0  0  0  0  0  0  0  0999 V2000
    3.0250  -16.9042    0.0000 Cl  0  0  0  0  0  0  0  0  0  0  0  0
    2.1167  -15.2333    0.0000 C   0  0  0  0  0  0  0  0  0  0  0  0
    0.8917  -15.9500    0.0000 C   0  0  0  0  0  0  0  0  0  0  0  0
    0.8875  -15.2417    0.0000 O   0  0  0  0  0  0  0  0  0  0  0  0
    2.6875  -14.8167    0.0000 S   0  0  0  0  0  0  0  0  0  0  0  0
    1.5000  -14.8833    0.0000 C   0  0  0  0  0  0  0  0  0  0  0  0
    0.2833  -16.3083    0.0000 C   0  0  0  0  0  0  0  0  0  0  0  0
    2.3333  -15.9083    0.0000 C   0  0  0  0  0  0  0  0  0  0  0  0
    3.2625  -15.2333    0.0000 C   0  0  0  0  0  0  0  0  0  0  0  0
    3.0417  -15.9083    0.0000 C   0  0  0  0  0  0  0  0  0  0  0  0
    0.2833  -17.0167    0.0000 C   0  0  0  0  0  0  0  0  0  0  0  0
    1.4958  -14.1750    0.0000 C   0  0  0  0  0  0  0  0  0  0  0  0
    2.7208  -14.1708    0.0000 N   0  0  0  0  0  0  0  0  0  0  0  0
    1.5083  -16.3000    0.0000 C   0  0  0  0  0  0  0  0  0  0  0  0
    1.5125  -17.0125    0.0000 C   0  0  0  0  0  0  0  0  0  0  0  0
    2.1083  -13.8167    0.0000 C   0  0  0  0  0  0  0  0  0  0  0  0
   -0.3292  -15.9542    0.0000 C   0  0  0  0  0  0  0  0  0  0  0  0
    0.9000  -17.3708    0.0000 C   0  0  0  0  0  0  0  0  0  0  0  0
    3.3333  -13.8125    0.0000 C   0  0  0  0  0  0  0  0  0  0  0  0
   -0.3292  -17.3750    0.0000 C   0  0  0  0  0  0  0  0  0  0  0  0
   -0.9417  -16.3125    0.0000 C   0  0  0  0  0  0  0  0  0  0  0  0
   -0.9417  -17.0208    0.0000 C   0  0  0  0  0  0  0  0  0  0  0  0
  3  4  1  0
  4  6  1  0
  5  2  1  0
  6  2  1  0
  7  3  1  0
  8  2  2  0
  9  5  1  0
 10  8  1  0
 11  7  1  0
  6 12  1  1
 13 16  1  0
 14  3  2  0
 15 14  1  0
 16 12  1  0
 17  7  2  0
 18 11  1  0
 19 13  1  0
 20 11  2  0
 21 17  1  0
 22 21  2  0
  9 10  2  0
 15 18  2  0
 20 22  1  0
M  END
> <chembl_id>
CHEMBL1200328

> <chembl_pref_name>
DULOXETINE HYDROCHLORIDE
