
     RDKit          2D

 21 23  0  0  0  0  0  0  0  0999 V2000
    0.2500    0.6708    0.0000 N   0  0  0  0  0  0  0  0  0  0  0  0
   -0.6000    1.3208    0.0000 C   0  0  0  0  0  0  0  0  0  0  0  0
   -0.2583    2.3208    0.0000 C   0  0  0  0  0  0  0  0  0  0  0  0
    1.1292    1.3000    0.0000 C   0  0  0  0  0  0  0  0  0  0  0  0
    0.8042    2.3208    0.0000 C   0  0  0  0  0  0  0  0  0  0  0  0
    0.2292   -0.3917    0.0000 C   0  0  0  0  0  0  0  0  0  0  0  0
    1.1542   -0.9167    0.0000 C   0  0  0  0  0  0  0  0  0  0  0  0
   -1.5333    0.8375    0.0000 C   0  0  0  0  0  0  0  0  0  0  0  0
    2.0792   -2.5167    0.0000 N   0  0  0  0  0  0  0  0  0  0  0  0
   -0.7458    3.2708    0.0000 C   0  0  0  0  0  0  0  0  0  0  0  0
    2.1750    1.0708    0.0000 C   0  0  0  0  0  0  0  0  0  0  0  0
    1.5250    3.1083    0.0000 C   0  0  0  0  0  0  0  0  0  0  0  0
    1.1542   -1.9917    0.0000 C   0  0  0  0  0  0  0  0  0  0  0  0
    3.0042   -1.9917    0.0000 C   0  0  0  0  0  0  0  0  0  0  0  0
    2.0542   -3.5875    0.0000 C   0  0  0  0  0  0  0  0  0  0  0  0
   -1.7458    3.5958    0.0000 C   0  0  0  0  0  0  0  0  0  0  0  0
   -2.5500    1.1833    0.0000 C   0  0  0  0  0  0  0  0  0  0  0  0
    2.5417    2.8750    0.0000 C   0  0  0  0  0  0  0  0  0  0  0  0
    2.8917    1.8583    0.0000 C   0  0  0  0  0  0  0  0  0  0  0  0
   -3.0125    2.1333    0.0000 C   0  0  0  0  0  0  0  0  0  0  0  0
   -2.6875    3.1333    0.0000 C   0  0  0  0  0  0  0  0  0  0  0  0
  2  1  1  0
  3  2  2  0
  4  1  1  0
  5  4  2  0
  6  1  1  0
  7  6  1  0
  8  2  1  0
  9 13  1  0
 10  3  1  0
 11  4  1  0
 12  5  1  0
 13  7  1  0
 14  9  1  0
 15  9  1  0
 16 10  1  0
 17  8  1  0
 18 19  1  0
 19 11  2  0
 20 17  1  0
 21 20  1  0
  5  3  1  0
 12 18  2  0
 16 21  1  0
M  END
> <chembl_id>
CHEMBL126224

> <chembl_pref_name>
IPRINDOLE
