
     RDKit          2D

 39 36  0  0  0  0  0  0  0  0999 V2000
    4.6792   -7.7792    0.0000 I   0  0  0  0  0  0  0  0  0  0  0  0
    6.6292   -7.2792    0.0000 C   0  0  0  0  0  0  0  0  0  0  0  0
    9.7000   -6.9167    0.0000 N   0  0  0  0  0  0  0  0  0  0  0  0
    3.5667   -6.9292    0.0000 N   0  0  0  0  0  0  0  0  0  0  0  0
    4.7917   -8.3500    0.0000 N   0  0  0  0  0  0  0  0  0  0  0  0
    7.2417   -6.9292    0.0000 C   0  0  0  0  0  0  0  0  0  0  0  0
    6.0167   -6.9292    0.0000 C   0  0  0  0  0  0  0  0  0  0  0  0
    6.6375   -7.9917    0.0000 O   0  0  0  0  0  0  0  0  0  0  0  0
    7.8625   -7.2792    0.0000 O   0  0  0  0  0  0  0  0  0  0  0  0
    5.4042   -7.2792    0.0000 O   0  0  0  0  0  0  0  0  0  0  0  0
    6.0250   -8.3417    0.0000 C   0  0  0  0  0  0  0  0  0  0  0  0
    8.4750   -6.9250    0.0000 C   0  0  0  0  0  0  0  0  0  0  0  0
    4.7917   -6.9292    0.0000 C   0  0  0  0  0  0  0  0  0  0  0  0
    4.1792   -7.2792    0.0000 C   0  0  0  0  0  0  0  0  0  0  0  0
    5.4042   -7.9917    0.0000 C   0  0  0  0  0  0  0  0  0  0  0  0
    9.0875   -7.2792    0.0000 C   0  0  0  0  0  0  0  0  0  0  0  0
   10.3167   -7.2750    0.0000 C   0  0  0  0  0  0  0  0  0  0  0  0
   10.0500   -6.3042    0.0000 C   0  0  0  0  0  0  0  0  0  0  0  0
    9.3417   -6.3042    0.0000 C   0  0  0  0  0  0  0  0  0  0  0  0
    4.1792   -7.9917    0.0000 C   0  0  0  0  0  0  0  0  0  0  0  0
    4.4375   -8.9625    0.0000 C   0  0  0  0  0  0  0  0  0  0  0  0
    5.1417   -8.9625    0.0000 C   0  0  0  0  0  0  0  0  0  0  0  0
    2.9542   -7.2792    0.0000 C   0  0  0  0  0  0  0  0  0  0  0  0
    3.2042   -6.3125    0.0000 C   0  0  0  0  0  0  0  0  0  0  0  0
    3.9167   -6.3125    0.0000 C   0  0  0  0  0  0  0  0  0  0  0  0
    6.6292   -5.8625    0.0000 C   0  0  0  0  0  0  0  0  0  0  0  0
    7.2417   -6.2167    0.0000 C   0  0  0  0  0  0  0  0  0  0  0  0
    6.0167   -6.2167    0.0000 C   0  0  0  0  0  0  0  0  0  0  0  0
    2.5000   -6.3125    0.0000 C   0  0  0  0  0  0  0  0  0  0  0  0
    3.5667   -8.3500    0.0000 C   0  0  0  0  0  0  0  0  0  0  0  0
    8.6292   -6.3042    0.0000 C   0  0  0  0  0  0  0  0  0  0  0  0
    3.7292   -8.9542    0.0000 C   0  0  0  0  0  0  0  0  0  0  0  0
    4.6250   -6.3042    0.0000 C   0  0  0  0  0  0  0  0  0  0  0  0
    5.8542   -8.9667    0.0000 C   0  0  0  0  0  0  0  0  0  0  0  0
   10.7542   -6.2917    0.0000 C   0  0  0  0  0  0  0  0  0  0  0  0
    2.3417   -6.9292    0.0000 C   0  0  0  0  0  0  0  0  0  0  0  0
   10.9292   -6.9167    0.0000 C   0  0  0  0  0  0  0  0  0  0  0  0
    3.4292   -5.9375    0.0000 I   0  0  0  0  0  0  0  0  0  0  0  0
    9.6417   -5.8750    0.0000 I   0  0  0  0  0  0  0  0  0  0  0  0
  3 16  1  0
  4 14  1  0
  5 15  1  0
  6  2  2  0
  7  2  1  0
  8  2  1  0
  9  6  1  0
 10  7  1  0
 11  8  1  0
 12  9  1  0
 13 10  1  0
 14 13  1  0
 15 11  1  0
 16 12  1  0
 17  3  1  0
 18  3  1  0
 19  3  1  0
 20  5  1  0
 21  5  1  0
 22  5  1  0
 23  4  1  0
 24  4  1  0
 25  4  1  0
 26 28  1  0
 27  6  1  0
 28  7  2  0
 29 24  1  0
 30 20  1  0
 31 19  1  0
 32 21  1  0
 33 25  1  0
 34 22  1  0
 35 18  1  0
 36 23  1  0
 37 17  1  0
 26 27  2  0
M  CHG  6   1  -1   3   1   4   1   5   1  38  -1  39  -1
M  END
> <chembl_id>
CHEMBL1200993

> <chembl_pref_name>
GALLAMINE TRIETHIODIDE
