
     RDKit          2D

 29 30  0  0  0  0  0  0  0  0999 V2000
    1.7448   -2.4209    0.0000 O   0  0  0  0  0  0  0  0  0  0  0  0
    4.2881   -0.9812    0.0000 N   0  0  0  0  0  0  0  0  0  0  0  0
    3.4363   -0.9687    0.0000 C   0  0  0  0  0  0  0  0  0  0  0  0
    3.4363   -0.1545    0.0000 C   0  0  0  0  0  0  0  0  0  0  0  0
    4.2881   -0.1545    0.0000 C   0  0  0  0  0  0  0  0  0  0  0  0
    5.0020   -1.3946    0.0000 C   0  0  0  0  0  0  0  0  0  0  0  0
    2.8601    0.4342    0.0000 N   0  0  0  0  0  0  0  0  0  0  0  0
    5.0020    0.2588    0.0000 S   0  0  0  0  0  0  0  0  0  0  0  0
    2.1461    0.0208    0.0000 C   0  0  0  0  0  0  0  0  0  0  0  0
    5.7160   -0.9812    0.0000 C   0  0  0  0  0  0  0  0  0  0  0  0
    5.0020   -2.2213    0.0000 C   0  0  0  0  0  0  0  0  0  0  0  0
    1.4196    0.4342    0.0000 C   0  0  0  0  0  0  0  0  0  0  0  0
    5.7160   -0.1545    0.0000 C   0  0  0  0  0  0  0  0  0  0  0  0
    2.8476   -1.5449    0.0000 O   0  0  0  0  0  0  0  0  0  0  0  0
    6.4300   -1.3946    0.0000 C   0  0  0  0  0  0  0  0  0  0  0  0
    2.1461   -0.8059    0.0000 O   0  0  0  0  0  0  0  0  0  0  0  0
    0.7057    0.0083    0.0000 C   0  0  0  0  0  0  0  0  0  0  0  0
    4.2881   -2.6346    0.0000 O   0  0  0  0  0  0  0  0  0  0  0  0
    7.1440   -0.9812    0.0000 C   0  0  0  0  0  0  0  0  0  0  0  0
    0.7057   -0.8184    0.0000 C   0  0  0  0  0  0  0  0  0  0  0  0
   -0.0083    0.4217    0.0000 C   0  0  0  0  0  0  0  0  0  0  0  0
    1.4196    1.2609    0.0000 N   0  0  0  0  0  0  0  0  0  0  0  0
    5.7160   -2.6346    0.0000 O   0  0  0  0  0  0  0  0  0  0  0  0
   -0.7223   -0.8184    0.0000 C   0  0  0  0  0  0  0  0  0  0  0  0
   -0.7223    0.0083    0.0000 C   0  0  0  0  0  0  0  0  0  0  0  0
   -0.0083   -1.2317    0.0000 C   0  0  0  0  0  0  0  0  0  0  0  0
   -1.4363   -1.2317    0.0000 O   0  0  0  0  0  0  0  0  0  0  0  0
    7.8663   -1.3904    0.0000 C   0  0  0  0  0  0  0  0  0  0  0  0
    4.5386    0.6346    0.0000 H   0  0  0  0  0  0  0  0  0  0  0  0
  3  2  1  0
  4  5  1  0
  5  2  1  0
  6  2  1  0
  4  7  1  1
  8  5  1  0
  9  7  1  0
 10  6  2  0
 11  6  1  0
 12  9  1  0
 13 10  1  0
 14  3  2  0
 15 10  1  0
 16  9  2  0
 17 12  1  0
 18 11  2  0
 19 15  2  0
 20 17  1  0
 21 17  2  0
 12 22  1  1
 23 11  1  0
 24 25  2  0
 25 21  1  0
 26 20  2  0
 27 24  1  0
 28 19  1  0
  5 29  1  6
  4  3  1  0
  8 13  1  0
 24 26  1  0
M  END
> <chembl_id>
CHEMBL5314373

> <chembl_pref_name>
CEFPROZIL, (E)-
