
     RDKit          2D

 43 49  0  0  1  0  0  0  0  0999 V2000
    4.1667   -6.3875    0.0000 N   0  0  0  0  0  0  0  0  0  0  0  0
    5.1667   -7.1000    0.0000 C   0  0  0  0  0  0  0  0  0  0  0  0
    3.7625   -6.9583    0.0000 C   0  0  0  0  0  0  0  0  0  0  0  0
    4.7542   -7.6750    0.0000 C   0  0  0  0  0  0  0  0  0  0  0  0
    4.8792   -6.4542    0.0000 C   0  0  0  0  0  0  0  0  0  0  0  0
    3.0917   -6.7458    0.0000 C   0  0  0  0  0  0  0  0  0  0  0  0
    3.0875   -6.0458    0.0000 C   0  0  0  0  0  0  0  0  0  0  0  0
    4.0542   -7.6042    0.0000 C   0  0  0  0  0  0  0  0  0  0  0  0
    2.4917   -7.1000    0.0000 N   0  0  0  0  0  0  0  0  0  0  0  0
    5.0375   -8.3167    0.0000 C   0  0  0  0  0  0  0  0  0  0  0  0
    3.7500   -5.8208    0.0000 C   0  0  0  0  0  0  0  0  0  0  0  0
   -0.5625   -6.0750    0.0000 C   0  0  0  0  0  0  0  0  0  0  0  0
    2.4792   -5.7042    0.0000 C   0  0  0  0  0  0  0  0  0  0  0  0
   -1.1750   -5.7208    0.0000 N   0  0  0  0  0  0  0  0  0  0  0  0
    5.7417   -8.3917    0.0000 C   0  0  0  0  0  0  0  0  0  0  0  0
    1.8792   -6.0583    0.0000 C   0  0  0  0  0  0  0  0  0  0  0  0
    1.8833   -6.7583    0.0000 C   0  0  0  0  0  0  0  0  0  0  0  0
    5.8708   -7.1708    0.0000 C   0  0  0  0  0  0  0  0  0  0  0  0
    6.1583   -7.8167    0.0000 O   0  0  0  0  0  0  0  0  0  0  0  0
   -3.0125   -4.6667    0.0000 N   0  0  0  0  0  0  0  0  0  0  0  0
    0.0500   -5.7208    0.0000 O   0  0  0  0  0  0  0  0  0  0  0  0
   -2.4042   -5.0208    0.0000 C   0  0  0  0  0  0  0  0  0  0  0  0
    5.2917   -5.8792    0.0000 O   0  0  0  0  0  0  0  0  0  0  0  0
    1.2708   -5.7125    0.0000 C   0  0  0  0  0  0  0  0  0  0  0  0
   -2.4000   -5.7292    0.0000 C   0  0  0  0  0  0  0  0  0  0  0  0
   -1.7917   -4.6625    0.0000 C   0  0  0  0  0  0  0  0  0  0  0  0
   -1.7875   -6.0792    0.0000 C   0  0  0  0  0  0  0  0  0  0  0  0
   -1.1750   -5.0167    0.0000 C   0  0  0  0  0  0  0  0  0  0  0  0
   -0.5625   -6.7833    0.0000 O   0  0  0  0  0  0  0  0  0  0  0  0
    0.6667   -6.0708    0.0000 C   0  0  0  0  0  0  0  0  0  0  0  0
    6.0333   -9.0375    0.0000 O   0  0  0  0  0  0  0  0  0  0  0  0
    1.2875   -7.1125    0.0000 C   0  0  0  0  0  0  0  0  0  0  0  0
    4.4000   -8.6125    0.0000 O   0  0  0  0  0  0  0  0  0  0  0  0
    0.6792   -6.7708    0.0000 C   0  0  0  0  0  0  0  0  0  0  0  0
    4.9708   -9.0250    0.0000 C   0  0  0  0  0  0  0  0  0  0  0  0
    2.4750   -4.9958    0.0000 C   0  0  0  0  0  0  0  0  0  0  0  0
   -3.6250   -5.0250    0.0000 C   0  0  0  0  0  0  0  0  0  0  0  0
   -3.0167   -3.9625    0.0000 C   0  0  0  0  0  0  0  0  0  0  0  0
    4.3292   -9.3208    0.0000 C   0  0  0  0  0  0  0  0  0  0  0  0
    3.0833   -4.6333    0.0000 C   0  0  0  0  0  0  0  0  0  0  0  0
   -3.6333   -3.6125    0.0000 C   0  0  0  0  0  0  0  0  0  0  0  0
   -4.2375   -4.6792    0.0000 C   0  0  0  0  0  0  0  0  0  0  0  0
   -4.2458   -3.9708    0.0000 C   0  0  0  0  0  0  0  0  0  0  0  0
  2  5  1  0
  3  1  1  0
  4  8  1  0
  5  1  1  0
  6  3  1  0
  7 11  1  0
  8  3  2  0
  9  6  2  0
 10  4  1  0
 11  1  1  0
 12 21  1  0
 13  7  2  0
 14 12  1  0
 15 10  1  0
 16 13  1  0
 17  9  1  0
 18  2  1  0
 19 18  1  0
 20 22  1  0
 21 30  1  0
 22 26  1  0
 23  5  2  0
 24 16  1  0
 25 27  1  0
 26 28  1  0
 27 14  1  0
 28 14  1  0
 29 12  2  0
 30 24  2  0
 31 15  2  0
 32 17  1  0
 33 10  1  0
 34 32  2  0
 10 35  1  6
 36 13  1  0
 37 20  1  0
 38 20  1  0
 39 35  1  0
 40 36  1  0
 41 38  1  0
 42 37  1  0
 43 41  1  0
  7  6  1  0
  4  2  2  0
 16 17  2  0
 15 19  1  0
 34 30  1  0
 22 25  1  0
 43 42  1  0
M  END
> <chembl_id>
CHEMBL481

> <chembl_pref_name>
IRINOTECAN
