
     RDKit          2D

 26 27  0  0  1  0  0  0  0  0999 V2000
    1.0667   -0.6250    0.0000 N   0  0  0  0  0  0  0  0  0  0  0  0
    0.1667   -0.4250    0.0000 C   0  0  0  0  0  0  0  0  0  0  0  0
   -0.5083   -1.0375    0.0000 C   0  0  0  0  0  0  0  0  0  0  0  0
    1.3542   -1.5250    0.0000 C   0  0  0  0  0  0  0  0  0  0  0  0
    1.7042    0.0458    0.0000 N   0  0  0  0  0  0  0  0  0  0  0  0
    2.2542   -1.7167    0.0000 N   0  0  0  0  0  0  0  0  0  0  0  0
   -0.1708    0.4333    0.0000 O   0  0  0  0  0  0  0  0  0  0  0  0
   -1.2958   -0.5625    0.0000 C   0  0  0  0  0  0  0  0  0  0  0  0
   -1.0958    0.3458    0.0000 C   0  0  0  0  0  0  0  0  0  0  0  0
    2.6167   -0.1542    0.0000 C   0  0  0  0  0  0  0  0  0  0  0  0
    2.8917   -1.0417    0.0000 C   0  0  0  0  0  0  0  0  0  0  0  0
   -0.4333   -1.9542    0.0000 O   0  0  0  0  0  0  0  0  0  0  0  0
   -2.1583   -0.9292    0.0000 O   0  0  0  0  0  0  0  0  0  0  0  0
    0.7125   -2.1917    0.0000 O   0  0  0  0  0  0  0  0  0  0  0  0
   -1.1833   -2.4875    0.0000 C   0  0  0  0  0  0  0  0  0  0  0  0
   -2.8958   -0.3625    0.0000 C   0  0  0  0  0  0  0  0  0  0  0  0
   -2.0208    2.6208    0.0000 C   0  0  0  0  0  0  0  0  0  0  0  0
   -1.7000    1.0250    0.0000 C   0  0  0  0  0  0  0  0  0  0  0  0
    3.7917   -1.2417    0.0000 O   0  0  0  0  0  0  0  0  0  0  0  0
   -1.4208    1.9208    0.0000 O   0  0  0  0  0  0  0  0  0  0  0  0
   -1.1083   -3.4167    0.0000 O   0  0  0  0  0  0  0  0  0  0  0  0
   -3.7458   -0.7292    0.0000 O   0  0  0  0  0  0  0  0  0  0  0  0
   -1.7125    3.4875    0.0000 O   0  0  0  0  0  0  0  0  0  0  0  0
   -2.0208   -2.1000    0.0000 C   0  0  0  0  0  0  0  0  0  0  0  0
   -2.7833    0.5583    0.0000 C   0  0  0  0  0  0  0  0  0  0  0  0
   -2.9250    2.4458    0.0000 C   0  0  0  0  0  0  0  0  0  0  0  0
  2  1  1  1
  3  2  1  0
  4  1  1  0
  5  1  1  0
  6  4  1  0
  7  2  1  0
  8  3  1  0
  9  7  1  0
 10  5  2  0
 11 10  1  0
  3 12  1  6
  8 13  1  6
 14  4  2  0
 15 12  1  0
 16 13  1  0
 17 20  1  0
  9 18  1  1
 19 11  2  0
 20 18  1  0
 21 15  2  0
 22 16  2  0
 23 17  2  0
 24 15  1  0
 25 16  1  0
 26 17  1  0
  6 11  1  0
  8  9  1  0
M  END
> <chembl_id>
CHEMBL515914

> <chembl_pref_name>
AZARIBINE
