
     RDKit          2D

 37 38  0  0  0  0  0  0  0  0999 V2000
   21.6964  -12.0000    0.0000 O   0  0  0  0  0  0  0  0  0  0  0  0
   15.3254  -11.4098    0.0000 C   0  0  0  0  0  0  0  0  0  0  0  0
   16.1512  -11.4199    0.0000 C   0  0  0  0  0  0  0  0  0  0  0  0
   14.9302  -12.1257    0.0000 C   0  0  0  0  0  0  0  0  0  0  0  0
   16.5616  -12.1256    0.0000 C   0  0  0  0  0  0  0  0  0  0  0  0
   14.9151  -10.7042    0.0000 C   0  0  0  0  0  0  0  0  0  0  0  0
   15.7759  -12.5760    0.0000 O   0  0  0  0  0  0  0  0  0  0  0  0
   15.3204   -9.9985    0.0000 C   0  0  0  0  0  0  0  0  0  0  0  0
   16.5615  -10.7041    0.0000 C   0  0  0  0  0  0  0  0  0  0  0  0
   16.1511   -9.9936    0.0000 C   0  0  0  0  0  0  0  0  0  0  0  0
   14.9150   -9.2830    0.0000 N   0  0  0  0  0  0  0  0  0  0  0  0
   15.7457  -10.6942    0.0000 C   0  0  0  0  0  0  0  0  0  0  0  0
   14.1044  -12.1356    0.0000 C   0  0  0  0  0  0  0  0  0  0  0  0
   14.0992  -10.7093    0.0000 C   0  0  0  0  0  0  0  0  0  0  0  0
   17.3823  -12.1255    0.0000 C   0  0  0  0  0  0  0  0  0  0  0  0
   15.7357   -9.2829    0.0000 C   0  0  0  0  0  0  0  0  0  0  0  0
   17.3822  -10.7041    0.0000 C   0  0  0  0  0  0  0  0  0  0  0  0
   13.6889  -11.4249    0.0000 C   0  0  0  0  0  0  0  0  0  0  0  0
   13.6940  -12.8563    0.0000 O   0  0  0  0  0  0  0  0  0  0  0  0
   17.7927  -11.4198    0.0000 C   0  0  0  0  0  0  0  0  0  0  0  0
   17.8027  -12.8411    0.0000 O   0  0  0  0  0  0  0  0  0  0  0  0
   14.1991   -8.8676    0.0000 C   0  0  0  0  0  0  0  0  0  0  0  0
   18.6235  -12.8410    0.0000 C   0  0  0  0  0  0  0  0  0  0  0  0
   14.3941   -9.8107    0.0000 H   0  0  0  0  0  0  0  0  0  0  0  0
   15.8385   -9.1034    0.0000 H   0  0  0  0  0  0  0  0  0  0  0  0
   14.6857  -13.1307    0.0000 H   0  0  0  0  0  0  0  0  0  0  0  0
    8.5779  -10.6496    0.0000 O   0  0  0  0  0  0  0  0  0  0  0  0
    9.3198  -11.9308    0.0000 O   0  0  0  0  0  0  0  0  0  0  0  0
   12.2821  -11.0748    0.0000 O   0  0  0  0  0  0  0  0  0  0  0  0
   11.5403   -9.7937    0.0000 O   0  0  0  0  0  0  0  0  0  0  0  0
   10.0615   -9.7938    0.0000 O   0  0  0  0  0  0  0  0  0  0  0  0
   10.7986  -11.9307    0.0000 O   0  0  0  0  0  0  0  0  0  0  0  0
    9.3216  -11.0756    0.0000 C   0  0  0  0  0  0  0  0  0  0  0  0
   10.0606  -10.6489    0.0000 C   0  0  0  0  0  0  0  0  0  0  0  0
   10.7995  -11.0756    0.0000 C   0  0  0  0  0  0  0  0  0  0  0  0
   11.5385  -10.6489    0.0000 C   0  0  0  0  0  0  0  0  0  0  0  0
   21.2143  -10.6071    0.0000 O   0  0  0  0  0  0  0  0  0  0  0  0
 11 16  1  0
  2 12  1  6
 13  4  1  0
 14  6  1  0
 15  5  2  0
 16 12  1  0
 17  9  1  0
 18 14  1  0
 19 13  2  0
 20 17  2  0
 21 15  1  0
 22 11  1  0
 23 21  1  0
  6 24  1  6
  7  5  1  0
  8 11  1  0
 18 13  1  0
 10  9  1  0
 15 20  1  0
  3  2  1  0
  4  2  1  0
  5  3  1  0
  6  2  1  0
  4  7  1  0
  8  6  1  0
  9  3  2  0
 10  8  1  0
  8 25  1  1
  4 26  1  6
 33 28  2  0
 34 31  1  0
 35 32  1  0
 33 27  1  0
 35 36  1  0
 34 35  1  0
 36 29  1  0
 33 34  1  0
 36 30  2  0
M  END
> <chembl_id>
CHEMBL3989677

> <chembl_pref_name>
HYDROCODONE BITARTRATE
