
     RDKit          2D

 60 62  0  0  0  0  0  0  0  0999 V2000
    9.7073   -3.1251    0.0000 C   0  0  0  0  0  0  0  0  0  0  0  0
    7.5623   -4.3361    0.0000 C   0  0  0  0  0  0  0  0  0  0  0  0
    6.1292   -4.3361    0.0000 C   0  0  0  0  0  0  0  0  0  0  0  0
    5.4151   -2.2844    0.0000 C   0  0  0  0  0  0  0  0  0  0  0  0
    6.8386   -4.7493    0.0000 C   0  0  0  0  0  0  0  0  0  0  0  0
    9.7359   -2.3034    0.0000 C   0  0  0  0  0  0  0  0  0  0  0  0
    8.2623   -3.1107    0.0000 C   0  0  0  0  0  0  0  0  0  0  0  0
    7.5528   -3.5145    0.0000 C   0  0  0  0  0  0  0  0  0  0  0  0
    6.1292   -1.0519    0.0000 C   0  0  0  0  0  0  0  0  0  0  0  0
    6.1292   -3.5145    0.0000 O   0  0  0  0  0  0  0  0  0  0  0  0
    6.1292   -1.8711    0.0000 C   0  0  0  0  0  0  0  0  0  0  0  0
    6.8386   -0.6387    0.0000 C   0  0  0  0  0  0  0  0  0  0  0  0
    8.9764   -3.5145    0.0000 O   0  0  0  0  0  0  0  0  0  0  0  0
    9.0337   -6.7986    0.0000 C   0  0  0  0  0  0  0  0  0  0  0  0
   10.4643   -1.9142    0.0000 C   0  0  0  0  0  0  0  0  0  0  0  0
    8.2623   -2.2844    0.0000 C   0  0  0  0  0  0  0  0  0  0  0  0
    8.2837   -5.5757    0.0000 C   0  0  0  0  0  0  0  0  0  0  0  0
    9.0122   -5.9770    0.0000 C   0  0  0  0  0  0  0  0  0  0  0  0
   10.4095   -3.5717    0.0000 O   0  0  0  0  0  0  0  0  0  0  0  0
    7.5766   -6.0057    0.0000 O   0  0  0  0  0  0  0  0  0  0  0  0
    5.4151   -3.1107    0.0000 C   0  0  0  0  0  0  0  0  0  0  0  0
    8.3267   -7.2238    0.0000 C   0  0  0  0  0  0  0  0  0  0  0  0
    8.2623   -4.7493    0.0000 O   0  0  0  0  0  0  0  0  0  0  0  0
    7.6006   -6.8321    0.0000 C   0  0  0  0  0  0  0  0  0  0  0  0
    7.5528   -1.0519    0.0000 C   0  0  0  0  0  0  0  0  0  0  0  0
    7.5528   -1.8711    0.0000 C   0  0  0  0  0  0  0  0  0  0  0  0
   11.1619   -2.3513    0.0000 C   0  0  0  0  0  0  0  0  0  0  0  0
   10.4978   -1.0924    0.0000 N   0  0  0  0  0  0  0  0  0  0  0  0
    5.4151   -4.7493    0.0000 O   0  0  0  0  0  0  0  0  0  0  0  0
   11.1380   -3.1777    0.0000 C   0  0  0  0  0  0  0  0  0  0  0  0
    6.8386    0.1830    0.0000 N   0  0  0  0  0  0  0  0  0  0  0  0
    9.0528   -7.6251    0.0000 O   0  0  0  0  0  0  0  0  0  0  0  0
    4.6937   -2.6880    0.0000 C   0  0  0  0  0  0  0  0  0  0  0  0
    6.8482   -5.5757    0.0000 C   0  0  0  0  0  0  0  0  0  0  0  0
    6.8386   -3.1012    0.0000 C   0  0  0  0  0  0  0  0  0  0  0  0
    5.4151   -0.6387    0.0000 C   0  0  0  0  0  0  0  0  0  0  0  0
    9.7383   -6.3711    0.0000 C   0  0  0  0  0  0  0  0  0  0  0  0
    8.9764   -2.6976    0.0000 C   0  0  0  0  0  0  0  0  0  0  0  0
    4.7009   -3.5239    0.0000 C   0  0  0  0  0  0  0  0  0  0  0  0
    6.9031   -7.2692    0.0000 C   0  0  0  0  0  0  0  0  0  0  0  0
    8.2623   -0.6387    0.0000 C   0  0  0  0  0  0  0  0  0  0  0  0
    9.7861   -0.6553    0.0000 C   0  0  0  0  0  0  0  0  0  0  0  0
   11.2193   -0.7032    0.0000 C   0  0  0  0  0  0  0  0  0  0  0  0
   11.8331   -3.6148    0.0000 C   0  0  0  0  0  0  0  0  0  0  0  0
    9.7717   -8.0192    0.0000 C   0  0  0  0  0  0  0  0  0  0  0  0
    4.7009   -4.3457    0.0000 C   0  0  0  0  0  0  0  0  0  0  0  0
    8.9978   -5.1601    0.0000 H   0  0  0  0  0  0  0  0  0  0  0  0
    9.7024   -3.9515    0.0000 H   0  0  0  0  0  0  0  0  0  0  0  0
    7.5514    0.5962    0.0000 O   0  0  0  0  0  0  0  0  0  0  0  0
    8.2689    0.1830    0.0000 C   0  0  0  0  0  0  0  0  0  0  0  0
    8.9818    0.5962    0.0000 O   0  0  0  0  0  0  0  0  0  0  0  0
    9.6946    0.1830    0.0000 C   0  0  0  0  0  0  0  0  0  0  0  0
   10.4121    0.5962    0.0000 C   0  0  0  0  0  0  0  0  0  0  0  0
   11.1248    0.1830    0.0000 O   0  0  0  0  0  0  0  0  0  0  0  0
   11.8377    0.5962    0.0000 C   0  0  0  0  0  0  0  0  0  0  0  0
    4.8991   -1.6418    0.0000 O   0  0  0  0  0  0  0  0  0  0  0  0
    9.0337   -1.8664    0.0000 O   0  0  0  0  0  0  0  0  0  0  0  0
    8.2598   -1.4531    0.0000 O   0  0  0  0  0  0  0  0  0  0  0  0
    6.8386   -2.2844    0.0000 O   0  0  0  0  0  0  0  0  0  0  0  0
    8.3481   -8.0503    0.0000 O   0  0  0  0  0  0  0  0  0  0  0  0
  6  1  1  0
  7 13  1  6
  8  7  1  0
  9 12  1  0
 10  3  1  0
 11  9  1  0
 12 25  1  0
 13  1  1  0
 14 18  1  0
 15  6  1  0
 16  7  1  0
 17 23  1  0
 18 17  1  0
 19  1  1  0
 20 17  1  0
 21 10  1  0
 22 24  1  0
  2 23  1  6
 24 20  1  0
 25 26  1  0
 26 16  1  0
 27 30  1  0
 15 28  1  1
 29  3  2  0
 30 19  1  0
 31 12  2  0
  4 56  1  1
  6 57  1  6
 16 58  1  1
 11 59  1  1
 14 32  1  1
 22 60  1  1
 33  4  1  0
  5 34  1  1
  8 35  1  6
  9 36  1  1
 37 14  1  0
 38 16  1  0
 21 39  1  6
 24 40  1  6
 25 41  1  6
 42 28  1  0
 43 28  1  0
 30 44  1  1
 45 32  1  0
 46 39  1  0
 17 47  1  6
  1 48  1  6
 27 15  1  0
  4 21  1  0
 22 14  1  0
 31 49  1  0
 49 50  1  0
 50 51  1  0
 51 52  1  0
 52 53  1  0
 53 54  1  0
 54 55  1  0
  2  8  1  0
  3  5  1  0
  4 11  1  0
  5  2  1  0
M  END
> <chembl_id>
CHEMBL1214185

> <chembl_pref_name>
ROXITHROMYCIN
