
     RDKit          2D

  7  6  0  0  0  0  0  0  0  0999 V2000
    0.0917   -8.3125    0.0000 C   0  0  0  0  0  0  0  0  0  0  0  0
    0.7042   -7.9542    0.0000 C   0  0  0  0  0  0  0  0  0  0  0  0
   -0.5250   -7.9542    0.0000 F   0  0  0  0  0  0  0  0  0  0  0  0
    0.4417   -8.9250    0.0000 F   0  0  0  0  0  0  0  0  0  0  0  0
   -0.2708   -8.9250    0.0000 F   0  0  0  0  0  0  0  0  0  0  0  0
    0.7042   -7.2500    0.0000 Br  0  0  0  0  0  0  0  0  0  0  0  0
    1.3167   -8.3125    0.0000 Cl  0  0  0  0  0  0  0  0  0  0  0  0
  2  1  1  0
  3  1  1  0
  4  1  1  0
  5  1  1  0
  6  2  1  0
  7  2  1  0
M  END
> <chembl_id>
CHEMBL931

> <chembl_pref_name>
HALOTHANE
