
     RDKit          2D

 35 38  0  0  1  0  0  0  0  0999 V2000
    5.1042   -4.9417    0.0000 C   0  0  0  0  0  0  0  0  0  0  0  0
    3.9167   -4.9417    0.0000 C   0  0  0  0  0  0  0  0  0  0  0  0
    6.3292   -4.9167    0.0000 C   0  0  0  0  0  0  0  0  0  0  0  0
    4.5125   -4.5917    0.0000 C   0  0  0  0  0  0  0  0  0  0  0  0
    5.7042   -4.5917    0.0000 C   0  0  0  0  0  0  0  0  0  0  0  0
    3.3167   -4.5917    0.0000 C   0  0  0  0  0  0  0  0  0  0  0  0
    5.1042   -5.6500    0.0000 C   0  0  0  0  0  0  0  0  0  0  0  0
    2.7167   -5.6500    0.0000 C   0  0  0  0  0  0  0  0  0  0  0  0
    2.7167   -4.9417    0.0000 C   0  0  0  0  0  0  0  0  0  0  0  0
    6.3042   -5.6500    0.0000 C   0  0  0  0  0  0  0  0  0  0  0  0
    3.3167   -5.9792    0.0000 C   0  0  0  0  0  0  0  0  0  0  0  0
    3.9167   -5.6500    0.0000 C   0  0  0  0  0  0  0  0  0  0  0  0
    5.7042   -5.9792    0.0000 C   0  0  0  0  0  0  0  0  0  0  0  0
    4.5125   -5.9792    0.0000 C   0  0  0  0  0  0  0  0  0  0  0  0
    6.9542   -4.5542    0.0000 C   0  0  0  0  0  0  0  0  0  0  0  0
    2.1167   -5.9792    0.0000 C   0  0  0  0  0  0  0  0  0  0  0  0
    2.1167   -4.5917    0.0000 C   0  0  0  0  0  0  0  0  0  0  0  0
    5.7042   -3.9042    0.0000 O   0  0  0  0  0  0  0  0  0  0  0  0
    3.3167   -3.9042    0.0000 O   0  0  0  0  0  0  0  0  0  0  0  0
    5.7042   -6.6625    0.0000 N   0  0  0  0  0  0  0  0  0  0  0  0
    5.0917   -4.1500    0.0000 O   0  0  0  0  0  0  0  0  0  0  0  0
    6.9542   -3.8292    0.0000 O   0  0  0  0  0  0  0  0  0  0  0  0
    4.5125   -3.6542    0.0000 O   0  0  0  0  0  0  0  0  0  0  0  0
    6.8792   -6.0042    0.0000 O   0  0  0  0  0  0  0  0  0  0  0  0
    3.0292   -6.7125    0.0000 O   0  0  0  0  0  0  0  0  0  0  0  0
    1.5250   -5.6500    0.0000 C   0  0  0  0  0  0  0  0  0  0  0  0
    1.5250   -4.9417    0.0000 C   0  0  0  0  0  0  0  0  0  0  0  0
    7.5792   -4.9125    0.0000 N   0  0  0  0  0  0  0  0  0  0  0  0
    3.7167   -6.8417    0.0000 C   0  0  0  0  0  0  0  0  0  0  0  0
    2.1167   -6.6917    0.0000 Cl  0  0  0  0  0  0  0  0  0  0  0  0
    2.1167   -3.9042    0.0000 O   0  0  0  0  0  0  0  0  0  0  0  0
    6.2917   -7.0000    0.0000 C   0  0  0  0  0  0  0  0  0  0  0  0
    5.1167   -7.0042    0.0000 C   0  0  0  0  0  0  0  0  0  0  0  0
    3.9125   -6.3000    0.0000 H   0  0  0  0  0  0  0  0  0  0  0  0
    5.0917   -6.3167    0.0000 H   0  0  0  0  0  0  0  0  0  0  0  0
  2  4  2  0
  3  5  1  0
  4  1  1  0
  5  1  1  0
  6  2  1  0
  7  1  1  0
  8 11  1  0
  9  6  1  0
 10 13  1  0
 11 12  1  0
 12  2  1  0
 13  7  1  0
 14  7  1  0
 15  3  1  0
 16  8  1  0
 17  9  1  0
 18  5  2  0
 19  6  2  0
 13 20  1  1
  1 21  1  1
 22 15  2  0
 23  4  1  0
 24 10  1  0
 11 25  1  6
 26 16  2  0
 27 17  2  0
 28 15  1  0
 29 11  1  0
 30 16  1  0
 31 17  1  0
 32 20  1  0
 33 20  1  0
 12 34  1  1
  7 35  1  1
 12 14  1  0
  3 10  2  0
  8  9  2  0
 26 27  1  0
M  END
> <chembl_id>
CHEMBL404520

> <chembl_pref_name>
CHLORTETRACYCLINE
