
     RDKit          2D

 15 16  0  0  0  0  0  0  0  0999 V2000
    9.3955   -5.0669    0.0000 C   0  0  0  0  0  0  0  0  0  0  0  0
   10.0659   -5.5477    0.0000 O   0  0  0  0  0  0  0  0  0  0  0  0
   10.7251   -5.0571    0.0000 C   0  0  0  0  0  0  0  0  0  0  0  0
   10.4663   -4.2757    0.0000 N   0  0  0  0  0  0  0  0  0  0  0  0
    9.6430   -4.2818    0.0000 C   0  0  0  0  0  0  0  0  0  0  0  0
   10.8775   -3.5627    0.0000 C   0  0  0  0  0  0  0  0  0  0  0  0
   11.7027   -3.5640    0.0000 C   0  0  0  0  0  0  0  0  0  0  0  0
   12.1097   -2.8477    0.0000 C   0  0  0  0  0  0  0  0  0  0  0  0
   11.6958   -2.1337    0.0000 C   0  0  0  0  0  0  0  0  0  0  0  0
   10.8623   -2.1402    0.0000 C   0  0  0  0  0  0  0  0  0  0  0  0
   10.4591   -2.8571    0.0000 C   0  0  0  0  0  0  0  0  0  0  0  0
   12.9347   -2.8441    0.0000 C   0  0  0  0  0  0  0  0  0  0  0  0
   11.5119   -5.3093    0.0000 O   0  0  0  0  0  0  0  0  0  0  0  0
    8.6125   -5.3305    0.0000 C   0  0  0  0  0  0  0  0  0  0  0  0
    7.9943   -4.7815    0.0000 O   0  0  0  0  0  0  0  0  0  0  0  0
  2  3  1  0
  7  8  1  0
  3  4  1  0
  8  9  2  0
  4  5  1  0
  9 10  1  0
  5  1  1  0
 10 11  2  0
 11  6  1  0
  1  2  1  0
  8 12  1  0
  4  6  1  0
  3 13  2  0
  1 14  1  0
  6  7  2  0
 14 15  1  0
M  END
> <chembl_id>
CHEMBL18116

> <chembl_pref_name>
TOLOXATONE
