
     RDKit          2D

 40 43  0  0  1  0  0  0  0  0999 V2000
    0.5167   -1.2792    0.0000 C   0  0  0  0  0  0  0  0  0  0  0  0
   -0.1583   -1.6667    0.0000 C   0  0  0  0  0  0  0  0  0  0  0  0
   -1.5000   -1.6792    0.0000 C   0  0  0  0  0  0  0  0  0  0  0  0
    0.5167   -0.5167    0.0000 C   0  0  0  0  0  0  0  0  0  0  0  0
    1.2375   -0.2792    0.0000 C   0  0  0  0  0  0  0  0  0  0  0  0
   -0.8250   -1.2875    0.0000 C   0  0  0  0  0  0  0  0  0  0  0  0
   -1.5000   -2.4542    0.0000 C   0  0  0  0  0  0  0  0  0  0  0  0
    1.6750   -0.8875    0.0000 C   0  0  0  0  0  0  0  0  0  0  0  0
    1.4917    0.4375    0.0000 C   0  0  0  0  0  0  0  0  0  0  0  0
    1.2375   -1.5125    0.0000 C   0  0  0  0  0  0  0  0  0  0  0  0
   -0.8250   -0.5167    0.0000 C   0  0  0  0  0  0  0  0  0  0  0  0
   -0.1583   -0.1375    0.0000 C   0  0  0  0  0  0  0  0  0  0  0  0
   -0.1583   -2.4417    0.0000 C   0  0  0  0  0  0  0  0  0  0  0  0
    2.2375    0.5833    0.0000 C   0  0  0  0  0  0  0  0  0  0  0  0
   -2.1625   -2.8292    0.0000 C   0  0  0  0  0  0  0  0  0  0  0  0
   -2.1625   -1.3000    0.0000 C   0  0  0  0  0  0  0  0  0  0  0  0
   -0.8250   -2.8167    0.0000 C   0  0  0  0  0  0  0  0  0  0  0  0
    2.4375   -0.8792    0.0000 O   0  0  0  0  0  0  0  0  0  0  0  0
    2.8375   -1.5292    0.0000 C   0  0  0  0  0  0  0  0  0  0  0  0
   -2.8333   -2.4417    0.0000 C   0  0  0  0  0  0  0  0  0  0  0  0
    2.7542    0.0208    0.0000 O   0  0  0  0  0  0  0  0  0  0  0  0
   -2.8333   -1.6917    0.0000 C   0  0  0  0  0  0  0  0  0  0  0  0
    2.4792   -2.2000    0.0000 O   0  0  0  0  0  0  0  0  0  0  0  0
    0.9500    3.0333    0.0000 C   0  0  0  0  0  0  0  0  0  0  0  0
    0.7167    2.3000    0.0000 C   0  0  0  0  0  0  0  0  0  0  0  0
    0.5250   -2.0417    0.0000 C   0  0  0  0  0  0  0  0  0  0  0  0
   -0.1958   -0.9125    0.0000 C   0  0  0  0  0  0  0  0  0  0  0  0
   -1.5083   -0.9167    0.0000 C   0  0  0  0  0  0  0  0  0  0  0  0
   -1.4833   -0.1375    0.0000 O   0  0  0  0  0  0  0  0  0  0  0  0
    2.4792    1.3083    0.0000 O   0  0  0  0  0  0  0  0  0  0  0  0
    0.9875    1.0125    0.0000 C   0  0  0  0  0  0  0  0  0  0  0  0
    1.2292    1.7375    0.0000 C   0  0  0  0  0  0  0  0  0  0  0  0
   -3.5083   -2.8000    0.0000 O   0  0  0  0  0  0  0  0  0  0  0  0
   -2.1625   -3.5917    0.0000 C   0  0  0  0  0  0  0  0  0  0  0  0
    3.6000   -1.5042    0.0000 C   0  0  0  0  0  0  0  0  0  0  0  0
    1.7000    3.1875    0.0000 C   0  0  0  0  0  0  0  0  0  0  0  0
    0.4375    3.5958    0.0000 C   0  0  0  0  0  0  0  0  0  0  0  0
   -0.8000   -2.0500    0.0000 H   0  0  0  0  0  0  0  0  0  0  0  0
    0.5792    0.2458    0.0000 H   0  0  0  0  0  0  0  0  0  0  0  0
   -1.5000   -3.2167    0.0000 H   0  0  0  0  0  0  0  0  0  0  0  0
  2  1  1  0
  3  6  1  0
  4  1  1  0
  5  4  1  0
  6  2  1  0
  7 17  1  0
  8 10  1  0
  9  5  2  0
 10  1  1  0
 11 12  1  0
 12  4  1  0
 13  2  1  0
 14  9  1  0
 15  7  1  0
 16  3  1  0
 17 13  1  0
  8 18  1  1
 19 18  1  0
 20 15  1  0
 21 14  2  0
 22 16  1  0
 23 19  2  0
 24 25  2  0
 25 32  1  0
  1 26  1  1
  2 27  1  6
  3 28  1  1
 11 29  1  6
 30 14  1  0
 31  9  1  0
 32 31  1  0
 20 33  1  6
 15 34  1  6
 35 19  1  0
 36 24  1  0
 37 24  1  0
  6 38  1  1
  4 39  1  6
  7 40  1  6
  5  8  1  0
  6 11  1  0
  3  7  1  0
 22 20  1  0
M  END
> <chembl_id>
CHEMBL374975

> <chembl_pref_name>
FUSIDIC ACID
