
     RDKit          2D

 44 47  0  0  1  0  0  0  0  0999 V2000
    3.2125   -1.1167    0.0000 C   0  0  0  0  0  0  0  0  0  0  0  0
    4.4417   -1.1167    0.0000 C   0  0  0  0  0  0  0  0  0  0  0  0
    1.9792   -1.1167    0.0000 C   0  0  0  0  0  0  0  0  0  0  0  0
    2.5917   -0.7625    0.0000 C   0  0  0  0  0  0  0  0  0  0  0  0
    3.8292   -0.7625    0.0000 C   0  0  0  0  0  0  0  0  0  0  0  0
    0.7417   -1.1167    0.0000 C   0  0  0  0  0  0  0  0  0  0  0  0
    3.2125   -1.8292    0.0000 C   0  0  0  0  0  0  0  0  0  0  0  0
    4.4417   -1.8292    0.0000 C   0  0  0  0  0  0  0  0  0  0  0  0
    1.3625   -0.7625    0.0000 C   0  0  0  0  0  0  0  0  0  0  0  0
    0.7417   -1.8292    0.0000 C   0  0  0  0  0  0  0  0  0  0  0  0
    3.8292   -2.1875    0.0000 C   0  0  0  0  0  0  0  0  0  0  0  0
    1.9792   -1.8292    0.0000 C   0  0  0  0  0  0  0  0  0  0  0  0
    0.1292   -2.1875    0.0000 C   0  0  0  0  0  0  0  0  0  0  0  0
   -0.4833   -1.1167    0.0000 C   0  0  0  0  0  0  0  0  0  0  0  0
   -0.4833   -1.8292    0.0000 C   0  0  0  0  0  0  0  0  0  0  0  0
    0.1292   -0.7625    0.0000 C   0  0  0  0  0  0  0  0  0  0  0  0
    2.5917   -2.1875    0.0000 C   0  0  0  0  0  0  0  0  0  0  0  0
    1.3625   -2.1875    0.0000 C   0  0  0  0  0  0  0  0  0  0  0  0
    5.0625   -0.7625    0.0000 C   0  0  0  0  0  0  0  0  0  0  0  0
   -1.1000   -0.7625    0.0000 N   0  0  0  0  0  0  0  0  0  0  0  0
   -1.7208   -1.1167    0.0000 C   0  0  0  0  0  0  0  0  0  0  0  0
    3.8292   -0.0542    0.0000 O   0  0  0  0  0  0  0  0  0  0  0  0
    0.1292   -2.9000    0.0000 N   0  0  0  0  0  0  0  0  0  0  0  0
    1.3625   -0.0542    0.0000 O   0  0  0  0  0  0  0  0  0  0  0  0
    3.8292   -2.9000    0.0000 N   0  0  0  0  0  0  0  0  0  0  0  0
    3.2125   -0.4042    0.0000 O   0  0  0  0  0  0  0  0  0  0  0  0
    5.0625   -0.0542    0.0000 O   0  0  0  0  0  0  0  0  0  0  0  0
   -2.9583   -1.1250    0.0000 N   0  0  0  0  0  0  0  0  0  0  0  0
    2.5917   -0.0542    0.0000 O   0  0  0  0  0  0  0  0  0  0  0  0
    5.0625   -2.1875    0.0000 O   0  0  0  0  0  0  0  0  0  0  0  0
   -1.7125   -1.8292    0.0000 O   0  0  0  0  0  0  0  0  0  0  0  0
   -3.5708   -0.7667    0.0000 C   0  0  0  0  0  0  0  0  0  0  0  0
    5.6792   -1.1167    0.0000 N   0  0  0  0  0  0  0  0  0  0  0  0
   -2.3375   -0.7667    0.0000 C   0  0  0  0  0  0  0  0  0  0  0  0
    0.1292   -0.0542    0.0000 O   0  0  0  0  0  0  0  0  0  0  0  0
   -0.4833   -3.2542    0.0000 C   0  0  0  0  0  0  0  0  0  0  0  0
    0.7417   -3.2542    0.0000 C   0  0  0  0  0  0  0  0  0  0  0  0
    3.2125   -3.2542    0.0000 C   0  0  0  0  0  0  0  0  0  0  0  0
    4.4417   -3.2542    0.0000 C   0  0  0  0  0  0  0  0  0  0  0  0
   -3.9250   -0.1542    0.0000 C   0  0  0  0  0  0  0  0  0  0  0  0
   -4.1833   -1.1292    0.0000 C   0  0  0  0  0  0  0  0  0  0  0  0
   -3.2125   -0.1500    0.0000 C   0  0  0  0  0  0  0  0  0  0  0  0
    3.2125   -2.5417    0.0000 H   0  0  0  0  0  0  0  0  0  0  0  0
    1.9792   -2.5417    0.0000 H   0  0  0  0  0  0  0  0  0  0  0  0
  2  5  1  0
  3  4  2  0
  4  1  1  0
  5  1  1  0
  6  9  1  0
  7  1  1  0
  8 11  1  0
  9  3  1  0
 10 18  1  0
 11  7  1  0
 12 17  1  0
 13 10  1  0
 14 16  2  0
 15 13  2  0
 16  6  1  0
 17  7  1  0
 18 12  1  0
 19  2  1  0
 20 14  1  0
 21 20  1  0
 22  5  2  0
 23 13  1  0
 24  9  2  0
 11 25  1  1
  1 26  1  1
 27 19  2  0
 28 34  1  0
 29  4  1  0
 30  8  1  0
 31 21  2  0
 32 28  1  0
 33 19  1  0
 34 21  1  0
 35 16  1  0
 36 23  1  0
 37 23  1  0
 38 25  1  0
 39 25  1  0
 40 32  1  0
 41 32  1  0
 42 32  1  0
  7 43  1  1
 12 44  1  1
 12  3  1  0
  2  8  2  0
 10  6  2  0
 15 14  1  0
M  END
> <chembl_id>
CHEMBL376140

> <chembl_pref_name>
TIGECYCLINE
