
     RDKit          2D

 13 13  0  0  0  0  0  0  0  0999 V2000
    2.9792   -0.5292    0.0000 C   0  0  0  0  0  0  0  0  0  0  0  0
    2.3750    0.5208    0.0000 N   0  0  0  0  0  0  0  0  0  0  0  0
    4.2042   -0.5292    0.0000 O   0  0  0  0  0  0  0  0  0  0  0  0
    1.1542    0.5208    0.0000 C   0  0  0  0  0  0  0  0  0  0  0  0
   -1.2958    0.5208    0.0000 C   0  0  0  0  0  0  0  0  0  0  0  0
    0.5375   -0.5292    0.0000 C   0  0  0  0  0  0  0  0  0  0  0  0
    0.5375    1.5833    0.0000 C   0  0  0  0  0  0  0  0  0  0  0  0
   -0.6875    1.5833    0.0000 C   0  0  0  0  0  0  0  0  0  0  0  0
   -0.6875   -0.5292    0.0000 C   0  0  0  0  0  0  0  0  0  0  0  0
   -2.5083    0.5208    0.0000 O   0  0  0  0  0  0  0  0  0  0  0  0
    2.3750   -1.5792    0.0000 C   0  0  0  0  0  0  0  0  0  0  0  0
   -3.1250   -0.5292    0.0000 C   0  0  0  0  0  0  0  0  0  0  0  0
   -4.3458   -0.5292    0.0000 C   0  0  0  0  0  0  0  0  0  0  0  0
  2  1  1  0
  3  1  2  0
  4  2  1  0
  5  8  1  0
  6  4  2  0
  7  4  1  0
  8  7  2  0
  9  6  1  0
 10  5  1  0
 11  1  1  0
 12 10  1  0
 13 12  1  0
  9  5  2  0
M  END
> <chembl_id>
CHEMBL16073

> <chembl_pref_name>
PHENACETIN
