
     RDKit          2D

 25 27  0  0  0  0  0  0  0  0999 V2000
   -9.0974    1.5068    0.0000 N   0  0  0  0  0  0  0  0  0  0  0  0
   -9.8119    1.0943    0.0000 C   0  0  0  0  0  0  0  0  0  0  0  0
   -9.8119    0.2693    0.0000 C   0  0  0  0  0  0  0  0  0  0  0  0
   -9.0974   -0.1432    0.0000 C   0  0  0  0  0  0  0  0  0  0  0  0
   -8.3829    0.2693    0.0000 C   0  0  0  0  0  0  0  0  0  0  0  0
   -8.3829    1.0943    0.0000 C   0  0  0  0  0  0  0  0  0  0  0  0
   -7.6685    1.5068    0.0000 C   0  0  0  0  0  0  0  0  0  0  0  0
   -7.6685   -0.1432    0.0000 C   0  0  0  0  0  0  0  0  0  0  0  0
   -6.9540    0.2693    0.0000 O   0  0  0  0  0  0  0  0  0  0  0  0
   -6.2394   -0.1432    0.0000 C   0  0  0  0  0  0  0  0  0  0  0  0
   -5.5251    0.2693    0.0000 C   0  0  0  0  0  0  0  0  0  0  0  0
   -5.5251    1.0943    0.0000 C   0  0  0  0  0  0  0  0  0  0  0  0
   -6.2394   -0.9682    0.0000 C   0  0  0  0  0  0  0  0  0  0  0  0
   -5.5251   -1.3807    0.0000 C   0  0  0  0  0  0  0  0  0  0  0  0
   -4.8106   -0.9682    0.0000 C   0  0  0  0  0  0  0  0  0  0  0  0
   -4.8106   -0.1432    0.0000 C   0  0  0  0  0  0  0  0  0  0  0  0
   -6.7753    2.4988    0.0000 N   0  0  0  0  0  0  0  0  0  0  0  0
   -7.5823    2.3273    0.0000 N   0  0  0  0  0  0  0  0  0  0  0  0
   -6.9148    1.1713    0.0000 C   0  0  0  0  0  0  0  0  0  0  0  0
   -6.3628    1.7844    0.0000 C   0  0  0  0  0  0  0  0  0  0  0  0
   -8.1656    2.9106    0.0000 C   0  0  0  0  0  0  0  0  0  0  0  0
   -7.9521    3.7075    0.0000 C   0  0  0  0  0  0  0  0  0  0  0  0
   -8.9625    2.6971    0.0000 C   0  0  0  0  0  0  0  0  0  0  0  0
   -4.8332    1.5437    0.0000 O   0  0  0  0  0  0  0  0  0  0  0  0
   -4.0961    0.2693    0.0000 O   0  0  0  0  0  0  0  0  0  0  0  0
  1  2  1  0
  2  3  2  0
  3  4  1  0
  4  5  2  0
  5  6  1  0
  1  6  2  0
  8  9  1  0
  5  8  1  0
  7  6  1  0
 10 11  1  0
 11 12  1  0
  9 10  1  0
 13 14  1  0
 14 15  2  0
 15 16  1  0
 10 13  2  0
 11 16  2  0
 17 18  1  0
 19 20  1  0
 17 20  2  0
 18  7  1  0
  7 19  2  0
 18 21  1  0
 21 22  1  0
 21 23  1  0
 12 24  2  0
 16 25  1  0
M  END
> <chembl_id>
CHEMBL4101807

> <chembl_pref_name>
VOXELOTOR
