
     RDKit          2D

 28 29  0  0  0  0  0  0  0  0999 V2000
   -2.7042   -1.1764    0.0000 N   0  0  0  0  0  0  0  0  0  0  0  0
   -2.7042   -0.3514    0.0000 C   0  0  0  0  0  0  0  0  0  0  0  0
   -3.4187    0.0611    0.0000 C   0  0  0  0  0  0  0  0  0  0  0  0
   -4.1332   -0.3514    0.0000 N   0  0  0  0  0  0  0  0  0  0  0  0
   -4.1332   -1.1764    0.0000 C   0  0  0  0  0  0  0  0  0  0  0  0
   -3.4187   -1.5889    0.0000 C   0  0  0  0  0  0  0  0  0  0  0  0
   -1.9898    0.0611    0.0000 C   0  0  0  0  0  0  0  0  0  0  0  0
   -1.9898    0.8861    0.0000 O   0  0  0  0  0  0  0  0  0  0  0  0
   -1.2753   -0.3514    0.0000 N   0  0  0  0  0  0  0  0  0  0  0  0
   -0.5608    0.0611    0.0000 C   0  0  0  0  0  0  0  0  0  0  0  0
   -0.5608    0.8861    0.0000 C   0  0  0  0  0  0  0  0  0  0  0  0
    0.1537    1.2986    0.0000 C   0  0  0  0  0  0  0  0  0  0  0  0
    0.1537    2.1236    0.0000 C   0  0  0  0  0  0  0  0  0  0  0  0
    0.8681    2.5361    0.0000 C   0  0  0  0  0  0  0  0  0  0  0  0
    1.5826    2.1236    0.0000 C   0  0  0  0  0  0  0  0  0  0  0  0
    1.5826    1.2986    0.0000 C   0  0  0  0  0  0  0  0  0  0  0  0
    0.8681    0.8861    0.0000 C   0  0  0  0  0  0  0  0  0  0  0  0
    0.1537   -0.3514    0.0000 C   0  0  0  0  0  0  0  0  0  0  0  0
    0.1537   -1.1764    0.0000 O   0  0  0  0  0  0  0  0  0  0  0  0
    0.8681    0.0611    0.0000 N   0  0  0  0  0  0  0  0  0  0  0  0
    1.5826   -0.3514    0.0000 C   0  0  0  0  0  0  0  0  0  0  0  0
    2.2971    0.0611    0.0000 C   0  0  0  0  0  0  0  0  0  0  0  0
    3.0115   -0.3514    0.0000 C   0  0  0  0  0  0  0  0  0  0  0  0
    3.7260    0.0611    0.0000 C   0  0  0  0  0  0  0  0  0  0  0  0
    3.0115   -1.1764    0.0000 C   0  0  0  0  0  0  0  0  0  0  0  0
    1.5826   -1.1764    0.0000 B   0  0  0  0  0  0  0  0  0  0  0  0
    2.2971   -1.5889    0.0000 O   0  0  0  0  0  0  0  0  0  0  0  0
    0.8681   -1.5889    0.0000 O   0  0  0  0  0  0  0  0  0  0  0  0
  2  1  1  0
  6  1  2  0
  2  3  2  0
  2  7  1  0
  3  4  1  0
  5  4  2  0
  5  6  1  0
  7  8  2  0
  7  9  1  0
 10  9  1  1
 10 11  1  0
 10 18  1  0
 11 12  1  0
 12 13  1  0
 12 17  2  0
 13 14  2  0
 14 15  1  0
 15 16  2  0
 16 17  1  0
 18 19  2  0
 18 20  1  0
 21 20  1  0
 21 22  1  0
 21 26  1  1
 22 23  1  0
 23 24  1  0
 23 25  1  0
 26 27  1  0
 26 28  1  0
M  END
> <chembl_id>
CHEMBL325041

> <chembl_pref_name>
BORTEZOMIB
