
     RDKit          2D

 20 21  0  0  0  0  0  0  0  0999 V2000
    4.7750   -5.0250    0.0000 C   0  0  0  0  0  0  0  0  0  0  0  0
    5.3667   -4.6625    0.0000 C   0  0  0  0  0  0  0  0  0  0  0  0
    4.1500   -4.6667    0.0000 C   0  0  0  0  0  0  0  0  0  0  0  0
    5.9917   -5.0125    0.0000 C   0  0  0  0  0  0  0  0  0  0  0  0
    3.5417   -5.0375    0.0000 C   0  0  0  0  0  0  0  0  0  0  0  0
    4.1375   -3.9667    0.0000 C   0  0  0  0  0  0  0  0  0  0  0  0
    6.0042   -5.7125    0.0000 C   0  0  0  0  0  0  0  0  0  0  0  0
    6.6042   -4.6500    0.0000 C   0  0  0  0  0  0  0  0  0  0  0  0
    2.9042   -3.9792    0.0000 C   0  0  0  0  0  0  0  0  0  0  0  0
    7.2417   -5.7042    0.0000 C   0  0  0  0  0  0  0  0  0  0  0  0
    6.6292   -6.0667    0.0000 C   0  0  0  0  0  0  0  0  0  0  0  0
    7.2292   -4.9917    0.0000 C   0  0  0  0  0  0  0  0  0  0  0  0
    2.9167   -4.6875    0.0000 C   0  0  0  0  0  0  0  0  0  0  0  0
    3.5042   -3.6167    0.0000 C   0  0  0  0  0  0  0  0  0  0  0  0
    4.7667   -5.7292    0.0000 C   0  0  0  0  0  0  0  0  0  0  0  0
    5.3667   -3.9542    0.0000 C   0  0  0  0  0  0  0  0  0  0  0  0
    2.2792   -3.6375    0.0000 O   0  0  0  0  0  0  0  0  0  0  0  0
    7.8667   -6.0417    0.0000 O   0  0  0  0  0  0  0  0  0  0  0  0
    4.1750   -6.0917    0.0000 C   0  0  0  0  0  0  0  0  0  0  0  0
    5.9750   -3.5875    0.0000 C   0  0  0  0  0  0  0  0  0  0  0  0
  2  1  2  0
  3  1  1  0
  4  2  1  0
  5  3  2  0
  6  3  1  0
  7  4  2  0
  8  4  1  0
  9 14  1  0
 10 12  1  0
 11  7  1  0
 12  8  2  0
 13  5  1  0
 14  6  2  0
 15  1  1  0
 16  2  1  0
 17  9  1  0
 18 10  1  0
 19 15  1  0
 20 16  1  0
  9 13  2  0
 10 11  2  0
M  END
> <chembl_id>
CHEMBL411

> <chembl_pref_name>
DIETHYLSTILBESTROL
