
     RDKit          2D

 40 41  0  0  0  0  0  0  0  0999 V2000
    8.3250   -6.6167    0.0000 Cl  0  0  0  0  0  0  0  0  0  0  0  0
    3.0667   -6.1125    0.0000 C   0  0  0  0  0  0  0  0  0  0  0  0
    3.5542   -6.7792    0.0000 C   0  0  0  0  0  0  0  0  0  0  0  0
    2.2792   -6.3667    0.0000 C   0  0  0  0  0  0  0  0  0  0  0  0
   -0.5750   -6.3667    0.0000 S   0  0  0  0  0  0  0  0  0  0  0  0
    3.0667   -7.4417    0.0000 O   0  0  0  0  0  0  0  0  0  0  0  0
    3.3167   -5.3292    0.0000 C   0  0  0  0  0  0  0  0  0  0  0  0
    2.2792   -7.1917    0.0000 C   0  0  0  0  0  0  0  0  0  0  0  0
    0.1375   -5.9542    0.0000 N   0  0  0  0  0  0  0  0  0  0  0  0
    1.5667   -5.9542    0.0000 C   0  0  0  0  0  0  0  0  0  0  0  0
    4.1292   -5.1542    0.0000 C   0  0  0  0  0  0  0  0  0  0  0  0
   -0.9875   -5.6542    0.0000 O   0  0  0  0  0  0  0  0  0  0  0  0
   -0.1625   -7.0792    0.0000 O   0  0  0  0  0  0  0  0  0  0  0  0
    0.8542   -6.3667    0.0000 C   0  0  0  0  0  0  0  0  0  0  0  0
    2.7667   -4.7167    0.0000 O   0  0  0  0  0  0  0  0  0  0  0  0
    1.5667   -7.6042    0.0000 C   0  0  0  0  0  0  0  0  0  0  0  0
    4.6792   -5.7667    0.0000 C   0  0  0  0  0  0  0  0  0  0  0  0
    4.3792   -4.3667    0.0000 C   0  0  0  0  0  0  0  0  0  0  0  0
   -1.2958   -6.7792    0.0000 C   0  0  0  0  0  0  0  0  0  0  0  0
    0.8542   -7.1917    0.0000 C   0  0  0  0  0  0  0  0  0  0  0  0
    4.3500   -6.5667    0.0000 C   0  0  0  0  0  0  0  0  0  0  0  0
    9.0417   -3.3792    0.0000 N   0  0  0  0  0  0  0  0  0  0  0  0
    5.7417   -4.8125    0.0000 C   0  0  0  0  0  0  0  0  0  0  0  0
    5.1917   -4.1917    0.0000 C   0  0  0  0  0  0  0  0  0  0  0  0
    5.4875   -5.6000    0.0000 C   0  0  0  0  0  0  0  0  0  0  0  0
    7.8042   -4.1000    0.0000 C   0  0  0  0  0  0  0  0  0  0  0  0
    6.5667   -4.8125    0.0000 O   0  0  0  0  0  0  0  0  0  0  0  0
    8.2167   -3.3792    0.0000 C   0  0  0  0  0  0  0  0  0  0  0  0
    6.9792   -4.1000    0.0000 C   0  0  0  0  0  0  0  0  0  0  0  0
    9.4542   -2.6667    0.0000 C   0  0  0  0  0  0  0  0  0  0  0  0
    9.4542   -4.1000    0.0000 C   0  0  0  0  0  0  0  0  0  0  0  0
    4.9292   -7.1500    0.0000 C   0  0  0  0  0  0  0  0  0  0  0  0
   10.2792   -2.6667    0.0000 C   0  0  0  0  0  0  0  0  0  0  0  0
   10.2792   -4.1000    0.0000 C   0  0  0  0  0  0  0  0  0  0  0  0
   10.6917   -4.8125    0.0000 C   0  0  0  0  0  0  0  0  0  0  0  0
    5.7292   -6.9375    0.0000 C   0  0  0  0  0  0  0  0  0  0  0  0
   10.6917   -1.9542    0.0000 C   0  0  0  0  0  0  0  0  0  0  0  0
   11.5167   -4.8125    0.0000 C   0  0  0  0  0  0  0  0  0  0  0  0
   11.5167   -1.9542    0.0000 C   0  0  0  0  0  0  0  0  0  0  0  0
    6.3125   -7.5167    0.0000 C   0  0  0  0  0  0  0  0  0  0  0  0
  3  2  2  0
  4  2  1  0
  5  9  1  0
  6  3  1  0
  7  2  1  0
  8  4  2  0
  9 14  1  0
 10  4  1  0
 11  7  1  0
 12  5  2  0
 13  5  2  0
 14 10  2  0
 15  7  2  0
 16  8  1  0
 17 11  2  0
 18 11  1  0
 19  5  1  0
 20 14  1  0
 21  3  1  0
 22 28  1  0
 23 24  1  0
 24 18  2  0
 25 17  1  0
 26 29  1  0
 27 23  1  0
 28 26  1  0
 29 27  1  0
 30 22  1  0
 31 22  1  0
 32 21  1  0
 33 30  1  0
 34 31  1  0
 35 34  1  0
 36 32  1  0
 37 33  1  0
 38 35  1  0
 39 37  1  0
 40 36  1  0
  6  8  1  0
 23 25  2  0
 16 20  2  0
M  END
> <chembl_id>
CHEMBL1201729

> <chembl_pref_name>
DRONEDARONE HYDROCHLORIDE
