
     RDKit          2D

 27 29  0  0  0  0  0  0  0  0999 V2000
    2.5833   -6.7333    0.0000 C   0  0  0  0  0  0  0  0  0  0  0  0
   -0.4833   -7.8042    0.0000 C   0  0  0  0  0  0  0  0  0  0  0  0
    5.6500   -7.7833    0.0000 C   0  0  0  0  0  0  0  0  0  0  0  0
    1.9667   -5.6792    0.0000 N   0  0  0  0  0  0  0  0  0  0  0  0
    3.1958   -7.0875    0.0000 C   0  0  0  0  0  0  0  0  0  0  0  0
    1.9708   -7.0917    0.0000 C   0  0  0  0  0  0  0  0  0  0  0  0
    2.5792   -6.0250    0.0000 C   0  0  0  0  0  0  0  0  0  0  0  0
    5.0375   -8.1417    0.0000 O   0  0  0  0  0  0  0  0  0  0  0  0
    0.1333   -8.1583    0.0000 O   0  0  0  0  0  0  0  0  0  0  0  0
   -0.4792   -7.0958    0.0000 O   0  0  0  0  0  0  0  0  0  0  0  0
    5.6458   -7.0750    0.0000 O   0  0  0  0  0  0  0  0  0  0  0  0
    3.1958   -7.7958    0.0000 C   0  0  0  0  0  0  0  0  0  0  0  0
    3.8042   -6.7292    0.0000 C   0  0  0  0  0  0  0  0  0  0  0  0
    1.9708   -7.8042    0.0000 C   0  0  0  0  0  0  0  0  0  0  0  0
    1.3583   -6.7375    0.0000 C   0  0  0  0  0  0  0  0  0  0  0  0
    4.4208   -7.7917    0.0000 C   0  0  0  0  0  0  0  0  0  0  0  0
    0.7458   -7.8042    0.0000 C   0  0  0  0  0  0  0  0  0  0  0  0
    4.4167   -7.0792    0.0000 C   0  0  0  0  0  0  0  0  0  0  0  0
    1.3583   -8.1583    0.0000 C   0  0  0  0  0  0  0  0  0  0  0  0
    3.8083   -8.1458    0.0000 C   0  0  0  0  0  0  0  0  0  0  0  0
    0.7458   -7.0917    0.0000 C   0  0  0  0  0  0  0  0  0  0  0  0
    1.9625   -4.9750    0.0000 C   0  0  0  0  0  0  0  0  0  0  0  0
    6.2625   -8.1375    0.0000 C   0  0  0  0  0  0  0  0  0  0  0  0
   -1.0958   -8.1583    0.0000 C   0  0  0  0  0  0  0  0  0  0  0  0
    3.1917   -5.6750    0.0000 C   0  0  0  0  0  0  0  0  0  0  0  0
    2.5750   -4.6125    0.0000 C   0  0  0  0  0  0  0  0  0  0  0  0
    3.1917   -4.9667    0.0000 C   0  0  0  0  0  0  0  0  0  0  0  0
  2  9  1  0
  3  8  1  0
  4  7  1  0
  5  1  1  0
  6  1  1  0
  7  1  1  0
  8 16  1  0
  9 17  1  0
 10  2  2  0
 11  3  2  0
 12  5  2  0
 13  5  1  0
 14  6  1  0
 15  6  2  0
 16 18  1  0
 17 21  2  0
 18 13  2  0
 19 14  2  0
 20 12  1  0
 21 15  1  0
 22  4  2  0
 23  3  1  0
 24  2  1  0
 25  7  2  0
 26 27  2  0
 27 25  1  0
 16 20  2  0
 19 17  1  0
 22 26  1  0
M  END
> <chembl_id>
CHEMBL942

> <chembl_pref_name>
BISACODYL
