
     RDKit          2D

 29 31  0  0  0  0  0  0  0  0999 V2000
    7.7667   -5.4375    0.0000 C   0  0  0  0  0  0  0  0  0  0  0  0
    7.7708   -4.7250    0.0000 O   0  0  0  0  0  0  0  0  0  0  0  0
    7.1458   -5.7833    0.0000 C   0  0  0  0  0  0  0  0  0  0  0  0
    8.3750   -5.7958    0.0000 O   0  0  0  0  0  0  0  0  0  0  0  0
    6.5333   -5.4250    0.0000 O   0  0  0  0  0  0  0  0  0  0  0  0
    7.1375   -6.4958    0.0000 C   0  0  0  0  0  0  0  0  0  0  0  0
    2.5375   -5.3625    0.0000 C   0  0  0  0  0  0  0  0  0  0  0  0
    1.9250   -5.7167    0.0000 C   0  0  0  0  0  0  0  0  0  0  0  0
    1.3000   -5.3542    0.0000 C   0  0  0  0  0  0  0  0  0  0  0  0
    3.1500   -5.7125    0.0000 C   0  0  0  0  0  0  0  0  0  0  0  0
    0.7917   -5.7125    0.0000 C   0  0  0  0  0  0  0  0  0  0  0  0
    4.3792   -5.7042    0.0000 N   0  0  0  0  0  0  0  0  0  0  0  0
    0.5042   -6.2292    0.0000 C   0  0  0  0  0  0  0  0  0  0  0  0
    1.6917   -6.2167    0.0000 C   0  0  0  0  0  0  0  0  0  0  0  0
    1.1750   -4.7167    0.0000 C   0  0  0  0  0  0  0  0  0  0  0  0
    1.1167   -5.9250    0.0000 C   0  0  0  0  0  0  0  0  0  0  0  0
    2.8875   -4.7417    0.0000 C   0  0  0  0  0  0  0  0  0  0  0  0
    3.7625   -5.3542    0.0000 C   0  0  0  0  0  0  0  0  0  0  0  0
    2.1792   -4.7417    0.0000 O   0  0  0  0  0  0  0  0  0  0  0  0
    4.3792   -6.4125    0.0000 C   0  0  0  0  0  0  0  0  0  0  0  0
    4.9875   -5.3417    0.0000 C   0  0  0  0  0  0  0  0  0  0  0  0
    3.5958   -4.7417    0.0000 C   0  0  0  0  0  0  0  0  0  0  0  0
    2.5250   -4.1375    0.0000 C   0  0  0  0  0  0  0  0  0  0  0  0
    5.6042   -5.7000    0.0000 C   0  0  0  0  0  0  0  0  0  0  0  0
    4.9917   -6.7625    0.0000 C   0  0  0  0  0  0  0  0  0  0  0  0
    2.8750   -3.5208    0.0000 C   0  0  0  0  0  0  0  0  0  0  0  0
    3.9458   -4.1250    0.0000 C   0  0  0  0  0  0  0  0  0  0  0  0
    3.5875   -3.5125    0.0000 C   0  0  0  0  0  0  0  0  0  0  0  0
    5.6042   -6.4083    0.0000 C   0  0  0  0  0  0  0  0  0  0  0  0
  2  1  2  0
  3  1  1  0
  4  1  1  0
  5  3  1  0
  6  3  1  0
  8  7  1  0
  9  8  1  0
 10  7  1  0
 11  9  1  0
 12 18  1  0
 13 16  1  0
 14  8  1  0
 15  9  1  0
 16 14  1  0
 17  7  1  0
 18 10  1  0
 19  7  1  0
 20 12  1  0
 21 12  1  0
 22 17  2  0
 23 17  1  0
 24 21  1  0
 25 20  1  0
 26 23  2  0
 27 22  1  0
 28 26  1  0
 29 24  1  0
 15 16  1  0
 11 13  2  0
 28 27  2  0
 29 25  1  0
M  END
> <chembl_id>
CHEMBL1201067

> <chembl_pref_name>
BIPERIDEN LACTATE
