
     RDKit          2D

 32 35  0  0  0  0  0  0  0  0999 V2000
   -6.9777    0.7518    0.0000 N   0  0  0  0  0  0  0  0  0  0  0  0
   -7.6922    0.3393    0.0000 C   0  0  0  0  0  0  0  0  0  0  0  0
   -7.6922   -0.4857    0.0000 C   0  0  0  0  0  0  0  0  0  0  0  0
   -6.9777   -0.8982    0.0000 C   0  0  0  0  0  0  0  0  0  0  0  0
   -6.2633   -0.4857    0.0000 C   0  0  0  0  0  0  0  0  0  0  0  0
   -6.2633    0.3393    0.0000 C   0  0  0  0  0  0  0  0  0  0  0  0
   -4.8312   -0.4802    0.0000 C   0  0  0  0  0  0  0  0  0  0  0  0
   -5.5456   -0.8927    0.0000 N   0  0  0  0  0  0  0  0  0  0  0  0
   -5.5456   -1.7177    0.0000 C   0  0  0  0  0  0  0  0  0  0  0  0
   -4.8312   -2.1302    0.0000 C   0  0  0  0  0  0  0  0  0  0  0  0
   -4.1167   -1.7177    0.0000 C   0  0  0  0  0  0  0  0  0  0  0  0
   -4.1167   -0.8927    0.0000 C   0  0  0  0  0  0  0  0  0  0  0  0
   -3.4022   -0.4802    0.0000 C   0  0  0  0  0  0  0  0  0  0  0  0
   -3.4022   -2.1302    0.0000 N   0  0  0  0  0  0  0  0  0  0  0  0
   -2.6878   -1.7177    0.0000 C   0  0  0  0  0  0  0  0  0  0  0  0
   -2.6878   -0.8927    0.0000 N   0  0  0  0  0  0  0  0  0  0  0  0
   -8.3596    0.8242    0.0000 O   0  0  0  0  0  0  0  0  0  0  0  0
   -9.1133    0.4887    0.0000 C   0  0  0  0  0  0  0  0  0  0  0  0
   -8.3841   -0.9350    0.0000 C   0  0  0  0  0  0  0  0  0  0  0  0
   -3.4022    0.3448    0.0000 N   0  0  0  0  0  0  0  0  0  0  0  0
   -4.1167    0.7573    0.0000 C   0  0  0  0  0  0  0  0  0  0  0  0
   -4.2030    1.5778    0.0000 C   0  0  0  0  0  0  0  0  0  0  0  0
   -5.0099    1.7493    0.0000 N   0  0  0  0  0  0  0  0  0  0  0  0
   -5.4224    1.0348    0.0000 C   0  0  0  0  0  0  0  0  0  0  0  0
   -4.8704    0.4218    0.0000 C   0  0  0  0  0  0  0  0  0  0  0  0
   -5.3454    2.5030    0.0000 C   0  0  0  0  0  0  0  0  0  0  0  0
   -6.1659    2.5892    0.0000 C   0  0  0  0  0  0  0  0  0  0  0  0
   -4.8605    3.1704    0.0000 O   0  0  0  0  0  0  0  0  0  0  0  0
   -6.5015    3.3429    0.0000 C   0  0  0  0  0  0  0  0  0  0  0  0
   -8.3409   -1.7589    0.0000 F   0  0  0  0  0  0  0  0  0  0  0  0
   -9.1192   -0.5605    0.0000 F   0  0  0  0  0  0  0  0  0  0  0  0
   -9.0986   -1.3475    0.0000 F   0  0  0  0  0  0  0  0  0  0  0  0
  1  2  1  0
  2  3  2  0
  3  4  1  0
  4  5  2  0
  5  6  1  0
  1  6  2  0
  7  8  1  0
  8  9  1  0
  9 10  1  0
 10 11  1  0
 11 12  1  0
  7 12  1  0
 14 15  1  0
 15 16  2  0
 13 16  1  0
 11 14  2  0
 13 12  2  0
  2 17  1  0
 17 18  1  0
  3 19  1  0
  5  8  1  0
 13 20  1  0
 21 20  1  1
 22 23  1  0
 23 24  1  0
 24 25  1  0
 21 22  1  0
 21 25  1  0
 23 26  1  0
 26 27  1  0
 26 28  2  0
 27 29  1  0
 19 30  1  0
 19 31  1  0
 19 32  1  0
M  END
> <chembl_id>
CHEMBL3643413

> <chembl_pref_name>
LENIOLISIB
