
     RDKit          2D

 23 22  0  0  0  0  0  0  0  0999 V2000
   13.9917  -12.0570    0.0000 O   0  0  0  0  0  0  0  0  0  0  0  0
   15.4206  -12.8820    0.0000 O   0  0  0  0  0  0  0  0  0  0  0  0
   14.7063   -9.1695    0.0000 O   0  0  0  0  0  0  0  0  0  0  0  0
   16.1352   -8.3445    0.0000 N   0  0  0  0  0  0  0  0  0  0  0  0
   15.4207  -10.4070    0.0000 C   0  0  0  0  0  0  0  0  0  0  0  0
   14.7063  -11.6445    0.0000 C   0  0  0  0  0  0  0  0  0  0  0  0
   15.4206  -12.0570    0.0000 C   0  0  0  0  0  0  0  0  0  0  0  0
   14.7063  -10.8195    0.0000 C   0  0  0  0  0  0  0  0  0  0  0  0
   15.4207   -9.5820    0.0000 C   0  0  0  0  0  0  0  0  0  0  0  0
   16.1352  -10.8195    0.0000 C   0  0  0  0  0  0  0  0  0  0  0  0
   16.1352  -11.6445    0.0000 C   0  0  0  0  0  0  0  0  0  0  0  0
   16.1352   -9.1695    0.0000 C   0  0  0  0  0  0  0  0  0  0  0  0
   16.8498   -7.9321    0.0000 C   0  0  0  0  0  0  0  0  0  0  0  0
   10.4414  -11.5334    0.0000 O   0  0  0  0  0  0  0  0  0  0  0  0
    9.7270   -9.4708    0.0000 O   0  0  0  0  0  0  0  0  0  0  0  0
   11.8704  -10.7083    0.0000 O   0  0  0  0  0  0  0  0  0  0  0  0
   11.1559   -9.4708    0.0000 O   0  0  0  0  0  0  0  0  0  0  0  0
    8.2980  -10.2958    0.0000 O   0  0  0  0  0  0  0  0  0  0  0  0
    9.0125  -11.5333    0.0000 O   0  0  0  0  0  0  0  0  0  0  0  0
    9.0125  -10.7083    0.0000 C   0  0  0  0  0  0  0  0  0  0  0  0
    9.7270  -10.2958    0.0000 C   0  0  0  0  0  0  0  0  0  0  0  0
   10.4414  -10.7083    0.0000 C   0  0  0  0  0  0  0  0  0  0  0  0
   11.1559  -10.2958    0.0000 C   0  0  0  0  0  0  0  0  0  0  0  0
  1  6  1  0
  2  7  1  0
  9  3  1  1
  4 12  1  0
  4 13  1  0
  5  8  2  0
  5  9  1  0
  5 10  1  0
  6  7  2  0
  6  8  1  0
  7 11  1  0
  9 12  1  0
 10 11  2  0
 20 18  2  0
 21 15  1  0
 22 14  1  0
 20 19  1  0
 22 23  1  0
 21 22  1  0
 23 17  1  0
 20 21  1  0
 23 16  2  0
M  END
> <chembl_id>
CHEMBL1256958

> <chembl_pref_name>
EPINEPHRINE BITARTRATE
