
     RDKit          2D

 24 24  0  0  0  0  0  0  0  0999 V2000
    6.4917   -3.8417    0.0000 Cl  0  0  0  0  0  0  0  0  0  0  0  0
    6.1125   -5.6417    0.0000 C   0  0  0  0  0  0  0  0  0  0  0  0
    5.7542   -5.0250    0.0000 C   0  0  0  0  0  0  0  0  0  0  0  0
    5.7500   -3.7917    0.0000 N   0  0  0  0  0  0  0  0  0  0  0  0
    5.5000   -6.0000    0.0000 C   0  0  0  0  0  0  0  0  0  0  0  0
    6.1042   -4.4042    0.0000 C   0  0  0  0  0  0  0  0  0  0  0  0
    6.7250   -5.9917    0.0000 C   0  0  0  0  0  0  0  0  0  0  0  0
    6.4625   -5.0250    0.0000 O   0  0  0  0  0  0  0  0  0  0  0  0
    5.1292   -3.4417    0.0000 C   0  0  0  0  0  0  0  0  0  0  0  0
    5.1292   -4.1417    0.0000 C   0  0  0  0  0  0  0  0  0  0  0  0
    6.1042   -3.1792    0.0000 C   0  0  0  0  0  0  0  0  0  0  0  0
    5.5000   -6.7125    0.0000 C   0  0  0  0  0  0  0  0  0  0  0  0
    4.8875   -5.6417    0.0000 C   0  0  0  0  0  0  0  0  0  0  0  0
    6.7250   -6.7042    0.0000 C   0  0  0  0  0  0  0  0  0  0  0  0
    7.3292   -5.6375    0.0000 C   0  0  0  0  0  0  0  0  0  0  0  0
    5.7500   -2.5667    0.0000 C   0  0  0  0  0  0  0  0  0  0  0  0
    5.1250   -4.8500    0.0000 C   0  0  0  0  0  0  0  0  0  0  0  0
    5.1292   -2.7292    0.0000 C   0  0  0  0  0  0  0  0  0  0  0  0
    4.2750   -6.0000    0.0000 C   0  0  0  0  0  0  0  0  0  0  0  0
    4.8875   -7.0667    0.0000 C   0  0  0  0  0  0  0  0  0  0  0  0
    7.3292   -7.0542    0.0000 C   0  0  0  0  0  0  0  0  0  0  0  0
    7.9500   -5.9917    0.0000 C   0  0  0  0  0  0  0  0  0  0  0  0
    7.9500   -6.7000    0.0000 C   0  0  0  0  0  0  0  0  0  0  0  0
    4.2750   -6.7125    0.0000 C   0  0  0  0  0  0  0  0  0  0  0  0
  3  2  1  0
  4  6  1  0
  5  2  1  0
  6  3  1  0
  7  2  1  0
  8  2  1  0
  9  4  1  0
 10  4  1  0
 11  4  1  0
 12  5  1  0
 13  5  2  0
 14  7  1  0
 15  7  1  0
 16 11  1  0
 17 10  1  0
 18  9  1  0
 19 13  1  0
 20 12  2  0
 21 14  1  0
 22 15  1  0
 23 21  1  0
 24 20  1  0
 22 23  1  0
 24 19  2  0
M  CHG  2   1  -1   4   1
M  END
> <chembl_id>
CHEMBL1200771

> <chembl_pref_name>
TRIDIHEXETHYL CHLORIDE
