
     RDKit          2D

 42 45  0  0  0  0  0  0  0  0999 V2000
    2.5000    0.7167    0.0000 C   0  0  0  0  0  0  0  0  0  0  0  0
    3.9292    0.7167    0.0000 C   0  0  0  0  0  0  0  0  0  0  0  0
    1.0708    0.7167    0.0000 C   0  0  0  0  0  0  0  0  0  0  0  0
    1.7833    1.1292    0.0000 C   0  0  0  0  0  0  0  0  0  0  0  0
    3.2125    1.1292    0.0000 C   0  0  0  0  0  0  0  0  0  0  0  0
   -0.3583    0.7167    0.0000 C   0  0  0  0  0  0  0  0  0  0  0  0
    2.5000   -0.1083    0.0000 C   0  0  0  0  0  0  0  0  0  0  0  0
    3.9292   -0.1083    0.0000 C   0  0  0  0  0  0  0  0  0  0  0  0
    0.3542    1.1292    0.0000 C   0  0  0  0  0  0  0  0  0  0  0  0
   -0.3583   -0.1083    0.0000 C   0  0  0  0  0  0  0  0  0  0  0  0
    3.2125   -0.5208    0.0000 C   0  0  0  0  0  0  0  0  0  0  0  0
    1.0708   -0.1083    0.0000 C   0  0  0  0  0  0  0  0  0  0  0  0
   -1.0750   -0.5208    0.0000 C   0  0  0  0  0  0  0  0  0  0  0  0
   -1.0750    1.1292    0.0000 C   0  0  0  0  0  0  0  0  0  0  0  0
    1.7833   -0.5208    0.0000 C   0  0  0  0  0  0  0  0  0  0  0  0
    0.3542   -0.5208    0.0000 C   0  0  0  0  0  0  0  0  0  0  0  0
   -1.7875    0.7167    0.0000 C   0  0  0  0  0  0  0  0  0  0  0  0
    4.6417    1.1292    0.0000 C   0  0  0  0  0  0  0  0  0  0  0  0
   -1.7875   -0.1083    0.0000 C   0  0  0  0  0  0  0  0  0  0  0  0
    3.2125    1.9542    0.0000 O   0  0  0  0  0  0  0  0  0  0  0  0
   -1.0750   -1.3458    0.0000 N   0  0  0  0  0  0  0  0  0  0  0  0
    0.3542    1.9542    0.0000 O   0  0  0  0  0  0  0  0  0  0  0  0
    3.6250   -1.2375    0.0000 N   0  0  0  0  0  0  0  0  0  0  0  0
    2.5000    1.5417    0.0000 O   0  0  0  0  0  0  0  0  0  0  0  0
    4.6417    1.9542    0.0000 O   0  0  0  0  0  0  0  0  0  0  0  0
    1.7833    1.9542    0.0000 O   0  0  0  0  0  0  0  0  0  0  0  0
    4.6417   -0.5208    0.0000 O   0  0  0  0  0  0  0  0  0  0  0  0
   -3.2167    0.7167    0.0000 N   0  0  0  0  0  0  0  0  0  0  0  0
    5.3583    0.7167    0.0000 N   0  0  0  0  0  0  0  0  0  0  0  0
   -4.6458    0.7167    0.0000 C   0  0  0  0  0  0  0  0  0  0  0  0
   -1.0750    1.9542    0.0000 O   0  0  0  0  0  0  0  0  0  0  0  0
   -2.5042    1.1292    0.0000 C   0  0  0  0  0  0  0  0  0  0  0  0
   -3.9333    1.1292    0.0000 C   0  0  0  0  0  0  0  0  0  0  0  0
   -1.7875   -1.7583    0.0000 C   0  0  0  0  0  0  0  0  0  0  0  0
   -0.3583   -1.7583    0.0000 C   0  0  0  0  0  0  0  0  0  0  0  0
    3.2125   -1.9500    0.0000 C   0  0  0  0  0  0  0  0  0  0  0  0
    4.4500   -1.2375    0.0000 C   0  0  0  0  0  0  0  0  0  0  0  0
   -5.3625    1.1292    0.0000 C   0  0  0  0  0  0  0  0  0  0  0  0
   -4.6458   -0.1083    0.0000 C   0  0  0  0  0  0  0  0  0  0  0  0
   -4.6458    1.5417    0.0000 C   0  0  0  0  0  0  0  0  0  0  0  0
    1.0696   -1.1083    0.0000 H   0  0  0  0  0  0  0  0  0  0  0  0
    2.4987   -1.1083    0.0000 H   0  0  0  0  0  0  0  0  0  0  0  0
  2  5  1  0
  3  4  2  0
  4  1  1  0
  5  1  1  0
  6  9  1  0
  7  1  1  0
  8  2  2  0
  9  3  1  0
 10  6  2  0
 11  7  1  0
 12  3  1  0
 13 10  1  0
 14  6  1  0
 15  7  1  0
 16 12  1  0
 17 14  2  0
 18  2  1  0
 19 17  1  0
 20  5  2  0
 21 13  1  0
 22  9  2  0
 11 23  1  1
  1 24  1  1
 25 18  2  0
 26  4  1  0
 27  8  1  0
 28 32  1  0
 29 18  1  0
 30 33  1  0
 31 14  1  0
 32 17  1  0
 33 28  1  0
 34 21  1  0
 35 21  1  0
 36 23  1  0
 37 23  1  0
 38 30  1  0
 39 30  1  0
 40 30  1  0
  8 11  1  0
 15 12  1  0
 16 10  1  0
 13 19  2  0
 12 41  1  1
  7 42  1  1
M  END
> <chembl_id>
CHEMBL1689772

> <chembl_pref_name>
OMADACYCLINE
