
     RDKit          2D

 31 33  0  0  0  0  0  0  0  0999 V2000
  -15.4687    2.4161    0.0000 C   0  0  0  0  0  0  0  0  0  0  0  0
  -15.8812    3.1305    0.0000 C   0  0  0  0  0  0  0  0  0  0  0  0
  -16.7063    3.1305    0.0000 C   0  0  0  0  0  0  0  0  0  0  0  0
  -17.1188    2.4161    0.0000 C   0  0  0  0  0  0  0  0  0  0  0  0
  -16.7063    1.7016    0.0000 C   0  0  0  0  0  0  0  0  0  0  0  0
  -15.8812    1.7016    0.0000 C   0  0  0  0  0  0  0  0  0  0  0  0
  -14.6437    2.4161    0.0000 C   0  0  0  0  0  0  0  0  0  0  0  0
  -14.1588    1.7486    0.0000 N   0  0  0  0  0  0  0  0  0  0  0  0
  -13.3742    2.0036    0.0000 N   0  0  0  0  0  0  0  0  0  0  0  0
  -13.3742    2.8286    0.0000 C   0  0  0  0  0  0  0  0  0  0  0  0
  -14.1588    3.0835    0.0000 N   0  0  0  0  0  0  0  0  0  0  0  0
  -12.7068    1.5186    0.0000 C   0  0  0  0  0  0  0  0  0  0  0  0
  -11.9531    1.8542    0.0000 C   0  0  0  0  0  0  0  0  0  0  0  0
  -11.9531    2.6792    0.0000 C   0  0  0  0  0  0  0  0  0  0  0  0
  -11.2386    3.0917    0.0000 N   0  0  0  0  0  0  0  0  0  0  0  0
  -12.6676    3.0917    0.0000 O   0  0  0  0  0  0  0  0  0  0  0  0
  -11.2386    3.9167    0.0000 N   0  0  0  0  0  0  0  0  0  0  0  0
  -10.5242    4.3292    0.0000 C   0  0  0  0  0  0  0  0  0  0  0  0
   -9.8097    3.9167    0.0000 N   0  0  0  0  0  0  0  0  0  0  0  0
   -9.0952    4.3292    0.0000 C   0  0  0  0  0  0  0  0  0  0  0  0
   -9.0952    5.1542    0.0000 C   0  0  0  0  0  0  0  0  0  0  0  0
   -9.8097    5.5667    0.0000 N   0  0  0  0  0  0  0  0  0  0  0  0
  -10.5242    5.1542    0.0000 C   0  0  0  0  0  0  0  0  0  0  0  0
  -17.1188    3.8450    0.0000 C   0  0  0  0  0  0  0  0  0  0  0  0
  -17.9438    3.8450    0.0000 F   0  0  0  0  0  0  0  0  0  0  0  0
  -16.7063    4.5595    0.0000 F   0  0  0  0  0  0  0  0  0  0  0  0
  -17.5313    4.5595    0.0000 F   0  0  0  0  0  0  0  0  0  0  0  0
  -17.1188    0.9871    0.0000 C   0  0  0  0  0  0  0  0  0  0  0  0
  -16.7063    0.2727    0.0000 F   0  0  0  0  0  0  0  0  0  0  0  0
  -17.9438    0.9871    0.0000 F   0  0  0  0  0  0  0  0  0  0  0  0
  -17.5313    0.2727    0.0000 F   0  0  0  0  0  0  0  0  0  0  0  0
  1  2  1  0
  6  1  2  0
  2  3  2  0
  3  4  1  0
  4  5  2  0
  5  6  1  0
  1  7  1  0
  7  8  2  0
  7 11  1  0
  8  9  1  0
  9 10  1  0
 10 11  2  0
  9 12  1  0
 12 13  2  0
 13 14  1  0
 14 15  1  0
 14 16  2  0
 15 17  1  0
 17 18  1  0
 18 19  1  0
 18 23  2  0
 19 20  2  0
 20 21  1  0
 21 22  2  0
 22 23  1  0
  3 24  1  0
 24 25  1  0
 24 26  1  0
 24 27  1  0
  5 28  1  0
 28 29  1  0
 28 30  1  0
 28 31  1  0
M  END
> <chembl_id>
CHEMBL3545185

> <chembl_pref_name>
SELINEXOR
