
     RDKit          2D

 58 65  0  0  1  0  0  0  0  0999 V2000
    8.6708   -2.0000    0.0000 C   0  0  0  0  0  0  0  0  0  0  0  0
    8.6833   -1.2917    0.0000 C   0  0  0  0  0  0  0  0  0  0  0  0
    7.4417   -1.9917    0.0000 C   0  0  0  0  0  0  0  0  0  0  0  0
    6.8333   -2.3458    0.0000 C   0  0  0  0  0  0  0  0  0  0  0  0
    8.0583   -2.3542    0.0000 C   0  0  0  0  0  0  0  0  0  0  0  0
    9.3583   -1.0833    0.0000 C   0  0  0  0  0  0  0  0  0  0  0  0
    8.0667   -0.9292    0.0000 C   0  0  0  0  0  0  0  0  0  0  0  0
    9.5875   -0.4167    0.0000 C   0  0  0  0  0  0  0  0  0  0  0  0
    2.9667   -3.7667    0.0000 C   0  0  0  0  0  0  0  0  0  0  0  0
    0.2292   -4.1292    0.0000 C   0  0  0  0  0  0  0  0  0  0  0  0
    1.6500   -4.1292    0.0000 C   0  0  0  0  0  0  0  0  0  0  0  0
   -1.0875   -4.4917    0.0000 C   0  0  0  0  0  0  0  0  0  0  0  0
    7.4458   -1.2792    0.0000 C   0  0  0  0  0  0  0  0  0  0  0  0
    4.3833   -3.7667    0.0000 C   0  0  0  0  0  0  0  0  0  0  0  0
    1.2958   -3.5167    0.0000 O   0  0  0  0  0  0  0  0  0  0  0  0
    4.0292   -3.1542    0.0000 O   0  0  0  0  0  0  0  0  0  0  0  0
   -1.4375   -3.8792    0.0000 O   0  0  0  0  0  0  0  0  0  0  0  0
    1.2958   -4.7417    0.0000 C   0  0  0  0  0  0  0  0  0  0  0  0
    4.0292   -4.3792    0.0000 C   0  0  0  0  0  0  0  0  0  0  0  0
   -1.4375   -5.1042    0.0000 C   0  0  0  0  0  0  0  0  0  0  0  0
    9.1792    0.1625    0.0000 C   0  0  0  0  0  0  0  0  0  0  0  0
    6.8292   -3.0542    0.0000 C   0  0  0  0  0  0  0  0  0  0  0  0
    0.5875   -4.7417    0.0000 C   0  0  0  0  0  0  0  0  0  0  0  0
    3.3250   -4.3792    0.0000 C   0  0  0  0  0  0  0  0  0  0  0  0
   -2.5042   -4.4917    0.0000 C   0  0  0  0  0  0  0  0  0  0  0  0
    9.3417   -2.2292    0.0000 C   0  0  0  0  0  0  0  0  0  0  0  0
    0.5875   -3.5167    0.0000 C   0  0  0  0  0  0  0  0  0  0  0  0
    3.3250   -3.1542    0.0000 C   0  0  0  0  0  0  0  0  0  0  0  0
   -2.1458   -5.1042    0.0000 C   0  0  0  0  0  0  0  0  0  0  0  0
    9.6042    0.7292    0.0000 C   0  0  0  0  0  0  0  0  0  0  0  0
   -2.1458   -3.8792    0.0000 C   0  0  0  0  0  0  0  0  0  0  0  0
    2.2583   -3.7667    0.0000 O   0  0  0  0  0  0  0  0  0  0  0  0
   -0.4750   -4.1292    0.0000 O   0  0  0  0  0  0  0  0  0  0  0  0
   10.2750    0.5000    0.0000 O   0  0  0  0  0  0  0  0  0  0  0  0
    9.7667   -1.6625    0.0000 C   0  0  0  0  0  0  0  0  0  0  0  0
    6.2208   -1.9917    0.0000 C   0  0  0  0  0  0  0  0  0  0  0  0
    8.0542   -3.0583    0.0000 C   0  0  0  0  0  0  0  0  0  0  0  0
   10.2625   -0.2083    0.0000 C   0  0  0  0  0  0  0  0  0  0  0  0
    4.9917   -3.4042    0.0000 O   0  0  0  0  0  0  0  0  0  0  0  0
    6.2208   -3.4083    0.0000 C   0  0  0  0  0  0  0  0  0  0  0  0
    7.4375   -3.4083    0.0000 C   0  0  0  0  0  0  0  0  0  0  0  0
    8.6667   -2.7083    0.0000 O   0  0  0  0  0  0  0  0  0  0  0  0
    9.3958    1.4083    0.0000 O   0  0  0  0  0  0  0  0  0  0  0  0
    5.6083   -3.0542    0.0000 C   0  0  0  0  0  0  0  0  0  0  0  0
    8.6792   -0.5833    0.0000 C   0  0  0  0  0  0  0  0  0  0  0  0
    8.0750   -0.2208    0.0000 O   0  0  0  0  0  0  0  0  0  0  0  0
    5.6083   -2.3458    0.0000 C   0  0  0  0  0  0  0  0  0  0  0  0
   -3.2125   -4.4917    0.0000 O   0  0  0  0  0  0  0  0  0  0  0  0
    2.9708   -4.9917    0.0000 O   0  0  0  0  0  0  0  0  0  0  0  0
    0.2333   -5.3542    0.0000 O   0  0  0  0  0  0  0  0  0  0  0  0
   -2.5000   -5.7167    0.0000 O   0  0  0  0  0  0  0  0  0  0  0  0
    6.8250   -1.6375    0.0000 C   0  0  0  0  0  0  0  0  0  0  0  0
    0.2333   -2.9042    0.0000 C   0  0  0  0  0  0  0  0  0  0  0  0
    2.9708   -2.5375    0.0000 C   0  0  0  0  0  0  0  0  0  0  0  0
   -2.5000   -3.2625    0.0000 C   0  0  0  0  0  0  0  0  0  0  0  0
    6.8292   -4.0542    0.0000 H   0  0  0  0  0  0  0  0  0  0  0  0
    8.9230   -2.8564    0.0000 H   0  0  0  0  0  0  0  0  0  0  0  0
    6.5762   -1.4907    0.0000 H   0  0  0  0  0  0  0  0  0  0  0  0
  2  1  1  0
  3  5  1  0
  4  3  1  0
  5  1  1  0
  6  2  1  0
  7  2  1  0
  6  8  1  1
  9 28  1  0
 10 27  1  0
 11 32  1  1
 12 33  1  1
 13  3  1  0
 14 39  1  1
 15 11  1  0
 16 14  1  0
 17 12  1  0
 18 11  1  0
 19 14  1  0
 20 12  1  0
 21  8  2  0
 22  4  1  0
 23 18  1  0
 24 19  1  0
 25 31  1  0
 26  1  1  0
 27 15  1  0
 28 16  1  0
 29 20  1  0
 30 21  1  0
 31 17  1  0
  9 32  1  6
 10 33  1  6
 34 38  1  0
 35 26  1  0
 36  4  1  0
 37  5  1  0
 38  8  1  0
 44 39  1  1
 40 22  1  0
 41 37  1  0
  1 42  1  1
 43 30  2  0
 44 40  1  0
  2 45  1  1
  7 46  1  1
 47 36  1  0
 25 48  1  6
 24 49  1  6
 23 50  1  6
 29 51  1  6
  4 52  1  1
 27 53  1  1
 28 54  1  1
 31 55  1  1
  6 35  1  0
 13  7  1  0
 41 22  1  0
 44 47  1  0
 30 34  1  0
  9 24  1  0
 10 23  1  0
 25 29  1  0
 22 56  1  1
  5 57  1  1
  3 58  1  6
M  END
> <chembl_id>
CHEMBL1751

> <chembl_pref_name>
DIGOXIN
