
     RDKit          2D

 27 29  0  0  0  0  0  0  0  0999 V2000
   10.8292   -1.0750    0.0000 C   0  0  0  0  0  0  0  0  0  0  0  0
   10.8292    0.3458    0.0000 O   0  0  0  0  0  0  0  0  0  0  0  0
   11.4542   -0.7167    0.0000 C   0  0  0  0  0  0  0  0  0  0  0  0
   10.2167   -0.7167    0.0000 C   0  0  0  0  0  0  0  0  0  0  0  0
    8.3750   -1.7667    0.0000 N   0  0  0  0  0  0  0  0  0  0  0  0
   11.4542   -0.0042    0.0000 C   0  0  0  0  0  0  0  0  0  0  0  0
   10.2167   -0.0042    0.0000 C   0  0  0  0  0  0  0  0  0  0  0  0
   10.8292   -1.7875    0.0000 C   0  0  0  0  0  0  0  0  0  0  0  0
   11.4542   -2.1375    0.0000 O   0  0  0  0  0  0  0  0  0  0  0  0
    7.7625   -2.1167    0.0000 C   0  0  0  0  0  0  0  0  0  0  0  0
    8.0167   -1.1500    0.0000 C   0  0  0  0  0  0  0  0  0  0  0  0
   10.2167   -2.1375    0.0000 O   0  0  0  0  0  0  0  0  0  0  0  0
    8.9875   -2.1250    0.0000 C   0  0  0  0  0  0  0  0  0  0  0  0
    8.7250   -1.1500    0.0000 C   0  0  0  0  0  0  0  0  0  0  0  0
    9.6042   -1.7750    0.0000 C   0  0  0  0  0  0  0  0  0  0  0  0
   12.0667   -1.0750    0.0000 C   0  0  0  0  0  0  0  0  0  0  0  0
    9.6167   -1.0750    0.0000 C   0  0  0  0  0  0  0  0  0  0  0  0
    9.6167    0.3458    0.0000 C   0  0  0  0  0  0  0  0  0  0  0  0
   12.0667    0.3458    0.0000 C   0  0  0  0  0  0  0  0  0  0  0  0
    7.1500   -1.7583    0.0000 C   0  0  0  0  0  0  0  0  0  0  0  0
    7.7542   -2.8250    0.0000 C   0  0  0  0  0  0  0  0  0  0  0  0
    8.3667   -0.5333    0.0000 C   0  0  0  0  0  0  0  0  0  0  0  0
    7.3042   -1.1500    0.0000 C   0  0  0  0  0  0  0  0  0  0  0  0
    8.9917   -0.7167    0.0000 C   0  0  0  0  0  0  0  0  0  0  0  0
   12.6792   -0.7167    0.0000 C   0  0  0  0  0  0  0  0  0  0  0  0
   12.6792   -0.0042    0.0000 C   0  0  0  0  0  0  0  0  0  0  0  0
    8.9917   -0.0042    0.0000 C   0  0  0  0  0  0  0  0  0  0  0  0
  2  7  1  0
  3  1  1  0
  4  1  1  0
  5 13  1  0
  6  3  1  0
  7  4  2  0
  8  1  1  0
  9  8  2  0
 10  5  1  0
 11  5  1  0
 12  8  1  0
 13 15  1  0
 14  5  1  0
 15 12  1  0
 16  3  2  0
 17  4  1  0
 18  7  1  0
 19  6  2  0
 20 10  1  0
 21 10  1  0
 22 11  1  0
 23 11  1  0
 24 17  2  0
 25 16  1  0
 26 19  1  0
 27 18  2  0
  2  6  1  0
 24 27  1  0
 25 26  2  0
M  CHG  1   5   1
M  END
> <chembl_id>
CHEMBL1180725

> <chembl_pref_name>
PROPANTHELINE
