
     RDKit          2D

 25 26  0  0  0  0  0  0  0  0999 V2000
  -12.8170   -4.5670    0.0000 O   0  0  0  0  0  0  0  0  0  0  0  0
  -12.1025   -4.1545    0.0000 C   0  0  0  0  0  0  0  0  0  0  0  0
  -11.3880   -4.5670    0.0000 C   0  0  0  0  0  0  0  0  0  0  0  0
  -10.6736   -4.1545    0.0000 C   0  0  0  0  0  0  0  0  0  0  0  0
   -9.9591   -4.5670    0.0000 N   0  0  0  0  0  0  0  0  0  0  0  0
   -9.2446   -4.1545    0.0000 C   0  0  0  0  0  0  0  0  0  0  0  0
  -12.5150   -3.4400    0.0000 C   0  0  0  0  0  0  0  0  0  0  0  0
  -13.3400   -3.4400    0.0000 C   0  0  0  0  0  0  0  0  0  0  0  0
  -11.6900   -3.4400    0.0000 C   0  0  0  0  0  0  0  0  0  0  0  0
  -10.8650   -3.4400    0.0000 C   0  0  0  0  0  0  0  0  0  0  0  0
  -10.4525   -2.7255    0.0000 C   0  0  0  0  0  0  0  0  0  0  0  0
  -10.8650   -2.0111    0.0000 C   0  0  0  0  0  0  0  0  0  0  0  0
  -11.6900   -2.0110    0.0000 C   0  0  0  0  0  0  0  0  0  0  0  0
  -12.1025   -2.7255    0.0000 C   0  0  0  0  0  0  0  0  0  0  0  0
  -13.7525   -2.7255    0.0000 C   0  0  0  0  0  0  0  0  0  0  0  0
  -14.5775   -2.7255    0.0000 C   0  0  0  0  0  0  0  0  0  0  0  0
  -14.9900   -3.4400    0.0000 C   0  0  0  0  0  0  0  0  0  0  0  0
  -14.5775   -4.1545    0.0000 C   0  0  0  0  0  0  0  0  0  0  0  0
  -13.7525   -4.1545    0.0000 C   0  0  0  0  0  0  0  0  0  0  0  0
  -12.8170   -5.3920    0.0000 C   0  0  0  0  0  0  0  0  0  0  0  0
  -13.5314   -5.8045    0.0000 C   0  0  0  0  0  0  0  0  0  0  0  0
  -12.1025   -5.8045    0.0000 O   0  0  0  0  0  0  0  0  0  0  0  0
  -14.2459   -5.3920    0.0000 C   0  0  0  0  0  0  0  0  0  0  0  0
  -11.3880   -5.3920    0.0000 C   0  0  0  0  0  0  0  0  0  0  0  0
   -9.9591   -5.3920    0.0000 C   0  0  0  0  0  0  0  0  0  0  0  0
  1  2  1  0
  2  3  1  0
  3  4  1  0
  4  5  1  0
  5  6  1  0
  2  7  1  1
  7  8  1  0
  2  9  1  0
  9 10  1  0
  9 14  2  0
 10 11  2  0
 11 12  1  0
 12 13  2  0
 13 14  1  0
  8 15  1  0
  8 19  2  0
 15 16  2  0
 16 17  1  0
 17 18  2  0
 18 19  1  0
  1 20  1  0
 20 21  1  0
 20 22  2  0
 21 23  1  0
  3 24  1  1
  5 25  1  0
M  END
> <chembl_id>
CHEMBL1213351

> <chembl_pref_name>
PROPOXYPHENE
