
     RDKit          2D

 13 14  0  0  0  0  0  0  0  0999 V2000
    6.0875   -6.8917    0.0000 N   0  0  0  0  0  0  0  0  0  0  0  0
    5.3750   -6.8917    0.0000 C   0  0  0  0  0  0  0  0  0  0  0  0
    6.3042   -6.1917    0.0000 C   0  0  0  0  0  0  0  0  0  0  0  0
    5.7292   -5.7917    0.0000 O   0  0  0  0  0  0  0  0  0  0  0  0
    5.1542   -6.1917    0.0000 C   0  0  0  0  0  0  0  0  0  0  0  0
    4.9667   -7.4667    0.0000 O   0  0  0  0  0  0  0  0  0  0  0  0
    4.5292   -5.8542    0.0000 C   0  0  0  0  0  0  0  0  0  0  0  0
    6.9792   -5.9500    0.0000 N   0  0  0  0  0  0  0  0  0  0  0  0
    3.9417   -6.2292    0.0000 C   0  0  0  0  0  0  0  0  0  0  0  0
    4.5167   -5.1500    0.0000 C   0  0  0  0  0  0  0  0  0  0  0  0
    3.8792   -4.8250    0.0000 C   0  0  0  0  0  0  0  0  0  0  0  0
    3.3167   -5.9042    0.0000 C   0  0  0  0  0  0  0  0  0  0  0  0
    3.2917   -5.1875    0.0000 C   0  0  0  0  0  0  0  0  0  0  0  0
  2  1  1  0
  3  1  2  0
  4  3  1  0
  5  2  1  0
  6  2  2  0
  7  5  1  0
  8  3  1  0
  9  7  1  0
 10  7  2  0
 11 10  1  0
 12  9  2  0
 13 11  2  0
  4  5  1  0
 13 12  1  0
M  END
> <chembl_id>
CHEMBL1177

> <chembl_pref_name>
PEMOLINE
