
     RDKit          2D

 47 49  0  0  0  0  0  0  0  0999 V2000
    0.9429   -9.3991    0.0000 O   0  0  0  0  0  0  0  0  0  0  0  0
    4.8655   -7.4588    0.0000 N   0  0  0  0  0  0  0  0  0  0  0  0
    6.0333   -8.2908    0.0000 C   0  0  0  0  0  0  0  0  0  0  0  0
    4.3936   -8.1254    0.0000 C   0  0  0  0  0  0  0  0  0  0  0  0
    5.5516   -8.9623    0.0000 C   0  0  0  0  0  0  0  0  0  0  0  0
    5.6975   -7.5367    0.0000 C   0  0  0  0  0  0  0  0  0  0  0  0
    3.6102   -7.8772    0.0000 C   0  0  0  0  0  0  0  0  0  0  0  0
    3.6053   -7.0598    0.0000 C   0  0  0  0  0  0  0  0  0  0  0  0
    4.7342   -8.8796    0.0000 C   0  0  0  0  0  0  0  0  0  0  0  0
    2.9096   -8.2908    0.0000 N   0  0  0  0  0  0  0  0  0  0  0  0
    5.8824   -9.7116    0.0000 C   0  0  0  0  0  0  0  0  0  0  0  0
    4.3790   -6.7971    0.0000 C   0  0  0  0  0  0  0  0  0  0  0  0
   -0.6568   -7.0939    0.0000 C   0  0  0  0  0  0  0  0  0  0  0  0
    2.8950   -6.6609    0.0000 C   0  0  0  0  0  0  0  0  0  0  0  0
   -1.3721   -6.6803    0.0000 N   0  0  0  0  0  0  0  0  0  0  0  0
    6.7047   -9.7992    0.0000 C   0  0  0  0  0  0  0  0  0  0  0  0
    2.1944   -7.0744    0.0000 C   0  0  0  0  0  0  0  0  0  0  0  0
    2.1992   -7.8918    0.0000 C   0  0  0  0  0  0  0  0  0  0  0  0
    6.8555   -8.3735    0.0000 C   0  0  0  0  0  0  0  0  0  0  0  0
    7.1912   -9.1277    0.0000 O   0  0  0  0  0  0  0  0  0  0  0  0
   -3.5178   -5.4494    0.0000 N   0  0  0  0  0  0  0  0  0  0  0  0
    0.0584   -6.6803    0.0000 O   0  0  0  0  0  0  0  0  0  0  0  0
   -2.8074   -5.8629    0.0000 C   0  0  0  0  0  0  0  0  0  0  0  0
    6.1792   -6.8653    0.0000 O   0  0  0  0  0  0  0  0  0  0  0  0
    1.4839   -6.6706    0.0000 C   0  0  0  0  0  0  0  0  0  0  0  0
   -2.8025   -6.6901    0.0000 C   0  0  0  0  0  0  0  0  0  0  0  0
   -2.0922   -5.4445    0.0000 C   0  0  0  0  0  0  0  0  0  0  0  0
   -2.0873   -7.0988    0.0000 C   0  0  0  0  0  0  0  0  0  0  0  0
   -1.3721   -5.8581    0.0000 C   0  0  0  0  0  0  0  0  0  0  0  0
   -0.6568   -7.9210    0.0000 O   0  0  0  0  0  0  0  0  0  0  0  0
    0.7785   -7.0890    0.0000 C   0  0  0  0  0  0  0  0  0  0  0  0
    7.0452  -10.5533    0.0000 O   0  0  0  0  0  0  0  0  0  0  0  0
    1.5034   -8.3054    0.0000 C   0  0  0  0  0  0  0  0  0  0  0  0
    5.1380  -10.0570    0.0000 O   0  0  0  0  0  0  0  0  0  0  0  0
    0.7931   -7.9064    0.0000 C   0  0  0  0  0  0  0  0  0  0  0  0
    5.8045  -10.5387    0.0000 C   0  0  0  0  0  0  0  0  0  0  0  0
    2.8901   -5.8337    0.0000 C   0  0  0  0  0  0  0  0  0  0  0  0
   -4.2330   -5.8678    0.0000 C   0  0  0  0  0  0  0  0  0  0  0  0
   -3.5227   -4.6271    0.0000 C   0  0  0  0  0  0  0  0  0  0  0  0
    5.0553  -10.8841    0.0000 C   0  0  0  0  0  0  0  0  0  0  0  0
    3.6004   -5.4104    0.0000 C   0  0  0  0  0  0  0  0  0  0  0  0
   -4.2427   -4.2184    0.0000 C   0  0  0  0  0  0  0  0  0  0  0  0
   -4.9482   -5.4640    0.0000 C   0  0  0  0  0  0  0  0  0  0  0  0
   -4.9579   -4.6368    0.0000 C   0  0  0  0  0  0  0  0  0  0  0  0
   -1.0898   -9.6191    0.0000 Cl  0  0  0  0  0  0  0  0  0  0  0  0
    0.1460   -9.6532    0.0000 O   0  0  0  0  0  0  0  0  0  0  0  0
    1.0018  -10.5777    0.0000 O   0  0  0  0  0  0  0  0  0  0  0  0
  3  6  1  0
  4  2  1  0
  5  9  1  0
  6  2  1  0
  7  4  1  0
  8 12  1  0
  9  4  2  0
 10  7  2  0
 11  5  1  0
 12  2  1  0
 13 22  1  0
 14  8  2  0
 15 13  1  0
 16 11  1  0
 17 14  1  0
 18 10  1  0
 19  3  1  0
 20 19  1  0
 21 23  1  0
 22 31  1  0
 23 27  1  0
 24  6  2  0
 25 17  1  0
 26 28  1  0
 27 29  1  0
 28 15  1  0
 29 15  1  0
 30 13  2  0
 31 25  2  0
 32 16  2  0
 33 18  1  0
 34 11  1  0
 35 33  2  0
 11 36  1  6
 37 14  1  0
 38 21  1  0
 39 21  1  0
 40 36  1  0
 41 37  1  0
 42 39  1  0
 43 38  1  0
 44 42  1  0
  8  7  1  0
  5  3  2  0
 17 18  2  0
 16 20  1  0
 35 31  1  0
 23 26  1  0
 44 43  1  0
M  END
> <chembl_id>
CHEMBL3989514

> <chembl_pref_name>
IRINOTECAN HYDROCHLORIDE
