
     RDKit          2D

 30 33  0  0  0  0  0  0  0  0999 V2000
    3.8237   -2.0836    0.0000 C   0  0  0  0  0  0  0  0  0  0  0  0
    3.7340   -2.8652    0.0000 C   0  0  0  0  0  0  0  0  0  0  0  0
    3.0376   -1.5855    0.0000 C   0  0  0  0  0  0  0  0  0  0  0  0
    2.6334   -2.3954    0.0000 C   0  0  0  0  0  0  0  0  0  0  0  0
    1.7657   -2.3389    0.0000 C   0  0  0  0  0  0  0  0  0  0  0  0
    1.1797   -3.0719    0.0000 O   0  0  0  0  0  0  0  0  0  0  0  0
    0.3561   -1.6472    0.0000 O   0  0  0  0  0  0  0  0  0  0  0  0
    1.3728   -1.6461    0.0000 C   0  0  0  0  0  0  0  0  0  0  0  0
    1.3619   -0.2499    0.0000 C   0  0  0  0  0  0  0  0  0  0  0  0
    0.3561   -0.2315    0.0000 O   0  0  0  0  0  0  0  0  0  0  0  0
    1.8049   -0.8843    0.0000 C   0  0  0  0  0  0  0  0  0  0  0  0
    2.5910   -0.9349    0.0000 O   0  0  0  0  0  0  0  0  0  0  0  0
    4.4415   -1.6420    0.0000 C   0  0  0  0  0  0  0  0  0  0  0  0
    5.1596   -2.0480    0.0000 C   0  0  0  0  0  0  0  0  0  0  0  0
    5.8666   -1.6419    0.0000 C   0  0  0  0  0  0  0  0  0  0  0  0
    6.5851   -2.0478    0.0000 C   0  0  0  0  0  0  0  0  0  0  0  0
    7.3063   -1.6387    0.0000 C   0  0  0  0  0  0  0  0  0  0  0  0
    8.0126   -2.0526    0.0000 C   0  0  0  0  0  0  0  0  0  0  0  0
    8.0166   -2.8658    0.0000 C   0  0  0  0  0  0  0  0  0  0  0  0
    8.7257   -3.2856    0.0000 O   0  0  0  0  0  0  0  0  0  0  0  0
    7.3011   -3.2716    0.0000 C   0  0  0  0  0  0  0  0  0  0  0  0
    6.5995   -2.8753    0.0000 C   0  0  0  0  0  0  0  0  0  0  0  0
    5.1630   -2.8695    0.0000 C   0  0  0  0  0  0  0  0  0  0  0  0
    5.9807   -3.2899    0.0000 Cl  0  0  0  0  0  0  0  0  0  0  0  0
    4.4410   -3.2691    0.0000 C   0  0  0  0  0  0  0  0  0  0  0  0
    9.4385   -2.8684    0.0000 C   0  0  0  0  0  0  0  0  0  0  0  0
   10.3329   -3.2856    0.0000 C   0  0  0  0  0  0  0  0  0  0  0  0
    2.2465   -0.1248    0.0000 C   0  0  0  0  0  0  0  0  0  0  0  0
    3.5081   -0.7924    0.0000 O   0  0  0  0  0  0  0  0  0  0  0  0
    3.1921   -3.0719    0.0000 O   0  0  0  0  0  0  0  0  0  0  0  0
  1  2  1  0
  1 13  2  0
  2 25  2  0
  3  4  1  0
  3  1  1  1
  3 29  1  6
  4 30  1  6
  5  6  1  1
  5  4  1  0
  8  7  1  6
  8  5  1  0
  9 10  1  0
 11 12  1  0
 11  8  1  0
 11  9  1  1
 12  3  1  0
 13 14  1  0
 14 23  2  0
 15 14  1  0
 15 16  1  0
 16 17  2  0
 16 22  1  0
 17 18  1  0
 18 19  2  0
 19 20  1  0
 20 26  1  0
 21 19  1  0
 22 21  2  0
 23 24  1  0
 25 23  1  0
 26 27  1  0
 28 29  1  0
 11 28  1  6
M  END
> <chembl_id>
CHEMBL1770248

> <chembl_pref_name>
ERTUGLIFLOZIN
