
     RDKit          2D

  9  9  0  0  0  0  0  0  0  0999 V2000
   -1.0677    0.2698    0.0000 C   0  0  0  0  0  0  0  0  0  0  0  0
   -1.6512   -0.3135    0.0000 C   0  0  0  0  0  0  0  0  0  0  0  0
   -1.0677   -0.8967    0.0000 C   0  0  0  0  0  0  0  0  0  0  0  0
   -0.4845   -0.3135    0.0000 C   0  0  0  0  0  0  0  0  0  0  0  0
   -0.4859    0.8570    0.0000 N   0  0  0  0  0  0  0  0  0  0  0  0
   -1.4848    0.9852    0.0000 C   0  0  0  0  0  0  0  0  0  0  0  0
   -2.3098    0.9818    0.0000 O   0  0  0  0  0  0  0  0  0  0  0  0
   -1.0753    1.7014    0.0000 O   0  0  0  0  0  0  0  0  0  0  0  0
   -1.0677   -1.7217    0.0000 F   0  0  0  0  0  0  0  0  0  0  0  0
  1  5  1  0
  1  2  1  0
  1  6  1  1
  2  3  1  0
  6  7  2  0
  3  4  1  0
  6  8  1  0
  4  1  1  0
  3  9  1  1
M  END
> <chembl_id>
CHEMBL1908917

> <chembl_pref_name>
FLUCICLOVINE
