
     RDKit          2D

 14 14  0  0  0  0  0  0  0  0999 V2000
    1.2990   -0.7500    0.0000 P   0  0  0  0  0  0  0  0  0  0  0  0
    1.2990    0.7500    0.0000 N   0  0  0  0  0  0  0  0  0  0  0  0
    1.2626   -2.2300    0.0000 N   0  0  0  0  0  0  0  0  0  0  0  0
    0.0000   -1.5000    0.0000 O   0  0  0  0  0  0  0  0  0  0  0  0
    2.3233   -0.1247    0.0000 O   0  0  0  0  0  0  0  0  0  0  0  0
   -0.0368   -2.9810    0.0000 C   0  0  0  0  0  0  0  0  0  0  0  0
    2.5609   -2.9829    0.0000 C   0  0  0  0  0  0  0  0  0  0  0  0
   -1.0761   -5.0822    0.0000 Cl  0  0  0  0  0  0  0  0  0  0  0  0
    3.5970   -5.0858    0.0000 Cl  0  0  0  0  0  0  0  0  0  0  0  0
    0.0000    1.5000    0.0000 C   0  0  0  0  0  0  0  0  0  0  0  0
   -1.2990    0.7500    0.0000 C   0  0  0  0  0  0  0  0  0  0  0  0
   -1.2990   -0.7500    0.0000 C   0  0  0  0  0  0  0  0  0  0  0  0
   -0.0372   -4.4818    0.0000 C   0  0  0  0  0  0  0  0  0  0  0  0
    2.5589   -4.4838    0.0000 C   0  0  0  0  0  0  0  0  0  0  0  0
  2  1  1  0
  3  1  1  0
  4  1  1  0
  5  1  2  0
  6  3  1  0
  7  3  1  0
  8 13  1  0
  9 14  1  0
 10  2  1  0
 11 12  1  0
 12  4  1  0
 13  6  1  0
 14  7  1  0
 11 10  1  0
M  END
> <chembl_id>
CHEMBL88

> <chembl_pref_name>
CYCLOPHOSPHAMIDE ANHYDROUS
