
     RDKit          2D

 55 60  0  0  0  0  0  0  0  0999 V2000
   -6.9148   -4.8082    0.0000 O   0  0  0  0  0  0  0  0  0  0  0  0
   -2.9110   -3.0678    0.0000 N   0  0  0  0  0  0  0  0  0  0  0  0
   -3.3235   -2.3533    0.0000 C   0  0  0  0  0  0  0  0  0  0  0  0
   -4.1485   -2.3533    0.0000 C   0  0  0  0  0  0  0  0  0  0  0  0
   -4.5610   -3.0678    0.0000 N   0  0  0  0  0  0  0  0  0  0  0  0
   -4.1485   -3.7823    0.0000 C   0  0  0  0  0  0  0  0  0  0  0  0
   -3.3235   -3.7823    0.0000 C   0  0  0  0  0  0  0  0  0  0  0  0
   -4.4035   -1.5687    0.0000 C   0  0  0  0  0  0  0  0  0  0  0  0
   -3.7360   -1.0838    0.0000 C   0  0  0  0  0  0  0  0  0  0  0  0
   -3.0686   -1.5687    0.0000 N   0  0  0  0  0  0  0  0  0  0  0  0
   -4.7005   -4.3953    0.0000 N   0  0  0  0  0  0  0  0  0  0  0  0
   -5.4542   -4.0598    0.0000 C   0  0  0  0  0  0  0  0  0  0  0  0
   -5.3680   -3.2394    0.0000 C   0  0  0  0  0  0  0  0  0  0  0  0
   -5.9811   -2.6874    0.0000 C   0  0  0  0  0  0  0  0  0  0  0  0
   -5.8949   -1.8669    0.0000 C   0  0  0  0  0  0  0  0  0  0  0  0
   -6.6486   -1.5314    0.0000 C   0  0  0  0  0  0  0  0  0  0  0  0
   -7.2006   -2.1445    0.0000 N   0  0  0  0  0  0  0  0  0  0  0  0
   -6.7881   -2.8589    0.0000 C   0  0  0  0  0  0  0  0  0  0  0  0
   -5.1805   -1.4543    0.0000 C   0  0  0  0  0  0  0  0  0  0  0  0
   -5.1805   -0.6293    0.0000 C   0  0  0  0  0  0  0  0  0  0  0  0
   -8.0211   -2.0583    0.0000 C   0  0  0  0  0  0  0  0  0  0  0  0
   -8.5060   -2.7258    0.0000 N   0  0  0  0  0  0  0  0  0  0  0  0
   -8.3567   -1.3046    0.0000 O   0  0  0  0  0  0  0  0  0  0  0  0
   -9.3265   -2.6396    0.0000 C   0  0  0  0  0  0  0  0  0  0  0  0
   -9.8114   -3.3070    0.0000 C   0  0  0  0  0  0  0  0  0  0  0  0
  -10.6318   -3.2208    0.0000 F   0  0  0  0  0  0  0  0  0  0  0  0
   -9.4758   -4.0607    0.0000 F   0  0  0  0  0  0  0  0  0  0  0  0
  -10.2962   -3.9745    0.0000 F   0  0  0  0  0  0  0  0  0  0  0  0
   -2.8928   -8.1788    0.0000 N   0  0  0  0  0  0  0  0  0  0  0  0
   -3.3053   -7.4643    0.0000 C   0  0  0  0  0  0  0  0  0  0  0  0
   -4.1303   -7.4643    0.0000 C   0  0  0  0  0  0  0  0  0  0  0  0
   -4.5428   -8.1788    0.0000 N   0  0  0  0  0  0  0  0  0  0  0  0
   -4.1303   -8.8933    0.0000 C   0  0  0  0  0  0  0  0  0  0  0  0
   -3.3053   -8.8933    0.0000 C   0  0  0  0  0  0  0  0  0  0  0  0
   -4.3853   -6.6797    0.0000 C   0  0  0  0  0  0  0  0  0  0  0  0
   -3.7178   -6.1948    0.0000 C   0  0  0  0  0  0  0  0  0  0  0  0
   -3.0504   -6.6797    0.0000 N   0  0  0  0  0  0  0  0  0  0  0  0
   -4.6823   -9.5063    0.0000 N   0  0  0  0  0  0  0  0  0  0  0  0
   -5.4360   -9.1708    0.0000 C   0  0  0  0  0  0  0  0  0  0  0  0
   -5.3498   -8.3504    0.0000 C   0  0  0  0  0  0  0  0  0  0  0  0
   -5.9629   -7.7984    0.0000 C   0  0  0  0  0  0  0  0  0  0  0  0
   -5.8767   -6.9779    0.0000 C   0  0  0  0  0  0  0  0  0  0  0  0
   -6.6304   -6.6424    0.0000 C   0  0  0  0  0  0  0  0  0  0  0  0
   -7.1824   -7.2555    0.0000 N   0  0  0  0  0  0  0  0  0  0  0  0
   -6.7699   -7.9699    0.0000 C   0  0  0  0  0  0  0  0  0  0  0  0
   -5.1623   -6.5653    0.0000 C   0  0  0  0  0  0  0  0  0  0  0  0
   -5.1623   -5.7403    0.0000 C   0  0  0  0  0  0  0  0  0  0  0  0
   -8.0029   -7.1693    0.0000 C   0  0  0  0  0  0  0  0  0  0  0  0
   -8.4878   -7.8368    0.0000 N   0  0  0  0  0  0  0  0  0  0  0  0
   -8.3385   -6.4156    0.0000 O   0  0  0  0  0  0  0  0  0  0  0  0
   -9.3083   -7.7506    0.0000 C   0  0  0  0  0  0  0  0  0  0  0  0
   -9.7932   -8.4180    0.0000 C   0  0  0  0  0  0  0  0  0  0  0  0
  -10.6136   -8.3318    0.0000 F   0  0  0  0  0  0  0  0  0  0  0  0
   -9.4576   -9.1717    0.0000 F   0  0  0  0  0  0  0  0  0  0  0  0
  -10.2780   -9.0855    0.0000 F   0  0  0  0  0  0  0  0  0  0  0  0
  2  3  1  0
  4  5  1  0
  6  7  1  0
  7  2  2  0
  3 10  1  0
  3  4  2  0
  4  8  1  0
  8  9  2  0
  9 10  1  0
  5 13  1  0
  5  6  1  0
  6 11  2  0
 11 12  1  0
 12 13  2  0
 14 13  1  1
 14 15  1  0
 14 18  1  0
 15 16  1  0
 16 17  1  0
 17 18  1  0
 15 19  1  1
 19 20  1  0
 17 21  1  0
 21 22  1  0
 21 23  2  0
 22 24  1  0
 24 25  1  0
 25 26  1  0
 25 27  1  0
 25 28  1  0
 29 30  1  0
 31 32  1  0
 33 34  1  0
 34 29  2  0
 30 37  1  0
 30 31  2  0
 31 35  1  0
 35 36  2  0
 36 37  1  0
 32 40  1  0
 32 33  1  0
 33 38  2  0
 38 39  1  0
 39 40  2  0
 41 40  1  1
 41 42  1  0
 41 45  1  0
 42 43  1  0
 43 44  1  0
 44 45  1  0
 42 46  1  1
 46 47  1  0
 44 48  1  0
 48 49  1  0
 48 50  2  0
 49 51  1  0
 51 52  1  0
 52 53  1  0
 52 54  1  0
 52 55  1  0
M  END
> <chembl_id>
CHEMBL5315119

> <chembl_pref_name>
UPADACITINIB HEMIHYDRATE
