
     RDKit          2D

 11 10  0  0  0  0  0  0  0  0999 V2000
    0.7542   -1.8292    0.0000 P   0  0  0  0  0  0  0  0  0  0  0  0
    0.4000   -2.4375    0.0000 O   0  0  0  0  0  0  0  0  0  0  0  0
    1.3667   -1.4750    0.0000 O   0  0  0  0  0  0  0  0  0  0  0  0
    0.1417   -1.4750    0.0000 O   0  0  0  0  0  0  0  0  0  0  0  0
    1.1042   -2.4375    0.0000 F   0  0  0  0  0  0  0  0  0  0  0  0
   -0.4708   -1.8292    0.0000 C   0  0  0  0  0  0  0  0  0  0  0  0
    1.9792   -1.8292    0.0000 C   0  0  0  0  0  0  0  0  0  0  0  0
    2.6000   -1.4750    0.0000 C   0  0  0  0  0  0  0  0  0  0  0  0
    1.9792   -2.5375    0.0000 C   0  0  0  0  0  0  0  0  0  0  0  0
   -0.4708   -2.5375    0.0000 C   0  0  0  0  0  0  0  0  0  0  0  0
   -1.0833   -1.4750    0.0000 C   0  0  0  0  0  0  0  0  0  0  0  0
  2  1  2  0
  3  1  1  0
  4  1  1  0
  5  1  1  0
  6  4  1  0
  7  3  1  0
  8  7  1  0
  9  7  1  0
 10  6  1  0
 11  6  1  0
M  END
> <chembl_id>
CHEMBL1025

> <chembl_pref_name>
ISOFLUROPHATE
