
     RDKit          2D

 27 28  0  0  0  0  0  0  0  0999 V2000
    1.3667   -2.2250    0.0000 C   0  0  0  0  0  0  0  0  0  0  0  0
    0.7542   -1.8625    0.0000 N   0  0  0  0  0  0  0  0  0  0  0  0
    1.3667   -2.9292    0.0000 C   0  0  0  0  0  0  0  0  0  0  0  0
    1.9917   -2.5917    0.0000 C   0  0  0  0  0  0  0  0  0  0  0  0
    1.3667   -1.5125    0.0000 C   0  0  0  0  0  0  0  0  0  0  0  0
    0.7542   -1.1542    0.0000 C   0  0  0  0  0  0  0  0  0  0  0  0
    2.6167   -1.4917    0.0000 N   0  0  0  0  0  0  0  0  0  0  0  0
    4.4625   -1.1625    0.0000 C   0  0  0  0  0  0  0  0  0  0  0  0
    3.8292   -1.4917    0.0000 C   0  0  0  0  0  0  0  0  0  0  0  0
    0.1417   -2.2167    0.0000 C   0  0  0  0  0  0  0  0  0  0  0  0
    1.9750   -3.2750    0.0000 O   0  0  0  0  0  0  0  0  0  0  0  0
    0.1417   -0.7917    0.0000 O   0  0  0  0  0  0  0  0  0  0  0  0
    2.6167   -2.2250    0.0000 C   0  0  0  0  0  0  0  0  0  0  0  0
    1.9917   -1.1292    0.0000 C   0  0  0  0  0  0  0  0  0  0  0  0
    4.4625   -0.4417    0.0000 O   0  0  0  0  0  0  0  0  0  0  0  0
    3.2125   -1.1542    0.0000 C   0  0  0  0  0  0  0  0  0  0  0  0
    0.7542   -3.2917    0.0000 O   0  0  0  0  0  0  0  0  0  0  0  0
    5.0542   -1.4917    0.0000 O   0  0  0  0  0  0  0  0  0  0  0  0
    1.3667   -0.7917    0.0000 C   0  0  0  0  0  0  0  0  0  0  0  0
    0.1417   -2.9292    0.0000 C   0  0  0  0  0  0  0  0  0  0  0  0
   -0.4833   -1.8750    0.0000 C   0  0  0  0  0  0  0  0  0  0  0  0
    0.7542   -3.9917    0.0000 C   0  0  0  0  0  0  0  0  0  0  0  0
    5.6667   -1.1625    0.0000 C   0  0  0  0  0  0  0  0  0  0  0  0
    1.3667   -0.0750    0.0000 C   0  0  0  0  0  0  0  0  0  0  0  0
   -1.0958   -2.2250    0.0000 C   0  0  0  0  0  0  0  0  0  0  0  0
   -0.4708   -3.2917    0.0000 C   0  0  0  0  0  0  0  0  0  0  0  0
   -1.0958   -2.9292    0.0000 C   0  0  0  0  0  0  0  0  0  0  0  0
  2  1  1  0
  3  1  1  0
  4  1  1  0
  5  1  1  0
  6  2  1  0
  7 14  1  0
  8  9  1  0
  9 16  1  0
 10  2  1  0
 11  3  2  0
 12  6  2  0
 13  4  1  0
 14  5  1  0
 15  8  2  0
 16  7  1  0
 17  3  1  0
 18  8  1  0
 19  6  1  0
 20 10  2  0
 21 10  1  0
 22 17  1  0
 23 18  1  0
 24 19  1  0
 25 21  2  0
 26 20  1  0
 27 26  2  0
  7 13  1  0
 27 25  1  0
M  END
> <chembl_id>
CHEMBL1005

> <chembl_pref_name>
REMIFENTANIL
