
     RDKit          2D

 31 34  0  0  0  0  0  0  0  0999 V2000
    6.0535   -3.9522    0.0000 C   0  0  0  0  0  0  0  0  0  0  0  0
    6.2316   -4.7564    0.0000 C   0  0  0  0  0  0  0  0  0  0  0  0
    5.2562   -3.6794    0.0000 F   0  0  0  0  0  0  0  0  0  0  0  0
    6.7019   -3.3807    0.0000 C   0  0  0  0  0  0  0  0  0  0  0  0
    5.6904   -2.3310    0.0000 N   0  0  0  0  0  0  0  0  0  0  0  0
    6.5181   -2.5956    0.0000 C   0  0  0  0  0  0  0  0  0  0  0  0
    7.4603   -3.6442    0.0000 C   0  0  0  0  0  0  0  0  0  0  0  0
    7.6412   -4.4564    0.0000 C   0  0  0  0  0  0  0  0  0  0  0  0
    7.0180   -5.0160    0.0000 C   0  0  0  0  0  0  0  0  0  0  0  0
    0.2971   -4.4106    0.0000 O   0  0  0  0  0  0  0  0  0  0  0  0
    1.1024   -4.1568    0.0000 C   0  0  0  0  0  0  0  0  0  0  0  0
    1.2569   -3.3365    0.0000 N   0  0  0  0  0  0  0  0  0  0  0  0
    1.6617   -4.7144    0.0000 O   0  0  0  0  0  0  0  0  0  0  0  0
    2.0663   -3.1063    0.0000 C   0  0  0  0  0  0  0  0  0  0  0  0
    2.2248   -2.3101    0.0000 C   0  0  0  0  0  0  0  0  0  0  0  0
    1.3826   -1.7369    0.0000 N   0  0  0  0  0  0  0  0  0  0  0  0
    2.9709   -2.0339    0.0000 N   0  0  0  0  0  0  0  0  0  0  0  0
    2.6790   -3.6611    0.0000 C   0  0  0  0  0  0  0  0  0  0  0  0
    3.4279   -3.3822    0.0000 N   0  0  0  0  0  0  0  0  0  0  0  0
    2.6341   -4.2862    0.0000 N   0  0  0  0  0  0  0  0  0  0  0  0
    3.6134   -2.5970    0.0000 C   0  0  0  0  0  0  0  0  0  0  0  0
    4.3959   -2.3551    0.0000 C   0  0  0  0  0  0  0  0  0  0  0  0
    4.6535   -1.5696    0.0000 C   0  0  0  0  0  0  0  0  0  0  0  0
    4.2370   -0.8601    0.0000 C   0  0  0  0  0  0  0  0  0  0  0  0
    4.6395   -0.1511    0.0000 C   0  0  0  0  0  0  0  0  0  0  0  0
    5.4845   -0.1513    0.0000 C   0  0  0  0  0  0  0  0  0  0  0  0
    5.8504   -0.8456    0.0000 N   0  0  0  0  0  0  0  0  0  0  0  0
    5.4784   -1.5567    0.0000 C   0  0  0  0  0  0  0  0  0  0  0  0
    5.0505   -2.8109    0.0000 N   0  0  0  0  0  0  0  0  0  0  0  0
    1.2846   -5.6435    0.0000 C   0  0  0  0  0  0  0  0  0  0  0  0
    0.4342   -2.7881    0.0000 C   0  0  0  0  0  0  0  0  0  0  0  0
  1  2  2  0
  1  4  1  0
  2  9  1  0
  3  1  1  0
  4  7  2  0
  5  6  1  0
  5 28  1  0
  6  4  1  0
  8  7  1  0
  9  8  2  0
 10 11  2  0
 11 12  1  0
 11 13  1  0
 12 14  1  0
 13 30  1  0
 14 18  2  0
 15 14  1  0
 15 17  2  0
 16 15  1  0
 18 19  1  0
 18 20  1  0
 19 21  2  0
 21 17  1  0
 21 22  1  0
 22 29  2  0
 23 22  1  0
 23 28  1  0
 24 23  2  0
 24 25  1  0
 25 26  2  0
 27 26  1  0
 28 27  2  0
 29  5  1  0
 31 12  1  0
M  END
> <chembl_id>
CHEMBL2107834

> <chembl_pref_name>
RIOCIGUAT
