
     RDKit          2D

 19 19  0  0  0  0  0  0  0  0999 V2000
  -15.8813    5.0384    0.0000 Cl  0  0  0  0  0  0  0  0  0  0  0  0
  -14.2607    7.9897    0.0000 C   0  0  0  0  0  0  0  0  0  0  0  0
  -14.6732    7.2752    0.0000 C   0  0  0  0  0  0  0  0  0  0  0  0
  -13.8482    7.2752    0.0000 C   0  0  0  0  0  0  0  0  0  0  0  0
  -15.3877    7.6877    0.0000 C   0  0  0  0  0  0  0  0  0  0  0  0
  -13.8482    6.4502    0.0000 C   0  0  0  0  0  0  0  0  0  0  0  0
  -13.1338    7.6877    0.0000 C   0  0  0  0  0  0  0  0  0  0  0  0
  -12.4193    7.2752    0.0000 N   0  0  0  0  0  0  0  0  0  0  0  0
  -13.1338    8.5127    0.0000 O   0  0  0  0  0  0  0  0  0  0  0  0
  -11.7048    7.6877    0.0000 C   0  0  0  0  0  0  0  0  0  0  0  0
  -12.4193    6.4502    0.0000 C   0  0  0  0  0  0  0  0  0  0  0  0
  -11.7048    6.0377    0.0000 C   0  0  0  0  0  0  0  0  0  0  0  0
  -10.9904    7.2752    0.0000 C   0  0  0  0  0  0  0  0  0  0  0  0
  -16.1021    7.2752    0.0000 N   0  0  0  0  0  0  0  0  0  0  0  0
  -14.5627    6.0377    0.0000 C   0  0  0  0  0  0  0  0  0  0  0  0
  -14.5627    5.2127    0.0000 C   0  0  0  0  0  0  0  0  0  0  0  0
  -13.8482    4.8002    0.0000 C   0  0  0  0  0  0  0  0  0  0  0  0
  -13.1337    5.2127    0.0000 C   0  0  0  0  0  0  0  0  0  0  0  0
  -13.1337    6.0377    0.0000 C   0  0  0  0  0  0  0  0  0  0  0  0
  2  3  1  0
  3  4  1  0
  4  2  1  0
  3  5  1  6
  4  6  1  1
  4  7  1  0
  7  8  1  0
  7  9  2  0
  8 10  1  0
  8 11  1  0
 11 12  1  0
 10 13  1  0
  5 14  1  0
  6 15  1  0
  6 19  2  0
 15 16  2  0
 16 17  1  0
 17 18  2  0
 18 19  1  0
M  END
> <chembl_id>
CHEMBL2105732

> <chembl_pref_name>
LEVOMILNACIPRAN HYDROCHLORIDE
