
     RDKit          2D

 25 27  0  0  0  0  0  0  0  0999 V2000
    3.9542   -6.6292    0.0000 C   0  0  0  0  0  0  0  0  0  0  0  0
    1.5167   -6.6292    0.0000 C   0  0  0  0  0  0  0  0  0  0  0  0
    4.5625   -6.2750    0.0000 N   0  0  0  0  0  0  0  0  0  0  0  0
    2.1417   -6.2792    0.0000 C   0  0  0  0  0  0  0  0  0  0  0  0
    3.9667   -7.3292    0.0000 N   0  0  0  0  0  0  0  0  0  0  0  0
    2.7542   -6.6292    0.0000 O   0  0  0  0  0  0  0  0  0  0  0  0
    3.3542   -6.2792    0.0000 C   0  0  0  0  0  0  0  0  0  0  0  0
    2.1500   -5.5667    0.0000 O   0  0  0  0  0  0  0  0  0  0  0  0
    0.9042   -6.2708    0.0000 C   0  0  0  0  0  0  0  0  0  0  0  0
    1.1542   -7.2417    0.0000 C   0  0  0  0  0  0  0  0  0  0  0  0
    1.8667   -7.2417    0.0000 O   0  0  0  0  0  0  0  0  0  0  0  0
    5.1875   -6.6167    0.0000 C   0  0  0  0  0  0  0  0  0  0  0  0
    4.5875   -7.6875    0.0000 C   0  0  0  0  0  0  0  0  0  0  0  0
    4.5375   -5.5792    0.0000 C   0  0  0  0  0  0  0  0  0  0  0  0
    5.1917   -7.3292    0.0000 C   0  0  0  0  0  0  0  0  0  0  0  0
    0.2917   -6.6250    0.0000 C   0  0  0  0  0  0  0  0  0  0  0  0
    0.9125   -5.5667    0.0000 C   0  0  0  0  0  0  0  0  0  0  0  0
    1.5083   -7.8583    0.0000 C   0  0  0  0  0  0  0  0  0  0  0  0
    0.4458   -7.2375    0.0000 C   0  0  0  0  0  0  0  0  0  0  0  0
    0.3042   -5.2083    0.0000 C   0  0  0  0  0  0  0  0  0  0  0  0
   -0.3167   -6.2667    0.0000 C   0  0  0  0  0  0  0  0  0  0  0  0
    0.0875   -7.8458    0.0000 C   0  0  0  0  0  0  0  0  0  0  0  0
    1.1458   -8.4708    0.0000 C   0  0  0  0  0  0  0  0  0  0  0  0
    0.4375   -8.4667    0.0000 C   0  0  0  0  0  0  0  0  0  0  0  0
   -0.3125   -5.5542    0.0000 C   0  0  0  0  0  0  0  0  0  0  0  0
  2  4  1  0
  3  1  1  0
  4  6  1  0
  5  1  2  0
  6  7  1  0
  7  1  1  0
  8  4  2  0
  9  2  1  0
 10  2  1  0
 11  2  1  0
 12  3  1  0
 13  5  1  0
 14  3  1  0
 15 13  1  0
 16  9  1  0
 17  9  2  0
 18 10  1  0
 19 10  1  0
 20 17  1  0
 21 16  2  0
 22 19  1  0
 23 18  1  0
 24 23  1  0
 25 21  1  0
 15 12  1  0
 24 22  1  0
 25 20  2  0
M  END
> <chembl_id>
CHEMBL1495

> <chembl_pref_name>
OXYPHENCYCLIMINE
