
     RDKit          2D

 25 26  0  0  0  0  0  0  0  0999 V2000
    6.3667   -1.7917    0.0000 C   0  0  0  0  0  0  0  0  0  0  0  0
    7.5917   -1.7917    0.0000 C   0  0  0  0  0  0  0  0  0  0  0  0
    6.9792   -2.1500    0.0000 C   0  0  0  0  0  0  0  0  0  0  0  0
    6.3667   -1.0875    0.0000 C   0  0  0  0  0  0  0  0  0  0  0  0
    7.5917   -1.0875    0.0000 C   0  0  0  0  0  0  0  0  0  0  0  0
    6.9792   -0.7292    0.0000 N   0  0  0  0  0  0  0  0  0  0  0  0
    8.8167   -3.1458    0.0000 N   0  0  0  0  0  0  0  0  0  0  0  0
    6.9792   -3.5125    0.0000 C   0  0  0  0  0  0  0  0  0  0  0  0
    7.5917   -3.8625    0.0000 C   0  0  0  0  0  0  0  0  0  0  0  0
    8.2083   -2.1458    0.0000 C   0  0  0  0  0  0  0  0  0  0  0  0
    5.7542   -2.1458    0.0000 C   0  0  0  0  0  0  0  0  0  0  0  0
    9.4292   -3.5000    0.0000 O   0  0  0  0  0  0  0  0  0  0  0  0
    8.8167   -2.4375    0.0000 O   0  0  0  0  0  0  0  0  0  0  0  0
    8.2083   -2.8542    0.0000 O   0  0  0  0  0  0  0  0  0  0  0  0
    5.7542   -2.8542    0.0000 O   0  0  0  0  0  0  0  0  0  0  0  0
    8.8208   -1.7917    0.0000 O   0  0  0  0  0  0  0  0  0  0  0  0
    5.1417   -1.7917    0.0000 O   0  0  0  0  0  0  0  0  0  0  0  0
    5.7542   -0.7333    0.0000 C   0  0  0  0  0  0  0  0  0  0  0  0
    8.2083   -0.7333    0.0000 C   0  0  0  0  0  0  0  0  0  0  0  0
    6.3667   -3.8625    0.0000 C   0  0  0  0  0  0  0  0  0  0  0  0
    7.5958   -4.5667    0.0000 C   0  0  0  0  0  0  0  0  0  0  0  0
    9.4333   -2.1458    0.0000 C   0  0  0  0  0  0  0  0  0  0  0  0
    4.5292   -2.1458    0.0000 C   0  0  0  0  0  0  0  0  0  0  0  0
    6.3667   -4.5708    0.0000 C   0  0  0  0  0  0  0  0  0  0  0  0
    6.9792   -4.9250    0.0000 C   0  0  0  0  0  0  0  0  0  0  0  0
  2  3  1  0
  3  1  1  0
  4  1  2  0
  5  2  2  0
  6  4  1  0
  7  9  1  0
  8  3  1  0
  9  8  1  0
 10  2  1  0
 11  1  1  0
 12  7  1  0
 13  7  2  0
 14 10  2  0
 15 11  2  0
 16 10  1  0
 17 11  1  0
 18  4  1  0
 19  5  1  0
 20  8  2  0
 21  9  2  0
 22 16  1  0
 23 17  1  0
 24 20  1  0
 25 21  1  0
  6  5  1  0
 25 24  2  0
M  CHG  2   7   1  12  -1
M  END
> <chembl_id>
CHEMBL193

> <chembl_pref_name>
NIFEDIPINE
