
     RDKit          2D

 28 30  0  0  1  0  0  0  0  0999 V2000
    2.8542    1.3208    0.0000 N   0  0  0  0  0  0  0  0  0  0  0  0
    1.2667    1.3208    0.0000 C   0  0  0  0  0  0  0  0  0  0  0  0
    1.2792   -0.1542    0.0000 C   0  0  0  0  0  0  0  0  0  0  0  0
    2.8542   -0.1542    0.0000 C   0  0  0  0  0  0  0  0  0  0  0  0
   -2.4583   -1.3292    0.0000 C   0  0  0  0  0  0  0  0  0  0  0  0
    4.1292    2.0583    0.0000 C   0  0  0  0  0  0  0  0  0  0  0  0
   -3.5875   -0.3417    0.0000 C   0  0  0  0  0  0  0  0  0  0  0  0
    0.2292   -1.2292    0.0000 N   0  0  0  0  0  0  0  0  0  0  0  0
   -1.1458   -0.5875    0.0000 C   0  0  0  0  0  0  0  0  0  0  0  0
   -3.4833    1.0875    0.0000 N   0  0  0  0  0  0  0  0  0  0  0  0
   -4.7958    1.7125    0.0000 C   0  0  0  0  0  0  0  0  0  0  0  0
   -2.4625   -2.7750    0.0000 C   0  0  0  0  0  0  0  0  0  0  0  0
   -5.9083    0.6625    0.0000 S   0  0  0  0  0  0  0  0  0  0  0  0
   -5.1208   -0.6792    0.0000 C   0  0  0  0  0  0  0  0  0  0  0  0
    4.1292    3.5583    0.0000 C   0  0  0  0  0  0  0  0  0  0  0  0
    4.1292   -0.8792    0.0000 S   0  0  0  0  0  0  0  0  0  0  0  0
    5.4042    1.3208    0.0000 C   0  0  0  0  0  0  0  0  0  0  0  0
    0.2042    2.3625    0.0000 O   0  0  0  0  0  0  0  0  0  0  0  0
   -1.2375   -4.9542    0.0000 C   0  0  0  0  0  0  0  0  0  0  0  0
   -1.1458    1.0083    0.0000 O   0  0  0  0  0  0  0  0  0  0  0  0
    2.7917    4.3542    0.0000 O   0  0  0  0  0  0  0  0  0  0  0  0
   -1.2583   -3.4625    0.0000 C   0  0  0  0  0  0  0  0  0  0  0  0
   -2.5500   -5.7667    0.0000 O   0  0  0  0  0  0  0  0  0  0  0  0
   -5.0208    3.2083    0.0000 N   0  0  0  0  0  0  0  0  0  0  0  0
    5.4042   -0.1542    0.0000 C   0  0  0  0  0  0  0  0  0  0  0  0
    5.3792    4.2917    0.0000 O   0  0  0  0  0  0  0  0  0  0  0  0
    0.0042   -5.6917    0.0000 O   0  0  0  0  0  0  0  0  0  0  0  0
    2.4667   -1.6125    0.0000 H   0  0  0  0  0  0  0  0  0  0  0  0
  2  1  1  0
  3  4  1  0
  4  1  1  0
  5  9  1  0
  6  1  1  0
  7  5  1  0
  3  8  1  6
  9  8  1  0
 10  7  1  0
 11 10  2  0
 12  5  2  0
 13 14  1  0
 14  7  2  0
 15  6  1  0
 16  4  1  0
 17  6  2  0
 18  2  2  0
 19 22  1  0
 20  9  2  0
 21 15  2  0
 22 12  1  0
 23 19  2  0
 24 11  1  0
 25 17  1  0
 26 15  1  0
 27 19  1  0
  4 28  1  1
  2  3  1  0
 16 25  1  0
 13 11  1  0
M  END
> <chembl_id>
CHEMBL1605

> <chembl_pref_name>
CEFTIBUTEN
