
     RDKit          2D

 25 27  0  0  0  0  0  0  0  0999 V2000
    3.3500   -4.4167    0.0000 C   0  0  0  0  0  0  0  0  0  0  0  0
    3.9792   -4.0708    0.0000 C   0  0  0  0  0  0  0  0  0  0  0  0
    2.6792   -4.0708    0.0000 C   0  0  0  0  0  0  0  0  0  0  0  0
    3.6625   -2.8167    0.0000 O   0  0  0  0  0  0  0  0  0  0  0  0
    4.1125   -3.3125    0.0000 C   0  0  0  0  0  0  0  0  0  0  0  0
    4.5542   -4.5042    0.0000 C   0  0  0  0  0  0  0  0  0  0  0  0
    3.3500   -5.1375    0.0000 C   0  0  0  0  0  0  0  0  0  0  0  0
    6.4292   -4.3667    0.0000 C   0  0  0  0  0  0  0  0  0  0  0  0
    2.5250   -3.3917    0.0000 C   0  0  0  0  0  0  0  0  0  0  0  0
    2.9292   -2.8167    0.0000 C   0  0  0  0  0  0  0  0  0  0  0  0
    5.1792   -4.2583    0.0000 C   0  0  0  0  0  0  0  0  0  0  0  0
    6.4292   -3.7167    0.0000 O   0  0  0  0  0  0  0  0  0  0  0  0
    4.8167   -3.1000    0.0000 C   0  0  0  0  0  0  0  0  0  0  0  0
    5.8250   -4.6875    0.0000 C   0  0  0  0  0  0  0  0  0  0  0  0
    5.3292   -3.5417    0.0000 C   0  0  0  0  0  0  0  0  0  0  0  0
    4.5417   -6.5542    0.0000 N   0  0  0  0  0  0  0  0  0  0  0  0
    7.0125   -4.7000    0.0000 O   0  0  0  0  0  0  0  0  0  0  0  0
    3.9417   -5.4792    0.0000 C   0  0  0  0  0  0  0  0  0  0  0  0
    2.1792   -4.5792    0.0000 C   0  0  0  0  0  0  0  0  0  0  0  0
    3.9417   -6.1750    0.0000 C   0  0  0  0  0  0  0  0  0  0  0  0
    1.8000   -3.1917    0.0000 C   0  0  0  0  0  0  0  0  0  0  0  0
    5.1500   -6.1750    0.0000 C   0  0  0  0  0  0  0  0  0  0  0  0
    4.5417   -7.2417    0.0000 C   0  0  0  0  0  0  0  0  0  0  0  0
    1.4792   -4.3792    0.0000 C   0  0  0  0  0  0  0  0  0  0  0  0
    1.3042   -3.6750    0.0000 C   0  0  0  0  0  0  0  0  0  0  0  0
  2  1  1  0
  3  1  1  0
  4  5  1  0
  5  2  2  0
  6  2  1  0
  7  1  2  0
  8 14  1  0
  9  3  2  0
 10  9  1  0
 11  6  2  0
 12  8  2  0
 13  5  1  0
 14 11  1  0
 15 11  1  0
 16 20  1  0
 17  8  1  0
 18  7  1  0
 19  3  1  0
 20 18  1  0
 21  9  1  0
 22 16  1  0
 23 16  1  0
 24 19  2  0
 25 24  1  0
 10  4  1  0
 25 21  2  0
 15 13  2  0
M  END
> <chembl_id>
CHEMBL1189432

> <chembl_pref_name>
OLOPATADINE
