
     RDKit          2D

 31 32  0  0  0  0  0  0  0  0999 V2000
   -2.7353   -5.0286    0.0000 Na  0  0  0  0  0 15  0  0  0  0  0  0
    2.1232   -8.5219    0.0000 C   0  0  0  0  0  0  0  0  0  0  0  0
    1.3021   -8.5171    0.0000 C   0  0  0  0  0  0  0  0  0  0  0  0
    1.3118   -7.0935    0.0000 C   0  0  0  0  0  0  0  0  0  0  0  0
    2.3758   -9.3042    0.0000 C   0  0  0  0  0  0  0  0  0  0  0  0
    0.8988   -7.7980    0.0000 C   0  0  0  0  0  0  0  0  0  0  0  0
    2.5411   -7.8077    0.0000 C   0  0  0  0  0  0  0  0  0  0  0  0
    2.1330   -7.0984    0.0000 C   0  0  0  0  0  0  0  0  0  0  0  0
    1.7054   -9.7852    0.0000 C   0  0  0  0  0  0  0  0  0  0  0  0
    1.0398   -9.2993    0.0000 C   0  0  0  0  0  0  0  0  0  0  0  0
    3.0901   -9.7124    0.0000 C   0  0  0  0  0  0  0  0  0  0  0  0
   -1.1710   -5.6845    0.0000 C   0  0  0  0  0  0  0  0  0  0  0  0
    0.8988   -6.3891    0.0000 C   0  0  0  0  0  0  0  0  0  0  0  0
    0.0729   -6.3939    0.0000 O   0  0  0  0  0  0  0  0  0  0  0  0
   -1.5888   -4.9703    0.0000 O   0  0  0  0  0  0  0  0  0  0  0  0
   -1.5791   -6.4037    0.0000 O   0  0  0  0  0  0  0  0  0  0  0  0
   -0.3449   -5.6797    0.0000 C   0  0  0  0  0  0  0  0  0  0  0  0
    1.7005  -10.6112    0.0000 O   0  0  0  0  0  0  0  0  0  0  0  0
    3.8043   -9.2993    0.0000 C   0  0  0  0  0  0  0  0  0  0  0  0
    2.5459   -6.3891    0.0000 C   0  0  0  0  0  0  0  0  0  0  0  0
    4.5185  -10.5383    0.0000 O   0  0  0  0  0  0  0  0  0  0  0  0
    2.1330   -5.6749    0.0000 C   0  0  0  0  0  0  0  0  0  0  0  0
    1.3069   -5.6749    0.0000 C   0  0  0  0  0  0  0  0  0  0  0  0
    4.5185   -9.7124    0.0000 C   0  0  0  0  0  0  0  0  0  0  0  0
    5.2327   -9.2944    0.0000 C   0  0  0  0  0  0  0  0  0  0  0  0
    7.3802   -9.7026    0.0000 C   0  0  0  0  0  0  0  0  0  0  0  0
    6.6611   -9.2897    0.0000 C   0  0  0  0  0  0  0  0  0  0  0  0
    5.9469   -9.7075    0.0000 C   0  0  0  0  0  0  0  0  0  0  0  0
    8.0944   -9.2897    0.0000 C   0  0  0  0  0  0  0  0  0  0  0  0
    0.4713   -8.5171    0.0000 H   0  0  0  0  0  0  0  0  0  0  0  0
    2.9492   -8.5171    0.0000 H   0  0  0  0  0  0  0  0  0  0  0  0
  3  2  1  0
  4  6  1  0
  5  2  1  0
  6  3  1  0
  7  2  1  0
  8  7  1  0
  9  5  1  0
 10  3  1  0
  5 11  1  1
 12 17  1  0
 13  4  1  0
 14 13  1  0
 15 12  1  0
 16 12  2  0
 17 14  1  0
  9 18  1  6
 19 11  1  0
 20  8  1  0
 24 21  1  6
 22 20  2  0
 23 13  2  0
 24 19  1  0
 25 24  1  0
 26 27  1  0
 27 28  1  0
 28 25  1  0
 29 26  1  0
  3 30  1  1
  2 31  1  1
  9 10  1  0
  4  8  2  0
 23 22  1  0
M  CHG  2   1   1  15  -1
M  END
> <chembl_id>
CHEMBL561157

> <chembl_pref_name>
TREPROSTINIL SODIUM
