
     RDKit          2D

  8  8  0  0  0  0  0  0  0  0999 V2000
   -1.0083   -4.0917    0.0000 N   0  0  0  0  0  0  0  0  0  0  0  0
   -0.2833   -4.0917    0.0000 C   0  0  0  0  0  0  0  0  0  0  0  0
   -0.6500   -3.0000    0.0000 N   0  0  0  0  0  0  0  0  0  0  0  0
   -1.2333   -3.4042    0.0000 C   0  0  0  0  0  0  0  0  0  0  0  0
   -0.0708   -3.4167    0.0000 C   0  0  0  0  0  0  0  0  0  0  0  0
    0.0750   -4.7042    0.0000 C   0  0  0  0  0  0  0  0  0  0  0  0
    1.1417   -5.3167    0.0000 N   0  0  0  0  0  0  0  0  0  0  0  0
    0.7792   -4.7042    0.0000 C   0  0  0  0  0  0  0  0  0  0  0  0
  2  1  1  0
  3  4  1  0
  4  1  2  0
  5  2  2  0
  6  2  1  0
  7  8  1  0
  8  6  1  0
  5  3  1  0
M  END
> <chembl_id>
CHEMBL90

> <chembl_pref_name>
HISTAMINE
