
     RDKit          2D

 18 19  0  0  1  0  0  0  0  0999 V2000
    2.7542   -6.0250    0.0000 C   0  0  0  0  0  0  0  0  0  0  0  0
    3.1542   -5.4375    0.0000 N   0  0  0  0  0  0  0  0  0  0  0  0
    3.1417   -6.5667    0.0000 N   0  0  0  0  0  0  0  0  0  0  0  0
    3.8750   -5.6417    0.0000 C   0  0  0  0  0  0  0  0  0  0  0  0
    3.8625   -6.3667    0.0000 C   0  0  0  0  0  0  0  0  0  0  0  0
    4.9250   -5.9917    0.0000 S   0  0  0  0  0  0  0  0  0  0  0  0
    4.5292   -5.3917    0.0000 C   0  0  0  0  0  0  0  0  0  0  0  0
    4.5292   -6.5667    0.0000 C   0  0  0  0  0  0  0  0  0  0  0  0
    2.1125   -6.0292    0.0000 O   0  0  0  0  0  0  0  0  0  0  0  0
    6.9542   -3.5500    0.0000 C   0  0  0  0  0  0  0  0  0  0  0  0
    6.6042   -2.9417    0.0000 O   0  0  0  0  0  0  0  0  0  0  0  0
    7.6667   -3.5292    0.0000 O   0  0  0  0  0  0  0  0  0  0  0  0
    6.5917   -4.1875    0.0000 C   0  0  0  0  0  0  0  0  0  0  0  0
    4.8292   -4.8042    0.0000 C   0  0  0  0  0  0  0  0  0  0  0  0
    5.8792   -4.1792    0.0000 C   0  0  0  0  0  0  0  0  0  0  0  0
    5.5167   -4.8125    0.0000 C   0  0  0  0  0  0  0  0  0  0  0  0
    3.8750   -4.9000    0.0000 H   0  0  0  0  0  0  0  0  0  0  0  0
    3.8542   -7.0917    0.0000 H   0  0  0  0  0  0  0  0  0  0  0  0
  2  1  1  0
  3  1  1  0
  4  2  1  0
  5  3  1  0
  6  8  1  0
  7  4  1  0
  8  5  1  0
  9  1  2  0
 10 13  1  0
 11 10  2  0
 12 10  1  0
 13 15  1  0
  7 14  1  6
 15 16  1  0
 16 14  1  0
  4 17  1  1
  5 18  1  1
  5  4  1  0
  6  7  1  0
M  END
> <chembl_id>
CHEMBL857

> <chembl_pref_name>
BIOTIN
