
     RDKit          2D

 12 12  0  0  1  0  0  0  0  0999 V2000
    4.3167   -5.1500    0.0000 N   0  0  0  0  0  0  0  0  0  0  0  0
    3.7292   -4.7292    0.0000 C   0  0  0  0  0  0  0  0  0  0  0  0
    4.9167   -4.8167    0.0000 C   0  0  0  0  0  0  0  0  0  0  0  0
    5.5292   -5.1792    0.0000 C   0  0  0  0  0  0  0  0  0  0  0  0
    3.7292   -4.0375    0.0000 O   0  0  0  0  0  0  0  0  0  0  0  0
    5.5292   -5.9042    0.0000 O   0  0  0  0  0  0  0  0  0  0  0  0
    6.1500   -4.8375    0.0000 N   0  0  0  0  0  0  0  0  0  0  0  0
    4.0667   -5.8292    0.0000 C   0  0  0  0  0  0  0  0  0  0  0  0
    3.1500   -5.1500    0.0000 C   0  0  0  0  0  0  0  0  0  0  0  0
    4.9167   -4.1125    0.0000 C   0  0  0  0  0  0  0  0  0  0  0  0
    3.3667   -5.8292    0.0000 C   0  0  0  0  0  0  0  0  0  0  0  0
    5.5292   -3.7500    0.0000 C   0  0  0  0  0  0  0  0  0  0  0  0
  2  1  1  0
  3  1  1  0
  4  3  1  0
  5  2  2  0
  6  4  2  0
  7  4  1  0
  8  1  1  0
  9  2  1  0
  3 10  1  1
 11  8  1  0
 12 10  1  0
 11  9  1  0
M  END
> <chembl_id>
CHEMBL1286

> <chembl_pref_name>
LEVETIRACETAM
