
     RDKit          2D

 20 21  0  0  0  0  0  0  0  0999 V2000
    0.3417    0.6458    0.0000 S   0  0  0  0  0  0  0  0  0  0  0  0
    0.9542    0.2958    0.0000 N   0  0  0  0  0  0  0  0  0  0  0  0
   -0.2708    0.2958    0.0000 C   0  0  0  0  0  0  0  0  0  0  0  0
   -2.1208    0.6458    0.0000 S   0  0  0  0  0  0  0  0  0  0  0  0
   -1.5083    0.2958    0.0000 C   0  0  0  0  0  0  0  0  0  0  0  0
    0.9542   -0.4167    0.0000 C   0  0  0  0  0  0  0  0  0  0  0  0
   -0.2708   -0.4167    0.0000 C   0  0  0  0  0  0  0  0  0  0  0  0
    0.3417   -0.7667    0.0000 N   0  0  0  0  0  0  0  0  0  0  0  0
   -0.8958    0.6458    0.0000 C   0  0  0  0  0  0  0  0  0  0  0  0
   -1.5083   -0.4167    0.0000 C   0  0  0  0  0  0  0  0  0  0  0  0
   -0.8958   -0.7667    0.0000 C   0  0  0  0  0  0  0  0  0  0  0  0
   -0.0208    1.2708    0.0000 O   0  0  0  0  0  0  0  0  0  0  0  0
    0.6917    1.2708    0.0000 O   0  0  0  0  0  0  0  0  0  0  0  0
   -1.7708    1.2625    0.0000 O   0  0  0  0  0  0  0  0  0  0  0  0
   -2.4833    1.2625    0.0000 O   0  0  0  0  0  0  0  0  0  0  0  0
   -2.7333    0.2917    0.0000 N   0  0  0  0  0  0  0  0  0  0  0  0
    1.5667    0.6458    0.0000 C   0  0  0  0  0  0  0  0  0  0  0  0
   -2.1208   -0.7667    0.0000 Cl  0  0  0  0  0  0  0  0  0  0  0  0
    1.5667   -0.7667    0.0000 C   0  0  0  0  0  0  0  0  0  0  0  0
    2.2042   -0.4292    0.0000 Cl  0  0  0  0  0  0  0  0  0  0  0  0
  2  1  1  0
  3  1  1  0
  4  5  1  0
  5  9  2  0
  6  2  1  0
  7  3  2  0
  8  7  1  0
  9  3  1  0
 10  5  1  0
 11  7  1  0
 12  1  2  0
 13  1  2  0
 14  4  2  0
 15  4  2  0
 16  4  1  0
 17  2  1  0
 18 10  1  0
 19  6  1  0
 20 19  1  0
 10 11  2  0
  8  6  1  0
M  END
> <chembl_id>
CHEMBL1577

> <chembl_pref_name>
METHYCLOTHIAZIDE
