
     RDKit          2D

 34 38  0  0  0  0  0  0  0  0999 V2000
    0.4000   -3.0375    0.0000 C   0  0  0  0  0  0  0  0  0  0  0  0
    0.8167   -2.4667    0.0000 C   0  0  0  0  0  0  0  0  0  0  0  0
    0.4042   -1.8875    0.0000 S   0  0  0  0  0  0  0  0  0  0  0  0
   -0.2708   -2.1042    0.0000 C   0  0  0  0  0  0  0  0  0  0  0  0
   -0.2750   -2.8125    0.0000 C   0  0  0  0  0  0  0  0  0  0  0  0
    0.3917   -3.7500    0.0000 C   0  0  0  0  0  0  0  0  0  0  0  0
    1.5292   -2.4667    0.0000 C   0  0  0  0  0  0  0  0  0  0  0  0
   -0.8875   -1.7417    0.0000 C   0  0  0  0  0  0  0  0  0  0  0  0
   -0.8875   -3.1667    0.0000 C   0  0  0  0  0  0  0  0  0  0  0  0
    1.0000   -4.1042    0.0000 C   0  0  0  0  0  0  0  0  0  0  0  0
    4.6667   -4.8625    0.0000 N   0  0  0  0  0  0  0  0  0  0  0  0
   -0.2333   -4.0917    0.0000 O   0  0  0  0  0  0  0  0  0  0  0  0
    1.8792   -1.8542    0.0000 C   0  0  0  0  0  0  0  0  0  0  0  0
    1.8667   -3.0792    0.0000 C   0  0  0  0  0  0  0  0  0  0  0  0
    0.9875   -4.8125    0.0000 C   0  0  0  0  0  0  0  0  0  0  0  0
    1.6167   -3.7542    0.0000 C   0  0  0  0  0  0  0  0  0  0  0  0
   -1.5000   -2.1000    0.0000 C   0  0  0  0  0  0  0  0  0  0  0  0
   -1.5000   -2.8125    0.0000 C   0  0  0  0  0  0  0  0  0  0  0  0
    2.9417   -2.4792    0.0000 C   0  0  0  0  0  0  0  0  0  0  0  0
    2.2167   -4.8292    0.0000 C   0  0  0  0  0  0  0  0  0  0  0  0
    2.5917   -1.8625    0.0000 C   0  0  0  0  0  0  0  0  0  0  0  0
    2.5792   -3.0917    0.0000 C   0  0  0  0  0  0  0  0  0  0  0  0
    2.2250   -4.1167    0.0000 C   0  0  0  0  0  0  0  0  0  0  0  0
    1.5917   -5.1750    0.0000 C   0  0  0  0  0  0  0  0  0  0  0  0
    2.8250   -5.1917    0.0000 O   0  0  0  0  0  0  0  0  0  0  0  0
    4.0500   -5.2042    0.0000 C   0  0  0  0  0  0  0  0  0  0  0  0
   -2.1125   -1.7417    0.0000 O   0  0  0  0  0  0  0  0  0  0  0  0
    3.6500   -2.4792    0.0000 O   0  0  0  0  0  0  0  0  0  0  0  0
    3.4417   -4.8417    0.0000 C   0  0  0  0  0  0  0  0  0  0  0  0
    5.2750   -5.2292    0.0000 C   0  0  0  0  0  0  0  0  0  0  0  0
    4.6750   -4.1542    0.0000 C   0  0  0  0  0  0  0  0  0  0  0  0
    5.2917   -3.8042    0.0000 C   0  0  0  0  0  0  0  0  0  0  0  0
    5.8917   -4.8792    0.0000 C   0  0  0  0  0  0  0  0  0  0  0  0
    5.9000   -4.1667    0.0000 C   0  0  0  0  0  0  0  0  0  0  0  0
  2  1  2  0
  3  2  1  0
  4  5  1  0
  5  1  1  0
  6  1  1  0
  7  2  1  0
  8  4  2  0
  9  5  2  0
 10  6  1  0
 11 26  1  0
 12  6  2  0
 13  7  2  0
 14  7  1  0
 15 10  1  0
 16 10  2  0
 17 18  2  0
 18  9  1  0
 19 22  1  0
 20 23  2  0
 21 13  1  0
 22 14  2  0
 23 16  1  0
 24 15  2  0
 25 20  1  0
 26 29  1  0
 27 17  1  0
 28 19  1  0
 29 25  1  0
 30 11  1  0
 31 11  1  0
 32 31  1  0
 33 30  1  0
 34 33  1  0
  3  4  1  0
 20 24  1  0
 17  8  1  0
 19 21  2  0
 34 32  1  0
M  END
> <chembl_id>
CHEMBL81

> <chembl_pref_name>
RALOXIFENE
