
     RDKit          2D

 12 12  0  0  0  0  0  0  0  0999 V2000
    6.0667   -5.6208    0.0000 C   0  0  0  0  0  0  0  0  0  0  0  0
    5.4542   -5.2667    0.0000 C   0  0  0  0  0  0  0  0  0  0  0  0
    6.6792   -5.2625    0.0000 N   0  0  0  0  0  0  0  0  0  0  0  0
    4.8417   -5.6250    0.0000 C   0  0  0  0  0  0  0  0  0  0  0  0
    3.6167   -6.3375    0.0000 C   0  0  0  0  0  0  0  0  0  0  0  0
    3.0042   -6.6917    0.0000 Cl  0  0  0  0  0  0  0  0  0  0  0  0
    4.2292   -6.6917    0.0000 C   0  0  0  0  0  0  0  0  0  0  0  0
    3.6167   -5.6250    0.0000 C   0  0  0  0  0  0  0  0  0  0  0  0
    4.8417   -6.3375    0.0000 C   0  0  0  0  0  0  0  0  0  0  0  0
    4.2292   -5.2708    0.0000 C   0  0  0  0  0  0  0  0  0  0  0  0
    6.4167   -6.2292    0.0000 C   0  0  0  0  0  0  0  0  0  0  0  0
    5.7042   -6.2292    0.0000 C   0  0  0  0  0  0  0  0  0  0  0  0
  2  1  1  0
  3  1  1  0
  4  2  1  0
  5  7  1  0
  6  5  1  0
  7  9  2  0
  8 10  1  0
  9  4  1  0
 10  4  2  0
 11  1  1  0
 12  1  1  0
  5  8  2  0
M  END
> <chembl_id>
CHEMBL1201269

> <chembl_pref_name>
CHLORPHENTERMINE
