
     RDKit          2D

 31 34  0  0  0  0  0  0  0  0999 V2000
    3.1821   -3.1821    0.0000 C   0  0  0  0  0  0  0  0  0  0  0  0
    2.4676   -3.5946    0.0000 C   0  0  0  0  0  0  0  0  0  0  0  0
    2.4676   -4.4196    0.0000 C   0  0  0  0  0  0  0  0  0  0  0  0
    3.1821   -4.8321    0.0000 C   0  0  0  0  0  0  0  0  0  0  0  0
    3.8966   -4.4196    0.0000 C   0  0  0  0  0  0  0  0  0  0  0  0
    3.8966   -3.5946    0.0000 C   0  0  0  0  0  0  0  0  0  0  0  0
    1.7532   -4.8321    0.0000 O   0  0  0  0  0  0  0  0  0  0  0  0
    1.0387   -4.4196    0.0000 C   0  0  0  0  0  0  0  0  0  0  0  0
    0.9525   -3.5992    0.0000 C   0  0  0  0  0  0  0  0  0  0  0  0
    0.1455   -3.4277    0.0000 O   0  0  0  0  0  0  0  0  0  0  0  0
   -0.2670   -4.1421    0.0000 C   0  0  0  0  0  0  0  0  0  0  0  0
    0.2850   -4.7552    0.0000 C   0  0  0  0  0  0  0  0  0  0  0  0
    4.6111   -3.1821    0.0000 C   0  0  0  0  0  0  0  0  0  0  0  0
    5.3256   -3.5946    0.0000 C   0  0  0  0  0  0  0  0  0  0  0  0
    5.3256   -4.4197    0.0000 C   0  0  0  0  0  0  0  0  0  0  0  0
    6.0400   -4.8322    0.0000 C   0  0  0  0  0  0  0  0  0  0  0  0
    6.7545   -4.4196    0.0000 C   0  0  0  0  0  0  0  0  0  0  0  0
    6.7545   -3.5946    0.0000 C   0  0  0  0  0  0  0  0  0  0  0  0
    6.0401   -3.1821    0.0000 C   0  0  0  0  0  0  0  0  0  0  0  0
    4.6111   -4.8322    0.0000 Cl  0  0  0  0  0  0  0  0  0  0  0  0
    7.4690   -3.1821    0.0000 C   0  0  0  0  0  0  0  0  0  0  0  0
    8.1835   -3.5946    0.0000 O   0  0  0  0  0  0  0  0  0  0  0  0
    8.8980   -3.1821    0.0000 C   0  0  0  0  0  0  0  0  0  0  0  0
    8.8980   -2.3571    0.0000 C   0  0  0  0  0  0  0  0  0  0  0  0
    8.1835   -1.9446    0.0000 C   0  0  0  0  0  0  0  0  0  0  0  0
    7.4690   -2.3571    0.0000 C   0  0  0  0  0  0  0  0  0  0  0  0
    6.7546   -1.9446    0.0000 O   0  0  0  0  0  0  0  0  0  0  0  0
    8.1835   -1.1196    0.0000 O   0  0  0  0  0  0  0  0  0  0  0  0
    9.6125   -1.9446    0.0000 O   0  0  0  0  0  0  0  0  0  0  0  0
    9.6124   -3.5946    0.0000 C   0  0  0  0  0  0  0  0  0  0  0  0
   10.3269   -3.1821    0.0000 O   0  0  0  0  0  0  0  0  0  0  0  0
  1  2  1  0
  1  6  2  0
  2  3  2  0
  3  4  1  0
  4  5  2  0
  5  6  1  0
  3  7  1  0
  8  7  1  1
  8  9  1  0
  8 12  1  0
  9 10  1  0
 10 11  1  0
 11 12  1  0
  6 13  1  0
 13 14  1  0
 14 15  1  0
 14 19  2  0
 15 16  2  0
 16 17  1  0
 17 18  2  0
 18 19  1  0
 15 20  1  0
 21 18  1  1
 21 22  1  0
 26 21  1  0
 22 23  1  0
 23 24  1  0
 24 25  1  0
 25 26  1  0
 26 27  1  6
 25 28  1  1
 24 29  1  6
 23 30  1  1
 30 31  1  0
M  END
> <chembl_id>
CHEMBL2107830

> <chembl_pref_name>
EMPAGLIFLOZIN
