
     RDKit          2D

 34 36  0  0  0  0  0  0  0  0999 V2000
    4.7831   -2.9585    0.0000 N   0  0  0  0  0  0  0  0  0  0  0  0
    4.7831   -3.7912    0.0000 C   0  0  0  0  0  0  0  0  0  0  0  0
    5.4971   -4.2076    0.0000 C   0  0  0  0  0  0  0  0  0  0  0  0
    6.2069   -3.7912    0.0000 C   0  0  0  0  0  0  0  0  0  0  0  0
    6.2069   -2.9585    0.0000 C   0  0  0  0  0  0  0  0  0  0  0  0
    5.4971   -2.5420    0.0000 C   0  0  0  0  0  0  0  0  0  0  0  0
    5.4971   -5.0445    0.0000 N   0  0  0  0  0  0  0  0  0  0  0  0
    4.0775   -2.5420    0.0000 C   0  0  0  0  0  0  0  0  0  0  0  0
    4.0775   -1.7051    0.0000 N   0  0  0  0  0  0  0  0  0  0  0  0
    3.3677   -1.2887    0.0000 C   0  0  0  0  0  0  0  0  0  0  0  0
    2.6578   -1.7051    0.0000 N   0  0  0  0  0  0  0  0  0  0  0  0
    2.6578   -2.5420    0.0000 C   0  0  0  0  0  0  0  0  0  0  0  0
    3.3677   -2.9584    0.0000 C   0  0  0  0  0  0  0  0  0  0  0  0
    1.9481   -2.9585    0.0000 O   0  0  0  0  0  0  0  0  0  0  0  0
    1.9481   -1.2887    0.0000 C   0  0  0  0  0  0  0  0  0  0  0  0
    3.3677   -0.4560    0.0000 O   0  0  0  0  0  0  0  0  0  0  0  0
    4.7831   -1.2886    0.0000 C   0  0  0  0  0  0  0  0  0  0  0  0
    4.7831   -0.4559    0.0000 C   0  0  0  0  0  0  0  0  0  0  0  0
    5.4971   -0.0395    0.0000 C   0  0  0  0  0  0  0  0  0  0  0  0
    5.4971    0.7933    0.0000 C   0  0  0  0  0  0  0  0  0  0  0  0
    4.7831    1.2138    0.0000 C   0  0  0  0  0  0  0  0  0  0  0  0
    4.0775    0.7933    0.0000 C   0  0  0  0  0  0  0  0  0  0  0  0
    4.0775   -0.0395    0.0000 C   0  0  0  0  0  0  0  0  0  0  0  0
    6.2119   -0.4502    0.0000 C   0  0  0  0  0  0  0  0  0  0  0  0
    6.9264   -0.8627    0.0000 N   0  0  0  0  0  0  0  0  0  0  0  0
    8.2762   -2.9937    0.0000 C   0  0  0  0  0  0  0  0  0  0  0  0
    8.2750   -3.8247    0.0000 C   0  0  0  0  0  0  0  0  0  0  0  0
    8.9894   -4.2373    0.0000 C   0  0  0  0  0  0  0  0  0  0  0  0
    9.7053   -3.8243    0.0000 C   0  0  0  0  0  0  0  0  0  0  0  0
    9.7024   -2.9901    0.0000 C   0  0  0  0  0  0  0  0  0  0  0  0
    8.9876   -2.5812    0.0000 C   0  0  0  0  0  0  0  0  0  0  0  0
    8.9851   -1.7568    0.0000 C   0  0  0  0  0  0  0  0  0  0  0  0
    9.6978   -1.3425    0.0000 O   0  0  0  0  0  0  0  0  0  0  0  0
    8.2657   -1.3468    0.0000 O   0  0  0  0  0  0  0  0  0  0  0  0
 10 11  1  0
 11 12  1  0
 12 13  1  0
 13  8  2  0
 12 14  2  0
 11 15  1  0
 10 16  2  0
  9 17  1  0
 17 18  1  0
 18 19  2  0
 19 20  1  0
 20 21  2  0
 21 22  1  0
 22 23  2  0
 23 18  1  0
  1  2  1  0
  2  3  1  0
  3  4  1  0
  4  5  1  0
  5  6  1  0
  6  1  1  0
  3  7  1  1
  1  8  1  0
  8  9  1  0
  9 10  1  0
 19 24  1  0
 24 25  3  0
 32 34  1  0
 26 27  2  0
 27 28  1  0
 28 29  2  0
 29 30  1  0
 30 31  2  0
 31 26  1  0
 31 32  1  0
 32 33  2  0
M  END
> <chembl_id>
CHEMBL227529

> <chembl_pref_name>
ALOGLIPTIN BENZOATE
