
     RDKit          2D

 16 17  0  0  0  0  0  0  0  0999 V2000
    1.8167   -0.2167    0.0000 C   0  0  0  0  0  0  0  0  0  0  0  0
    0.6250    0.4625    0.0000 C   0  0  0  0  0  0  0  0  0  0  0  0
   -0.5833   -0.2375    0.0000 C   0  0  0  0  0  0  0  0  0  0  0  0
    1.8292   -1.6042    0.0000 C   0  0  0  0  0  0  0  0  0  0  0  0
    0.6292   -2.3042    0.0000 N   0  0  0  0  0  0  0  0  0  0  0  0
   -0.5875   -1.6167    0.0000 C   0  0  0  0  0  0  0  0  0  0  0  0
    3.0417    0.4708    0.0000 C   0  0  0  0  0  0  0  0  0  0  0  0
    4.2550    1.1518    0.0000 N   0  0  0  0  0  0  0  0  0  0  0  0
    3.0167   -2.2792    0.0000 O   0  0  0  0  0  0  0  0  0  0  0  0
   -1.7833    0.4708    0.0000 C   0  0  0  0  0  0  0  0  0  0  0  0
   -4.1708    1.8708    0.0000 N   0  0  0  0  0  0  0  0  0  0  0  0
   -1.8125   -2.3042    0.0000 C   0  0  0  0  0  0  0  0  0  0  0  0
   -4.1625    0.4833    0.0000 C   0  0  0  0  0  0  0  0  0  0  0  0
   -2.9708    2.5708    0.0000 C   0  0  0  0  0  0  0  0  0  0  0  0
   -1.7583    1.8708    0.0000 C   0  0  0  0  0  0  0  0  0  0  0  0
   -2.9708   -0.2000    0.0000 C   0  0  0  0  0  0  0  0  0  0  0  0
  2  1  2  0
  3  2  1  0
  4  1  1  0
  5  4  1  0
  6  5  1  0
  7  1  1  0
  8  7  3  0
  9  4  2  0
 10  3  1  0
 11 13  1  0
 12  6  1  0
 13 16  2  0
 14 15  1  0
 15 10  2  0
 16 10  1  0
  3  6  2  0
 14 11  2  0
M  END
> <chembl_id>
CHEMBL189

> <chembl_pref_name>
MILRINONE
