
     RDKit          2D

 22 22  0  0  0  0  0  0  0  0999 V2000
    3.5375   -1.0542    0.0000 C   0  0  0  0  0  0  0  0  0  0  0  0
   -0.1958   -1.3417    0.0000 C   0  0  0  0  0  0  0  0  0  0  0  0
    3.5500   -0.2417    0.0000 C   0  0  0  0  0  0  0  0  0  0  0  0
    0.6167   -0.8917    0.0000 N   0  0  0  0  0  0  0  0  0  0  0  0
    2.8167   -1.4417    0.0000 C   0  0  0  0  0  0  0  0  0  0  0  0
   -0.1958   -2.1792    0.0000 O   0  0  0  0  0  0  0  0  0  0  0  0
    2.8792    0.1583    0.0000 C   0  0  0  0  0  0  0  0  0  0  0  0
   -2.9500    1.1208    0.0000 C   0  0  0  0  0  0  0  0  0  0  0  0
   -2.9500    0.3208    0.0000 C   0  0  0  0  0  0  0  0  0  0  0  0
    2.1292   -1.0292    0.0000 C   0  0  0  0  0  0  0  0  0  0  0  0
    1.4250   -1.4042    0.0000 C   0  0  0  0  0  0  0  0  0  0  0  0
    2.1500   -0.2000    0.0000 C   0  0  0  0  0  0  0  0  0  0  0  0
    4.2375   -1.4792    0.0000 O   0  0  0  0  0  0  0  0  0  0  0  0
    4.2792    0.1208    0.0000 O   0  0  0  0  0  0  0  0  0  0  0  0
   -0.8708   -0.9292    0.0000 C   0  0  0  0  0  0  0  0  0  0  0  0
   -3.6458    1.5250    0.0000 C   0  0  0  0  0  0  0  0  0  0  0  0
   -2.2583   -0.0917    0.0000 C   0  0  0  0  0  0  0  0  0  0  0  0
    4.2167   -2.2667    0.0000 C   0  0  0  0  0  0  0  0  0  0  0  0
   -1.5833   -1.3042    0.0000 C   0  0  0  0  0  0  0  0  0  0  0  0
   -2.2708   -0.8917    0.0000 C   0  0  0  0  0  0  0  0  0  0  0  0
   -3.6583    2.3333    0.0000 C   0  0  0  0  0  0  0  0  0  0  0  0
   -4.3458    1.1333    0.0000 C   0  0  0  0  0  0  0  0  0  0  0  0
  2  4  1  0
  3  1  2  0
  4 11  1  0
  5  1  1  0
  6  2  2  0
  7  3  1  0
  8  9  2  0
  9 17  1  0
 10  5  2  0
 11 10  1  0
 12 10  1  0
 13  1  1  0
 14  3  1  0
 15  2  1  0
 16  8  1  0
 17 20  1  0
 18 13  1  0
 19 15  1  0
 20 19  1  0
 21 16  1  0
 22 16  1  0
  7 12  2  0
M  END
> <chembl_id>
CHEMBL294199

> <chembl_pref_name>
CAPSAICIN
