
     RDKit          2D

 31 34  0  0  0  0  0  0  0  0999 V2000
   -5.1638    1.0651    0.0000 C   0  0  0  0  0  0  0  0  0  0  0  0
   -5.9340    0.7694    0.0000 C   0  0  0  0  0  0  0  0  0  0  0  0
   -6.0630   -0.0454    0.0000 C   0  0  0  0  0  0  0  0  0  0  0  0
   -5.4219   -0.5647    0.0000 C   0  0  0  0  0  0  0  0  0  0  0  0
   -4.6517   -0.2690    0.0000 C   0  0  0  0  0  0  0  0  0  0  0  0
   -4.5226    0.5459    0.0000 C   0  0  0  0  0  0  0  0  0  0  0  0
   -1.0888    3.5242    0.0000 C   0  0  0  0  0  0  0  0  0  0  0  0
   -1.9138    3.5242    0.0000 N   0  0  0  0  0  0  0  0  0  0  0  0
   -2.3263    2.8097    0.0000 C   0  0  0  0  0  0  0  0  0  0  0  0
   -1.9138    2.0952    0.0000 C   0  0  0  0  0  0  0  0  0  0  0  0
   -1.0888    2.0952    0.0000 C   0  0  0  0  0  0  0  0  0  0  0  0
   -0.6763    2.8097    0.0000 N   0  0  0  0  0  0  0  0  0  0  0  0
   -2.1688    1.3107    0.0000 C   0  0  0  0  0  0  0  0  0  0  0  0
   -1.5013    0.8257    0.0000 N   0  0  0  0  0  0  0  0  0  0  0  0
   -0.8339    1.3106    0.0000 N   0  0  0  0  0  0  0  0  0  0  0  0
    0.5954    1.4792    0.0000 C   0  0  0  0  0  0  0  0  0  0  0  0
   -0.0720    0.9943    0.0000 C   0  0  0  0  0  0  0  0  0  0  0  0
    0.1829    0.2097    0.0000 C   0  0  0  0  0  0  0  0  0  0  0  0
    1.0079    0.2097    0.0000 N   0  0  0  0  0  0  0  0  0  0  0  0
    1.2629    0.9943    0.0000 C   0  0  0  0  0  0  0  0  0  0  0  0
   -3.7380    0.8008    0.0000 C   0  0  0  0  0  0  0  0  0  0  0  0
   -2.9534    1.0557    0.0000 C   0  0  0  0  0  0  0  0  0  0  0  0
   -6.5751    1.2886    0.0000 O   0  0  0  0  0  0  0  0  0  0  0  0
   -7.3453    0.9929    0.0000 C   0  0  0  0  0  0  0  0  0  0  0  0
   -5.4651   -1.3885    0.0000 O   0  0  0  0  0  0  0  0  0  0  0  0
   -6.1796   -1.8010    0.0000 C   0  0  0  0  0  0  0  0  0  0  0  0
   -3.1513    2.8097    0.0000 N   0  0  0  0  0  0  0  0  0  0  0  0
    1.4929   -0.4578    0.0000 C   0  0  0  0  0  0  0  0  0  0  0  0
    1.1183   -1.1928    0.0000 C   0  0  0  0  0  0  0  0  0  0  0  0
    1.5676   -1.8847    0.0000 C   0  0  0  0  0  0  0  0  0  0  0  0
    2.3133   -0.3715    0.0000 O   0  0  0  0  0  0  0  0  0  0  0  0
  1  2  1  0
  2  3  2  0
  3  4  1  0
  4  5  2  0
  5  6  1  0
  1  6  2  0
  7  8  2  0
  8  9  1  0
  9 10  2  0
 10 11  1  0
 11 12  2  0
  7 12  1  0
 13 14  2  0
 14 15  1  0
 10 13  1  0
 11 15  1  0
 16 17  1  0
 17 18  1  0
 18 19  1  0
 19 20  1  0
 16 20  1  0
  6 21  1  0
 21 22  3  0
 22 13  1  0
  2 23  1  0
 23 24  1  0
  4 25  1  0
 25 26  1  0
  9 27  1  0
 17 15  1  1
 19 28  1  0
 28 29  1  0
 29 30  2  0
 28 31  2  0
M  END
> <chembl_id>
CHEMBL3701238

> <chembl_pref_name>
FUTIBATINIB
