
     RDKit          2D

 15 16  0  0  1  0  0  0  0  0999 V2000
   -1.7458    0.0458    0.0000 N   0  0  0  0  0  0  0  0  0  0  0  0
   -3.1583    0.0458    0.0000 C   0  0  0  0  0  0  0  0  0  0  0  0
   -1.7333   -1.3792    0.0000 C   0  0  0  0  0  0  0  0  0  0  0  0
   -0.3833    0.5000    0.0000 C   0  0  0  0  0  0  0  0  0  0  0  0
    0.4667   -0.6375    0.0000 C   0  0  0  0  0  0  0  0  0  0  0  0
   -0.3625   -1.8000    0.0000 O   0  0  0  0  0  0  0  0  0  0  0  0
   -3.1458   -1.3792    0.0000 C   0  0  0  0  0  0  0  0  0  0  0  0
    0.0417    1.8500    0.0000 C   0  0  0  0  0  0  0  0  0  0  0  0
    1.8917   -0.6417    0.0000 C   0  0  0  0  0  0  0  0  0  0  0  0
   -4.1625    1.0625    0.0000 O   0  0  0  0  0  0  0  0  0  0  0  0
   -0.9208    2.9000    0.0000 O   0  0  0  0  0  0  0  0  0  0  0  0
    1.4292    2.1708    0.0000 O   0  0  0  0  0  0  0  0  0  0  0  0
    2.8167   -1.7292    0.0000 C   0  0  0  0  0  0  0  0  0  0  0  0
    4.2375   -1.7292    0.0000 O   0  0  0  0  0  0  0  0  0  0  0  0
   -1.7333   -2.8000    0.0000 H   0  0  0  0  0  0  0  0  0  0  0  0
  2  1  1  0
  3  1  1  0
  4  1  1  0
  5  4  1  0
  6  3  1  0
  7  3  1  0
  4  8  1  1
  9  5  2  0
 10  2  2  0
 11  8  2  0
 12  8  1  0
 13  9  1  0
 14 13  1  0
  3 15  1  1
  2  7  1  0
  5  6  1  0
M  END
> <chembl_id>
CHEMBL777

> <chembl_pref_name>
CLAVULANIC ACID
