
     RDKit          2D

 19 21  0  0  1  0  0  0  0  0999 V2000
    0.8708   -7.9042    0.0000 N   0  0  0  0  0  0  0  0  0  0  0  0
    0.2000   -7.6917    0.0000 C   0  0  0  0  0  0  0  0  0  0  0  0
    0.1958   -6.9875    0.0000 C   0  0  0  0  0  0  0  0  0  0  0  0
    0.8792   -8.8500    0.0000 C   0  0  0  0  0  0  0  0  0  0  0  0
    0.8625   -6.7667    0.0000 N   0  0  0  0  0  0  0  0  0  0  0  0
    1.2833   -7.3333    0.0000 C   0  0  0  0  0  0  0  0  0  0  0  0
   -0.3708   -8.1375    0.0000 N   0  0  0  0  0  0  0  0  0  0  0  0
    0.3042   -8.4292    0.0000 O   0  0  0  0  0  0  0  0  0  0  0  0
    0.6583   -9.5250    0.0000 C   0  0  0  0  0  0  0  0  0  0  0  0
   -0.2708   -8.8500    0.0000 C   0  0  0  0  0  0  0  0  0  0  0  0
   -0.3542   -6.5333    0.0000 C   0  0  0  0  0  0  0  0  0  0  0  0
   -0.0500   -9.5250    0.0000 C   0  0  0  0  0  0  0  0  0  0  0  0
   -1.0667   -7.9708    0.0000 C   0  0  0  0  0  0  0  0  0  0  0  0
   -1.3667   -7.3292    0.0000 N   0  0  0  0  0  0  0  0  0  0  0  0
   -0.1875   -5.8458    0.0000 O   0  0  0  0  0  0  0  0  0  0  0  0
   -0.4667  -10.0958    0.0000 O   0  0  0  0  0  0  0  0  0  0  0  0
   -1.0500   -6.6875    0.0000 C   0  0  0  0  0  0  0  0  0  0  0  0
   -0.8875   -8.4917    0.0000 C   0  0  0  0  0  0  0  0  0  0  0  0
   -1.5000   -8.8458    0.0000 O   0  0  0  0  0  0  0  0  0  0  0  0
  2  1  1  0
  3  2  2  0
  4  1  1  1
  5  6  2  0
  6  1  1  0
  7  2  1  0
  8  4  1  0
  9  4  1  0
 10  8  1  0
 11  3  1  0
 12  9  1  0
 13  7  2  0
 14 13  1  0
 11 15  1  1
 12 16  1  6
 17 11  1  0
 10 18  1  1
 19 18  1  0
  3  5  1  0
 12 10  1  0
 17 14  1  0
M  END
> <chembl_id>
CHEMBL1580

> <chembl_pref_name>
PENTOSTATIN
