
     RDKit          2D

 47 49  0  0  0  0  0  0  0  0999 V2000
    5.0917   -4.6500    0.0000 S   0  0  0  0  0  0  0  0  0  0  0  0
    5.4417   -4.0292    0.0000 O   0  0  0  0  0  0  0  0  0  0  0  0
    4.7292   -4.0292    0.0000 O   0  0  0  0  0  0  0  0  0  0  0  0
    5.7042   -5.0042    0.0000 O   0  0  0  0  0  0  0  0  0  0  0  0
    4.4792   -5.0042    0.0000 C   0  0  0  0  0  0  0  0  0  0  0  0
    7.6000   -2.8000    0.0000 N   0  0  0  0  0  0  0  0  0  0  0  0
    8.2417   -2.4250    0.0000 C   0  0  0  0  0  0  0  0  0  0  0  0
    4.5417   -2.4542    0.0000 C   0  0  0  0  0  0  0  0  0  0  0  0
    8.2417   -1.6667    0.0000 C   0  0  0  0  0  0  0  0  0  0  0  0
    5.1792   -2.8000    0.0000 N   0  0  0  0  0  0  0  0  0  0  0  0
    3.8917   -2.8125    0.0000 C   0  0  0  0  0  0  0  0  0  0  0  0
    8.8292   -2.8000    0.0000 C   0  0  0  0  0  0  0  0  0  0  0  0
    7.0167   -2.4542    0.0000 C   0  0  0  0  0  0  0  0  0  0  0  0
    3.2542   -2.4542    0.0000 C   0  0  0  0  0  0  0  0  0  0  0  0
    7.5875   -3.4917    0.0000 C   0  0  0  0  0  0  0  0  0  0  0  0
    5.8042   -2.4542    0.0000 C   0  0  0  0  0  0  0  0  0  0  0  0
    8.8167   -1.3167    0.0000 N   0  0  0  0  0  0  0  0  0  0  0  0
    6.4250   -2.8000    0.0000 C   0  0  0  0  0  0  0  0  0  0  0  0
    8.8292   -3.5042    0.0000 C   0  0  0  0  0  0  0  0  0  0  0  0
    8.2292   -3.8667    0.0000 C   0  0  0  0  0  0  0  0  0  0  0  0
    4.5417   -1.7417    0.0000 O   0  0  0  0  0  0  0  0  0  0  0  0
    7.6250   -1.3167    0.0000 O   0  0  0  0  0  0  0  0  0  0  0  0
    2.6250   -2.8125    0.0000 C   0  0  0  0  0  0  0  0  0  0  0  0
    5.8042   -1.7625    0.0000 C   0  0  0  0  0  0  0  0  0  0  0  0
    9.4042   -1.6417    0.0000 C   0  0  0  0  0  0  0  0  0  0  0  0
    6.3917   -1.4000    0.0000 S   0  0  0  0  0  0  0  0  0  0  0  0
    6.4250   -3.5167    0.0000 O   0  0  0  0  0  0  0  0  0  0  0  0
    6.3917   -0.7042    0.0000 C   0  0  0  0  0  0  0  0  0  0  0  0
    1.9917   -2.4542    0.0000 O   0  0  0  0  0  0  0  0  0  0  0  0
    3.8917   -3.5417    0.0000 C   0  0  0  0  0  0  0  0  0  0  0  0
    3.2542   -1.7625    0.0000 C   0  0  0  0  0  0  0  0  0  0  0  0
    3.2542   -3.9250    0.0000 C   0  0  0  0  0  0  0  0  0  0  0  0
    2.6250   -3.5417    0.0000 C   0  0  0  0  0  0  0  0  0  0  0  0
    9.4625   -3.8417    0.0000 C   0  0  0  0  0  0  0  0  0  0  0  0
    8.2292   -4.5750    0.0000 C   0  0  0  0  0  0  0  0  0  0  0  0
    9.7542   -2.2542    0.0000 C   0  0  0  0  0  0  0  0  0  0  0  0
   10.0167   -1.3167    0.0000 C   0  0  0  0  0  0  0  0  0  0  0  0
    9.0500   -2.2542    0.0000 C   0  0  0  0  0  0  0  0  0  0  0  0
    5.8000   -0.3417    0.0000 C   0  0  0  0  0  0  0  0  0  0  0  0
    6.9667   -0.3417    0.0000 C   0  0  0  0  0  0  0  0  0  0  0  0
    9.4625   -4.5750    0.0000 C   0  0  0  0  0  0  0  0  0  0  0  0
    8.8500   -4.9292    0.0000 C   0  0  0  0  0  0  0  0  0  0  0  0
    6.9667    0.3208    0.0000 C   0  0  0  0  0  0  0  0  0  0  0  0
    5.8000    0.3208    0.0000 C   0  0  0  0  0  0  0  0  0  0  0  0
    6.3917    0.6750    0.0000 C   0  0  0  0  0  0  0  0  0  0  0  0
    9.4417   -3.1500    0.0000 H   0  0  0  0  0  0  0  0  0  0  0  0
    7.6167   -4.2167    0.0000 H   0  0  0  0  0  0  0  0  0  0  0  0
  2  1  2  0
  3  1  2  0
  4  1  1  0
  5  1  1  0
  7  6  1  0
  8 10  1  0
  7  9  1  6
 10 16  1  0
 11  8  1  0
 12  7  1  0
 13  6  1  0
 14 11  1  0
 15  6  1  0
 16 18  1  0
 17  9  1  0
 18 13  1  0
 19 20  1  0
 20 15  1  0
 21  8  2  0
 22  9  2  0
 23 14  2  0
 16 24  1  1
 25 17  1  0
 26 24  1  0
 18 27  1  1
 28 26  1  0
 29 23  1  0
 30 11  2  0
 31 14  1  0
 32 30  1  0
 33 23  1  0
 34 19  1  0
 35 20  1  0
 36 25  1  0
 37 25  1  0
 38 25  1  0
 39 28  2  0
 40 28  1  0
 41 42  1  0
 42 35  1  0
 43 40  2  0
 44 39  1  0
 45 44  2  0
 19 46  1  1
 20 47  1  1
 19 12  1  0
 41 34  1  0
 32 33  2  0
 45 43  1  0
M  END
> <chembl_id>
CHEMBL1205

> <chembl_pref_name>
NELFINAVIR MESYLATE
