
     RDKit          2D

 35 37  0  0  0  0  0  0  0  0999 V2000
   -0.7875   -2.9000    0.0000 Cl  0  0  0  0  0  0  0  0  0  0  0  0
    4.4792    1.3458    0.0000 N   0  0  0  0  0  0  0  0  0  0  0  0
    4.4792    2.1833    0.0000 C   0  0  0  0  0  0  0  0  0  0  0  0
    1.6292   -1.1292    0.0000 S   0  0  0  0  0  0  0  0  0  0  0  0
    3.7667    0.9458    0.0000 N   0  0  0  0  0  0  0  0  0  0  0  0
    3.0542    1.3583    0.0000 C   0  0  0  0  0  0  0  0  0  0  0  0
    3.7667    2.5958    0.0000 C   0  0  0  0  0  0  0  0  0  0  0  0
    3.0500    2.1833    0.0000 N   0  0  0  0  0  0  0  0  0  0  0  0
    5.7542    1.7708    0.0000 N   0  0  0  0  0  0  0  0  0  0  0  0
    5.2667    2.4333    0.0000 C   0  0  0  0  0  0  0  0  0  0  0  0
    5.2667    1.0958    0.0000 C   0  0  0  0  0  0  0  0  0  0  0  0
    2.3417    0.9333    0.0000 C   0  0  0  0  0  0  0  0  0  0  0  0
    0.8000   -1.1292    0.0000 N   0  0  0  0  0  0  0  0  0  0  0  0
    1.6292   -0.3042    0.0000 C   0  0  0  0  0  0  0  0  0  0  0  0
    2.3417    0.1083    0.0000 C   0  0  0  0  0  0  0  0  0  0  0  0
   -0.8583   -1.1292    0.0000 N   0  0  0  0  0  0  0  0  0  0  0  0
    1.6167   -1.9542    0.0000 O   0  0  0  0  0  0  0  0  0  0  0  0
    2.4417   -1.1292    0.0000 O   0  0  0  0  0  0  0  0  0  0  0  0
    0.3875   -0.4167    0.0000 C   0  0  0  0  0  0  0  0  0  0  0  0
    0.3792   -1.8417    0.0000 C   0  0  0  0  0  0  0  0  0  0  0  0
    1.6292    1.3458    0.0000 C   0  0  0  0  0  0  0  0  0  0  0  0
    3.7667    3.4208    0.0000 O   0  0  0  0  0  0  0  0  0  0  0  0
    0.9167    0.1083    0.0000 C   0  0  0  0  0  0  0  0  0  0  0  0
   -0.4458   -1.8417    0.0000 C   0  0  0  0  0  0  0  0  0  0  0  0
   -0.4375   -0.4042    0.0000 C   0  0  0  0  0  0  0  0  0  0  0  0
    0.9167    0.9333    0.0000 C   0  0  0  0  0  0  0  0  0  0  0  0
    5.5250    3.2208    0.0000 C   0  0  0  0  0  0  0  0  0  0  0  0
    5.5167    0.3083    0.0000 C   0  0  0  0  0  0  0  0  0  0  0  0
   -1.6833   -1.1167    0.0000 C   0  0  0  0  0  0  0  0  0  0  0  0
    1.6250    2.1708    0.0000 O   0  0  0  0  0  0  0  0  0  0  0  0
    0.9125    2.5833    0.0000 C   0  0  0  0  0  0  0  0  0  0  0  0
    4.9667   -0.3042    0.0000 C   0  0  0  0  0  0  0  0  0  0  0  0
   -2.1000   -1.8292    0.0000 C   0  0  0  0  0  0  0  0  0  0  0  0
    0.9042    3.4083    0.0000 C   0  0  0  0  0  0  0  0  0  0  0  0
    5.2250   -1.0917    0.0000 C   0  0  0  0  0  0  0  0  0  0  0  0
  3  2  1  0
  4 14  1  0
  5  2  1  0
  6  5  2  0
  7  3  1  0
  8  6  1  0
  9 11  2  0
 10  3  2  0
 11  2  1  0
 12  6  1  0
 13  4  1  0
 14 15  1  0
 15 12  2  0
 16 24  1  0
 17  4  2  0
 18  4  2  0
 19 13  1  0
 20 13  1  0
 21 12  1  0
 22  7  1  0
 23 26  1  0
 24 20  1  0
 25 19  1  0
 26 21  2  0
 27 10  1  0
 28 11  1  0
 29 16  1  0
 30 21  1  0
 31 30  1  0
 32 28  1  0
 33 29  1  0
 34 31  1  0
 35 32  1  0
 10  9  1  0
  8  7  2  0
 14 23  2  0
 16 25  1  0
M  END
> <chembl_id>
CHEMBL1339

> <chembl_pref_name>
VARDENAFIL HYDROCHLORIDE
