
     RDKit          2D

 26 28  0  0  0  0  0  0  0  0999 V2000
   12.1770    2.6099    0.0000 O   0  0  0  0  0  0  0  0  0  0  0  0
   10.9388    1.8966    0.0000 O   0  0  0  0  0  0  0  0  0  0  0  0
   13.4123    0.4653    0.0000 O   0  0  0  0  0  0  0  0  0  0  0  0
   10.1376    4.5666    0.0000 N   0  0  0  0  0  0  0  0  0  0  0  0
   10.6982    4.1267    0.0000 C   0  0  0  0  0  0  0  0  0  0  0  0
   10.2773    3.7535    0.0000 C   0  0  0  0  0  0  0  0  0  0  0  0
   10.2277    5.3866    0.0000 C   0  0  0  0  0  0  0  0  0  0  0  0
   11.7652    3.3248    0.0000 C   0  0  0  0  0  0  0  0  0  0  0  0
   11.6270    4.1422    0.0000 C   0  0  0  0  0  0  0  0  0  0  0  0
   11.2490    3.7535    0.0000 C   0  0  0  0  0  0  0  0  0  0  0  0
   10.3777    3.4181    0.0000 C   0  0  0  0  0  0  0  0  0  0  0  0
    9.7574    3.0412    0.0000 C   0  0  0  0  0  0  0  0  0  0  0  0
    9.3732    4.8770    0.0000 C   0  0  0  0  0  0  0  0  0  0  0  0
   11.7638    1.8958    0.0000 C   0  0  0  0  0  0  0  0  0  0  0  0
   12.1756    1.1809    0.0000 C   0  0  0  0  0  0  0  0  0  0  0  0
    9.5625    5.8747    0.0000 C   0  0  0  0  0  0  0  0  0  0  0  0
   10.9829    5.7186    0.0000 C   0  0  0  0  0  0  0  0  0  0  0  0
   11.7623    0.4669    0.0000 C   0  0  0  0  0  0  0  0  0  0  0  0
   13.0006    1.1801    0.0000 C   0  0  0  0  0  0  0  0  0  0  0  0
   12.1741   -0.2480    0.0000 C   0  0  0  0  0  0  0  0  0  0  0  0
   10.9373    0.4677    0.0000 C   0  0  0  0  0  0  0  0  0  0  0  0
   11.7609   -0.9621    0.0000 C   0  0  0  0  0  0  0  0  0  0  0  0
   10.5241   -0.2464    0.0000 C   0  0  0  0  0  0  0  0  0  0  0  0
   10.9359   -0.9612    0.0000 C   0  0  0  0  0  0  0  0  0  0  0  0
   10.7303    2.8620    0.0000 H   0  0  0  0  0  0  0  0  0  0  0  0
   11.2474    3.2910    0.0000 H   0  0  0  0  0  0  0  0  0  0  0  0
  8  1  1  6
  1 14  1  0
  2 14  2  0
  3 19  1  0
  4  5  1  0
  4  6  1  0
  4  7  1  0
  4 13  1  0
  5  9  1  0
  5 11  1  0
  6 10  1  0
  6 12  1  0
  7 16  1  0
  7 17  1  0
  8  9  1  0
  8 10  1  0
 11 12  1  0
 14 15  1  0
 15 18  1  0
 15 19  1  0
 18 20  2  0
 18 21  1  0
 20 22  1  0
 21 23  2  0
 22 24  2  0
 23 24  1  0
  6 25  1  1
  5 26  1  6
M  CHG  1   4   1
M  END
> <chembl_id>
CHEMBL1621597

> <chembl_pref_name>
IPRATROPIUM
