
  SciTegic03161810332D

 25 27  0  0  0  0            999 V2000
   -6.6026  -14.7352    0.0000 C   0  0  2  0  0  0
   -6.7408  -13.9178    0.0000 C   0  0  1  0  0  0
   -7.6696  -13.9333    0.0000 C   0  0  2  0  0  0
   -8.2302  -13.4934    0.0000 N   0  0
   -8.0905  -14.3065    0.0000 C   0  0  2  0  0  0
   -7.1188  -14.3065    0.0000 C   0  0
   -8.6104  -15.0188    0.0000 C   0  0
   -7.9901  -14.6419    0.0000 C   0  0
   -6.2135  -13.2833    0.0000 C   0  0
   -5.4004  -13.4226    0.0000 O   0  0
   -6.4994  -12.5094    0.0000 O   0  0
   -5.9722  -11.8749    0.0000 C   0  0
   -6.1908  -15.4501    0.0000 C   0  0
   -5.3658  -15.4509    0.0000 C   0  0
   -4.9540  -16.1658    0.0000 C   0  0
   -5.3672  -16.8799    0.0000 C   0  0
   -6.1922  -16.8790    0.0000 C   0  0
   -6.6040  -16.1642    0.0000 C   0  0
   -4.9554  -17.5947    0.0000 I   0  0
   -8.6528  -12.7849    0.0000 C   0  0
   -9.4777  -12.7966    0.0000 C   0  0
   -9.9003  -12.0881    0.0000 C   0  0
  -10.7252  -12.0998    0.0000 F   0  0
   -8.6732  -13.7225    0.0000 H   0  0
   -7.8595  -13.1305    0.0000 H   0  0
  1  2  1  0
  2  3  1  0
  3  4  1  0
  4  5  1  0
  5  6  1  0
  6  1  1  0
  5  7  1  0
  3  8  1  0
  8  7  1  0
  2  9  1  1
  9 10  2  0
  9 11  1  0
 11 12  1  0
  1 13  1  1
 13 14  1  0
 13 18  2  0
 14 15  2  0
 15 16  1  0
 16 17  2  0
 17 18  1  0
 16 19  1  0
  4 20  1  0
 20 21  1  0
 21 22  1  0
 22 23  1  0
  5 24  1  1
  3 25  1  6
M  END
> <chembl_id>
CHEMBL1945778

> <chembl_pref_name>
IOFLUPANE
