
     RDKit          2D

 33 36  0  0  1  0  0  0  0  0999 V2000
    2.9792   -2.4500    0.0000 C   0  0  0  0  0  0  0  0  0  0  0  0
    1.1500   -3.5292    0.0000 C   0  0  0  0  0  0  0  0  0  0  0  0
    2.9875   -3.1625    0.0000 C   0  0  0  0  0  0  0  0  0  0  0  0
    1.7625   -3.1750    0.0000 C   0  0  0  0  0  0  0  0  0  0  0  0
    2.3750   -3.5167    0.0000 C   0  0  0  0  0  0  0  0  0  0  0  0
    1.1500   -4.2375    0.0000 C   0  0  0  0  0  0  0  0  0  0  0  0
    2.3750   -4.2417    0.0000 C   0  0  0  0  0  0  0  0  0  0  0  0
    3.6542   -2.2375    0.0000 C   0  0  0  0  0  0  0  0  0  0  0  0
    2.3625   -2.1125    0.0000 C   0  0  0  0  0  0  0  0  0  0  0  0
    1.7625   -4.5917    0.0000 C   0  0  0  0  0  0  0  0  0  0  0  0
    1.7542   -2.4667    0.0000 C   0  0  0  0  0  0  0  0  0  0  0  0
    3.6625   -3.3750    0.0000 C   0  0  0  0  0  0  0  0  0  0  0  0
    0.5500   -3.1750    0.0000 C   0  0  0  0  0  0  0  0  0  0  0  0
    4.0667   -2.8042    0.0000 C   0  0  0  0  0  0  0  0  0  0  0  0
    5.4667   -1.1167    0.0000 C   0  0  0  0  0  0  0  0  0  0  0  0
    0.5500   -4.5917    0.0000 C   0  0  0  0  0  0  0  0  0  0  0  0
    5.4417   -0.4167    0.0000 O   0  0  0  0  0  0  0  0  0  0  0  0
    3.6375   -1.5167    0.0000 C   0  0  0  0  0  0  0  0  0  0  0  0
    4.2375   -1.1542    0.0000 C   0  0  0  0  0  0  0  0  0  0  0  0
    3.0000   -4.6167    0.0000 O   0  0  0  0  0  0  0  0  0  0  0  0
    4.8542   -1.4917    0.0000 C   0  0  0  0  0  0  0  0  0  0  0  0
    2.9917   -1.7417    0.0000 C   0  0  0  0  0  0  0  0  0  0  0  0
   -0.0708   -3.5167    0.0000 C   0  0  0  0  0  0  0  0  0  0  0  0
   -0.0708   -4.2417    0.0000 C   0  0  0  0  0  0  0  0  0  0  0  0
    1.1625   -2.8250    0.0000 C   0  0  0  0  0  0  0  0  0  0  0  0
    6.0792   -1.4500    0.0000 O   0  0  0  0  0  0  0  0  0  0  0  0
   -0.6958   -4.6167    0.0000 O   0  0  0  0  0  0  0  0  0  0  0  0
    3.0167   -1.1875    0.0000 C   0  0  0  0  0  0  0  0  0  0  0  0
    2.9875   -3.8625    0.0000 H   0  0  0  0  0  0  0  0  0  0  0  0
    2.3667   -2.8125    0.0000 H   0  0  0  0  0  0  0  0  0  0  0  0
    1.7667   -3.8792    0.0000 H   0  0  0  0  0  0  0  0  0  0  0  0
    1.1500   -4.9500    0.0000 H   0  0  0  0  0  0  0  0  0  0  0  0
    4.2667   -1.8792    0.0000 H   0  0  0  0  0  0  0  0  0  0  0  0
  2  4  1  0
  3  1  1  0
  4 11  1  0
  5  3  1  0
  6  2  1  0
  7  5  1  0
  8  1  1  0
  9  1  1  0
 10  7  1  0
 11  9  1  0
 12  3  1  0
 13  2  1  0
 14  8  1  0
 15 21  1  0
 16  6  1  0
 17 15  2  0
 18  8  1  0
 19 18  1  0
  7 20  1  1
 21 19  1  0
  1 22  1  1
 23 13  1  0
 24 23  1  0
  2 25  1  1
 26 15  1  0
 24 27  1  6
 18 28  1  6
  3 29  1  6
  5 30  1  1
  4 31  1  6
  6 32  1  1
  8 33  1  6
 12 14  1  0
  5  4  1  0
 10  6  1  0
 16 24  1  0
M  END
> <chembl_id>
CHEMBL1551

> <chembl_pref_name>
URSODIOL
