
     RDKit          2D

 22 22  0  0  0  0  0  0  0  0999 V2000
    1.0667   -3.5042    0.0000 C   0  0  0  0  0  0  0  0  0  0  0  0
    2.9292   -2.4292    0.0000 C   0  0  0  0  0  0  0  0  0  0  0  0
    1.0542   -4.2042    0.0000 N   0  0  0  0  0  0  0  0  0  0  0  0
    0.4500   -3.1292    0.0000 C   0  0  0  0  0  0  0  0  0  0  0  0
    3.5375   -2.0792    0.0000 C   0  0  0  0  0  0  0  0  0  0  0  0
    2.3042   -2.0792    0.0000 C   0  0  0  0  0  0  0  0  0  0  0  0
    2.9417   -3.1375    0.0000 C   0  0  0  0  0  0  0  0  0  0  0  0
    0.4500   -2.4292    0.0000 C   0  0  0  0  0  0  0  0  0  0  0  0
    1.7000   -2.4292    0.0000 C   0  0  0  0  0  0  0  0  0  0  0  0
    2.9541   -3.8417    0.0000 N   0  0  0  0  0  0  0  0  0  0  0  0
    1.7000   -3.1292    0.0000 C   0  0  0  0  0  0  0  0  0  0  0  0
    0.4292   -4.5292    0.0000 O   0  0  0  0  0  0  0  0  0  0  0  0
    4.1542   -2.4292    0.0000 N   0  0  0  0  0  0  0  0  0  0  0  0
    1.6542   -4.5500    0.0000 O   0  0  0  0  0  0  0  0  0  0  0  0
    1.0667   -2.0542    0.0000 C   0  0  0  0  0  0  0  0  0  0  0  0
    3.5375   -1.3792    0.0000 O   0  0  0  0  0  0  0  0  0  0  0  0
   -0.1708   -3.4875    0.0000 O   0  0  0  0  0  0  0  0  0  0  0  0
   -0.1708   -2.0667    0.0000 O   0  0  0  0  0  0  0  0  0  0  0  0
    4.7667   -2.0792    0.0000 C   0  0  0  0  0  0  0  0  0  0  0  0
    4.1500   -3.1292    0.0000 C   0  0  0  0  0  0  0  0  0  0  0  0
    5.3792   -2.4292    0.0000 C   0  0  0  0  0  0  0  0  0  0  0  0
    4.7667   -3.4667    0.0000 C   0  0  0  0  0  0  0  0  0  0  0  0
  2  6  2  0
  3  1  1  0
  4  1  2  0
  5  2  1  0
  6  9  1  0
  7  2  1  0
  8  4  1  0
  9 11  2  0
 10  7  3  0
 11  1  1  0
 12  3  1  0
 13  5  1  0
 14  3  2  0
 15  9  1  0
 16  5  2  0
 17  4  1  0
 18  8  1  0
 19 13  1  0
 20 13  1  0
 21 19  1  0
 22 20  1  0
  8 15  2  0
M  CHG  2   3   1  12  -1
M  END
> <chembl_id>
CHEMBL953

> <chembl_pref_name>
ENTACAPONE
