
     RDKit          2D

  3  2  0  0  0  0  0  0  0  0999 V2000
   -0.7958    0.3958    0.0000 N   0  0  0  0  0  0  0  0  0  0  0  0
   -0.7958   -1.0375    0.0000 O   0  0  0  0  0  0  0  0  0  0  0  0
    0.4292    1.1375    0.0000 O   0  0  0  0  0  0  0  0  0  0  0  0
  2  1  1  0
  3  1  2  0
M  END
> <chembl_id>
CHEMBL1161681

> <chembl_pref_name>
NITROUS ACID
