
     RDKit          2D

 24 24  0  0  0  0  0  0  0  0999 V2000
   -0.7250    2.6458    0.0000 N   0  0  0  0  0  0  0  0  0  0  0  0
   -2.1833    1.4208    0.0000 O   0  0  0  0  0  0  0  0  0  0  0  0
   -2.9083    1.4250    0.0000 C   0  0  0  0  0  0  0  0  0  0  0  0
   -1.8208    2.0208    0.0000 C   0  0  0  0  0  0  0  0  0  0  0  0
   -1.1125    2.0208    0.0000 C   0  0  0  0  0  0  0  0  0  0  0  0
   -0.0208    2.0500    0.0000 C   0  0  0  0  0  0  0  0  0  0  0  0
   -0.3208    3.1708    0.0000 C   0  0  0  0  0  0  0  0  0  0  0  0
   -1.3333    3.1208    0.0000 C   0  0  0  0  0  0  0  0  0  0  0  0
   -3.2625    0.8000    0.0000 C   0  0  0  0  0  0  0  0  0  0  0  0
   -3.2625    2.0583    0.0000 C   0  0  0  0  0  0  0  0  0  0  0  0
   -0.1000    1.2833    0.0000 C   0  0  0  0  0  0  0  0  0  0  0  0
    4.1417   -2.4667    0.0000 C   0  0  0  0  0  0  0  0  0  0  0  0
    3.4542   -2.2750    0.0000 C   0  0  0  0  0  0  0  0  0  0  0  0
    3.2542   -1.5667    0.0000 C   0  0  0  0  0  0  0  0  0  0  0  0
    0.6000    1.0958    0.0000 C   0  0  0  0  0  0  0  0  0  0  0  0
    0.7792    0.4000    0.0000 C   0  0  0  0  0  0  0  0  0  0  0  0
    1.4792    0.2125    0.0000 C   0  0  0  0  0  0  0  0  0  0  0  0
    1.6792   -0.4792    0.0000 C   0  0  0  0  0  0  0  0  0  0  0  0
    2.3750   -0.6792    0.0000 C   0  0  0  0  0  0  0  0  0  0  0  0
    2.5542   -1.3917    0.0000 C   0  0  0  0  0  0  0  0  0  0  0  0
    4.3417   -3.1542    0.0000 C   0  0  0  0  0  0  0  0  0  0  0  0
   -3.9958    0.8000    0.0000 C   0  0  0  0  0  0  0  0  0  0  0  0
   -3.9958    2.0583    0.0000 C   0  0  0  0  0  0  0  0  0  0  0  0
   -4.3458    1.4250    0.0000 C   0  0  0  0  0  0  0  0  0  0  0  0
  2  4  1  0
  3  2  1  0
  4  5  1  0
  5  1  1  0
  6  1  1  0
  7  1  1  0
  8  1  1  0
  9  3  1  0
 10  3  2  0
 11  6  1  0
 12 13  1  0
 13 14  1  0
 14 20  1  0
 15 11  1  0
 16 15  1  0
 17 16  1  0
 18 17  1  0
 19 18  1  0
 20 19  1  0
 21 12  1  0
 22  9  2  0
 23 10  1  0
 24 22  1  0
 23 24  2  0
M  CHG  1   1   1
M  END
> <chembl_id>
CHEMBL1187011

> <chembl_pref_name>
DOMIPHEN
