
     RDKit          2D

 57 64  0  0  0  0  0  0  0  0999 V2000
    1.2466    3.9403    0.0000 C   0  0  0  0  0  0  0  0  0  0  0  0
    0.5999    3.4281    0.0000 C   0  0  0  0  0  0  0  0  0  0  0  0
   -0.1671    3.7321    0.0000 C   0  0  0  0  0  0  0  0  0  0  0  0
   -0.2873    4.5483    0.0000 C   0  0  0  0  0  0  0  0  0  0  0  0
    0.3595    5.0605    0.0000 C   0  0  0  0  0  0  0  0  0  0  0  0
    1.1264    4.7565    0.0000 C   0  0  0  0  0  0  0  0  0  0  0  0
    0.2393    5.8767    0.0000 C   0  0  0  0  0  0  0  0  0  0  0  0
    0.8861    6.3889    0.0000 N   0  0  0  0  0  0  0  0  0  0  0  0
    1.6530    6.0849    0.0000 C   0  0  0  0  0  0  0  0  0  0  0  0
    1.7732    5.2687    0.0000 C   0  0  0  0  0  0  0  0  0  0  0  0
    2.5401    4.9647    0.0000 C   0  0  0  0  0  0  0  0  0  0  0  0
    3.1869    5.4769    0.0000 C   0  0  0  0  0  0  0  0  0  0  0  0
    3.0667    6.2931    0.0000 C   0  0  0  0  0  0  0  0  0  0  0  0
    2.2998    6.5971    0.0000 C   0  0  0  0  0  0  0  0  0  0  0  0
   -0.5276    6.1807    0.0000 O   0  0  0  0  0  0  0  0  0  0  0  0
   -1.1744    5.6685    0.0000 C   0  0  0  0  0  0  0  0  0  0  0  0
   -1.9689    5.8907    0.0000 C   0  0  0  0  0  0  0  0  0  0  0  0
   -2.4257    5.2037    0.0000 C   0  0  0  0  0  0  0  0  0  0  0  0
   -1.9135    4.5570    0.0000 N   0  0  0  0  0  0  0  0  0  0  0  0
   -1.1402    4.8443    0.0000 C   0  0  0  0  0  0  0  0  0  0  0  0
   -3.1567    5.5863    0.0000 C   0  0  0  0  0  0  0  0  0  0  0  0
   -3.9801    5.6384    0.0000 N   0  0  0  0  0  0  0  0  0  0  0  0
   -2.9345    6.3808    0.0000 O   0  0  0  0  0  0  0  0  0  0  0  0
   -1.7087    3.7578    0.0000 C   0  0  0  0  0  0  0  0  0  0  0  0
   -1.8466    2.9444    0.0000 C   0  0  0  0  0  0  0  0  0  0  0  0
   -0.8844    3.7920    0.0000 O   0  0  0  0  0  0  0  0  0  0  0  0
   -2.3034    2.2575    0.0000 C   0  0  0  0  0  0  0  0  0  0  0  0
   -1.0797    2.6404    0.0000 N   0  0  0  0  0  0  0  0  0  0  0  0
   -3.0002    1.8157    0.0000 C   0  0  0  0  0  0  0  0  0  0  0  0
   -3.8164    1.6955    0.0000 C   0  0  0  0  0  0  0  0  0  0  0  0
   -4.6109    1.9177    0.0000 C   0  0  0  0  0  0  0  0  0  0  0  0
   -5.2464    2.4438    0.0000 C   0  0  0  0  0  0  0  0  0  0  0  0
   -5.6129    3.1829    0.0000 C   0  0  0  0  0  0  0  0  0  0  0  0
   -5.6471    4.0072    0.0000 C   0  0  0  0  0  0  0  0  0  0  0  0
   -5.3431    4.7741    0.0000 C   0  0  0  0  0  0  0  0  0  0  0  0
   -4.7534    5.3511    0.0000 C   0  0  0  0  0  0  0  0  0  0  0  0
   -5.5479    5.5733    0.0000 C   0  0  0  0  0  0  0  0  0  0  0  0
   -4.7876    6.1754    0.0000 C   0  0  0  0  0  0  0  0  0  0  0  0
   -5.5186    6.5579    0.0000 O   0  0  0  0  0  0  0  0  0  0  0  0
   -4.0909    6.6172    0.0000 N   0  0  0  0  0  0  0  0  0  0  0  0
   -4.1251    7.4415    0.0000 S   0  0  0  0  0  0  0  0  0  0  0  0
   -4.9494    7.4073    0.0000 C   0  0  0  0  0  0  0  0  0  0  0  0
   -5.6462    6.9655    0.0000 C   0  0  0  0  0  0  0  0  0  0  0  0
   -5.6804    7.7898    0.0000 C   0  0  0  0  0  0  0  0  0  0  0  0
   -4.1593    8.2658    0.0000 O   0  0  0  0  0  0  0  0  0  0  0  0
   -3.3008    7.4757    0.0000 O   0  0  0  0  0  0  0  0  0  0  0  0
   -6.1664    4.8263    0.0000 H   0  0  0  0  0  0  0  0  0  0  0  0
   -2.6306    6.0029    0.0000 H   0  0  0  0  0  0  0  0  0  0  0  0
   -0.9595    1.8242    0.0000 C   0  0  0  0  0  0  0  0  0  0  0  0
   -1.6062    1.3120    0.0000 C   0  0  0  0  0  0  0  0  0  0  0  0
   -0.1925    1.5202    0.0000 O   0  0  0  0  0  0  0  0  0  0  0  0
   -1.4860    0.4958    0.0000 N   0  0  0  0  0  0  0  0  0  0  0  0
   -2.1328   -0.0163    0.0000 C   0  0  0  0  0  0  0  0  0  0  0  0
   -2.8997    0.2877    0.0000 C   0  0  0  0  0  0  0  0  0  0  0  0
   -3.0199    1.1039    0.0000 N   0  0  0  0  0  0  0  0  0  0  0  0
   -2.3732    1.6161    0.0000 C   0  0  0  0  0  0  0  0  0  0  0  0
   -3.5465   -0.2245    0.0000 C   0  0  0  0  0  0  0  0  0  0  0  0
  1  2  2  0
  2  3  1  0
  3  4  2  0
  4  5  1  0
  6  1  1  0
  5  7  1  0
  6  5  2  0
 10  6  1  0
  7  8  2  0
  8  9  1  0
 14  9  1  0
  9 10  2  0
 10 11  1  0
 11 12  2  0
 12 13  1  0
 13 14  2  0
  7 15  1  0
 16 15  1  1
 16 17  1  0
 16 20  1  0
 17 18  1  0
 18 19  1  0
 19 20  1  0
 18 21  1  0
 21 22  1  0
 21 23  2  0
 19 24  1  0
 24 25  1  0
 24 26  2  0
 25 27  1  0
 25 28  1  1
 27 29  1  0
 29 30  1  0
 30 31  1  0
 31 32  1  0
 32 33  1  0
 33 34  2  0
 34 35  1  0
 36 22  1  0
 35 37  1  0
 36 35  1  0
 37 36  1  0
 36 38  1  6
 38 39  2  0
 38 40  1  0
 40 41  1  0
 41 42  1  0
 42 43  1  0
 44 42  1  0
 43 44  1  0
 41 45  2  0
 41 46  2  0
 35 47  1  1
 18 48  1  1
 28 49  1  0
 49 50  1  0
 49 51  2  0
 50 52  1  0
 50 56  2  0
 52 53  2  0
 53 54  1  0
 54 55  2  0
 55 56  1  0
 54 57  1  0
M  END
> <chembl_id>
CHEMBL3391662

> <chembl_pref_name>
PARITAPREVIR
