
     RDKit          2D

 30 32  0  0  1  0  0  0  0  0999 V2000
    2.2167   -5.6125    0.0000 C   0  0  0  0  0  0  0  0  0  0  0  0
    2.2167   -4.9042    0.0000 C   0  0  0  0  0  0  0  0  0  0  0  0
    1.5917   -4.5500    0.0000 C   0  0  0  0  0  0  0  0  0  0  0  0
    4.0667   -1.7167    0.0000 C   0  0  0  0  0  0  0  0  0  0  0  0
    0.9542   -3.4792    0.0000 C   0  0  0  0  0  0  0  0  0  0  0  0
    2.8292   -5.9750    0.0000 C   0  0  0  0  0  0  0  0  0  0  0  0
    1.5917   -5.9750    0.0000 C   0  0  0  0  0  0  0  0  0  0  0  0
    1.5917   -3.8292    0.0000 O   0  0  0  0  0  0  0  0  0  0  0  0
    2.8292   -4.5500    0.0000 C   0  0  0  0  0  0  0  0  0  0  0  0
    4.0667   -2.4167    0.0000 O   0  0  0  0  0  0  0  0  0  0  0  0
    3.4417   -5.6125    0.0000 C   0  0  0  0  0  0  0  0  0  0  0  0
    3.4417   -1.3625    0.0000 C   0  0  0  0  0  0  0  0  0  0  0  0
    2.8292   -3.8292    0.0000 C   0  0  0  0  0  0  0  0  0  0  0  0
    0.9667   -4.9042    0.0000 C   0  0  0  0  0  0  0  0  0  0  0  0
    3.4417   -4.9042    0.0000 C   0  0  0  0  0  0  0  0  0  0  0  0
    3.4417   -2.7667    0.0000 C   0  0  0  0  0  0  0  0  0  0  0  0
    0.9542   -2.7500    0.0000 O   0  0  0  0  0  0  0  0  0  0  0  0
    2.8417   -1.7167    0.0000 C   0  0  0  0  0  0  0  0  0  0  0  0
    4.6667   -1.3792    0.0000 O   0  0  0  0  0  0  0  0  0  0  0  0
    0.9667   -5.6125    0.0000 C   0  0  0  0  0  0  0  0  0  0  0  0
    2.8417   -2.4167    0.0000 C   0  0  0  0  0  0  0  0  0  0  0  0
    0.3542   -3.8167    0.0000 C   0  0  0  0  0  0  0  0  0  0  0  0
    3.4417   -3.4792    0.0000 C   0  0  0  0  0  0  0  0  0  0  0  0
    2.2292   -1.3792    0.0000 O   0  0  0  0  0  0  0  0  0  0  0  0
    4.0917   -4.5500    0.0000 C   0  0  0  0  0  0  0  0  0  0  0  0
    0.3417   -5.9625    0.0000 C   0  0  0  0  0  0  0  0  0  0  0  0
   -0.2500   -3.4417    0.0000 C   0  0  0  0  0  0  0  0  0  0  0  0
    0.3250   -4.5083    0.0000 C   0  0  0  0  0  0  0  0  0  0  0  0
   -0.8667   -3.7667    0.0000 C   0  0  0  0  0  0  0  0  0  0  0  0
    2.2167   -4.1792    0.0000 H   0  0  0  0  0  0  0  0  0  0  0  0
  2  1  1  0
  3  2  1  0
  4 10  1  0
  5  8  1  0
  6  1  1  0
  7  1  2  0
  3  8  1  6
  9  2  1  0
 10 16  1  0
 11  6  2  0
 12 18  1  0
  9 13  1  1
 14 20  1  0
 15 11  1  0
 16 23  1  6
 17  5  2  0
 18 21  1  0
 19  4  2  0
 20  7  1  0
 21 16  1  0
 22  5  1  0
 23 13  1  0
 18 24  1  1
 15 25  1  1
 20 26  1  6
 27 22  1  0
 22 28  1  1
 29 27  1  0
  2 30  1  1
 14  3  1  0
 15  9  1  0
 12  4  1  0
M  END
> <chembl_id>
CHEMBL503

> <chembl_pref_name>
LOVASTATIN
