
     RDKit          2D

 21 21  0  0  0  0  0  0  0  0999 V2000
   17.3913  -25.5924    0.0000 C   0  0  0  0  0  0  0  0  0  0  0  0
   17.8016  -24.8857    0.0000 N   0  0  0  0  0  0  0  0  0  0  0  0
   17.8016  -26.3081    0.0000 C   0  0  0  0  0  0  0  0  0  0  0  0
   13.6122  -24.9314    0.0000 N   0  0  0  0  0  0  0  0  0  0  0  0
   12.8281  -25.1821    0.0000 C   0  0  0  0  0  0  0  0  0  0  0  0
   14.1000  -25.5924    0.0000 C   0  0  0  0  0  0  0  0  0  0  0  0
   12.8281  -26.0027    0.0000 S   0  0  0  0  0  0  0  0  0  0  0  0
   13.6122  -26.2625    0.0000 C   0  0  0  0  0  0  0  0  0  0  0  0
   17.3913  -27.0238    0.0000 N   0  0  0  0  0  0  0  0  0  0  0  0
   18.6267  -24.8857    0.0000 O   0  0  0  0  0  0  0  0  0  0  0  0
   17.3913  -24.1655    0.0000 O   0  0  0  0  0  0  0  0  0  0  0  0
   12.1144  -24.7678    0.0000 C   0  0  0  0  0  0  0  0  0  0  0  0
   11.4024  -25.1832    0.0000 N   0  0  0  0  0  0  0  0  0  0  0  0
   15.3354  -26.3081    0.0000 S   0  0  0  0  0  0  0  0  0  0  0  0
   14.9205  -25.5924    0.0000 C   0  0  0  0  0  0  0  0  0  0  0  0
   16.5707  -27.0238    0.0000 C   0  0  0  0  0  0  0  0  0  0  0  0
   16.1605  -26.3081    0.0000 C   0  0  0  0  0  0  0  0  0  0  0  0
   11.4080  -26.0078    0.0000 C   0  0  0  0  0  0  0  0  0  0  0  0
   10.6938  -24.7729    0.0000 C   0  0  0  0  0  0  0  0  0  0  0  0
   18.6267  -26.3081    0.0000 N   0  0  0  0  0  0  0  0  0  0  0  0
   19.0392  -27.0226    0.0000 C   0  0  0  0  0  0  0  0  0  0  0  0
  2  1  1  0
  3  1  2  3
  4  6  1  0
  5  4  2  0
  6 15  1  0
  7  8  1  0
  8  6  2  0
  9  3  1  0
 10  2  1  0
 11  2  2  0
 12  5  1  0
 20  3  1  0
 13 12  1  0
 14 17  1  0
 15 14  1  0
 16  9  1  0
 17 16  1  0
 18 13  1  0
 19 13  1  0
  5  7  1  0
 20 21  1  0
M  CHG  2   2   1  10  -1
M  END
> <chembl_id>
CHEMBL3183075

> <chembl_pref_name>
NIZATIDINE
