
     RDKit          2D

 16 17  0  0  0  0  0  0  0  0999 V2000
   -0.6250    0.8833    0.0000 C   0  0  0  0  0  0  0  0  0  0  0  0
    0.6167    0.1333    0.0000 C   0  0  0  0  0  0  0  0  0  0  0  0
    1.9167    0.8250    0.0000 N   0  0  0  0  0  0  0  0  0  0  0  0
   -1.8583    0.1500    0.0000 C   0  0  0  0  0  0  0  0  0  0  0  0
    3.1167   -1.3917    0.0000 C   0  0  0  0  0  0  0  0  0  0  0  0
    0.6167   -1.2417    0.0000 C   0  0  0  0  0  0  0  0  0  0  0  0
   -0.6250   -1.9792    0.0000 C   0  0  0  0  0  0  0  0  0  0  0  0
    3.1042    0.0458    0.0000 N   0  0  0  0  0  0  0  0  0  0  0  0
   -1.8583   -1.2625    0.0000 C   0  0  0  0  0  0  0  0  0  0  0  0
   -0.6250    2.3000    0.0000 O   0  0  0  0  0  0  0  0  0  0  0  0
    1.9667   -2.0250    0.0000 O   0  0  0  0  0  0  0  0  0  0  0  0
    4.1875   -2.1750    0.0000 N   0  0  0  0  0  0  0  0  0  0  0  0
   -3.0958    0.8833    0.0000 C   0  0  0  0  0  0  0  0  0  0  0  0
   -3.0958   -1.9792    0.0000 C   0  0  0  0  0  0  0  0  0  0  0  0
   -4.3458    0.1333    0.0000 C   0  0  0  0  0  0  0  0  0  0  0  0
   -4.3458   -1.2417    0.0000 C   0  0  0  0  0  0  0  0  0  0  0  0
  2  1  1  0
  3  2  2  0
  4  1  1  0
  5  8  1  0
  6  2  1  0
  7  9  1  0
  8  3  1  0
  9  4  2  0
 10  1  2  0
 11  5  2  0
 12  5  1  0
 13  4  1  0
 14  9  1  0
 15 13  2  0
 16 15  1  0
  6  7  2  0
 14 16  2  0
M  END
> <chembl_id>
CHEMBL2106794

> <chembl_pref_name>
NAFTAZONE
