
     RDKit          2D

 26 27  0  0  0  0  0  0  0  0999 V2000
    6.3667   -6.0625    0.0000 Cl  0  0  0  0  0  0  0  0  0  0  0  0
    3.3500   -4.4167    0.0000 C   0  0  0  0  0  0  0  0  0  0  0  0
    3.9792   -4.0708    0.0000 C   0  0  0  0  0  0  0  0  0  0  0  0
    2.6792   -4.0708    0.0000 C   0  0  0  0  0  0  0  0  0  0  0  0
    3.6625   -2.8167    0.0000 O   0  0  0  0  0  0  0  0  0  0  0  0
    4.1125   -3.3125    0.0000 C   0  0  0  0  0  0  0  0  0  0  0  0
    4.5542   -4.5042    0.0000 C   0  0  0  0  0  0  0  0  0  0  0  0
    3.3500   -5.1375    0.0000 C   0  0  0  0  0  0  0  0  0  0  0  0
    6.4292   -4.3667    0.0000 C   0  0  0  0  0  0  0  0  0  0  0  0
    2.5250   -3.3917    0.0000 C   0  0  0  0  0  0  0  0  0  0  0  0
    2.9292   -2.8167    0.0000 C   0  0  0  0  0  0  0  0  0  0  0  0
    5.1792   -4.2583    0.0000 C   0  0  0  0  0  0  0  0  0  0  0  0
    6.4292   -3.7167    0.0000 O   0  0  0  0  0  0  0  0  0  0  0  0
    4.8167   -3.1000    0.0000 C   0  0  0  0  0  0  0  0  0  0  0  0
    5.8250   -4.6875    0.0000 C   0  0  0  0  0  0  0  0  0  0  0  0
    5.3292   -3.5417    0.0000 C   0  0  0  0  0  0  0  0  0  0  0  0
    4.5417   -6.5542    0.0000 N   0  0  0  0  0  0  0  0  0  0  0  0
    7.0125   -4.7000    0.0000 O   0  0  0  0  0  0  0  0  0  0  0  0
    3.9417   -5.4792    0.0000 C   0  0  0  0  0  0  0  0  0  0  0  0
    2.1792   -4.5792    0.0000 C   0  0  0  0  0  0  0  0  0  0  0  0
    3.9417   -6.1750    0.0000 C   0  0  0  0  0  0  0  0  0  0  0  0
    1.8000   -3.1917    0.0000 C   0  0  0  0  0  0  0  0  0  0  0  0
    5.1500   -6.1750    0.0000 C   0  0  0  0  0  0  0  0  0  0  0  0
    4.5417   -7.2417    0.0000 C   0  0  0  0  0  0  0  0  0  0  0  0
    1.4792   -4.3792    0.0000 C   0  0  0  0  0  0  0  0  0  0  0  0
    1.3042   -3.6750    0.0000 C   0  0  0  0  0  0  0  0  0  0  0  0
  3  2  1  0
  4  2  1  0
  5  6  1  0
  6  3  2  0
  7  3  1  0
  8  2  2  0
  9 15  1  0
 10  4  2  0
 11 10  1  0
 12  7  2  0
 13  9  2  0
 14  6  1  0
 15 12  1  0
 16 12  1  0
 17 21  1  0
 18  9  1  0
 19  8  1  0
 20  4  1  0
 21 19  1  0
 22 10  1  0
 23 17  1  0
 24 17  1  0
 25 20  2  0
 26 25  1  0
 11  5  1  0
 26 22  2  0
 16 14  2  0
M  END
> <chembl_id>
CHEMBL1719

> <chembl_pref_name>
OLOPATADINE HYDROCHLORIDE
