
     RDKit          2D

 21 20  0  0  0  0  0  0  0  0999 V2000
    1.5625    3.2375    0.0000 Na  0  0  0  0  0 15  0  0  0  0  0  0
   -0.9208    1.2083    0.0000 C   0  0  0  0  0  0  0  0  0  0  0  0
    0.2042   -0.7667    0.0000 C   0  0  0  0  0  0  0  0  0  0  0  0
   -2.0750   -0.7667    0.0000 C   0  0  0  0  0  0  0  0  0  0  0  0
   -2.0750    0.5833    0.0000 C   0  0  0  0  0  0  0  0  0  0  0  0
    0.2042    0.5375    0.0000 C   0  0  0  0  0  0  0  0  0  0  0  0
   -0.9208   -1.4417    0.0000 C   0  0  0  0  0  0  0  0  0  0  0  0
   -0.9333    2.5583    0.0000 C   0  0  0  0  0  0  0  0  0  0  0  0
    1.3625   -1.4417    0.0000 C   0  0  0  0  0  0  0  0  0  0  0  0
   -3.2250   -1.4292    0.0000 N   0  0  0  0  0  0  0  0  0  0  0  0
    1.3625    1.2500    0.0000 I   0  0  0  0  0  0  0  0  0  0  0  0
   -3.2000    1.2500    0.0000 I   0  0  0  0  0  0  0  0  0  0  0  0
   -2.9875   -2.7292    0.0000 C   0  0  0  0  0  0  0  0  0  0  0  0
    0.2250    3.2333    0.0000 O   0  0  0  0  0  0  0  0  0  0  0  0
   -2.1000    3.2125    0.0000 O   0  0  0  0  0  0  0  0  0  0  0  0
    1.3625   -2.7417    0.0000 O   0  0  0  0  0  0  0  0  0  0  0  0
   -0.9208   -2.7417    0.0000 I   0  0  0  0  0  0  0  0  0  0  0  0
   -1.6833   -3.2167    0.0000 O   0  0  0  0  0  0  0  0  0  0  0  0
    2.7042   -0.7125    0.0000 N   0  0  0  0  0  0  0  0  0  0  0  0
   -3.9625   -3.5917    0.0000 C   0  0  0  0  0  0  0  0  0  0  0  0
    4.1750   -0.7125    0.0000 C   0  0  0  0  0  0  0  0  0  0  0  0
  3  6  2  0
  4  5  1  0
  5  2  2  0
  6  2  1  0
  7  3  1  0
  8  2  1  0
  9  3  1  0
 10  4  1  0
 11  6  1  0
 12  5  1  0
 13 10  1  0
 14  8  1  0
 15  8  2  0
 16  9  2  0
 17  7  1  0
 18 13  2  0
 19  9  1  0
 20 13  1  0
 21 19  1  0
  4  7  2  0
M  CHG  2   1   1  14  -1
M  ISO  2  11 125  12 125
M  END
> <chembl_id>
CHEMBL2106318

> <chembl_pref_name>
IOTHALAMATE SODIUM I 125
