
     RDKit          2D

 21 24  0  0  0  0  0  0  0  0999 V2000
    1.0006    0.6652    0.0000 C   0  0  0  0  0  0  0  0  0  0  0  0
    0.3735    3.3618    0.0000 C   0  0  0  0  0  0  0  0  0  0  0  0
    4.6605    3.3612    0.0000 C   0  0  0  0  0  0  0  0  0  0  0  0
    0.3734    2.5367    0.0000 C   0  0  0  0  0  0  0  0  0  0  0  0
    4.6604    2.5363    0.0000 C   0  0  0  0  0  0  0  0  0  0  0  0
    2.0113    1.2487    0.0000 C   0  0  0  0  0  0  0  0  0  0  0  0
    1.0880    3.7742    0.0000 C   0  0  0  0  0  0  0  0  0  0  0  0
    3.9460    3.7738    0.0000 C   0  0  0  0  0  0  0  0  0  0  0  0
    1.0879    2.1241    0.0000 C   0  0  0  0  0  0  0  0  0  0  0  0
    3.9459    2.1238    0.0000 C   0  0  0  0  0  0  0  0  0  0  0  0
    2.8087    3.2687    0.0000 C   0  0  0  0  0  0  0  0  0  0  0  0
    2.5167    1.5404    0.0000 C   0  0  0  0  0  0  0  0  0  0  0  0
    2.8086    2.6292    0.0000 C   0  0  0  0  0  0  0  0  0  0  0  0
    2.0113    0.6652    0.0000 C   0  0  0  0  0  0  0  0  0  0  0  0
    2.5170    3.7741    0.0000 C   0  0  0  0  0  0  0  0  0  0  0  0
    1.8025    3.3615    0.0000 C   0  0  0  0  0  0  0  0  0  0  0  0
    3.2315    3.3614    0.0000 C   0  0  0  0  0  0  0  0  0  0  0  0
    1.8024    2.5366    0.0000 C   0  0  0  0  0  0  0  0  0  0  0  0
    3.2314    2.5364    0.0000 C   0  0  0  0  0  0  0  0  0  0  0  0
    2.5168    2.1239    0.0000 C   0  0  0  0  0  0  0  0  0  0  0  0
    1.5059    0.3734    0.0000 N   0  0  0  0  0  0  0  0  0  0  0  0
  1 21  1  0
  2  4  2  0
  2  7  1  0
  3  5  2  0
  3  8  1  0
  4  9  1  0
  5 10  1  0
  6 12  1  0
  6 14  1  0
  7 16  2  0
  8 17  2  0
  9 18  2  0
 10 19  2  0
 11 13  1  0
 11 15  1  0
 12 20  1  0
 13 20  1  0
 14 21  1  0
 15 16  1  0
 15 17  1  0
 16 18  1  0
 17 19  1  0
 18 20  1  0
 19 20  1  0
M  END
> <chembl_id>
CHEMBL21731

> <chembl_pref_name>
MAPROTILINE
