
     RDKit          2D

 89 89  0  0  0  0  0  0  0  0999 V2000
  -12.1098    0.4714    0.0000 C   0  0  0  0  0  0  0  0  0  0  0  0
  -11.3954    0.0589    0.0000 C   0  0  0  0  0  0  0  0  0  0  0  0
  -10.6809    0.4714    0.0000 C   0  0  0  0  0  0  0  0  0  0  0  0
   -9.9664    0.0589    0.0000 C   0  0  0  0  0  0  0  0  0  0  0  0
   -9.2519    0.4714    0.0000 C   0  0  0  0  0  0  0  0  0  0  0  0
   -8.5375    0.0589    0.0000 C   0  0  0  0  0  0  0  0  0  0  0  0
   -7.8230    0.4714    0.0000 C   0  0  0  0  0  0  0  0  0  0  0  0
   -7.1085    0.0589    0.0000 C   0  0  0  0  0  0  0  0  0  0  0  0
   -6.3941    0.4714    0.0000 C   0  0  0  0  0  0  0  0  0  0  0  0
   -5.6796    0.0589    0.0000 C   0  0  0  0  0  0  0  0  0  0  0  0
   -4.9651    0.4714    0.0000 C   0  0  0  0  0  0  0  0  0  0  0  0
   -4.2506    0.0589    0.0000 C   0  0  0  0  0  0  0  0  0  0  0  0
   -3.5362    0.4714    0.0000 C   0  0  0  0  0  0  0  0  0  0  0  0
   -2.8217    0.0589    0.0000 C   0  0  0  0  0  0  0  0  0  0  0  0
   -2.1072    0.4714    0.0000 C   0  0  0  0  0  0  0  0  0  0  0  0
   -1.3928    0.0589    0.0000 C   0  0  0  0  0  0  0  0  0  0  0  0
   -1.3928   -0.7661    0.0000 C   0  0  0  0  0  0  0  0  0  0  0  0
   -0.6783   -1.1786    0.0000 C   0  0  0  0  0  0  0  0  0  0  0  0
   -2.1072   -1.1786    0.0000 N   0  0  0  0  0  0  0  0  0  0  0  0
   -2.1072   -2.0036    0.0000 S   0  0  0  0  0  0  0  0  0  0  0  0
   -2.8217   -2.4161    0.0000 C   0  0  0  0  0  0  0  0  0  0  0  0
   -1.2822   -2.0036    0.0000 O   0  0  0  0  0  0  0  0  0  0  0  0
   -1.8937   -2.8005    0.0000 O   0  0  0  0  0  0  0  0  0  0  0  0
   -3.5362   -2.0036    0.0000 C   0  0  0  0  0  0  0  0  0  0  0  0
   -4.2506   -2.4161    0.0000 C   0  0  0  0  0  0  0  0  0  0  0  0
   -4.9651   -2.0036    0.0000 C   0  0  0  0  0  0  0  0  0  0  0  0
   -5.6796   -2.4161    0.0000 N   0  0  0  0  0  0  0  0  0  0  0  0
   -6.3941   -2.0036    0.0000 C   0  0  0  0  0  0  0  0  0  0  0  0
   -7.1085   -2.4161    0.0000 C   0  0  0  0  0  0  0  0  0  0  0  0
   -7.8230   -2.0036    0.0000 O   0  0  0  0  0  0  0  0  0  0  0  0
   -8.5375   -2.4161    0.0000 C   0  0  0  0  0  0  0  0  0  0  0  0
   -9.2519   -2.0036    0.0000 C   0  0  0  0  0  0  0  0  0  0  0  0
   -9.9664   -2.4161    0.0000 O   0  0  0  0  0  0  0  0  0  0  0  0
  -10.6809   -2.0036    0.0000 C   0  0  0  0  0  0  0  0  0  0  0  0
  -11.3954   -2.4161    0.0000 C   0  0  0  0  0  0  0  0  0  0  0  0
  -11.3954   -3.2411    0.0000 N   0  0  0  0  0  0  0  0  0  0  0  0
  -12.1098   -3.6536    0.0000 C   0  0  0  0  0  0  0  0  0  0  0  0
  -12.1098   -4.4786    0.0000 C   0  0  0  0  0  0  0  0  0  0  0  0
  -12.8243   -3.2411    0.0000 C   0  0  0  0  0  0  0  0  0  0  0  0
  -13.5388   -3.6536    0.0000 O   0  0  0  0  0  0  0  0  0  0  0  0
  -12.8243   -2.4161    0.0000 O   0  0  0  0  0  0  0  0  0  0  0  0
  -11.3954   -4.8911    0.0000 C   0  0  0  0  0  0  0  0  0  0  0  0
  -10.6809   -4.4786    0.0000 C   0  0  0  0  0  0  0  0  0  0  0  0
   -9.9664   -4.8911    0.0000 N   0  0  0  0  0  0  0  0  0  0  0  0
  -10.6809   -3.6536    0.0000 O   0  0  0  0  0  0  0  0  0  0  0  0
   -9.2519   -4.4786    0.0000 C   0  0  0  0  0  0  0  0  0  0  0  0
   -8.5375   -4.8911    0.0000 C   0  0  0  0  0  0  0  0  0  0  0  0
   -9.2519   -3.6536    0.0000 C   0  0  0  0  0  0  0  0  0  0  0  0
   -8.5375   -3.2411    0.0000 O   0  0  0  0  0  0  0  0  0  0  0  0
   -9.9664   -3.2411    0.0000 O   0  0  0  0  0  0  0  0  0  0  0  0
   -7.8230   -4.4786    0.0000 C   0  0  0  0  0  0  0  0  0  0  0  0
   -7.1085   -4.8911    0.0000 C   0  0  0  0  0  0  0  0  0  0  0  0
   -6.3941   -4.4786    0.0000 N   0  0  0  0  0  0  0  0  0  0  0  0
   -7.1085   -5.7161    0.0000 O   0  0  0  0  0  0  0  0  0  0  0  0
   -5.6796   -4.8911    0.0000 C   0  0  0  0  0  0  0  0  0  0  0  0
   -4.9651   -4.4786    0.0000 C   0  0  0  0  0  0  0  0  0  0  0  0
   -4.2506   -4.8911    0.0000 O   0  0  0  0  0  0  0  0  0  0  0  0
   -3.5362   -4.4786    0.0000 C   0  0  0  0  0  0  0  0  0  0  0  0
   -2.8217   -4.8911    0.0000 C   0  0  0  0  0  0  0  0  0  0  0  0
   -2.1072   -4.4786    0.0000 O   0  0  0  0  0  0  0  0  0  0  0  0
   -1.3928   -4.8911    0.0000 C   0  0  0  0  0  0  0  0  0  0  0  0
   -0.6783   -4.4786    0.0000 C   0  0  0  0  0  0  0  0  0  0  0  0
    0.0362   -4.8911    0.0000 N   0  0  0  0  0  0  0  0  0  0  0  0
   -0.6783   -3.6536    0.0000 O   0  0  0  0  0  0  0  0  0  0  0  0
    0.7507   -4.4786    0.0000 C   0  0  0  0  0  0  0  0  0  0  0  0
    1.4651   -4.8911    0.0000 C   0  0  0  0  0  0  0  0  0  0  0  0
    2.1796   -4.4786    0.0000 N   0  0  0  0  0  0  0  0  0  0  0  0
    1.4651   -5.7161    0.0000 O   0  0  0  0  0  0  0  0  0  0  0  0
    0.7507   -3.6536    0.0000 C   0  0  0  0  0  0  0  0  0  0  0  0
    1.4651   -3.2411    0.0000 C   0  0  0  0  0  0  0  0  0  0  0  0
    1.4651   -2.4161    0.0000 C   0  0  0  0  0  0  0  0  0  0  0  0
    2.1796   -2.0036    0.0000 C   0  0  0  0  0  0  0  0  0  0  0  0
    2.1796   -1.1786    0.0000 N   0  0  0  0  0  0  0  0  0  0  0  0
    2.8941   -0.7661    0.0000 C   0  0  0  0  0  0  0  0  0  0  0  0
    2.8941    0.0589    0.0000 C   0  0  0  0  0  0  0  0  0  0  0  0
    3.6085    0.4714    0.0000 S   0  0  0  0  0  0  0  0  0  0  0  0
    3.6085    1.2964    0.0000 C   0  0  0  0  0  0  0  0  0  0  0  0
    4.3230    1.7089    0.0000 C   0  0  0  0  0  0  0  0  0  0  0  0
    4.3230    2.5339    0.0000 N   0  0  0  0  0  0  0  0  0  0  0  0
    3.6085   -1.1786    0.0000 O   0  0  0  0  0  0  0  0  0  0  0  0
    5.0375    1.2964    0.0000 C   0  0  0  0  0  0  0  0  0  0  0  0
    5.7520    1.7089    0.0000 O   0  0  0  0  0  0  0  0  0  0  0  0
    5.0375    0.4714    0.0000 O   0  0  0  0  0  0  0  0  0  0  0  0
  -12.1098   -2.0036    0.0000 O   0  0  0  0  0  0  0  0  0  0  0  0
   -4.9651   -1.1786    0.0000 O   0  0  0  0  0  0  0  0  0  0  0  0
  -12.1961    1.2919    0.0000 N   0  0  0  0  0  0  0  0  0  0  0  0
  -13.0030    1.4634    0.0000 N   0  0  0  0  0  0  0  0  0  0  0  0
  -13.4155    0.7489    0.0000 N   0  0  0  0  0  0  0  0  0  0  0  0
  -12.8635    0.1359    0.0000 N   0  0  0  0  0  0  0  0  0  0  0  0
  1  2  1  0
  2  3  1  0
  3  4  1  0
  4  5  1  0
  5  6  1  0
  6  7  1  0
  7  8  1  0
  8  9  1  0
  9 10  1  0
 10 11  1  0
 11 12  1  0
 12 13  1  0
 13 14  1  0
 14 15  1  0
 15 16  1  0
 16 17  1  0
 17 18  2  0
 17 19  1  0
 19 20  1  0
 20 21  1  0
 20 22  2  0
 20 23  2  0
 21 24  1  0
 24 25  1  0
 25 26  1  0
 26 27  1  0
 27 28  1  0
 28 29  1  0
 29 30  1  0
 30 31  1  0
 31 32  1  0
 32 33  1  0
 33 34  1  0
 34 35  1  0
 35 36  1  0
 36 37  1  0
 37 38  1  0
 37 39  1  1
 39 40  1  0
 39 41  2  0
 38 42  1  0
 42 43  1  0
 43 44  1  0
 43 45  2  0
 44 46  1  0
 46 47  1  0
 46 48  1  6
 48 49  1  0
 48 50  2  0
 47 51  1  0
 51 52  1  0
 52 53  1  0
 52 54  2  0
 53 55  1  0
 55 56  1  0
 56 57  1  0
 57 58  1  0
 58 59  1  0
 59 60  1  0
 60 61  1  0
 61 62  1  0
 62 63  1  0
 62 64  2  0
 63 65  1  0
 65 66  1  0
 66 67  1  0
 66 68  2  0
 65 69  1  1
 69 70  1  0
 70 71  1  0
 71 72  1  0
 72 73  1  0
 73 74  1  0
 74 75  1  0
 75 76  1  0
 76 77  1  0
 78 77  1  6
 78 79  1  0
 74 80  2  0
 78 81  1  0
 81 82  1  0
 81 83  2  0
 35 84  2  0
 26 85  2  0
  1 86  2  0
  1 89  1  0
 86 87  1  0
 87 88  2  0
 88 89  1  0
M  END
> <chembl_id>
CHEMBL3707290

> <chembl_pref_name>
SOMAPACITAN
