
     RDKit          2D

 24 24  0  0  0  0  0  0  0  0999 V2000
    0.0500   -0.3667    0.0000 C   0  0  0  0  0  0  0  0  0  0  0  0
    0.0292    0.3458    0.0000 C   0  0  0  0  0  0  0  0  0  0  0  0
    0.6750   -0.7042    0.0000 C   0  0  0  0  0  0  0  0  0  0  0  0
   -2.4583   -0.4000    0.0000 C   0  0  0  0  0  0  0  0  0  0  0  0
   -1.8250   -0.7542    0.0000 N   0  0  0  0  0  0  0  0  0  0  0  0
   -0.5583   -0.7375    0.0000 C   0  0  0  0  0  0  0  0  0  0  0  0
   -1.1958   -0.3875    0.0000 C   0  0  0  0  0  0  0  0  0  0  0  0
    0.6375    0.7208    0.0000 O   0  0  0  0  0  0  0  0  0  0  0  0
   -2.4625    0.3250    0.0000 O   0  0  0  0  0  0  0  0  0  0  0  0
    0.6917   -1.4167    0.0000 O   0  0  0  0  0  0  0  0  0  0  0  0
    3.1042    0.7958    0.0000 N   0  0  0  0  0  0  0  0  0  0  0  0
   -0.5875    0.6833    0.0000 C   0  0  0  0  0  0  0  0  0  0  0  0
    1.8667    0.7583    0.0000 C   0  0  0  0  0  0  0  0  0  0  0  0
    1.2625    0.3833    0.0000 C   0  0  0  0  0  0  0  0  0  0  0  0
    2.5000    0.4208    0.0000 C   0  0  0  0  0  0  0  0  0  0  0  0
   -1.1958    0.3125    0.0000 C   0  0  0  0  0  0  0  0  0  0  0  0
    1.8542    1.4708    0.0000 O   0  0  0  0  0  0  0  0  0  0  0  0
    3.7375    0.4583    0.0000 C   0  0  0  0  0  0  0  0  0  0  0  0
   -3.0833   -0.7667    0.0000 C   0  0  0  0  0  0  0  0  0  0  0  0
    1.2792   -0.3375    0.0000 C   0  0  0  0  0  0  0  0  0  0  0  0
   -3.7208   -0.4167    0.0000 C   0  0  0  0  0  0  0  0  0  0  0  0
    3.7542   -0.2542    0.0000 C   0  0  0  0  0  0  0  0  0  0  0  0
    4.3417    0.8333    0.0000 C   0  0  0  0  0  0  0  0  0  0  0  0
   -4.3458   -0.7792    0.0000 C   0  0  0  0  0  0  0  0  0  0  0  0
  2  1  1  0
  3  1  1  0
  4  5  1  0
  5  7  1  0
  6  1  2  0
  7  6  1  0
  8  2  1  0
  9  4  2  0
 10  3  2  0
 11 15  1  0
 12  2  2  0
 13 14  1  0
 14  8  1  0
 15 13  1  0
 16  7  2  0
 17 13  1  0
 18 11  1  0
 19  4  1  0
 20  3  1  0
 21 19  1  0
 22 18  1  0
 23 18  1  0
 24 21  1  0
 12 16  1  0
M  END
> <chembl_id>
CHEMBL642

> <chembl_pref_name>
ACEBUTOLOL
