
     RDKit          2D

 25 27  0  0  1  0  0  0  0  0999 V2000
    2.1792   -6.7292    0.0000 C   0  0  0  0  0  0  0  0  0  0  0  0
    1.8292   -7.3417    0.0000 C   0  0  0  0  0  0  0  0  0  0  0  0
    1.1167   -7.3417    0.0000 C   0  0  0  0  0  0  0  0  0  0  0  0
    3.5833   -5.4833    0.0000 S   0  0  0  0  0  0  0  0  0  0  0  0
    2.8708   -6.8708    0.0000 O   0  0  0  0  0  0  0  0  0  0  0  0
    2.3042   -7.8625    0.0000 O   0  0  0  0  0  0  0  0  0  0  0  0
    0.7625   -6.7292    0.0000 C   0  0  0  0  0  0  0  0  0  0  0  0
    2.9458   -7.5708    0.0000 C   0  0  0  0  0  0  0  0  0  0  0  0
    0.6417   -7.8667    0.0000 O   0  0  0  0  0  0  0  0  0  0  0  0
   -0.0042   -7.5792    0.0000 C   0  0  0  0  0  0  0  0  0  0  0  0
    0.0708   -6.8750    0.0000 O   0  0  0  0  0  0  0  0  0  0  0  0
    1.8292   -6.1167    0.0000 O   0  0  0  0  0  0  0  0  0  0  0  0
    2.5292   -6.1125    0.0000 C   0  0  0  0  0  0  0  0  0  0  0  0
    3.2375   -6.1042    0.0000 O   0  0  0  0  0  0  0  0  0  0  0  0
    1.1167   -6.1167    0.0000 C   0  0  0  0  0  0  0  0  0  0  0  0
    3.5792   -4.7750    0.0000 O   0  0  0  0  0  0  0  0  0  0  0  0
    2.9667   -5.1292    0.0000 O   0  0  0  0  0  0  0  0  0  0  0  0
    4.2917   -5.4750    0.0000 N   0  0  0  0  0  0  0  0  0  0  0  0
    3.2917   -8.1792    0.0000 C   0  0  0  0  0  0  0  0  0  0  0  0
    3.6542   -7.5667    0.0000 C   0  0  0  0  0  0  0  0  0  0  0  0
   -0.3625   -8.1917    0.0000 C   0  0  0  0  0  0  0  0  0  0  0  0
   -0.7125   -7.5792    0.0000 C   0  0  0  0  0  0  0  0  0  0  0  0
    1.8250   -8.0500    0.0000 H   0  0  0  0  0  0  0  0  0  0  0  0
    1.1125   -8.0500    0.0000 H   0  0  0  0  0  0  0  0  0  0  0  0
    0.4042   -6.1125    0.0000 H   0  0  0  0  0  0  0  0  0  0  0  0
  2  1  1  0
  3  2  1  0
  4 14  1  0
  5  1  1  0
  6  2  1  0
  7 15  1  0
  8  5  1  0
  9  3  1  0
 10  9  1  0
 11  7  1  0
 12  1  1  0
  1 13  1  6
 14 13  1  0
 15 12  1  0
 16  4  2  0
 17  4  2  0
 18  4  1  0
 19  8  1  0
 20  8  1  0
 21 10  1  0
 22 10  1  0
  2 23  1  6
  3 24  1  1
  7 25  1  1
  8  6  1  0
  7  3  1  0
 10 11  1  0
M  END
> <chembl_id>
CHEMBL220492

> <chembl_pref_name>
TOPIRAMATE
