
     RDKit          2D

 17 18  0  0  0  0  0  0  0  0999 V2000
    0.9708   -2.4625    0.0000 N   0  0  0  0  0  0  0  0  0  0  0  0
    0.9708   -3.1708    0.0000 C   0  0  0  0  0  0  0  0  0  0  0  0
    1.5829   -3.5250    0.0000 N   0  0  0  0  0  0  0  0  0  0  0  0
    2.1949   -3.1708    0.0000 C   0  0  0  0  0  0  0  0  0  0  0  0
    2.1949   -2.4625    0.0000 N   0  0  0  0  0  0  0  0  0  0  0  0
    1.5829   -2.1083    0.0000 C   0  0  0  0  0  0  0  0  0  0  0  0
    0.6583   -5.0250    0.0000 C   0  0  0  0  0  0  0  0  0  0  0  0
    1.3666   -5.0250    0.0000 C   0  0  0  0  0  0  0  0  0  0  0  0
    1.5859   -4.3534    0.0000 C   0  0  0  0  0  0  0  0  0  0  0  0
    1.0125   -3.9333    0.0000 O   0  0  0  0  0  0  0  0  0  0  0  0
    0.4391   -4.3534    0.0000 C   0  0  0  0  0  0  0  0  0  0  0  0
   -0.1792   -3.9958    0.0000 C   0  0  0  0  0  0  0  0  0  0  0  0
   -0.7929   -4.3495    0.0000 O   0  0  0  0  0  0  0  0  0  0  0  0
    2.1958   -4.7042    0.0000 H   0  0  0  0  0  0  0  0  0  0  0  0
    0.2423   -5.5984    0.0000 O   0  0  0  0  0  0  0  0  0  0  0  0
    1.5829   -1.4000    0.0000 N   0  0  0  0  0  0  0  0  0  0  0  0
    2.8085   -3.5247    0.0000 O   0  0  0  0  0  0  0  0  0  0  0  0
  2  3  1  0
  3  4  1  0
  8  9  1  0
  9 10  1  0
 10 11  1  0
 11  7  1  0
  4  5  1  0
 11 12  1  1
  5  6  2  0
 12 13  1  0
  9  3  1  0
  7  8  1  0
  9 14  1  6
  7 15  1  6
  1  2  2  0
  6 16  1  0
  1  6  1  0
  4 17  2  0
M  END
> <chembl_id>
CHEMBL1201129

> <chembl_pref_name>
DECITABINE
