
     RDKit          2D

 24 24  0  0  0  0  0  0  0  0999 V2000
   -0.3083   -6.7750    0.0000 C   0  0  0  0  0  0  0  0  0  0  0  0
    0.9208   -6.7708    0.0000 N   0  0  0  0  0  0  0  0  0  0  0  0
    0.3083   -7.1292    0.0000 C   0  0  0  0  0  0  0  0  0  0  0  0
   -0.3083   -6.0625    0.0000 C   0  0  0  0  0  0  0  0  0  0  0  0
    0.3042   -5.7042    0.0000 Br  0  0  0  0  0  0  0  0  0  0  0  0
   -0.9208   -7.1292    0.0000 C   0  0  0  0  0  0  0  0  0  0  0  0
    1.5333   -7.1250    0.0000 C   0  0  0  0  0  0  0  0  0  0  0  0
    1.2667   -6.1542    0.0000 C   0  0  0  0  0  0  0  0  0  0  0  0
    0.5625   -6.1542    0.0000 C   0  0  0  0  0  0  0  0  0  0  0  0
   -0.9208   -5.7083    0.0000 C   0  0  0  0  0  0  0  0  0  0  0  0
    2.1458   -6.7667    0.0000 C   0  0  0  0  0  0  0  0  0  0  0  0
   -1.5333   -6.7750    0.0000 C   0  0  0  0  0  0  0  0  0  0  0  0
   -1.5333   -6.0625    0.0000 C   0  0  0  0  0  0  0  0  0  0  0  0
    5.6125   -5.7667    0.0000 S   0  0  0  0  0  0  0  0  0  0  0  0
    5.0000   -6.1250    0.0000 C   0  0  0  0  0  0  0  0  0  0  0  0
    6.2250   -6.1208    0.0000 O   0  0  0  0  0  0  0  0  0  0  0  0
    5.9625   -5.1500    0.0000 O   0  0  0  0  0  0  0  0  0  0  0  0
    5.2542   -5.1500    0.0000 O   0  0  0  0  0  0  0  0  0  0  0  0
    5.0000   -6.8375    0.0000 C   0  0  0  0  0  0  0  0  0  0  0  0
    4.3875   -5.7708    0.0000 C   0  0  0  0  0  0  0  0  0  0  0  0
    4.3875   -7.1917    0.0000 C   0  0  0  0  0  0  0  0  0  0  0  0
    3.7750   -6.1250    0.0000 C   0  0  0  0  0  0  0  0  0  0  0  0
    3.7750   -6.8375    0.0000 C   0  0  0  0  0  0  0  0  0  0  0  0
    3.1625   -7.1917    0.0000 C   0  0  0  0  0  0  0  0  0  0  0  0
  2  3  1  0
  3  1  1  0
  4  1  1  0
  5  4  1  0
  6  1  2  0
  7  2  1  0
  8  2  1  0
  9  2  1  0
 10  4  2  0
 11  7  1  0
 12  6  1  0
 13 12  2  0
 13 10  1  0
 15 14  1  0
 16 14  1  0
 17 14  2  0
 18 14  2  0
 19 15  1  0
 20 15  2  0
 21 19  2  0
 22 20  1  0
 23 22  2  0
 24 23  1  0
 21 23  1  0
M  CHG  2   2   1  16  -1
M  END
> <chembl_id>
CHEMBL1095292

> <chembl_pref_name>
BRETYLIUM TOSYLATE
