
     RDKit          2D

 21 23  0  0  0  0  0  0  0  0999 V2000
   -1.1000   -0.4667    0.0000 N   0  0  0  0  0  0  0  0  0  0  0  0
   -1.6875    0.3208    0.0000 C   0  0  0  0  0  0  0  0  0  0  0  0
   -1.6833   -1.2667    0.0000 C   0  0  0  0  0  0  0  0  0  0  0  0
   -2.6250    0.0208    0.0000 C   0  0  0  0  0  0  0  0  0  0  0  0
   -2.6250   -0.9625    0.0000 C   0  0  0  0  0  0  0  0  0  0  0  0
    3.2917    0.4250    0.0000 C   0  0  0  0  0  0  0  0  0  0  0  0
   -0.1208   -0.4667    0.0000 C   0  0  0  0  0  0  0  0  0  0  0  0
   -1.3833    1.2583    0.0000 O   0  0  0  0  0  0  0  0  0  0  0  0
    2.8125   -0.4375    0.0000 C   0  0  0  0  0  0  0  0  0  0  0  0
    1.8167   -0.4292    0.0000 C   0  0  0  0  0  0  0  0  0  0  0  0
    2.7875    1.3208    0.0000 O   0  0  0  0  0  0  0  0  0  0  0  0
    0.3667   -1.3000    0.0000 C   0  0  0  0  0  0  0  0  0  0  0  0
    0.3292    0.3875    0.0000 C   0  0  0  0  0  0  0  0  0  0  0  0
    1.3167    0.3875    0.0000 C   0  0  0  0  0  0  0  0  0  0  0  0
    1.3542   -1.2917    0.0000 C   0  0  0  0  0  0  0  0  0  0  0  0
    4.2375    0.3333    0.0000 O   0  0  0  0  0  0  0  0  0  0  0  0
   -3.4833    0.5208    0.0000 C   0  0  0  0  0  0  0  0  0  0  0  0
   -3.4833   -1.4667    0.0000 C   0  0  0  0  0  0  0  0  0  0  0  0
    3.3167   -1.2542    0.0000 C   0  0  0  0  0  0  0  0  0  0  0  0
   -4.3458    0.0208    0.0000 C   0  0  0  0  0  0  0  0  0  0  0  0
   -4.3458   -0.9625    0.0000 C   0  0  0  0  0  0  0  0  0  0  0  0
  2  1  1  0
  3  1  1  0
  4  2  1  0
  5  3  1  0
  6  9  1  0
  7  1  1  0
  8  2  2  0
  9 10  1  0
 10 14  1  0
 11  6  2  0
 12  7  2  0
 13  7  1  0
 14 13  2  0
 15 12  1  0
 16  6  1  0
 17  4  1  0
 18  5  1  0
 19  9  1  0
 20 17  2  0
 21 18  2  0
  4  5  2  0
 15 10  2  0
 20 21  1  0
M  END
> <chembl_id>
CHEMBL15870

> <chembl_pref_name>
INDOPROFEN
