
     RDKit          2D

 15 15  0  0  0  0  0  0  0  0999 V2000
    2.9917   -1.1292    0.0000 N   0  0  0  0  0  0  0  0  0  0  0  0
   -1.1833    1.2208    0.0000 C   0  0  0  0  0  0  0  0  0  0  0  0
   -2.2625    0.5833    0.0000 C   0  0  0  0  0  0  0  0  0  0  0  0
    4.0167   -0.5042    0.0000 O   0  0  0  0  0  0  0  0  0  0  0  0
    2.9917   -2.3292    0.0000 O   0  0  0  0  0  0  0  0  0  0  0  0
   -1.1833    2.4125    0.0000 O   0  0  0  0  0  0  0  0  0  0  0  0
   -3.2958   -1.2167    0.0000 N   0  0  0  0  0  0  0  0  0  0  0  0
    1.9500   -0.5375    0.0000 O   0  0  0  0  0  0  0  0  0  0  0  0
   -0.1708    0.6625    0.0000 N   0  0  0  0  0  0  0  0  0  0  0  0
   -2.2625   -0.6250    0.0000 C   0  0  0  0  0  0  0  0  0  0  0  0
    0.9292   -1.1375    0.0000 C   0  0  0  0  0  0  0  0  0  0  0  0
   -3.2833    1.1833    0.0000 C   0  0  0  0  0  0  0  0  0  0  0  0
   -0.1500   -0.5167    0.0000 C   0  0  0  0  0  0  0  0  0  0  0  0
   -4.3458   -0.6042    0.0000 C   0  0  0  0  0  0  0  0  0  0  0  0
   -4.3458    0.6250    0.0000 C   0  0  0  0  0  0  0  0  0  0  0  0
  2  9  1  0
  3  2  1  0
  4  1  1  0
  5  1  2  0
  6  2  2  0
  7 10  1  0
  8  1  1  0
  9 13  1  0
 10  3  2  0
 11  8  1  0
 12  3  1  0
 13 11  1  0
 14 15  1  0
 15 12  2  0
  7 14  2  0
M  CHG  2   1   1   4  -1
M  END
> <chembl_id>
CHEMBL284906

> <chembl_pref_name>
NICORANDIL
