
     RDKit          2D

 41 42  0  0  0  0  0  0  0  0999 V2000
    2.7670   -1.2499    0.0000 C   0  0  0  0  0  0  0  0  0  0  0  0
    3.1795   -1.9643    0.0000 C   0  0  0  0  0  0  0  0  0  0  0  0
    4.0045   -1.9643    0.0000 N   0  0  0  0  0  0  0  0  0  0  0  0
    1.9420   -1.2499    0.0000 O   0  0  0  0  0  0  0  0  0  0  0  0
    0.0188    2.1369    0.0000 C   0  0  0  0  0  0  0  0  0  0  0  0
   -0.6957    2.5494    0.0000 C   0  0  0  0  0  0  0  0  0  0  0  0
   -1.4102    2.1369    0.0000 C   0  0  0  0  0  0  0  0  0  0  0  0
   -1.4102    1.3119    0.0000 C   0  0  0  0  0  0  0  0  0  0  0  0
   -0.6957    0.8994    0.0000 C   0  0  0  0  0  0  0  0  0  0  0  0
    0.0188    1.3119    0.0000 C   0  0  0  0  0  0  0  0  0  0  0  0
    0.7333    2.5494    0.0000 C   0  0  0  0  0  0  0  0  0  0  0  0
    1.4477    2.1369    0.0000 C   0  0  0  0  0  0  0  0  0  0  0  0
    2.1622    2.5494    0.0000 C   0  0  0  0  0  0  0  0  0  0  0  0
    2.1622    3.3744    0.0000 C   0  0  0  0  0  0  0  0  0  0  0  0
    1.4477    3.7869    0.0000 C   0  0  0  0  0  0  0  0  0  0  0  0
    0.7333    3.3744    0.0000 C   0  0  0  0  0  0  0  0  0  0  0  0
    1.4477    4.6119    0.0000 C   0  0  0  0  0  0  0  0  0  0  0  0
    2.1622    5.0244    0.0000 O   0  0  0  0  0  0  0  0  0  0  0  0
    0.7333    5.0244    0.0000 O   0  0  0  0  0  0  0  0  0  0  0  0
    0.7333    0.8994    0.0000 O   0  0  0  0  0  0  0  0  0  0  0  0
   -0.6957    0.0744    0.0000 N   0  0  0  0  0  0  0  0  0  0  0  0
   -1.4102   -0.3381    0.0000 N   0  0  0  0  0  0  0  0  0  0  0  0
   -1.4102   -1.1631    0.0000 C   0  0  0  0  0  0  0  0  0  0  0  0
   -0.7427   -1.6481    0.0000 C   0  0  0  0  0  0  0  0  0  0  0  0
   -0.9977   -2.4327    0.0000 N   0  0  0  0  0  0  0  0  0  0  0  0
   -1.8227   -2.4327    0.0000 N   0  0  0  0  0  0  0  0  0  0  0  0
   -2.0776   -1.6481    0.0000 C   0  0  0  0  0  0  0  0  0  0  0  0
   -2.8622   -1.3931    0.0000 C   0  0  0  0  0  0  0  0  0  0  0  0
    0.0419   -1.3931    0.0000 O   0  0  0  0  0  0  0  0  0  0  0  0
   -0.5127   -3.1001    0.0000 C   0  0  0  0  0  0  0  0  0  0  0  0
    0.3077   -3.0139    0.0000 C   0  0  0  0  0  0  0  0  0  0  0  0
    0.7927   -3.6813    0.0000 C   0  0  0  0  0  0  0  0  0  0  0  0
    0.4571   -4.4350    0.0000 C   0  0  0  0  0  0  0  0  0  0  0  0
   -0.3634   -4.5212    0.0000 C   0  0  0  0  0  0  0  0  0  0  0  0
   -0.8483   -3.8538    0.0000 C   0  0  0  0  0  0  0  0  0  0  0  0
    0.9420   -5.1024    0.0000 C   0  0  0  0  0  0  0  0  0  0  0  0
    1.6131   -3.5951    0.0000 C   0  0  0  0  0  0  0  0  0  0  0  0
    3.1800    0.6786    0.0000 C   0  0  0  0  0  0  0  0  0  0  0  0
    3.5925   -0.0358    0.0000 C   0  0  0  0  0  0  0  0  0  0  0  0
    4.4175   -0.0358    0.0000 N   0  0  0  0  0  0  0  0  0  0  0  0
    2.3550    0.6786    0.0000 O   0  0  0  0  0  0  0  0  0  0  0  0
  4  1  1  0
  1  2  1  0
  2  3  1  0
 10 20  1  0
  9 21  1  0
 12 13  1  0
 21 22  1  0
  8  9  1  0
 22 23  2  0
 23 24  1  0
 13 14  2  0
  6  7  1  0
 14 15  1  0
  9 10  2  0
 24 25  1  0
 25 26  1  0
 26 27  2  0
 27 23  1  0
 15 16  2  0
 27 28  1  0
 16 11  1  0
 24 29  2  0
  5 11  1  0
 25 30  1  0
 10  5  1  0
 30 31  2  0
 15 17  1  0
 31 32  1  0
  5  6  2  0
 32 33  2  0
  7  8  2  0
 33 34  1  0
 17 18  1  0
 34 35  2  0
 35 30  1  0
 17 19  2  0
 33 36  1  0
 11 12  2  0
 32 37  1  0
 41 38  1  0
 38 39  1  0
 39 40  1  0
M  END
> <chembl_id>
CHEMBL3989691

> <chembl_pref_name>
ELTROMBOPAG OLAMINE
