
     RDKit          2D

 42 45  0  0  1  0  0  0  0  0999 V2000
   -2.3125    1.5750    0.0000 S   0  0  0  0  0  0  0  0  0  0  0  0
    1.2167    0.2458    0.0000 C   0  0  0  0  0  0  0  0  0  0  0  0
    1.2000   -0.5792    0.0000 C   0  0  0  0  0  0  0  0  0  0  0  0
    1.9292    0.6458    0.0000 C   0  0  0  0  0  0  0  0  0  0  0  0
   -5.6208    1.6208    0.0000 C   0  0  0  0  0  0  0  0  0  0  0  0
    1.9042   -1.0042    0.0000 O   0  0  0  0  0  0  0  0  0  0  0  0
   -3.1458    1.5958    0.0000 C   0  0  0  0  0  0  0  0  0  0  0  0
   -4.7958    1.5958    0.0000 C   0  0  0  0  0  0  0  0  0  0  0  0
   -2.3333    0.7458    0.0000 N   0  0  0  0  0  0  0  0  0  0  0  0
    0.5125    0.6625    0.0000 C   0  0  0  0  0  0  0  0  0  0  0  0
   -3.5458    0.8833    0.0000 N   0  0  0  0  0  0  0  0  0  0  0  0
    2.6292   -0.6125    0.0000 C   0  0  0  0  0  0  0  0  0  0  0  0
    2.6375    0.2208    0.0000 C   0  0  0  0  0  0  0  0  0  0  0  0
   -0.2125    0.2750    0.0000 C   0  0  0  0  0  0  0  0  0  0  0  0
   -2.2875    2.3958    0.0000 O   0  0  0  0  0  0  0  0  0  0  0  0
   -1.4875    1.5458    0.0000 O   0  0  0  0  0  0  0  0  0  0  0  0
    0.4792   -0.9792    0.0000 O   0  0  0  0  0  0  0  0  0  0  0  0
   -4.3708    0.8750    0.0000 C   0  0  0  0  0  0  0  0  0  0  0  0
   -0.9125    0.7000    0.0000 C   0  0  0  0  0  0  0  0  0  0  0  0
   -1.6333    0.3083    0.0000 C   0  0  0  0  0  0  0  0  0  0  0  0
   -4.3833    2.3083    0.0000 C   0  0  0  0  0  0  0  0  0  0  0  0
   -3.5583    2.3083    0.0000 C   0  0  0  0  0  0  0  0  0  0  0  0
    1.9375    1.4750    0.0000 O   0  0  0  0  0  0  0  0  0  0  0  0
   -6.0000    2.3458    0.0000 F   0  0  0  0  0  0  0  0  0  0  0  0
   -6.2167    1.0583    0.0000 F   0  0  0  0  0  0  0  0  0  0  0  0
   -5.8583    0.8333    0.0000 F   0  0  0  0  0  0  0  0  0  0  0  0
    3.2792   -1.1042    0.0000 C   0  0  0  0  0  0  0  0  0  0  0  0
    3.1792   -1.9250    0.0000 C   0  0  0  0  0  0  0  0  0  0  0  0
    3.8375   -2.4250    0.0000 C   0  0  0  0  0  0  0  0  0  0  0  0
   -0.2333   -0.5542    0.0000 C   0  0  0  0  0  0  0  0  0  0  0  0
    0.5292    1.4958    0.0000 C   0  0  0  0  0  0  0  0  0  0  0  0
    3.4417   -0.7042    0.0000 C   0  0  0  0  0  0  0  0  0  0  0  0
   -0.9625   -0.9500    0.0000 C   0  0  0  0  0  0  0  0  0  0  0  0
   -1.6625   -0.5125    0.0000 C   0  0  0  0  0  0  0  0  0  0  0  0
    4.5917   -2.1042    0.0000 C   0  0  0  0  0  0  0  0  0  0  0  0
    3.7292   -3.2417    0.0000 C   0  0  0  0  0  0  0  0  0  0  0  0
    3.7667   -1.4542    0.0000 C   0  0  0  0  0  0  0  0  0  0  0  0
    1.2542    1.8958    0.0000 C   0  0  0  0  0  0  0  0  0  0  0  0
    4.5792   -1.5500    0.0000 C   0  0  0  0  0  0  0  0  0  0  0  0
    4.3792   -3.7417    0.0000 C   0  0  0  0  0  0  0  0  0  0  0  0
    5.2417   -2.6000    0.0000 C   0  0  0  0  0  0  0  0  0  0  0  0
    5.1417   -3.4167    0.0000 C   0  0  0  0  0  0  0  0  0  0  0  0
  2 10  1  0
  3  2  1  0
  4  2  2  0
  5  8  1  0
  6  3  1  0
  7  1  1  0
  8 21  2  0
  9  1  1  0
 10 14  1  0
 11  7  1  0
 12 13  1  0
 13  4  1  0
 14 19  2  0
 15  1  2  0
 16  1  2  0
 17  3  2  0
 18 11  2  0
 19 20  1  0
 20  9  1  0
 21 22  1  0
 22  7  2  0
 23  4  1  0
 24  5  1  0
 25  5  1  0
 26  5  1  0
 12 27  1  1
 28 27  1  0
 29 28  1  0
 30 33  2  0
 10 31  1  1
 32 12  1  0
 33 34  1  0
 34 20  2  0
 35 29  1  0
 36 29  2  0
 37 32  1  0
 38 31  1  0
 39 37  1  0
 40 36  1  0
 41 35  2  0
 42 40  2  0
 18  8  1  0
 14 30  1  0
  6 12  1  0
 41 42  1  0
M  END
> <chembl_id>
CHEMBL222559

> <chembl_pref_name>
TIPRANAVIR
