
     RDKit          2D

  3  2  0  0  0  0  0  0  0  0999 V2000
    0.4625   -0.7042    0.0000 Cl  0  0  0  0  0  0  0  0  0  0  0  0
   -0.5625   -0.7042    0.0000 C   0  0  0  0  0  0  0  0  0  0  0  0
   -1.0583    1.0583    0.0000 C   0  0  0  0  0  0  0  0  0  0  0  0
  2  1  1  0
  3  2  1  0
M  END
> <chembl_id>
CHEMBL46058

> <chembl_pref_name>
ETHYL CHLORIDE
