
     RDKit          2D

 11 10  0  0  0  0  0  0  0  0999 V2000
    4.5290   -7.8172    0.0000 N   0  0  0  0  0  0  0  0  0  0  0  0
    4.1165   -7.1028    0.0000 C   0  0  0  0  0  0  0  0  0  0  0  0
    5.3540   -7.8172    0.0000 C   0  0  0  0  0  0  0  0  0  0  0  0
    4.5290   -6.3883    0.0000 N   0  0  0  0  0  0  0  0  0  0  0  0
    5.7665   -8.5317    0.0000 N   0  0  0  0  0  0  0  0  0  0  0  0
    3.2915   -7.1028    0.0000 N   0  0  0  0  0  0  0  0  0  0  0  0
    5.7665   -7.1028    0.0000 N   0  0  0  0  0  0  0  0  0  0  0  0
    2.8790   -7.8172    0.0000 C   0  0  0  0  0  0  0  0  0  0  0  0
    3.2915   -8.5317    0.0000 C   0  0  0  0  0  0  0  0  0  0  0  0
    4.1165   -8.5317    0.0000 C   0  0  0  0  0  0  0  0  0  0  0  0
    4.5290   -9.2462    0.0000 C   0  0  0  0  0  0  0  0  0  0  0  0
  2  1  1  0
  3  1  1  0
  4  2  2  0
  5  3  1  0
  6  2  1  0
  7  3  2  0
  8  6  1  0
  9  8  1  0
 10  9  1  0
 11 10  1  0
M  END
> <chembl_id>
CHEMBL39736

> <chembl_pref_name>
BUFORMIN
