
     RDKit          2D

 38 41  0  0  1  0  0  0  0  0999 V2000
    5.0917   -5.1625    0.0000 C   0  0  0  0  0  0  0  0  0  0  0  0
    3.8667   -5.8667    0.0000 C   0  0  0  0  0  0  0  0  0  0  0  0
    5.7792   -4.9375    0.0000 C   0  0  0  0  0  0  0  0  0  0  0  0
    3.2542   -6.2167    0.0000 C   0  0  0  0  0  0  0  0  0  0  0  0
    5.0917   -5.8667    0.0000 C   0  0  0  0  0  0  0  0  0  0  0  0
    4.4792   -6.2167    0.0000 C   0  0  0  0  0  0  0  0  0  0  0  0
    3.2542   -6.9292    0.0000 C   0  0  0  0  0  0  0  0  0  0  0  0
    3.8667   -5.1625    0.0000 C   0  0  0  0  0  0  0  0  0  0  0  0
    4.4792   -4.8042    0.0000 C   0  0  0  0  0  0  0  0  0  0  0  0
    6.1917   -5.5000    0.0000 C   0  0  0  0  0  0  0  0  0  0  0  0
    2.6417   -5.8667    0.0000 C   0  0  0  0  0  0  0  0  0  0  0  0
    5.7667   -6.0792    0.0000 C   0  0  0  0  0  0  0  0  0  0  0  0
    6.4000   -4.5875    0.0000 C   0  0  0  0  0  0  0  0  0  0  0  0
    2.6417   -7.2792    0.0000 C   0  0  0  0  0  0  0  0  0  0  0  0
    5.7750   -4.2292    0.0000 O   0  0  0  0  0  0  0  0  0  0  0  0
    4.4792   -6.9292    0.0000 C   0  0  0  0  0  0  0  0  0  0  0  0
    2.0250   -6.2167    0.0000 C   0  0  0  0  0  0  0  0  0  0  0  0
    2.0250   -6.9292    0.0000 C   0  0  0  0  0  0  0  0  0  0  0  0
    5.1625   -3.8792    0.0000 C   0  0  0  0  0  0  0  0  0  0  0  0
    3.8667   -7.2792    0.0000 C   0  0  0  0  0  0  0  0  0  0  0  0
    8.2292   -4.9542    0.0000 C   0  0  0  0  0  0  0  0  0  0  0  0
    3.8667   -6.5792    0.0000 Cl  0  0  0  0  0  0  0  0  0  0  0  0
    7.0042   -4.9417    0.0000 C   0  0  0  0  0  0  0  0  0  0  0  0
    6.3917   -3.8750    0.0000 O   0  0  0  0  0  0  0  0  0  0  0  0
    7.6167   -4.5875    0.0000 O   0  0  0  0  0  0  0  0  0  0  0  0
    4.5500   -4.2417    0.0000 O   0  0  0  0  0  0  0  0  0  0  0  0
    8.2250   -5.6625    0.0000 O   0  0  0  0  0  0  0  0  0  0  0  0
    1.4125   -7.2875    0.0000 O   0  0  0  0  0  0  0  0  0  0  0  0
    5.0167   -4.4542    0.0000 C   0  0  0  0  0  0  0  0  0  0  0  0
    3.2542   -4.8042    0.0000 O   0  0  0  0  0  0  0  0  0  0  0  0
    3.2542   -5.5125    0.0000 C   0  0  0  0  0  0  0  0  0  0  0  0
    6.9000   -5.5042    0.0000 C   0  0  0  0  0  0  0  0  0  0  0  0
    5.1542   -3.1667    0.0000 C   0  0  0  0  0  0  0  0  0  0  0  0
    8.8542   -4.6000    0.0000 C   0  0  0  0  0  0  0  0  0  0  0  0
    5.7667   -2.8125    0.0000 C   0  0  0  0  0  0  0  0  0  0  0  0
    9.4667   -4.9625    0.0000 C   0  0  0  0  0  0  0  0  0  0  0  0
    5.1667   -6.5667    0.0000 H   0  0  0  0  0  0  0  0  0  0  0  0
    4.4792   -5.5125    0.0000 H   0  0  0  0  0  0  0  0  0  0  0  0
  2  8  1  0
  3  1  1  0
  4  2  1  0
  5  1  1  0
  6  5  1  0
  7  4  1  0
  8  9  1  0
  9  1  1  0
 10  3  1  0
 11  4  1  0
 12  5  1  0
  3 13  1  1
 14  7  2  0
 15  3  1  0
 16  6  1  0
 17 11  2  0
 18 17  1  0
 19 15  1  0
 20 16  1  0
 21 25  1  0
  2 22  1  6
 23 13  1  0
 24 13  2  0
 25 23  1  0
 26 19  2  0
 27 21  2  0
 28 18  2  0
  1 29  1  1
  8 30  1  1
  4 31  1  1
 10 32  1  1
 33 19  1  0
 34 21  1  0
 35 33  1  0
 36 34  1  0
  5 37  1  6
  6 38  1  1
 12 10  1  0
  2  6  1  0
  7 20  1  0
 18 14  1  0
M  END
> <chembl_id>
CHEMBL1200500

> <chembl_pref_name>
BECLOMETHASONE DIPROPIONATE
