
     RDKit          2D

 32 33  0  0  0  0  0  0  0  0999 V2000
    3.7417   -7.9375    0.0000 O   0  0  0  0  0  0  0  0  0  0  0  0
    5.0667   -6.4417    0.0000 N   0  0  0  0  0  0  0  0  0  0  0  0
    5.0875   -5.7292    0.0000 C   0  0  0  0  0  0  0  0  0  0  0  0
    4.3792   -6.4292    0.0000 C   0  0  0  0  0  0  0  0  0  0  0  0
    4.3875   -5.7042    0.0000 C   0  0  0  0  0  0  0  0  0  0  0  0
    2.5417   -5.3500    0.0000 C   0  0  0  0  0  0  0  0  0  0  0  0
    1.9667   -5.7667    0.0000 C   0  0  0  0  0  0  0  0  0  0  0  0
    5.7542   -6.7042    0.0000 C   0  0  0  0  0  0  0  0  0  0  0  0
    5.8000   -5.5625    0.0000 S   0  0  0  0  0  0  0  0  0  0  0  0
    3.1542   -5.7042    0.0000 C   0  0  0  0  0  0  0  0  0  0  0  0
    1.3917   -5.3500    0.0000 N   0  0  0  0  0  0  0  0  0  0  0  0
    6.1917   -6.1542    0.0000 C   0  0  0  0  0  0  0  0  0  0  0  0
    3.7667   -5.3500    0.0000 N   0  0  0  0  0  0  0  0  0  0  0  0
    1.9667   -6.4792    0.0000 C   0  0  0  0  0  0  0  0  0  0  0  0
    1.6125   -4.6792    0.0000 O   0  0  0  0  0  0  0  0  0  0  0  0
    2.3167   -4.6792    0.0000 C   0  0  0  0  0  0  0  0  0  0  0  0
    5.7167   -7.4292    0.0000 C   0  0  0  0  0  0  0  0  0  0  0  0
    3.8542   -6.8792    0.0000 O   0  0  0  0  0  0  0  0  0  0  0  0
    3.1542   -6.4125    0.0000 O   0  0  0  0  0  0  0  0  0  0  0  0
    1.3542   -6.8292    0.0000 C   0  0  0  0  0  0  0  0  0  0  0  0
    6.3417   -7.8167    0.0000 O   0  0  0  0  0  0  0  0  0  0  0  0
    5.0792   -7.7792    0.0000 O   0  0  0  0  0  0  0  0  0  0  0  0
    0.7417   -6.4750    0.0000 Cl  0  0  0  0  0  0  0  0  0  0  0  0
    6.7625   -5.7167    0.0000 C   0  0  0  0  0  0  0  0  0  0  0  0
    6.7042   -6.6542    0.0000 C   0  0  0  0  0  0  0  0  0  0  0  0
    2.5792   -6.8292    0.0000 C   0  0  0  0  0  0  0  0  0  0  0  0
    2.7375   -4.1042    0.0000 C   0  0  0  0  0  0  0  0  0  0  0  0
    1.3542   -7.5375    0.0000 C   0  0  0  0  0  0  0  0  0  0  0  0
    2.5792   -7.5375    0.0000 C   0  0  0  0  0  0  0  0  0  0  0  0
    1.9667   -7.8917    0.0000 C   0  0  0  0  0  0  0  0  0  0  0  0
    5.0417   -5.1292    0.0000 H   0  0  0  0  0  0  0  0  0  0  0  0
    7.1792   -7.8125    0.0000 Na  0  0  0  0  0 15  0  0  0  0  0  0
  3  2  1  0
  4  2  1  0
  5  4  1  0
  6 10  1  0
  7  6  1  0
  8  2  1  0
  9  3  1  0
 10 13  1  0
 11  7  2  0
 12  8  1  0
  5 13  1  1
 14  7  1  0
 15 16  1  0
 16  6  2  0
  8 17  1  6
 18  4  2  0
 19 10  2  0
 20 14  2  0
 21 17  1  0
 22 17  2  0
 23 20  1  0
 24 12  1  0
 25 12  1  0
 26 14  1  0
 27 16  1  0
 28 20  1  0
 29 26  2  0
 30 29  1  0
  3 31  1  6
 12  9  1  0
  5  3  1  0
 15 11  1  0
 30 28  2  0
M  CHG  2  21  -1  32   1
M  END
> <chembl_id>
CHEMBL1200388

> <chembl_pref_name>
CLOXACILLIN SODIUM
