
     RDKit          2D

 34 38  0  0  0  0  0  0  0  0999 V2000
    9.7825   -2.6021    0.0000 O   0  0  0  0  0  0  0  0  0  0  0  0
   11.2115   -1.7771    0.0000 O   0  0  0  0  0  0  0  0  0  0  0  0
    6.9246   -1.7771    0.0000 N   0  0  0  0  0  0  0  0  0  0  0  0
    6.2102   -3.0146    0.0000 N   0  0  0  0  0  0  0  0  0  0  0  0
    6.2102   -0.5396    0.0000 N   0  0  0  0  0  0  0  0  0  0  0  0
    3.2821    0.9529    0.0000 N   0  0  0  0  0  0  0  0  0  0  0  0
    2.7972    0.2854    0.0000 N   0  0  0  0  0  0  0  0  0  0  0  0
   10.4970   -0.5396    0.0000 N   0  0  0  0  0  0  0  0  0  0  0  0
    5.4957   -1.7771    0.0000 C   0  0  0  0  0  0  0  0  0  0  0  0
    6.2102   -1.3646    0.0000 C   0  0  0  0  0  0  0  0  0  0  0  0
    5.4957   -2.6021    0.0000 C   0  0  0  0  0  0  0  0  0  0  0  0
    6.9246   -2.6021    0.0000 C   0  0  0  0  0  0  0  0  0  0  0  0
    7.6391   -3.0146    0.0000 C   0  0  0  0  0  0  0  0  0  0  0  0
    5.4957   -0.1271    0.0000 C   0  0  0  0  0  0  0  0  0  0  0  0
    4.0668   -0.1271    0.0000 C   0  0  0  0  0  0  0  0  0  0  0  0
    4.7812   -1.3646    0.0000 C   0  0  0  0  0  0  0  0  0  0  0  0
    4.0668    0.6979    0.0000 C   0  0  0  0  0  0  0  0  0  0  0  0
    4.7812   -3.0146    0.0000 C   0  0  0  0  0  0  0  0  0  0  0  0
    4.7812   -0.5396    0.0000 C   0  0  0  0  0  0  0  0  0  0  0  0
    8.3536   -2.6021    0.0000 C   0  0  0  0  0  0  0  0  0  0  0  0
    5.4957    0.6979    0.0000 C   0  0  0  0  0  0  0  0  0  0  0  0
    7.6391   -3.8396    0.0000 C   0  0  0  0  0  0  0  0  0  0  0  0
    4.7812    1.1104    0.0000 C   0  0  0  0  0  0  0  0  0  0  0  0
    9.0681   -3.0146    0.0000 C   0  0  0  0  0  0  0  0  0  0  0  0
    4.0668   -1.7771    0.0000 C   0  0  0  0  0  0  0  0  0  0  0  0
    4.0668   -2.6021    0.0000 C   0  0  0  0  0  0  0  0  0  0  0  0
    3.2821   -0.3820    0.0000 C   0  0  0  0  0  0  0  0  0  0  0  0
    8.3536   -4.2521    0.0000 C   0  0  0  0  0  0  0  0  0  0  0  0
    9.0681   -3.8396    0.0000 C   0  0  0  0  0  0  0  0  0  0  0  0
    9.7825   -1.7771    0.0000 C   0  0  0  0  0  0  0  0  0  0  0  0
   10.4970   -1.3646    0.0000 C   0  0  0  0  0  0  0  0  0  0  0  0
   11.2115   -0.1271    0.0000 C   0  0  0  0  0  0  0  0  0  0  0  0
   11.2115    0.6979    0.0000 C   0  0  0  0  0  0  0  0  0  0  0  0
   11.9259   -0.5396    0.0000 C   0  0  0  0  0  0  0  0  0  0  0  0
  1 24  1  0
  1 30  1  0
  2 31  2  0
  3 10  1  0
  3 12  2  0
  4 11  2  0
  4 12  1  0
  5 10  1  0
  5 14  1  0
  6  7  1  0
  6 17  1  0
  7 27  2  0
  8 31  1  0
  8 32  1  0
  9 10  2  0
  9 11  1  0
  9 16  1  0
 11 18  1  0
 12 13  1  0
 13 20  2  0
 13 22  1  0
 14 19  1  0
 14 21  2  0
 15 17  1  0
 15 19  2  0
 15 27  1  0
 16 25  2  0
 17 23  2  0
 18 26  2  0
 20 24  1  0
 21 23  1  0
 22 28  2  0
 24 29  2  0
 25 26  1  0
 28 29  1  0
 30 31  1  0
 32 33  1  0
 32 34  1  0
M  END
> <chembl_id>
CHEMBL2005186

> <chembl_pref_name>
BELUMOSUDIL
