
     RDKit          2D

  7  7  0  0  0  0  0  0  0  0999 V2000
    4.6500   -4.8292    0.0000 C   0  0  0  0  0  0  0  0  0  0  0  0
    5.2167   -4.4167    0.0000 N   0  0  0  0  0  0  0  0  0  0  0  0
    4.8750   -5.5042    0.0000 N   0  0  0  0  0  0  0  0  0  0  0  0
    5.5792   -5.5042    0.0000 C   0  0  0  0  0  0  0  0  0  0  0  0
    5.7917   -4.8250    0.0000 C   0  0  0  0  0  0  0  0  0  0  0  0
    3.9667   -4.6167    0.0000 S   0  0  0  0  0  0  0  0  0  0  0  0
    5.2125   -3.7042    0.0000 C   0  0  0  0  0  0  0  0  0  0  0  0
  2  1  1  0
  3  1  2  0
  4  3  1  0
  5  2  1  0
  6  1  1  0
  7  2  1  0
  4  5  2  0
M  END
> <chembl_id>
CHEMBL1515

> <chembl_pref_name>
METHIMAZOLE
