
     RDKit          2D

 36 38  0  0  0  0  0  0  0  0999 V2000
    7.1657   -3.8167    0.0000 C   0  0  0  0  0  0  0  0  0  0  0  0
    6.7280   -3.1175    0.0000 C   0  0  0  0  0  0  0  0  0  0  0  0
    5.9030   -3.1168    0.0000 O   0  0  0  0  0  0  0  0  0  0  0  0
    7.9887   -3.8736    0.0000 O   0  0  0  0  0  0  0  0  0  0  0  0
    6.8573   -4.5819    0.0000 C   0  0  0  0  0  0  0  0  0  0  0  0
    7.4897   -5.1117    0.0000 C   0  0  0  0  0  0  0  0  0  0  0  0
    8.1890   -4.6740    0.0000 C   0  0  0  0  0  0  0  0  0  0  0  0
    8.9541   -4.9824    0.0000 N   0  0  0  0  0  0  0  0  0  0  0  0
    7.8746   -5.8414    0.0000 C   0  0  0  0  0  0  0  0  0  0  0  0
    1.9101   -2.8031    0.0000 C   0  0  0  0  0  0  0  0  0  0  0  0
    1.1934   -2.3946    0.0000 C   0  0  0  0  0  0  0  0  0  0  0  0
    2.6337   -2.4067    0.0000 O   0  0  0  0  0  0  0  0  0  0  0  0
    1.9147   -3.6281    0.0000 C   0  0  0  0  0  0  0  0  0  0  0  0
    3.3532   -2.8067    0.0000 C   0  0  0  0  0  0  0  0  0  0  0  0
    4.0629   -2.3860    0.0000 C   0  0  0  0  0  0  0  0  0  0  0  0
    4.7680   -2.8143    0.0000 N   0  0  0  0  0  0  0  0  0  0  0  0
    3.3482   -3.6334    0.0000 O   0  0  0  0  0  0  0  0  0  0  0  0
    5.4852   -2.4065    0.0000 P   0  0  0  0  0  0  0  0  0  0  0  0
    9.8020   -6.1326    0.0000 C   0  0  0  0  0  0  0  0  0  0  0  0
   10.4661   -5.6431    0.0000 C   0  0  0  0  0  0  0  0  0  0  0  0
   10.3742   -4.8232    0.0000 N   0  0  0  0  0  0  0  0  0  0  0  0
   11.2212   -5.9754    0.0000 O   0  0  0  0  0  0  0  0  0  0  0  0
    9.0460   -5.8023    0.0000 C   0  0  0  0  0  0  0  0  0  0  0  0
    9.4566   -3.6839    0.0000 O   0  0  0  0  0  0  0  0  0  0  0  0
    9.6182   -4.4929    0.0000 C   0  0  0  0  0  0  0  0  0  0  0  0
    5.4869   -0.7602    0.0000 C   0  0  0  0  0  0  0  0  0  0  0  0
    6.2007   -1.1737    0.0000 C   0  0  0  0  0  0  0  0  0  0  0  0
    5.4881    0.0648    0.0000 C   0  0  0  0  0  0  0  0  0  0  0  0
    6.2031    0.4763    0.0000 C   0  0  0  0  0  0  0  0  0  0  0  0
    6.9170    0.0627    0.0000 C   0  0  0  0  0  0  0  0  0  0  0  0
    6.2024   -1.9987    0.0000 O   0  0  0  0  0  0  0  0  0  0  0  0
    6.9158   -0.7623    0.0000 C   0  0  0  0  0  0  0  0  0  0  0  0
    5.0774   -1.6894    0.0000 O   0  0  0  0  0  0  0  0  0  0  0  0
    6.9543   -5.7394    0.0000 F   0  0  0  0  0  0  0  0  0  0  0  0
    6.0569   -4.7821    0.0000 O   0  0  0  0  0  0  0  0  0  0  0  0
    4.0535   -1.5610    0.0000 C   0  0  0  0  0  0  0  0  0  0  0  0
  1  2  1  1
  1  5  1  0
  3  2  1  0
  4  1  1  0
  5 35  1  6
  6  7  1  0
  6  9  1  1
  6 34  1  0
  6  5  1  0
  7  4  1  0
  7  8  1  1
  8 23  1  0
 10 11  1  0
 10 13  1  0
 12 10  1  0
 14 12  1  0
 14 15  1  0
 16 15  1  0
 17 14  2  0
 18 31  1  0
 19 20  1  0
 20 22  2  0
 21 20  1  0
 23 19  2  0
 24 25  2  0
 25 21  1  0
 25  8  1  0
 26 27  2  0
 26 28  1  0
 27 31  1  0
 28 29  2  0
 29 30  1  0
 30 32  2  0
 32 27  1  0
 33 18  2  0
 15 36  1  6
 18 16  1  1
  3 18  1  0
M  END
> <chembl_id>
CHEMBL1259059

> <chembl_pref_name>
SOFOSBUVIR
