
     RDKit          2D

 22 24  0  0  0  0  0  0  0  0999 V2000
    2.3750   -0.6542    0.0000 C   0  0  0  0  0  0  0  0  0  0  0  0
    1.4417   -1.1917    0.0000 C   0  0  0  0  0  0  0  0  0  0  0  0
    2.3750    0.4083    0.0000 C   0  0  0  0  0  0  0  0  0  0  0  0
    0.4917   -0.6542    0.0000 C   0  0  0  0  0  0  0  0  0  0  0  0
    1.4417    0.9375    0.0000 N   0  0  0  0  0  0  0  0  0  0  0  0
    0.4917    0.4083    0.0000 C   0  0  0  0  0  0  0  0  0  0  0  0
    3.2792   -1.1792    0.0000 C   0  0  0  0  0  0  0  0  0  0  0  0
   -0.4333    0.9375    0.0000 C   0  0  0  0  0  0  0  0  0  0  0  0
   -0.4333   -1.1917    0.0000 C   0  0  0  0  0  0  0  0  0  0  0  0
   -1.3625    0.4083    0.0000 C   0  0  0  0  0  0  0  0  0  0  0  0
    1.4542   -2.2417    0.0000 O   0  0  0  0  0  0  0  0  0  0  0  0
   -1.3625   -0.6542    0.0000 C   0  0  0  0  0  0  0  0  0  0  0  0
    4.2250   -0.6542    0.0000 O   0  0  0  0  0  0  0  0  0  0  0  0
   -4.1458    1.9375    0.0000 N   0  0  0  0  0  0  0  0  0  0  0  0
   -2.2875    0.9375    0.0000 C   0  0  0  0  0  0  0  0  0  0  0  0
    3.1875   -2.1792    0.0000 O   0  0  0  0  0  0  0  0  0  0  0  0
    1.4542    1.9958    0.0000 C   0  0  0  0  0  0  0  0  0  0  0  0
   -3.2333    2.5083    0.0000 C   0  0  0  0  0  0  0  0  0  0  0  0
   -4.1125    0.8833    0.0000 C   0  0  0  0  0  0  0  0  0  0  0  0
   -2.3000    2.0208    0.0000 C   0  0  0  0  0  0  0  0  0  0  0  0
   -3.1708    0.3750    0.0000 C   0  0  0  0  0  0  0  0  0  0  0  0
    2.3750    2.4833    0.0000 C   0  0  0  0  0  0  0  0  0  0  0  0
  2  1  1  0
  3  1  2  0
  4  2  1  0
  5  3  1  0
  6  5  1  0
  7  1  1  0
  8  6  1  0
  9  4  1  0
 10  8  2  0
 11  2  2  0
 12  9  2  0
 13  7  2  0
 14 19  1  0
 15 10  1  0
 16  7  1  0
 17  5  1  0
 18 20  1  0
 19 21  2  0
 20 15  2  0
 21 15  1  0
 22 17  1  0
  6  4  2  0
 10 12  1  0
 18 14  2  0
M  END
> <chembl_id>
CHEMBL291157

> <chembl_pref_name>
ROSOXACIN
