
     RDKit          2D

 37 34  0  0  0  0  0  0  0  0999 V2000
   -1.7687   -3.1105    0.0000 C   0  0  0  0  0  0  0  0  0  0  0  0
   -2.4821   -3.5230    0.0000 C   0  0  0  0  0  0  0  0  0  0  0  0
   -1.0553   -3.5085    0.0000 C   0  0  0  0  0  0  0  0  0  0  0  0
   -2.4821   -4.3480    0.0000 C   0  0  0  0  0  0  0  0  0  0  0  0
   -1.0456   -4.3384    0.0000 C   0  0  0  0  0  0  0  0  0  0  0  0
    1.0946   -3.0959    0.0000 N   0  0  0  0  0  0  0  0  0  0  0  0
   -1.7687   -4.7606    0.0000 C   0  0  0  0  0  0  0  0  0  0  0  0
    0.3715   -3.5085    0.0000 C   0  0  0  0  0  0  0  0  0  0  0  0
   -0.3419   -3.1008    0.0000 C   0  0  0  0  0  0  0  0  0  0  0  0
   -3.2005   -3.1154    0.0000 O   0  0  0  0  0  0  0  0  0  0  0  0
   -3.1956   -4.7606    0.0000 O   0  0  0  0  0  0  0  0  0  0  0  0
   -0.3565   -2.2709    0.0000 O   0  0  0  0  0  0  0  0  0  0  0  0
    1.8080   -3.5036    0.0000 C   0  0  0  0  0  0  0  0  0  0  0  0
    2.5263   -3.0862    0.0000 C   0  0  0  0  0  0  0  0  0  0  0  0
    1.8129   -4.3335    0.0000 C   0  0  0  0  0  0  0  0  0  0  0  0
    4.9842   -0.8639    0.0000 S   0  0  0  0  0  0  0  0  0  0  0  0
    5.3919   -0.1456    0.0000 O   0  0  0  0  0  0  0  0  0  0  0  0
    4.5620   -0.1456    0.0000 O   0  0  0  0  0  0  0  0  0  0  0  0
    4.2708   -1.2812    0.0000 O   0  0  0  0  0  0  0  0  0  0  0  0
    5.6977   -1.2812    0.0000 O   0  0  0  0  0  0  0  0  0  0  0  0
   -0.8978    0.1165    0.0000 C   0  0  0  0  0  0  0  0  0  0  0  0
   -1.6112   -0.2961    0.0000 C   0  0  0  0  0  0  0  0  0  0  0  0
   -0.1844   -0.2815    0.0000 C   0  0  0  0  0  0  0  0  0  0  0  0
   -1.6112   -1.1211    0.0000 C   0  0  0  0  0  0  0  0  0  0  0  0
   -0.1747   -1.1114    0.0000 C   0  0  0  0  0  0  0  0  0  0  0  0
    1.9655    0.1310    0.0000 N   0  0  0  0  0  0  0  0  0  0  0  0
   -0.8978   -1.5336    0.0000 C   0  0  0  0  0  0  0  0  0  0  0  0
    1.2425   -0.2815    0.0000 C   0  0  0  0  0  0  0  0  0  0  0  0
    0.5290    0.1261    0.0000 C   0  0  0  0  0  0  0  0  0  0  0  0
   -2.3295    0.1116    0.0000 O   0  0  0  0  0  0  0  0  0  0  0  0
   -2.3246   -1.5336    0.0000 O   0  0  0  0  0  0  0  0  0  0  0  0
    0.5145    0.9560    0.0000 O   0  0  0  0  0  0  0  0  0  0  0  0
    2.6789   -0.2766    0.0000 C   0  0  0  0  0  0  0  0  0  0  0  0
    3.3973    0.1407    0.0000 C   0  0  0  0  0  0  0  0  0  0  0  0
    2.6838   -1.1065    0.0000 C   0  0  0  0  0  0  0  0  0  0  0  0
    3.8873   -3.1859    0.0000 O   0  0  0  0  0  0  0  0  0  0  0  0
    4.7934   -2.6598    0.0000 O   0  0  0  0  0  0  0  0  0  0  0  0
  2  1  2  0
  3  1  1  0
  4  2  1  0
  5  3  2  0
  6  8  1  0
  7  5  1  0
  8  9  1  0
  9  3  1  0
 10  2  1  0
 11  4  1  0
 12  9  1  0
 13  6  1  0
 14 13  1  0
 15 13  1  0
  7  4  2  0
 17 16  2  0
 18 16  2  0
 19 16  1  0
 20 16  1  0
 22 21  2  0
 23 21  1  0
 24 22  1  0
 25 23  2  0
 26 28  1  0
 27 25  1  0
 28 29  1  0
 29 23  1  0
 30 22  1  0
 31 24  1  0
 32 29  1  0
 33 26  1  0
 34 33  1  0
 35 33  1  0
 27 24  2  0
M  END
> <chembl_id>
CHEMBL3989521

> <chembl_pref_name>
ISOPROTERENOL SULFATE
