
     RDKit          2D

 36 39  0  0  0  0  0  0  0  0999 V2000
    2.9361  -14.1083    0.0000 C   0  0  0  0  0  0  0  0  0  0  0  0
    2.9349  -14.9357    0.0000 C   0  0  0  0  0  0  0  0  0  0  0  0
    3.6497  -15.3485    0.0000 C   0  0  0  0  0  0  0  0  0  0  0  0
    3.6479  -13.6955    0.0000 C   0  0  0  0  0  0  0  0  0  0  0  0
    4.3633  -14.1047    0.0000 C   0  0  0  0  0  0  0  0  0  0  0  0
    4.3621  -14.9331    0.0000 C   0  0  0  0  0  0  0  0  0  0  0  0
    5.0751  -15.3461    0.0000 C   0  0  0  0  0  0  0  0  0  0  0  0
    5.7938  -14.9352    0.0000 C   0  0  0  0  0  0  0  0  0  0  0  0
    5.7949  -14.1067    0.0000 C   0  0  0  0  0  0  0  0  0  0  0  0
    5.0774  -13.6891    0.0000 C   0  0  0  0  0  0  0  0  0  0  0  0
    5.0774  -12.8641    0.0000 C   0  0  0  0  0  0  0  0  0  0  0  0
    6.5104  -13.6959    0.0000 C   0  0  0  0  0  0  0  0  0  0  0  0
    6.9167  -14.4083    0.0000 C   0  0  0  0  0  0  0  0  0  0  0  0
    7.7417  -14.4127    0.0000 N   0  0  0  0  0  0  0  0  0  0  0  0
    8.3208  -13.8250    0.0000 C   0  0  0  0  0  0  0  0  0  0  0  0
    9.1193  -14.0327    0.0000 C   0  0  0  0  0  0  0  0  0  0  0  0
    9.6983  -13.4451    0.0000 C   0  0  0  0  0  0  0  0  0  0  0  0
   10.4968  -13.6527    0.0000 C   0  0  0  0  0  0  0  0  0  0  0  0
   10.8005  -14.4186    0.0000 N   0  0  0  0  0  0  0  0  0  0  0  0
   11.1365  -13.1268    0.0000 N   0  0  0  0  0  0  0  0  0  0  0  0
   11.8317  -13.5709    0.0000 C   0  0  0  0  0  0  0  0  0  0  0  0
   11.6226  -14.3686    0.0000 C   0  0  0  0  0  0  0  0  0  0  0  0
   12.2082  -14.9465    0.0000 C   0  0  0  0  0  0  0  0  0  0  0  0
   13.0031  -14.7280    0.0000 C   0  0  0  0  0  0  0  0  0  0  0  0
   13.2091  -13.9262    0.0000 C   0  0  0  0  0  0  0  0  0  0  0  0
   12.6220  -13.3518    0.0000 C   0  0  0  0  0  0  0  0  0  0  0  0
    8.0581  -15.1746    0.0000 C   0  0  0  0  0  0  0  0  0  0  0  0
    5.5837  -13.3092    0.0000 O   0  0  0  0  0  0  0  0  0  0  0  0
    6.2958  -12.8917    0.0000 C   0  0  0  0  0  0  0  0  0  0  0  0
    7.0130  -13.2994    0.0000 O   0  0  0  0  0  0  0  0  0  0  0  0
    6.2903  -12.0667    0.0000 C   0  0  0  0  0  0  0  0  0  0  0  0
    7.0020  -11.6494    0.0000 O   0  0  0  0  0  0  0  0  0  0  0  0
    6.9965  -10.8244    0.0000 C   0  0  0  0  0  0  0  0  0  0  0  0
    5.7919  -12.4517    0.0000 C   0  0  0  0  0  0  0  0  0  0  0  0
    4.3630  -12.4516    0.0000 C   0  0  0  0  0  0  0  0  0  0  0  0
    2.2201  -15.3476    0.0000 F   0  0  0  0  0  0  0  0  0  0  0  0
  5 10  1  0
 17 18  1  0
 18 19  1  0
  6  7  1  0
  7  8  1  0
 19 22  1  0
 21 20  1  0
 20 18  2  0
  8  9  1  0
  9 10  1  0
 21 22  2  0
  5  6  1  0
 22 23  1  0
 10 11  1  6
 23 24  2  0
 24 25  1  0
  9 12  1  1
 25 26  2  0
 26 21  1  0
  2  3  1  0
 14 27  1  0
 12 13  1  0
  9 28  1  6
  3  6  2  0
 28 29  1  0
 13 14  1  0
 29 30  2  0
  1  2  2  0
 29 31  1  0
 14 15  1  0
 31 32  1  0
  5  4  2  0
 32 33  1  0
 15 16  1  0
 11 34  1  0
  4  1  1  0
 11 35  1  0
 16 17  1  0
  2 36  1  0
M  END
> <chembl_id>
CHEMBL45816

> <chembl_pref_name>
MIBEFRADIL
