
     RDKit          2D

 19 19  0  0  0  0  0  0  0  0999 V2000
    2.9080   -3.2940    0.0000 C   0  0  0  0  0  0  0  0  0  0  0  0
    3.7327   -3.3187    0.0000 C   0  0  0  0  0  0  0  0  0  0  0  0
    4.2661   -2.6894    0.0000 C   0  0  0  0  0  0  0  0  0  0  0  0
    5.2840   -3.6922    0.0000 N   0  0  0  0  0  0  0  0  0  0  0  0
    5.0646   -2.8970    0.0000 C   0  0  0  0  0  0  0  0  0  0  0  0
    5.6435   -2.3092    0.0000 O   0  0  0  0  0  0  0  0  0  0  0  0
    4.1067   -1.8799    0.0000 N   0  0  0  0  0  0  0  0  0  0  0  0
    2.4132   -2.6339    0.0000 C   0  0  0  0  0  0  0  0  0  0  0  0
    3.1657   -2.0453    0.0000 C   0  0  0  0  0  0  0  0  0  0  0  0
    2.6207   -1.8355    0.0000 N   0  0  0  0  0  0  0  0  0  0  0  0
    1.9406   -3.3102    0.0000 H   0  0  0  0  0  0  0  0  0  0  0  0
    3.3744   -1.4999    0.0000 C   0  0  0  0  0  0  0  0  0  0  0  0
    3.3991   -0.6753    0.0000 O   0  0  0  0  0  0  0  0  0  0  0  0
    1.2148   -1.5803    0.0000 S   0  0  0  0  0  0  0  0  0  0  0  0
    0.4381   -1.8586    0.0000 O   0  0  0  0  0  0  0  0  0  0  0  0
    1.9914   -1.3020    0.0000 O   0  0  0  0  0  0  0  0  0  0  0  0
    0.9365   -0.8037    0.0000 O   0  0  0  0  0  0  0  0  0  0  0  0
    1.4930   -2.3570    0.0000 O   0  0  0  0  0  0  0  0  0  0  0  0
    0.0456   -0.7751    0.0000 Na  0  0  0  0  0 15  0  0  0  0  0  0
  1  2  1  0
  1  8  1  0
  2  3  1  0
  3  5  1  6
  4  5  1  0
  5  6  2  0
  7  3  1  0
  7 12  1  0
  8  9  1  0
  8 10  1  0
  8 11  1  6
 10 12  1  0
 10 16  1  0
 12 13  2  0
 14 15  2  0
 14 16  1  0
 14 17  1  0
 18 14  2  0
  7  9  1  0
M  CHG  2  17  -1  19   1
M  END
> <chembl_id>
CHEMBL2107817

> <chembl_pref_name>
AVIBACTAM SODIUM
