
     RDKit          2D

 25 25  0  0  1  0  0  0  0  0999 V2000
    2.1042   -4.3667    0.0000 C   0  0  0  0  0  0  0  0  0  0  0  0
    2.7625   -5.2875    0.0000 C   0  0  0  0  0  0  0  0  0  0  0  0
    3.3792   -5.6500    0.0000 C   0  0  0  0  0  0  0  0  0  0  0  0
    1.6792   -4.9292    0.0000 C   0  0  0  0  0  0  0  0  0  0  0  0
    2.7625   -4.5917    0.0000 C   0  0  0  0  0  0  0  0  0  0  0  0
    2.0875   -5.5000    0.0000 C   0  0  0  0  0  0  0  0  0  0  0  0
    4.0042   -5.3000    0.0000 C   0  0  0  0  0  0  0  0  0  0  0  0
    7.0542   -4.2667    0.0000 C   0  0  0  0  0  0  0  0  0  0  0  0
    1.8792   -3.6917    0.0000 O   0  0  0  0  0  0  0  0  0  0  0  0
    7.0542   -3.5625    0.0000 O   0  0  0  0  0  0  0  0  0  0  0  0
    1.8625   -6.1625    0.0000 O   0  0  0  0  0  0  0  0  0  0  0  0
    7.6542   -4.6167    0.0000 O   0  0  0  0  0  0  0  0  0  0  0  0
    4.6125   -5.6625    0.0000 C   0  0  0  0  0  0  0  0  0  0  0  0
    3.4042   -4.2292    0.0000 C   0  0  0  0  0  0  0  0  0  0  0  0
    4.6125   -6.3625    0.0000 O   0  0  0  0  0  0  0  0  0  0  0  0
    6.4375   -4.6167    0.0000 C   0  0  0  0  0  0  0  0  0  0  0  0
    5.2250   -5.3125    0.0000 C   0  0  0  0  0  0  0  0  0  0  0  0
    4.0042   -4.5917    0.0000 C   0  0  0  0  0  0  0  0  0  0  0  0
    5.8292   -4.2500    0.0000 C   0  0  0  0  0  0  0  0  0  0  0  0
    7.0542   -5.6625    0.0000 C   0  0  0  0  0  0  0  0  0  0  0  0
    5.8292   -5.6542    0.0000 C   0  0  0  0  0  0  0  0  0  0  0  0
    6.4417   -5.3125    0.0000 C   0  0  0  0  0  0  0  0  0  0  0  0
    4.6125   -4.2417    0.0000 C   0  0  0  0  0  0  0  0  0  0  0  0
    5.2125   -4.6042    0.0000 C   0  0  0  0  0  0  0  0  0  0  0  0
    7.6750   -5.3125    0.0000 C   0  0  0  0  0  0  0  0  0  0  0  0
  2  5  1  0
  2  3  1  1
  4  1  1  0
  5  1  1  0
  6  4  1  0
  7  3  2  0
  8 16  1  0
  9  1  2  0
 10  8  2  0
  6 11  1  6
 12  8  1  0
 13  7  1  0
  5 14  1  6
 13 15  1  6
 16 19  1  0
 17 13  1  0
 18 14  1  0
 19 24  1  0
 20 22  1  0
 21 17  1  0
 22 21  1  0
 23 18  1  0
 24 23  1  0
 25 20  1  0
  6  2  1  0
M  END
> <chembl_id>
CHEMBL495

> <chembl_pref_name>
ALPROSTADIL
