
     RDKit          2D

 24 24  0  0  0  0  0  0  0  0999 V2000
    0.6542    0.1750    0.0000 C   0  0  0  0  0  0  0  0  0  0  0  0
   -1.3625   -2.1042    0.0000 C   0  0  0  0  0  0  0  0  0  0  0  0
   -0.3625   -1.5417    0.0000 N   0  0  0  0  0  0  0  0  0  0  0  0
   -0.3625   -0.4000    0.0000 C   0  0  0  0  0  0  0  0  0  0  0  0
    1.3917   -0.2500    0.0000 N   0  0  0  0  0  0  0  0  0  0  0  0
   -1.8500    2.2083    0.0000 C   0  0  0  0  0  0  0  0  0  0  0  0
    0.6667    1.1208    0.0000 O   0  0  0  0  0  0  0  0  0  0  0  0
   -1.3625   -3.2542    0.0000 O   0  0  0  0  0  0  0  0  0  0  0  0
   -2.3458   -1.5250    0.0000 C   0  0  0  0  0  0  0  0  0  0  0  0
   -0.8583    0.5125    0.0000 C   0  0  0  0  0  0  0  0  0  0  0  0
   -1.8500    3.3625    0.0000 O   0  0  0  0  0  0  0  0  0  0  0  0
   -0.8583    1.6458    0.0000 C   0  0  0  0  0  0  0  0  0  0  0  0
   -2.8458    1.6208    0.0000 O   0  0  0  0  0  0  0  0  0  0  0  0
    1.4167   -1.4000    0.0000 C   0  0  0  0  0  0  0  0  0  0  0  0
    2.3667    0.3458    0.0000 C   0  0  0  0  0  0  0  0  0  0  0  0
   -2.3458   -0.3792    0.0000 C   0  0  0  0  0  0  0  0  0  0  0  0
   -3.3500   -2.0875    0.0000 C   0  0  0  0  0  0  0  0  0  0  0  0
    3.3625   -0.1875    0.0000 C   0  0  0  0  0  0  0  0  0  0  0  0
    0.4417   -2.0167    0.0000 C   0  0  0  0  0  0  0  0  0  0  0  0
    4.3417    0.4125    0.0000 C   0  0  0  0  0  0  0  0  0  0  0  0
    0.4792   -3.1542    0.0000 C   0  0  0  0  0  0  0  0  0  0  0  0
   -3.3333    0.2000    0.0000 C   0  0  0  0  0  0  0  0  0  0  0  0
   -4.3458   -1.5000    0.0000 C   0  0  0  0  0  0  0  0  0  0  0  0
   -4.3458   -0.3542    0.0000 C   0  0  0  0  0  0  0  0  0  0  0  0
  2  3  1  0
  3  4  1  0
  4  1  1  0
  5  1  1  0
  6 12  1  0
  7  1  2  0
  8  2  2  0
  9  2  1  0
 10  4  1  0
 11  6  2  0
 12 10  1  0
 13  6  1  0
 14  5  1  0
 15  5  1  0
 16  9  2  0
 17  9  1  0
 18 15  1  0
 19 14  1  0
 20 18  1  0
 21 19  1  0
 22 16  1  0
 23 17  2  0
 24 23  1  0
 22 24  2  0
M  END
> <chembl_id>
CHEMBL316561

> <chembl_pref_name>
PROGLUMIDE
