
     RDKit          2D

 25 29  0  0  0  0  0  0  0  0999 V2000
    4.1100  -10.1750    0.0000 C   0  0  0  0  0  0  0  0  0  0  0  0
    4.5200   -9.4601    0.0000 C   0  0  0  0  0  0  0  0  0  0  0  0
    4.5150  -10.8851    0.0000 C   0  0  0  0  0  0  0  0  0  0  0  0
    3.6600  -11.3000    0.0000 O   0  0  0  0  0  0  0  0  0  0  0  0
    3.2900  -10.1801    0.0000 C   0  0  0  0  0  0  0  0  0  0  0  0
    4.1150   -8.7551    0.0000 C   0  0  0  0  0  0  0  0  0  0  0  0
    2.8850  -10.8851    0.0000 C   0  0  0  0  0  0  0  0  0  0  0  0
    2.8850   -9.4601    0.0000 C   0  0  0  0  0  0  0  0  0  0  0  0
    4.5300   -8.0450    0.0000 N   0  0  0  0  0  0  0  0  0  0  0  0
    3.2900   -8.7551    0.0000 C   0  0  0  0  0  0  0  0  0  0  0  0
    3.6900   -9.4550    0.0000 C   0  0  0  0  0  0  0  0  0  0  0  0
    5.3450   -9.4700    0.0000 C   0  0  0  0  0  0  0  0  0  0  0  0
    5.3300  -10.8950    0.0000 C   0  0  0  0  0  0  0  0  0  0  0  0
    2.0600  -10.8851    0.0000 C   0  0  0  0  0  0  0  0  0  0  0  0
    2.0600   -9.4601    0.0000 C   0  0  0  0  0  0  0  0  0  0  0  0
    3.7050   -8.0450    0.0000 C   0  0  0  0  0  0  0  0  0  0  0  0
    1.6500  -10.1801    0.0000 C   0  0  0  0  0  0  0  0  0  0  0  0
    5.7500  -10.1801    0.0000 C   0  0  0  0  0  0  0  0  0  0  0  0
    4.9400   -8.7251    0.0000 O   0  0  0  0  0  0  0  0  0  0  0  0
    5.7450  -11.6150    0.0000 O   0  0  0  0  0  0  0  0  0  0  0  0
    5.2400   -7.6301    0.0000 C   0  0  0  0  0  0  0  0  0  0  0  0
    1.6362  -11.6219    0.0000 O   0  0  0  0  0  0  0  0  0  0  0  0
    0.7862  -11.6232    0.0000 C   0  0  0  0  0  0  0  0  0  0  0  0
    3.5178   -7.7143    0.0000 H   0  0  0  0  0  0  0  0  0  0  0  0
    4.7766  -12.0562    0.0000 H   0  0  0  0  0  0  0  0  0  0  0  0
 14  7  2  0
 15  8  1  0
 16 11  1  0
 17 15  2  0
 18 13  1  0
  2 19  1  1
 20 13  2  0
 21  9  1  0
  4  7  1  0
 16  9  1  0
 10  6  1  0
 18 12  1  0
 17 14  1  0
 14 22  1  0
 22 23  1  0
  2  1  1  0
  3  1  1  0
  3  4  1  0
  5  1  1  0
  6  2  1  0
  7  5  1  0
  8  5  2  0
  6  9  1  0
 10  8  1  0
  1 11  1  1
 12  2  1  0
 13  3  1  0
  6 24  1  6
  3 25  1  1
M  END
> <chembl_id>
CHEMBL656

> <chembl_pref_name>
OXYCODONE
