
     RDKit          2D

 25 29  0  0  1  0  0  0  0  0999 V2000
    5.3502  -10.7747    0.0000 C   0  0  0  0  0  0  0  0  0  0  0  0
    4.5505  -10.7741    0.0000 C   0  0  0  0  0  0  0  0  0  0  0  0
    4.1670  -11.4572    0.0000 C   0  0  0  0  0  0  0  0  0  0  0  0
    5.7422  -11.4584    0.0000 C   0  0  0  0  0  0  0  0  0  0  0  0
    5.7433  -10.0916    0.0000 C   0  0  0  0  0  0  0  0  0  0  0  0
    4.9373  -11.9376    0.0000 O   0  0  0  0  0  0  0  0  0  0  0  0
    5.3512   -9.4030    0.0000 C   0  0  0  0  0  0  0  0  0  0  0  0
    4.1535  -10.0904    0.0000 C   0  0  0  0  0  0  0  0  0  0  0  0
    4.5515   -9.4024    0.0000 C   0  0  0  0  0  0  0  0  0  0  0  0
    5.7444   -8.7103    0.0000 N   0  0  0  0  0  0  0  0  0  0  0  0
    4.9436  -10.0764    0.0000 C   0  0  0  0  0  0  0  0  0  0  0  0
    6.5381  -10.0873    0.0000 C   0  0  0  0  0  0  0  0  0  0  0  0
    3.3722  -11.4711    0.0000 C   0  0  0  0  0  0  0  0  0  0  0  0
    6.5371  -11.4590    0.0000 C   0  0  0  0  0  0  0  0  0  0  0  0
    4.9543   -8.7097    0.0000 C   0  0  0  0  0  0  0  0  0  0  0  0
    3.3587  -10.0898    0.0000 C   0  0  0  0  0  0  0  0  0  0  0  0
    6.9302  -10.7759    0.0000 C   0  0  0  0  0  0  0  0  0  0  0  0
    2.9656  -10.7874    0.0000 C   0  0  0  0  0  0  0  0  0  0  0  0
    6.9291  -12.1523    0.0000 O   0  0  0  0  0  0  0  0  0  0  0  0
    2.9791  -12.1638    0.0000 O   0  0  0  0  0  0  0  0  0  0  0  0
    6.4377   -8.3182    0.0000 C   0  0  0  0  0  0  0  0  0  0  0  0
    2.1890  -12.1681    0.0000 C   0  0  0  0  0  0  0  0  0  0  0  0
    4.8484   -8.5387    0.0000 H   0  0  0  0  0  0  0  0  0  0  0  0
    6.2436   -9.2257    0.0000 H   0  0  0  0  0  0  0  0  0  0  0  0
    6.0071  -12.4226    0.0000 H   0  0  0  0  0  0  0  0  0  0  0  0
  2  1  1  0
  3  2  1  0
  4  1  1  0
  5  1  1  0
  4  6  1  0
  7  5  1  0
  8  2  2  0
  9  7  1  0
 10 15  1  0
  1 11  1  1
 12  5  1  0
 13  3  2  0
 14  4  1  0
 15 11  1  0
 16  8  1  0
 17 12  1  0
 18 16  2  0
 14 19  1  6
 20 13  1  0
 21 10  1  0
 22 20  1  0
  3  6  1  0
  7 10  1  0
 14 17  1  0
  8  9  1  0
 18 13  1  0
  7 23  1  6
  5 24  1  1
  4 25  1  1
M  END
> <chembl_id>
CHEMBL1595

> <chembl_pref_name>
DIHYDROCODEINE
