
     RDKit          2D

 19 20  0  0  1  0  0  0  0  0999 V2000
    2.3174   -7.4867    0.0000 C   0  0  0  0  0  0  0  0  0  0  0  0
    2.3125   -6.6608    0.0000 C   0  0  0  0  0  0  0  0  0  0  0  0
    1.6082   -7.9046    0.0000 C   0  0  0  0  0  0  0  0  0  0  0  0
    1.5984   -6.2527    0.0000 C   0  0  0  0  0  0  0  0  0  0  0  0
    0.8940   -7.4916    0.0000 C   0  0  0  0  0  0  0  0  0  0  0  0
    1.5936   -5.4268    0.0000 N   0  0  0  0  0  0  0  0  0  0  0  0
    2.3078   -8.3127    0.0000 O   0  0  0  0  0  0  0  0  0  0  0  0
    0.1798   -7.9046    0.0000 C   0  0  0  0  0  0  0  0  0  0  0  0
    3.0365   -7.8997    0.0000 C   0  0  0  0  0  0  0  0  0  0  0  0
    1.6082   -8.7354    0.0000 C   0  0  0  0  0  0  0  0  0  0  0  0
    3.0316   -6.2478    0.0000 C   0  0  0  0  0  0  0  0  0  0  0  0
   -0.5344   -7.4916    0.0000 O   0  0  0  0  0  0  0  0  0  0  0  0
    0.8940   -9.1483    0.0000 C   0  0  0  0  0  0  0  0  0  0  0  0
    0.1798   -8.7354    0.0000 C   0  0  0  0  0  0  0  0  0  0  0  0
    0.8794   -5.0138    0.0000 C   0  0  0  0  0  0  0  0  0  0  0  0
    2.3078   -5.0089    0.0000 C   0  0  0  0  0  0  0  0  0  0  0  0
   -1.2486   -7.9046    0.0000 C   0  0  0  0  0  0  0  0  0  0  0  0
    3.7458   -7.4867    0.0000 C   0  0  0  0  0  0  0  0  0  0  0  0
    3.7458   -6.6608    0.0000 C   0  0  0  0  0  0  0  0  0  0  0  0
  2  1  1  0
  3  1  1  0
  2  4  1  0
  5  3  2  0
  6  4  1  0
  1  7  1  0
  8  5  1  0
  9  1  1  0
 10  3  1  0
 11  2  1  0
 12  8  1  0
 13 10  2  0
 14  8  2  0
 15  6  1  0
 16  6  1  0
 17 12  1  0
 18  9  1  0
 19 18  1  0
 11 19  1  0
 13 14  1  0
M  END
> <chembl_id>
CHEMBL1237044

> <chembl_pref_name>
TRAMADOL
