
     RDKit          2D

 16 16  0  0  0  0  0  0  0  0999 V2000
    5.6792   -5.4042    0.0000 Cl  0  0  0  0  0  0  0  0  0  0  0  0
    3.7917   -4.8417    0.0000 C   0  0  0  0  0  0  0  0  0  0  0  0
    2.5750   -4.8417    0.0000 C   0  0  0  0  0  0  0  0  0  0  0  0
    2.0000   -4.4250    0.0000 N   0  0  0  0  0  0  0  0  0  0  0  0
    4.4042   -4.4917    0.0000 C   0  0  0  0  0  0  0  0  0  0  0  0
    3.1792   -4.4917    0.0000 C   0  0  0  0  0  0  0  0  0  0  0  0
    1.6417   -5.5167    0.0000 N   0  0  0  0  0  0  0  0  0  0  0  0
    1.4417   -4.8417    0.0000 C   0  0  0  0  0  0  0  0  0  0  0  0
    2.3542   -5.5167    0.0000 C   0  0  0  0  0  0  0  0  0  0  0  0
    5.0250   -4.8417    0.0000 C   0  0  0  0  0  0  0  0  0  0  0  0
    3.7917   -5.5625    0.0000 C   0  0  0  0  0  0  0  0  0  0  0  0
    4.4042   -3.7792    0.0000 C   0  0  0  0  0  0  0  0  0  0  0  0
    3.1792   -3.7667    0.0000 C   0  0  0  0  0  0  0  0  0  0  0  0
    4.4042   -5.9167    0.0000 C   0  0  0  0  0  0  0  0  0  0  0  0
    5.0250   -5.5625    0.0000 C   0  0  0  0  0  0  0  0  0  0  0  0
    5.6417   -4.4917    0.0000 C   0  0  0  0  0  0  0  0  0  0  0  0
  3  6  1  0
  4  3  1  0
  5  2  2  0
  6  2  1  0
  7  9  1  0
  8  4  2  0
  9  3  2  0
 10  5  1  0
 11  2  1  0
 12  5  1  0
  6 13  1  1
 14 11  2  0
 15 14  1  0
 16 10  1  0
 15 10  2  0
  8  7  1  0
M  END
> <chembl_id>
CHEMBL2106195

> <chembl_pref_name>
DEXMEDETOMIDINE HYDROCHLORIDE
