
     RDKit          2D

 27 29  0  0  1  0  0  0  0  0999 V2000
    5.7625   -5.1250    0.0000 N   0  0  0  0  0  0  0  0  0  0  0  0
    4.9417   -5.1167    0.0000 C   0  0  0  0  0  0  0  0  0  0  0  0
    4.9417   -4.4417    0.0000 C   0  0  0  0  0  0  0  0  0  0  0  0
    5.7625   -4.4292    0.0000 C   0  0  0  0  0  0  0  0  0  0  0  0
    6.3792   -5.5042    0.0000 C   0  0  0  0  0  0  0  0  0  0  0  0
    2.4375   -4.4292    0.0000 C   0  0  0  0  0  0  0  0  0  0  0  0
    3.0792   -4.0542    0.0000 C   0  0  0  0  0  0  0  0  0  0  0  0
    2.1917   -5.0917    0.0000 N   0  0  0  0  0  0  0  0  0  0  0  0
    4.2917   -4.0542    0.0000 N   0  0  0  0  0  0  0  0  0  0  0  0
    3.6667   -4.4292    0.0000 C   0  0  0  0  0  0  0  0  0  0  0  0
    6.3792   -4.1000    0.0000 S   0  0  0  0  0  0  0  0  0  0  0  0
    1.5000   -5.0917    0.0000 C   0  0  0  0  0  0  0  0  0  0  0  0
    6.9917   -5.1250    0.0000 C   0  0  0  0  0  0  0  0  0  0  0  0
    1.8542   -4.0042    0.0000 C   0  0  0  0  0  0  0  0  0  0  0  0
    1.2667   -4.4292    0.0000 S   0  0  0  0  0  0  0  0  0  0  0  0
    6.3667   -6.2417    0.0000 C   0  0  0  0  0  0  0  0  0  0  0  0
    6.9917   -4.4292    0.0000 C   0  0  0  0  0  0  0  0  0  0  0  0
    3.0792   -3.4042    0.0000 N   0  0  0  0  0  0  0  0  0  0  0  0
    4.4875   -5.5167    0.0000 O   0  0  0  0  0  0  0  0  0  0  0  0
    7.6667   -5.5167    0.0000 C   0  0  0  0  0  0  0  0  0  0  0  0
    3.6667   -4.9917    0.0000 O   0  0  0  0  0  0  0  0  0  0  0  0
    5.8042   -6.5917    0.0000 O   0  0  0  0  0  0  0  0  0  0  0  0
    0.9500   -5.5167    0.0000 N   0  0  0  0  0  0  0  0  0  0  0  0
    8.3500   -5.1500    0.0000 C   0  0  0  0  0  0  0  0  0  0  0  0
    7.0042   -6.5667    0.0000 O   0  0  0  0  0  0  0  0  0  0  0  0
    3.6500   -3.0542    0.0000 O   0  0  0  0  0  0  0  0  0  0  0  0
    5.7542   -3.7250    0.0000 H   0  0  0  0  0  0  0  0  0  0  0  0
  2  1  1  0
  3  4  1  0
  4  1  1  0
  5  1  1  0
  6  7  1  0
  7 10  1  0
  8  6  1  0
  3  9  1  1
 10  9  1  0
 11  4  1  0
 12  8  2  0
 13  5  2  0
 14  6  2  0
 15 14  1  0
 16  5  1  0
 17 13  1  0
 18  7  2  0
 19  2  2  0
 20 13  1  0
 21 10  2  0
 22 16  2  0
 23 12  1  0
 24 20  2  0
 25 16  1  0
 26 18  1  0
  4 27  1  6
  3  2  1  0
 17 11  1  0
 12 15  1  0
M  END
> <chembl_id>
CHEMBL927

> <chembl_pref_name>
CEFDINIR
