
     RDKit          2D

107117  0  0  0  0  0  0  0  0999 V2000
   -6.2221   -1.4685    0.0000 N   0  0  0  0  0  0  0  0  0  0  0  0
   -5.4477   -1.1854    0.0000 C   0  0  0  0  0  0  0  0  0  0  0  0
   -8.4580   -0.6565    0.0000 N   0  0  0  0  0  0  0  0  0  0  0  0
   -7.8251   -1.1854    0.0000 C   0  0  0  0  0  0  0  0  0  0  0  0
   -7.0465   -1.4685    0.0000 C   0  0  0  0  0  0  0  0  0  0  0  0
   -9.0200    0.8757    0.0000 C   0  0  0  0  0  0  0  0  0  0  0  0
   -4.3985    0.0636    0.0000 N   0  0  0  0  0  0  0  0  0  0  0  0
   -8.8743    1.6875    0.0000 N   0  0  0  0  0  0  0  0  0  0  0  0
   -4.8149    2.4036    0.0000 N   0  0  0  0  0  0  0  0  0  0  0  0
   -4.8149   -0.6565    0.0000 C   0  0  0  0  0  0  0  0  0  0  0  0
   -7.0465    3.2239    0.0000 N   0  0  0  0  0  0  0  0  0  0  0  0
   -4.2610    0.8757    0.0000 C   0  0  0  0  0  0  0  0  0  0  0  0
   -7.8251    2.9366    0.0000 C   0  0  0  0  0  0  0  0  0  0  0  0
   -9.5072    3.6527    0.0000 C   0  0  0  0  0  0  0  0  0  0  0  0
   -5.4477    2.9366    0.0000 C   0  0  0  0  0  0  0  0  0  0  0  0
   -8.8743    0.0636    0.0000 C   0  0  0  0  0  0  0  0  0  0  0  0
   -8.4580    2.4036    0.0000 C   0  0  0  0  0  0  0  0  0  0  0  0
   -4.3985    1.6875    0.0000 C   0  0  0  0  0  0  0  0  0  0  0  0
  -10.6813    4.2981    0.0000 N   0  0  0  0  0  0  0  0  0  0  0  0
  -10.3315    3.5485    0.0000 C   0  0  0  0  0  0  0  0  0  0  0  0
   -7.3505   -3.9708    0.0000 C   0  0  0  0  0  0  0  0  0  0  0  0
   -6.2221    3.2239    0.0000 C   0  0  0  0  0  0  0  0  0  0  0  0
   -9.0949    2.9366    0.0000 C   0  0  0  0  0  0  0  0  0  0  0  0
   -9.3573    4.4605    0.0000 C   0  0  0  0  0  0  0  0  0  0  0  0
   -5.9641   -2.2554    0.0000 C   0  0  0  0  0  0  0  0  0  0  0  0
   -7.3089   -2.2554    0.0000 C   0  0  0  0  0  0  0  0  0  0  0  0
   -6.6343   -2.7425    0.0000 C   0  0  0  0  0  0  0  0  0  0  0  0
  -10.0817    4.8601    0.0000 C   0  0  0  0  0  0  0  0  0  0  0  0
   -5.0354   -1.8973    0.0000 O   0  0  0  0  0  0  0  0  0  0  0  0
   -6.6343   -3.5587    0.0000 O   0  0  0  0  0  0  0  0  0  0  0  0
   -8.2456   -1.8973    0.0000 O   0  0  0  0  0  0  0  0  0  0  0  0
   -9.8445    0.8757    0.0000 O   0  0  0  0  0  0  0  0  0  0  0  0
   -4.1861   -1.1854    0.0000 C   0  0  0  0  0  0  0  0  0  0  0  0
   -3.4284    0.8757    0.0000 O   0  0  0  0  0  0  0  0  0  0  0  0
   -8.2456    3.6527    0.0000 O   0  0  0  0  0  0  0  0  0  0  0  0
   -5.0354    3.6527    0.0000 O   0  0  0  0  0  0  0  0  0  0  0  0
   -3.6241    1.9748    0.0000 C   0  0  0  0  0  0  0  0  0  0  0  0
   -8.0624   -3.5587    0.0000 O   0  0  0  0  0  0  0  0  0  0  0  0
   -9.6488   -0.2236    0.0000 C   0  0  0  0  0  0  0  0  0  0  0  0
   -7.3505   -4.7952    0.0000 N   0  0  0  0  0  0  0  0  0  0  0  0
   -0.4638    1.1253    0.0000 O   0  0  0  0  0  0  0  0  0  0  0  0
   -2.8288    1.7625    0.0000 C   0  0  0  0  0  0  0  0  0  0  0  0
   -1.2508    1.3377    0.0000 C   0  0  0  0  0  0  0  0  0  0  0  0
   -4.3235   -1.9973    0.0000 C   0  0  0  0  0  0  0  0  0  0  0  0
    0.1231    1.7042    0.0000 C   0  0  0  0  0  0  0  0  0  0  0  0
   -2.2543    2.3369    0.0000 C   0  0  0  0  0  0  0  0  0  0  0  0
   -2.6247    0.9672    0.0000 C   0  0  0  0  0  0  0  0  0  0  0  0
   -1.8295    0.7549    0.0000 C   0  0  0  0  0  0  0  0  0  0  0  0
   -1.4673    2.1289    0.0000 C   0  0  0  0  0  0  0  0  0  0  0  0
   -5.9266   -6.4565    0.0000 N   0  0  0  0  0  0  0  0  0  0  0  0
   -4.2402    6.2341    0.0000 N   0  0  0  0  0  0  0  0  0  0  0  0
    0.9227    1.4918    0.0000 C   0  0  0  0  0  0  0  0  0  0  0  0
   -8.6496    4.8892    0.0000 C   0  0  0  0  0  0  0  0  0  0  0  0
   -6.0765    4.0357    0.0000 C   0  0  0  0  0  0  0  0  0  0  0  0
  -10.0942    5.6888    0.0000 C   0  0  0  0  0  0  0  0  0  0  0  0
   -6.6343   -5.2074    0.0000 C   0  0  0  0  0  0  0  0  0  0  0  0
  -10.2815    0.3135    0.0000 C   0  0  0  0  0  0  0  0  0  0  0  0
   -9.7862   -1.0355    0.0000 C   0  0  0  0  0  0  0  0  0  0  0  0
   -6.6343   -6.0318    0.0000 C   0  0  0  0  0  0  0  0  0  0  0  0
   -4.3860    5.4097    0.0000 C   0  0  0  0  0  0  0  0  0  0  0  0
   -3.6908   -2.5303    0.0000 C   0  0  0  0  0  0  0  0  0  0  0  0
   -5.1021   -2.2804    0.0000 C   0  0  0  0  0  0  0  0  0  0  0  0
    1.1308    0.7008    0.0000 C   0  0  0  0  0  0  0  0  0  0  0  0
    1.4971    2.0748    0.0000 C   0  0  0  0  0  0  0  0  0  0  0  0
   -5.3019    4.3148    0.0000 C   0  0  0  0  0  0  0  0  0  0  0  0
   -5.1603    5.1266    0.0000 C   0  0  0  0  0  0  0  0  0  0  0  0
   -8.6620    5.7138    0.0000 C   0  0  0  0  0  0  0  0  0  0  0  0
   -9.3823    6.1133    0.0000 C   0  0  0  0  0  0  0  0  0  0  0  0
  -10.5606   -1.3229    0.0000 C   0  0  0  0  0  0  0  0  0  0  0  0
  -11.0603    0.0262    0.0000 C   0  0  0  0  0  0  0  0  0  0  0  0
   -5.2478   -3.0964    0.0000 C   0  0  0  0  0  0  0  0  0  0  0  0
    1.9219    0.4884    0.0000 C   0  0  0  0  0  0  0  0  0  0  0  0
    2.2925    1.8666    0.0000 C   0  0  0  0  0  0  0  0  0  0  0  0
   -3.8363   -3.3421    0.0000 C   0  0  0  0  0  0  0  0  0  0  0  0
  -11.2058   -0.7857    0.0000 C   0  0  0  0  0  0  0  0  0  0  0  0
   -4.6108   -3.6294    0.0000 C   0  0  0  0  0  0  0  0  0  0  0  0
    2.5088    1.0671    0.0000 C   0  0  0  0  0  0  0  0  0  0  0  0
   -7.9467   -1.9035    0.0000 H   0  0  0  0  0  0  0  0  0  0  0  0
  -15.7333   -2.7846    0.0000 C   0  0  0  0  0  0  0  0  0  0  0  0
  -16.4478    0.9279    0.0000 C   0  0  0  0  0  0  0  0  0  0  0  0
  -15.7333   -0.3096    0.0000 C   0  0  0  0  0  0  0  0  0  0  0  0
  -15.0189   -1.5471    0.0000 C   0  0  0  0  0  0  0  0  0  0  0  0
  -15.7333    0.5154    0.0000 C   0  0  0  0  0  0  0  0  0  0  0  0
  -15.7333   -1.9596    0.0000 C   0  0  0  0  0  0  0  0  0  0  0  0
  -15.0189   -0.7221    0.0000 C   0  0  0  0  0  0  0  0  0  0  0  0
  -15.0189   -3.1971    0.0000 C   0  0  0  0  0  0  0  0  0  0  0  0
  -17.1623    0.5154    0.0000 C   0  0  0  0  0  0  0  0  0  0  0  0
  -16.4478   -3.1971    0.0000 C   0  0  0  0  0  0  0  0  0  0  0  0
  -16.4478    1.7529    0.0000 C   0  0  0  0  0  0  0  0  0  0  0  0
  -16.4478   -0.7221    0.0000 C   0  0  0  0  0  0  0  0  0  0  0  0
  -14.3044   -1.9596    0.0000 C   0  0  0  0  0  0  0  0  0  0  0  0
  -17.1623   -0.3096    0.0000 C   0  0  0  0  0  0  0  0  0  0  0  0
  -14.3044   -2.7846    0.0000 C   0  0  0  0  0  0  0  0  0  0  0  0
  -17.1623   -2.7846    0.0000 O   0  0  0  0  0  0  0  0  0  0  0  0
  -17.1623    2.1654    0.0000 O   0  0  0  0  0  0  0  0  0  0  0  0
  -16.5538   -2.0459    0.0000 O   0  0  0  0  0  0  0  0  0  0  0  0
  -15.0189    0.9279    0.0000 O   0  0  0  0  0  0  0  0  0  0  0  0
  -15.7333    2.1654    0.0000 O   0  0  0  0  0  0  0  0  0  0  0  0
  -16.4478   -4.0221    0.0000 O   0  0  0  0  0  0  0  0  0  0  0  0
  -13.5899   -1.5471    0.0000 C   0  0  0  0  0  0  0  0  0  0  0  0
  -16.4478   -1.5471    0.0000 C   0  0  0  0  0  0  0  0  0  0  0  0
  -17.8767   -0.7221    0.0000 C   0  0  0  0  0  0  0  0  0  0  0  0
  -13.5899   -3.1971    0.0000 C   0  0  0  0  0  0  0  0  0  0  0  0
  -17.1623   -1.9596    0.0000 C   0  0  0  0  0  0  0  0  0  0  0  0
  -12.8754   -1.9596    0.0000 C   0  0  0  0  0  0  0  0  0  0  0  0
  -12.8754   -2.7846    0.0000 C   0  0  0  0  0  0  0  0  0  0  0  0
  -17.8767   -1.5471    0.0000 C   0  0  0  0  0  0  0  0  0  0  0  0
  2  1  1  0
  3  4  1  0
  4  5  1  0
  5  1  1  0
  6 16  1  0
  7 10  1  0
  8  6  1  0
  9 18  1  0
 10  2  1  0
 11 13  1  0
 12  7  1  0
 13 17  1  0
 14 23  1  0
 15  9  1  0
 16  3  1  0
 17  8  1  0
 18 12  1  0
 19 20  1  0
 20 14  2  0
 21 30  1  0
 22 15  1  0
 17 23  1  6
 24 14  1  0
 25  1  1  0
  5 26  1  0
 27 25  1  0
 28 24  2  0
 29  2  2  0
 27 30  1  6
 31  4  2  0
 32  6  2  0
 10 33  1  1
 34 12  2  0
 35 13  2  0
 36 15  2  0
 18 37  1  1
 38 21  2  0
 16 39  1  1
 40 21  1  0
 41 43  1  0
 42 37  1  0
 43 48  2  0
 44 33  1  0
 45 41  1  0
 46 42  1  0
 47 42  2  0
 48 47  1  0
 49 46  2  0
 50 59  1  0
 51 60  1  0
 52 45  1  0
 53 24  1  0
 22 54  1  1
 55 28  1  0
 56 40  1  0
 57 39  2  0
 58 39  1  0
 59 56  1  0
 60 66  1  0
 61 44  1  0
 62 44  2  0
 63 52  2  0
 64 52  1  0
 65 54  1  0
 66 65  1  0
 67 53  2  0
 68 67  1  0
 69 58  2  0
 70 57  1  0
 71 62  1  0
 72 63  1  0
 73 64  2  0
 74 61  2  0
 75 69  1  0
 76 71  2  0
 77 73  1  0
 27 26  1  0
 74 76  1  0
 70 75  2  0
 11 22  1  0
 49 43  1  0
 28 19  1  0
 55 68  2  0
 72 77  2  0
  5 78  1  6
 80 83  1  0
 81 85  1  0
 82 84  2  0
 83 81  2  0
 84 79  1  0
 85 82  1  0
 86 79  2  0
 87 92  1  0
 88 79  1  0
 89 80  1  0
 90 81  1  0
 91 93  1  0
 92 90  1  0
 93 86  1  0
 94 88  2  0
 95 89  2  0
 96 84  1  0
 97 83  1  0
 98 89  1  0
 99 88  1  0
100 91  2  0
101 90  2  0
102 92  2  0
103 93  2  0
104101  1  0
105106  2  0
106103  1  0
107104  2  0
 91 82  1  0
100105  1  0
 87 80  2  0
107102  1  0
M  END
> <chembl_id>
CHEMBL5314382

> <chembl_pref_name>
PASIREOTIDE PAMOATE
