
     RDKit          2D

 82 87  0  0  0  0  0  0  0  0999 V2000
   10.1538   -0.0832    0.0000 C   0  0  0  0  0  0  0  0  0  0  0  0
   10.9788   -0.0832    0.0000 O   0  0  0  0  0  0  0  0  0  0  0  0
    9.7413    0.6313    0.0000 O   0  0  0  0  0  0  0  0  0  0  0  0
    9.7413   -0.7977    0.0000 C   0  0  0  0  0  0  0  0  0  0  0  0
    8.9163   -0.7977    0.0000 C   0  0  0  0  0  0  0  0  0  0  0  0
    8.5038   -1.5122    0.0000 C   0  0  0  0  0  0  0  0  0  0  0  0
    8.9163   -2.2266    0.0000 O   0  0  0  0  0  0  0  0  0  0  0  0
    7.6788   -1.5122    0.0000 O   0  0  0  0  0  0  0  0  0  0  0  0
   -5.8052   -0.4217    0.0000 C   0  0  0  0  0  0  0  0  0  0  0  0
   -6.5197   -0.8342    0.0000 C   0  0  0  0  0  0  0  0  0  0  0  0
   -6.5197   -1.6593    0.0000 C   0  0  0  0  0  0  0  0  0  0  0  0
   -5.8052   -2.0718    0.0000 C   0  0  0  0  0  0  0  0  0  0  0  0
   -5.0907   -1.6593    0.0000 C   0  0  0  0  0  0  0  0  0  0  0  0
   -5.0907   -0.8342    0.0000 C   0  0  0  0  0  0  0  0  0  0  0  0
   -4.3763   -0.4217    0.0000 C   0  0  0  0  0  0  0  0  0  0  0  0
   -3.6618   -1.6593    0.0000 C   0  0  0  0  0  0  0  0  0  0  0  0
   -3.6618   -0.8342    0.0000 C   0  0  0  0  0  0  0  0  0  0  0  0
   -3.6618    0.8158    0.0000 C   0  0  0  0  0  0  0  0  0  0  0  0
   -4.3763    0.4033    0.0000 C   0  0  0  0  0  0  0  0  0  0  0  0
   -2.9473   -0.4217    0.0000 C   0  0  0  0  0  0  0  0  0  0  0  0
   -2.9473    0.4033    0.0000 C   0  0  0  0  0  0  0  0  0  0  0  0
   -1.5184    0.4032    0.0000 O   0  0  0  0  0  0  0  0  0  0  0  0
   -2.2329    0.8157    0.0000 C   0  0  0  0  0  0  0  0  0  0  0  0
   -0.8039    0.8158    0.0000 N   0  0  0  0  0  0  0  0  0  0  0  0
   -0.0894   -0.4218    0.0000 C   0  0  0  0  0  0  0  0  0  0  0  0
   -0.0894    0.4032    0.0000 C   0  0  0  0  0  0  0  0  0  0  0  0
    0.6250    0.8158    0.0000 C   0  0  0  0  0  0  0  0  0  0  0  0
    1.3395    0.4032    0.0000 C   0  0  0  0  0  0  0  0  0  0  0  0
    2.0540    0.8158    0.0000 C   0  0  0  0  0  0  0  0  0  0  0  0
    2.7684   -0.4218    0.0000 C   0  0  0  0  0  0  0  0  0  0  0  0
    2.7684    0.4032    0.0000 C   0  0  0  0  0  0  0  0  0  0  0  0
    1.3395    2.0533    0.0000 C   0  0  0  0  0  0  0  0  0  0  0  0
    0.6250    1.6408    0.0000 C   0  0  0  0  0  0  0  0  0  0  0  0
    2.0540    1.6408    0.0000 C   0  0  0  0  0  0  0  0  0  0  0  0
    2.7684    2.0533    0.0000 C   0  0  0  0  0  0  0  0  0  0  0  0
    3.4829    1.6408    0.0000 N   0  0  0  0  0  0  0  0  0  0  0  0
   -4.2725   -2.0489    0.0000 F   0  0  0  0  0  0  0  0  0  0  0  0
   -3.6618   -2.4843    0.0000 F   0  0  0  0  0  0  0  0  0  0  0  0
   -2.9732   -2.0099    0.0000 F   0  0  0  0  0  0  0  0  0  0  0  0
    4.2531    1.9364    0.0000 C   0  0  0  0  0  0  0  0  0  0  0  0
    3.7785    0.8706    0.0000 C   0  0  0  0  0  0  0  0  0  0  0  0
    4.5487    1.1662    0.0000 C   0  0  0  0  0  0  0  0  0  0  0  0
    5.3024    0.8307    0.0000 C   0  0  0  0  0  0  0  0  0  0  0  0
    5.9699    1.3156    0.0000 O   0  0  0  0  0  0  0  0  0  0  0  0
    5.3887    0.0102    0.0000 O   0  0  0  0  0  0  0  0  0  0  0  0
   -5.6978   -4.4501    0.0000 C   0  0  0  0  0  0  0  0  0  0  0  0
   -6.4123   -4.8626    0.0000 C   0  0  0  0  0  0  0  0  0  0  0  0
   -6.4123   -5.6876    0.0000 C   0  0  0  0  0  0  0  0  0  0  0  0
   -5.6978   -6.1002    0.0000 C   0  0  0  0  0  0  0  0  0  0  0  0
   -4.9833   -5.6876    0.0000 C   0  0  0  0  0  0  0  0  0  0  0  0
   -4.9833   -4.8626    0.0000 C   0  0  0  0  0  0  0  0  0  0  0  0
   -4.2689   -4.4501    0.0000 C   0  0  0  0  0  0  0  0  0  0  0  0
   -3.5544   -5.6876    0.0000 C   0  0  0  0  0  0  0  0  0  0  0  0
   -3.5544   -4.8626    0.0000 C   0  0  0  0  0  0  0  0  0  0  0  0
   -3.5544   -3.2126    0.0000 C   0  0  0  0  0  0  0  0  0  0  0  0
   -4.2689   -3.6251    0.0000 C   0  0  0  0  0  0  0  0  0  0  0  0
   -2.8399   -4.4501    0.0000 C   0  0  0  0  0  0  0  0  0  0  0  0
   -2.8399   -3.6251    0.0000 C   0  0  0  0  0  0  0  0  0  0  0  0
   -1.4110   -3.6252    0.0000 O   0  0  0  0  0  0  0  0  0  0  0  0
   -2.1254   -3.2126    0.0000 C   0  0  0  0  0  0  0  0  0  0  0  0
   -0.6965   -3.2126    0.0000 N   0  0  0  0  0  0  0  0  0  0  0  0
    0.0180   -4.4502    0.0000 C   0  0  0  0  0  0  0  0  0  0  0  0
    0.0180   -3.6251    0.0000 C   0  0  0  0  0  0  0  0  0  0  0  0
    0.7324   -3.2126    0.0000 C   0  0  0  0  0  0  0  0  0  0  0  0
    1.4469   -3.6251    0.0000 C   0  0  0  0  0  0  0  0  0  0  0  0
    2.1614   -3.2126    0.0000 C   0  0  0  0  0  0  0  0  0  0  0  0
    2.8758   -4.4502    0.0000 C   0  0  0  0  0  0  0  0  0  0  0  0
    2.8758   -3.6251    0.0000 C   0  0  0  0  0  0  0  0  0  0  0  0
    1.4469   -1.9751    0.0000 C   0  0  0  0  0  0  0  0  0  0  0  0
    0.7324   -2.3876    0.0000 C   0  0  0  0  0  0  0  0  0  0  0  0
    2.1614   -2.3876    0.0000 C   0  0  0  0  0  0  0  0  0  0  0  0
    2.8758   -1.9751    0.0000 C   0  0  0  0  0  0  0  0  0  0  0  0
    3.5903   -2.3876    0.0000 N   0  0  0  0  0  0  0  0  0  0  0  0
   -4.1651   -6.0773    0.0000 F   0  0  0  0  0  0  0  0  0  0  0  0
   -3.5544   -6.5126    0.0000 F   0  0  0  0  0  0  0  0  0  0  0  0
   -2.8658   -6.0383    0.0000 F   0  0  0  0  0  0  0  0  0  0  0  0
    4.3605   -2.0920    0.0000 C   0  0  0  0  0  0  0  0  0  0  0  0
    3.8859   -3.1578    0.0000 C   0  0  0  0  0  0  0  0  0  0  0  0
    4.6561   -2.8622    0.0000 C   0  0  0  0  0  0  0  0  0  0  0  0
    5.4098   -3.1977    0.0000 C   0  0  0  0  0  0  0  0  0  0  0  0
    6.0773   -2.7128    0.0000 O   0  0  0  0  0  0  0  0  0  0  0  0
    5.4961   -4.0182    0.0000 O   0  0  0  0  0  0  0  0  0  0  0  0
  1  2  1  0
  1  3  2  0
  1  4  1  0
  4  5  2  0
  5  6  1  0
  6  7  2  0
  6  8  1  0
  9 10  1  0
 10 11  1  0
 11 12  1  0
 12 13  1  0
 13 14  1  0
  9 14  1  0
 16 17  1  0
 15 17  2  0
 15 14  1  0
 18 19  2  0
 20 21  2  0
 18 21  1  0
 19 15  1  0
 17 20  1  0
 22 23  1  0
 21 23  1  0
 25 26  1  0
 24 26  2  0
 24 22  1  0
 27 28  2  0
 27 26  1  0
 30 31  1  0
 29 31  1  0
 29 28  1  0
 32 33  2  0
 32 34  1  0
 33 27  1  0
 29 34  2  0
 35 36  1  0
 35 34  1  0
 16 37  1  0
 16 38  1  0
 16 39  1  0
 36 40  1  0
 36 41  1  0
 40 42  1  0
 41 42  1  0
 42 43  1  0
 43 44  2  0
 43 45  1  0
 46 47  1  0
 47 48  1  0
 48 49  1  0
 49 50  1  0
 50 51  1  0
 46 51  1  0
 53 54  1  0
 52 54  2  0
 52 51  1  0
 55 56  2  0
 57 58  2  0
 55 58  1  0
 56 52  1  0
 54 57  1  0
 59 60  1  0
 58 60  1  0
 62 63  1  0
 61 63  2  0
 61 59  1  0
 64 65  2  0
 64 63  1  0
 67 68  1  0
 66 68  1  0
 66 65  1  0
 69 70  2  0
 69 71  1  0
 70 64  1  0
 66 71  2  0
 72 73  1  0
 72 71  1  0
 53 74  1  0
 53 75  1  0
 53 76  1  0
 73 77  1  0
 73 78  1  0
 77 79  1  0
 78 79  1  0
 79 80  1  0
 80 81  2  0
 80 82  1  0
M  END
> <chembl_id>
CHEMBL4298150

> <chembl_pref_name>
SIPONIMOD FUMARIC ACID
