
     RDKit          2D

 21 21  0  0  0  0  0  0  0  0999 V2000
    9.4191   -6.2859    0.0000 Cl  0  0  0  0  0  0  0  0  0  0  0  0
    8.4348   -6.4078    0.0000 N   0  0  0  0  0  0  0  0  0  0  0  0
    5.5599   -6.4078    0.0000 C   0  0  0  0  0  0  0  0  0  0  0  0
    4.8290   -6.8414    0.0000 C   0  0  0  0  0  0  0  0  0  0  0  0
    5.5599   -5.5599    0.0000 C   0  0  0  0  0  0  0  0  0  0  0  0
    4.1127   -6.4078    0.0000 C   0  0  0  0  0  0  0  0  0  0  0  0
    4.8290   -7.6649    0.0000 C   0  0  0  0  0  0  0  0  0  0  0  0
    3.3964   -7.6649    0.0000 C   0  0  0  0  0  0  0  0  0  0  0  0
    6.2762   -6.8171    0.0000 O   0  0  0  0  0  0  0  0  0  0  0  0
    4.1127   -8.0743    0.0000 C   0  0  0  0  0  0  0  0  0  0  0  0
    3.3964   -6.8414    0.0000 C   0  0  0  0  0  0  0  0  0  0  0  0
    2.6605   -8.0986    0.0000 Br  0  0  0  0  0  0  0  0  0  0  0  0
    7.7088   -6.8171    0.0000 C   0  0  0  0  0  0  0  0  0  0  0  0
    6.9925   -6.4078    0.0000 C   0  0  0  0  0  0  0  0  0  0  0  0
    8.4348   -5.5745    0.0000 C   0  0  0  0  0  0  0  0  0  0  0  0
    9.1414   -6.8171    0.0000 C   0  0  0  0  0  0  0  0  0  0  0  0
    6.2762   -5.1506    0.0000 C   0  0  0  0  0  0  0  0  0  0  0  0
    4.8436   -5.1506    0.0000 C   0  0  0  0  0  0  0  0  0  0  0  0
    4.8436   -4.3270    0.0000 C   0  0  0  0  0  0  0  0  0  0  0  0
    6.2762   -4.3270    0.0000 C   0  0  0  0  0  0  0  0  0  0  0  0
    5.5599   -3.9080    0.0000 C   0  0  0  0  0  0  0  0  0  0  0  0
  3  9  1  0
  4  3  1  0
  5  3  1  0
  6  4  2  0
  7  4  1  0
  8 11  2  0
  9 14  1  0
 10  7  2  0
 11  6  1  0
 12  8  1  0
 13  2  1  0
 14 13  1  0
 15  2  1  0
 16  2  1  0
 17  5  2  0
 18  5  1  0
 19 18  2  0
 20 17  1  0
 21 20  2  0
  8 10  1  0
 21 19  1  0
M  END
> <chembl_id>
CHEMBL1200967

> <chembl_pref_name>
BROMODIPHENHYDRAMINE HYDROCHLORIDE
