
     RDKit          2D

  5  4  0  0  0  0  0  0  0  0999 V2000
    1.0417   -1.4292    0.0000 P   0  0  0  0  0  0  0  0  0  0  0  0
    1.3917   -0.8042    0.0000 O   0  0  0  0  0  0  0  0  0  0  0  0
    1.6542   -1.7792    0.0000 O   0  0  0  0  0  0  0  0  0  0  0  0
    0.4292   -1.7792    0.0000 O   0  0  0  0  0  0  0  0  0  0  0  0
    0.6875   -0.8042    0.0000 O   0  0  0  0  0  0  0  0  0  0  0  0
  2  1  2  0
  3  1  1  0
  4  1  1  0
  5  1  1  0
M  END
> <chembl_id>
CHEMBL1187

> <chembl_pref_name>
PHOSPHORIC ACID
