
     RDKit          2D

 25 27  0  0  0  0  0  0  0  0999 V2000
   -1.6500    0.7661    0.0000 F   0  0  0  0  0  0  0  0  0  0  0  0
   -0.8250    0.7661    0.0000 C   0  0  0  0  0  0  0  0  0  0  0  0
   -0.4125    0.0516    0.0000 C   0  0  0  0  0  0  0  0  0  0  0  0
    0.4125    0.0516    0.0000 C   0  0  0  0  0  0  0  0  0  0  0  0
    0.8250    0.7661    0.0000 C   0  0  0  0  0  0  0  0  0  0  0  0
    0.4125    1.4805    0.0000 C   0  0  0  0  0  0  0  0  0  0  0  0
   -0.4125    1.4805    0.0000 C   0  0  0  0  0  0  0  0  0  0  0  0
    1.6500    0.7661    0.0000 C   0  0  0  0  0  0  0  0  0  0  0  0
    0.8250   -0.6629    0.0000 F   0  0  0  0  0  0  0  0  0  0  0  0
    2.0625    1.4805    0.0000 C   0  0  0  0  0  0  0  0  0  0  0  0
    1.6500    2.1950    0.0000 N   0  0  0  0  0  0  0  0  0  0  0  0
    2.0625    0.0516    0.0000 C   0  0  0  0  0  0  0  0  0  0  0  0
    1.6500   -0.6629    0.0000 C   0  0  0  0  0  0  0  0  0  0  0  0
    2.8875    0.0516    0.0000 N   0  0  0  0  0  0  0  0  0  0  0  0
    3.3000   -0.6629    0.0000 C   0  0  0  0  0  0  0  0  0  0  0  0
    4.1251   -0.6629    0.0000 C   0  0  0  0  0  0  0  0  0  0  0  0
    4.5376    0.0516    0.0000 C   0  0  0  0  0  0  0  0  0  0  0  0
    4.1251    0.7661    0.0000 C   0  0  0  0  0  0  0  0  0  0  0  0
    3.3000    0.7661    0.0000 C   0  0  0  0  0  0  0  0  0  0  0  0
    5.3626    0.0516    0.0000 C   0  0  0  0  0  0  0  0  0  0  0  0
    1.2375    3.4645    0.0000 C   0  0  0  0  0  0  0  0  0  0  0  0
    0.5701    2.9796    0.0000 N   0  0  0  0  0  0  0  0  0  0  0  0
    0.8250    2.1950    0.0000 C   0  0  0  0  0  0  0  0  0  0  0  0
    1.9050    2.9796    0.0000 N   0  0  0  0  0  0  0  0  0  0  0  0
    2.4750    0.7661    0.0000 O   0  0  0  0  0  0  0  0  0  0  0  0
  1  2  1  0
  2  3  1  0
  2  7  2  0
  3  4  2  0
  4  5  1  0
  5  6  2  0
  6  7  1  0
  5  8  1  0
  4  9  1  0
  8 10  1  0
 10 11  1  0
  8 12  1  0
 12 13  1  6
 12 14  1  0
 14 15  1  0
 14 19  1  0
 15 16  1  0
 16 17  1  0
 17 18  1  0
 18 19  1  0
 17 20  2  0
 23 11  1  0
 11 24  1  0
 21 22  1  0
 21 24  2  0
 22 23  2  0
  8 25  1  6
M  END
> <chembl_id>
CHEMBL2103877

> <chembl_pref_name>
EFINACONAZOLE
