
     RDKit          2D

 26 26  0  0  0  0  0  0  0  0999 V2000
    6.7500   -5.5875    0.0000 C   0  0  0  0  0  0  0  0  0  0  0  0
    6.7542   -6.3000    0.0000 C   0  0  0  0  0  0  0  0  0  0  0  0
    7.9875   -5.5875    0.0000 N   0  0  0  0  0  0  0  0  0  0  0  0
    7.3667   -5.2500    0.0000 C   0  0  0  0  0  0  0  0  0  0  0  0
    6.1417   -5.2500    0.0000 C   0  0  0  0  0  0  0  0  0  0  0  0
    6.1417   -6.6542    0.0000 C   0  0  0  0  0  0  0  0  0  0  0  0
    6.1417   -7.3667    0.0000 N   0  0  0  0  0  0  0  0  0  0  0  0
    8.6000   -5.2292    0.0000 C   0  0  0  0  0  0  0  0  0  0  0  0
    7.3667   -4.5375    0.0000 C   0  0  0  0  0  0  0  0  0  0  0  0
    5.5292   -5.6042    0.0000 C   0  0  0  0  0  0  0  0  0  0  0  0
    6.1417   -4.5375    0.0000 C   0  0  0  0  0  0  0  0  0  0  0  0
    6.7542   -7.7250    0.0000 C   0  0  0  0  0  0  0  0  0  0  0  0
    5.5417   -7.7167    0.0000 C   0  0  0  0  0  0  0  0  0  0  0  0
    8.6042   -4.5292    0.0000 C   0  0  0  0  0  0  0  0  0  0  0  0
    4.9125   -5.2500    0.0000 C   0  0  0  0  0  0  0  0  0  0  0  0
    7.9875   -4.1750    0.0000 C   0  0  0  0  0  0  0  0  0  0  0  0
    5.5250   -4.1792    0.0000 C   0  0  0  0  0  0  0  0  0  0  0  0
    4.9042   -4.5417    0.0000 C   0  0  0  0  0  0  0  0  0  0  0  0
   10.2292   -5.1292    0.0000 C   0  0  0  0  0  0  0  0  0  0  0  0
   10.2417   -6.5542    0.0000 C   0  0  0  0  0  0  0  0  0  0  0  0
    9.6167   -5.4917    0.0000 C   0  0  0  0  0  0  0  0  0  0  0  0
    9.6292   -6.2042    0.0000 C   0  0  0  0  0  0  0  0  0  0  0  0
   10.2167   -4.4167    0.0000 O   0  0  0  0  0  0  0  0  0  0  0  0
   10.2542   -7.2625    0.0000 O   0  0  0  0  0  0  0  0  0  0  0  0
   10.8542   -6.1875    0.0000 O   0  0  0  0  0  0  0  0  0  0  0  0
   10.8417   -5.4792    0.0000 O   0  0  0  0  0  0  0  0  0  0  0  0
  2  1  1  0
  3  4  2  0
  4  1  1  0
  5  1  1  0
  6  2  1  0
  7  6  1  0
  8  3  1  0
  9  4  1  0
 10  5  1  0
 11  5  2  0
 12  7  1  0
 13  7  1  0
 14 16  1  0
 15 10  2  0
 16  9  2  0
 17 11  1  0
 18 17  2  0
 18 15  1  0
 14  8  2  0
 20 22  1  0
 21 19  1  0
 22 21  2  0
 23 19  2  0
 24 20  2  0
 25 20  1  0
 26 19  1  0
M  END
> <chembl_id>
CHEMBL1653

> <chembl_pref_name>
PHENIRAMINE MALEATE
