
     RDKit          2D

 19 21  0  0  0  0  0  0  0  0999 V2000
   12.5360  -13.8011    0.0000 O   0  0  0  0  0  0  0  0  0  0  0  0
   11.7412  -13.5901    0.0000 C   0  0  0  0  0  0  0  0  0  0  0  0
   11.1882  -14.2023    0.0000 C   0  0  0  0  0  0  0  0  0  0  0  0
   11.3606  -15.0082    0.0000 C   0  0  0  0  0  0  0  0  0  0  0  0
   12.1108  -15.3457    0.0000 O   0  0  0  0  0  0  0  0  0  0  0  0
   10.6449  -15.4207    0.0000 C   0  0  0  0  0  0  0  0  0  0  0  0
   10.5600  -16.2428    0.0000 O   0  0  0  0  0  0  0  0  0  0  0  0
   10.0327  -14.8677    0.0000 C   0  0  0  0  0  0  0  0  0  0  0  0
   10.3660  -14.1175    0.0000 O   0  0  0  0  0  0  0  0  0  0  0  0
    9.2268  -15.0400    0.0000 N   0  0  0  0  0  0  0  0  0  0  0  0
    8.8893  -15.7943    0.0000 C   0  0  0  0  0  0  0  0  0  0  0  0
    8.0671  -15.7095    0.0000 N   0  0  0  0  0  0  0  0  0  0  0  0
    7.8989  -14.8994    0.0000 C   0  0  0  0  0  0  0  0  0  0  0  0
    7.1831  -14.4870    0.0000 C   0  0  0  0  0  0  0  0  0  0  0  0
    6.4673  -14.8994    0.0000 O   0  0  0  0  0  0  0  0  0  0  0  0
    7.1831  -13.6621    0.0000 N   0  0  0  0  0  0  0  0  0  0  0  0
    7.8989  -13.2497    0.0000 C   0  0  0  0  0  0  0  0  0  0  0  0
    8.6105  -13.6621    0.0000 N   0  0  0  0  0  0  0  0  0  0  0  0
    8.6105  -14.4870    0.0000 C   0  0  0  0  0  0  0  0  0  0  0  0
  1  2  1  0
  3  2  1  6
  3  4  1  0
  4  5  1  1
  4  6  1  0
  6  7  1  1
  6  8  1  0
  8  9  1  0
  3  9  1  0
  8 10  1  6
 10 11  1  0
 11 12  2  0
 12 13  1  0
 13 14  1  0
 14 15  2  0
 14 16  1  0
 16 17  1  0
 17 18  2  0
 18 19  1  0
 13 19  2  0
 10 19  1  0
M  END
> <chembl_id>
CHEMBL1556

> <chembl_pref_name>
INOSINE
