
     RDKit          2D

 21 22  0  0  0  0  0  0  0  0999 V2000
   -0.1208   -1.5167    0.0000 S   0  0  0  0  0  0  0  0  0  0  0  0
    0.9000   -1.5167    0.0000 N   0  0  0  0  0  0  0  0  0  0  0  0
    2.4042   -0.6542    0.0000 N   0  0  0  0  0  0  0  0  0  0  0  0
    1.3917   -0.6542    0.0000 C   0  0  0  0  0  0  0  0  0  0  0  0
    2.3792    1.0583    0.0000 N   0  0  0  0  0  0  0  0  0  0  0  0
    2.8917    0.1875    0.0000 C   0  0  0  0  0  0  0  0  0  0  0  0
    1.3917    1.0708    0.0000 C   0  0  0  0  0  0  0  0  0  0  0  0
    0.9000    0.1875    0.0000 C   0  0  0  0  0  0  0  0  0  0  0  0
   -1.1500   -1.5167    0.0000 C   0  0  0  0  0  0  0  0  0  0  0  0
   -0.1208   -0.5250    0.0000 O   0  0  0  0  0  0  0  0  0  0  0  0
   -0.1208   -2.5167    0.0000 O   0  0  0  0  0  0  0  0  0  0  0  0
   -1.6625   -2.3750    0.0000 C   0  0  0  0  0  0  0  0  0  0  0  0
   -1.6625   -0.6542    0.0000 C   0  0  0  0  0  0  0  0  0  0  0  0
    3.8750    0.1875    0.0000 O   0  0  0  0  0  0  0  0  0  0  0  0
   -3.1458   -1.5167    0.0000 C   0  0  0  0  0  0  0  0  0  0  0  0
    0.7792    1.9333    0.0000 O   0  0  0  0  0  0  0  0  0  0  0  0
   -4.1583   -1.5167    0.0000 N   0  0  0  0  0  0  0  0  0  0  0  0
   -2.6458   -2.3750    0.0000 C   0  0  0  0  0  0  0  0  0  0  0  0
   -2.6458   -0.6542    0.0000 C   0  0  0  0  0  0  0  0  0  0  0  0
    4.3375   -0.6542    0.0000 C   0  0  0  0  0  0  0  0  0  0  0  0
    1.2625    2.7708    0.0000 C   0  0  0  0  0  0  0  0  0  0  0  0
  2  1  1  0
  3  4  2  0
  4  2  1  0
  5  7  1  0
  6  3  1  0
  7  8  2  0
  8  4  1  0
  9  1  1  0
 10  1  2  0
 11  1  2  0
 12  9  2  0
 13  9  1  0
 14  6  1  0
 15 19  1  0
 16  7  1  0
 17 15  1  0
 18 12  1  0
 19 13  2  0
 20 14  1  0
 21 16  1  0
 18 15  2  0
  6  5  2  0
M  END
> <chembl_id>
CHEMBL62193

> <chembl_pref_name>
SULFADIMETHOXINE
