
     RDKit          2D

100113  0  0  0  0  0  0  0  0999 V2000
   12.6040  -10.7039    0.0000 O   0  0  0  0  0  0  0  0  0  0  0  0
    9.0317  -10.2914    0.0000 O   0  0  0  0  0  0  0  0  0  0  0  0
    9.7461  -11.5289    0.0000 O   0  0  0  0  0  0  0  0  0  0  0  0
   10.4606   -9.4664    0.0000 O   0  0  0  0  0  0  0  0  0  0  0  0
   11.1751  -11.5289    0.0000 O   0  0  0  0  0  0  0  0  0  0  0  0
   11.8895   -9.4664    0.0000 O   0  0  0  0  0  0  0  0  0  0  0  0
    9.7466  -10.7038    0.0000 C   0  0  0  0  0  0  0  0  0  0  0  0
   10.4608  -10.2915    0.0000 C   0  0  0  0  0  0  0  0  0  0  0  0
   11.1749  -10.7038    0.0000 C   0  0  0  0  0  0  0  0  0  0  0  0
   11.8891  -10.2915    0.0000 C   0  0  0  0  0  0  0  0  0  0  0  0
    5.3979   -3.8730    0.0000 C   0  0  0  0  0  0  0  0  0  0  0  0
    4.6834   -3.4605    0.0000 C   0  0  0  0  0  0  0  0  0  0  0  0
    3.9690   -3.8730    0.0000 C   0  0  0  0  0  0  0  0  0  0  0  0
    3.6961   -4.8195    0.0000 C   0  0  0  0  0  0  0  0  0  0  0  0
    2.9114   -5.0744    0.0000 C   0  0  0  0  0  0  0  0  0  0  0  0
    2.2983   -4.5224    0.0000 C   0  0  0  0  0  0  0  0  0  0  0  0
    2.4699   -3.7154    0.0000 C   0  0  0  0  0  0  0  0  0  0  0  0
    1.9849   -3.0480    0.0000 N   0  0  0  0  0  0  0  0  0  0  0  0
    2.4699   -2.3806    0.0000 C   0  0  0  0  0  0  0  0  0  0  0  0
    3.2545   -3.4605    0.0000 C   0  0  0  0  0  0  0  0  0  0  0  0
    3.2545   -2.6355    0.0000 C   0  0  0  0  0  0  0  0  0  0  0  0
    3.9690   -2.2230    0.0000 C   0  0  0  0  0  0  0  0  0  0  0  0
    4.6834   -2.6355    0.0000 C   0  0  0  0  0  0  0  0  0  0  0  0
    4.6834   -1.8105    0.0000 H   0  0  0  0  0  0  0  0  0  0  0  0
    5.3979   -2.2230    0.0000 N   0  0  0  0  0  0  0  0  0  0  0  0
    5.3979   -1.3980    0.0000 C   0  0  0  0  0  0  0  0  0  0  0  0
    6.1124   -2.6355    0.0000 C   0  0  0  0  0  0  0  0  0  0  0  0
    6.1124   -3.4605    0.0000 C   0  0  0  0  0  0  0  0  0  0  0  0
    6.8268   -3.8730    0.0000 C   0  0  0  0  0  0  0  0  0  0  0  0
    7.5413   -3.4605    0.0000 O   0  0  0  0  0  0  0  0  0  0  0  0
    6.8268   -4.6980    0.0000 N   0  0  0  0  0  0  0  0  0  0  0  0
    7.5413   -5.1105    0.0000 C   0  0  0  0  0  0  0  0  0  0  0  0
    7.8769   -4.3568    0.0000 C   0  0  0  0  0  0  0  0  0  0  0  0
    7.0564   -5.7779    0.0000 C   0  0  0  0  0  0  0  0  0  0  0  0
    6.2314   -5.7779    0.0000 O   0  0  0  0  0  0  0  0  0  0  0  0
    7.5413   -6.4454    0.0000 N   0  0  0  0  0  0  0  0  0  0  0  0
    7.3698   -7.2523    0.0000 C   0  0  0  0  0  0  0  0  0  0  0  0
    6.5852   -7.5073    0.0000 C   0  0  0  0  0  0  0  0  0  0  0  0
    6.4136   -8.3143    0.0000 C   0  0  0  0  0  0  0  0  0  0  0  0
    7.0267   -8.8663    0.0000 C   0  0  0  0  0  0  0  0  0  0  0  0
    6.8552   -9.6733    0.0000 C   0  0  0  0  0  0  0  0  0  0  0  0
    6.0706   -9.9282    0.0000 C   0  0  0  0  0  0  0  0  0  0  0  0
    5.4575   -9.3762    0.0000 C   0  0  0  0  0  0  0  0  0  0  0  0
    5.6290   -8.5692    0.0000 C   0  0  0  0  0  0  0  0  0  0  0  0
    7.9829   -7.8044    0.0000 C   0  0  0  0  0  0  0  0  0  0  0  0
    7.8114   -8.6114    0.0000 O   0  0  0  0  0  0  0  0  0  0  0  0
    8.7675   -7.5494    0.0000 N   0  0  0  0  0  0  0  0  0  0  0  0
    9.4820   -7.9619    0.0000 C   0  0  0  0  0  0  0  0  0  0  0  0
   10.0951   -7.4099    0.0000 C   0  0  0  0  0  0  0  0  0  0  0  0
    9.7595   -6.6562    0.0000 C   0  0  0  0  0  0  0  0  0  0  0  0
    8.9390   -6.7425    0.0000 C   0  0  0  0  0  0  0  0  0  0  0  0
    8.3259   -6.1904    0.0000 C   0  0  0  0  0  0  0  0  0  0  0  0
    9.0796   -5.8549    0.0000 O   0  0  0  0  0  0  0  0  0  0  0  0
    8.3259   -5.3654    0.0000 O   0  0  0  0  0  0  0  0  0  0  0  0
    8.1544   -6.9974    0.0000 H   0  0  0  0  0  0  0  0  0  0  0  0
   13.7030   -3.8335    0.0000 C   0  0  0  0  0  0  0  0  0  0  0  0
   12.9885   -3.4210    0.0000 C   0  0  0  0  0  0  0  0  0  0  0  0
   12.2740   -3.8335    0.0000 C   0  0  0  0  0  0  0  0  0  0  0  0
   12.0011   -4.7800    0.0000 C   0  0  0  0  0  0  0  0  0  0  0  0
   11.2165   -5.0349    0.0000 C   0  0  0  0  0  0  0  0  0  0  0  0
   10.6034   -4.4829    0.0000 C   0  0  0  0  0  0  0  0  0  0  0  0
   10.7750   -3.6759    0.0000 C   0  0  0  0  0  0  0  0  0  0  0  0
   10.2900   -3.0085    0.0000 N   0  0  0  0  0  0  0  0  0  0  0  0
   10.7750   -2.3410    0.0000 C   0  0  0  0  0  0  0  0  0  0  0  0
   11.5596   -3.4210    0.0000 C   0  0  0  0  0  0  0  0  0  0  0  0
   11.5596   -2.5960    0.0000 C   0  0  0  0  0  0  0  0  0  0  0  0
   12.2740   -2.1835    0.0000 C   0  0  0  0  0  0  0  0  0  0  0  0
   12.9885   -2.5960    0.0000 C   0  0  0  0  0  0  0  0  0  0  0  0
   12.9885   -1.7710    0.0000 H   0  0  0  0  0  0  0  0  0  0  0  0
   13.7030   -2.1835    0.0000 N   0  0  0  0  0  0  0  0  0  0  0  0
   13.7030   -1.3585    0.0000 C   0  0  0  0  0  0  0  0  0  0  0  0
   14.4175   -2.5960    0.0000 C   0  0  0  0  0  0  0  0  0  0  0  0
   14.4175   -3.4210    0.0000 C   0  0  0  0  0  0  0  0  0  0  0  0
   15.1319   -3.8335    0.0000 C   0  0  0  0  0  0  0  0  0  0  0  0
   15.8464   -3.4210    0.0000 O   0  0  0  0  0  0  0  0  0  0  0  0
   15.1319   -4.6585    0.0000 N   0  0  0  0  0  0  0  0  0  0  0  0
   15.8464   -5.0710    0.0000 C   0  0  0  0  0  0  0  0  0  0  0  0
   16.1820   -4.3173    0.0000 C   0  0  0  0  0  0  0  0  0  0  0  0
   15.3615   -5.7384    0.0000 C   0  0  0  0  0  0  0  0  0  0  0  0
   14.5365   -5.7384    0.0000 O   0  0  0  0  0  0  0  0  0  0  0  0
   15.8464   -6.4058    0.0000 N   0  0  0  0  0  0  0  0  0  0  0  0
   15.6749   -7.2128    0.0000 C   0  0  0  0  0  0  0  0  0  0  0  0
   14.8903   -7.4677    0.0000 C   0  0  0  0  0  0  0  0  0  0  0  0
   14.7187   -8.2747    0.0000 C   0  0  0  0  0  0  0  0  0  0  0  0
   15.3318   -8.8267    0.0000 C   0  0  0  0  0  0  0  0  0  0  0  0
   15.1603   -9.6337    0.0000 C   0  0  0  0  0  0  0  0  0  0  0  0
   14.3757   -9.8887    0.0000 C   0  0  0  0  0  0  0  0  0  0  0  0
   13.7626   -9.3366    0.0000 C   0  0  0  0  0  0  0  0  0  0  0  0
   13.9341   -8.5297    0.0000 C   0  0  0  0  0  0  0  0  0  0  0  0
   16.2880   -7.7648    0.0000 C   0  0  0  0  0  0  0  0  0  0  0  0
   16.1164   -8.5718    0.0000 O   0  0  0  0  0  0  0  0  0  0  0  0
   17.0726   -7.5099    0.0000 N   0  0  0  0  0  0  0  0  0  0  0  0
   17.7871   -7.9224    0.0000 C   0  0  0  0  0  0  0  0  0  0  0  0
   18.4002   -7.3704    0.0000 C   0  0  0  0  0  0  0  0  0  0  0  0
   18.0646   -6.6167    0.0000 C   0  0  0  0  0  0  0  0  0  0  0  0
   17.2441   -6.7029    0.0000 C   0  0  0  0  0  0  0  0  0  0  0  0
   16.6310   -6.1509    0.0000 C   0  0  0  0  0  0  0  0  0  0  0  0
   17.3847   -5.8153    0.0000 O   0  0  0  0  0  0  0  0  0  0  0  0
   16.6310   -5.3259    0.0000 O   0  0  0  0  0  0  0  0  0  0  0  0
   16.4595   -6.9579    0.0000 H   0  0  0  0  0  0  0  0  0  0  0  0
  7  3  2  0
  8  4  1  0
  9  5  1  0
  7  2  1  0
  9 10  1  0
  8  9  1  0
 10  1  1  0
  7  8  1  0
 10  6  2  0
 11 12  2  0
 12 13  1  0
 13 14  1  0
 14 15  2  0
 15 16  1  0
 16 17  2  0
 17 18  1  0
 18 19  1  0
 17 20  1  0
 13 20  2  0
 20 21  1  0
 19 21  2  0
 21 22  1  0
 22 23  1  0
 23 24  1  6
 12 23  1  0
 23 25  1  0
 25 26  1  0
 25 27  1  0
 27 28  1  0
 11 28  1  0
 28 29  1  6
 29 30  2  0
 29 31  1  0
 32 31  1  0
 32 33  1  1
 32 34  1  0
 34 35  2  0
 34 36  1  0
 36 37  1  0
 37 38  1  6
 38 39  1  0
 39 40  1  0
 40 41  2  0
 41 42  1  0
 42 43  2  0
 43 44  1  0
 39 44  2  0
 37 45  1  0
 45 46  2  0
 45 47  1  0
 47 48  1  0
 48 49  1  0
 49 50  1  0
 50 51  1  0
 47 51  1  0
 51 52  1  0
 52 53  1  6
 36 52  1  0
 52 54  1  0
 32 54  1  0
 51 55  1  1
 56 57  2  0
 57 58  1  0
 58 59  1  0
 59 60  2  0
 60 61  1  0
 61 62  2  0
 62 63  1  0
 63 64  1  0
 62 65  1  0
 58 65  2  0
 65 66  1  0
 64 66  2  0
 66 67  1  0
 67 68  1  0
 68 69  1  6
 57 68  1  0
 68 70  1  0
 70 71  1  0
 70 72  1  0
 72 73  1  0
 56 73  1  0
 73 74  1  6
 74 75  2  0
 74 76  1  0
 77 76  1  0
 77 78  1  1
 77 79  1  0
 79 80  2  0
 79 81  1  0
 81 82  1  0
 82 83  1  6
 83 84  1  0
 84 85  1  0
 85 86  2  0
 86 87  1  0
 87 88  2  0
 88 89  1  0
 84 89  2  0
 82 90  1  0
 90 91  2  0
 90 92  1  0
 92 93  1  0
 93 94  1  0
 94 95  1  0
 95 96  1  0
 92 96  1  0
 96 97  1  0
 97 98  1  6
 81 97  1  0
 97 99  1  0
 77 99  1  0
 96100  1  1
M  END
> <chembl_id>
CHEMBL2448612

> <chembl_pref_name>
ERGOTAMINE TARTRATE
