
     RDKit          2D

 23 23  0  0  0  0  0  0  0  0999 V2000
   -3.6625   -1.3125    0.0000 N   0  0  0  0  0  0  0  0  0  0  0  0
   -2.3000    0.9625    0.0000 O   0  0  0  0  0  0  0  0  0  0  0  0
   -2.9833   -0.1792    0.0000 C   0  0  0  0  0  0  0  0  0  0  0  0
   -1.6333    1.3250    0.0000 C   0  0  0  0  0  0  0  0  0  0  0  0
   -2.9958   -0.9375    0.0000 C   0  0  0  0  0  0  0  0  0  0  0  0
   -2.3208    0.1875    0.0000 C   0  0  0  0  0  0  0  0  0  0  0  0
   -0.2958    2.0625    0.0000 C   0  0  0  0  0  0  0  0  0  0  0  0
   -1.6208    2.0833    0.0000 C   0  0  0  0  0  0  0  0  0  0  0  0
   -0.9833    0.9333    0.0000 C   0  0  0  0  0  0  0  0  0  0  0  0
   -0.3083    1.3000    0.0000 C   0  0  0  0  0  0  0  0  0  0  0  0
   -0.9500    2.4625    0.0000 C   0  0  0  0  0  0  0  0  0  0  0  0
   -3.6375    0.2208    0.0000 O   0  0  0  0  0  0  0  0  0  0  0  0
    3.0167    2.3958    0.0000 O   0  0  0  0  0  0  0  0  0  0  0  0
   -3.6833   -2.0792    0.0000 C   0  0  0  0  0  0  0  0  0  0  0  0
    1.0292    2.0458    0.0000 O   0  0  0  0  0  0  0  0  0  0  0  0
    0.3750    2.4375    0.0000 C   0  0  0  0  0  0  0  0  0  0  0  0
    3.6750    1.9958    0.0000 C   0  0  0  0  0  0  0  0  0  0  0  0
    2.3500    2.0208    0.0000 C   0  0  0  0  0  0  0  0  0  0  0  0
    1.6917    2.4083    0.0000 C   0  0  0  0  0  0  0  0  0  0  0  0
   -4.3458   -2.4417    0.0000 C   0  0  0  0  0  0  0  0  0  0  0  0
   -3.0208   -2.4750    0.0000 C   0  0  0  0  0  0  0  0  0  0  0  0
    4.3417    2.3625    0.0000 C   0  0  0  0  0  0  0  0  0  0  0  0
    3.6542    1.2333    0.0000 C   0  0  0  0  0  0  0  0  0  0  0  0
  2  6  1  0
  3  5  1  0
  4  2  1  0
  5  1  1  0
  6  3  1  0
  7 10  2  0
  8  4  1  0
  9  4  2  0
 10  9  1  0
 11  8  2  0
 12  3  1  0
 13 18  1  0
 14  1  1  0
 15 16  1  0
 16  7  1  0
 17 13  1  0
 18 19  1  0
 19 15  1  0
 20 14  1  0
 21 14  1  0
 22 17  1  0
 23 17  1  0
 11  7  1  0
M  END
> <chembl_id>
CHEMBL645

> <chembl_pref_name>
BISOPROLOL
