
     RDKit          2D

 25 27  0  0  0  0  0  0  0  0999 V2000
    4.2667   -5.7542    0.0000 C   0  0  0  0  0  0  0  0  0  0  0  0
    7.2500   -6.8167    0.0000 N   0  0  0  0  0  0  0  0  0  0  0  0
    6.1042   -6.8167    0.0000 N   0  0  0  0  0  0  0  0  0  0  0  0
    4.8792   -5.4000    0.0000 S   0  0  0  0  0  0  0  0  0  0  0  0
    6.6792   -6.3917    0.0000 C   0  0  0  0  0  0  0  0  0  0  0  0
    4.2667   -6.4542    0.0000 C   0  0  0  0  0  0  0  0  0  0  0  0
    3.6542   -5.3917    0.0000 C   0  0  0  0  0  0  0  0  0  0  0  0
    7.0292   -7.4875    0.0000 C   0  0  0  0  0  0  0  0  0  0  0  0
    6.3250   -7.4875    0.0000 C   0  0  0  0  0  0  0  0  0  0  0  0
    5.4917   -6.4625    0.0000 C   0  0  0  0  0  0  0  0  0  0  0  0
    5.4917   -5.7542    0.0000 C   0  0  0  0  0  0  0  0  0  0  0  0
    8.5542   -4.6875    0.0000 C   0  0  0  0  0  0  0  0  0  0  0  0
    4.8792   -6.8042    0.0000 Cl  0  0  0  0  0  0  0  0  0  0  0  0
    3.6542   -4.6875    0.0000 Cl  0  0  0  0  0  0  0  0  0  0  0  0
    7.3292   -5.4000    0.0000 C   0  0  0  0  0  0  0  0  0  0  0  0
    9.1667   -4.3292    0.0000 Cl  0  0  0  0  0  0  0  0  0  0  0  0
    6.1042   -5.4000    0.0000 C   0  0  0  0  0  0  0  0  0  0  0  0
    6.7167   -5.7542    0.0000 C   0  0  0  0  0  0  0  0  0  0  0  0
    7.9417   -4.3292    0.0000 C   0  0  0  0  0  0  0  0  0  0  0  0
    8.5542   -5.4000    0.0000 C   0  0  0  0  0  0  0  0  0  0  0  0
    7.3292   -4.6875    0.0000 C   0  0  0  0  0  0  0  0  0  0  0  0
    7.9417   -5.7542    0.0000 C   0  0  0  0  0  0  0  0  0  0  0  0
    3.0375   -6.4542    0.0000 C   0  0  0  0  0  0  0  0  0  0  0  0
    3.6542   -6.8125    0.0000 C   0  0  0  0  0  0  0  0  0  0  0  0
    3.0417   -5.7500    0.0000 C   0  0  0  0  0  0  0  0  0  0  0  0
  2  5  2  0
  3 10  1  0
  4  1  1  0
  5  3  1  0
  6  1  1  0
  7  1  2  0
  8  9  2  0
  9  3  1  0
 10 11  1  0
 11  4  1  0
 12 20  1  0
 13  6  1  0
 14  7  1  0
 15 18  1  0
 16 12  1  0
 17 11  1  0
 18 17  1  0
 19 21  1  0
 20 22  2  0
 21 15  2  0
 22 15  1  0
 23 25  2  0
 24  6  2  0
 25  7  1  0
 23 24  1  0
  2  8  1  0
 12 19  2  0
M  END
> <chembl_id>
CHEMBL1295

> <chembl_pref_name>
BUTOCONAZOLE
