
     RDKit          2D

 67 72  0  0  0  0  0  0  0  0999 V2000
    7.6250    0.4083    0.0000 N   0  0  0  0  0  0  0  0  0  0  0  0
   -0.9667    0.3083    0.0000 N   0  0  0  0  0  0  0  0  0  0  0  0
   -2.2000    0.3042    0.0000 C   0  0  0  0  0  0  0  0  0  0  0  0
    8.8625    0.4042    0.0000 C   0  0  0  0  0  0  0  0  0  0  0  0
   -1.5833   -0.0500    0.0000 C   0  0  0  0  0  0  0  0  0  0  0  0
    8.2417    0.0500    0.0000 C   0  0  0  0  0  0  0  0  0  0  0  0
   -2.2042    1.0167    0.0000 C   0  0  0  0  0  0  0  0  0  0  0  0
    8.8625    1.1167    0.0000 C   0  0  0  0  0  0  0  0  0  0  0  0
    9.4750    0.0500    0.0000 C   0  0  0  0  0  0  0  0  0  0  0  0
   -2.8167   -0.0500    0.0000 C   0  0  0  0  0  0  0  0  0  0  0  0
   -3.4292    0.3042    0.0000 C   0  0  0  0  0  0  0  0  0  0  0  0
   10.0875    0.4042    0.0000 C   0  0  0  0  0  0  0  0  0  0  0  0
    9.4750    1.4708    0.0000 C   0  0  0  0  0  0  0  0  0  0  0  0
   -2.8167    1.3708    0.0000 C   0  0  0  0  0  0  0  0  0  0  0  0
   -3.4292    1.0125    0.0000 C   0  0  0  0  0  0  0  0  0  0  0  0
   10.0875    1.1125    0.0000 C   0  0  0  0  0  0  0  0  0  0  0  0
    0.2625    0.3208    0.0000 C   0  0  0  0  0  0  0  0  0  0  0  0
    6.3958    0.3917    0.0000 C   0  0  0  0  0  0  0  0  0  0  0  0
   -0.3583    0.6708    0.0000 C   0  0  0  0  0  0  0  0  0  0  0  0
    7.0042    0.7542    0.0000 C   0  0  0  0  0  0  0  0  0  0  0  0
    0.8708    0.6833    0.0000 C   0  0  0  0  0  0  0  0  0  0  0  0
    5.7792    0.7417    0.0000 C   0  0  0  0  0  0  0  0  0  0  0  0
   10.0792   -1.0167    0.0000 C   0  0  0  0  0  0  0  0  0  0  0  0
   -3.4208   -1.1167    0.0000 C   0  0  0  0  0  0  0  0  0  0  0  0
   -0.9667    1.0250    0.0000 C   0  0  0  0  0  0  0  0  0  0  0  0
    7.6250    1.1250    0.0000 C   0  0  0  0  0  0  0  0  0  0  0  0
   -1.5833   -0.7583    0.0000 C   0  0  0  0  0  0  0  0  0  0  0  0
    8.2417   -0.6583    0.0000 C   0  0  0  0  0  0  0  0  0  0  0  0
   10.0750   -1.7250    0.0000 C   0  0  0  0  0  0  0  0  0  0  0  0
   -3.4167   -1.8250    0.0000 C   0  0  0  0  0  0  0  0  0  0  0  0
    9.4667   -0.6625    0.0000 C   0  0  0  0  0  0  0  0  0  0  0  0
   -2.8083   -0.7625    0.0000 C   0  0  0  0  0  0  0  0  0  0  0  0
   -2.1917   -1.1167    0.0000 C   0  0  0  0  0  0  0  0  0  0  0  0
    8.8500   -1.0167    0.0000 C   0  0  0  0  0  0  0  0  0  0  0  0
   -1.5917    1.3792    0.0000 C   0  0  0  0  0  0  0  0  0  0  0  0
    8.2500    1.4792    0.0000 C   0  0  0  0  0  0  0  0  0  0  0  0
    5.7708    1.4500    0.0000 O   0  0  0  0  0  0  0  0  0  0  0  0
    0.8625    1.3917    0.0000 O   0  0  0  0  0  0  0  0  0  0  0  0
    9.4583   -2.0792    0.0000 C   0  0  0  0  0  0  0  0  0  0  0  0
   -2.8000   -2.1792    0.0000 C   0  0  0  0  0  0  0  0  0  0  0  0
    8.8458   -1.7208    0.0000 C   0  0  0  0  0  0  0  0  0  0  0  0
   -2.1875   -1.8208    0.0000 C   0  0  0  0  0  0  0  0  0  0  0  0
    7.0083    0.0542    0.0000 C   0  0  0  0  0  0  0  0  0  0  0  0
   -0.3500   -0.0458    0.0000 C   0  0  0  0  0  0  0  0  0  0  0  0
   10.7000    0.0500    0.0000 O   0  0  0  0  0  0  0  0  0  0  0  0
   -4.0417   -0.0500    0.0000 O   0  0  0  0  0  0  0  0  0  0  0  0
   10.7000    1.4708    0.0000 O   0  0  0  0  0  0  0  0  0  0  0  0
   -4.0417    1.3708    0.0000 O   0  0  0  0  0  0  0  0  0  0  0  0
   -4.0333   -0.7625    0.0000 O   0  0  0  0  0  0  0  0  0  0  0  0
   10.6917   -0.6625    0.0000 O   0  0  0  0  0  0  0  0  0  0  0  0
    1.4875    0.3375    0.0000 O   0  0  0  0  0  0  0  0  0  0  0  0
    5.1667    0.3792    0.0000 O   0  0  0  0  0  0  0  0  0  0  0  0
   10.6875   -2.0833    0.0000 O   0  0  0  0  0  0  0  0  0  0  0  0
   -4.0292   -2.1833    0.0000 O   0  0  0  0  0  0  0  0  0  0  0  0
    4.5500    0.7250    0.0000 C   0  0  0  0  0  0  0  0  0  0  0  0
    2.0958    0.6958    0.0000 C   0  0  0  0  0  0  0  0  0  0  0  0
   11.3125    1.1167    0.0000 C   0  0  0  0  0  0  0  0  0  0  0  0
   11.3167    0.4042    0.0000 C   0  0  0  0  0  0  0  0  0  0  0  0
   -4.6458   -1.1208    0.0000 C   0  0  0  0  0  0  0  0  0  0  0  0
   -4.6583    0.3042    0.0000 C   0  0  0  0  0  0  0  0  0  0  0  0
   11.3042   -1.0208    0.0000 C   0  0  0  0  0  0  0  0  0  0  0  0
   -4.6542    1.0167    0.0000 C   0  0  0  0  0  0  0  0  0  0  0  0
   -4.6458   -1.8333    0.0000 C   0  0  0  0  0  0  0  0  0  0  0  0
   11.3042   -1.7333    0.0000 C   0  0  0  0  0  0  0  0  0  0  0  0
    2.7167    0.3500    0.0000 C   0  0  0  0  0  0  0  0  0  0  0  0
    3.9417    0.3625    0.0000 C   0  0  0  0  0  0  0  0  0  0  0  0
    3.3250    0.7125    0.0000 C   0  0  0  0  0  0  0  0  0  0  0  0
  2 19  1  0
  3  5  1  0
  4  6  1  0
  5  2  1  0
  6  1  1  0
  7 35  1  0
  8  4  1  0
  9  4  2  0
 10  3  2  0
 11 10  1  0
 12  9  1  0
 13  8  2  0
 14  7  2  0
 15 14  1  0
 16 12  2  0
 17 21  1  0
 18 20  1  0
 19 17  1  0
 20  1  1  0
 21 51  1  0
 22 18  1  0
 23 31  1  0
 24 32  1  0
 25  2  1  0
 26  1  1  0
 27  5  1  0
 28  6  1  0
 29 39  1  0
 30 40  1  0
 31 34  2  0
 32 33  2  0
 33 27  1  0
 34 28  1  0
 35 25  1  0
 36 26  1  0
 37 22  2  0
 38 21  2  0
 39 41  2  0
 40 42  2  0
 41 34  1  0
 42 33  1  0
 43  1  1  0
 44  2  1  0
 45 12  1  0
 46 11  1  0
 47 16  1  0
 48 15  1  0
 49 24  1  0
 50 23  1  0
 51 56  1  0
 52 22  1  0
 53 29  1  0
 54 30  1  0
 55 52  1  0
 56 65  1  0
 57 47  1  0
 58 45  1  0
 59 49  1  0
 60 46  1  0
 61 50  1  0
 62 48  1  0
 63 54  1  0
 64 53  1  0
 65 67  1  0
 66 55  1  0
 67 66  1  0
 36  8  1  0
 16 13  1  0
 29 23  2  0
  3  7  1  0
 11 15  2  0
 30 24  2  0
M  CHG  2   1   1   2   1
M  END
> <chembl_id>
CHEMBL1360

> <chembl_pref_name>
ATRACURIUM
