
     RDKit          2D

 22 22  0  0  0  0  0  0  0  0999 V2000
    5.6417   -6.0292    0.0000 Cl  0  0  0  0  0  0  0  0  0  0  0  0
    7.2292   -4.2792    0.0000 N   0  0  0  0  0  0  0  0  0  0  0  0
    6.6167   -3.9292    0.0000 C   0  0  0  0  0  0  0  0  0  0  0  0
    5.9917   -4.2792    0.0000 C   0  0  0  0  0  0  0  0  0  0  0  0
    7.2292   -4.9792    0.0000 C   0  0  0  0  0  0  0  0  0  0  0  0
    3.5375   -4.9792    0.0000 C   0  0  0  0  0  0  0  0  0  0  0  0
    4.1542   -5.3292    0.0000 C   0  0  0  0  0  0  0  0  0  0  0  0
    3.5375   -4.2792    0.0000 C   0  0  0  0  0  0  0  0  0  0  0  0
    6.6042   -5.3417    0.0000 N   0  0  0  0  0  0  0  0  0  0  0  0
    4.7750   -4.2792    0.0000 C   0  0  0  0  0  0  0  0  0  0  0  0
    5.3792   -3.9250    0.0000 C   0  0  0  0  0  0  0  0  0  0  0  0
    5.9917   -4.9792    0.0000 C   0  0  0  0  0  0  0  0  0  0  0  0
    4.1625   -3.9250    0.0000 C   0  0  0  0  0  0  0  0  0  0  0  0
    4.7792   -4.9792    0.0000 C   0  0  0  0  0  0  0  0  0  0  0  0
    6.6167   -3.2167    0.0000 N   0  0  0  0  0  0  0  0  0  0  0  0
    7.8417   -5.3417    0.0000 N   0  0  0  0  0  0  0  0  0  0  0  0
    2.9167   -5.3375    0.0000 O   0  0  0  0  0  0  0  0  0  0  0  0
    4.1625   -6.0542    0.0000 O   0  0  0  0  0  0  0  0  0  0  0  0
    2.9292   -3.9292    0.0000 O   0  0  0  0  0  0  0  0  0  0  0  0
    2.3042   -4.9750    0.0000 C   0  0  0  0  0  0  0  0  0  0  0  0
    3.5500   -6.4042    0.0000 C   0  0  0  0  0  0  0  0  0  0  0  0
    2.9250   -3.2125    0.0000 C   0  0  0  0  0  0  0  0  0  0  0  0
  3  2  2  0
  4  3  1  0
  5  2  1  0
  6  7  1  0
  7 14  2  0
  8 13  1  0
  9  5  2  0
 10 11  1  0
 11  4  1  0
 12  9  1  0
 13 10  2  0
 14 10  1  0
 15  3  1  0
 16  5  1  0
 17  6  1  0
 18  7  1  0
 19  8  1  0
 20 17  1  0
 21 18  1  0
 22 19  1  0
  4 12  2  0
  8  6  2  0
M  END
> <chembl_id>
CHEMBL1201080

> <chembl_pref_name>
TRIMETHOPRIM HYDROCHLORIDE
