
     RDKit          2D

 29 32  0  0  0  0  0  0  0  0999 V2000
    1.4292   -3.7417    0.0000 N   0  0  0  0  0  0  0  0  0  0  0  0
    2.0417   -4.1000    0.0000 C   0  0  0  0  0  0  0  0  0  0  0  0
    1.4292   -5.1917    0.0000 S   0  0  0  0  0  0  0  0  0  0  0  0
    2.0417   -4.8292    0.0000 C   0  0  0  0  0  0  0  0  0  0  0  0
    0.8292   -4.1000    0.0000 C   0  0  0  0  0  0  0  0  0  0  0  0
    0.8292   -4.8292    0.0000 C   0  0  0  0  0  0  0  0  0  0  0  0
    2.6750   -3.7417    0.0000 C   0  0  0  0  0  0  0  0  0  0  0  0
    3.2625   -4.1000    0.0000 C   0  0  0  0  0  0  0  0  0  0  0  0
    2.6542   -1.6125    0.0000 N   0  0  0  0  0  0  0  0  0  0  0  0
    3.8792   -3.7500    0.0000 C   0  0  0  0  0  0  0  0  0  0  0  0
    2.6750   -5.1917    0.0000 C   0  0  0  0  0  0  0  0  0  0  0  0
    3.2625   -4.8292    0.0000 C   0  0  0  0  0  0  0  0  0  0  0  0
    3.8875   -3.0417    0.0000 O   0  0  0  0  0  0  0  0  0  0  0  0
    1.4292   -3.0375    0.0000 C   0  0  0  0  0  0  0  0  0  0  0  0
    2.0292   -2.6792    0.0000 C   0  0  0  0  0  0  0  0  0  0  0  0
    3.2667   -1.9625    0.0000 C   0  0  0  0  0  0  0  0  0  0  0  0
    2.6542   -0.9125    0.0000 C   0  0  0  0  0  0  0  0  0  0  0  0
    2.0417   -1.9417    0.0000 C   0  0  0  0  0  0  0  0  0  0  0  0
    3.8917   -1.6292    0.0000 C   0  0  0  0  0  0  0  0  0  0  0  0
    3.2917   -0.5542    0.0000 C   0  0  0  0  0  0  0  0  0  0  0  0
    0.2250   -3.7417    0.0000 C   0  0  0  0  0  0  0  0  0  0  0  0
    3.9042   -0.9042    0.0000 C   0  0  0  0  0  0  0  0  0  0  0  0
    0.2250   -5.1917    0.0000 C   0  0  0  0  0  0  0  0  0  0  0  0
    5.7167   -0.5917    0.0000 O   0  0  0  0  0  0  0  0  0  0  0  0
    4.4875   -4.1125    0.0000 C   0  0  0  0  0  0  0  0  0  0  0  0
    5.1500   -0.9167    0.0000 C   0  0  0  0  0  0  0  0  0  0  0  0
    4.5250   -0.5542    0.0000 C   0  0  0  0  0  0  0  0  0  0  0  0
   -0.3708   -4.0792    0.0000 C   0  0  0  0  0  0  0  0  0  0  0  0
   -0.3708   -4.8500    0.0000 C   0  0  0  0  0  0  0  0  0  0  0  0
  2  1  1  0
  3  6  1  0
  4  2  2  0
  5  1  1  0
  6  5  2  0
  7  2  1  0
  8  7  2  0
  9 18  1  0
 10  8  1  0
 11  4  1  0
 12  8  1  0
 13 10  2  0
 14  1  1  0
 15 14  1  0
 16  9  1  0
 17  9  1  0
 18 15  1  0
 19 16  1  0
 20 17  1  0
 21  5  1  0
 22 20  1  0
 23  6  1  0
 24 26  1  0
 25 10  1  0
 26 27  1  0
 27 22  1  0
 28 21  2  0
 29 28  1  0
  3  4  1  0
 29 23  2  0
 12 11  2  0
 22 19  1  0
M  END
> <chembl_id>
CHEMBL1584

> <chembl_pref_name>
PIPERACETAZINE
