
     RDKit          2D

 31 33  0  0  0  0  0  0  0  0999 V2000
    0.3575    2.6143    0.0000 C   0  0  0  0  0  0  0  0  0  0  0  0
   -0.4675    2.6143    0.0000 C   0  0  0  0  0  0  0  0  0  0  0  0
   -0.8800    3.3288    0.0000 C   0  0  0  0  0  0  0  0  0  0  0  0
   -0.4675    4.0433    0.0000 C   0  0  0  0  0  0  0  0  0  0  0  0
    0.3575    4.0433    0.0000 C   0  0  0  0  0  0  0  0  0  0  0  0
    0.7700    3.3288    0.0000 C   0  0  0  0  0  0  0  0  0  0  0  0
    1.5950    1.8999    0.0000 N   0  0  0  0  0  0  0  0  0  0  0  0
    0.7700    1.8999    0.0000 C   0  0  0  0  0  0  0  0  0  0  0  0
    0.3575    1.1854    0.0000 C   0  0  0  0  0  0  0  0  0  0  0  0
   -0.4675    1.1854    0.0000 O   0  0  0  0  0  0  0  0  0  0  0  0
    0.7700    0.4709    0.0000 N   0  0  0  0  0  0  0  0  0  0  0  0
    0.5565   -0.3260    0.0000 C   0  0  0  0  0  0  0  0  0  0  0  0
   -0.1580   -0.7385    0.0000 C   0  0  0  0  0  0  0  0  0  0  0  0
   -0.1580   -1.5635    0.0000 O   0  0  0  0  0  0  0  0  0  0  0  0
   -0.8725   -0.3260    0.0000 N   0  0  0  0  0  0  0  0  0  0  0  0
   -1.5869   -0.7385    0.0000 C   0  0  0  0  0  0  0  0  0  0  0  0
   -1.5869   -1.5635    0.0000 C   0  0  0  0  0  0  0  0  0  0  0  0
   -0.8725   -1.9760    0.0000 C   0  0  0  0  0  0  0  0  0  0  0  0
   -0.8725   -2.8010    0.0000 C   0  0  0  0  0  0  0  0  0  0  0  0
   -1.5869   -3.2135    0.0000 C   0  0  0  0  0  0  0  0  0  0  0  0
   -2.3014   -2.8010    0.0000 C   0  0  0  0  0  0  0  0  0  0  0  0
   -2.3014   -1.9760    0.0000 C   0  0  0  0  0  0  0  0  0  0  0  0
   -1.5869   -4.0385    0.0000 C   0  0  0  0  0  0  0  0  0  0  0  0
   -0.8725   -4.4510    0.0000 N   0  0  0  0  0  0  0  0  0  0  0  0
   -2.3014   -4.4510    0.0000 N   0  0  0  0  0  0  0  0  0  0  0  0
    1.3534   -0.5395    0.0000 C   0  0  0  0  0  0  0  0  0  0  0  0
    1.5669    0.2574    0.0000 C   0  0  0  0  0  0  0  0  0  0  0  0
    2.0075    1.1854    0.0000 C   0  0  0  0  0  0  0  0  0  0  0  0
    2.8325    1.1854    0.0000 C   0  0  0  0  0  0  0  0  0  0  0  0
    3.2450    0.4709    0.0000 O   0  0  0  0  0  0  0  0  0  0  0  0
    3.2450    1.8999    0.0000 O   0  0  0  0  0  0  0  0  0  0  0  0
  1  2  1  0
  1  6  1  0
  1  8  1  0
  2  3  1  0
  3  4  1  0
  4  5  1  0
  5  6  1  0
  8  7  1  1
 28  7  1  0
  8  9  1  0
  9 10  2  0
  9 11  1  0
 12 11  1  0
 27 11  1  0
 12 13  1  1
 12 26  1  0
 13 14  2  0
 13 15  1  0
 16 15  1  0
 16 17  1  0
 17 18  2  0
 17 22  1  0
 18 19  1  0
 19 20  2  0
 20 21  1  0
 20 23  1  0
 21 22  2  0
 23 24  2  0
 23 25  1  0
 26 27  1  0
 28 29  1  0
 29 30  1  0
 29 31  2  0
M  END
> <chembl_id>
CHEMBL266349

> <chembl_pref_name>
MELAGATRAN
