
     RDKit          2D

 16 17  0  0  0  0  0  0  0  0999 V2000
   -2.2333    0.0375    0.0000 C   0  0  0  0  0  0  0  0  0  0  0  0
   -1.1625    0.6375    0.0000 O   0  0  0  0  0  0  0  0  0  0  0  0
    0.9417    0.6208    0.0000 C   0  0  0  0  0  0  0  0  0  0  0  0
    1.9875   -0.0917    0.0000 N   0  0  0  0  0  0  0  0  0  0  0  0
   -0.1083    0.0333    0.0000 C   0  0  0  0  0  0  0  0  0  0  0  0
    1.3542    1.8083    0.0000 N   0  0  0  0  0  0  0  0  0  0  0  0
   -2.2333   -1.1875    0.0000 C   0  0  0  0  0  0  0  0  0  0  0  0
   -3.2958    0.6583    0.0000 C   0  0  0  0  0  0  0  0  0  0  0  0
   -3.2958    1.8750    0.0000 Cl  0  0  0  0  0  0  0  0  0  0  0  0
   -1.1625   -1.7875    0.0000 Cl  0  0  0  0  0  0  0  0  0  0  0  0
    2.9917    0.6208    0.0000 C   0  0  0  0  0  0  0  0  0  0  0  0
    2.5750    1.8083    0.0000 C   0  0  0  0  0  0  0  0  0  0  0  0
   -4.3458   -1.1875    0.0000 C   0  0  0  0  0  0  0  0  0  0  0  0
   -4.3458    0.0375    0.0000 C   0  0  0  0  0  0  0  0  0  0  0  0
   -3.2958   -1.8125    0.0000 C   0  0  0  0  0  0  0  0  0  0  0  0
   -0.1083   -1.1875    0.0000 C   0  0  0  0  0  0  0  0  0  0  0  0
  2  1  1  0
  3  5  1  0
  4  3  2  0
  5  2  1  0
  6  3  1  0
  7  1  1  0
  8  1  2  0
  9  8  1  0
 10  7  1  0
 11  4  1  0
 12  6  1  0
 13 14  2  0
 14  8  1  0
 15  7  2  0
 16  5  1  0
 15 13  1  0
 12 11  1  0
M  END
> <chembl_id>
CHEMBL17860

> <chembl_pref_name>
LOFEXIDINE
