
     RDKit          2D

 29 31  0  0  1  0  0  0  0  0999 V2000
   -2.0375    1.5000    0.0000 N   0  0  0  0  0  0  0  0  0  0  0  0
   -1.3708    1.7208    0.0000 C   0  0  0  0  0  0  0  0  0  0  0  0
   -2.7500    1.5000    0.0000 C   0  0  0  0  0  0  0  0  0  0  0  0
   -0.9500    1.1458    0.0000 C   0  0  0  0  0  0  0  0  0  0  0  0
   -2.0458    0.7875    0.0000 C   0  0  0  0  0  0  0  0  0  0  0  0
   -2.7500    0.7958    0.0000 C   0  0  0  0  0  0  0  0  0  0  0  0
   -1.3708    0.5708    0.0000 C   0  0  0  0  0  0  0  0  0  0  0  0
    2.9542   -0.0917    0.0000 S   0  0  0  0  0  0  0  0  0  0  0  0
   -1.1458    2.3958    0.0000 C   0  0  0  0  0  0  0  0  0  0  0  0
   -0.2458    1.1458    0.0000 S   0  0  0  0  0  0  0  0  0  0  0  0
    2.2875    0.1333    0.0000 N   0  0  0  0  0  0  0  0  0  0  0  0
    0.5125   -0.5250    0.0000 N   0  0  0  0  0  0  0  0  0  0  0  0
   -3.2500    2.0000    0.0000 O   0  0  0  0  0  0  0  0  0  0  0  0
    2.7667   -0.7750    0.0000 O   0  0  0  0  0  0  0  0  0  0  0  0
    3.1625    0.5875    0.0000 O   0  0  0  0  0  0  0  0  0  0  0  0
   -3.4375    0.6125    0.0000 C   0  0  0  0  0  0  0  0  0  0  0  0
    0.1667    0.5708    0.0000 C   0  0  0  0  0  0  0  0  0  0  0  0
    3.6417   -0.2500    0.0000 N   0  0  0  0  0  0  0  0  0  0  0  0
   -1.6208    2.9208    0.0000 O   0  0  0  0  0  0  0  0  0  0  0  0
    1.7542   -0.3292    0.0000 C   0  0  0  0  0  0  0  0  0  0  0  0
    0.8750    0.5625    0.0000 C   0  0  0  0  0  0  0  0  0  0  0  0
    1.0917   -0.1125    0.0000 C   0  0  0  0  0  0  0  0  0  0  0  0
   -0.0583   -0.1042    0.0000 C   0  0  0  0  0  0  0  0  0  0  0  0
   -0.4583    2.5375    0.0000 O   0  0  0  0  0  0  0  0  0  0  0  0
   -1.1458   -0.1042    0.0000 C   0  0  0  0  0  0  0  0  0  0  0  0
   -3.6208   -0.0750    0.0000 O   0  0  0  0  0  0  0  0  0  0  0  0
   -3.9375    1.1125    0.0000 C   0  0  0  0  0  0  0  0  0  0  0  0
   -2.9333    0.1083    0.0000 H   0  0  0  0  0  0  0  0  0  0  0  0
   -2.0458    0.0833    0.0000 H   0  0  0  0  0  0  0  0  0  0  0  0
  2  1  1  0
  3  1  1  0
  4  2  2  0
  5  1  1  0
  6  5  1  0
  7  5  1  0
  8 11  1  0
  9  2  1  0
 10  4  1  0
 11 20  1  0
 12 23  1  0
 13  3  2  0
 14  8  2  0
 15  8  2  0
 16  6  1  0
 17 10  1  1
 18  8  1  0
 19  9  2  0
 22 20  1  1
 21 17  1  0
 22 21  1  0
 23 17  1  0
 24  9  1  0
  7 25  1  6
 16 26  1  6
 27 16  1  0
  6 28  1  6
  5 29  1  1
  4  7  1  0
  6  3  1  0
 22 12  1  0
M  END
> <chembl_id>
CHEMBL491571

> <chembl_pref_name>
DORIPENEM
