
     RDKit          2D

 25 27  0  0  0  0  0  0  0  0999 V2000
    0.6375   -2.8667    0.0000 N   0  0  0  0  0  0  0  0  0  0  0  0
    1.0625   -3.4375    0.0000 C   0  0  0  0  0  0  0  0  0  0  0  0
    0.6417   -4.0167    0.0000 C   0  0  0  0  0  0  0  0  0  0  0  0
   -0.0333   -3.0917    0.0000 C   0  0  0  0  0  0  0  0  0  0  0  0
   -0.0333   -3.8000    0.0000 C   0  0  0  0  0  0  0  0  0  0  0  0
    0.6292   -2.1542    0.0000 C   0  0  0  0  0  0  0  0  0  0  0  0
    0.6375   -4.7250    0.0000 C   0  0  0  0  0  0  0  0  0  0  0  0
   -0.6458   -2.7375    0.0000 C   0  0  0  0  0  0  0  0  0  0  0  0
    1.2417   -1.7917    0.0000 C   0  0  0  0  0  0  0  0  0  0  0  0
    1.2500   -5.0792    0.0000 C   0  0  0  0  0  0  0  0  0  0  0  0
   -0.6458   -4.1542    0.0000 C   0  0  0  0  0  0  0  0  0  0  0  0
    0.0125   -1.8042    0.0000 O   0  0  0  0  0  0  0  0  0  0  0  0
    1.2417   -5.7917    0.0000 O   0  0  0  0  0  0  0  0  0  0  0  0
    1.8542   -2.1417    0.0000 C   0  0  0  0  0  0  0  0  0  0  0  0
    1.2292   -1.0917    0.0000 C   0  0  0  0  0  0  0  0  0  0  0  0
    1.7667   -3.4292    0.0000 C   0  0  0  0  0  0  0  0  0  0  0  0
   -1.2583   -3.8042    0.0000 C   0  0  0  0  0  0  0  0  0  0  0  0
   -1.2583   -3.0917    0.0000 C   0  0  0  0  0  0  0  0  0  0  0  0
    2.4542   -1.0750    0.0000 C   0  0  0  0  0  0  0  0  0  0  0  0
    1.8667   -4.7375    0.0000 O   0  0  0  0  0  0  0  0  0  0  0  0
    1.8375   -0.7292    0.0000 C   0  0  0  0  0  0  0  0  0  0  0  0
    2.4667   -1.7792    0.0000 C   0  0  0  0  0  0  0  0  0  0  0  0
    3.0667   -0.7125    0.0000 Cl  0  0  0  0  0  0  0  0  0  0  0  0
   -1.8708   -4.1542    0.0000 O   0  0  0  0  0  0  0  0  0  0  0  0
   -2.4875   -3.8042    0.0000 C   0  0  0  0  0  0  0  0  0  0  0  0
  2  1  1  0
  3  2  2  0
  4  1  1  0
  5  4  1  0
  6  1  1  0
  7  3  1  0
  8  4  2  0
  9  6  1  0
 10  7  1  0
 11  5  2  0
 12  6  2  0
 13 10  2  0
 14  9  2  0
 15  9  1  0
 16  2  1  0
 17 18  2  0
 18  8  1  0
 19 21  1  0
 20 10  1  0
 21 15  2  0
 22 14  1  0
 23 19  1  0
 24 17  1  0
 25 24  1  0
  5  3  1  0
 22 19  2  0
 11 17  1  0
M  END
> <chembl_id>
CHEMBL6

> <chembl_pref_name>
INDOMETHACIN
