
     RDKit          2D

 49 52  0  0  0  0  0  0  0  0999 V2000
    4.0378    2.7871    0.0000 N   0  0  0  0  0  0  0  0  0  0  0  0
    3.6253    2.0726    0.0000 C   0  0  0  0  0  0  0  0  0  0  0  0
    2.9108    2.4851    0.0000 C   0  0  0  0  0  0  0  0  0  0  0  0
    2.1963    2.0726    0.0000 O   0  0  0  0  0  0  0  0  0  0  0  0
    4.3397    1.6601    0.0000 C   0  0  0  0  0  0  0  0  0  0  0  0
    5.0542    2.0726    0.0000 O   0  0  0  0  0  0  0  0  0  0  0  0
    3.2128    1.3581    0.0000 C   0  0  0  0  0  0  0  0  0  0  0  0
    2.3878    1.3581    0.0000 O   0  0  0  0  0  0  0  0  0  0  0  0
   -1.4516    3.5047    0.0000 O   0  0  0  0  0  0  0  0  0  0  0  0
   -1.2381    2.7078    0.0000 P   0  0  0  0  0  0  0  0  0  0  0  0
   -0.4412    2.9213    0.0000 O   0  0  0  0  0  0  0  0  0  0  0  0
   -2.0349    2.4943    0.0000 O   0  0  0  0  0  0  0  0  0  0  0  0
   -1.0245    1.9109    0.0000 O   0  0  0  0  0  0  0  0  0  0  0  0
   -1.6079    1.3276    0.0000 C   0  0  0  0  0  0  0  0  0  0  0  0
   -3.1120   -0.8887    0.0000 N   0  0  0  0  0  0  0  0  0  0  0  0
   -2.7374   -0.1537    0.0000 C   0  0  0  0  0  0  0  0  0  0  0  0
   -1.8388   -1.5375    0.0000 C   0  0  0  0  0  0  0  0  0  0  0  0
   -2.6626   -1.5806    0.0000 C   0  0  0  0  0  0  0  0  0  0  0  0
   -1.3944    0.5307    0.0000 N   0  0  0  0  0  0  0  0  0  0  0  0
   -1.9136   -0.1105    0.0000 C   0  0  0  0  0  0  0  0  0  0  0  0
   -1.4642   -0.8024    0.0000 C   0  0  0  0  0  0  0  0  0  0  0  0
   -0.6673   -0.5889    0.0000 C   0  0  0  0  0  0  0  0  0  0  0  0
   -0.6242    0.2350    0.0000 C   0  0  0  0  0  0  0  0  0  0  0  0
   -3.1868    0.5382    0.0000 N   0  0  0  0  0  0  0  0  0  0  0  0
   -4.0106    0.5814    0.0000 N   0  0  0  0  0  0  0  0  0  0  0  0
   -4.2241    1.3783    0.0000 C   0  0  0  0  0  0  0  0  0  0  0  0
   -3.5322    1.8276    0.0000 N   0  0  0  0  0  0  0  0  0  0  0  0
   -2.8911    1.3085    0.0000 C   0  0  0  0  0  0  0  0  0  0  0  0
   -4.9944    1.6740    0.0000 C   0  0  0  0  0  0  0  0  0  0  0  0
   -1.3894   -2.2294    0.0000 O   0  0  0  0  0  0  0  0  0  0  0  0
   -1.7640   -2.9644    0.0000 C   0  0  0  0  0  0  0  0  0  0  0  0
    0.0471   -1.0014    0.0000 C   0  0  0  0  0  0  0  0  0  0  0  0
    0.7616   -0.5889    0.0000 C   0  0  0  0  0  0  0  0  0  0  0  0
    0.0471   -1.8264    0.0000 O   0  0  0  0  0  0  0  0  0  0  0  0
    0.7616    0.2361    0.0000 O   0  0  0  0  0  0  0  0  0  0  0  0
    1.4761   -1.8264    0.0000 C   0  0  0  0  0  0  0  0  0  0  0  0
    2.1905   -2.2389    0.0000 C   0  0  0  0  0  0  0  0  0  0  0  0
    2.9050   -1.8264    0.0000 N   0  0  0  0  0  0  0  0  0  0  0  0
    2.9050   -1.0014    0.0000 C   0  0  0  0  0  0  0  0  0  0  0  0
    2.1905   -0.5889    0.0000 C   0  0  0  0  0  0  0  0  0  0  0  0
    1.4761   -1.0014    0.0000 N   0  0  0  0  0  0  0  0  0  0  0  0
    3.6195   -2.2389    0.0000 C   0  0  0  0  0  0  0  0  0  0  0  0
    3.6195   -3.0639    0.0000 O   0  0  0  0  0  0  0  0  0  0  0  0
    4.3340   -1.8264    0.0000 C   0  0  0  0  0  0  0  0  0  0  0  0
    5.0484   -2.2389    0.0000 C   0  0  0  0  0  0  0  0  0  0  0  0
    5.7629   -1.8264    0.0000 C   0  0  0  0  0  0  0  0  0  0  0  0
    5.7629   -1.0014    0.0000 C   0  0  0  0  0  0  0  0  0  0  0  0
    5.0484   -0.5889    0.0000 C   0  0  0  0  0  0  0  0  0  0  0  0
    4.3340   -1.0014    0.0000 C   0  0  0  0  0  0  0  0  0  0  0  0
  1  2  1  0
  2  3  1  0
  3  4  1  0
  2  5  1  0
  5  6  1  0
  2  7  1  0
  7  8  1  0
  9 10  1  0
 10 11  1  0
 10 12  2  0
 10 13  1  0
 15 16  2  0
 16 20  1  0
 21 17  1  0
 17 18  2  0
 15 18  1  0
 19 20  1  0
 20 21  2  0
 21 22  1  0
 22 23  2  0
 19 23  1  0
 24 25  1  0
 25 26  2  0
 26 27  1  0
 27 28  2  0
 24 28  1  0
 26 29  1  0
 16 24  1  0
 30 31  1  0
 17 30  1  0
 32 33  1  0
 32 34  2  0
 33 35  2  0
 36 37  1  0
 37 38  1  0
 38 39  1  0
 39 40  1  0
 40 41  1  0
 36 41  1  0
 42 43  2  0
 42 44  1  0
 44 45  2  0
 45 46  1  0
 46 47  2  0
 47 48  1  0
 48 49  2  0
 44 49  1  0
 38 42  1  0
 33 41  1  0
 22 32  1  0
 14 19  1  0
 13 14  1  0
M  END
> <chembl_id>
CHEMBL3301598

> <chembl_pref_name>
FOSTEMSAVIR TROMETHAMINE
