
     RDKit          2D

 31 33  0  0  0  0  0  0  0  0999 V2000
    0.0069   -2.4666    0.0000 C   0  0  0  0  0  0  0  0  0  0  0  0
    0.0057   -3.2940    0.0000 C   0  0  0  0  0  0  0  0  0  0  0  0
    0.7206   -3.7069    0.0000 C   0  0  0  0  0  0  0  0  0  0  0  0
    1.4370   -3.2935    0.0000 C   0  0  0  0  0  0  0  0  0  0  0  0
    1.4341   -2.4630    0.0000 C   0  0  0  0  0  0  0  0  0  0  0  0
    0.7188   -2.0539    0.0000 C   0  0  0  0  0  0  0  0  0  0  0  0
    2.1471   -2.0478    0.0000 N   0  0  0  0  0  0  0  0  0  0  0  0
    2.8631   -2.4576    0.0000 C   0  0  0  0  0  0  0  0  0  0  0  0
    3.5760   -2.0424    0.0000 C   0  0  0  0  0  0  0  0  0  0  0  0
    2.8662   -3.2826    0.0000 O   0  0  0  0  0  0  0  0  0  0  0  0
    4.2920   -2.4522    0.0000 N   0  0  0  0  0  0  0  0  0  0  0  0
    4.2928   -3.2757    0.0000 C   0  0  0  0  0  0  0  0  0  0  0  0
    5.0047   -3.6855    0.0000 C   0  0  0  0  0  0  0  0  0  0  0  0
    5.7200   -3.2738    0.0000 N   0  0  0  0  0  0  0  0  0  0  0  0
    5.7189   -2.4478    0.0000 C   0  0  0  0  0  0  0  0  0  0  0  0
    5.0024   -2.0336    0.0000 C   0  0  0  0  0  0  0  0  0  0  0  0
    6.4345   -3.6863    0.0000 C   0  0  0  0  0  0  0  0  0  0  0  0
    7.1490   -3.2738    0.0000 C   0  0  0  0  0  0  0  0  0  0  0  0
    7.8634   -3.6863    0.0000 C   0  0  0  0  0  0  0  0  0  0  0  0
    7.1490   -2.4488    0.0000 O   0  0  0  0  0  0  0  0  0  0  0  0
    8.5779   -3.2738    0.0000 O   0  0  0  0  0  0  0  0  0  0  0  0
    9.2924   -3.6863    0.0000 C   0  0  0  0  0  0  0  0  0  0  0  0
    9.2889   -4.5094    0.0000 C   0  0  0  0  0  0  0  0  0  0  0  0
   10.0025   -4.9218    0.0000 C   0  0  0  0  0  0  0  0  0  0  0  0
   10.7180   -4.5093    0.0000 C   0  0  0  0  0  0  0  0  0  0  0  0
   10.7153   -3.6800    0.0000 C   0  0  0  0  0  0  0  0  0  0  0  0
   10.0011   -3.2713    0.0000 C   0  0  0  0  0  0  0  0  0  0  0  0
    9.9970   -2.4463    0.0000 O   0  0  0  0  0  0  0  0  0  0  0  0
   10.7094   -2.0303    0.0000 C   0  0  0  0  0  0  0  0  0  0  0  0
    0.7163   -1.2289    0.0000 C   0  0  0  0  0  0  0  0  0  0  0  0
    2.1521   -3.7049    0.0000 C   0  0  0  0  0  0  0  0  0  0  0  0
 13 14  1  0
 14 15  1  0
 15 16  1  0
  7  8  1  0
 14 17  1  0
 17 18  1  0
  8  9  1  0
 18 19  1  0
  4  5  1  0
 18 20  1  0
  8 10  2  0
 19 21  1  0
  2  3  1  0
 21 22  1  0
  9 11  1  0
 22 23  2  0
 11 12  1  0
 23 24  1  0
  5  6  2  0
 24 25  2  0
  6  1  1  0
 25 26  1  0
  1  2  2  0
 26 27  2  0
 27 22  1  0
  5  7  1  0
 27 28  1  0
  3  4  2  0
 28 29  1  0
 11 16  1  0
  6 30  1  0
 12 13  1  0
  4 31  1  0
M  END
> <chembl_id>
CHEMBL1404

> <chembl_pref_name>
RANOLAZINE
