
     RDKit          2D

 17 18  0  0  0  0  0  0  0  0999 V2000
    2.4458   -1.2375    0.0000 S   0  0  0  0  0  0  0  0  0  0  0  0
    3.0667   -0.8792    0.0000 N   0  0  0  0  0  0  0  0  0  0  0  0
    3.6792   -1.2375    0.0000 C   0  0  0  0  0  0  0  0  0  0  0  0
    4.2500   -0.8167    0.0000 N   0  0  0  0  0  0  0  0  0  0  0  0
    3.8917   -1.9042    0.0000 C   0  0  0  0  0  0  0  0  0  0  0  0
    4.8250   -1.2375    0.0000 O   0  0  0  0  0  0  0  0  0  0  0  0
    1.8375   -0.8792    0.0000 C   0  0  0  0  0  0  0  0  0  0  0  0
    4.6042   -1.9042    0.0000 C   0  0  0  0  0  0  0  0  0  0  0  0
    2.1042   -1.8500    0.0000 O   0  0  0  0  0  0  0  0  0  0  0  0
    2.8042   -1.8500    0.0000 O   0  0  0  0  0  0  0  0  0  0  0  0
    1.8375   -0.1667    0.0000 C   0  0  0  0  0  0  0  0  0  0  0  0
    1.2250   -1.2375    0.0000 C   0  0  0  0  0  0  0  0  0  0  0  0
    0.6125   -0.1667    0.0000 C   0  0  0  0  0  0  0  0  0  0  0  0
    0.0000    0.1875    0.0000 N   0  0  0  0  0  0  0  0  0  0  0  0
    1.2250    0.1833    0.0000 C   0  0  0  0  0  0  0  0  0  0  0  0
    0.6125   -0.8792    0.0000 C   0  0  0  0  0  0  0  0  0  0  0  0
    5.2167   -2.2542    0.0000 C   0  0  0  0  0  0  0  0  0  0  0  0
  2  1  1  0
  3  2  1  0
  4  3  2  0
  5  3  1  0
  6  4  1  0
  7  1  1  0
  8  5  2  0
  9  1  2  0
 10  1  2  0
 11  7  2  0
 12  7  1  0
 13 16  1  0
 14 13  1  0
 15 11  1  0
 16 12  2  0
 17  8  1  0
 15 13  2  0
  8  6  1  0
M  END
> <chembl_id>
CHEMBL443

> <chembl_pref_name>
SULFAMETHOXAZOLE
