
     RDKit          2D

  9  8  0  0  0  0  0  0  0  0999 V2000
    3.5375   -4.6500    0.0000 C   0  0  0  0  0  0  0  0  0  0  0  0
    3.5375   -5.3667    0.0000 O   0  0  0  0  0  0  0  0  0  0  0  0
    2.9167   -4.2917    0.0000 O   0  0  0  0  0  0  0  0  0  0  0  0
    7.2292   -4.6417    0.0000 N   0  0  0  0  0  0  0  0  0  0  0  0
    4.1542   -4.2917    0.0000 C   0  0  0  0  0  0  0  0  0  0  0  0
    6.6042   -4.2875    0.0000 C   0  0  0  0  0  0  0  0  0  0  0  0
    4.7667   -4.6417    0.0000 C   0  0  0  0  0  0  0  0  0  0  0  0
    5.9917   -4.6417    0.0000 C   0  0  0  0  0  0  0  0  0  0  0  0
    5.3792   -4.2875    0.0000 C   0  0  0  0  0  0  0  0  0  0  0  0
  2  1  2  0
  3  1  1  0
  4  6  1  0
  5  1  1  0
  6  8  1  0
  7  5  1  0
  8  9  1  0
  9  7  1  0
M  END
> <chembl_id>
CHEMBL1046

> <chembl_pref_name>
AMINOCAPROIC ACID
