
     RDKit          2D

 20 20  0  0  0  0  0  0  0  0999 V2000
   -0.2208   -1.9667    0.0000 Cl  0  0  0  0  0  0  0  0  0  0  0  0
    1.0958   -0.4250    0.0000 N   0  0  0  0  0  0  0  0  0  0  0  0
    2.3208   -1.1375    0.0000 N   0  0  0  0  0  0  0  0  0  0  0  0
   -1.9750    0.6458    0.0000 N   0  0  0  0  0  0  0  0  0  0  0  0
   -0.7500   -0.0667    0.0000 N   0  0  0  0  0  0  0  0  0  0  0  0
    1.7042   -1.4875    0.0000 C   0  0  0  0  0  0  0  0  0  0  0  0
    2.3208   -0.4292    0.0000 C   0  0  0  0  0  0  0  0  0  0  0  0
   -1.9750   -0.0667    0.0000 C   0  0  0  0  0  0  0  0  0  0  0  0
   -1.3625    1.0000    0.0000 C   0  0  0  0  0  0  0  0  0  0  0  0
    1.0917   -1.1333    0.0000 C   0  0  0  0  0  0  0  0  0  0  0  0
    1.7042   -0.0667    0.0000 C   0  0  0  0  0  0  0  0  0  0  0  0
    0.4792   -0.0667    0.0000 C   0  0  0  0  0  0  0  0  0  0  0  0
   -0.1333   -0.4250    0.0000 C   0  0  0  0  0  0  0  0  0  0  0  0
   -0.7500    0.6458    0.0000 C   0  0  0  0  0  0  0  0  0  0  0  0
   -1.3625   -0.4250    0.0000 C   0  0  0  0  0  0  0  0  0  0  0  0
    2.9375   -0.0667    0.0000 O   0  0  0  0  0  0  0  0  0  0  0  0
    1.7000   -2.2000    0.0000 O   0  0  0  0  0  0  0  0  0  0  0  0
   -1.3708    1.7125    0.0000 O   0  0  0  0  0  0  0  0  0  0  0  0
   -2.5958   -0.4250    0.0000 O   0  0  0  0  0  0  0  0  0  0  0  0
    0.4750    0.6458    0.0000 C   0  0  0  0  0  0  0  0  0  0  0  0
  3  7  1  0
  4  9  1  0
  5 13  1  0
  6 10  1  0
  7 11  1  0
  8 15  1  0
  9 14  1  0
 10  2  1  0
 11  2  1  0
 12  2  1  0
 13 12  1  0
 14  5  1  0
 15  5  1  0
 16  7  2  0
 17  6  2  0
 18  9  2  0
 19  8  2  0
 12 20  1  6
  3  6  1  0
  8  4  1  0
M  END
> <chembl_id>
CHEMBL1200778

> <chembl_pref_name>
DEXRAZOXANE HYDROCHLORIDE
