
     RDKit          2D

 16 17  0  0  0  0  0  0  0  0999 V2000
   -0.3708   -0.8792    0.0000 C   0  0  0  0  0  0  0  0  0  0  0  0
   -0.7958   -0.3042    0.0000 S   0  0  0  0  0  0  0  0  0  0  0  0
    0.6917   -1.4875    0.0000 N   0  0  0  0  0  0  0  0  0  0  0  0
    0.3375   -0.8750    0.0000 C   0  0  0  0  0  0  0  0  0  0  0  0
   -0.7875   -1.4542    0.0000 C   0  0  0  0  0  0  0  0  0  0  0  0
    1.4042   -1.4792    0.0000 C   0  0  0  0  0  0  0  0  0  0  0  0
   -1.4708   -0.5292    0.0000 C   0  0  0  0  0  0  0  0  0  0  0  0
   -1.4625   -1.2417    0.0000 C   0  0  0  0  0  0  0  0  0  0  0  0
    1.7542   -0.8667    0.0000 O   0  0  0  0  0  0  0  0  0  0  0  0
    1.7625   -2.0917    0.0000 N   0  0  0  0  0  0  0  0  0  0  0  0
    0.3417   -2.1042    0.0000 O   0  0  0  0  0  0  0  0  0  0  0  0
    0.6875   -0.2542    0.0000 C   0  0  0  0  0  0  0  0  0  0  0  0
   -2.0833   -0.1792    0.0000 C   0  0  0  0  0  0  0  0  0  0  0  0
   -2.0833   -1.6000    0.0000 C   0  0  0  0  0  0  0  0  0  0  0  0
   -2.6958   -0.5375    0.0000 C   0  0  0  0  0  0  0  0  0  0  0  0
   -2.6958   -1.2417    0.0000 C   0  0  0  0  0  0  0  0  0  0  0  0
  2  1  1  0
  3  4  1  0
  4  1  1  0
  5  1  2  0
  6  3  1  0
  7  2  1  0
  8  5  1  0
  9  6  2  0
 10  6  1  0
 11  3  1  0
 12  4  1  0
 13  7  2  0
 14  8  2  0
 15 13  1  0
 16 14  1  0
  8  7  1  0
 16 15  2  0
M  END
> <chembl_id>
CHEMBL93

> <chembl_pref_name>
ZILEUTON
