
     RDKit          2D

 31 32  0  0  0  0  0  0  0  0999 V2000
    5.2125   -5.4917    0.0000 P   0  0  0  0  0  0  0  0  0  0  0  0
    5.5625   -4.8750    0.0000 O   0  0  0  0  0  0  0  0  0  0  0  0
    5.8250   -5.8500    0.0000 O   0  0  0  0  0  0  0  0  0  0  0  0
    4.6000   -5.8500    0.0000 O   0  0  0  0  0  0  0  0  0  0  0  0
    4.8542   -4.8750    0.0000 O   0  0  0  0  0  0  0  0  0  0  0  0
    6.5000   -3.2417    0.0000 C   0  0  0  0  0  0  0  0  0  0  0  0
    6.4917   -2.5292    0.0000 C   0  0  0  0  0  0  0  0  0  0  0  0
    5.2750   -3.9500    0.0000 N   0  0  0  0  0  0  0  0  0  0  0  0
    6.4958   -3.9542    0.0000 C   0  0  0  0  0  0  0  0  0  0  0  0
    5.8833   -2.8917    0.0000 C   0  0  0  0  0  0  0  0  0  0  0  0
    7.1125   -3.5917    0.0000 C   0  0  0  0  0  0  0  0  0  0  0  0
    5.8792   -2.1792    0.0000 O   0  0  0  0  0  0  0  0  0  0  0  0
    5.2667   -3.2458    0.0000 C   0  0  0  0  0  0  0  0  0  0  0  0
    5.8875   -4.3042    0.0000 C   0  0  0  0  0  0  0  0  0  0  0  0
    4.6625   -4.3083    0.0000 C   0  0  0  0  0  0  0  0  0  0  0  0
    2.2125   -5.0250    0.0000 C   0  0  0  0  0  0  0  0  0  0  0  0
    7.1042   -2.1750    0.0000 O   0  0  0  0  0  0  0  0  0  0  0  0
    3.4375   -4.3125    0.0000 C   0  0  0  0  0  0  0  0  0  0  0  0
    1.6000   -5.3792    0.0000 N   0  0  0  0  0  0  0  0  0  0  0  0
    4.0500   -3.9542    0.0000 C   0  0  0  0  0  0  0  0  0  0  0  0
    2.8250   -5.3792    0.0000 C   0  0  0  0  0  0  0  0  0  0  0  0
    2.2125   -4.3125    0.0000 C   0  0  0  0  0  0  0  0  0  0  0  0
    3.4375   -5.0250    0.0000 C   0  0  0  0  0  0  0  0  0  0  0  0
    2.8250   -3.9583    0.0000 C   0  0  0  0  0  0  0  0  0  0  0  0
    7.1125   -4.3000    0.0000 C   0  0  0  0  0  0  0  0  0  0  0  0
    7.7167   -3.2375    0.0000 C   0  0  0  0  0  0  0  0  0  0  0  0
    7.7208   -2.5250    0.0000 C   0  0  0  0  0  0  0  0  0  0  0  0
    8.3333   -2.1667    0.0000 C   0  0  0  0  0  0  0  0  0  0  0  0
    8.3292   -3.5875    0.0000 C   0  0  0  0  0  0  0  0  0  0  0  0
    7.7208   -4.6500    0.0000 C   0  0  0  0  0  0  0  0  0  0  0  0
    8.3333   -4.2958    0.0000 C   0  0  0  0  0  0  0  0  0  0  0  0
  2  1  2  0
  3  1  1  0
  4  1  1  0
  5  1  1  0
  7  6  1  0
  8 13  1  0
  9  6  1  0
 10  6  1  0
 11  6  1  0
 12  7  2  0
 13 10  1  0
 14  9  1  0
 15  8  1  0
 16 22  2  0
 17  7  1  0
 18 20  1  0
 19 16  1  0
 20 15  1  0
 21 23  2  0
 22 24  1  0
 23 18  1  0
 24 18  2  0
 25 11  2  0
 26 11  1  0
 27 17  1  0
 28 27  1  0
 29 26  2  0
 30 25  1  0
 31 30  2  0
 14  8  1  0
 29 31  1  0
 21 16  1  0
M  END
> <chembl_id>
CHEMBL1200543

> <chembl_pref_name>
ANILERIDINE PHOSPHATE
