
     RDKit          2D

 32 35  0  0  0  0  0  0  0  0999 V2000
   -0.0347    0.1958    0.0000 C   0  0  0  0  0  0  0  0  0  0  0  0
   -0.0347   -0.6292    0.0000 C   0  0  0  0  0  0  0  0  0  0  0  0
    0.6798   -1.0417    0.0000 C   0  0  0  0  0  0  0  0  0  0  0  0
    1.3943   -0.6292    0.0000 C   0  0  0  0  0  0  0  0  0  0  0  0
    1.3943    0.1958    0.0000 C   0  0  0  0  0  0  0  0  0  0  0  0
    0.6798    0.6083    0.0000 C   0  0  0  0  0  0  0  0  0  0  0  0
    2.1087   -1.0417    0.0000 C   0  0  0  0  0  0  0  0  0  0  0  0
    2.8232   -0.6292    0.0000 C   0  0  0  0  0  0  0  0  0  0  0  0
    2.8232    0.1958    0.0000 C   0  0  0  0  0  0  0  0  0  0  0  0
    2.1087    0.6083    0.0000 N   0  0  0  0  0  0  0  0  0  0  0  0
    2.1087   -1.8667    0.0000 O   0  0  0  0  0  0  0  0  0  0  0  0
    2.8232   -2.2792    0.0000 C   0  0  0  0  0  0  0  0  0  0  0  0
    2.8232   -3.1042    0.0000 C   0  0  0  0  0  0  0  0  0  0  0  0
    3.5377   -3.5167    0.0000 C   0  0  0  0  0  0  0  0  0  0  0  0
    4.2522   -3.1042    0.0000 C   0  0  0  0  0  0  0  0  0  0  0  0
    4.2522   -2.2792    0.0000 C   0  0  0  0  0  0  0  0  0  0  0  0
    3.5377   -1.8667    0.0000 C   0  0  0  0  0  0  0  0  0  0  0  0
    3.5377   -4.3417    0.0000 Cl  0  0  0  0  0  0  0  0  0  0  0  0
    4.9666   -3.5167    0.0000 N   0  0  0  0  0  0  0  0  0  0  0  0
    5.6811   -3.1042    0.0000 C   0  0  0  0  0  0  0  0  0  0  0  0
    6.3956   -3.5167    0.0000 N   0  0  0  0  0  0  0  0  0  0  0  0
    5.6811   -2.2792    0.0000 O   0  0  0  0  0  0  0  0  0  0  0  0
    7.1100   -3.1042    0.0000 C   0  0  0  0  0  0  0  0  0  0  0  0
    7.8637   -3.4398    0.0000 N   0  0  0  0  0  0  0  0  0  0  0  0
    8.4157   -2.8267    0.0000 O   0  0  0  0  0  0  0  0  0  0  0  0
    8.0032   -2.1122    0.0000 C   0  0  0  0  0  0  0  0  0  0  0  0
    7.1963   -2.2837    0.0000 C   0  0  0  0  0  0  0  0  0  0  0  0
    8.3388   -1.3585    0.0000 C   0  0  0  0  0  0  0  0  0  0  0  0
   -0.7491   -1.0417    0.0000 O   0  0  0  0  0  0  0  0  0  0  0  0
   -0.7491    0.6083    0.0000 O   0  0  0  0  0  0  0  0  0  0  0  0
   -1.5750    0.6125    0.0000 C   0  0  0  0  0  0  0  0  0  0  0  0
   -1.5750   -1.0417    0.0000 C   0  0  0  0  0  0  0  0  0  0  0  0
  4  5  2  0
  5  6  1  0
  6  1  2  0
  4  7  1  0
  7  8  2  0
  8  9  1  0
  9 10  2  0
 10  5  1  0
  7 11  1  0
 11 12  1  0
 12 13  2  0
 13 14  1  0
 14 15  2  0
 15 16  1  0
 16 17  2  0
 17 12  1  0
 14 18  1  0
 15 19  1  0
 19 20  1  0
 20 21  1  0
 20 22  2  0
 21 23  1  0
 23 24  2  0
 24 25  1  0
 25 26  1  0
 26 27  2  0
 27 23  1  0
 26 28  1  0
  2 29  1  0
  1 30  1  0
  1  2  1  0
  2  3  2  0
 30 31  1  0
  3  4  1  0
 29 32  1  0
M  END
> <chembl_id>
CHEMBL1289494

> <chembl_pref_name>
TIVOZANIB
