
     RDKit          2D

 56 62  0  0  0  0  0  0  0  0999 V2000
    7.9625   -6.5087    0.0000 C   0  0  0  0  0  0  0  0  0  0  0  0
    6.0131   -5.5330    0.0000 C   0  0  0  0  0  0  0  0  0  0  0  0
    6.7805   -5.1237    0.0000 C   0  0  0  0  0  0  0  0  0  0  0  0
    6.8029   -5.9590    0.0000 C   0  0  0  0  0  0  0  0  0  0  0  0
    7.5582   -5.9218    0.0000 C   0  0  0  0  0  0  0  0  0  0  0  0
    5.0221   -3.9715    0.0000 C   0  0  0  0  0  0  0  0  0  0  0  0
    4.5421   -3.2534    0.0000 C   0  0  0  0  0  0  0  0  0  0  0  0
    3.6788   -3.5948    0.0000 C   0  0  0  0  0  0  0  0  0  0  0  0
    4.5863   -4.6554    0.0000 C   0  0  0  0  0  0  0  0  0  0  0  0
    5.3230   -5.1305    0.0000 C   0  0  0  0  0  0  0  0  0  0  0  0
    5.2862   -5.8479    0.0000 O   0  0  0  0  0  0  0  0  0  0  0  0
    8.8876   -4.6585    0.0000 S   0  0  0  0  0  0  0  0  0  0  0  0
    9.5742   -5.1281    0.0000 C   0  0  0  0  0  0  0  0  0  0  0  0
   10.4280   -5.1241    0.0000 C   0  0  0  0  0  0  0  0  0  0  0  0
   10.0039   -5.8479    0.0000 C   0  0  0  0  0  0  0  0  0  0  0  0
    2.2902   -4.4063    0.0000 C   0  0  0  0  0  0  0  0  0  0  0  0
    2.4779   -3.4691    0.0000 N   0  0  0  0  0  0  0  0  0  0  0  0
    3.1253   -4.7866    0.0000 C   0  0  0  0  0  0  0  0  0  0  0  0
    1.0837   -5.4311    0.0000 C   0  0  0  0  0  0  0  0  0  0  0  0
    1.6523   -4.7872    0.0000 C   0  0  0  0  0  0  0  0  0  0  0  0
    0.6861   -4.4995    0.0000 C   0  0  0  0  0  0  0  0  0  0  0  0
    7.4165   -4.7692    0.0000 C   0  0  0  0  0  0  0  0  0  0  0  0
    8.1607   -5.0219    0.0000 N   0  0  0  0  0  0  0  0  0  0  0  0
    3.7115   -4.4781    0.0000 N   0  0  0  0  0  0  0  0  0  0  0  0
    0.8590   -3.4691    0.0000 O   0  0  0  0  0  0  0  0  0  0  0  0
    1.6426   -3.1912    0.0000 C   0  0  0  0  0  0  0  0  0  0  0  0
    1.5858   -2.3788    0.0000 O   0  0  0  0  0  0  0  0  0  0  0  0
    0.1723   -1.6540    0.0000 C   0  0  0  0  0  0  0  0  0  0  0  0
    1.6109   -0.8760    0.0000 C   0  0  0  0  0  0  0  0  0  0  0  0
    2.3235   -1.2418    0.0000 C   0  0  0  0  0  0  0  0  0  0  0  0
    3.0668   -0.8300    0.0000 C   0  0  0  0  0  0  0  0  0  0  0  0
    3.8154   -1.2414    0.0000 C   0  0  0  0  0  0  0  0  0  0  0  0
    4.5580   -0.8384    0.0000 C   0  0  0  0  0  0  0  0  0  0  0  0
    5.2548   -1.2412    0.0000 C   0  0  0  0  0  0  0  0  0  0  0  0
    5.9801   -0.7269    0.0000 N   0  0  0  0  0  0  0  0  0  0  0  0
    5.2586   -2.0773    0.0000 C   0  0  0  0  0  0  0  0  0  0  0  0
    5.9801   -2.3788    0.0000 N   0  0  0  0  0  0  0  0  0  0  0  0
    4.5264   -2.3788    0.0000 O   0  0  0  0  0  0  0  0  0  0  0  0
    6.6977   -2.0695    0.0000 C   0  0  0  0  0  0  0  0  0  0  0  0
    6.6959   -1.2587    0.0000 C   0  0  0  0  0  0  0  0  0  0  0  0
    7.4024   -0.8327    0.0000 C   0  0  0  0  0  0  0  0  0  0  0  0
    8.1075   -1.2465    0.0000 C   0  0  0  0  0  0  0  0  0  0  0  0
    8.0993   -2.0619    0.0000 C   0  0  0  0  0  0  0  0  0  0  0  0
    9.5590   -1.8359    0.0000 C   0  0  0  0  0  0  0  0  0  0  0  0
    8.7927   -2.3642    0.0000 O   0  0  0  0  0  0  0  0  0  0  0  0
    7.4130   -2.4705    0.0000 C   0  0  0  0  0  0  0  0  0  0  0  0
    8.4580   -3.8987    0.0000 O   0  0  0  0  0  0  0  0  0  0  0  0
    7.4339   -3.7996    0.0000 O   0  0  0  0  0  0  0  0  0  0  0  0
    0.8803   -1.2453    0.0000 C   0  0  0  0  0  0  0  0  0  0  0  0
    0.8803   -2.0628    0.0000 C   0  0  0  0  0  0  0  0  0  0  0  0
    0.4410   -0.6327    0.0000 H   0  0  0  0  0  0  0  0  0  0  0  0
    0.4117   -2.8804    0.0000 H   0  0  0  0  0  0  0  0  0  0  0  0
    2.0392   -5.4880    0.0000 C   0  0  0  0  0  0  0  0  0  0  0  0
    3.1253   -5.6042    0.0000 O   0  0  0  0  0  0  0  0  0  0  0  0
    5.9095   -4.6334    0.0000 N   0  0  0  0  0  0  0  0  0  0  0  0
    9.2964   -3.9505    0.0000 O   0  0  0  0  0  0  0  0  0  0  0  0
  2  3  1  0
  3  4  1  0
  3 22  1  0
  4  5  1  6
  4  2  1  0
  5  1  2  0
  6  7  1  0
  6  9  1  0
  7 38  1  6
  8  7  1  0
  9 10  1  1
 11 10  2  0
 12 13  1  0
 12 23  1  0
 13 14  1  0
 14 15  1  0
 15 13  1  0
 17 16  1  0
 18 16  1  0
 18 24  1  0
 19 20  1  0
 16 20  1  6
 21 20  1  0
 22 23  1  0
 25 26  2  0
 26 27  1  0
 26 17  1  0
 29 30  1  0
 30 31  1  0
 31 32  1  0
 32 33  1  0
 33 34  1  0
 34 35  2  0
 34 36  1  0
 35 40  1  0
 36 37  2  0
 38 36  1  0
 39 37  1  0
 39 46  1  0
 40 39  2  0
 41 40  1  0
 41 42  2  0
 43 45  1  0
 43 42  1  0
 45 44  1  0
 46 43  2  0
 47 12  2  0
 48 22  2  0
 28 49  1  0
 49 50  1  0
 28 50  1  0
 49 51  1  6
 49 29  1  0
 50 27  1  0
 50 52  1  1
 20 53  1  0
 18 54  2  0
 24  8  1  0
 24  9  1  0
  3 55  1  1
 10 55  1  0
 12 56  2  0
M  END
> <chembl_id>
CHEMBL2063090

> <chembl_pref_name>
GRAZOPREVIR ANHYDROUS
