
     RDKit          2D

 27 30  0  0  0  0  0  0  0  0999 V2000
    1.4000   -0.1958    0.0000 N   0  0  0  0  0  0  0  0  0  0  0  0
    2.1167    1.0417    0.0000 C   0  0  0  0  0  0  0  0  0  0  0  0
    0.6875    0.2167    0.0000 C   0  0  0  0  0  0  0  0  0  0  0  0
    0.6875    1.0417    0.0000 C   0  0  0  0  0  0  0  0  0  0  0  0
   -0.0292   -0.1958    0.0000 C   0  0  0  0  0  0  0  0  0  0  0  0
    2.1167    0.2167    0.0000 C   0  0  0  0  0  0  0  0  0  0  0  0
    1.4000    1.4542    0.0000 C   0  0  0  0  0  0  0  0  0  0  0  0
   -0.7417    0.2167    0.0000 C   0  0  0  0  0  0  0  0  0  0  0  0
   -1.4583   -0.1958    0.0000 N   0  0  0  0  0  0  0  0  0  0  0  0
   -0.7417    1.0417    0.0000 C   0  0  0  0  0  0  0  0  0  0  0  0
    1.4000   -1.0208    0.0000 C   0  0  0  0  0  0  0  0  0  0  0  0
   -0.0292    1.4542    0.0000 C   0  0  0  0  0  0  0  0  0  0  0  0
    2.8292    1.4542    0.0000 C   0  0  0  0  0  0  0  0  0  0  0  0
    0.9875   -1.7333    0.0000 C   0  0  0  0  0  0  0  0  0  0  0  0
    1.8125   -1.7333    0.0000 C   0  0  0  0  0  0  0  0  0  0  0  0
   -1.3958   -1.0167    0.0000 C   0  0  0  0  0  0  0  0  0  0  0  0
    1.4000    2.2792    0.0000 O   0  0  0  0  0  0  0  0  0  0  0  0
   -0.0292   -1.0208    0.0000 Cl  0  0  0  0  0  0  0  0  0  0  0  0
    3.5458    1.0417    0.0000 O   0  0  0  0  0  0  0  0  0  0  0  0
   -1.4583    1.4542    0.0000 F   0  0  0  0  0  0  0  0  0  0  0  0
   -2.1375    0.2708    0.0000 C   0  0  0  0  0  0  0  0  0  0  0  0
    2.8292    2.2792    0.0000 O   0  0  0  0  0  0  0  0  0  0  0  0
   -2.0000   -1.5792    0.0000 C   0  0  0  0  0  0  0  0  0  0  0  0
   -1.7583   -2.3667    0.0000 N   0  0  0  0  0  0  0  0  0  0  0  0
   -2.8167   -1.4542    0.0000 C   0  0  0  0  0  0  0  0  0  0  0  0
   -2.9250    0.0292    0.0000 C   0  0  0  0  0  0  0  0  0  0  0  0
   -3.2292   -0.7417    0.0000 C   0  0  0  0  0  0  0  0  0  0  0  0
  2  6  2  0
  3  1  1  0
  4  3  1  0
  5  3  2  0
  6  1  1  0
  7  2  1  0
  8  5  1  0
  9  8  1  0
 10 12  1  0
 11  1  1  0
 12  4  2  0
 13  2  1  0
 14 11  1  0
 15 11  1  0
 16  9  1  0
 17  7  2  0
 18  5  1  0
 19 13  2  0
 20 10  1  0
 21  9  1  0
 22 13  1  0
 23 16  1  0
 23 24  1  6
 25 23  1  0
 26 21  1  0
 27 26  1  0
 14 15  1  0
  7  4  1  0
 10  8  2  0
 27 25  1  0
M  END
> <chembl_id>
CHEMBL1201760

> <chembl_pref_name>
BESIFLOXACIN
