
     RDKit          2D

 18 19  0  0  0  0  0  0  0  0999 V2000
   -0.0083    1.8583    0.0000 C   0  0  0  0  0  0  0  0  0  0  0  0
   -3.0125   -2.2125    0.0000 C   0  0  0  0  0  0  0  0  0  0  0  0
    0.9917    1.2750    0.0000 C   0  0  0  0  0  0  0  0  0  0  0  0
   -1.0083    1.2750    0.0000 C   0  0  0  0  0  0  0  0  0  0  0  0
   -0.0083    3.0208    0.0000 C   0  0  0  0  0  0  0  0  0  0  0  0
   -3.0125   -3.3792    0.0000 O   0  0  0  0  0  0  0  0  0  0  0  0
   -2.0125   -1.6292    0.0000 N   0  0  0  0  0  0  0  0  0  0  0  0
    0.9917    3.5958    0.0000 C   0  0  0  0  0  0  0  0  0  0  0  0
    2.0000    1.8583    0.0000 C   0  0  0  0  0  0  0  0  0  0  0  0
    2.0000    3.0208    0.0000 C   0  0  0  0  0  0  0  0  0  0  0  0
   -2.0125   -0.4667    0.0000 C   0  0  0  0  0  0  0  0  0  0  0  0
    3.0167    1.2750    0.0000 O   0  0  0  0  0  0  0  0  0  0  0  0
   -2.0208    3.0208    0.0000 C   0  0  0  0  0  0  0  0  0  0  0  0
   -1.0083    0.1208    0.0000 C   0  0  0  0  0  0  0  0  0  0  0  0
   -4.0208   -1.6292    0.0000 C   0  0  0  0  0  0  0  0  0  0  0  0
   -2.0208    1.8583    0.0000 C   0  0  0  0  0  0  0  0  0  0  0  0
   -1.0083    3.5958    0.0000 C   0  0  0  0  0  0  0  0  0  0  0  0
    4.0167    1.8625    0.0000 C   0  0  0  0  0  0  0  0  0  0  0  0
  2  7  1  0
  3  1  2  0
  4  1  1  0
  5  1  1  0
  6  2  2  0
  7 11  1  0
  8  5  2  0
  9  3  1  0
 10  8  1  0
 11 14  1  0
 12  9  1  0
 13 17  2  0
 14  4  1  0
 15  2  1  0
 16  4  2  0
 17  5  1  0
 18 12  1  0
 16 13  1  0
  9 10  2  0
M  END
> <chembl_id>
CHEMBL10878

> <chembl_pref_name>
AGOMELATINE
