
     RDKit          2D

 22 23  0  0  0  0  0  0  0  0999 V2000
   -3.5875    0.2000    0.0000 C   0  0  0  0  0  0  0  0  0  0  0  0
   -3.5875    0.9583    0.0000 C   0  0  0  0  0  0  0  0  0  0  0  0
   -2.9375   -0.1750    0.0000 C   0  0  0  0  0  0  0  0  0  0  0  0
   -2.9375    1.3375    0.0000 C   0  0  0  0  0  0  0  0  0  0  0  0
   -2.2833    0.2000    0.0000 C   0  0  0  0  0  0  0  0  0  0  0  0
   -0.3083   -0.1667    0.0000 N   0  0  0  0  0  0  0  0  0  0  0  0
    3.6250   -0.9167    0.0000 C   0  0  0  0  0  0  0  0  0  0  0  0
    2.3167   -0.1542    0.0000 C   0  0  0  0  0  0  0  0  0  0  0  0
   -4.2500   -0.1792    0.0000 O   0  0  0  0  0  0  0  0  0  0  0  0
   -2.2833    0.9583    0.0000 C   0  0  0  0  0  0  0  0  0  0  0  0
   -4.2500    1.3458    0.0000 O   0  0  0  0  0  0  0  0  0  0  0  0
    1.6625    0.2208    0.0000 C   0  0  0  0  0  0  0  0  0  0  0  0
    2.9750   -1.2917    0.0000 C   0  0  0  0  0  0  0  0  0  0  0  0
    3.6250   -0.1542    0.0000 C   0  0  0  0  0  0  0  0  0  0  0  0
    2.3167   -0.9167    0.0000 C   0  0  0  0  0  0  0  0  0  0  0  0
    2.9750    0.2208    0.0000 C   0  0  0  0  0  0  0  0  0  0  0  0
   -0.9708    0.2083    0.0000 C   0  0  0  0  0  0  0  0  0  0  0  0
    1.0042   -0.1542    0.0000 C   0  0  0  0  0  0  0  0  0  0  0  0
    4.2875   -1.2917    0.0000 O   0  0  0  0  0  0  0  0  0  0  0  0
    0.3500    0.2208    0.0000 C   0  0  0  0  0  0  0  0  0  0  0  0
   -1.6208   -0.1750    0.0000 C   0  0  0  0  0  0  0  0  0  0  0  0
    0.3417    0.9833    0.0000 C   0  0  0  0  0  0  0  0  0  0  0  0
  2  1  2  0
  3  1  1  0
  4  2  1  0
  5  3  2  0
  6 17  1  0
  7 14  1  0
  8 12  1  0
  9  1  1  0
 10  5  1  0
 11  2  1  0
 12 18  1  0
 13 15  1  0
 14 16  2  0
 15  8  2  0
 16  8  1  0
 17 21  1  0
 18 20  1  0
 19  7  1  0
 20  6  1  0
 21  5  1  0
 22 20  1  0
  4 10  2  0
 13  7  2  0
M  END
> <chembl_id>
CHEMBL926

> <chembl_pref_name>
DOBUTAMINE
