
     RDKit          2D

 25 27  0  0  0  0  0  0  0  0999 V2000
   -4.2731    1.6374    0.0000 C   0  0  0  0  0  0  0  0  0  0  0  0
   -4.9876    1.2249    0.0000 C   0  0  0  0  0  0  0  0  0  0  0  0
   -5.6007    1.7769    0.0000 C   0  0  0  0  0  0  0  0  0  0  0  0
   -5.2651    2.5306    0.0000 C   0  0  0  0  0  0  0  0  0  0  0  0
   -4.4447    2.4443    0.0000 O   0  0  0  0  0  0  0  0  0  0  0  0
   -4.9876    0.3999    0.0000 C   0  0  0  0  0  0  0  0  0  0  0  0
   -4.2731   -0.0126    0.0000 C   0  0  0  0  0  0  0  0  0  0  0  0
   -3.5587    0.3999    0.0000 C   0  0  0  0  0  0  0  0  0  0  0  0
   -3.5587    1.2249    0.0000 C   0  0  0  0  0  0  0  0  0  0  0  0
   -4.2731   -0.8376    0.0000 Cl  0  0  0  0  0  0  0  0  0  0  0  0
   -5.7021   -0.0126    0.0000 N   0  0  0  0  0  0  0  0  0  0  0  0
   -2.8442    1.6374    0.0000 C   0  0  0  0  0  0  0  0  0  0  0  0
   -2.8442    2.4624    0.0000 O   0  0  0  0  0  0  0  0  0  0  0  0
   -2.1297    1.2249    0.0000 N   0  0  0  0  0  0  0  0  0  0  0  0
   -1.4153    1.6374    0.0000 C   0  0  0  0  0  0  0  0  0  0  0  0
    0.0137    1.6374    0.0000 C   0  0  0  0  0  0  0  0  0  0  0  0
   -0.7008    1.2249    0.0000 C   0  0  0  0  0  0  0  0  0  0  0  0
   -1.4153    2.4624    0.0000 C   0  0  0  0  0  0  0  0  0  0  0  0
   -0.7008    2.8749    0.0000 C   0  0  0  0  0  0  0  0  0  0  0  0
    0.0137    2.4624    0.0000 N   0  0  0  0  0  0  0  0  0  0  0  0
    0.7282    2.8749    0.0000 C   0  0  0  0  0  0  0  0  0  0  0  0
    1.4426    2.4624    0.0000 C   0  0  0  0  0  0  0  0  0  0  0  0
    2.1571    2.8749    0.0000 C   0  0  0  0  0  0  0  0  0  0  0  0
    2.8716    2.4624    0.0000 O   0  0  0  0  0  0  0  0  0  0  0  0
    3.5860    2.8749    0.0000 C   0  0  0  0  0  0  0  0  0  0  0  0
  1  5  1  0
  2  3  1  0
  3  4  1  0
  4  5  1  0
  1  9  2  0
  1  2  1  0
  2  6  2  0
  6  7  1  0
  7  8  2  0
  8  9  1  0
  7 10  1  0
  6 11  1  0
  9 12  1  0
 12 13  2  0
 12 14  1  0
 14 15  1  0
 17 15  1  0
 15 18  1  0
 16 17  1  0
 16 20  1  0
 18 19  1  0
 19 20  1  0
 20 21  1  0
 21 22  1  0
 22 23  1  0
 23 24  1  0
 24 25  1  0
M  END
> <chembl_id>
CHEMBL117287

> <chembl_pref_name>
PRUCALOPRIDE
