
     RDKit          2D

 29 29  0  0  0  0  0  0  0  0999 V2000
    0.8042   -5.1917    0.0000 Na  0  0  0  0  0 15  0  0  0  0  0  0
    3.8917   -5.5417    0.0000 N   0  0  0  0  0  0  0  0  0  0  0  0
    4.5125   -5.1875    0.0000 C   0  0  0  0  0  0  0  0  0  0  0  0
    3.2542   -5.1875    0.0000 C   0  0  0  0  0  0  0  0  0  0  0  0
    5.7417   -5.1875    0.0000 C   0  0  0  0  0  0  0  0  0  0  0  0
    4.5125   -4.4750    0.0000 C   0  0  0  0  0  0  0  0  0  0  0  0
    5.1417   -5.5417    0.0000 C   0  0  0  0  0  0  0  0  0  0  0  0
    5.7417   -4.4750    0.0000 C   0  0  0  0  0  0  0  0  0  0  0  0
    3.2542   -4.4750    0.0000 C   0  0  0  0  0  0  0  0  0  0  0  0
    6.3750   -5.5417    0.0000 O   0  0  0  0  0  0  0  0  0  0  0  0
    6.9917   -5.1875    0.0000 C   0  0  0  0  0  0  0  0  0  0  0  0
    3.8917   -4.1167    0.0000 C   0  0  0  0  0  0  0  0  0  0  0  0
    6.9917   -4.4750    0.0000 C   0  0  0  0  0  0  0  0  0  0  0  0
    6.3750   -4.1167    0.0000 C   0  0  0  0  0  0  0  0  0  0  0  0
    5.1417   -4.1167    0.0000 C   0  0  0  0  0  0  0  0  0  0  0  0
    2.6292   -5.5417    0.0000 C   0  0  0  0  0  0  0  0  0  0  0  0
    7.6125   -5.5375    0.0000 C   0  0  0  0  0  0  0  0  0  0  0  0
    3.8917   -3.4292    0.0000 O   0  0  0  0  0  0  0  0  0  0  0  0
    2.0167   -5.1750    0.0000 O   0  0  0  0  0  0  0  0  0  0  0  0
    8.2000   -5.1917    0.0000 O   0  0  0  0  0  0  0  0  0  0  0  0
    6.3750   -3.4417    0.0000 O   0  0  0  0  0  0  0  0  0  0  0  0
    2.6292   -6.2375    0.0000 O   0  0  0  0  0  0  0  0  0  0  0  0
    7.6125   -6.3000    0.0000 O   0  0  0  0  0  0  0  0  0  0  0  0
    3.8917   -6.2542    0.0000 C   0  0  0  0  0  0  0  0  0  0  0  0
    5.1417   -6.2167    0.0000 C   0  0  0  0  0  0  0  0  0  0  0  0
    5.7292   -6.5792    0.0000 C   0  0  0  0  0  0  0  0  0  0  0  0
    3.2917   -6.6292    0.0000 C   0  0  0  0  0  0  0  0  0  0  0  0
    6.3167   -6.2167    0.0000 C   0  0  0  0  0  0  0  0  0  0  0  0
    9.0292   -5.1875    0.0000 Na  0  0  0  0  0 15  0  0  0  0  0  0
  3  2  1  0
  4  2  1  0
  5  7  2  0
  6  3  2  0
  7  3  1  0
  8  5  1  0
  9  4  2  0
 10  5  1  0
 11 10  1  0
 12  9  1  0
 13 11  2  0
 14  8  1  0
 15  6  1  0
 16  4  1  0
 17 11  1  0
 18 12  2  0
 19 16  1  0
 20 17  1  0
 21 14  2  0
 22 16  2  0
 23 17  2  0
 24  2  1  0
 25  7  1  0
 26 25  1  0
 27 24  1  0
 28 26  1  0
 12  6  1  0
  8 15  2  0
 14 13  1  0
M  CHG  4   1   1  19  -1  20  -1  29   1
M  END
> <chembl_id>
CHEMBL915

> <chembl_pref_name>
NEDOCROMIL SODIUM
