
     RDKit          2D

 12 12  0  0  0  0  0  0  0  0999 V2000
    4.6667   -5.0833    0.0000 C   0  0  0  0  0  0  0  0  0  0  0  0
    5.2792   -4.7250    0.0000 N   0  0  0  0  0  0  0  0  0  0  0  0
    4.0542   -4.7292    0.0000 C   0  0  0  0  0  0  0  0  0  0  0  0
    3.4417   -5.0875    0.0000 C   0  0  0  0  0  0  0  0  0  0  0  0
    4.3042   -5.6917    0.0000 C   0  0  0  0  0  0  0  0  0  0  0  0
    5.0167   -5.6917    0.0000 C   0  0  0  0  0  0  0  0  0  0  0  0
    5.8958   -5.0792    0.0000 C   0  0  0  0  0  0  0  0  0  0  0  0
    2.8292   -4.7333    0.0000 C   0  0  0  0  0  0  0  0  0  0  0  0
    3.4417   -5.8000    0.0000 C   0  0  0  0  0  0  0  0  0  0  0  0
    2.2167   -5.0875    0.0000 C   0  0  0  0  0  0  0  0  0  0  0  0
    2.8292   -6.1542    0.0000 C   0  0  0  0  0  0  0  0  0  0  0  0
    2.2167   -5.8000    0.0000 C   0  0  0  0  0  0  0  0  0  0  0  0
  2  1  1  0
  3  1  1  0
  4  3  1  0
  5  1  1  0
  6  1  1  0
  7  2  1  0
  8  4  2  0
  9  4  1  0
 10  8  1  0
 11  9  2  0
 12 10  2  0
 11 12  1  0
M  END
> <chembl_id>
CHEMBL1201234

> <chembl_pref_name>
MEPHENTERMINE
