
     RDKit          2D

 30 31  0  0  0  0  0  0  0  0999 V2000
    2.4373    2.6336    0.0000 O   0  0  0  0  0  0  0  0  0  0  0  0
   -2.3711    1.7456    0.0000 N   0  0  0  0  0  0  0  0  0  0  0  0
   -1.5952    2.0025    0.0000 C   0  0  0  0  0  0  0  0  0  0  0  0
   -3.2002    1.7456    0.0000 C   0  0  0  0  0  0  0  0  0  0  0  0
   -1.1055    1.3334    0.0000 C   0  0  0  0  0  0  0  0  0  0  0  0
   -2.3807    0.9164    0.0000 C   0  0  0  0  0  0  0  0  0  0  0  0
   -3.2002    0.9261    0.0000 C   0  0  0  0  0  0  0  0  0  0  0  0
   -1.5952    0.6643    0.0000 C   0  0  0  0  0  0  0  0  0  0  0  0
    3.4379   -0.1067    0.0000 S   0  0  0  0  0  0  0  0  0  0  0  0
   -1.3334    2.7880    0.0000 C   0  0  0  0  0  0  0  0  0  0  0  0
   -0.2860    1.3334    0.0000 S   0  0  0  0  0  0  0  0  0  0  0  0
    2.6620    0.1551    0.0000 N   0  0  0  0  0  0  0  0  0  0  0  0
    0.5964   -0.6110    0.0000 N   0  0  0  0  0  0  0  0  0  0  0  0
   -3.7821    2.3274    0.0000 O   0  0  0  0  0  0  0  0  0  0  0  0
    3.2197   -0.9019    0.0000 O   0  0  0  0  0  0  0  0  0  0  0  0
    3.6803    0.6837    0.0000 O   0  0  0  0  0  0  0  0  0  0  0  0
   -4.0003    0.7128    0.0000 C   0  0  0  0  0  0  0  0  0  0  0  0
    0.1940    0.6643    0.0000 C   0  0  0  0  0  0  0  0  0  0  0  0
    4.2379   -0.2909    0.0000 N   0  0  0  0  0  0  0  0  0  0  0  0
   -1.8862    3.3990    0.0000 O   0  0  0  0  0  0  0  0  0  0  0  0
    2.0414   -0.3831    0.0000 C   0  0  0  0  0  0  0  0  0  0  0  0
    1.0183    0.6546    0.0000 C   0  0  0  0  0  0  0  0  0  0  0  0
    1.2704   -0.1309    0.0000 C   0  0  0  0  0  0  0  0  0  0  0  0
   -0.0678   -0.1213    0.0000 C   0  0  0  0  0  0  0  0  0  0  0  0
   -0.5333    2.9529    0.0000 O   0  0  0  0  0  0  0  0  0  0  0  0
   -1.3334   -0.1213    0.0000 C   0  0  0  0  0  0  0  0  0  0  0  0
   -4.2136   -0.0873    0.0000 O   0  0  0  0  0  0  0  0  0  0  0  0
   -4.5822    1.2946    0.0000 C   0  0  0  0  0  0  0  0  0  0  0  0
   -3.4135    0.1260    0.0000 H   0  0  0  0  0  0  0  0  0  0  0  0
   -2.3807    0.0969    0.0000 H   0  0  0  0  0  0  0  0  0  0  0  0
  3  2  1  0
  4  2  1  0
  5  3  2  0
  6  2  1  0
  7  6  1  0
  8  6  1  0
  9 12  1  0
 10  3  1  0
 11  5  1  0
 12 21  1  0
 13 24  1  0
 14  4  2  0
 15  9  2  0
 16  9  2  0
 17  7  1  0
 18 11  1  1
 19  9  1  0
 20 10  2  0
 23 21  1  1
 22 18  1  0
 23 22  1  0
 24 18  1  0
 25 10  1  0
  8 26  1  6
 17 27  1  6
 28 17  1  0
  7 29  1  6
  6 30  1  1
  5  8  1  0
  7  4  1  0
 23 13  1  0
M  END
> <chembl_id>
CHEMBL4303454

> <chembl_pref_name>
DORIPENEM MONOHYDRATE
