
     RDKit          2D

 33 34  0  0  0  0  0  0  0  0999 V2000
   -1.6250   -0.1875    0.0000 C   0  0  0  0  0  0  0  0  0  0  0  0
   -2.1875    0.1375    0.0000 C   0  0  0  0  0  0  0  0  0  0  0  0
   -2.0875   -0.6417    0.0000 C   0  0  0  0  0  0  0  0  0  0  0  0
   -2.5500   -1.1042    0.0000 N   0  0  0  0  0  0  0  0  0  0  0  0
   -2.7125   -0.1792    0.0000 C   0  0  0  0  0  0  0  0  0  0  0  0
   -3.2583    0.1208    0.0000 C   0  0  0  0  0  0  0  0  0  0  0  0
    3.2542    0.2458    0.0000 C   0  0  0  0  0  0  0  0  0  0  0  0
   -3.2708    0.7458    0.0000 C   0  0  0  0  0  0  0  0  0  0  0  0
    3.2417    0.8583    0.0000 C   0  0  0  0  0  0  0  0  0  0  0  0
   -2.1833    0.7500    0.0000 C   0  0  0  0  0  0  0  0  0  0  0  0
    2.7167   -0.0875    0.0000 C   0  0  0  0  0  0  0  0  0  0  0  0
   -2.7208    1.0625    0.0000 C   0  0  0  0  0  0  0  0  0  0  0  0
    2.7042    1.1583    0.0000 C   0  0  0  0  0  0  0  0  0  0  0  0
   -1.1708   -0.6417    0.0000 C   0  0  0  0  0  0  0  0  0  0  0  0
    2.1750    0.2083    0.0000 C   0  0  0  0  0  0  0  0  0  0  0  0
    0.5417   -0.1292    0.0000 N   0  0  0  0  0  0  0  0  0  0  0  0
    2.1750    0.8375    0.0000 C   0  0  0  0  0  0  0  0  0  0  0  0
   -3.7875   -0.2042    0.0000 O   0  0  0  0  0  0  0  0  0  0  0  0
    1.0792    0.1875    0.0000 C   0  0  0  0  0  0  0  0  0  0  0  0
    3.8125   -0.0542    0.0000 O   0  0  0  0  0  0  0  0  0  0  0  0
    1.6292   -0.1250    0.0000 C   0  0  0  0  0  0  0  0  0  0  0  0
   -1.0875    0.1333    0.0000 C   0  0  0  0  0  0  0  0  0  0  0  0
   -3.8083    1.0583    0.0000 O   0  0  0  0  0  0  0  0  0  0  0  0
    3.7792    1.2000    0.0000 O   0  0  0  0  0  0  0  0  0  0  0  0
   -0.4833   -0.2000    0.0000 C   0  0  0  0  0  0  0  0  0  0  0  0
    0.0000    0.1583    0.0000 C   0  0  0  0  0  0  0  0  0  0  0  0
    0.5417   -0.7792    0.0000 C   0  0  0  0  0  0  0  0  0  0  0  0
   -0.5458   -0.4792    0.0000 C   0  0  0  0  0  0  0  0  0  0  0  0
   -1.3333   -1.2667    0.0000 C   0  0  0  0  0  0  0  0  0  0  0  0
   -4.3458    0.0958    0.0000 C   0  0  0  0  0  0  0  0  0  0  0  0
    4.3417    0.2833    0.0000 C   0  0  0  0  0  0  0  0  0  0  0  0
   -4.3458    0.7458    0.0000 C   0  0  0  0  0  0  0  0  0  0  0  0
    4.3167    0.9208    0.0000 C   0  0  0  0  0  0  0  0  0  0  0  0
  2  1  1  0
  3  1  1  0
  4  3  3  0
  5  2  2  0
  6  5  1  0
  7 11  2  0
  8 12  1  0
  9 13  2  0
 10  2  1  0
 11 15  1  0
 12 10  2  0
 13 17  1  0
 14  1  1  0
 15 21  1  0
 16 26  1  0
 17 15  2  0
 18  6  1  0
 19 16  1  0
 20  7  1  0
 21 19  1  0
 22  1  1  0
 23  8  1  0
 24  9  1  0
 25 22  1  0
 26 25  1  0
 27 16  1  0
 28 14  1  0
 29 14  1  0
 30 18  1  0
 31 20  1  0
 32 23  1  0
 33 24  1  0
  6  8  2  0
  7  9  1  0
M  END
> <chembl_id>
CHEMBL6966

> <chembl_pref_name>
VERAPAMIL
