
     RDKit          2D

 32 35  0  0  0  0  0  0  0  0999 V2000
    8.0854   -3.8828    0.0000 Cl  0  0  0  0  0  0  0  0  0  0  0  0
    7.1068   -6.3316    0.0000 N   0  0  0  0  0  0  0  0  0  0  0  0
    9.4661   -8.8121    0.0000 C   0  0  0  0  0  0  0  0  0  0  0  0
   10.1733   -8.3906    0.0000 C   0  0  0  0  0  0  0  0  0  0  0  0
    7.6687   -6.7774    0.0000 C   0  0  0  0  0  0  0  0  0  0  0  0
    7.2472   -7.1553    0.0000 C   0  0  0  0  0  0  0  0  0  0  0  0
    8.7491   -8.4051    0.0000 O   0  0  0  0  0  0  0  0  0  0  0  0
    8.7539   -7.5864    0.0000 C   0  0  0  0  0  0  0  0  0  0  0  0
    8.2307   -7.1553    0.0000 C   0  0  0  0  0  0  0  0  0  0  0  0
    8.6086   -6.7580    0.0000 C   0  0  0  0  0  0  0  0  0  0  0  0
    9.4708   -9.6356    0.0000 O   0  0  0  0  0  0  0  0  0  0  0  0
    6.7193   -7.8722    0.0000 C   0  0  0  0  0  0  0  0  0  0  0  0
    7.3490   -7.4943    0.0000 C   0  0  0  0  0  0  0  0  0  0  0  0
   10.8903   -8.7975    0.0000 C   0  0  0  0  0  0  0  0  0  0  0  0
   10.5802   -7.6736    0.0000 C   0  0  0  0  0  0  0  0  0  0  0  0
    9.7567   -7.6736    0.0000 O   0  0  0  0  0  0  0  0  0  0  0  0
    7.3587   -5.5468    0.0000 C   0  0  0  0  0  0  0  0  0  0  0  0
    6.2833   -6.3316    0.0000 C   0  0  0  0  0  0  0  0  0  0  0  0
   10.8951   -9.6210    0.0000 C   0  0  0  0  0  0  0  0  0  0  0  0
   11.5927   -8.3761    0.0000 C   0  0  0  0  0  0  0  0  0  0  0  0
   11.4086   -7.6639    0.0000 C   0  0  0  0  0  0  0  0  0  0  0  0
   10.1539   -6.9663    0.0000 C   0  0  0  0  0  0  0  0  0  0  0  0
    6.0264   -5.5468    0.0000 C   0  0  0  0  0  0  0  0  0  0  0  0
    6.6950   -5.0625    0.0000 C   0  0  0  0  0  0  0  0  0  0  0  0
   10.5561   -6.2444    0.0000 C   0  0  0  0  0  0  0  0  0  0  0  0
   11.6121  -10.0231    0.0000 C   0  0  0  0  0  0  0  0  0  0  0  0
   12.3097   -8.7781    0.0000 C   0  0  0  0  0  0  0  0  0  0  0  0
   11.8107   -6.9420    0.0000 C   0  0  0  0  0  0  0  0  0  0  0  0
   11.3892   -6.2299    0.0000 C   0  0  0  0  0  0  0  0  0  0  0  0
   12.3194   -9.6065    0.0000 C   0  0  0  0  0  0  0  0  0  0  0  0
    6.4445   -6.9648    0.0000 H   0  0  0  0  0  0  0  0  0  0  0  0
    7.8822   -5.9805    0.0000 H   0  0  0  0  0  0  0  0  0  0  0  0
  3  7  1  0
  4  3  1  0
  5  2  1  0
  6  2  1  0
  8  7  1  6
  8 10  1  0
  9  6  1  0
 10  5  1  0
 11  3  2  0
 12  6  1  0
 13  5  1  0
 14  4  1  0
 15  4  1  0
 16  4  1  0
 17  2  1  0
 18  2  1  0
 19 14  2  0
 20 14  1  0
 21 15  2  0
 22 15  1  0
 23 18  1  0
 24 17  1  0
 25 22  2  0
 26 19  1  0
 27 20  2  0
 28 21  1  0
 29 25  1  0
 30 26  2  0
 13 12  1  0
  9  8  1  0
 23 24  1  0
 29 28  2  0
 27 30  1  0
  6 31  1  1
  5 32  1  6
M  CHG  2   1  -1   2   1
M  END
> <chembl_id>
CHEMBL3084748

> <chembl_pref_name>
TROSPIUM CHLORIDE
