
     RDKit          2D

 25 27  0  0  1  0  0  0  0  0999 V2000
    0.0750   -6.4667    0.0000 N   0  0  0  0  0  0  0  0  0  0  0  0
   -0.6333   -6.4667    0.0000 C   0  0  0  0  0  0  0  0  0  0  0  0
   -0.6333   -5.7625    0.0000 C   0  0  0  0  0  0  0  0  0  0  0  0
    0.0750   -5.7625    0.0000 C   0  0  0  0  0  0  0  0  0  0  0  0
    0.6833   -6.8250    0.0000 C   0  0  0  0  0  0  0  0  0  0  0  0
   -1.2500   -5.4042    0.0000 N   0  0  0  0  0  0  0  0  0  0  0  0
    0.6833   -5.4042    0.0000 S   0  0  0  0  0  0  0  0  0  0  0  0
   -1.8667   -5.7625    0.0000 C   0  0  0  0  0  0  0  0  0  0  0  0
    1.2958   -6.4667    0.0000 C   0  0  0  0  0  0  0  0  0  0  0  0
    0.6833   -7.5292    0.0000 C   0  0  0  0  0  0  0  0  0  0  0  0
   -2.4792   -5.4083    0.0000 C   0  0  0  0  0  0  0  0  0  0  0  0
   -3.0917   -5.7667    0.0000 C   0  0  0  0  0  0  0  0  0  0  0  0
    1.2958   -5.7625    0.0000 C   0  0  0  0  0  0  0  0  0  0  0  0
   -1.1375   -6.9708    0.0000 O   0  0  0  0  0  0  0  0  0  0  0  0
   -1.8625   -6.4708    0.0000 O   0  0  0  0  0  0  0  0  0  0  0  0
    0.0708   -7.8875    0.0000 O   0  0  0  0  0  0  0  0  0  0  0  0
   -3.0875   -6.4667    0.0000 C   0  0  0  0  0  0  0  0  0  0  0  0
   -4.3167   -5.7625    0.0000 C   0  0  0  0  0  0  0  0  0  0  0  0
   -4.3167   -6.4708    0.0000 C   0  0  0  0  0  0  0  0  0  0  0  0
   -2.4792   -4.7000    0.0000 N   0  0  0  0  0  0  0  0  0  0  0  0
    1.3000   -7.8875    0.0000 O   0  0  0  0  0  0  0  0  0  0  0  0
   -3.7042   -5.4083    0.0000 C   0  0  0  0  0  0  0  0  0  0  0  0
    1.9125   -6.8208    0.0000 C   0  0  0  0  0  0  0  0  0  0  0  0
   -3.6958   -6.8250    0.0000 C   0  0  0  0  0  0  0  0  0  0  0  0
    0.0667   -5.0542    0.0000 H   0  0  0  0  0  0  0  0  0  0  0  0
  2  1  1  0
  3  4  1  0
  4  1  1  0
  5  1  1  0
  3  6  1  1
  7  4  1  0
  8  6  1  0
  9  5  2  0
 10  5  1  0
 11  8  1  0
 12 11  1  0
 13  7  1  0
 14  2  2  0
 15  8  2  0
 16 10  2  0
 17 12  2  0
 18 22  1  0
 19 24  1  0
 11 20  1  1
 21 10  1  0
 22 12  1  0
 23  9  1  0
 24 17  1  0
  4 25  1  6
  2  3  1  0
 13  9  1  0
 19 18  2  0
M  END
> <chembl_id>
CHEMBL1604

> <chembl_pref_name>
CEPHRADINE
