
     RDKit          2D

 18 19  0  0  0  0  0  0  0  0999 V2000
   -8.0259    0.7470    0.0000 C   0  0  0  0  0  0  0  0  0  0  0  0
   -8.7404    0.3345    0.0000 C   0  0  0  0  0  0  0  0  0  0  0  0
   -8.7404   -0.4904    0.0000 C   0  0  0  0  0  0  0  0  0  0  0  0
   -8.0259   -0.9029    0.0000 C   0  0  0  0  0  0  0  0  0  0  0  0
   -7.3115   -0.4904    0.0000 C   0  0  0  0  0  0  0  0  0  0  0  0
   -7.3115    0.3345    0.0000 C   0  0  0  0  0  0  0  0  0  0  0  0
   -6.6196   -0.9397    0.0000 Cl  0  0  0  0  0  0  0  0  0  0  0  0
   -6.5970    0.7470    0.0000 C   0  0  0  0  0  0  0  0  0  0  0  0
   -5.8825    0.3345    0.0000 C   0  0  0  0  0  0  0  0  0  0  0  0
   -6.5970    1.5720    0.0000 O   0  0  0  0  0  0  0  0  0  0  0  0
   -7.3114    1.9845    0.0000 C   0  0  0  0  0  0  0  0  0  0  0  0
   -8.0259    1.5720    0.0000 O   0  0  0  0  0  0  0  0  0  0  0  0
   -7.3114    2.8095    0.0000 N   0  0  0  0  0  0  0  0  0  0  0  0
   -5.1680    0.7470    0.0000 N   0  0  0  0  0  0  0  0  0  0  0  0
   -5.0818    1.5675    0.0000 N   0  0  0  0  0  0  0  0  0  0  0  0
   -4.4144    0.4115    0.0000 N   0  0  0  0  0  0  0  0  0  0  0  0
   -3.8624    1.0246    0.0000 C   0  0  0  0  0  0  0  0  0  0  0  0
   -4.2748    1.7390    0.0000 N   0  0  0  0  0  0  0  0  0  0  0  0
  1  2  2  0
  2  3  1  0
  3  4  2  0
  4  5  1  0
  5  6  2  0
  1  6  1  0
  5  7  1  0
  6  8  1  0
  8  9  1  0
  8 10  1  1
 10 11  1  0
 11 12  2  0
 11 13  1  0
  9 14  1  0
 16 17  2  0
 17 18  1  0
 15 18  2  0
 15 14  1  0
 14 16  1  0
M  END
> <chembl_id>
CHEMBL3989949

> <chembl_pref_name>
CENOBAMATE
