
     RDKit          2D

 25 26  0  0  0  0  0  0  0  0999 V2000
    2.4792   -5.4042    0.0000 C   0  0  0  0  0  0  0  0  0  0  0  0
    1.8667   -5.0750    0.0000 C   0  0  0  0  0  0  0  0  0  0  0  0
    3.0875   -5.0625    0.0000 C   0  0  0  0  0  0  0  0  0  0  0  0
    3.0875   -4.3542    0.0000 O   0  0  0  0  0  0  0  0  0  0  0  0
    1.8667   -4.3667    0.0000 O   0  0  0  0  0  0  0  0  0  0  0  0
    1.2667   -5.4292    0.0000 C   0  0  0  0  0  0  0  0  0  0  0  0
    3.7042   -3.9917    0.0000 C   0  0  0  0  0  0  0  0  0  0  0  0
    4.3375   -4.3542    0.0000 C   0  0  0  0  0  0  0  0  0  0  0  0
    0.6500   -5.0750    0.0000 C   0  0  0  0  0  0  0  0  0  0  0  0
    5.5417   -4.3542    0.0000 N   0  0  0  0  0  0  0  0  0  0  0  0
    0.0417   -5.4542    0.0000 C   0  0  0  0  0  0  0  0  0  0  0  0
    4.3375   -5.0625    0.0000 O   0  0  0  0  0  0  0  0  0  0  0  0
    2.4792   -6.1167    0.0000 C   0  0  0  0  0  0  0  0  0  0  0  0
    4.9167   -3.9917    0.0000 C   0  0  0  0  0  0  0  0  0  0  0  0
    3.7000   -5.4042    0.0000 C   0  0  0  0  0  0  0  0  0  0  0  0
    6.1667   -3.9917    0.0000 C   0  0  0  0  0  0  0  0  0  0  0  0
    0.0417   -6.1667    0.0000 C   0  0  0  0  0  0  0  0  0  0  0  0
   -0.5708   -5.1000    0.0000 C   0  0  0  0  0  0  0  0  0  0  0  0
    6.7792   -4.3542    0.0000 C   0  0  0  0  0  0  0  0  0  0  0  0
    3.0875   -6.4625    0.0000 C   0  0  0  0  0  0  0  0  0  0  0  0
    7.4000   -4.0042    0.0000 C   0  0  0  0  0  0  0  0  0  0  0  0
    3.7000   -6.1167    0.0000 C   0  0  0  0  0  0  0  0  0  0  0  0
   -1.1958   -5.4542    0.0000 C   0  0  0  0  0  0  0  0  0  0  0  0
   -0.5708   -6.5292    0.0000 C   0  0  0  0  0  0  0  0  0  0  0  0
   -1.1958   -6.1667    0.0000 C   0  0  0  0  0  0  0  0  0  0  0  0
  2  1  1  0
  3  1  2  0
  4  3  1  0
  5  2  2  0
  6  2  1  0
  7  4  1  0
  8  7  1  0
  9  6  1  0
 10 14  1  0
 11  9  1  0
 12  8  1  0
 13  1  1  0
 14  8  1  0
 15  3  1  0
 16 10  1  0
 17 11  2  0
 18 11  1  0
 19 16  1  0
 20 13  2  0
 21 19  1  0
 22 20  1  0
 23 18  2  0
 24 17  1  0
 25 24  2  0
 22 15  2  0
 25 23  1  0
M  END
> <chembl_id>
CHEMBL631

> <chembl_pref_name>
PROPAFENONE
