
     RDKit          2D

 42 46  0  0  1  0  0  0  0  0999 V2000
    3.3125   -0.6500    0.0000 S   0  0  0  0  0  0  0  0  0  0  0  0
    3.3792    0.2583    0.0000 N   0  0  0  0  0  0  0  0  0  0  0  0
   -0.2333   -0.0875    0.0000 N   0  0  0  0  0  0  0  0  0  0  0  0
    2.8000   -0.4667    0.0000 C   0  0  0  0  0  0  0  0  0  0  0  0
    3.6750   -0.2042    0.0000 C   0  0  0  0  0  0  0  0  0  0  0  0
    2.8042    0.1125    0.0000 C   0  0  0  0  0  0  0  0  0  0  0  0
   -0.2333   -0.6500    0.0000 C   0  0  0  0  0  0  0  0  0  0  0  0
   -0.8083   -0.0875    0.0000 C   0  0  0  0  0  0  0  0  0  0  0  0
   -0.8083   -0.6500    0.0000 C   0  0  0  0  0  0  0  0  0  0  0  0
    3.8417    0.5625    0.0000 C   0  0  0  0  0  0  0  0  0  0  0  0
    0.3042    0.0875    0.0000 C   0  0  0  0  0  0  0  0  0  0  0  0
    0.3042   -0.8292    0.0000 S   0  0  0  0  0  0  0  0  0  0  0  0
    4.1417    0.0875    0.0000 C   0  0  0  0  0  0  0  0  0  0  0  0
    0.6417   -0.3792    0.0000 C   0  0  0  0  0  0  0  0  0  0  0  0
   -1.5208   -0.8167    0.0000 N   0  0  0  0  0  0  0  0  0  0  0  0
   -1.9708   -0.2875    0.0000 C   0  0  0  0  0  0  0  0  0  0  0  0
    2.5167    0.8458    0.0000 C   0  0  0  0  0  0  0  0  0  0  0  0
    0.7792    0.4208    0.0000 C   0  0  0  0  0  0  0  0  0  0  0  0
    3.0542   -1.2000    0.0000 O   0  0  0  0  0  0  0  0  0  0  0  0
    3.7917   -1.0542    0.0000 O   0  0  0  0  0  0  0  0  0  0  0  0
   -2.6500   -0.5250    0.0000 C   0  0  0  0  0  0  0  0  0  0  0  0
   -1.0250    0.3958    0.0000 O   0  0  0  0  0  0  0  0  0  0  0  0
    3.9542    1.1208    0.0000 O   0  0  0  0  0  0  0  0  0  0  0  0
   -1.9708    0.3083    0.0000 O   0  0  0  0  0  0  0  0  0  0  0  0
    2.0542    1.2708    0.0000 O   0  0  0  0  0  0  0  0  0  0  0  0
    1.4167    0.4958    0.0000 O   0  0  0  0  0  0  0  0  0  0  0  0
    1.5042    1.1000    0.0000 C   0  0  0  0  0  0  0  0  0  0  0  0
    3.0167    1.2208    0.0000 O   0  0  0  0  0  0  0  0  0  0  0  0
    0.5417    0.8500    0.0000 O   0  0  0  0  0  0  0  0  0  0  0  0
    2.4292   -0.9917    0.0000 C   0  0  0  0  0  0  0  0  0  0  0  0
    2.1542   -0.4042    0.0000 C   0  0  0  0  0  0  0  0  0  0  0  0
   -3.3708   -0.7250    0.0000 C   0  0  0  0  0  0  0  0  0  0  0  0
   -2.5125   -1.1375    0.0000 N   0  0  0  0  0  0  0  0  0  0  0  0
    0.9917   -0.8750    0.0000 C   0  0  0  0  0  0  0  0  0  0  0  0
    1.1292   -0.2292    0.0000 C   0  0  0  0  0  0  0  0  0  0  0  0
   -3.8458   -1.0042    0.0000 C   0  0  0  0  0  0  0  0  0  0  0  0
   -3.3250   -0.1542    0.0000 C   0  0  0  0  0  0  0  0  0  0  0  0
   -4.3458   -0.6917    0.0000 C   0  0  0  0  0  0  0  0  0  0  0  0
   -3.8250    0.1458    0.0000 C   0  0  0  0  0  0  0  0  0  0  0  0
   -4.3333   -0.1292    0.0000 C   0  0  0  0  0  0  0  0  0  0  0  0
   -0.2333   -1.2292    0.0000 H   0  0  0  0  0  0  0  0  0  0  0  0
    4.3000   -0.6417    0.0000 H   0  0  0  0  0  0  0  0  0  0  0  0
  2  5  1  0
  3 11  1  0
  4  1  1  0
  5  1  1  0
  6  4  1  0
  7  3  1  0
  8  3  1  0
  9  8  1  0
 10 13  1  0
 11 18  1  1
 12 14  1  0
 13  5  1  0
 14 11  1  0
  9 15  1  6
 16 15  1  0
  6 17  1  6
 18 26  1  0
 19  1  2  0
 20  1  2  0
 21 16  1  6
 22  8  2  0
 23 10  2  0
 24 16  2  0
 25 17  1  0
 26 27  1  0
 27 25  1  0
 28 17  2  0
 29 18  2  0
 30  4  1  0
 31  4  1  0
 21 32  1  6
 33 21  1  0
 34 14  1  0
 35 14  1  0
 36 32  1  0
 37 32  2  0
 38 36  2  0
 39 37  1  0
 40 39  2  0
  7 41  1  1
  5 42  1  6
  6  2  1  0
  2 10  1  0
  7 12  1  0
  7  9  1  0
 38 40  1  0
M  END
> <chembl_id>
CHEMBL506110

> <chembl_pref_name>
SULTAMICILLIN
