
     RDKit          2D

 70 69  0  0  0  0  0  0  0  0999 V2000
   10.8881   -8.1105    0.0000 O   0  0  0  0  0  0  0  0  0  0  0  0
   11.5998   -6.0273    0.0000 O   0  0  0  0  0  0  0  0  0  0  0  0
    8.7338   -6.8698    0.0000 N   0  0  0  0  0  0  0  0  0  0  0  0
   10.1619   -6.0357    0.0000 O   0  0  0  0  0  0  0  0  0  0  0  0
   12.3211   -8.1021    0.0000 O   0  0  0  0  0  0  0  0  0  0  0  0
    9.4551   -7.2786    0.0000 C   0  0  0  0  0  0  0  0  0  0  0  0
   13.7493   -7.2681    0.0000 O   0  0  0  0  0  0  0  0  0  0  0  0
   13.0377   -6.8593    0.0000 C   0  0  0  0  0  0  0  0  0  0  0  0
    8.0221   -7.2820    0.0000 C   0  0  0  0  0  0  0  0  0  0  0  0
   10.1707   -6.8658    0.0000 C   0  0  0  0  0  0  0  0  0  0  0  0
   10.8861   -7.2758    0.0000 C   0  0  0  0  0  0  0  0  0  0  0  0
   11.6015   -6.8616    0.0000 C   0  0  0  0  0  0  0  0  0  0  0  0
   12.3169   -7.2717    0.0000 C   0  0  0  0  0  0  0  0  0  0  0  0
   17.9891   -8.0483    0.0000 O   0  0  0  0  0  0  0  0  0  0  0  0
   18.7008   -5.9651    0.0000 O   0  0  0  0  0  0  0  0  0  0  0  0
   15.8348   -6.8076    0.0000 N   0  0  0  0  0  0  0  0  0  0  0  0
   17.2629   -5.9736    0.0000 O   0  0  0  0  0  0  0  0  0  0  0  0
   19.4222   -8.0400    0.0000 O   0  0  0  0  0  0  0  0  0  0  0  0
   16.5562   -7.2164    0.0000 C   0  0  0  0  0  0  0  0  0  0  0  0
   20.8504   -7.2059    0.0000 O   0  0  0  0  0  0  0  0  0  0  0  0
   20.1387   -6.7971    0.0000 C   0  0  0  0  0  0  0  0  0  0  0  0
   15.1232   -7.2199    0.0000 C   0  0  0  0  0  0  0  0  0  0  0  0
   17.2716   -6.8036    0.0000 C   0  0  0  0  0  0  0  0  0  0  0  0
   17.9871   -7.2136    0.0000 C   0  0  0  0  0  0  0  0  0  0  0  0
   18.7025   -6.7994    0.0000 C   0  0  0  0  0  0  0  0  0  0  0  0
   19.4180   -7.2095    0.0000 C   0  0  0  0  0  0  0  0  0  0  0  0
   23.1348  -10.0951    0.0000 C   0  0  0  0  0  0  0  0  0  0  0  0
    6.6889  -10.5603    0.0000 C   0  0  0  0  0  0  0  0  0  0  0  0
   22.4230  -10.5121    0.0000 C   0  0  0  0  0  0  0  0  0  0  0  0
    7.4005  -10.1433    0.0000 C   0  0  0  0  0  0  0  0  0  0  0  0
    8.1170  -10.5520    0.0000 C   0  0  0  0  0  0  0  0  0  0  0  0
   21.7066  -10.1034    0.0000 C   0  0  0  0  0  0  0  0  0  0  0  0
    6.6937  -11.3911    0.0000 C   0  0  0  0  0  0  0  0  0  0  0  0
   23.1298   -9.2644    0.0000 C   0  0  0  0  0  0  0  0  0  0  0  0
   21.7017   -9.2728    0.0000 C   0  0  0  0  0  0  0  0  0  0  0  0
    8.1219  -11.3828    0.0000 C   0  0  0  0  0  0  0  0  0  0  0  0
   22.4133   -8.8558    0.0000 C   0  0  0  0  0  0  0  0  0  0  0  0
    7.4101  -11.7999    0.0000 C   0  0  0  0  0  0  0  0  0  0  0  0
   23.8511  -10.5038    0.0000 C   0  0  0  0  0  0  0  0  0  0  0  0
    5.9723  -10.1517    0.0000 C   0  0  0  0  0  0  0  0  0  0  0  0
    8.8335  -10.1350    0.0000 N   0  0  0  0  0  0  0  0  0  0  0  0
   20.9899  -10.5156    0.0000 N   0  0  0  0  0  0  0  0  0  0  0  0
    9.5500  -10.5486    0.0000 C   0  0  0  0  0  0  0  0  0  0  0  0
   20.2735  -10.1021    0.0000 C   0  0  0  0  0  0  0  0  0  0  0  0
   23.8560  -11.3296    0.0000 O   0  0  0  0  0  0  0  0  0  0  0  0
    5.9675   -9.3259    0.0000 O   0  0  0  0  0  0  0  0  0  0  0  0
   10.2617  -10.1315    0.0000 C   0  0  0  0  0  0  0  0  0  0  0  0
    7.4006   -9.3174    0.0000 I   0  0  0  0  0  0  0  0  0  0  0  0
   22.4229  -11.3380    0.0000 I   0  0  0  0  0  0  0  0  0  0  0  0
    9.5499  -11.3744    0.0000 O   0  0  0  0  0  0  0  0  0  0  0  0
   19.5617  -10.5192    0.0000 C   0  0  0  0  0  0  0  0  0  0  0  0
   23.8415   -8.8475    0.0000 I   0  0  0  0  0  0  0  0  0  0  0  0
    5.9821  -11.8082    0.0000 I   0  0  0  0  0  0  0  0  0  0  0  0
    8.8383  -11.7963    0.0000 I   0  0  0  0  0  0  0  0  0  0  0  0
   20.9852   -8.8593    0.0000 I   0  0  0  0  0  0  0  0  0  0  0  0
    5.2559  -10.5688    0.0000 O   0  0  0  0  0  0  0  0  0  0  0  0
   24.5676  -10.0868    0.0000 O   0  0  0  0  0  0  0  0  0  0  0  0
   20.2735   -9.2764    0.0000 O   0  0  0  0  0  0  0  0  0  0  0  0
   11.6947  -10.1280    0.0000 O   0  0  0  0  0  0  0  0  0  0  0  0
   18.1336  -10.5227    0.0000 O   0  0  0  0  0  0  0  0  0  0  0  0
   10.9782  -10.5450    0.0000 C   0  0  0  0  0  0  0  0  0  0  0  0
   18.8454  -10.1106    0.0000 C   0  0  0  0  0  0  0  0  0  0  0  0
   13.8395  -10.5331    0.0000 O   0  0  0  0  0  0  0  0  0  0  0  0
   15.9841  -10.1176    0.0000 O   0  0  0  0  0  0  0  0  0  0  0  0
   14.5559  -10.1210    0.0000 C   0  0  0  0  0  0  0  0  0  0  0  0
   15.2723  -10.5297    0.0000 C   0  0  0  0  0  0  0  0  0  0  0  0
   13.1230  -10.1245    0.0000 C   0  0  0  0  0  0  0  0  0  0  0  0
   16.7005  -10.5261    0.0000 C   0  0  0  0  0  0  0  0  0  0  0  0
   17.4172  -10.1140    0.0000 C   0  0  0  0  0  0  0  0  0  0  0  0
   12.4113  -10.5416    0.0000 C   0  0  0  0  0  0  0  0  0  0  0  0
  3  6  1  0
  7  8  1  0
  9  3  1  0
 13  8  1  0
 10 11  1  0
 10  4  1  6
 11 12  1  0
 11  1  1  6
  6 10  1  0
 12  2  1  6
 12 13  1  0
 13  5  1  1
 16 19  1  0
 20 21  1  0
 22 16  1  0
 26 21  1  0
 23 24  1  0
 23 17  1  6
 24 25  1  0
 24 14  1  6
 19 23  1  0
 25 15  1  6
 25 26  1  0
 26 18  1  1
 28 30  1  0
 29 27  1  0
 30 31  2  0
 31 41  1  0
 32 29  2  0
 33 38  1  0
 34 27  2  0
 35 32  1  0
 36 31  1  0
 37 34  1  0
 38 36  2  0
 39 27  1  0
 40 28  1  0
 41 43  1  0
 42 32  1  0
 43 47  1  0
 44 42  1  0
 45 39  2  0
 46 40  2  0
 47 61  1  0
 48 30  1  0
 49 29  1  0
 50 43  2  0
 51 44  1  0
 52 34  1  0
 53 33  1  0
 54 36  1  0
 55 35  1  0
 56 40  1  0
 57 39  1  0
 58 44  2  0
 59 70  1  0
 60 62  1  0
 61 59  1  0
 62 51  1  0
 63 65  1  0
 64 68  1  0
 65 66  1  0
 66 64  1  0
 67 63  1  0
 68 69  1  0
 69 60  1  0
 70 67  1  0
 37 35  2  0
 28 33  2  0
M  END
> <chembl_id>
CHEMBL4594231

> <chembl_pref_name>
IODOXAMATE MEGLUMINE
