
     RDKit          2D

 43 47  0  0  1  0  0  0  0  0999 V2000
    2.6792    1.0708    0.0000 N   0  0  0  0  0  0  0  0  0  0  0  0
    2.4542    1.7750    0.0000 C   0  0  0  0  0  0  0  0  0  0  0  0
    1.7542    1.5375    0.0000 C   0  0  0  0  0  0  0  0  0  0  0  0
    2.0000    0.8458    0.0000 C   0  0  0  0  0  0  0  0  0  0  0  0
    3.0000   -1.6917    0.0000 C   0  0  0  0  0  0  0  0  0  0  0  0
    3.2292    0.5833    0.0000 C   0  0  0  0  0  0  0  0  0  0  0  0
    2.6167   -2.3792    0.0000 N   0  0  0  0  0  0  0  0  0  0  0  0
    2.4792   -1.0417    0.0000 N   0  0  0  0  0  0  0  0  0  0  0  0
    1.7542   -1.3375    0.0000 N   0  0  0  0  0  0  0  0  0  0  0  0
    1.7542   -2.1167    0.0000 N   0  0  0  0  0  0  0  0  0  0  0  0
    0.7667    1.7458    0.0000 N   0  0  0  0  0  0  0  0  0  0  0  0
   -2.0458    1.6708    0.0000 C   0  0  0  0  0  0  0  0  0  0  0  0
    1.8375    0.1375    0.0000 S   0  0  0  0  0  0  0  0  0  0  0  0
   -2.7333    1.4708    0.0000 C   0  0  0  0  0  0  0  0  0  0  0  0
    3.0542   -0.1375    0.0000 C   0  0  0  0  0  0  0  0  0  0  0  0
    0.2542    1.0583    0.0000 C   0  0  0  0  0  0  0  0  0  0  0  0
   -1.5875    1.0458    0.0000 N   0  0  0  0  0  0  0  0  0  0  0  0
   -0.6375    1.0583    0.0000 C   0  0  0  0  0  0  0  0  0  0  0  0
   -3.3083    1.8000    0.0000 C   0  0  0  0  0  0  0  0  0  0  0  0
    3.6875    0.9833    0.0000 C   0  0  0  0  0  0  0  0  0  0  0  0
    3.7625   -1.4167    0.0000 S   0  0  0  0  0  0  0  0  0  0  0  0
   -2.7333    0.8458    0.0000 C   0  0  0  0  0  0  0  0  0  0  0  0
   -3.3750    0.4625    0.0000 N   0  0  0  0  0  0  0  0  0  0  0  0
    2.4125   -0.3542    0.0000 C   0  0  0  0  0  0  0  0  0  0  0  0
   -3.9625    1.4500    0.0000 C   0  0  0  0  0  0  0  0  0  0  0  0
    3.0000    2.3208    0.0000 O   0  0  0  0  0  0  0  0  0  0  0  0
    3.7750   -0.5792    0.0000 C   0  0  0  0  0  0  0  0  0  0  0  0
   -0.6250    0.2208    0.0000 C   0  0  0  0  0  0  0  0  0  0  0  0
   -1.7458    2.4333    0.0000 O   0  0  0  0  0  0  0  0  0  0  0  0
    0.6167    0.3375    0.0000 O   0  0  0  0  0  0  0  0  0  0  0  0
    4.2875    0.2458    0.0000 O   0  0  0  0  0  0  0  0  0  0  0  0
   -3.9625    0.8000    0.0000 C   0  0  0  0  0  0  0  0  0  0  0  0
    0.0042   -0.1375    0.0000 C   0  0  0  0  0  0  0  0  0  0  0  0
   -1.2375   -0.1792    0.0000 C   0  0  0  0  0  0  0  0  0  0  0  0
   -3.2958    2.4333    0.0000 O   0  0  0  0  0  0  0  0  0  0  0  0
    3.4292   -2.4375    0.0000 C   0  0  0  0  0  0  0  0  0  0  0  0
    3.7042    1.7625    0.0000 O   0  0  0  0  0  0  0  0  0  0  0  0
   -0.6000   -1.2792    0.0000 C   0  0  0  0  0  0  0  0  0  0  0  0
   -1.2375   -0.9167    0.0000 C   0  0  0  0  0  0  0  0  0  0  0  0
    0.0042   -0.8542    0.0000 C   0  0  0  0  0  0  0  0  0  0  0  0
   -0.5625   -2.0167    0.0000 O   0  0  0  0  0  0  0  0  0  0  0  0
   -4.3458    0.1625    0.0000 C   0  0  0  0  0  0  0  0  0  0  0  0
    1.0017    0.7879    0.0000 H   0  0  0  0  0  0  0  0  0  0  0  0
  2  1  1  0
  3  4  1  0
  4  1  1  0
  5 21  1  0
  6  1  1  0
  7  5  1  0
  8  5  2  0
  9  8  1  0
 10  7  1  0
  3 11  1  6
 12 17  1  0
 13  4  1  0
 14 12  1  0
 15  6  2  0
 16 11  1  0
 18 17  1  1
 18 16  1  0
 19 14  1  0
 20  6  1  0
 21 27  1  0
 22 14  2  0
 23 22  1  0
 24 15  1  0
 25 19  2  0
 26  2  2  0
 27 15  1  0
 18 28  1  0
 29 12  2  0
 30 16  2  0
 31 20  2  0
 32 23  2  0
 33 28  1  0
 34 28  2  0
 35 19  1  0
 36  7  1  0
 37 20  1  0
 38 39  2  0
 39 34  1  0
 40 33  2  0
 41 38  1  0
 42 32  1  0
  2  3  1  0
 13 24  1  0
 10  9  2  0
 40 38  1  0
 25 32  1  0
  4 43  1  1
M  END
> <chembl_id>
CHEMBL1201204

> <chembl_pref_name>
CEFPIRAMIDE
