
     RDKit          2D

 29 33  0  0  1  0  0  0  0  0999 V2000
    1.9375    0.5750    0.0000 C   0  0  0  0  0  0  0  0  0  0  0  0
    1.9375   -0.2167    0.0000 C   0  0  0  0  0  0  0  0  0  0  0  0
    1.2167   -0.5250    0.0000 C   0  0  0  0  0  0  0  0  0  0  0  0
    0.5125   -0.2167    0.0000 C   0  0  0  0  0  0  0  0  0  0  0  0
   -0.1833   -0.6167    0.0000 C   0  0  0  0  0  0  0  0  0  0  0  0
    2.7875    0.8875    0.0000 C   0  0  0  0  0  0  0  0  0  0  0  0
    2.9167   -0.3792    0.0000 C   0  0  0  0  0  0  0  0  0  0  0  0
   -0.1833   -1.4167    0.0000 C   0  0  0  0  0  0  0  0  0  0  0  0
    3.3125    0.2750    0.0000 C   0  0  0  0  0  0  0  0  0  0  0  0
    1.2167    0.9708    0.0000 C   0  0  0  0  0  0  0  0  0  0  0  0
    0.5125    0.5750    0.0000 C   0  0  0  0  0  0  0  0  0  0  0  0
    1.2167   -1.4292    0.0000 C   0  0  0  0  0  0  0  0  0  0  0  0
   -0.8750   -0.2375    0.0000 C   0  0  0  0  0  0  0  0  0  0  0  0
   -0.8833   -1.8292    0.0000 C   0  0  0  0  0  0  0  0  0  0  0  0
    0.5167   -1.8292    0.0000 C   0  0  0  0  0  0  0  0  0  0  0  0
   -1.5958   -1.4167    0.0000 C   0  0  0  0  0  0  0  0  0  0  0  0
   -2.3125   -1.8292    0.0000 O   0  0  0  0  0  0  0  0  0  0  0  0
   -1.5958   -0.6292    0.0000 C   0  0  0  0  0  0  0  0  0  0  0  0
    2.7875    1.8958    0.0000 O   0  0  0  0  0  0  0  0  0  0  0  0
    1.7292    1.4375    0.0000 C   0  0  0  0  0  0  0  0  0  0  0  0
    4.2792    0.2750    0.0000 O   0  0  0  0  0  0  0  0  0  0  0  0
   -3.0333   -1.4125    0.0000 C   0  0  0  0  0  0  0  0  0  0  0  0
   -3.8333   -1.7292    0.0000 C   0  0  0  0  0  0  0  0  0  0  0  0
   -3.1000   -0.5667    0.0000 C   0  0  0  0  0  0  0  0  0  0  0  0
   -4.3458   -1.1000    0.0000 C   0  0  0  0  0  0  0  0  0  0  0  0
   -3.9083   -0.4042    0.0000 C   0  0  0  0  0  0  0  0  0  0  0  0
    1.2292    0.3958    0.0000 H   0  0  0  0  0  0  0  0  0  0  0  0
    2.4542   -1.1000    0.0000 H   0  0  0  0  0  0  0  0  0  0  0  0
    0.5125   -1.0792    0.0000 H   0  0  0  0  0  0  0  0  0  0  0  0
  2  1  1  0
  3  2  1  0
  4 11  1  0
  5  4  1  0
  6  1  1  0
  7  2  1  0
  8  5  2  0
  9  6  1  0
 10  1  1  0
 11 10  1  0
 12  3  1  0
 13  5  1  0
 14  8  1  0
 15 12  1  0
 16 18  1  0
 17 16  1  0
 18 13  2  0
  6 19  1  1
  1 20  1  1
  9 21  1  6
 22 17  1  0
 23 22  1  0
 24 22  1  0
 25 23  1  0
 26 24  1  0
  3 27  1  1
  2 28  1  6
  4 29  1  6
  7  9  1  0
  3  4  1  0
 15  8  1  0
 14 16  2  0
 25 26  1  0
M  END
> <chembl_id>
CHEMBL2107004

> <chembl_pref_name>
QUINESTRADOL
