
     RDKit          2D

 50 51  0  0  1  0  0  0  0  0999 V2000
   11.8680   -5.5793    0.0000 C   0  0  0  0  0  0  0  0  0  0  0  0
   10.4430   -5.5744    0.0000 N   0  0  0  0  0  0  0  0  0  0  0  0
    9.7280   -5.9830    0.0000 C   0  0  0  0  0  0  0  0  0  0  0  0
   11.8680   -4.7573    0.0000 N   0  0  0  0  0  0  0  0  0  0  0  0
   11.1530   -5.9879    0.0000 C   0  0  0  0  0  0  0  0  0  0  0  0
   10.4235   -8.0695    0.0000 C   0  0  0  0  0  0  0  0  0  0  0  0
    9.6988   -8.4684    0.0000 N   0  0  0  0  0  0  0  0  0  0  0  0
   11.8729   -3.1134    0.0000 N   0  0  0  0  0  0  0  0  0  0  0  0
    9.7280   -3.5170    0.0000 N   0  0  0  0  0  0  0  0  0  0  0  0
    9.7134   -6.8147    0.0000 C   0  0  0  0  0  0  0  0  0  0  0  0
   12.5830   -4.3487    0.0000 C   0  0  0  0  0  0  0  0  0  0  0  0
   11.1579   -3.5219    0.0000 C   0  0  0  0  0  0  0  0  0  0  0  0
    9.0227   -3.1085    0.0000 C   0  0  0  0  0  0  0  0  0  0  0  0
   10.4284   -7.2378    0.0000 N   0  0  0  0  0  0  0  0  0  0  0  0
   10.4430   -3.1085    0.0000 C   0  0  0  0  0  0  0  0  0  0  0  0
   12.5830   -3.5316    0.0000 C   0  0  0  0  0  0  0  0  0  0  0  0
    9.0130   -5.5744    0.0000 C   0  0  0  0  0  0  0  0  0  0  0  0
    8.3077   -3.5170    0.0000 C   0  0  0  0  0  0  0  0  0  0  0  0
    9.0130   -4.7476    0.0000 N   0  0  0  0  0  0  0  0  0  0  0  0
    8.9984   -7.2281    0.0000 C   0  0  0  0  0  0  0  0  0  0  0  0
   12.5830   -5.9976    0.0000 C   0  0  0  0  0  0  0  0  0  0  0  0
    8.9838   -8.0452    0.0000 C   0  0  0  0  0  0  0  0  0  0  0  0
    6.8681   -3.5170    0.0000 C   0  0  0  0  0  0  0  0  0  0  0  0
    7.5831   -3.0988    0.0000 N   0  0  0  0  0  0  0  0  0  0  0  0
   14.0129   -5.9976    0.0000 C   0  0  0  0  0  0  0  0  0  0  0  0
    6.1531   -3.0988    0.0000 C   0  0  0  0  0  0  0  0  0  0  0  0
   13.2979   -5.5890    0.0000 N   0  0  0  0  0  0  0  0  0  0  0  0
   11.1288   -8.4927    0.0000 N   0  0  0  0  0  0  0  0  0  0  0  0
    8.3077   -4.3391    0.0000 C   0  0  0  0  0  0  0  0  0  0  0  0
   11.1433   -6.8147    0.0000 O   0  0  0  0  0  0  0  0  0  0  0  0
    9.0227   -2.2768    0.0000 O   0  0  0  0  0  0  0  0  0  0  0  0
   13.2979   -4.7719    0.0000 O   0  0  0  0  0  0  0  0  0  0  0  0
   11.1530   -4.3487    0.0000 O   0  0  0  0  0  0  0  0  0  0  0  0
    8.2981   -5.9830    0.0000 O   0  0  0  0  0  0  0  0  0  0  0  0
   14.0129   -6.8293    0.0000 O   0  0  0  0  0  0  0  0  0  0  0  0
    6.8681   -4.3391    0.0000 O   0  0  0  0  0  0  0  0  0  0  0  0
   14.7279   -5.5890    0.0000 N   0  0  0  0  0  0  0  0  0  0  0  0
    8.2689   -8.4538    0.0000 O   0  0  0  0  0  0  0  0  0  0  0  0
   10.4430   -2.2817    0.0000 C   0  0  0  0  0  0  0  0  0  0  0  0
   13.2979   -3.1231    0.0000 C   0  0  0  0  0  0  0  0  0  0  0  0
    5.4382   -3.5074    0.0000 C   0  0  0  0  0  0  0  0  0  0  0  0
    5.4382   -4.3342    0.0000 N   0  0  0  0  0  0  0  0  0  0  0  0
    2.5783   -3.5025    0.0000 N   0  0  0  0  0  0  0  0  0  0  0  0
   14.0129   -3.5316    0.0000 O   0  0  0  0  0  0  0  0  0  0  0  0
    9.7280   -1.8682    0.0000 O   0  0  0  0  0  0  0  0  0  0  0  0
    3.2933   -3.0939    0.0000 C   0  0  0  0  0  0  0  0  0  0  0  0
    4.7232   -3.0939    0.0000 C   0  0  0  0  0  0  0  0  0  0  0  0
    4.0082   -3.5074    0.0000 C   0  0  0  0  0  0  0  0  0  0  0  0
    8.9984   -6.4061    0.0000 H   0  0  0  0  0  0  0  0  0  0  0  0
   10.4430   -6.4061    0.0000 H   0  0  0  0  0  0  0  0  0  0  0  0
  2  5  1  0
  3  2  1  0
  4  1  1  0
  5  1  1  0
  6 14  2  0
  7 22  1  0
  8 16  1  0
  9 15  1  0
 10  3  1  0
 11  4  1  0
 12  8  1  0
 13  9  1  0
 14 10  1  0
 15 12  1  0
 16 11  1  0
 17  3  1  0
 18 29  1  0
 19 17  1  0
 20 10  1  0
 21  1  2  0
 22 20  1  0
 23 24  1  0
 18 24  1  6
 25 27  1  0
 26 23  1  0
 27 21  1  0
 28  6  1  0
 29 19  1  0
 30  5  2  0
 31 13  2  0
 32 11  2  0
 33 12  2  0
 34 17  2  0
 35 25  2  0
 36 23  2  0
 37 25  1  0
 22 38  1  1
 15 39  1  1
 16 40  1  1
 41 26  1  0
 41 42  1  1
 43 46  1  0
 44 40  1  0
 45 39  1  0
 46 48  1  0
 47 41  1  0
 48 47  1  0
 10 49  1  1
  3 50  1  6
 18 13  1  0
  6  7  1  0
M  END
> <chembl_id>
CHEMBL3085436

> <chembl_pref_name>
VIOMYCIN
