
     RDKit          2D

 39 38  0  0  0  0  0  0  0  0999 V2000
    4.3875   -9.6958    0.0000 C   0  0  0  0  0  0  0  0  0  0  0  0
    5.6167   -9.6958    0.0000 C   0  0  0  0  0  0  0  0  0  0  0  0
    4.9792  -10.0333    0.0000 C   0  0  0  0  0  0  0  0  0  0  0  0
    3.7500  -10.0333    0.0000 N   0  0  0  0  0  0  0  0  0  0  0  0
    4.3875   -8.9917    0.0000 C   0  0  0  0  0  0  0  0  0  0  0  0
    5.6167   -8.9917    0.0000 C   0  0  0  0  0  0  0  0  0  0  0  0
    4.9917   -8.6542    0.0000 C   0  0  0  0  0  0  0  0  0  0  0  0
    3.1167   -9.6958    0.0000 C   0  0  0  0  0  0  0  0  0  0  0  0
    6.2333  -10.0417    0.0000 C   0  0  0  0  0  0  0  0  0  0  0  0
    7.4625  -10.0333    0.0000 C   0  0  0  0  0  0  0  0  0  0  0  0
    8.0667   -9.6667    0.0000 O   0  0  0  0  0  0  0  0  0  0  0  0
    7.4792  -10.7333    0.0000 O   0  0  0  0  0  0  0  0  0  0  0  0
    2.4917  -10.0333    0.0000 N   0  0  0  0  0  0  0  0  0  0  0  0
    4.9792  -10.7417    0.0000 I   0  0  0  0  0  0  0  0  0  0  0  0
    6.8500   -9.6958    0.0000 C   0  0  0  0  0  0  0  0  0  0  0  0
    6.2333   -8.6292    0.0000 I   0  0  0  0  0  0  0  0  0  0  0  0
    3.7500   -8.6292    0.0000 I   0  0  0  0  0  0  0  0  0  0  0  0
    1.8750   -9.6958    0.0000 C   0  0  0  0  0  0  0  0  0  0  0  0
    2.4917  -10.7417    0.0000 C   0  0  0  0  0  0  0  0  0  0  0  0
    3.1667   -6.3542    0.0000 C   0  0  0  0  0  0  0  0  0  0  0  0
    4.3958   -6.3542    0.0000 C   0  0  0  0  0  0  0  0  0  0  0  0
    3.7583   -6.6917    0.0000 C   0  0  0  0  0  0  0  0  0  0  0  0
    2.5292   -6.6917    0.0000 N   0  0  0  0  0  0  0  0  0  0  0  0
    3.1667   -5.6500    0.0000 C   0  0  0  0  0  0  0  0  0  0  0  0
    4.3958   -5.6500    0.0000 C   0  0  0  0  0  0  0  0  0  0  0  0
    3.7708   -5.3125    0.0000 C   0  0  0  0  0  0  0  0  0  0  0  0
    1.8958   -6.3542    0.0000 C   0  0  0  0  0  0  0  0  0  0  0  0
    5.0125   -6.7000    0.0000 C   0  0  0  0  0  0  0  0  0  0  0  0
    6.2417   -6.6917    0.0000 C   0  0  0  0  0  0  0  0  0  0  0  0
    6.8458   -6.3250    0.0000 O   0  0  0  0  0  0  0  0  0  0  0  0
    6.2583   -7.3917    0.0000 O   0  0  0  0  0  0  0  0  0  0  0  0
    1.2708   -6.6917    0.0000 N   0  0  0  0  0  0  0  0  0  0  0  0
    3.7583   -7.4000    0.0000 I   0  0  0  0  0  0  0  0  0  0  0  0
    5.6292   -6.3542    0.0000 C   0  0  0  0  0  0  0  0  0  0  0  0
    5.0125   -5.2875    0.0000 I   0  0  0  0  0  0  0  0  0  0  0  0
    2.5292   -5.2875    0.0000 I   0  0  0  0  0  0  0  0  0  0  0  0
    0.6542   -6.3542    0.0000 C   0  0  0  0  0  0  0  0  0  0  0  0
    1.2708   -7.4000    0.0000 C   0  0  0  0  0  0  0  0  0  0  0  0
    7.8083   -6.4042    0.0000 Ca  0  0  0  0  0 15  0  0  0  0  0  0
  2  3  2  0
  3  1  1  0
  4  1  1  0
  5  1  2  0
  6  7  2  0
  7  5  1  0
  8  4  2  0
  9  2  1  0
 10 15  1  0
 11 10  1  0
 12 10  2  0
 13  8  1  0
 14  3  1  0
 15  9  1  0
 16  6  1  0
 17  5  1  0
 18 13  1  0
 19 13  1  0
  2  6  1  0
 38 32  1  0
 21 25  1  0
 21 22  2  0
 22 20  1  0
 23 20  1  0
 24 20  2  0
 25 26  2  0
 26 24  1  0
 27 23  2  0
 28 21  1  0
 29 34  1  0
 30 29  1  0
 31 29  2  0
 32 27  1  0
 33 22  1  0
 34 28  1  0
 35 25  1  0
 36 24  1  0
 37 32  1  0
M  CHG  3  11  -1  30  -1  39   2
M  END
> <chembl_id>
CHEMBL2068725

> <chembl_pref_name>
IPODATE CALCIUM
