
     RDKit          2D

 33 34  0  0  0  0  0  0  0  0999 V2000
   -3.2167    1.4750    0.0000 C   0  0  0  0  0  0  0  0  0  0  0  0
   -2.5042    1.0625    0.0000 C   0  0  0  0  0  0  0  0  0  0  0  0
   -1.7875    1.4750    0.0000 C   0  0  0  0  0  0  0  0  0  0  0  0
   -3.9333    1.0625    0.0000 C   0  0  0  0  0  0  0  0  0  0  0  0
   -3.8000    2.0583    0.0000 O   0  0  0  0  0  0  0  0  0  0  0  0
   -2.9167    0.3458    0.0000 O   0  0  0  0  0  0  0  0  0  0  0  0
   -1.0750    2.7125    0.0000 N   0  0  0  0  0  0  0  0  0  0  0  0
   -0.9917    1.6875    0.0000 O   0  0  0  0  0  0  0  0  0  0  0  0
   -4.7583    1.0625    0.0000 O   0  0  0  0  0  0  0  0  0  0  0  0
   -1.7875    2.3000    0.0000 C   0  0  0  0  0  0  0  0  0  0  0  0
   -4.6458   -0.1750    0.0000 O   0  0  0  0  0  0  0  0  0  0  0  0
   -3.9333    0.2375    0.0000 C   0  0  0  0  0  0  0  0  0  0  0  0
   -0.3583    2.3000    0.0000 C   0  0  0  0  0  0  0  0  0  0  0  0
    1.6167   -0.2542    0.0000 C   0  0  0  0  0  0  0  0  0  0  0  0
    1.2833    0.5000    0.0000 N   0  0  0  0  0  0  0  0  0  0  0  0
    2.4375   -0.1667    0.0000 O   0  0  0  0  0  0  0  0  0  0  0  0
    2.6083    0.6417    0.0000 C   0  0  0  0  0  0  0  0  0  0  0  0
    1.2042   -0.9667    0.0000 C   0  0  0  0  0  0  0  0  0  0  0  0
    1.8958    1.0542    0.0000 C   0  0  0  0  0  0  0  0  0  0  0  0
    4.0375    2.2917    0.0000 C   0  0  0  0  0  0  0  0  0  0  0  0
    3.3250    1.8792    0.0000 C   0  0  0  0  0  0  0  0  0  0  0  0
    3.3250    1.0542    0.0000 C   0  0  0  0  0  0  0  0  0  0  0  0
    1.6167   -1.6833    0.0000 C   0  0  0  0  0  0  0  0  0  0  0  0
    0.3792   -0.9667    0.0000 C   0  0  0  0  0  0  0  0  0  0  0  0
    1.2042   -2.3958    0.0000 C   0  0  0  0  0  0  0  0  0  0  0  0
   -0.0333   -1.6833    0.0000 C   0  0  0  0  0  0  0  0  0  0  0  0
    0.3792   -2.3958    0.0000 C   0  0  0  0  0  0  0  0  0  0  0  0
    4.0375    3.1167    0.0000 O   0  0  0  0  0  0  0  0  0  0  0  0
    1.8958    1.8792    0.0000 C   0  0  0  0  0  0  0  0  0  0  0  0
    2.6083    2.2917    0.0000 C   0  0  0  0  0  0  0  0  0  0  0  0
    4.7542    1.8792    0.0000 O   0  0  0  0  0  0  0  0  0  0  0  0
    1.6167   -3.1125    0.0000 Cl  0  0  0  0  0  0  0  0  0  0  0  0
   -0.8583   -1.6833    0.0000 Cl  0  0  0  0  0  0  0  0  0  0  0  0
  2  1  1  0
  3  2  1  0
  4  1  1  0
  1  5  1  1
  2  6  1  1
  7 10  1  0
  3  8  1  6
  4  9  1  1
 10  3  1  0
 11 12  1  0
 12  4  1  0
 13  7  1  0
 15 14  2  0
 16 14  1  0
 17 16  1  0
 18 14  1  0
 19 15  1  0
 20 21  1  0
 21 22  2  0
 22 17  1  0
 23 18  2  0
 24 18  1  0
 25 23  1  0
 26 24  2  0
 27 26  1  0
 28 20  2  0
 29 19  1  0
 30 29  2  0
 31 20  1  0
 32 25  1  0
 33 26  1  0
 19 17  2  0
 30 21  1  0
 25 27  2  0
M  END
> <chembl_id>
CHEMBL2105675

> <chembl_pref_name>
TAFAMIDIS MEGLUMINE
