
     RDKit          2D

 39 43  0  0  0  0  0  0  0  0999 V2000
    0.2924    0.9959    0.0000 O   0  0  0  0  0  0  0  0  0  0  0  0
    0.7773    0.3285    0.0000 C   0  0  0  0  0  0  0  0  0  0  0  0
    1.5978    0.4147    0.0000 N   0  0  0  0  0  0  0  0  0  0  0  0
    1.9334    1.1684    0.0000 C   0  0  0  0  0  0  0  0  0  0  0  0
    1.4484    1.8359    0.0000 C   0  0  0  0  0  0  0  0  0  0  0  0
    1.7840    2.5895    0.0000 C   0  0  0  0  0  0  0  0  0  0  0  0
    1.2991    3.2570    0.0000 N   0  0  0  0  0  0  0  0  0  0  0  0
    1.5540    4.0416    0.0000 C   0  0  0  0  0  0  0  0  0  0  0  0
    0.8866    4.5265    0.0000 C   0  0  0  0  0  0  0  0  0  0  0  0
    0.8866    5.3515    0.0000 C   0  0  0  0  0  0  0  0  0  0  0  0
    0.2191    4.0416    0.0000 N   0  0  0  0  0  0  0  0  0  0  0  0
    0.4741    3.2570    0.0000 C   0  0  0  0  0  0  0  0  0  0  0  0
    2.6045    2.6758    0.0000 C   0  0  0  0  0  0  0  0  0  0  0  0
    2.7538    1.2547    0.0000 C   0  0  0  0  0  0  0  0  0  0  0  0
    3.0894    2.0083    0.0000 C   0  0  0  0  0  0  0  0  0  0  0  0
    3.9099    2.0946    0.0000 C   0  0  0  0  0  0  0  0  0  0  0  0
    4.7304    2.1808    0.0000 F   0  0  0  0  0  0  0  0  0  0  0  0
    3.9961    1.2741    0.0000 F   0  0  0  0  0  0  0  0  0  0  0  0
    3.8236    2.9150    0.0000 F   0  0  0  0  0  0  0  0  0  0  0  0
    0.4418   -0.4252    0.0000 C   0  0  0  0  0  0  0  0  0  0  0  0
    0.9267   -1.0926    0.0000 C   0  0  0  0  0  0  0  0  0  0  0  0
    0.5911   -1.8463    0.0000 C   0  0  0  0  0  0  0  0  0  0  0  0
   -0.2293   -1.9325    0.0000 C   0  0  0  0  0  0  0  0  0  0  0  0
   -0.5649   -2.6862    0.0000 C   0  0  0  0  0  0  0  0  0  0  0  0
   -0.7143   -1.2651    0.0000 C   0  0  0  0  0  0  0  0  0  0  0  0
   -0.3787   -0.5114    0.0000 C   0  0  0  0  0  0  0  0  0  0  0  0
   -1.5348   -1.3513    0.0000 N   0  0  0  0  0  0  0  0  0  0  0  0
   -1.8703   -2.1050    0.0000 C   0  0  0  0  0  0  0  0  0  0  0  0
   -1.3854   -2.7724    0.0000 N   0  0  0  0  0  0  0  0  0  0  0  0
   -1.7209   -3.5261    0.0000 C   0  0  0  0  0  0  0  0  0  0  0  0
   -2.5414   -3.6123    0.0000 C   0  0  0  0  0  0  0  0  0  0  0  0
   -3.0263   -2.9449    0.0000 C   0  0  0  0  0  0  0  0  0  0  0  0
   -2.6908   -2.1912    0.0000 N   0  0  0  0  0  0  0  0  0  0  0  0
   -3.8468   -3.0311    0.0000 C   0  0  0  0  0  0  0  0  0  0  0  0
   -4.1824   -3.7848    0.0000 C   0  0  0  0  0  0  0  0  0  0  0  0
   -5.0029   -3.8710    0.0000 C   0  0  0  0  0  0  0  0  0  0  0  0
   -5.4878   -3.2036    0.0000 C   0  0  0  0  0  0  0  0  0  0  0  0
   -5.1522   -2.4499    0.0000 N   0  0  0  0  0  0  0  0  0  0  0  0
   -4.3317   -2.3637    0.0000 C   0  0  0  0  0  0  0  0  0  0  0  0
  2  1  2  0
  2  3  1  0
  2 20  1  0
  4  3  1  0
  4  5  2  0
  4 14  1  0
  6  5  1  0
  6  7  1  0
 13  6  2  0
  8  7  1  0
 12  7  1  0
  9  8  2  0
  9 10  1  0
  9 11  1  0
 12 11  2  0
 15 13  1  0
 14 15  2  0
 16 15  1  0
 16 17  1  0
 16 18  1  0
 16 19  1  0
 20 21  2  0
 20 26  1  0
 22 21  1  0
 23 22  2  0
 23 24  1  0
 25 23  1  0
 26 25  2  0
 25 27  1  0
 28 27  1  0
 28 29  2  0
 28 33  1  0
 30 29  1  0
 31 30  2  0
 32 31  1  0
 32 33  2  0
 32 34  1  0
 34 35  2  0
 34 39  1  0
 36 35  1  0
 37 36  2  0
 37 38  1  0
 39 38  2  0
M  END
> <chembl_id>
CHEMBL255863

> <chembl_pref_name>
NILOTINIB
