
     RDKit          2D

 21 19  0  0  0  0  0  0  0  0999 V2000
    4.9286   -5.2232    0.0000 O   0  0  0  0  0  0  0  0  0  0  0  0
    0.9457   -4.1974    0.0000 C   0  0  0  0  0  0  0  0  0  0  0  0
    1.6693   -2.9575    0.0000 C   0  0  0  0  0  0  0  0  0  0  0  0
    3.0733   -2.9671    0.0000 C   0  0  0  0  0  0  0  0  0  0  0  0
    0.2316   -3.7825    0.0000 C   0  0  0  0  0  0  0  0  0  0  0  0
    1.6693   -3.7825    0.0000 C   0  0  0  0  0  0  0  0  0  0  0  0
    2.3641   -2.5522    0.0000 C   0  0  0  0  0  0  0  0  0  0  0  0
    0.2316   -2.9575    0.0000 C   0  0  0  0  0  0  0  0  0  0  0  0
    0.9457   -2.5378    0.0000 C   0  0  0  0  0  0  0  0  0  0  0  0
    3.7535   -2.5522    0.0000 O   0  0  0  0  0  0  0  0  0  0  0  0
    3.0684   -3.7825    0.0000 O   0  0  0  0  0  0  0  0  0  0  0  0
   -0.4776   -4.1974    0.0000 C   0  0  0  0  0  0  0  0  0  0  0  0
    0.9457   -5.0128    0.0000 F   0  0  0  0  0  0  0  0  0  0  0  0
    2.3641   -1.7368    0.0000 C   0  0  0  0  0  0  0  0  0  0  0  0
   -0.4776   -5.0224    0.0000 C   0  0  0  0  0  0  0  0  0  0  0  0
   -1.1868   -3.7825    0.0000 C   0  0  0  0  0  0  0  0  0  0  0  0
   -1.9057   -4.1974    0.0000 C   0  0  0  0  0  0  0  0  0  0  0  0
   -1.1868   -5.4325    0.0000 C   0  0  0  0  0  0  0  0  0  0  0  0
   -1.9057   -5.0224    0.0000 C   0  0  0  0  0  0  0  0  0  0  0  0
    2.5097   -4.9731    0.0000 Na  0  0  0  0  0 15  0  0  0  0  0  0
    3.8036   -4.3125    0.0000 O   0  0  0  0  0  0  0  0  0  0  0  0
  3  6  1  0
  4  7  1  0
  5  2  1  0
  6  2  2  0
  7  3  1  0
  8  5  2  0
  9  3  2  0
 10  4  1  0
 11  4  2  0
 12  5  1  0
 13  2  1  0
 14  7  1  0
 15 12  2  0
 16 12  1  0
 17 16  2  0
 18 15  1  0
 19 18  2  0
  8  9  1  0
 17 19  1  0
M  CHG  2  10  -1  20   1
M  END
> <chembl_id>
CHEMBL3989754

> <chembl_pref_name>
FLURBIPROFEN SODIUM
