
     RDKit          2D

 28 30  0  0  0  0  0  0  0  0999 V2000
  -10.1666   -0.2942    0.0000 C   0  0  0  0  0  0  0  0  0  0  0  0
   -9.5254   -0.8134    0.0000 C   0  0  0  0  0  0  0  0  0  0  0  0
   -8.7552   -0.5177    0.0000 C   0  0  0  0  0  0  0  0  0  0  0  0
   -8.1141   -1.0369    0.0000 C   0  0  0  0  0  0  0  0  0  0  0  0
   -7.4222   -0.5876    0.0000 C   0  0  0  0  0  0  0  0  0  0  0  0
   -6.6520   -0.8833    0.0000 C   0  0  0  0  0  0  0  0  0  0  0  0
   -6.0108   -0.3641    0.0000 N   0  0  0  0  0  0  0  0  0  0  0  0
   -5.2406   -0.6596    0.0000 C   0  0  0  0  0  0  0  0  0  0  0  0
   -4.5995   -0.1405    0.0000 C   0  0  0  0  0  0  0  0  0  0  0  0
   -3.8292   -0.4362    0.0000 N   0  0  0  0  0  0  0  0  0  0  0  0
   -3.1881    0.0830    0.0000 N   0  0  0  0  0  0  0  0  0  0  0  0
   -2.4962   -0.3663    0.0000 C   0  0  0  0  0  0  0  0  0  0  0  0
   -1.7260   -0.0707    0.0000 C   0  0  0  0  0  0  0  0  0  0  0  0
   -1.0849   -0.5899    0.0000 C   0  0  0  0  0  0  0  0  0  0  0  0
   -0.3147   -0.2942    0.0000 C   0  0  0  0  0  0  0  0  0  0  0  0
   -9.6545   -1.6282    0.0000 O   0  0  0  0  0  0  0  0  0  0  0  0
   -8.4596    0.2525    0.0000 N   0  0  0  0  0  0  0  0  0  0  0  0
   -7.6357    0.2093    0.0000 N   0  0  0  0  0  0  0  0  0  0  0  0
   -6.5584   -1.6707    0.0000 O   0  0  0  0  0  0  0  0  0  0  0  0
   -5.0726   -1.4551    0.0000 C   0  0  0  0  0  0  0  0  0  0  0  0
   -3.5335   -1.2064    0.0000 C   0  0  0  0  0  0  0  0  0  0  0  0
   -2.7097   -1.1632    0.0000 C   0  0  0  0  0  0  0  0  0  0  0  0
   -0.8267    1.0399    0.0000 C   0  0  0  0  0  0  0  0  0  0  0  0
   -1.5969    0.7442    0.0000 C   0  0  0  0  0  0  0  0  0  0  0  0
   -0.1855    0.5207    0.0000 C   0  0  0  0  0  0  0  0  0  0  0  0
   -0.7405    1.8603    0.0000 Cl  0  0  0  0  0  0  0  0  0  0  0  0
    0.5681    0.8562    0.0000 C   0  0  0  0  0  0  0  0  0  0  0  0
    1.3217    1.1918    0.0000 N   0  0  0  0  0  0  0  0  0  0  0  0
  1  2  1  0
  2  3  1  0
  3  4  2  0
  4  5  1  0
  5  6  1  0
  6  7  1  0
  7  8  1  0
  8  9  1  0
  9 10  1  0
 10 11  1  0
 11 12  2  0
 12 13  1  0
  2 16  1  0
  3 17  1  0
 17 18  1  0
 18  5  2  0
  6 19  2  0
  8 20  1  6
 10 21  1  0
 21 22  2  0
 22 12  1  0
 23 24  2  0
 23 25  1  0
 15 25  2  0
 24 13  1  0
 14 15  1  0
 13 14  2  0
 23 26  1  0
 25 27  1  0
 27 28  3  0
M  END
> <chembl_id>
CHEMBL4297185

> <chembl_pref_name>
DAROLUTAMIDE
