
     RDKit          2D

 21 20  0  0  0  0  0  0  0  0999 V2000
    3.7469   -1.5495    0.0000 O   0  0  0  0  0  0  0  0  0  0  0  0
    0.7897    0.1086    0.0000 C   0  0  0  0  0  0  0  0  0  0  0  0
    0.0752    0.5211    0.0000 N   0  0  0  0  0  0  0  0  0  0  0  0
   -1.3537    0.5211    0.0000 C   0  0  0  0  0  0  0  0  0  0  0  0
   -0.6393    0.1086    0.0000 C   0  0  0  0  0  0  0  0  0  0  0  0
    0.7897   -0.7164    0.0000 C   0  0  0  0  0  0  0  0  0  0  0  0
   -1.3537    1.3461    0.0000 C   0  0  0  0  0  0  0  0  0  0  0  0
    1.5041    0.5211    0.0000 C   0  0  0  0  0  0  0  0  0  0  0  0
    1.5041   -1.1289    0.0000 C   0  0  0  0  0  0  0  0  0  0  0  0
   -0.6393    1.7586    0.0000 O   0  0  0  0  0  0  0  0  0  0  0  0
   -2.0682    1.7586    0.0000 O   0  0  0  0  0  0  0  0  0  0  0  0
    2.2186    0.1086    0.0000 C   0  0  0  0  0  0  0  0  0  0  0  0
    2.2186   -0.7164    0.0000 C   0  0  0  0  0  0  0  0  0  0  0  0
    0.0752   -1.1289    0.0000 Cl  0  0  0  0  0  0  0  0  0  0  0  0
    1.5041    1.3461    0.0000 Cl  0  0  0  0  0  0  0  0  0  0  0  0
   -2.0682    0.1086    0.0000 C   0  0  0  0  0  0  0  0  0  0  0  0
   -0.6393   -0.7164    0.0000 C   0  0  0  0  0  0  0  0  0  0  0  0
    1.5041   -1.9539    0.0000 C   0  0  0  0  0  0  0  0  0  0  0  0
   -2.0682   -0.7164    0.0000 C   0  0  0  0  0  0  0  0  0  0  0  0
   -1.3537   -1.1289    0.0000 C   0  0  0  0  0  0  0  0  0  0  0  0
    4.4579    0.0000    0.0000 Na  0  0  0  0  0 15  0  0  0  0  0  0
  3  2  1  0
  4  5  2  0
  5  3  1  0
  6  2  1  0
  7  4  1  0
  8  2  2  0
  9  6  2  0
 10  7  1  0
 11  7  2  0
 12  8  1  0
 13 12  2  0
 14  6  1  0
 15  8  1  0
 16  4  1  0
 17  5  1  0
 18  9  1  0
 19 20  1  0
 20 17  2  0
 13  9  1  0
 16 19  2  0
M  CHG  2  10  -1  21   1
M  END
> <chembl_id>
CHEMBL1562610

> <chembl_pref_name>
MECLOFENAMATE SODIUM
