
     RDKit          2D

 41 44  0  0  0  0  0  0  0  0999 V2000
    0.1238   -0.1709    0.0000 C   0  0  0  0  0  0  0  0  0  0  0  0
    0.7071    0.4125    0.0000 S   0  0  0  0  0  0  0  0  0  0  0  0
    0.7071    1.2375    0.0000 O   0  0  0  0  0  0  0  0  0  0  0  0
    1.2905   -0.1709    0.0000 C   0  0  0  0  0  0  0  0  0  0  0  0
   -8.6920    1.3259    0.0000 C   0  0  0  0  0  0  0  0  0  0  0  0
   -9.4065    0.9134    0.0000 C   0  0  0  0  0  0  0  0  0  0  0  0
   -9.4065    0.0884    0.0000 C   0  0  0  0  0  0  0  0  0  0  0  0
   -8.6920   -0.3241    0.0000 C   0  0  0  0  0  0  0  0  0  0  0  0
   -7.9775    0.0884    0.0000 C   0  0  0  0  0  0  0  0  0  0  0  0
   -7.9775    0.9134    0.0000 C   0  0  0  0  0  0  0  0  0  0  0  0
   -7.2630    1.3259    0.0000 N   0  0  0  0  0  0  0  0  0  0  0  0
   -6.5485    0.9134    0.0000 C   0  0  0  0  0  0  0  0  0  0  0  0
   -5.8340    1.3259    0.0000 C   0  0  0  0  0  0  0  0  0  0  0  0
   -5.8340    2.1509    0.0000 C   0  0  0  0  0  0  0  0  0  0  0  0
   -6.5485    2.5634    0.0000 N   0  0  0  0  0  0  0  0  0  0  0  0
   -7.2630    2.1509    0.0000 C   0  0  0  0  0  0  0  0  0  0  0  0
   -6.5485    0.0884    0.0000 C   0  0  0  0  0  0  0  0  0  0  0  0
   -5.8341   -0.3241    0.0000 C   0  0  0  0  0  0  0  0  0  0  0  0
   -5.1196    0.0884    0.0000 N   0  0  0  0  0  0  0  0  0  0  0  0
   -5.1196    0.9134    0.0000 C   0  0  0  0  0  0  0  0  0  0  0  0
   -4.4051    1.3259    0.0000 N   0  0  0  0  0  0  0  0  0  0  0  0
   -3.6906    0.9134    0.0000 C   0  0  0  0  0  0  0  0  0  0  0  0
   -3.6907    0.0884    0.0000 C   0  0  0  0  0  0  0  0  0  0  0  0
   -2.9762   -0.3241    0.0000 C   0  0  0  0  0  0  0  0  0  0  0  0
   -2.2617    0.0884    0.0000 C   0  0  0  0  0  0  0  0  0  0  0  0
   -2.2617    0.9134    0.0000 C   0  0  0  0  0  0  0  0  0  0  0  0
   -2.9762    1.3259    0.0000 C   0  0  0  0  0  0  0  0  0  0  0  0
   -2.9762    2.1509    0.0000 F   0  0  0  0  0  0  0  0  0  0  0  0
   -1.5472   -0.3241    0.0000 I   0  0  0  0  0  0  0  0  0  0  0  0
   -4.4051   -0.3241    0.0000 C   0  0  0  0  0  0  0  0  0  0  0  0
   -5.8341   -1.1491    0.0000 O   0  0  0  0  0  0  0  0  0  0  0  0
   -7.2630   -0.3241    0.0000 C   0  0  0  0  0  0  0  0  0  0  0  0
   -5.1196    2.5634    0.0000 O   0  0  0  0  0  0  0  0  0  0  0  0
   -7.9775    2.5634    0.0000 O   0  0  0  0  0  0  0  0  0  0  0  0
   -6.5485    3.3884    0.0000 C   0  0  0  0  0  0  0  0  0  0  0  0
   -6.1361    4.1029    0.0000 C   0  0  0  0  0  0  0  0  0  0  0  0
   -6.9610    4.1029    0.0000 C   0  0  0  0  0  0  0  0  0  0  0  0
  -10.1209    1.3259    0.0000 N   0  0  0  0  0  0  0  0  0  0  0  0
  -10.8354    0.9134    0.0000 C   0  0  0  0  0  0  0  0  0  0  0  0
  -11.5499    1.3259    0.0000 C   0  0  0  0  0  0  0  0  0  0  0  0
  -10.8354    0.0884    0.0000 O   0  0  0  0  0  0  0  0  0  0  0  0
  1  2  1  0
  3  2  1  0
  2  4  1  0
  5  6  1  0
  5 10  2  0
  6  7  2  0
  7  8  1  0
  8  9  2  0
  9 10  1  0
 10 11  1  0
 11 12  1  0
 16 11  1  0
 13 14  1  0
 14 15  1  0
 15 16  1  0
 12 17  2  0
 13 12  1  0
 20 13  2  0
 17 18  1  0
 18 19  1  0
 19 20  1  0
 20 21  1  0
 21 22  1  0
 22 23  1  0
 22 27  2  0
 23 24  2  0
 24 25  1  0
 25 26  2  0
 26 27  1  0
 27 28  1  0
 25 29  1  0
 19 30  1  0
 18 31  2  0
 17 32  1  0
 14 33  2  0
 16 34  2  0
 15 35  1  0
 35 36  1  0
 37 35  1  0
 36 37  1  0
  6 38  1  0
 38 39  1  0
 39 40  1  0
 39 41  2  0
M  CHG  2   2   1   3  -1
M  END
> <chembl_id>
CHEMBL2105741

> <chembl_pref_name>
TRAMETINIB DIMETHYL SULFOXIDE
