
     RDKit          2D

 28 31  0  0  1  0  0  0  0  0999 V2000
    5.4125   -4.3500    0.0000 C   0  0  0  0  0  0  0  0  0  0  0  0
    4.1875   -4.3292    0.0000 C   0  0  0  0  0  0  0  0  0  0  0  0
    4.7792   -5.4042    0.0000 C   0  0  0  0  0  0  0  0  0  0  0  0
    4.1875   -5.0417    0.0000 C   0  0  0  0  0  0  0  0  0  0  0  0
    5.4125   -5.0667    0.0000 C   0  0  0  0  0  0  0  0  0  0  0  0
    3.5542   -6.1042    0.0000 C   0  0  0  0  0  0  0  0  0  0  0  0
    4.8000   -3.9917    0.0000 C   0  0  0  0  0  0  0  0  0  0  0  0
    3.5542   -5.4042    0.0000 C   0  0  0  0  0  0  0  0  0  0  0  0
    6.0792   -4.1417    0.0000 C   0  0  0  0  0  0  0  0  0  0  0  0
    2.9500   -6.4417    0.0000 C   0  0  0  0  0  0  0  0  0  0  0  0
    6.7875   -3.9792    0.0000 C   0  0  0  0  0  0  0  0  0  0  0  0
    4.7792   -6.1167    0.0000 C   0  0  0  0  0  0  0  0  0  0  0  0
    6.0667   -5.2792    0.0000 C   0  0  0  0  0  0  0  0  0  0  0  0
    7.5676   -3.8002    0.0000 C   0  0  0  0  0  0  0  0  0  0  0  0
    2.9667   -5.0417    0.0000 C   0  0  0  0  0  0  0  0  0  0  0  0
    4.1667   -6.4417    0.0000 C   0  0  0  0  0  0  0  0  0  0  0  0
    2.3542   -6.0792    0.0000 C   0  0  0  0  0  0  0  0  0  0  0  0
    3.6000   -3.9667    0.0000 C   0  0  0  0  0  0  0  0  0  0  0  0
    6.4625   -4.6875    0.0000 C   0  0  0  0  0  0  0  0  0  0  0  0
    1.7417   -6.4042    0.0000 O   0  0  0  0  0  0  0  0  0  0  0  0
    2.3542   -5.4042    0.0000 C   0  0  0  0  0  0  0  0  0  0  0  0
    6.0792   -3.4542    0.0000 O   0  0  0  0  0  0  0  0  0  0  0  0
    5.4125   -3.5875    0.0000 C   0  0  0  0  0  0  0  0  0  0  0  0
    4.8167   -3.2417    0.0000 C   0  0  0  0  0  0  0  0  0  0  0  0
    5.4125   -5.8375    0.0000 H   0  0  0  0  0  0  0  0  0  0  0  0
    4.8000   -4.6875    0.0000 H   0  0  0  0  0  0  0  0  0  0  0  0
    4.1667   -5.7667    0.0000 H   0  0  0  0  0  0  0  0  0  0  0  0
    3.5542   -4.6875    0.0000 H   0  0  0  0  0  0  0  0  0  0  0  0
  2  7  1  0
  3  5  1  0
  4  2  1  0
  5  1  1  0
  6  8  1  0
  7  1  1  0
  8  4  1  0
  9  1  1  0
 10  6  2  0
  9 11  1  6
 12  3  1  0
 13  5  1  0
 14 11  3  0
 15  8  1  0
 16 12  1  0
 17 21  1  0
 18  2  2  0
 19  9  1  0
 20 17  2  0
 21 15  1  0
  9 22  1  1
  1 23  1  1
 24 23  1  0
  5 25  1  6
  3 26  1  1
  4 27  1  6
  8 28  1  1
 19 13  1  0
  4  3  1  0
  6 16  1  0
 17 10  1  0
M  END
> <chembl_id>
CHEMBL1531

> <chembl_pref_name>
ETONOGESTREL
