
     RDKit          2D

 23 25  0  0  0  0  0  0  0  0999 V2000
   -0.8708   -1.2417    0.0000 C   0  0  0  0  0  0  0  0  0  0  0  0
    2.5792    0.7708    0.0000 N   0  0  0  0  0  0  0  0  0  0  0  0
   -0.8708   -0.0917    0.0000 C   0  0  0  0  0  0  0  0  0  0  0  0
   -2.0208   -1.2417    0.0000 C   0  0  0  0  0  0  0  0  0  0  0  0
   -0.8833   -2.4417    0.0000 O   0  0  0  0  0  0  0  0  0  0  0  0
    0.2667   -1.2417    0.0000 C   0  0  0  0  0  0  0  0  0  0  0  0
    2.0000   -0.2292    0.0000 C   0  0  0  0  0  0  0  0  0  0  0  0
    0.8417   -0.2417    0.0000 C   0  0  0  0  0  0  0  0  0  0  0  0
    3.7292    0.7708    0.0000 C   0  0  0  0  0  0  0  0  0  0  0  0
    2.0167    1.7625    0.0000 C   0  0  0  0  0  0  0  0  0  0  0  0
   -2.6000   -2.2417    0.0000 C   0  0  0  0  0  0  0  0  0  0  0  0
    0.1167    0.4708    0.0000 C   0  0  0  0  0  0  0  0  0  0  0  0
   -1.8708    0.4708    0.0000 C   0  0  0  0  0  0  0  0  0  0  0  0
   -2.5833   -0.2542    0.0000 C   0  0  0  0  0  0  0  0  0  0  0  0
    4.3417    1.7625    0.0000 C   0  0  0  0  0  0  0  0  0  0  0  0
    2.5792    2.7333    0.0000 C   0  0  0  0  0  0  0  0  0  0  0  0
    0.1167    1.6375    0.0000 C   0  0  0  0  0  0  0  0  0  0  0  0
   -1.8708    1.6208    0.0000 C   0  0  0  0  0  0  0  0  0  0  0  0
   -3.8000   -0.2542    0.0000 C   0  0  0  0  0  0  0  0  0  0  0  0
   -3.7375   -2.2625    0.0000 C   0  0  0  0  0  0  0  0  0  0  0  0
   -0.8708    2.2208    0.0000 C   0  0  0  0  0  0  0  0  0  0  0  0
   -4.3458   -1.2417    0.0000 C   0  0  0  0  0  0  0  0  0  0  0  0
    3.7792    2.7333    0.0000 C   0  0  0  0  0  0  0  0  0  0  0  0
  2  7  1  0
  3  1  1  0
  4  1  1  0
  5  1  1  0
  6  1  1  0
  7  8  1  0
  8  6  1  0
  9  2  1  0
 10  2  1  0
 11  4  1  0
 12  3  2  0
 13  3  1  0
 14  4  2  0
 15  9  1  0
 16 10  1  0
 17 12  1  0
 18 13  2  0
 19 14  1  0
 20 11  2  0
 21 18  1  0
 22 19  2  0
 23 16  1  0
 20 22  1  0
 17 21  2  0
 15 23  1  0
M  END
> <chembl_id>
CHEMBL936

> <chembl_pref_name>
DIPHENIDOL
