
     RDKit          2D

 21 22  0  0  0  0  0  0  0  0999 V2000
    2.7875   -2.3667    0.0000 C   0  0  0  0  0  0  0  0  0  0  0  0
    4.6417   -2.0042    0.0000 N   0  0  0  0  0  0  0  0  0  0  0  0
    3.4042   -2.0042    0.0000 C   0  0  0  0  0  0  0  0  0  0  0  0
    5.2625   -2.3667    0.0000 C   0  0  0  0  0  0  0  0  0  0  0  0
    2.1750   -2.0292    0.0000 C   0  0  0  0  0  0  0  0  0  0  0  0
    2.7875   -3.0625    0.0000 C   0  0  0  0  0  0  0  0  0  0  0  0
    4.0250   -2.3667    0.0000 C   0  0  0  0  0  0  0  0  0  0  0  0
    5.2625   -3.0750    0.0000 C   0  0  0  0  0  0  0  0  0  0  0  0
    5.9792   -2.7500    0.0000 C   0  0  0  0  0  0  0  0  0  0  0  0
    5.8750   -2.0042    0.0000 C   0  0  0  0  0  0  0  0  0  0  0  0
    2.1750   -3.4042    0.0000 C   0  0  0  0  0  0  0  0  0  0  0  0
    2.1750   -1.3375    0.0000 C   0  0  0  0  0  0  0  0  0  0  0  0
    1.5667   -2.3875    0.0000 C   0  0  0  0  0  0  0  0  0  0  0  0
    3.4000   -3.4167    0.0000 C   0  0  0  0  0  0  0  0  0  0  0  0
    4.0250   -3.0625    0.0000 C   0  0  0  0  0  0  0  0  0  0  0  0
    2.1750   -4.1250    0.0000 C   0  0  0  0  0  0  0  0  0  0  0  0
    1.5542   -0.9792    0.0000 C   0  0  0  0  0  0  0  0  0  0  0  0
    0.9417   -2.0292    0.0000 C   0  0  0  0  0  0  0  0  0  0  0  0
    3.4042   -4.1250    0.0000 C   0  0  0  0  0  0  0  0  0  0  0  0
    0.9417   -1.3417    0.0000 C   0  0  0  0  0  0  0  0  0  0  0  0
    2.7917   -4.4542    0.0000 C   0  0  0  0  0  0  0  0  0  0  0  0
  2  7  1  0
  3  1  1  0
  4  2  1  0
  5  1  1  0
  6  1  1  0
  7  3  1  0
  8  4  1  0
  9  4  1  0
 10  4  1  0
 11  6  2  0
 12  5  2  0
 13  5  1  0
 14  6  1  0
 15  7  1  0
 16 11  1  0
 17 12  1  0
 18 13  2  0
 19 14  2  0
 20 18  1  0
 21 16  2  0
 21 19  1  0
 17 20  2  0
M  END
> <chembl_id>
CHEMBL363295

> <chembl_pref_name>
TERODILINE
