
     RDKit          2D

 51 55  0  0  0  0  0  0  0  0999 V2000
   16.2282   -6.1773    0.0000 C   0  0  0  0  0  0  0  0  0  0  0  0
   16.2270   -7.0053    0.0000 C   0  0  0  0  0  0  0  0  0  0  0  0
   16.9429   -7.4205    0.0000 C   0  0  0  0  0  0  0  0  0  0  0  0
   16.9411   -5.7664    0.0000 C   0  0  0  0  0  0  0  0  0  0  0  0
   17.6575   -6.1737    0.0000 C   0  0  0  0  0  0  0  0  0  0  0  0
   17.6609   -7.0027    0.0000 C   0  0  0  0  0  0  0  0  0  0  0  0
   18.3772   -7.4142    0.0000 C   0  0  0  0  0  0  0  0  0  0  0  0
   18.3704   -5.7560    0.0000 C   0  0  0  0  0  0  0  0  0  0  0  0
   19.0913   -6.1679    0.0000 C   0  0  0  0  0  0  0  0  0  0  0  0
   19.0938   -6.9929    0.0000 C   0  0  0  0  0  0  0  0  0  0  0  0
   19.8047   -7.4035    0.0000 C   0  0  0  0  0  0  0  0  0  0  0  0
   19.7958   -5.7552    0.0000 C   0  0  0  0  0  0  0  0  0  0  0  0
   18.3660   -4.9305    0.0000 O   0  0  0  0  0  0  0  0  0  0  0  0
   18.3815   -8.2398    0.0000 O   0  0  0  0  0  0  0  0  0  0  0  0
   16.9486   -8.2456    0.0000 O   0  0  0  0  0  0  0  0  0  0  0  0
   17.6644   -8.6560    0.0000 C   0  0  0  0  0  0  0  0  0  0  0  0
   19.7897   -4.9297    0.0000 O   0  0  0  0  0  0  0  0  0  0  0  0
   19.8081   -8.2291    0.0000 O   0  0  0  0  0  0  0  0  0  0  0  0
   20.5115   -6.1581    0.0000 C   0  0  0  0  0  0  0  0  0  0  0  0
   20.5149   -6.9818    0.0000 C   0  0  0  0  0  0  0  0  0  0  0  0
   21.2268   -7.3906    0.0000 C   0  0  0  0  0  0  0  0  0  0  0  0
   21.9396   -6.9758    0.0000 C   0  0  0  0  0  0  0  0  0  0  0  0
   21.9361   -6.1519    0.0000 C   0  0  0  0  0  0  0  0  0  0  0  0
   21.2197   -5.7429    0.0000 C   0  0  0  0  0  0  0  0  0  0  0  0
   22.6503   -5.7389    0.0000 C   0  0  0  0  0  0  0  0  0  0  0  0
   23.3682   -6.1460    0.0000 C   0  0  0  0  0  0  0  0  0  0  0  0
   22.6485   -4.9120    0.0000 O   0  0  0  0  0  0  0  0  0  0  0  0
   24.0815   -5.7314    0.0000 O   0  0  0  0  0  0  0  0  0  0  0  0
   24.7951   -6.1384    0.0000 C   0  0  0  0  0  0  0  0  0  0  0  0
   22.6476   -6.5632    0.0000 O   0  0  0  0  0  0  0  0  0  0  0  0
   21.2291   -8.2162    0.0000 O   0  0  0  0  0  0  0  0  0  0  0  0
   24.7994   -6.9639    0.0000 O   0  0  0  0  0  0  0  0  0  0  0  0
   25.5084   -5.7239    0.0000 C   0  0  0  0  0  0  0  0  0  0  0  0
   26.2261   -6.1307    0.0000 C   0  0  0  0  0  0  0  0  0  0  0  0
   26.9394   -5.7162    0.0000 C   0  0  0  0  0  0  0  0  0  0  0  0
   27.6572   -6.1231    0.0000 C   0  0  0  0  0  0  0  0  0  0  0  0
   21.9459   -8.6248    0.0000 C   0  0  0  0  0  0  0  0  0  0  0  0
   21.9425   -9.4471    0.0000 C   0  0  0  0  0  0  0  0  0  0  0  0
   22.6551   -9.8598    0.0000 C   0  0  0  0  0  0  0  0  0  0  0  0
   23.3719   -9.4463    0.0000 C   0  0  0  0  0  0  0  0  0  0  0  0
   23.3715   -8.6198    0.0000 C   0  0  0  0  0  0  0  0  0  0  0  0
   22.6543   -8.2067    0.0000 O   0  0  0  0  0  0  0  0  0  0  0  0
   24.0872   -8.2095    0.0000 C   0  0  0  0  0  0  0  0  0  0  0  0
   24.0871   -9.8618    0.0000 O   0  0  0  0  0  0  0  0  0  0  0  0
   22.6544  -10.6855    0.0000 N   0  0  0  0  0  0  0  0  0  0  0  0
   21.9385  -11.0955    0.0000 C   0  0  0  0  0  0  0  0  0  0  0  0
   21.2234  -10.6842    0.0000 C   0  0  0  0  0  0  0  0  0  0  0  0
   21.9378  -11.9211    0.0000 O   0  0  0  0  0  0  0  0  0  0  0  0
   21.2241   -9.8587    0.0000 F   0  0  0  0  0  0  0  0  0  0  0  0
   20.5075  -11.0943    0.0000 F   0  0  0  0  0  0  0  0  0  0  0  0
   20.5028  -10.2680    0.0000 F   0  0  0  0  0  0  0  0  0  0  0  0
 11 20  2  0
 23 25  1  0
 19 12  2  0
 25 26  1  0
 25 27  2  0
 12  9  1  0
 26 28  1  0
  2  3  1  0
 28 29  1  0
  8 13  2  0
 23 30  1  6
  3  6  2  0
 21 31  1  6
  7 14  2  0
  1  2  2  0
 29 32  2  0
  5  8  1  0
 29 33  1  0
 15 16  1  0
 33 34  1  0
  3 15  1  0
 34 35  1  0
  6  7  1  0
 35 36  1  0
 12 17  1  0
 37 31  1  6
 37 38  1  0
  7 10  1  0
 11 18  1  0
 19 20  1  0
  9  8  1  0
  5  4  2  0
 37 42  1  0
 38 39  1  0
 39 40  1  0
 40 41  1  0
 41 42  1  0
  4  1  1  0
 41 43  1  1
  9 10  2  0
 40 44  1  1
  5  6  1  0
 39 45  1  1
 10 11  1  0
 45 46  1  0
 19 24  1  0
 46 47  1  0
 20 21  1  0
 46 48  2  0
 21 22  1  0
 47 49  1  0
 22 23  1  0
 47 50  1  0
 23 24  1  0
 47 51  1  0
M  END
> <chembl_id>
CHEMBL1096885

> <chembl_pref_name>
VALRUBICIN
