
     RDKit          2D

 19 22  0  0  0  0  0  0  0  0999 V2000
    5.9000   -0.9542    0.0000 N   0  0  0  0  0  0  0  0  0  0  0  0
    6.6042   -1.1042    0.0000 C   0  0  0  0  0  0  0  0  0  0  0  0
    5.8250   -0.2417    0.0000 C   0  0  0  0  0  0  0  0  0  0  0  0
    6.4833    0.0542    0.0000 N   0  0  0  0  0  0  0  0  0  0  0  0
    5.3458   -1.4083    0.0000 C   0  0  0  0  0  0  0  0  0  0  0  0
    6.9208   -1.7500    0.0000 C   0  0  0  0  0  0  0  0  0  0  0  0
    6.9667   -0.4833    0.0000 C   0  0  0  0  0  0  0  0  0  0  0  0
    5.3458   -2.1208    0.0000 C   0  0  0  0  0  0  0  0  0  0  0  0
    6.6125   -2.4000    0.0000 C   0  0  0  0  0  0  0  0  0  0  0  0
    5.9125   -2.5667    0.0000 C   0  0  0  0  0  0  0  0  0  0  0  0
    5.2042    0.1125    0.0000 N   0  0  0  0  0  0  0  0  0  0  0  0
    4.7333   -1.0542    0.0000 C   0  0  0  0  0  0  0  0  0  0  0  0
    7.6292   -1.6875    0.0000 C   0  0  0  0  0  0  0  0  0  0  0  0
    4.7333   -2.4750    0.0000 C   0  0  0  0  0  0  0  0  0  0  0  0
    7.0208   -2.9875    0.0000 C   0  0  0  0  0  0  0  0  0  0  0  0
    4.1208   -1.4125    0.0000 C   0  0  0  0  0  0  0  0  0  0  0  0
    8.0417   -2.2750    0.0000 C   0  0  0  0  0  0  0  0  0  0  0  0
    7.7375   -2.9292    0.0000 C   0  0  0  0  0  0  0  0  0  0  0  0
    4.1208   -2.1208    0.0000 C   0  0  0  0  0  0  0  0  0  0  0  0
  2  1  1  0
  3  1  1  0
  4  3  2  0
  5  1  1  0
  6  2  1  0
  7  2  1  0
  8  5  1  0
  9  6  2  0
 10  8  1  0
 11  3  1  0
 12  5  2  0
 13  6  1  0
 14  8  2  0
 15  9  1  0
 16 12  1  0
 17 13  2  0
 18 17  1  0
 19 14  1  0
  4  7  1  0
  9 10  1  0
 19 16  2  0
 18 15  2  0
M  END
> <chembl_id>
CHEMBL1106

> <chembl_pref_name>
EPINASTINE
