
     RDKit          2D

 19 19  0  0  0  0  0  0  0  0999 V2000
   -5.1903    0.3921    0.0000 O   0  0  0  0  0  0  0  0  0  0  0  0
   -3.7614    1.2171    0.0000 O   0  0  0  0  0  0  0  0  0  0  0  0
   -4.4759   -0.0204    0.0000 N   0  0  0  0  0  0  0  0  0  0  0  0
   -3.7614    0.3921    0.0000 C   0  0  0  0  0  0  0  0  0  0  0  0
   -3.0469   -0.0204    0.0000 C   0  0  0  0  0  0  0  0  0  0  0  0
   -2.3324    0.3921    0.0000 C   0  0  0  0  0  0  0  0  0  0  0  0
   -1.6180   -0.0204    0.0000 C   0  0  0  0  0  0  0  0  0  0  0  0
   -0.9035    0.3921    0.0000 C   0  0  0  0  0  0  0  0  0  0  0  0
   -0.1890   -0.0204    0.0000 C   0  0  0  0  0  0  0  0  0  0  0  0
    0.5254    0.3921    0.0000 C   0  0  0  0  0  0  0  0  0  0  0  0
    1.2399   -0.0204    0.0000 C   0  0  0  0  0  0  0  0  0  0  0  0
    1.2399   -0.8454    0.0000 O   0  0  0  0  0  0  0  0  0  0  0  0
    1.9544    0.3921    0.0000 N   0  0  0  0  0  0  0  0  0  0  0  0
    2.6689   -0.0204    0.0000 C   0  0  0  0  0  0  0  0  0  0  0  0
    3.3833    0.3921    0.0000 C   0  0  0  0  0  0  0  0  0  0  0  0
    4.0978   -0.0204    0.0000 C   0  0  0  0  0  0  0  0  0  0  0  0
    4.0978   -0.8454    0.0000 C   0  0  0  0  0  0  0  0  0  0  0  0
    3.3833   -1.2579    0.0000 C   0  0  0  0  0  0  0  0  0  0  0  0
    2.6689   -0.8454    0.0000 C   0  0  0  0  0  0  0  0  0  0  0  0
  3  1  1  0
  4  2  2  0
  4  3  1  0
  4  5  1  0
  5  6  1  0
  6  7  1  0
  7  8  1  0
  8  9  1  0
  9 10  1  0
 10 11  1  0
 11 12  2  0
 11 13  1  0
 14 13  1  0
 15 14  2  0
 19 14  1  0
 15 16  1  0
 16 17  2  0
 17 18  1  0
 18 19  2  0
M  END
> <chembl_id>
CHEMBL98

> <chembl_pref_name>
VORINOSTAT
