
     RDKit          2D

 51 55  0  0  0  0  0  0  0  0999 V2000
   -4.6554   -6.3054    0.0000 C   0  0  0  0  0  0  0  0  0  0  0  0
   -4.0720   -5.7220    0.0000 C   0  0  0  0  0  0  0  0  0  0  0  0
   -4.6554   -5.1386    0.0000 C   0  0  0  0  0  0  0  0  0  0  0  0
   -3.6595   -5.0075    0.0000 C   0  0  0  0  0  0  0  0  0  0  0  0
   -3.3575   -6.1345    0.0000 O   0  0  0  0  0  0  0  0  0  0  0  0
   -2.6431   -5.7220    0.0000 C   0  0  0  0  0  0  0  0  0  0  0  0
   -2.6431   -4.8970    0.0000 O   0  0  0  0  0  0  0  0  0  0  0  0
   -1.9286   -6.1345    0.0000 N   0  0  0  0  0  0  0  0  0  0  0  0
   -1.3452   -5.5511    0.0000 C   0  0  0  0  0  0  0  0  0  0  0  0
   -0.5483   -5.7647    0.0000 C   0  0  0  0  0  0  0  0  0  0  0  0
   -0.5483   -6.5897    0.0000 C   0  0  0  0  0  0  0  0  0  0  0  0
    0.0350   -5.1813    0.0000 C   0  0  0  0  0  0  0  0  0  0  0  0
    0.2486   -5.9782    0.0000 C   0  0  0  0  0  0  0  0  0  0  0  0
   -1.3452   -4.7261    0.0000 C   0  0  0  0  0  0  0  0  0  0  0  0
   -1.7577   -4.0117    0.0000 O   0  0  0  0  0  0  0  0  0  0  0  0
   -0.7619   -4.1428    0.0000 N   0  0  0  0  0  0  0  0  0  0  0  0
   -0.0348   -3.0233    0.0000 C   0  0  0  0  0  0  0  0  0  0  0  0
   -0.8050   -3.3189    0.0000 C   0  0  0  0  0  0  0  0  0  0  0  0
    0.0350   -4.3563    0.0000 C   0  0  0  0  0  0  0  0  0  0  0  0
    0.4843   -3.6644    0.0000 C   0  0  0  0  0  0  0  0  0  0  0  0
    1.1988   -4.0769    0.0000 O   0  0  0  0  0  0  0  0  0  0  0  0
    1.9133   -3.6644    0.0000 C   0  0  0  0  0  0  0  0  0  0  0  0
    3.2935   -3.2946    0.0000 C   0  0  0  0  0  0  0  0  0  0  0  0
    3.0800   -2.4977    0.0000 C   0  0  0  0  0  0  0  0  0  0  0  0
    2.2831   -2.2841    0.0000 C   0  0  0  0  0  0  0  0  0  0  0  0
    1.6997   -2.8675    0.0000 N   0  0  0  0  0  0  0  0  0  0  0  0
    2.7102   -3.8779    0.0000 C   0  0  0  0  0  0  0  0  0  0  0  0
    2.9237   -4.6748    0.0000 C   0  0  0  0  0  0  0  0  0  0  0  0
    3.7206   -4.8884    0.0000 C   0  0  0  0  0  0  0  0  0  0  0  0
    4.3040   -4.3050    0.0000 C   0  0  0  0  0  0  0  0  0  0  0  0
    4.0904   -3.5081    0.0000 C   0  0  0  0  0  0  0  0  0  0  0  0
    3.6634   -1.9143    0.0000 O   0  0  0  0  0  0  0  0  0  0  0  0
   -1.5195   -2.9064    0.0000 C   0  0  0  0  0  0  0  0  0  0  0  0
   -1.5195   -2.0814    0.0000 O   0  0  0  0  0  0  0  0  0  0  0  0
   -2.2340   -3.3189    0.0000 N   0  0  0  0  0  0  0  0  0  0  0  0
   -2.9484   -2.9064    0.0000 C   0  0  0  0  0  0  0  0  0  0  0  0
   -3.5318   -3.4898    0.0000 C   0  0  0  0  0  0  0  0  0  0  0  0
   -3.7453   -2.6929    0.0000 C   0  0  0  0  0  0  0  0  0  0  0  0
   -4.3287   -3.7033    0.0000 C   0  0  0  0  0  0  0  0  0  0  0  0
   -4.9121   -3.1200    0.0000 C   0  0  0  0  0  0  0  0  0  0  0  0
   -2.9484   -2.0814    0.0000 C   0  0  0  0  0  0  0  0  0  0  0  0
   -2.5359   -1.3670    0.0000 N   0  0  0  0  0  0  0  0  0  0  0  0
   -3.6629   -1.6689    0.0000 O   0  0  0  0  0  0  0  0  0  0  0  0
   -2.5359   -0.5420    0.0000 S   0  0  0  0  0  0  0  0  0  0  0  0
   -3.3609   -0.5420    0.0000 O   0  0  0  0  0  0  0  0  0  0  0  0
   -3.1193    0.0414    0.0000 O   0  0  0  0  0  0  0  0  0  0  0  0
   -1.8215   -0.1295    0.0000 C   0  0  0  0  0  0  0  0  0  0  0  0
   -1.6079    0.6674    0.0000 C   0  0  0  0  0  0  0  0  0  0  0  0
   -1.1954   -0.0471    0.0000 C   0  0  0  0  0  0  0  0  0  0  0  0
    3.9563   -5.6839    0.0000 Cl  0  0  0  0  0  0  0  0  0  0  0  0
    4.4603   -1.7008    0.0000 C   0  0  0  0  0  0  0  0  0  0  0  0
  1  2  1  0
  2  3  1  0
  2  4  1  0
  2  5  1  0
  5  6  1  0
  6  7  2  0
  6  8  1  0
  9  8  1  6
 10 11  1  0
 10 12  1  0
 10 13  1  0
  9 14  1  0
 14 15  2  0
 14 16  1  0
 18 16  1  0
 16 19  1  0
 17 18  1  0
 17 20  1  0
 19 20  1  0
 21 22  1  0
 26 22  2  0
 22 27  1  0
 23 24  1  0
 23 27  2  0
 23 31  1  0
 24 25  2  0
 25 26  1  0
 27 28  1  0
 28 29  2  0
 29 30  1  0
 30 31  2  0
 24 32  1  0
 18 33  1  6
 33 34  2  0
 33 35  1  0
 36 37  1  0
 37 38  1  0
 36 38  1  0
 39 40  2  0
 41 42  1  0
 41 43  2  0
 42 44  1  0
 44 45  2  0
 44 46  2  0
 44 47  1  0
 47 48  1  0
 48 49  1  0
 47 49  1  0
 29 50  1  0
 36 35  1  1
 20 21  1  1
 36 41  1  0
 37 39  1  6
  9 10  1  0
 32 51  1  0
M  END
> <chembl_id>
CHEMBL2105735

> <chembl_pref_name>
ASUNAPREVIR
