
     RDKit          2D

 21 22  0  0  0  0  0  0  0  0999 V2000
   -4.2134    0.6188    0.0000 C   0  0  0  0  0  0  0  0  0  0  0  0
   -4.9279    0.2063    0.0000 C   0  0  0  0  0  0  0  0  0  0  0  0
   -4.9279   -0.6188    0.0000 C   0  0  0  0  0  0  0  0  0  0  0  0
   -4.2134   -1.0313    0.0000 C   0  0  0  0  0  0  0  0  0  0  0  0
   -3.4989   -0.6188    0.0000 C   0  0  0  0  0  0  0  0  0  0  0  0
   -3.4989    0.2063    0.0000 C   0  0  0  0  0  0  0  0  0  0  0  0
   -4.2134    1.4438    0.0000 C   0  0  0  0  0  0  0  0  0  0  0  0
   -2.7845    0.6188    0.0000 N   0  0  0  0  0  0  0  0  0  0  0  0
   -2.0700    0.2063    0.0000 C   0  0  0  0  0  0  0  0  0  0  0  0
   -2.0700   -0.6187    0.0000 O   0  0  0  0  0  0  0  0  0  0  0  0
   -2.7845   -1.0313    0.0000 C   0  0  0  0  0  0  0  0  0  0  0  0
   -1.4866    0.7896    0.0000 C   0  0  0  0  0  0  0  0  0  0  0  0
   -0.7722    2.0271    0.0000 C   0  0  0  0  0  0  0  0  0  0  0  0
   -1.4866    1.6146    0.0000 C   0  0  0  0  0  0  0  0  0  0  0  0
   -0.7722    0.3771    0.0000 N   0  0  0  0  0  0  0  0  0  0  0  0
   -0.0577    0.7896    0.0000 C   0  0  0  0  0  0  0  0  0  0  0  0
   -0.0577    1.6146    0.0000 C   0  0  0  0  0  0  0  0  0  0  0  0
   -0.7722   -0.4479    0.0000 C   0  0  0  0  0  0  0  0  0  0  0  0
   -0.0577   -0.8604    0.0000 C   0  0  0  0  0  0  0  0  0  0  0  0
    0.6568   -0.4479    0.0000 C   0  0  0  0  0  0  0  0  0  0  0  0
    1.3713   -0.8604    0.0000 C   0  0  0  0  0  0  0  0  0  0  0  0
  1  2  2  0
  1  6  1  0
  2  3  1  0
  3  4  2  0
  4  5  1  0
  5  6  2  0
  1  7  1  0
  6  8  1  0
  8  9  1  0
  9 10  2  0
  5 11  1  0
 12  9  1  0
 14 12  1  0
 12 15  1  0
 13 14  1  0
 13 17  1  0
 15 16  1  0
 16 17  1  0
 15 18  1  0
 18 19  1  0
 19 20  1  0
 20 21  1  0
M  END
> <chembl_id>
CHEMBL1098

> <chembl_pref_name>
BUPIVACAINE
