
     RDKit          2D

 37 40  0  0  0  0  0  0  0  0999 V2000
    2.0292    0.2458    0.0000 C   0  0  0  0  0  0  0  0  0  0  0  0
    2.0292    0.9458    0.0000 C   0  0  0  0  0  0  0  0  0  0  0  0
    2.6292    1.3083    0.0000 N   0  0  0  0  0  0  0  0  0  0  0  0
    1.4167   -0.1167    0.0000 C   0  0  0  0  0  0  0  0  0  0  0  0
    1.4167    1.3083    0.0000 C   0  0  0  0  0  0  0  0  0  0  0  0
    0.8000    0.2458    0.0000 C   0  0  0  0  0  0  0  0  0  0  0  0
    0.8000    0.9583    0.0000 C   0  0  0  0  0  0  0  0  0  0  0  0
    1.4167   -0.8292    0.0000 Cl  0  0  0  0  0  0  0  0  0  0  0  0
    1.4292    2.0083    0.0000 O   0  0  0  0  0  0  0  0  0  0  0  0
    2.6292   -0.1167    0.0000 C   0  0  0  0  0  0  0  0  0  0  0  0
    3.2542    0.9583    0.0000 C   0  0  0  0  0  0  0  0  0  0  0  0
    3.2542    0.2458    0.0000 C   0  0  0  0  0  0  0  0  0  0  0  0
   -2.0708    1.0708    0.0000 C   0  0  0  0  0  0  0  0  0  0  0  0
   -2.6750    1.4333    0.0000 C   0  0  0  0  0  0  0  0  0  0  0  0
   -2.0708    0.3750    0.0000 C   0  0  0  0  0  0  0  0  0  0  0  0
   -3.2958    1.0833    0.0000 C   0  0  0  0  0  0  0  0  0  0  0  0
   -2.6750    0.0125    0.0000 C   0  0  0  0  0  0  0  0  0  0  0  0
   -3.2958    0.3750    0.0000 C   0  0  0  0  0  0  0  0  0  0  0  0
   -1.4625    1.4333    0.0000 N   0  0  0  0  0  0  0  0  0  0  0  0
   -2.6708    2.1458    0.0000 O   0  0  0  0  0  0  0  0  0  0  0  0
   -3.9083    1.4208    0.0000 Cl  0  0  0  0  0  0  0  0  0  0  0  0
   -2.6750   -0.7042    0.0000 Cl  0  0  0  0  0  0  0  0  0  0  0  0
   -1.4625    0.0125    0.0000 C   0  0  0  0  0  0  0  0  0  0  0  0
   -0.8375    1.0833    0.0000 C   0  0  0  0  0  0  0  0  0  0  0  0
   -0.8375    0.3750    0.0000 C   0  0  0  0  0  0  0  0  0  0  0  0
    5.7667    1.1333    0.0000 C   0  0  0  0  0  0  0  0  0  0  0  0
    6.3792    0.7708    0.0000 C   0  0  0  0  0  0  0  0  0  0  0  0
    5.1500    0.7833    0.0000 C   0  0  0  0  0  0  0  0  0  0  0  0
    6.9792    1.1333    0.0000 N   0  0  0  0  0  0  0  0  0  0  0  0
    6.3792    0.0708    0.0000 C   0  0  0  0  0  0  0  0  0  0  0  0
    5.1500    0.0708    0.0000 C   0  0  0  0  0  0  0  0  0  0  0  0
    5.7667   -0.2917    0.0000 C   0  0  0  0  0  0  0  0  0  0  0  0
    5.7792    1.8333    0.0000 O   0  0  0  0  0  0  0  0  0  0  0  0
    4.5375    1.1208    0.0000 Cl  0  0  0  0  0  0  0  0  0  0  0  0
    7.6042    0.7833    0.0000 C   0  0  0  0  0  0  0  0  0  0  0  0
    6.9792   -0.2917    0.0000 C   0  0  0  0  0  0  0  0  0  0  0  0
    7.6042    0.0708    0.0000 C   0  0  0  0  0  0  0  0  0  0  0  0
  2  1  1  0
  3  2  2  0
  4  1  1  0
  5  2  1  0
  6  4  2  0
  7  6  1  0
  8  4  1  0
  9  5  1  0
 10  1  2  0
 11 12  2  0
 12 10  1  0
 11  3  1  0
  7  5  2  0
 14 13  1  0
 15 13  1  0
 16 14  2  0
 17 15  1  0
 18 17  2  0
 19 13  2  0
 20 14  1  0
 21 16  1  0
 22 17  1  0
 23 15  2  0
 24 19  1  0
 25 23  1  0
 16 18  1  0
 24 25  2  0
 27 26  1  0
 28 26  2  0
 29 27  2  0
 30 27  1  0
 31 28  1  0
 32 31  2  0
 33 26  1  0
 34 28  1  0
 35 29  1  0
 36 30  2  0
 37 36  1  0
 32 30  1  0
 35 37  2  0
M  END
> <chembl_id>
CHEMBL3833358

> <chembl_pref_name>
HALQUINOLS
