
     RDKit          2D

 27 30  0  0  0  0  0  0  0  0999 V2000
    3.0250   -7.1542    0.0000 Cl  0  0  0  0  0  0  0  0  0  0  0  0
    2.5250   -5.9917    0.0000 C   0  0  0  0  0  0  0  0  0  0  0  0
    2.8792   -5.3792    0.0000 C   0  0  0  0  0  0  0  0  0  0  0  0
    1.8167   -5.9917    0.0000 C   0  0  0  0  0  0  0  0  0  0  0  0
    2.8667   -6.6042    0.0000 C   0  0  0  0  0  0  0  0  0  0  0  0
    1.4667   -6.6042    0.0000 C   0  0  0  0  0  0  0  0  0  0  0  0
    2.1417   -6.9542    0.0000 O   0  0  0  0  0  0  0  0  0  0  0  0
    2.5292   -4.7750    0.0000 C   0  0  0  0  0  0  0  0  0  0  0  0
    1.4667   -5.3792    0.0000 C   0  0  0  0  0  0  0  0  0  0  0  0
    2.8792   -4.1625    0.0000 N   0  0  0  0  0  0  0  0  0  0  0  0
    1.8167   -4.7667    0.0000 C   0  0  0  0  0  0  0  0  0  0  0  0
    2.1667   -5.3750    0.0000 C   0  0  0  0  0  0  0  0  0  0  0  0
    3.5792   -5.3875    0.0000 C   0  0  0  0  0  0  0  0  0  0  0  0
    3.5750   -6.6042    0.0000 C   0  0  0  0  0  0  0  0  0  0  0  0
    0.7625   -6.6042    0.0000 C   0  0  0  0  0  0  0  0  0  0  0  0
    2.1750   -4.1625    0.0000 C   0  0  0  0  0  0  0  0  0  0  0  0
    0.7625   -5.3792    0.0000 C   0  0  0  0  0  0  0  0  0  0  0  0
    3.9292   -6.0000    0.0000 C   0  0  0  0  0  0  0  0  0  0  0  0
    3.2292   -4.7667    0.0000 O   0  0  0  0  0  0  0  0  0  0  0  0
    3.9250   -7.2250    0.0000 O   0  0  0  0  0  0  0  0  0  0  0  0
    0.4125   -5.9917    0.0000 C   0  0  0  0  0  0  0  0  0  0  0  0
    4.1042   -4.1625    0.0000 C   0  0  0  0  0  0  0  0  0  0  0  0
    4.7250   -3.8042    0.0000 C   0  0  0  0  0  0  0  0  0  0  0  0
    3.4917   -3.8042    0.0000 C   0  0  0  0  0  0  0  0  0  0  0  0
    0.4042   -7.2167    0.0000 O   0  0  0  0  0  0  0  0  0  0  0  0
    2.0323   -3.9072    0.0000 H   0  0  0  0  0  0  0  0  0  0  0  0
    3.0897   -7.5790    0.0000 H   0  0  0  0  0  0  0  0  0  0  0  0
  3  2  1  0
  4  2  1  0
  5  2  1  0
  6  4  1  0
  5  7  1  0
  8  3  1  0
  9  4  2  0
 10 16  1  0
 11  9  1  0
  2 12  1  1
 13  3  1  0
 14  5  1  0
 15  6  2  0
 16 12  1  0
 17  9  1  0
 18 14  1  0
  3 19  1  1
 20 14  2  0
 21 17  2  0
 22 24  1  0
 23 22  2  0
 24 10  1  0
 25 15  1  0
  7  6  1  0
  8 10  1  0
 18 13  1  0
 11  8  1  0
 21 15  1  0
  8 26  1  6
  5 27  1  1
M  END
> <chembl_id>
CHEMBL1718

> <chembl_pref_name>
NALOXONE HYDROCHLORIDE
