
     RDKit          2D

 25 25  0  0  1  0  0  0  0  0999 V2000
   -1.5250   -5.5375    0.0000 C   0  0  0  0  0  0  0  0  0  0  0  0
   -0.8500   -6.4708    0.0000 C   0  0  0  0  0  0  0  0  0  0  0  0
   -0.2333   -6.8292    0.0000 C   0  0  0  0  0  0  0  0  0  0  0  0
   -1.9417   -6.1167    0.0000 C   0  0  0  0  0  0  0  0  0  0  0  0
   -0.8458   -5.7625    0.0000 C   0  0  0  0  0  0  0  0  0  0  0  0
   -1.5250   -6.6875    0.0000 C   0  0  0  0  0  0  0  0  0  0  0  0
    0.3833   -6.4667    0.0000 C   0  0  0  0  0  0  0  0  0  0  0  0
    3.5667   -5.7333    0.0000 C   0  0  0  0  0  0  0  0  0  0  0  0
   -1.7417   -4.8583    0.0000 O   0  0  0  0  0  0  0  0  0  0  0  0
    3.5708   -6.4458    0.0000 O   0  0  0  0  0  0  0  0  0  0  0  0
    0.3917   -5.7500    0.0000 C   0  0  0  0  0  0  0  0  0  0  0  0
    1.1000   -5.7500    0.0000 C   0  0  0  0  0  0  0  0  0  0  0  0
   -1.7458   -7.3667    0.0000 O   0  0  0  0  0  0  0  0  0  0  0  0
    4.1792   -5.3750    0.0000 O   0  0  0  0  0  0  0  0  0  0  0  0
   -0.2333   -5.4042    0.0000 C   0  0  0  0  0  0  0  0  0  0  0  0
    1.0000   -6.8250    0.0000 C   0  0  0  0  0  0  0  0  0  0  0  0
    1.0000   -7.5375    0.0000 O   0  0  0  0  0  0  0  0  0  0  0  0
    2.9500   -5.3833    0.0000 C   0  0  0  0  0  0  0  0  0  0  0  0
    1.7167   -5.3917    0.0000 C   0  0  0  0  0  0  0  0  0  0  0  0
    1.6167   -6.4667    0.0000 C   0  0  0  0  0  0  0  0  0  0  0  0
    2.3333   -5.7417    0.0000 C   0  0  0  0  0  0  0  0  0  0  0  0
    2.8208   -7.8958    0.0000 C   0  0  0  0  0  0  0  0  0  0  0  0
    2.2208   -7.5333    0.0000 C   0  0  0  0  0  0  0  0  0  0  0  0
    2.2292   -6.8208    0.0000 C   0  0  0  0  0  0  0  0  0  0  0  0
    3.4417   -7.5583    0.0000 C   0  0  0  0  0  0  0  0  0  0  0  0
  2  5  1  0
  2  3  1  1
  4  1  1  0
  5  1  1  0
  6  4  1  0
  7  3  2  0
  8 18  1  0
  9  1  2  0
 10  8  2  0
 11 15  1  0
 12 11  2  0
  6 13  1  6
 14  8  1  0
  5 15  1  6
 16  7  1  0
 16 17  1  6
 18 21  1  0
 19 12  1  0
 20 16  1  0
 21 19  1  0
 22 23  1  0
 23 24  1  0
 24 20  1  0
 25 22  1  0
  2  6  1  0
M  END
> <chembl_id>
CHEMBL548

> <chembl_pref_name>
DINOPROSTONE
