
     RDKit          2D

 32 36  0  0  1  0  0  0  0  0999 V2000
   -1.7458    0.9375    0.0000 C   0  0  0  0  0  0  0  0  0  0  0  0
   -1.5208    0.1000    0.0000 C   0  0  0  0  0  0  0  0  0  0  0  0
   -1.7500    2.2708    0.0000 C   0  0  0  0  0  0  0  0  0  0  0  0
   -0.7000   -1.0000    0.0000 N   0  0  0  0  0  0  0  0  0  0  0  0
   -0.7333   -0.1792    0.0000 C   0  0  0  0  0  0  0  0  0  0  0  0
    3.0000   -1.5042    0.0000 C   0  0  0  0  0  0  0  0  0  0  0  0
    3.0000   -2.3792    0.0000 C   0  0  0  0  0  0  0  0  0  0  0  0
    3.8375   -2.6417    0.0000 O   0  0  0  0  0  0  0  0  0  0  0  0
   -2.0958   -0.5667    0.0000 C   0  0  0  0  0  0  0  0  0  0  0  0
   -2.6125    0.9208    0.0000 C   0  0  0  0  0  0  0  0  0  0  0  0
   -0.9208    1.2000    0.0000 C   0  0  0  0  0  0  0  0  0  0  0  0
    2.2417   -1.0667    0.0000 C   0  0  0  0  0  0  0  0  0  0  0  0
   -2.4958    2.6958    0.0000 O   0  0  0  0  0  0  0  0  0  0  0  0
    2.2417   -2.8042    0.0000 C   0  0  0  0  0  0  0  0  0  0  0  0
   -1.5625   -1.2875    0.0000 C   0  0  0  0  0  0  0  0  0  0  0  0
   -0.9958    2.7125    0.0000 N   0  0  0  0  0  0  0  0  0  0  0  0
    0.0042   -1.5000    0.0000 C   0  0  0  0  0  0  0  0  0  0  0  0
    1.5000   -1.5042    0.0000 C   0  0  0  0  0  0  0  0  0  0  0  0
    1.5000   -2.3792    0.0000 C   0  0  0  0  0  0  0  0  0  0  0  0
    4.3417   -1.9417    0.0000 C   0  0  0  0  0  0  0  0  0  0  0  0
    0.7417   -1.0667    0.0000 C   0  0  0  0  0  0  0  0  0  0  0  0
    3.8375   -1.2375    0.0000 C   0  0  0  0  0  0  0  0  0  0  0  0
   -3.0250    0.1583    0.0000 C   0  0  0  0  0  0  0  0  0  0  0  0
   -0.7333    2.0458    0.0000 C   0  0  0  0  0  0  0  0  0  0  0  0
   -0.2833    0.6125    0.0000 C   0  0  0  0  0  0  0  0  0  0  0  0
   -3.0625    1.6583    0.0000 C   0  0  0  0  0  0  0  0  0  0  0  0
   -3.8958    0.1375    0.0000 C   0  0  0  0  0  0  0  0  0  0  0  0
    0.1000    2.3083    0.0000 C   0  0  0  0  0  0  0  0  0  0  0  0
    0.5500    0.8833    0.0000 C   0  0  0  0  0  0  0  0  0  0  0  0
   -3.9333    1.6458    0.0000 C   0  0  0  0  0  0  0  0  0  0  0  0
    0.7375    1.7208    0.0000 C   0  0  0  0  0  0  0  0  0  0  0  0
   -4.3458    0.8833    0.0000 C   0  0  0  0  0  0  0  0  0  0  0  0
  2  1  1  1
  3  1  1  0
  4  5  1  0
  5  2  1  0
  6 12  1  0
  7 14  1  0
  8  7  1  0
  9  2  1  0
 10  1  1  0
 11  1  1  0
 12 18  2  0
 13  3  2  0
 14 19  2  0
 15  9  1  0
 16  3  1  0
 17  4  1  0
 18 21  1  0
 19 18  1  0
 20 22  1  0
 21 17  1  0
 22  6  1  0
 23 10  2  0
 24 11  2  0
 25 11  1  0
 26 10  1  0
 27 23  1  0
 28 24  1  0
 29 25  2  0
 30 26  2  0
 31 29  1  0
 32 30  1  0
  4 15  1  0
 28 31  2  0
 27 32  2  0
  6  7  2  0
  8 20  1  0
M  END
> <chembl_id>
CHEMBL1346

> <chembl_pref_name>
DARIFENACIN
