
     RDKit          2D

 16 16  0  0  0  0  0  0  0  0999 V2000
   -1.4958    1.1208    0.0000 C   0  0  0  0  0  0  0  0  0  0  0  0
   -0.0708    1.1208    0.0000 C   0  0  0  0  0  0  0  0  0  0  0  0
    0.6292   -0.1125    0.0000 C   0  0  0  0  0  0  0  0  0  0  0  0
    2.0542   -0.1125    0.0000 C   0  0  0  0  0  0  0  0  0  0  0  0
   -2.2083   -0.1125    0.0000 N   0  0  0  0  0  0  0  0  0  0  0  0
   -2.2083    2.3458    0.0000 O   0  0  0  0  0  0  0  0  0  0  0  0
    2.7667    1.1208    0.0000 C   0  0  0  0  0  0  0  0  0  0  0  0
    0.6292    2.3458    0.0000 C   0  0  0  0  0  0  0  0  0  0  0  0
    2.0542    2.3458    0.0000 C   0  0  0  0  0  0  0  0  0  0  0  0
    2.7667   -1.3417    0.0000 O   0  0  0  0  0  0  0  0  0  0  0  0
    4.1875    1.1208    0.0000 O   0  0  0  0  0  0  0  0  0  0  0  0
   -1.4750   -1.3250    0.0000 C   0  0  0  0  0  0  0  0  0  0  0  0
   -3.6333   -0.1125    0.0000 C   0  0  0  0  0  0  0  0  0  0  0  0
    2.0667   -2.5625    0.0000 C   0  0  0  0  0  0  0  0  0  0  0  0
   -4.3458   -1.3417    0.0000 C   0  0  0  0  0  0  0  0  0  0  0  0
   -0.0583   -1.3042    0.0000 C   0  0  0  0  0  0  0  0  0  0  0  0
  2  1  1  0
  3  2  2  0
  4  3  1  0
  5  1  1  0
  6  1  2  0
  7  9  1  0
  8  2  1  0
  9  8  2  0
 10  4  1  0
 11  7  1  0
 12  5  1  0
 13  5  1  0
 14 10  1  0
 15 13  1  0
 16 12  1  0
  4  7  2  0
M  END
> <chembl_id>
CHEMBL1229908

> <chembl_pref_name>
ETHAMIVAN
