
     RDKit          2D

  2  0  0  0  0  0  0  0  0  0999 V2000
    4.2500   -6.3125    0.0000 Na  0  0  0  0  0 15  0  0  0  0  0  0
    5.1875   -6.3125    0.0000 F   0  0  0  0  0  0  0  0  0  0  0  0
M  CHG  2   1   1   2  -1
M  END
> <chembl_id>
CHEMBL1528

> <chembl_pref_name>
SODIUM FLUORIDE
