
     RDKit          2D

 36 40  0  0  1  0  0  0  0  0999 V2000
   -1.1250   -1.2042    0.0000 C   0  0  0  0  0  0  0  0  0  0  0  0
   -1.6750   -0.7667    0.0000 C   0  0  0  0  0  0  0  0  0  0  0  0
   -1.1208   -1.9167    0.0000 C   0  0  0  0  0  0  0  0  0  0  0  0
   -0.4583   -2.1667    0.0000 N   0  0  0  0  0  0  0  0  0  0  0  0
    4.4042    1.2083    0.0000 C   0  0  0  0  0  0  0  0  0  0  0  0
   -1.4708   -0.0917    0.0000 C   0  0  0  0  0  0  0  0  0  0  0  0
   -2.3625   -0.9292    0.0000 C   0  0  0  0  0  0  0  0  0  0  0  0
    3.7792    0.8708    0.0000 N   0  0  0  0  0  0  0  0  0  0  0  0
    0.7042   -0.1542    0.0000 N   0  0  0  0  0  0  0  0  0  0  0  0
    1.3292    0.1958    0.0000 C   0  0  0  0  0  0  0  0  0  0  0  0
   -1.6708   -2.3542    0.0000 C   0  0  0  0  0  0  0  0  0  0  0  0
   -1.9583    0.4333    0.0000 C   0  0  0  0  0  0  0  0  0  0  0  0
   -0.5125   -0.8500    0.0000 C   0  0  0  0  0  0  0  0  0  0  0  0
   -2.8458   -0.4125    0.0000 C   0  0  0  0  0  0  0  0  0  0  0  0
   -2.6375    0.2625    0.0000 C   0  0  0  0  0  0  0  0  0  0  0  0
    1.9375   -0.1542    0.0000 C   0  0  0  0  0  0  0  0  0  0  0  0
   -2.6708   -1.5667    0.0000 C   0  0  0  0  0  0  0  0  0  0  0  0
    5.0042    0.8458    0.0000 O   0  0  0  0  0  0  0  0  0  0  0  0
    0.0917    0.2000    0.0000 C   0  0  0  0  0  0  0  0  0  0  0  0
    0.7125   -0.8417    0.0000 C   0  0  0  0  0  0  0  0  0  0  0  0
   -1.5708   -3.0625    0.0000 C   0  0  0  0  0  0  0  0  0  0  0  0
    1.3375    0.9000    0.0000 O   0  0  0  0  0  0  0  0  0  0  0  0
    3.1750    1.2333    0.0000 C   0  0  0  0  0  0  0  0  0  0  0  0
    3.7792    0.1708    0.0000 C   0  0  0  0  0  0  0  0  0  0  0  0
   -2.3625   -2.2042    0.0000 C   0  0  0  0  0  0  0  0  0  0  0  0
    4.4250    1.9125    0.0000 N   0  0  0  0  0  0  0  0  0  0  0  0
   -0.3500   -2.8667    0.0000 C   0  0  0  0  0  0  0  0  0  0  0  0
   -0.5208   -0.1500    0.0000 C   0  0  0  0  0  0  0  0  0  0  0  0
    0.1000   -1.2042    0.0000 C   0  0  0  0  0  0  0  0  0  0  0  0
   -0.7708    0.0625    0.0000 Br  0  0  0  0  0  0  0  0  0  0  0  0
   -0.9083   -3.3167    0.0000 C   0  0  0  0  0  0  0  0  0  0  0  0
    2.5542    0.1833    0.0000 C   0  0  0  0  0  0  0  0  0  0  0  0
   -3.1250    0.7833    0.0000 Cl  0  0  0  0  0  0  0  0  0  0  0  0
    3.1625   -0.1750    0.0000 C   0  0  0  0  0  0  0  0  0  0  0  0
    2.5625    0.8875    0.0000 C   0  0  0  0  0  0  0  0  0  0  0  0
   -0.8083   -4.0250    0.0000 Br  0  0  0  0  0  0  0  0  0  0  0  0
  2  1  1  0
  3  1  1  0
  4  3  1  0
  5  8  1  0
  6  2  1  0
  7  2  2  0
  8 23  1  0
  9 20  1  0
 10  9  1  0
 11  3  2  0
 12  6  2  0
  1 13  1  1
 14  7  1  0
 15 14  2  0
 16 10  1  0
 17  7  1  0
 18  5  2  0
 19 28  1  0
 20 29  1  0
 21 11  1  0
 22 10  2  0
 23 35  1  0
 24 34  1  0
 25 11  1  0
 26  5  1  0
 27  4  2  0
 28 13  1  0
 29 13  1  0
 30  6  1  0
 31 21  2  0
 32 16  1  0
 33 15  1  0
 34 32  1  0
 35 32  1  0
 36 31  1  0
  9 19  1  0
 17 25  1  0
 27 31  1  0
 12 15  1  0
 24  8  1  0
M  END
> <chembl_id>
CHEMBL298734

> <chembl_pref_name>
LONAFARNIB
