
     RDKit          2D

 37 41  0  0  0  0  0  0  0  0999 V2000
   -0.3542   -0.8250    0.0000 C   0  0  0  0  0  0  0  0  0  0  0  0
    1.0750    0.0000    0.0000 C   0  0  0  0  0  0  0  0  0  0  0  0
    1.8583    0.2583    0.0000 C   0  0  0  0  0  0  0  0  0  0  0  0
   -1.0667   -1.2375    0.0000 C   0  0  0  0  0  0  0  0  0  0  0  0
    0.3625   -1.2375    0.0000 C   0  0  0  0  0  0  0  0  0  0  0  0
   -0.3542    0.0000    0.0000 C   0  0  0  0  0  0  0  0  0  0  0  0
    1.0750   -0.8250    0.0000 C   0  0  0  0  0  0  0  0  0  0  0  0
   -1.0667   -2.0625    0.0000 C   0  0  0  0  0  0  0  0  0  0  0  0
    0.3625    0.4125    0.0000 C   0  0  0  0  0  0  0  0  0  0  0  0
   -1.7833   -2.4750    0.0000 C   0  0  0  0  0  0  0  0  0  0  0  0
    2.3458   -0.4125    0.0000 C   0  0  0  0  0  0  0  0  0  0  0  0
    2.6833    0.2583    0.0000 O   0  0  0  0  0  0  0  0  0  0  0  0
    1.8583   -1.0792    0.0000 C   0  0  0  0  0  0  0  0  0  0  0  0
    0.3625   -2.0625    0.0000 C   0  0  0  0  0  0  0  0  0  0  0  0
   -1.7833   -0.8250    0.0000 C   0  0  0  0  0  0  0  0  0  0  0  0
    2.1125    1.0417    0.0000 C   0  0  0  0  0  0  0  0  0  0  0  0
   -1.0667    0.4125    0.0000 C   0  0  0  0  0  0  0  0  0  0  0  0
    3.0958   -0.4583    0.0000 C   0  0  0  0  0  0  0  0  0  0  0  0
   -0.3542   -2.4750    0.0000 C   0  0  0  0  0  0  0  0  0  0  0  0
   -2.4958   -2.0625    0.0000 C   0  0  0  0  0  0  0  0  0  0  0  0
   -2.4958    1.2375    0.0000 C   0  0  0  0  0  0  0  0  0  0  0  0
   -3.2125    1.6500    0.0000 N   0  0  0  0  0  0  0  0  0  0  0  0
    2.6833   -1.1708    0.0000 O   0  0  0  0  0  0  0  0  0  0  0  0
    1.5625    1.6542    0.0000 O   0  0  0  0  0  0  0  0  0  0  0  0
   -1.7833    0.0000    0.0000 C   0  0  0  0  0  0  0  0  0  0  0  0
   -1.0667    1.2375    0.0000 C   0  0  0  0  0  0  0  0  0  0  0  0
   -1.7833    1.6500    0.0000 C   0  0  0  0  0  0  0  0  0  0  0  0
   -2.4958    0.4125    0.0000 C   0  0  0  0  0  0  0  0  0  0  0  0
   -3.2125   -2.4750    0.0000 O   0  0  0  0  0  0  0  0  0  0  0  0
    1.0750    0.8250    0.0000 C   0  0  0  0  0  0  0  0  0  0  0  0
   -2.4958   -1.2375    0.0000 C   0  0  0  0  0  0  0  0  0  0  0  0
    3.9208   -0.4583    0.0000 C   0  0  0  0  0  0  0  0  0  0  0  0
    2.9208    1.2125    0.0000 C   0  0  0  0  0  0  0  0  0  0  0  0
   -3.2125    2.4750    0.0000 C   0  0  0  0  0  0  0  0  0  0  0  0
   -3.9250    1.2375    0.0000 C   0  0  0  0  0  0  0  0  0  0  0  0
    1.1803   -1.8194    0.0000 H   0  0  0  0  0  0  0  0  0  0  0  0
    1.2288   -1.7370    0.0000 H   0  0  0  0  0  0  0  0  0  0  0  0
  2  7  1  0
  3  2  1  0
  4  1  2  0
  5  1  1  0
  6  1  1  0
  7  5  1  0
  8  4  1  0
  9  6  1  0
 10  8  2  0
 11 13  1  0
  3 12  1  6
 13  7  1  0
 14  5  1  0
 15  4  1  0
  3 16  1  0
  6 17  1  1
 18 12  1  0
 19  8  1  0
 20 31  1  0
 21 28  2  0
 22 21  1  0
 23 18  2  0
 24 16  2  0
 25 17  2  0
 26 17  1  0
 27 26  2  0
 28 25  1  0
 29 20  2  0
  2 30  1  1
 31 15  1  0
 32 18  1  0
 33 16  1  0
 34 22  1  0
 35 22  1  0
  9  2  1  0
 14 19  1  0
 10 20  1  0
  3 11  1  0
 21 27  1  0
  7 36  1  6
  5 37  1  1
M  END
> <chembl_id>
CHEMBL260538

> <chembl_pref_name>
ULIPRISTAL ACETATE
