
     RDKit          2D

 81 85  0  0  0  0  0  0  0  0999 V2000
    5.7443   -5.3025    0.0000 C   0  0  0  0  0  0  0  0  0  0  0  0
    5.0615   -5.3025    0.0000 C   0  0  0  0  0  0  0  0  0  0  0  0
    6.1270   -5.9197    0.0000 O   0  0  0  0  0  0  0  0  0  0  0  0
    6.1064   -4.6852    0.0000 O   0  0  0  0  0  0  0  0  0  0  0  0
    1.7991   -3.2786    0.0000 C   0  0  0  0  0  0  0  0  0  0  0  0
    2.3716   -3.4579    0.0000 C   0  0  0  0  0  0  0  0  0  0  0  0
    1.3957   -2.8510    0.0000 C   0  0  0  0  0  0  0  0  0  0  0  0
    1.4612   -3.7613    0.0000 C   0  0  0  0  0  0  0  0  0  0  0  0
    2.3716   -4.0544    0.0000 C   0  0  0  0  0  0  0  0  0  0  0  0
    2.8750   -3.1648    0.0000 C   0  0  0  0  0  0  0  0  0  0  0  0
    1.3957   -2.1337    0.0000 C   0  0  0  0  0  0  0  0  0  0  0  0
    1.7991   -4.2372    0.0000 N   0  0  0  0  0  0  0  0  0  0  0  0
    2.8750   -4.3544    0.0000 C   0  0  0  0  0  0  0  0  0  0  0  0
    3.3957   -3.4579    0.0000 C   0  0  0  0  0  0  0  0  0  0  0  0
    0.8888   -1.8406    0.0000 N   0  0  0  0  0  0  0  0  0  0  0  0
    1.8991   -1.8406    0.0000 C   0  0  0  0  0  0  0  0  0  0  0  0
    3.3957   -4.0544    0.0000 C   0  0  0  0  0  0  0  0  0  0  0  0
    0.3853   -2.1061    0.0000 C   0  0  0  0  0  0  0  0  0  0  0  0
    2.4233   -2.1337    0.0000 N   0  0  0  0  0  0  0  0  0  0  0  0
    1.8991   -1.2682    0.0000 O   0  0  0  0  0  0  0  0  0  0  0  0
   -0.0698   -1.8130    0.0000 C   0  0  0  0  0  0  0  0  0  0  0  0
    0.3853   -2.7061    0.0000 O   0  0  0  0  0  0  0  0  0  0  0  0
    2.9784   -1.8130    0.0000 C   0  0  0  0  0  0  0  0  0  0  0  0
   -0.0698   -1.1027    0.0000 C   0  0  0  0  0  0  0  0  0  0  0  0
   -0.5905   -2.1648    0.0000 N   0  0  0  0  0  0  0  0  0  0  0  0
    3.4716   -2.0855    0.0000 C   0  0  0  0  0  0  0  0  0  0  0  0
    2.9784   -1.1889    0.0000 C   0  0  0  0  0  0  0  0  0  0  0  0
    0.4233   -0.7992    0.0000 C   0  0  0  0  0  0  0  0  0  0  0  0
   -1.2422   -2.1648    0.0000 C   0  0  0  0  0  0  0  0  0  0  0  0
    3.9647   -1.8130    0.0000 N   0  0  0  0  0  0  0  0  0  0  0  0
    3.4716   -2.7475    0.0000 O   0  0  0  0  0  0  0  0  0  0  0  0
    3.4302   -0.9027    0.0000 C   0  0  0  0  0  0  0  0  0  0  0  0
    0.8991   -1.1027    0.0000 C   0  0  0  0  0  0  0  0  0  0  0  0
    0.4233   -0.2165    0.0000 C   0  0  0  0  0  0  0  0  0  0  0  0
   -1.7836   -1.8510    0.0000 C   0  0  0  0  0  0  0  0  0  0  0  0
   -1.3698   -2.6786    0.0000 O   0  0  0  0  0  0  0  0  0  0  0  0
    4.4474   -2.1061    0.0000 C   0  0  0  0  0  0  0  0  0  0  0  0
    3.4302   -0.3337    0.0000 C   0  0  0  0  0  0  0  0  0  0  0  0
    1.4060   -0.7992    0.0000 C   0  0  0  0  0  0  0  0  0  0  0  0
    0.8991    0.0835    0.0000 C   0  0  0  0  0  0  0  0  0  0  0  0
   -2.3560   -2.1648    0.0000 N   0  0  0  0  0  0  0  0  0  0  0  0
   -1.7836    0.5628    0.0000 C   0  0  0  0  0  0  0  0  0  0  0  0
    4.9647   -1.8234    0.0000 C   0  0  0  0  0  0  0  0  0  0  0  0
    4.4474   -2.8234    0.0000 C   0  0  0  0  0  0  0  0  0  0  0  0
    3.9267   -0.0372    0.0000 C   0  0  0  0  0  0  0  0  0  0  0  0
    1.4060   -0.2165    0.0000 C   0  0  0  0  0  0  0  0  0  0  0  0
   -2.8491   -1.8510    0.0000 C   0  0  0  0  0  0  0  0  0  0  0  0
   -1.2112    0.8904    0.0000 S   0  0  0  0  0  0  0  0  0  0  0  0
    5.4405   -2.1061    0.0000 N   0  0  0  0  0  0  0  0  0  0  0  0
    4.9647   -1.2510    0.0000 O   0  0  0  0  0  0  0  0  0  0  0  0
    4.9405   -3.1061    0.0000 C   0  0  0  0  0  0  0  0  0  0  0  0
    3.9647   -3.1061    0.0000 C   0  0  0  0  0  0  0  0  0  0  0  0
    4.4164   -0.3165    0.0000 N   0  0  0  0  0  0  0  0  0  0  0  0
    1.8991    0.0835    0.0000 O   0  0  0  0  0  0  0  0  0  0  0  0
   -3.3422   -2.1648    0.0000 C   0  0  0  0  0  0  0  0  0  0  0  0
   -2.8491   -1.3337    0.0000 O   0  0  0  0  0  0  0  0  0  0  0  0
    5.3957    0.8904    0.0000 S   0  0  0  0  0  0  0  0  0  0  0  0
    5.9474   -1.8406    0.0000 C   0  0  0  0  0  0  0  0  0  0  0  0
   -3.3422   -2.9958    0.0000 C   0  0  0  0  0  0  0  0  0  0  0  0
   -3.8353   -1.8510    0.0000 N   0  0  0  0  0  0  0  0  0  0  0  0
    5.9647    0.5456    0.0000 C   0  0  0  0  0  0  0  0  0  0  0  0
    6.4578   -2.1648    0.0000 C   0  0  0  0  0  0  0  0  0  0  0  0
   -2.8629   -3.2682    0.0000 C   0  0  0  0  0  0  0  0  0  0  0  0
    6.9647   -1.8820    0.0000 N   0  0  0  0  0  0  0  0  0  0  0  0
    6.4578   -2.7372    0.0000 O   0  0  0  0  0  0  0  0  0  0  0  0
   -2.3560   -2.9958    0.0000 C   0  0  0  0  0  0  0  0  0  0  0  0
   -2.8629   -3.8406    0.0000 C   0  0  0  0  0  0  0  0  0  0  0  0
    7.4405   -2.1751    0.0000 C   0  0  0  0  0  0  0  0  0  0  0  0
   -1.8629   -3.2682    0.0000 C   0  0  0  0  0  0  0  0  0  0  0  0
   -2.3422   -4.1337    0.0000 C   0  0  0  0  0  0  0  0  0  0  0  0
    7.4405   -2.8820    0.0000 C   0  0  0  0  0  0  0  0  0  0  0  0
    7.9371   -1.8889    0.0000 C   0  0  0  0  0  0  0  0  0  0  0  0
   -1.8629   -3.8406    0.0000 C   0  0  0  0  0  0  0  0  0  0  0  0
   -1.3698   -2.9820    0.0000 C   0  0  0  0  0  0  0  0  0  0  0  0
    7.9129   -3.1475    0.0000 C   0  0  0  0  0  0  0  0  0  0  0  0
    6.9474   -3.1475    0.0000 O   0  0  0  0  0  0  0  0  0  0  0  0
    8.4405   -2.1751    0.0000 N   0  0  0  0  0  0  0  0  0  0  0  0
    7.9371   -1.3165    0.0000 O   0  0  0  0  0  0  0  0  0  0  0  0
   -1.3698   -4.1061    0.0000 C   0  0  0  0  0  0  0  0  0  0  0  0
   -0.8871   -3.2682    0.0000 C   0  0  0  0  0  0  0  0  0  0  0  0
   -0.8871   -3.8406    0.0000 C   0  0  0  0  0  0  0  0  0  0  0  0
  1  2  1  0
  1  3  1  0
  1  4  2  0
 11 16  1  0
 13 17  2  0
 15 18  1  0
 16 19  1  0
 16 20  2  0
 18 21  1  0
 18 22  2  0
 19 23  1  0
 21 24  1  1
 21 25  1  0
 23 26  1  0
 23 27  1  1
 24 28  1  0
 25 29  1  0
 26 30  1  0
 26 31  2  0
 27 32  1  0
 28 33  2  0
 28 34  1  0
 29 35  1  0
 29 36  2  0
 30 37  1  0
 32 38  1  0
 33 39  1  0
 34 40  2  0
 35 41  1  1
 35 42  1  0
 37 43  1  0
 37 44  1  6
 38 45  1  0
 39 46  2  0
 41 47  1  0
 42 48  1  0
 43 49  1  0
 43 50  2  0
 44 51  1  0
 44 52  1  0
 45 53  1  0
 46 54  1  0
 47 55  1  0
 47 56  2  0
 48 57  1  0
 49 58  1  0
 55 59  1  0
 55 60  1  1
 57 61  1  0
 58 62  1  1
 59 63  1  0
 62 64  1  0
 62 65  2  0
 63 66  1  0
 63 67  2  0
 68 64  1  6
 66 69  2  0
 67 70  1  0
 68 71  1  0
 68 72  1  0
 69 73  1  0
 69 74  1  0
 71 75  1  1
 71 76  1  0
 72 77  1  0
 72 78  2  0
 73 79  1  0
 74 80  2  0
 79 81  2  0
  9 12  1  0
 14 17  1  0
 40 46  1  0
 58 61  1  0
 70 73  2  0
 80 81  1  0
  5  6  1  0
  5  7  1  0
  5  8  2  0
  6  9  2  0
  6 10  1  0
 11  7  1  1
  8 12  1  0
  9 13  1  0
 10 14  2  0
 11 15  1  0
M  END
> <chembl_id>
CHEMBL1201184

> <chembl_pref_name>
LANREOTIDE ACETATE
