
     RDKit          2D

 25 27  0  0  0  0  0  0  0  0999 V2000
    3.5500   -8.1417    0.0000 C   0  0  0  0  0  0  0  0  0  0  0  0
    3.5500   -9.5667    0.0000 O   0  0  0  0  0  0  0  0  0  0  0  0
    4.1375   -8.5042    0.0000 C   0  0  0  0  0  0  0  0  0  0  0  0
    2.9250   -8.5125    0.0000 C   0  0  0  0  0  0  0  0  0  0  0  0
    4.1375   -9.2167    0.0000 C   0  0  0  0  0  0  0  0  0  0  0  0
    2.9250   -9.2167    0.0000 C   0  0  0  0  0  0  0  0  0  0  0  0
    3.5542   -7.4375    0.0000 C   0  0  0  0  0  0  0  0  0  0  0  0
    1.1292   -7.5792    0.0000 N   0  0  0  0  0  0  0  0  0  0  0  0
    4.1667   -7.0792    0.0000 O   0  0  0  0  0  0  0  0  0  0  0  0
    2.9542   -7.1167    0.0000 O   0  0  0  0  0  0  0  0  0  0  0  0
    2.3417   -7.5000    0.0000 C   0  0  0  0  0  0  0  0  0  0  0  0
    2.3042   -8.1500    0.0000 C   0  0  0  0  0  0  0  0  0  0  0  0
    4.7542   -8.1542    0.0000 C   0  0  0  0  0  0  0  0  0  0  0  0
    1.7167   -7.1917    0.0000 C   0  0  0  0  0  0  0  0  0  0  0  0
    2.3042   -9.5750    0.0000 C   0  0  0  0  0  0  0  0  0  0  0  0
    4.7625   -9.5667    0.0000 C   0  0  0  0  0  0  0  0  0  0  0  0
    0.7667   -8.1917    0.0000 C   0  0  0  0  0  0  0  0  0  0  0  0
    0.4917   -7.2667    0.0000 C   0  0  0  0  0  0  0  0  0  0  0  0
    1.4792   -8.1917    0.0000 C   0  0  0  0  0  0  0  0  0  0  0  0
    0.0625   -8.1875    0.0000 C   0  0  0  0  0  0  0  0  0  0  0  0
   -0.0958   -7.6542    0.0000 C   0  0  0  0  0  0  0  0  0  0  0  0
    1.6917   -8.5042    0.0000 C   0  0  0  0  0  0  0  0  0  0  0  0
    5.3667   -8.5042    0.0000 C   0  0  0  0  0  0  0  0  0  0  0  0
    5.3667   -9.2167    0.0000 C   0  0  0  0  0  0  0  0  0  0  0  0
    1.6917   -9.2167    0.0000 C   0  0  0  0  0  0  0  0  0  0  0  0
  2  6  1  0
  3  1  1  0
  4  1  1  0
  5  3  2  0
  6  4  2  0
  7  1  1  0
  8 14  1  0
  9  7  2  0
 10  7  1  0
 11 10  1  0
 12  4  1  0
 13  3  1  0
 14 11  1  0
 15  6  1  0
 16  5  1  0
 17  8  1  0
 18  8  1  0
 19  8  1  0
 20 17  1  0
 21 18  1  0
 22 12  2  0
 23 13  2  0
 24 23  1  0
 25 22  1  0
  2  5  1  0
 25 15  2  0
 24 16  2  0
M  CHG  1   8   1
M  END
> <chembl_id>
CHEMBL1201264

> <chembl_pref_name>
METHANTHELINE
