
     RDKit          2D

 25 27  0  0  1  0  0  0  0  0999 V2000
    3.9917   -1.5167    0.0000 N   0  0  0  0  0  0  0  0  0  0  0  0
    3.1542   -1.5167    0.0000 C   0  0  0  0  0  0  0  0  0  0  0  0
    3.1542   -0.6792    0.0000 C   0  0  0  0  0  0  0  0  0  0  0  0
    3.9917   -0.6792    0.0000 C   0  0  0  0  0  0  0  0  0  0  0  0
    4.7125   -1.9292    0.0000 C   0  0  0  0  0  0  0  0  0  0  0  0
    2.5625   -0.0875    0.0000 N   0  0  0  0  0  0  0  0  0  0  0  0
    4.7125   -0.2542    0.0000 S   0  0  0  0  0  0  0  0  0  0  0  0
    1.7500   -0.3042    0.0000 C   0  0  0  0  0  0  0  0  0  0  0  0
    5.4375   -1.5167    0.0000 C   0  0  0  0  0  0  0  0  0  0  0  0
    4.7125   -2.7667    0.0000 C   0  0  0  0  0  0  0  0  0  0  0  0
    1.1542    0.2875    0.0000 C   0  0  0  0  0  0  0  0  0  0  0  0
    5.4375   -0.6792    0.0000 C   0  0  0  0  0  0  0  0  0  0  0  0
    2.5625   -2.1042    0.0000 O   0  0  0  0  0  0  0  0  0  0  0  0
    1.5750    1.0208    0.0000 N   0  0  0  0  0  0  0  0  0  0  0  0
    1.5292   -1.1125    0.0000 O   0  0  0  0  0  0  0  0  0  0  0  0
    3.9875   -3.1875    0.0000 O   0  0  0  0  0  0  0  0  0  0  0  0
    0.3500    0.0750    0.0000 C   0  0  0  0  0  0  0  0  0  0  0  0
    6.1542   -1.9375    0.0000 Cl  0  0  0  0  0  0  0  0  0  0  0  0
    5.4417   -3.1875    0.0000 O   0  0  0  0  0  0  0  0  0  0  0  0
   -0.2375    0.6708    0.0000 C   0  0  0  0  0  0  0  0  0  0  0  0
    0.1375   -0.7292    0.0000 C   0  0  0  0  0  0  0  0  0  0  0  0
   -0.6708   -0.9500    0.0000 C   0  0  0  0  0  0  0  0  0  0  0  0
   -1.0458    0.4583    0.0000 C   0  0  0  0  0  0  0  0  0  0  0  0
   -1.2708   -0.3542    0.0000 C   0  0  0  0  0  0  0  0  0  0  0  0
    0.7375    1.0208    0.0000 H   0  0  0  0  0  0  0  0  0  0  0  0
  2  1  1  0
  3  4  1  0
  4  1  1  0
  5  1  1  0
  3  6  1  1
  4  7  1  1
  8  6  1  0
  9  5  2  0
 10  5  1  0
 11  8  1  0
 12  9  1  0
 13  2  2  0
 14 11  1  0
 15  8  2  0
 16 10  2  0
 17 11  1  0
 18  9  1  0
 19 10  1  0
 20 17  2  0
 21 17  1  0
 22 21  2  0
 23 20  1  0
 24 22  1  0
 11 25  1  6
  2  3  1  0
 12  7  1  0
 23 24  2  0
M  END
> <chembl_id>
CHEMBL680

> <chembl_pref_name>
CEFACLOR ANHYDROUS
