
     RDKit          2D

 27 30  0  0  0  0  0  0  0  0999 V2000
   -2.9110   -3.0678    0.0000 N   0  0  0  0  0  0  0  0  0  0  0  0
   -3.3235   -2.3533    0.0000 C   0  0  0  0  0  0  0  0  0  0  0  0
   -4.1485   -2.3533    0.0000 C   0  0  0  0  0  0  0  0  0  0  0  0
   -4.5610   -3.0678    0.0000 N   0  0  0  0  0  0  0  0  0  0  0  0
   -4.1485   -3.7823    0.0000 C   0  0  0  0  0  0  0  0  0  0  0  0
   -3.3235   -3.7823    0.0000 C   0  0  0  0  0  0  0  0  0  0  0  0
   -4.4035   -1.5687    0.0000 C   0  0  0  0  0  0  0  0  0  0  0  0
   -3.7360   -1.0838    0.0000 C   0  0  0  0  0  0  0  0  0  0  0  0
   -3.0686   -1.5687    0.0000 N   0  0  0  0  0  0  0  0  0  0  0  0
   -4.7005   -4.3953    0.0000 N   0  0  0  0  0  0  0  0  0  0  0  0
   -5.4542   -4.0598    0.0000 C   0  0  0  0  0  0  0  0  0  0  0  0
   -5.3680   -3.2394    0.0000 C   0  0  0  0  0  0  0  0  0  0  0  0
   -5.9811   -2.6874    0.0000 C   0  0  0  0  0  0  0  0  0  0  0  0
   -5.8949   -1.8669    0.0000 C   0  0  0  0  0  0  0  0  0  0  0  0
   -6.6486   -1.5314    0.0000 C   0  0  0  0  0  0  0  0  0  0  0  0
   -7.2006   -2.1445    0.0000 N   0  0  0  0  0  0  0  0  0  0  0  0
   -6.7881   -2.8589    0.0000 C   0  0  0  0  0  0  0  0  0  0  0  0
   -5.1805   -1.4543    0.0000 C   0  0  0  0  0  0  0  0  0  0  0  0
   -5.1805   -0.6293    0.0000 C   0  0  0  0  0  0  0  0  0  0  0  0
   -8.0211   -2.0583    0.0000 C   0  0  0  0  0  0  0  0  0  0  0  0
   -8.5060   -2.7258    0.0000 N   0  0  0  0  0  0  0  0  0  0  0  0
   -8.3567   -1.3046    0.0000 O   0  0  0  0  0  0  0  0  0  0  0  0
   -9.3265   -2.6396    0.0000 C   0  0  0  0  0  0  0  0  0  0  0  0
   -9.8114   -3.3070    0.0000 C   0  0  0  0  0  0  0  0  0  0  0  0
  -10.6318   -3.2208    0.0000 F   0  0  0  0  0  0  0  0  0  0  0  0
   -9.4758   -4.0607    0.0000 F   0  0  0  0  0  0  0  0  0  0  0  0
  -10.2962   -3.9745    0.0000 F   0  0  0  0  0  0  0  0  0  0  0  0
  1  2  1  0
  3  4  1  0
  5  6  1  0
  6  1  2  0
  2  9  1  0
  2  3  2  0
  3  7  1  0
  7  8  2  0
  8  9  1  0
  4 12  1  0
  4  5  1  0
  5 10  2  0
 10 11  1  0
 11 12  2  0
 13 12  1  1
 13 14  1  0
 13 17  1  0
 14 15  1  0
 15 16  1  0
 16 17  1  0
 14 18  1  1
 18 19  1  0
 16 20  1  0
 20 21  1  0
 20 22  2  0
 21 23  1  0
 23 24  1  0
 24 25  1  0
 24 26  1  0
 24 27  1  0
M  END
> <chembl_id>
CHEMBL3622821

> <chembl_pref_name>
UPADACITINIB
