
     RDKit          2D

  9  8  0  0  0  0  0  0  0  0999 V2000
   -3.8440    0.6005    0.0000 C   0  0  0  0  0  0  0  0  0  0  0  0
   -3.1295    1.0130    0.0000 O   0  0  0  0  0  0  0  0  0  0  0  0
   -2.4150    0.6005    0.0000 C   0  0  0  0  0  0  0  0  0  0  0  0
   -1.7006    1.0130    0.0000 C   0  0  0  0  0  0  0  0  0  0  0  0
   -0.9861    0.6005    0.0000 C   0  0  0  0  0  0  0  0  0  0  0  0
   -0.2716    1.0130    0.0000 C   0  0  0  0  0  0  0  0  0  0  0  0
    0.4429    0.6005    0.0000 O   0  0  0  0  0  0  0  0  0  0  0  0
   -2.4150   -0.2245    0.0000 O   0  0  0  0  0  0  0  0  0  0  0  0
   -0.2758    1.8369    0.0000 O   0  0  0  0  0  0  0  0  0  0  0  0
  1  2  1  0
  2  3  1  0
  3  4  1  0
  4  5  2  0
  5  6  1  0
  6  7  1  0
  3  8  2  0
  6  9  2  0
M  END
> <chembl_id>
CHEMBL589586

> <chembl_pref_name>
MONOMETHYL FUMARATE
