
     RDKit          2D

 36 39  0  0  0  0  0  0  0  0999 V2000
    2.7042   -7.5292    0.0000 Cl  0  0  0  0  0  0  0  0  0  0  0  0
    4.8750   -4.6792    0.0000 N   0  0  0  0  0  0  0  0  0  0  0  0
    4.8792   -3.9667    0.0000 C   0  0  0  0  0  0  0  0  0  0  0  0
    4.1500   -4.6792    0.0000 C   0  0  0  0  0  0  0  0  0  0  0  0
    4.1542   -3.9625    0.0000 C   0  0  0  0  0  0  0  0  0  0  0  0
    5.5542   -4.9042    0.0000 C   0  0  0  0  0  0  0  0  0  0  0  0
    5.5542   -3.7625    0.0000 S   0  0  0  0  0  0  0  0  0  0  0  0
    5.9667   -4.3542    0.0000 C   0  0  0  0  0  0  0  0  0  0  0  0
    5.7917   -5.5875    0.0000 C   0  0  0  0  0  0  0  0  0  0  0  0
    6.7250   -6.4000    0.0000 C   0  0  0  0  0  0  0  0  0  0  0  0
    6.3042   -6.9542    0.0000 O   0  0  0  0  0  0  0  0  0  0  0  0
    3.6667   -3.4417    0.0000 N   0  0  0  0  0  0  0  0  0  0  0  0
    6.6792   -7.5292    0.0000 C   0  0  0  0  0  0  0  0  0  0  0  0
    6.5167   -5.7167    0.0000 O   0  0  0  0  0  0  0  0  0  0  0  0
    2.9667   -3.6167    0.0000 C   0  0  0  0  0  0  0  0  0  0  0  0
    7.4167   -6.6292    0.0000 C   0  0  0  0  0  0  0  0  0  0  0  0
    7.4000   -7.3375    0.0000 C   0  0  0  0  0  0  0  0  0  0  0  0
    2.4667   -3.1125    0.0000 C   0  0  0  0  0  0  0  0  0  0  0  0
    3.6417   -5.1667    0.0000 O   0  0  0  0  0  0  0  0  0  0  0  0
    5.3000   -6.1375    0.0000 O   0  0  0  0  0  0  0  0  0  0  0  0
    6.5125   -8.1167    0.0000 O   0  0  0  0  0  0  0  0  0  0  0  0
    2.7917   -4.3000    0.0000 O   0  0  0  0  0  0  0  0  0  0  0  0
    1.7792   -3.3042    0.0000 C   0  0  0  0  0  0  0  0  0  0  0  0
    2.6417   -2.4375    0.0000 N   0  0  0  0  0  0  0  0  0  0  0  0
    6.5667   -3.9542    0.0000 C   0  0  0  0  0  0  0  0  0  0  0  0
    6.6042   -4.6750    0.0000 C   0  0  0  0  0  0  0  0  0  0  0  0
    8.0000   -7.7042    0.0000 C   0  0  0  0  0  0  0  0  0  0  0  0
    8.0292   -6.2792    0.0000 C   0  0  0  0  0  0  0  0  0  0  0  0
    1.2875   -2.8125    0.0000 C   0  0  0  0  0  0  0  0  0  0  0  0
    1.6042   -3.9875    0.0000 C   0  0  0  0  0  0  0  0  0  0  0  0
    8.6167   -7.3625    0.0000 C   0  0  0  0  0  0  0  0  0  0  0  0
    8.6375   -6.6417    0.0000 C   0  0  0  0  0  0  0  0  0  0  0  0
    0.9292   -4.1667    0.0000 C   0  0  0  0  0  0  0  0  0  0  0  0
    0.6042   -3.0000    0.0000 C   0  0  0  0  0  0  0  0  0  0  0  0
    0.4292   -3.6792    0.0000 C   0  0  0  0  0  0  0  0  0  0  0  0
    4.7357   -2.9770    0.0000 H   0  0  0  0  0  0  0  0  0  0  0  0
  3  2  1  0
  4  2  1  0
  5  4  1  0
  6  2  1  0
  7  3  1  0
  8  6  1  0
  6  9  1  6
 10 14  1  0
 11 10  1  0
  5 12  1  1
 13 11  1  0
 14  9  1  0
 15 12  1  0
 16 10  1  0
 17 16  2  0
 18 15  1  0
 19  4  2  0
 20  9  2  0
 21 13  2  0
 22 15  2  0
 23 18  1  0
 18 24  1  1
 25  8  1  0
 26  8  1  0
 27 17  1  0
 28 16  1  0
 29 23  1  0
 30 23  2  0
 31 32  1  0
 32 28  2  0
 33 30  1  0
 34 29  2  0
 35 34  1  0
  7  8  1  0
  3  5  1  0
 17 13  1  0
 27 31  2  0
 33 35  2  0
  3 36  1  6
M  END
> <chembl_id>
CHEMBL1411731

> <chembl_pref_name>
TALAMPICILLIN HYDROCHLORIDE
