
     RDKit          2D

 42 42  0  0  0  0  0  0  0  0999 V2000
    4.0305   -1.3515    0.0000 O   0  0  0  0  0  0  0  0  0  0  0  0
    4.0401   -2.1799    0.0000 C   0  0  0  0  0  0  0  0  0  0  0  0
    1.9038   -3.4152    0.0000 C   0  0  0  0  0  0  0  0  0  0  0  0
    3.3280   -2.5917    0.0000 C   0  0  0  0  0  0  0  0  0  0  0  0
    1.1772   -3.8221    0.0000 N   0  0  0  0  0  0  0  0  0  0  0  0
    1.9038   -2.5868    0.0000 C   0  0  0  0  0  0  0  0  0  0  0  0
    2.6159   -3.8270    0.0000 C   0  0  0  0  0  0  0  0  0  0  0  0
    3.3280   -3.4152    0.0000 C   0  0  0  0  0  0  0  0  0  0  0  0
    2.6159   -2.1703    0.0000 C   0  0  0  0  0  0  0  0  0  0  0  0
    0.4650   -3.3910    0.0000 C   0  0  0  0  0  0  0  0  0  0  0  0
   -0.2616   -3.8076    0.0000 C   0  0  0  0  0  0  0  0  0  0  0  0
   -0.9833   -3.3861    0.0000 C   0  0  0  0  0  0  0  0  0  0  0  0
   -1.6955   -3.7931    0.0000 C   0  0  0  0  0  0  0  0  0  0  0  0
    4.7571   -2.5880    0.0000 O   0  0  0  0  0  0  0  0  0  0  0  0
    5.4716   -2.1755    0.0000 C   0  0  0  0  0  0  0  0  0  0  0  0
    6.1861   -2.5880    0.0000 C   0  0  0  0  0  0  0  0  0  0  0  0
    6.9005   -2.1755    0.0000 O   0  0  0  0  0  0  0  0  0  0  0  0
    7.6150   -2.5880    0.0000 C   0  0  0  0  0  0  0  0  0  0  0  0
    8.3295   -2.1755    0.0000 C   0  0  0  0  0  0  0  0  0  0  0  0
    9.0439   -2.5880    0.0000 O   0  0  0  0  0  0  0  0  0  0  0  0
    9.7584   -2.1755    0.0000 C   0  0  0  0  0  0  0  0  0  0  0  0
   10.4729   -2.5880    0.0000 C   0  0  0  0  0  0  0  0  0  0  0  0
   11.1874   -2.1755    0.0000 O   0  0  0  0  0  0  0  0  0  0  0  0
   11.9018   -2.5880    0.0000 C   0  0  0  0  0  0  0  0  0  0  0  0
   12.6163   -2.1755    0.0000 C   0  0  0  0  0  0  0  0  0  0  0  0
   13.3308   -2.5880    0.0000 O   0  0  0  0  0  0  0  0  0  0  0  0
   14.0452   -2.1755    0.0000 C   0  0  0  0  0  0  0  0  0  0  0  0
   14.7597   -2.5880    0.0000 C   0  0  0  0  0  0  0  0  0  0  0  0
   15.4742   -2.1755    0.0000 O   0  0  0  0  0  0  0  0  0  0  0  0
   16.1887   -2.5880    0.0000 C   0  0  0  0  0  0  0  0  0  0  0  0
   16.9031   -2.1755    0.0000 C   0  0  0  0  0  0  0  0  0  0  0  0
   17.6176   -2.5880    0.0000 O   0  0  0  0  0  0  0  0  0  0  0  0
   18.3321   -2.1755    0.0000 C   0  0  0  0  0  0  0  0  0  0  0  0
   19.0465   -2.5880    0.0000 C   0  0  0  0  0  0  0  0  0  0  0  0
   19.7610   -2.1755    0.0000 O   0  0  0  0  0  0  0  0  0  0  0  0
   20.4755   -2.5880    0.0000 C   0  0  0  0  0  0  0  0  0  0  0  0
   21.1900   -2.1755    0.0000 C   0  0  0  0  0  0  0  0  0  0  0  0
   21.9044   -2.5880    0.0000 O   0  0  0  0  0  0  0  0  0  0  0  0
   22.6189   -2.1755    0.0000 C   0  0  0  0  0  0  0  0  0  0  0  0
   23.3334   -2.5880    0.0000 C   0  0  0  0  0  0  0  0  0  0  0  0
   24.0478   -2.1755    0.0000 O   0  0  0  0  0  0  0  0  0  0  0  0
   24.7623   -2.5880    0.0000 C   0  0  0  0  0  0  0  0  0  0  0  0
  2  1  2  0
  3  6  2  0
  4  2  1  0
  5  3  1  0
  6  9  1  0
  7  8  2  0
  8  4  1  0
  9  4  2  0
 10  5  1  0
 11 10  1  0
 12 11  1  0
 13 12  1  0
  7  3  1  0
  2 14  1  0
 14 15  1  0
 15 16  1  0
 16 17  1  0
 17 18  1  0
 18 19  1  0
 19 20  1  0
 20 21  1  0
 21 22  1  0
 22 23  1  0
 23 24  1  0
 24 25  1  0
 25 26  1  0
 26 27  1  0
 27 28  1  0
 28 29  1  0
 29 30  1  0
 30 31  1  0
 31 32  1  0
 32 33  1  0
 33 34  1  0
 34 35  1  0
 35 36  1  0
 36 37  1  0
 37 38  1  0
 38 39  1  0
 39 40  1  0
 40 41  1  0
 41 42  1  0
M  END
> <chembl_id>
CHEMBL1374379

> <chembl_pref_name>
BENZONATATE
