
     RDKit          2D

 40 41  0  0  0  0  0  0  0  0999 V2000
   -1.0333   -9.6250    0.0000 Ca  0  0  0  0  0 15  0  0  0  0  0  0
    3.0833   -7.8917    0.0000 S   0  0  0  0  0  0  0  0  0  0  0  0
    2.4708   -8.2417    0.0000 N   0  0  0  0  0  0  0  0  0  0  0  0
    0.6292   -9.3042    0.0000 P   0  0  0  0  0  0  0  0  0  0  0  0
    1.2417   -8.2417    0.0000 C   0  0  0  0  0  0  0  0  0  0  0  0
    1.8583   -7.8917    0.0000 C   0  0  0  0  0  0  0  0  0  0  0  0
   -0.5958   -7.8917    0.0000 C   0  0  0  0  0  0  0  0  0  0  0  0
    1.2417   -8.9542    0.0000 O   0  0  0  0  0  0  0  0  0  0  0  0
    0.6292   -7.8917    0.0000 C   0  0  0  0  0  0  0  0  0  0  0  0
    0.0167   -8.2417    0.0000 N   0  0  0  0  0  0  0  0  0  0  0  0
    3.6958   -8.2417    0.0000 C   0  0  0  0  0  0  0  0  0  0  0  0
    3.4292   -7.2667    0.0000 O   0  0  0  0  0  0  0  0  0  0  0  0
    2.7250   -7.2667    0.0000 O   0  0  0  0  0  0  0  0  0  0  0  0
    0.0167   -8.9542    0.0000 O   0  0  0  0  0  0  0  0  0  0  0  0
    0.2667   -9.9167    0.0000 O   0  0  0  0  0  0  0  0  0  0  0  0
    0.9792   -9.9167    0.0000 O   0  0  0  0  0  0  0  0  0  0  0  0
    2.4667   -8.9417    0.0000 C   0  0  0  0  0  0  0  0  0  0  0  0
   -1.2083   -8.2417    0.0000 O   0  0  0  0  0  0  0  0  0  0  0  0
   -0.5958   -7.1792    0.0000 O   0  0  0  0  0  0  0  0  0  0  0  0
    0.6292   -7.1792    0.0000 C   0  0  0  0  0  0  0  0  0  0  0  0
   -2.7500   -7.2167    0.0000 O   0  0  0  0  0  0  0  0  0  0  0  0
    4.3083   -7.8917    0.0000 C   0  0  0  0  0  0  0  0  0  0  0  0
    3.6958   -8.9542    0.0000 C   0  0  0  0  0  0  0  0  0  0  0  0
    4.9208   -8.9542    0.0000 C   0  0  0  0  0  0  0  0  0  0  0  0
    5.5375   -9.3042    0.0000 N   0  0  0  0  0  0  0  0  0  0  0  0
    1.2417   -6.8292    0.0000 C   0  0  0  0  0  0  0  0  0  0  0  0
    4.9208   -8.2417    0.0000 C   0  0  0  0  0  0  0  0  0  0  0  0
    4.3083   -9.3083    0.0000 C   0  0  0  0  0  0  0  0  0  0  0  0
   -1.8250   -7.8917    0.0000 C   0  0  0  0  0  0  0  0  0  0  0  0
   -2.3958   -8.3083    0.0000 C   0  0  0  0  0  0  0  0  0  0  0  0
   -2.9708   -7.8917    0.0000 C   0  0  0  0  0  0  0  0  0  0  0  0
    2.8292   -9.5625    0.0000 C   0  0  0  0  0  0  0  0  0  0  0  0
   -2.0417   -7.2167    0.0000 C   0  0  0  0  0  0  0  0  0  0  0  0
    1.8583   -7.1833    0.0000 C   0  0  0  0  0  0  0  0  0  0  0  0
    1.2417   -6.1208    0.0000 C   0  0  0  0  0  0  0  0  0  0  0  0
    2.4708  -10.1708    0.0000 C   0  0  0  0  0  0  0  0  0  0  0  0
    3.5375   -9.5583    0.0000 C   0  0  0  0  0  0  0  0  0  0  0  0
    1.8542   -5.7667    0.0000 C   0  0  0  0  0  0  0  0  0  0  0  0
    2.4708   -6.8292    0.0000 C   0  0  0  0  0  0  0  0  0  0  0  0
    2.4708   -6.1208    0.0000 C   0  0  0  0  0  0  0  0  0  0  0  0
  3  2  1  0
  4  8  1  0
  5  6  1  0
  6  3  1  0
  7 10  1  0
  5  8  1  1
  9  5  1  0
 10  9  1  0
 11  2  1  0
 12  2  2  0
 13  2  2  0
 14  4  1  0
 15  4  1  0
 16  4  2  0
 17  3  1  0
 18  7  1  0
 19  7  2  0
  9 20  1  1
 21 33  1  0
 22 11  1  0
 23 11  2  0
 24 27  1  0
 25 24  1  0
 26 20  1  0
 27 22  2  0
 28 23  1  0
 29 18  1  1
 30 29  1  0
 31 30  1  0
 32 17  1  0
 33 29  1  0
 34 26  2  0
 35 26  1  0
 36 32  1  0
 37 32  1  0
 38 35  2  0
 39 34  1  0
 40 38  1  0
 24 28  2  0
 40 39  2  0
 21 31  1  0
M  CHG  3   1   2  14  -1  15  -1
M  END
> <chembl_id>
CHEMBL1200734

> <chembl_pref_name>
FOSAMPRENAVIR CALCIUM
