
     RDKit          2D

  8  6  0  0  0  0  0  0  0  0999 V2000
    5.8917   -6.9042    0.0000 Na  0  0  0  0  0 15  0  0  0  0  0  0
    4.6250   -6.5542    0.0000 C   0  0  0  0  0  0  0  0  0  0  0  0
    5.2417   -6.9167    0.0000 O   0  0  0  0  0  0  0  0  0  0  0  0
    4.6250   -5.8625    0.0000 O   0  0  0  0  0  0  0  0  0  0  0  0
    2.1625   -6.5667    0.0000 O   0  0  0  0  0  0  0  0  0  0  0  0
    4.0042   -6.9167    0.0000 C   0  0  0  0  0  0  0  0  0  0  0  0
    2.7792   -6.9167    0.0000 C   0  0  0  0  0  0  0  0  0  0  0  0
    3.4000   -6.5542    0.0000 C   0  0  0  0  0  0  0  0  0  0  0  0
  3  2  1  0
  4  2  2  0
  5  7  1  0
  6  2  1  0
  7  8  1  0
  8  6  1  0
M  CHG  2   1   1   3  -1
M  END
> <chembl_id>
CHEMBL1200682

> <chembl_pref_name>
SODIUM OXYBATE
