
     RDKit          2D

 31 33  0  0  0  0  0  0  0  0999 V2000
    6.4417   -9.5667    0.0000 Cl  0  0  0  0  0  0  0  0  0  0  0  0
    2.1500   -8.1292    0.0000 N   0  0  0  0  0  0  0  0  0  0  0  0
    2.7667   -7.0792    0.0000 C   0  0  0  0  0  0  0  0  0  0  0  0
    1.5292   -7.7792    0.0000 C   0  0  0  0  0  0  0  0  0  0  0  0
    1.5292   -7.0792    0.0000 C   0  0  0  0  0  0  0  0  0  0  0  0
    2.7667   -7.7792    0.0000 C   0  0  0  0  0  0  0  0  0  0  0  0
    2.1500   -6.7417    0.0000 C   0  0  0  0  0  0  0  0  0  0  0  0
   -0.3083   -8.1292    0.0000 N   0  0  0  0  0  0  0  0  0  0  0  0
    2.1500   -8.8500    0.0000 C   0  0  0  0  0  0  0  0  0  0  0  0
    0.3125   -7.7792    0.0000 C   0  0  0  0  0  0  0  0  0  0  0  0
    0.9167   -8.1292    0.0000 C   0  0  0  0  0  0  0  0  0  0  0  0
    0.9167   -6.7250    0.0000 C   0  0  0  0  0  0  0  0  0  0  0  0
    3.3875   -6.7417    0.0000 C   0  0  0  0  0  0  0  0  0  0  0  0
    0.3125   -7.0750    0.0000 C   0  0  0  0  0  0  0  0  0  0  0  0
    2.7667   -9.2375    0.0000 C   0  0  0  0  0  0  0  0  0  0  0  0
    2.7667   -9.9542    0.0000 C   0  0  0  0  0  0  0  0  0  0  0  0
    1.5292   -9.2375    0.0000 C   0  0  0  0  0  0  0  0  0  0  0  0
   -0.9333   -7.7792    0.0000 C   0  0  0  0  0  0  0  0  0  0  0  0
    2.1500   -6.0250    0.0000 O   0  0  0  0  0  0  0  0  0  0  0  0
   -1.5500   -8.8417    0.0000 N   0  0  0  0  0  0  0  0  0  0  0  0
    3.3875   -6.0417    0.0000 O   0  0  0  0  0  0  0  0  0  0  0  0
    2.1667  -10.3042    0.0000 C   0  0  0  0  0  0  0  0  0  0  0  0
   -0.3083   -6.7250    0.0000 F   0  0  0  0  0  0  0  0  0  0  0  0
    3.3792   -8.8667    0.0000 F   0  0  0  0  0  0  0  0  0  0  0  0
   -1.5500   -8.1292    0.0000 C   0  0  0  0  0  0  0  0  0  0  0  0
    4.0250   -7.0792    0.0000 O   0  0  0  0  0  0  0  0  0  0  0  0
   -0.3083   -8.8417    0.0000 C   0  0  0  0  0  0  0  0  0  0  0  0
    1.5292   -9.9542    0.0000 C   0  0  0  0  0  0  0  0  0  0  0  0
   -0.9333   -9.2042    0.0000 C   0  0  0  0  0  0  0  0  0  0  0  0
    2.1667  -11.0042    0.0000 F   0  0  0  0  0  0  0  0  0  0  0  0
   -2.1583   -7.7792    0.0000 C   0  0  0  0  0  0  0  0  0  0  0  0
  3  6  2  0
  4  2  1  0
  5  4  2  0
  6  2  1  0
  7  3  1  0
  8 10  1  0
  9  2  1  0
 10 11  2  0
 11  4  1  0
 12  5  1  0
 13  3  1  0
 14 10  1  0
 15  9  2  0
 16 15  1  0
 17  9  1  0
 18  8  1  0
 19  7  2  0
 20 29  1  0
 21 13  2  0
 22 28  1  0
 23 14  1  0
 24 15  1  0
 25 18  1  0
 26 13  1  0
 27  8  1  0
 28 17  2  0
 29 27  1  0
 30 22  1  0
 31 25  1  0
  7  5  1  0
 22 16  2  0
 14 12  2  0
 20 25  1  0
M  END
> <chembl_id>
CHEMBL2107495

> <chembl_pref_name>
TEMAFLOXACIN HYDROCHLORIDE
