
     RDKit          2D

 21 24  0  0  0  0  0  0  0  0999 V2000
   12.7853  -15.4917    0.0000 C   0  0  0  0  0  0  0  0  0  0  0  0
    9.2392  -15.7784    0.0000 N   0  0  0  0  0  0  0  0  0  0  0  0
    8.5255  -16.1735    0.0000 C   0  0  0  0  0  0  0  0  0  0  0  0
   12.0618  -15.8651    0.0000 C   0  0  0  0  0  0  0  0  0  0  0  0
   12.8156  -14.6754    0.0000 C   0  0  0  0  0  0  0  0  0  0  0  0
   10.6855  -15.0094    0.0000 C   0  0  0  0  0  0  0  0  0  0  0  0
    7.8527  -14.9196    0.0000 C   0  0  0  0  0  0  0  0  0  0  0  0
   12.1226  -14.2325    0.0000 C   0  0  0  0  0  0  0  0  0  0  0  0
    9.9881  -14.5806    0.0000 C   0  0  0  0  0  0  0  0  0  0  0  0
   10.7107  -14.1888    0.0000 C   0  0  0  0  0  0  0  0  0  0  0  0
    9.2652  -14.9649    0.0000 C   0  0  0  0  0  0  0  0  0  0  0  0
    8.5731  -14.5381    0.0000 C   0  0  0  0  0  0  0  0  0  0  0  0
    7.8269  -15.7373    0.0000 C   0  0  0  0  0  0  0  0  0  0  0  0
   10.6604  -15.8256    0.0000 C   0  0  0  0  0  0  0  0  0  0  0  0
    9.9340  -16.2216    0.0000 C   0  0  0  0  0  0  0  0  0  0  0  0
   11.4055  -14.6194    0.0000 N   0  0  0  0  0  0  0  0  0  0  0  0
   11.3752  -15.4355    0.0000 C   0  0  0  0  0  0  0  0  0  0  0  0
    9.1995  -14.1475    0.0000 H   0  0  0  0  0  0  0  0  0  0  0  0
    9.9000  -13.7706    0.0000 H   0  0  0  0  0  0  0  0  0  0  0  0
   11.3848  -16.2527    0.0000 H   0  0  0  0  0  0  0  0  0  0  0  0
   10.7331  -16.6417    0.0000 H   0  0  0  0  0  0  0  0  0  0  0  0
  1  5  1  0
  4  1  1  0
  7 13  1  0
 12  7  1  0
  2 11  1  0
 16 17  1  0
  2  3  1  0
 14  6  1  0
  9 11  1  0
 17  4  1  0
  6  9  1  0
  2 15  1  0
 16 10  1  0
 14 15  1  0
 10  9  1  0
 13  3  1  0
 11 12  1  0
 17 14  1  0
 16  8  1  0
  5  8  1  0
 11 18  1  1
  9 19  1  1
 17 20  1  6
 14 21  1  1
M  END
> <chembl_id>
CHEMBL1908847

> <chembl_pref_name>
SPARTEINE
