
     RDKit          2D

 30 35  0  0  1  0  0  0  0  0999 V2000
    5.1208    0.1333    0.0000 N   0  0  0  0  0  0  0  0  0  0  0  0
    6.3458    0.1333    0.0000 C   0  0  0  0  0  0  0  0  0  0  0  0
    6.3458    0.8375    0.0000 C   0  0  0  0  0  0  0  0  0  0  0  0
    5.7292   -0.2208    0.0000 C   0  0  0  0  0  0  0  0  0  0  0  0
    5.1208    0.8458    0.0000 C   0  0  0  0  0  0  0  0  0  0  0  0
    4.5083   -0.2167    0.0000 C   0  0  0  0  0  0  0  0  0  0  0  0
    7.0125   -0.0875    0.0000 N   0  0  0  0  0  0  0  0  0  0  0  0
    4.5083    1.1958    0.0000 C   0  0  0  0  0  0  0  0  0  0  0  0
    3.9000    0.8458    0.0000 N   0  0  0  0  0  0  0  0  0  0  0  0
    5.7333    1.1958    0.0000 C   0  0  0  0  0  0  0  0  0  0  0  0
    5.7250   -0.9292    0.0000 C   0  0  0  0  0  0  0  0  0  0  0  0
    7.0167    1.0542    0.0000 C   0  0  0  0  0  0  0  0  0  0  0  0
    7.4292    0.4833    0.0000 C   0  0  0  0  0  0  0  0  0  0  0  0
    3.9000    0.1333    0.0000 C   0  0  0  0  0  0  0  0  0  0  0  0
    6.3292   -1.2833    0.0000 C   0  0  0  0  0  0  0  0  0  0  0  0
    6.3292   -1.9875    0.0000 C   0  0  0  0  0  0  0  0  0  0  0  0
    4.5125   -0.9292    0.0000 O   0  0  0  0  0  0  0  0  0  0  0  0
    5.7125   -2.3417    0.0000 C   0  0  0  0  0  0  0  0  0  0  0  0
    6.8542   -2.4625    0.0000 O   0  0  0  0  0  0  0  0  0  0  0  0
    4.5083    1.9083    0.0000 O   0  0  0  0  0  0  0  0  0  0  0  0
    5.8625   -3.0375    0.0000 O   0  0  0  0  0  0  0  0  0  0  0  0
    5.1042   -1.2750    0.0000 C   0  0  0  0  0  0  0  0  0  0  0  0
    6.5667   -3.1125    0.0000 C   0  0  0  0  0  0  0  0  0  0  0  0
    5.1000   -1.9833    0.0000 C   0  0  0  0  0  0  0  0  0  0  0  0
    3.2833    1.1958    0.0000 C   0  0  0  0  0  0  0  0  0  0  0  0
    7.3042    1.6958    0.0000 C   0  0  0  0  0  0  0  0  0  0  0  0
    8.1292    0.5542    0.0000 C   0  0  0  0  0  0  0  0  0  0  0  0
    8.0000    1.7667    0.0000 C   0  0  0  0  0  0  0  0  0  0  0  0
    8.4167    1.1958    0.0000 C   0  0  0  0  0  0  0  0  0  0  0  0
    5.1167    1.5500    0.0000 H   0  0  0  0  0  0  0  0  0  0  0  0
  2  4  1  0
  3 10  1  0
  4  1  1  0
  5  1  1  0
  6  1  1  0
  7  2  1  0
  8  5  1  0
  9  8  1  0
 10  5  1  0
  4 11  1  1
 12  3  1  0
 13  7  1  0
 14  6  1  0
 15 11  1  0
 16 15  2  0
 17  6  2  0
 18 16  1  0
 19 16  1  0
 20  8  2  0
 21 18  1  0
 22 11  2  0
 23 19  1  0
 24 22  1  0
 25  9  1  0
 26 12  1  0
 27 13  1  0
 28 26  2  0
 29 27  2  0
  5 30  1  6
 14  9  1  0
  2  3  2  0
 18 24  2  0
 13 12  2  0
 23 21  1  0
 28 29  1  0
M  END
> <chembl_id>
CHEMBL779

> <chembl_pref_name>
TADALAFIL
