
     RDKit          2D

 15 14  0  0  0  0  0  0  0  0999 V2000
   -1.5974   -0.5844    0.0000 Cl  0  0  0  0  0  0  0  0  0  0  0  0
   -6.0584    1.3314    0.0000 C   0  0  0  0  0  0  0  0  0  0  0  0
   -6.7729    0.9190    0.0000 C   0  0  0  0  0  0  0  0  0  0  0  0
   -6.7729    0.0940    0.0000 C   0  0  0  0  0  0  0  0  0  0  0  0
   -6.0584   -0.3185    0.0000 C   0  0  0  0  0  0  0  0  0  0  0  0
   -5.3440    0.0940    0.0000 C   0  0  0  0  0  0  0  0  0  0  0  0
   -5.3440    0.9190    0.0000 C   0  0  0  0  0  0  0  0  0  0  0  0
   -4.6521    1.3683    0.0000 C   0  0  0  0  0  0  0  0  0  0  0  0
   -3.9376    0.9558    0.0000 C   0  0  0  0  0  0  0  0  0  0  0  0
   -3.2231    1.3683    0.0000 C   0  0  0  0  0  0  0  0  0  0  0  0
   -2.5311    0.9190    0.0000 O   0  0  0  0  0  0  0  0  0  0  0  0
   -1.8392    1.3683    0.0000 C   0  0  0  0  0  0  0  0  0  0  0  0
   -1.8392    2.1932    0.0000 O   0  0  0  0  0  0  0  0  0  0  0  0
   -1.1474    0.9190    0.0000 N   0  0  0  0  0  0  0  0  0  0  0  0
   -3.8944    0.1320    0.0000 N   0  0  0  0  0  0  0  0  0  0  0  0
  2  3  1  0
  3  4  2  0
  4  5  1  0
  5  6  2  0
  6  7  1  0
  2  7  2  0
  7  8  1  0
  8  9  1  0
  9 10  1  0
 10 11  1  0
 11 12  1  0
 12 13  2  0
 12 14  1  0
  9 15  1  6
M  END
> <chembl_id>
CHEMBL4297212

> <chembl_pref_name>
SOLRIAMFETOL HYDROCHLORIDE
