
     RDKit          2D

 19 19  0  0  0  0  0  0  0  0999 V2000
    2.4792   -5.6375    0.0000 C   0  0  0  0  0  0  0  0  0  0  0  0
    6.1750   -4.9292    0.0000 C   0  0  0  0  0  0  0  0  0  0  0  0
    6.7917   -4.5792    0.0000 N   0  0  0  0  0  0  0  0  0  0  0  0
    2.4750   -4.9167    0.0000 O   0  0  0  0  0  0  0  0  0  0  0  0
    6.1667   -5.6500    0.0000 C   0  0  0  0  0  0  0  0  0  0  0  0
    5.5542   -4.5875    0.0000 C   0  0  0  0  0  0  0  0  0  0  0  0
    1.8667   -5.9917    0.0000 O   0  0  0  0  0  0  0  0  0  0  0  0
    4.9542   -4.9292    0.0000 C   0  0  0  0  0  0  0  0  0  0  0  0
    5.5542   -5.9917    0.0000 C   0  0  0  0  0  0  0  0  0  0  0  0
    4.9500   -5.6375    0.0000 C   0  0  0  0  0  0  0  0  0  0  0  0
    8.6417   -4.9292    0.0000 Cl  0  0  0  0  0  0  0  0  0  0  0  0
    8.0292   -3.8625    0.0000 Cl  0  0  0  0  0  0  0  0  0  0  0  0
    3.1042   -6.0000    0.0000 C   0  0  0  0  0  0  0  0  0  0  0  0
    3.7167   -5.6375    0.0000 C   0  0  0  0  0  0  0  0  0  0  0  0
    6.7917   -3.8792    0.0000 C   0  0  0  0  0  0  0  0  0  0  0  0
    7.4042   -4.9292    0.0000 C   0  0  0  0  0  0  0  0  0  0  0  0
    4.3292   -6.0000    0.0000 C   0  0  0  0  0  0  0  0  0  0  0  0
    8.0167   -4.5750    0.0000 C   0  0  0  0  0  0  0  0  0  0  0  0
    7.4042   -3.5167    0.0000 C   0  0  0  0  0  0  0  0  0  0  0  0
  2  5  2  0
  3  2  1  0
  4  1  2  0
  5  9  1  0
  6  8  2  0
  7  1  1  0
  8 10  1  0
  9 10  2  0
 10 17  1  0
 11 18  1  0
 12 19  1  0
 13  1  1  0
 14 13  1  0
 15  3  1  0
 16  3  1  0
 17 14  1  0
 18 16  1  0
 19 15  1  0
  2  6  1  0
M  END
> <chembl_id>
CHEMBL515

> <chembl_pref_name>
CHLORAMBUCIL
