
     RDKit          2D

 37 39  0  0  0  0  0  0  0  0999 V2000
   -8.8052    2.8533    0.0000 P   0  0  0  0  0  0  0  0  0  0  0  0
   -9.6302    2.8533    0.0000 O   0  0  0  0  0  0  0  0  0  0  0  0
   -7.9802    2.8533    0.0000 O   0  0  0  0  0  0  0  0  0  0  0  0
   -8.8052    2.0283    0.0000 O   0  0  0  0  0  0  0  0  0  0  0  0
   -8.8052    3.6783    0.0000 O   0  0  0  0  0  0  0  0  0  0  0  0
   -6.9777    0.7518    0.0000 N   0  0  0  0  0  0  0  0  0  0  0  0
   -7.6922    0.3393    0.0000 C   0  0  0  0  0  0  0  0  0  0  0  0
   -7.6922   -0.4857    0.0000 C   0  0  0  0  0  0  0  0  0  0  0  0
   -6.9777   -0.8982    0.0000 C   0  0  0  0  0  0  0  0  0  0  0  0
   -6.2633   -0.4857    0.0000 C   0  0  0  0  0  0  0  0  0  0  0  0
   -6.2633    0.3393    0.0000 C   0  0  0  0  0  0  0  0  0  0  0  0
   -4.8312   -0.4802    0.0000 C   0  0  0  0  0  0  0  0  0  0  0  0
   -5.5456   -0.8927    0.0000 N   0  0  0  0  0  0  0  0  0  0  0  0
   -5.5456   -1.7177    0.0000 C   0  0  0  0  0  0  0  0  0  0  0  0
   -4.8312   -2.1302    0.0000 C   0  0  0  0  0  0  0  0  0  0  0  0
   -4.1167   -1.7177    0.0000 C   0  0  0  0  0  0  0  0  0  0  0  0
   -4.1167   -0.8927    0.0000 C   0  0  0  0  0  0  0  0  0  0  0  0
   -3.4022   -0.4802    0.0000 C   0  0  0  0  0  0  0  0  0  0  0  0
   -3.4022   -2.1302    0.0000 N   0  0  0  0  0  0  0  0  0  0  0  0
   -2.6878   -1.7177    0.0000 C   0  0  0  0  0  0  0  0  0  0  0  0
   -2.6878   -0.8927    0.0000 N   0  0  0  0  0  0  0  0  0  0  0  0
   -8.3596    0.8242    0.0000 O   0  0  0  0  0  0  0  0  0  0  0  0
   -9.1133    0.4887    0.0000 C   0  0  0  0  0  0  0  0  0  0  0  0
   -8.3841   -0.9350    0.0000 C   0  0  0  0  0  0  0  0  0  0  0  0
   -3.4022    0.3448    0.0000 N   0  0  0  0  0  0  0  0  0  0  0  0
   -4.1167    0.7573    0.0000 C   0  0  0  0  0  0  0  0  0  0  0  0
   -4.2030    1.5778    0.0000 C   0  0  0  0  0  0  0  0  0  0  0  0
   -5.0099    1.7493    0.0000 N   0  0  0  0  0  0  0  0  0  0  0  0
   -5.4224    1.0348    0.0000 C   0  0  0  0  0  0  0  0  0  0  0  0
   -4.8704    0.4218    0.0000 C   0  0  0  0  0  0  0  0  0  0  0  0
   -5.3454    2.5030    0.0000 C   0  0  0  0  0  0  0  0  0  0  0  0
   -6.1659    2.5892    0.0000 C   0  0  0  0  0  0  0  0  0  0  0  0
   -4.8605    3.1704    0.0000 O   0  0  0  0  0  0  0  0  0  0  0  0
   -6.5015    3.3429    0.0000 C   0  0  0  0  0  0  0  0  0  0  0  0
   -8.3409   -1.7589    0.0000 F   0  0  0  0  0  0  0  0  0  0  0  0
   -9.1192   -0.5605    0.0000 F   0  0  0  0  0  0  0  0  0  0  0  0
   -9.0986   -1.3475    0.0000 F   0  0  0  0  0  0  0  0  0  0  0  0
  1  2  1  0
  1  3  1  0
  1  4  1  0
  1  5  2  0
  6  7  1  0
  7  8  2  0
  8  9  1  0
  9 10  2  0
 10 11  1  0
  6 11  2  0
 12 13  1  0
 13 14  1  0
 14 15  1  0
 15 16  1  0
 16 17  1  0
 12 17  1  0
 19 20  1  0
 20 21  2  0
 18 21  1  0
 16 19  2  0
 18 17  2  0
  7 22  1  0
 22 23  1  0
  8 24  1  0
 10 13  1  0
 18 25  1  0
 26 25  1  1
 27 28  1  0
 28 29  1  0
 29 30  1  0
 26 27  1  0
 26 30  1  0
 28 31  1  0
 31 32  1  0
 31 33  2  0
 32 34  1  0
 24 35  1  0
 24 36  1  0
 24 37  1  0
M  END
> <chembl_id>
CHEMBL3989909

> <chembl_pref_name>
LENIOLISIB PHOSPHATE
