
     RDKit          2D

 23 24  0  0  1  0  0  0  0  0999 V2000
   -1.9708   -0.0542    0.0000 N   0  0  0  0  0  0  0  0  0  0  0  0
   -2.8083    1.3958    0.0000 O   0  0  0  0  0  0  0  0  0  0  0  0
    3.0917   -1.5167    0.0000 C   0  0  0  0  0  0  0  0  0  0  0  0
    2.2417   -1.5167    0.0000 C   0  0  0  0  0  0  0  0  0  0  0  0
   -1.5500    0.6583    0.0000 C   0  0  0  0  0  0  0  0  0  0  0  0
   -2.8083   -0.0542    0.0000 C   0  0  0  0  0  0  0  0  0  0  0  0
   -1.5500   -0.7875    0.0000 C   0  0  0  0  0  0  0  0  0  0  0  0
   -1.9708    1.3958    0.0000 C   0  0  0  0  0  0  0  0  0  0  0  0
   -3.2333    0.6583    0.0000 C   0  0  0  0  0  0  0  0  0  0  0  0
    1.8167   -0.7875    0.0000 C   0  0  0  0  0  0  0  0  0  0  0  0
    1.8167   -2.2542    0.0000 C   0  0  0  0  0  0  0  0  0  0  0  0
    0.5625   -1.5167    0.0000 C   0  0  0  0  0  0  0  0  0  0  0  0
   -0.2958   -1.5167    0.0000 C   0  0  0  0  0  0  0  0  0  0  0  0
   -0.7083   -0.7875    0.0000 C   0  0  0  0  0  0  0  0  0  0  0  0
    0.9792   -0.7875    0.0000 C   0  0  0  0  0  0  0  0  0  0  0  0
    0.9792   -2.2542    0.0000 C   0  0  0  0  0  0  0  0  0  0  0  0
    3.9125   -1.5167    0.0000 C   0  0  0  0  0  0  0  0  0  0  0  0
    3.0917   -0.7042    0.0000 C   0  0  0  0  0  0  0  0  0  0  0  0
    3.1042   -2.3375    0.0000 C   0  0  0  0  0  0  0  0  0  0  0  0
   -3.6625   -0.2750    0.0000 C   0  0  0  0  0  0  0  0  0  0  0  0
   -0.9625    1.4000    0.0000 C   0  0  0  0  0  0  0  0  0  0  0  0
   -0.2958   -0.0542    0.0000 C   0  0  0  0  0  0  0  0  0  0  0  0
    4.3417   -2.1917    0.0000 C   0  0  0  0  0  0  0  0  0  0  0  0
  2  9  1  0
  3  4  1  0
  4 11  2  0
  5  1  1  0
  6  1  1  0
  7  1  1  0
  8  5  1  0
  9  6  1  0
 10 15  2  0
 11 16  1  0
 12 13  1  0
 13 14  1  0
 14  7  1  0
 15 12  1  0
 16 12  2  0
 17  3  1  0
 18  3  1  0
 19  3  1  0
  9 20  1  6
  8 21  1  6
 22 14  1  0
 23 17  1  0
  8  2  1  0
 10  4  1  0
M  END
> <chembl_id>
CHEMBL489411

> <chembl_pref_name>
AMOROLFINE
