
     RDKit          2D

214215  0  0  1  0  0  0  0  0999 V2000
    9.1470    1.2277    0.0000 C   0  0  0  0  0  0  0  0  0  0  0  0
    9.8603    0.8152    0.0000 C   0  0  0  0  0  0  0  0  0  0  0  0
    5.5755    0.8152    0.0000 C   0  0  0  0  0  0  0  0  0  0  0  0
    8.4337    0.8152    0.0000 N   0  0  0  0  0  0  0  0  0  0  0  0
    4.8573    1.2277    0.0000 C   0  0  0  0  0  0  0  0  0  0  0  0
    8.3900  -11.5004    0.0000 N   0  0  0  0  0  0  0  0  0  0  0  0
    7.7203    1.2277    0.0000 C   0  0  0  0  0  0  0  0  0  0  0  0
   -0.8540    1.2277    0.0000 C   0  0  0  0  0  0  0  0  0  0  0  0
   15.5765   -1.6595    0.0000 C   0  0  0  0  0  0  0  0  0  0  0  0
   12.0050    1.2277    0.0000 C   0  0  0  0  0  0  0  0  0  0  0  0
    6.9681   -4.9108    0.0000 C   0  0  0  0  0  0  0  0  0  0  0  0
    7.6814  -11.0831    0.0000 C   0  0  0  0  0  0  0  0  0  0  0  0
   15.5716   -0.0049    0.0000 C   0  0  0  0  0  0  0  0  0  0  0  0
   -0.1601   -9.8408    0.0000 C   0  0  0  0  0  0  0  0  0  0  0  0
   13.3880   -5.3329    0.0000 C   0  0  0  0  0  0  0  0  0  0  0  0
    0.5435   -5.3231    0.0000 C   0  0  0  0  0  0  0  0  0  0  0  0
    1.2568  -11.4858    0.0000 C   0  0  0  0  0  0  0  0  0  0  0  0
   10.5736    1.2277    0.0000 N   0  0  0  0  0  0  0  0  0  0  0  0
    9.1081   -5.3280    0.0000 C   0  0  0  0  0  0  0  0  0  0  0  0
   14.1498    0.8152    0.0000 C   0  0  0  0  0  0  0  0  0  0  0  0
   -2.9988    0.8152    0.0000 C   0  0  0  0  0  0  0  0  0  0  0  0
   -0.8831   -6.1432    0.0000 C   0  0  0  0  0  0  0  0  0  0  0  0
   14.8437   -3.7025    0.0000 C   0  0  0  0  0  0  0  0  0  0  0  0
    2.6835   -4.9108    0.0000 C   0  0  0  0  0  0  0  0  0  0  0  0
   -0.8831   -7.7882    0.0000 C   0  0  0  0  0  0  0  0  0  0  0  0
    4.8282   -5.3231    0.0000 C   0  0  0  0  0  0  0  0  0  0  0  0
   11.2480   -4.9108    0.0000 C   0  0  0  0  0  0  0  0  0  0  0  0
   16.2849   -0.4173    0.0000 N   0  0  0  0  0  0  0  0  0  0  0  0
   -2.2855    1.2277    0.0000 N   0  0  0  0  0  0  0  0  0  0  0  0
    8.3997   -4.9108    0.0000 N   0  0  0  0  0  0  0  0  0  0  0  0
   11.2869    0.8152    0.0000 C   0  0  0  0  0  0  0  0  0  0  0  0
    6.2888    1.2277    0.0000 N   0  0  0  0  0  0  0  0  0  0  0  0
    7.6863   -5.3231    0.0000 C   0  0  0  0  0  0  0  0  0  0  0  0
   16.2898   -1.2374    0.0000 C   0  0  0  0  0  0  0  0  0  0  0  0
   -1.5722    0.8152    0.0000 C   0  0  0  0  0  0  0  0  0  0  0  0
   -0.1456    0.8152    0.0000 N   0  0  0  0  0  0  0  0  0  0  0  0
    0.5532  -10.2484    0.0000 N   0  0  0  0  0  0  0  0  0  0  0  0
   14.1256   -4.1052    0.0000 N   0  0  0  0  0  0  0  0  0  0  0  0
    1.9749   -5.3231    0.0000 N   0  0  0  0  0  0  0  0  0  0  0  0
   -0.8831   -8.6131    0.0000 N   0  0  0  0  0  0  0  0  0  0  0  0
   14.8632    1.2277    0.0000 N   0  0  0  0  0  0  0  0  0  0  0  0
   12.7183    0.8152    0.0000 N   0  0  0  0  0  0  0  0  0  0  0  0
   -0.1698   -4.9108    0.0000 N   0  0  0  0  0  0  0  0  0  0  0  0
    6.2597   -5.3231    0.0000 N   0  0  0  0  0  0  0  0  0  0  0  0
   15.5814   -2.4797    0.0000 N   0  0  0  0  0  0  0  0  0  0  0  0
   10.5396   -5.3280    0.0000 N   0  0  0  0  0  0  0  0  0  0  0  0
    1.9701  -11.0831    0.0000 N   0  0  0  0  0  0  0  0  0  0  0  0
   12.6795   -4.9108    0.0000 N   0  0  0  0  0  0  0  0  0  0  0  0
   -1.5964   -6.5509    0.0000 N   0  0  0  0  0  0  0  0  0  0  0  0
    4.1149   -4.9108    0.0000 N   0  0  0  0  0  0  0  0  0  0  0  0
    0.5677    1.2277    0.0000 C   0  0  0  0  0  0  0  0  0  0  0  0
    9.1033  -11.0831    0.0000 C   0  0  0  0  0  0  0  0  0  0  0  0
    0.5677    2.0526    0.0000 C   0  0  0  0  0  0  0  0  0  0  0  0
    1.2859    0.8152    0.0000 C   0  0  0  0  0  0  0  0  0  0  0  0
    7.0021    0.8152    0.0000 C   0  0  0  0  0  0  0  0  0  0  0  0
    4.1440    0.8152    0.0000 N   0  0  0  0  0  0  0  0  0  0  0  0
   14.1111   -4.9301    0.0000 C   0  0  0  0  0  0  0  0  0  0  0  0
    1.2616   -4.9108    0.0000 C   0  0  0  0  0  0  0  0  0  0  0  0
   15.5668    0.8249    0.0000 C   0  0  0  0  0  0  0  0  0  0  0  0
   -0.1698   -9.0160    0.0000 C   0  0  0  0  0  0  0  0  0  0  0  0
    0.5483  -11.0686    0.0000 C   0  0  0  0  0  0  0  0  0  0  0  0
    3.4016  -11.0831    0.0000 C   0  0  0  0  0  0  0  0  0  0  0  0
   -1.6644    2.4311    0.0000 N   0  0  0  0  0  0  0  0  0  0  0  0
    6.9634  -11.5004    0.0000 C   0  0  0  0  0  0  0  0  0  0  0  0
   12.0196   -1.1937    0.0000 C   0  0  0  0  0  0  0  0  0  0  0  0
   -5.1728   -7.7833    0.0000 C   0  0  0  0  0  0  0  0  0  0  0  0
   10.5347   -8.6229    0.0000 C   0  0  0  0  0  0  0  0  0  0  0  0
    4.8331   -8.6131    0.0000 C   0  0  0  0  0  0  0  0  0  0  0  0
    9.8214  -11.5004    0.0000 C   0  0  0  0  0  0  0  0  0  0  0  0
    6.2500  -11.0831    0.0000 N   0  0  0  0  0  0  0  0  0  0  0  0
   -2.9988    2.4651    0.0000 C   0  0  0  0  0  0  0  0  0  0  0  0
   -0.8831   -5.3135    0.0000 C   0  0  0  0  0  0  0  0  0  0  0  0
    9.8263   -4.9155    0.0000 C   0  0  0  0  0  0  0  0  0  0  0  0
   13.4316    1.2277    0.0000 C   0  0  0  0  0  0  0  0  0  0  0  0
    1.2859    2.4651    0.0000 C   0  0  0  0  0  0  0  0  0  0  0  0
   -2.7222    3.2414    0.0000 N   0  0  0  0  0  0  0  0  0  0  0  0
    2.6835  -11.5004    0.0000 C   0  0  0  0  0  0  0  0  0  0  0  0
    3.4307    1.2277    0.0000 C   0  0  0  0  0  0  0  0  0  0  0  0
   -3.7170    2.0526    0.0000 C   0  0  0  0  0  0  0  0  0  0  0  0
    5.5415  -11.5004    0.0000 C   0  0  0  0  0  0  0  0  0  0  0  0
    1.9993    1.2277    0.0000 N   0  0  0  0  0  0  0  0  0  0  0  0
    4.1101  -11.5004    0.0000 N   0  0  0  0  0  0  0  0  0  0  0  0
   -3.7170    1.2277    0.0000 C   0  0  0  0  0  0  0  0  0  0  0  0
    5.5464   -4.9108    0.0000 C   0  0  0  0  0  0  0  0  0  0  0  0
   11.9662   -5.3231    0.0000 C   0  0  0  0  0  0  0  0  0  0  0  0
   14.8535   -2.8775    0.0000 C   0  0  0  0  0  0  0  0  0  0  0  0
   -1.5964   -7.3757    0.0000 C   0  0  0  0  0  0  0  0  0  0  0  0
    3.4016   -5.3231    0.0000 C   0  0  0  0  0  0  0  0  0  0  0  0
   -1.9021    3.2172    0.0000 C   0  0  0  0  0  0  0  0  0  0  0  0
    3.4016  -13.5579    0.0000 C   0  0  0  0  0  0  0  0  0  0  0  0
   -3.0280   -4.9059    0.0000 C   0  0  0  0  0  0  0  0  0  0  0  0
   12.0293   -0.3688    0.0000 N   0  0  0  0  0  0  0  0  0  0  0  0
    4.1198   -9.0256    0.0000 N   0  0  0  0  0  0  0  0  0  0  0  0
   -5.1728   -8.6083    0.0000 N   0  0  0  0  0  0  0  0  0  0  0  0
   11.2480   -9.0353    0.0000 N   0  0  0  0  0  0  0  0  0  0  0  0
    9.1081   -2.8533    0.0000 C   0  0  0  0  0  0  0  0  0  0  0  0
   14.1498    3.2900    0.0000 C   0  0  0  0  0  0  0  0  0  0  0  0
   -2.3438    1.9604    0.0000 C   0  0  0  0  0  0  0  0  0  0  0  0
    5.5755   -0.0097    0.0000 O   0  0  0  0  0  0  0  0  0  0  0  0
    9.8603   -0.0097    0.0000 O   0  0  0  0  0  0  0  0  0  0  0  0
   14.8583   -1.2519    0.0000 O   0  0  0  0  0  0  0  0  0  0  0  0
   12.0050    2.0526    0.0000 O   0  0  0  0  0  0  0  0  0  0  0  0
   -0.8540    2.0526    0.0000 O   0  0  0  0  0  0  0  0  0  0  0  0
    6.9681   -4.0858    0.0000 O   0  0  0  0  0  0  0  0  0  0  0  0
    7.6814  -10.2630    0.0000 O   0  0  0  0  0  0  0  0  0  0  0  0
    7.7203    2.0526    0.0000 O   0  0  0  0  0  0  0  0  0  0  0  0
    0.5435   -6.1481    0.0000 O   0  0  0  0  0  0  0  0  0  0  0  0
   13.3880   -6.1578    0.0000 O   0  0  0  0  0  0  0  0  0  0  0  0
    1.2423  -12.3107    0.0000 O   0  0  0  0  0  0  0  0  0  0  0  0
   14.8535   -0.4173    0.0000 O   0  0  0  0  0  0  0  0  0  0  0  0
   -0.8734  -10.2630    0.0000 O   0  0  0  0  0  0  0  0  0  0  0  0
    2.6835   -4.0858    0.0000 O   0  0  0  0  0  0  0  0  0  0  0  0
   15.5474   -4.1294    0.0000 O   0  0  0  0  0  0  0  0  0  0  0  0
   -0.1650   -7.3757    0.0000 O   0  0  0  0  0  0  0  0  0  0  0  0
   -0.1698   -6.5557    0.0000 O   0  0  0  0  0  0  0  0  0  0  0  0
   11.2480   -4.0858    0.0000 O   0  0  0  0  0  0  0  0  0  0  0  0
   -2.9988   -0.0097    0.0000 O   0  0  0  0  0  0  0  0  0  0  0  0
    9.1081   -6.1529    0.0000 O   0  0  0  0  0  0  0  0  0  0  0  0
   14.1498   -0.0097    0.0000 O   0  0  0  0  0  0  0  0  0  0  0  0
    4.8282   -6.1481    0.0000 O   0  0  0  0  0  0  0  0  0  0  0  0
    7.0021   -0.0097    0.0000 C   0  0  0  0  0  0  0  0  0  0  0  0
    1.2859   -0.0097    0.0000 O   0  0  0  0  0  0  0  0  0  0  0  0
    3.4016  -10.2630    0.0000 O   0  0  0  0  0  0  0  0  0  0  0  0
    9.8214  -12.3205    0.0000 O   0  0  0  0  0  0  0  0  0  0  0  0
   -0.1698  -11.4809    0.0000 C   0  0  0  0  0  0  0  0  0  0  0  0
   14.8195   -5.3523    0.0000 C   0  0  0  0  0  0  0  0  0  0  0  0
   16.2849    1.2374    0.0000 C   0  0  0  0  0  0  0  0  0  0  0  0
    1.2616   -4.0858    0.0000 C   0  0  0  0  0  0  0  0  0  0  0  0
    0.5386   -8.5986    0.0000 C   0  0  0  0  0  0  0  0  0  0  0  0
    6.9634  -12.3205    0.0000 C   0  0  0  0  0  0  0  0  0  0  0  0
    9.1470    2.0526    0.0000 C   0  0  0  0  0  0  0  0  0  0  0  0
    4.8573    2.0526    0.0000 C   0  0  0  0  0  0  0  0  0  0  0  0
    1.2859    3.2900    0.0000 O   0  0  0  0  0  0  0  0  0  0  0  0
    3.4307    2.0526    0.0000 O   0  0  0  0  0  0  0  0  0  0  0  0
    5.5415  -12.3205    0.0000 O   0  0  0  0  0  0  0  0  0  0  0  0
    2.6835  -13.9752    0.0000 O   0  0  0  0  0  0  0  0  0  0  0  0
   -3.0280   -4.0810    0.0000 O   0  0  0  0  0  0  0  0  0  0  0  0
   13.4316    3.7025    0.0000 O   0  0  0  0  0  0  0  0  0  0  0  0
    9.8263   -2.4408    0.0000 O   0  0  0  0  0  0  0  0  0  0  0  0
   -1.5964   -4.9010    0.0000 C   0  0  0  0  0  0  0  0  0  0  0  0
    9.8263   -4.0906    0.0000 C   0  0  0  0  0  0  0  0  0  0  0  0
   13.4316    2.0526    0.0000 C   0  0  0  0  0  0  0  0  0  0  0  0
    2.6835  -12.3205    0.0000 C   0  0  0  0  0  0  0  0  0  0  0  0
   12.7281   -1.6159    0.0000 N   0  0  0  0  0  0  0  0  0  0  0  0
    4.8331   -7.7882    0.0000 N   0  0  0  0  0  0  0  0  0  0  0  0
   -4.4595   -7.3710    0.0000 N   0  0  0  0  0  0  0  0  0  0  0  0
   10.5347   -7.7979    0.0000 N   0  0  0  0  0  0  0  0  0  0  0  0
    4.8234  -11.0831    0.0000 C   0  0  0  0  0  0  0  0  0  0  0  0
    2.7126    0.8152    0.0000 C   0  0  0  0  0  0  0  0  0  0  0  0
    5.5464   -9.0256    0.0000 N   0  0  0  0  0  0  0  0  0  0  0  0
   11.2966   -1.5964    0.0000 N   0  0  0  0  0  0  0  0  0  0  0  0
    9.8263   -9.0353    0.0000 N   0  0  0  0  0  0  0  0  0  0  0  0
   -5.8861   -7.3710    0.0000 N   0  0  0  0  0  0  0  0  0  0  0  0
   10.5347  -11.0831    0.0000 N   0  0  0  0  0  0  0  0  0  0  0  0
    9.1033  -10.2630    0.0000 C   0  0  0  0  0  0  0  0  0  0  0  0
    3.4016  -12.7378    0.0000 C   0  0  0  0  0  0  0  0  0  0  0  0
   -2.3146   -5.3184    0.0000 C   0  0  0  0  0  0  0  0  0  0  0  0
   14.1498    2.4651    0.0000 C   0  0  0  0  0  0  0  0  0  0  0  0
    9.1081   -3.6781    0.0000 C   0  0  0  0  0  0  0  0  0  0  0  0
   -3.7462   -5.3184    0.0000 N   0  0  0  0  0  0  0  0  0  0  0  0
    4.1149  -13.9752    0.0000 N   0  0  0  0  0  0  0  0  0  0  0  0
   -4.4304    0.8152    0.0000 N   0  0  0  0  0  0  0  0  0  0  0  0
    1.9993    2.0526    0.0000 O   0  0  0  0  0  0  0  0  0  0  0  0
    8.3948   -2.4408    0.0000 O   0  0  0  0  0  0  0  0  0  0  0  0
   14.8632    3.7025    0.0000 O   0  0  0  0  0  0  0  0  0  0  0  0
    7.7203   -0.4222    0.0000 C   0  0  0  0  0  0  0  0  0  0  0  0
   11.2771   -0.0097    0.0000 C   0  0  0  0  0  0  0  0  0  0  0  0
   17.0031   -1.6401    0.0000 C   0  0  0  0  0  0  0  0  0  0  0  0
   -1.5722   -0.0097    0.0000 C   0  0  0  0  0  0  0  0  0  0  0  0
    5.5755    2.4651    0.0000 O   0  0  0  0  0  0  0  0  0  0  0  0
    9.8603    2.4651    0.0000 O   0  0  0  0  0  0  0  0  0  0  0  0
   10.5590   -0.4222    0.0000 O   0  0  0  0  0  0  0  0  0  0  0  0
   17.7164   -1.2228    0.0000 O   0  0  0  0  0  0  0  0  0  0  0  0
   -0.8540   -0.4222    0.0000 O   0  0  0  0  0  0  0  0  0  0  0  0
   -0.1698  -12.3059    0.0000 C   0  0  0  0  0  0  0  0  0  0  0  0
    0.5435   -3.6734    0.0000 C   0  0  0  0  0  0  0  0  0  0  0  0
    7.6814  -12.7378    0.0000 C   0  0  0  0  0  0  0  0  0  0  0  0
   16.9982    0.8201    0.0000 C   0  0  0  0  0  0  0  0  0  0  0  0
    1.2616   -9.0111    0.0000 C   0  0  0  0  0  0  0  0  0  0  0  0
   14.8049   -6.1773    0.0000 C   0  0  0  0  0  0  0  0  0  0  0  0
   11.9662   -6.1481    0.0000 C   0  0  0  0  0  0  0  0  0  0  0  0
    3.4016   -6.1384    0.0000 C   0  0  0  0  0  0  0  0  0  0  0  0
   -2.3195   -7.7786    0.0000 C   0  0  0  0  0  0  0  0  0  0  0  0
   14.1450   -2.4553    0.0000 C   0  0  0  0  0  0  0  0  0  0  0  0
    5.5464   -4.0858    0.0000 C   0  0  0  0  0  0  0  0  0  0  0  0
   13.4462   -1.2132    0.0000 C   0  0  0  0  0  0  0  0  0  0  0  0
   -3.7509   -7.7833    0.0000 C   0  0  0  0  0  0  0  0  0  0  0  0
   11.2480   -7.3855    0.0000 C   0  0  0  0  0  0  0  0  0  0  0  0
    4.1198   -7.3757    0.0000 C   0  0  0  0  0  0  0  0  0  0  0  0
    8.4337    2.4651    0.0000 C   0  0  0  0  0  0  0  0  0  0  0  0
    4.1440    2.4651    0.0000 C   0  0  0  0  0  0  0  0  0  0  0  0
    9.8214   -9.8457    0.0000 C   0  0  0  0  0  0  0  0  0  0  0  0
    8.3900   -9.8457    0.0000 C   0  0  0  0  0  0  0  0  0  0  0  0
    7.7203   -1.2470    0.0000 C   0  0  0  0  0  0  0  0  0  0  0  0
    8.4288   -0.0097    0.0000 C   0  0  0  0  0  0  0  0  0  0  0  0
   -3.0376   -7.3710    0.0000 C   0  0  0  0  0  0  0  0  0  0  0  0
    4.1198   -6.5509    0.0000 C   0  0  0  0  0  0  0  0  0  0  0  0
   11.2480   -6.5605    0.0000 C   0  0  0  0  0  0  0  0  0  0  0  0
   14.1547   -1.6304    0.0000 C   0  0  0  0  0  0  0  0  0  0  0  0
   17.7164    1.2325    0.0000 C   0  0  0  0  0  0  0  0  0  0  0  0
   16.9982   -0.0049    0.0000 C   0  0  0  0  0  0  0  0  0  0  0  0
    0.5435  -12.7232    0.0000 C   0  0  0  0  0  0  0  0  0  0  0  0
    8.3948  -12.3205    0.0000 C   0  0  0  0  0  0  0  0  0  0  0  0
    7.6814  -13.5579    0.0000 C   0  0  0  0  0  0  0  0  0  0  0  0
    0.5435   -2.8484    0.0000 C   0  0  0  0  0  0  0  0  0  0  0  0
   -0.1698   -4.0858    0.0000 C   0  0  0  0  0  0  0  0  0  0  0  0
   15.5134   -6.6042    0.0000 C   0  0  0  0  0  0  0  0  0  0  0  0
   14.0867   -6.5800    0.0000 C   0  0  0  0  0  0  0  0  0  0  0  0
    1.9701   -8.5889    0.0000 C   0  0  0  0  0  0  0  0  0  0  0  0
    1.2665   -9.8312    0.0000 C   0  0  0  0  0  0  0  0  0  0  0  0
   -0.8880  -12.7183    0.0000 C   0  0  0  0  0  0  0  0  0  0  0  0
    8.4288   -1.6595    0.0000 C   0  0  0  0  0  0  0  0  0  0  0  0
    9.1421   -0.4222    0.0000 C   0  0  0  0  0  0  0  0  0  0  0  0
    9.1421   -1.2470    0.0000 C   0  0  0  0  0  0  0  0  0  0  0  0
  2  1  1  0
  3 32  1  0
  1  4  1  1
  5  3  1  0
  6 12  1  0
  7  4  1  0
  8 36  1  0
  9 34  1  0
 10 31  1  0
 11 33  1  0
 12 64  1  0
 13 59  1  0
 14 60  1  0
 15 57  1  0
 16 58  1  0
 17 61  1  0
 18  2  1  0
 19 73  1  0
 20 74  1  0
 21 29  1  0
 22 72  1  0
 23 86  1  0
 24 88  1  0
 25 87  1  0
 26 84  1  0
 27 85  1  0
 28 13  1  0
 35 29  1  6
 30 19  1  0
 31 18  1  6
 55 32  1  6
 34 28  1  1
 35  8  1  0
 51 36  1  1
 37 14  1  0
 38 23  1  0
 39 24  1  0
 40 25  1  0
 41 20  1  0
 42 10  1  0
 43 16  1  0
 44 11  1  0
 45  9  1  0
 46 27  1  0
 47 17  1  0
 48 15  1  0
 49 22  1  0
 50 26  1  0
 51 54  1  0
 52  6  1  1
 51 53  1  0
 54 81  1  0
 55  7  1  0
  5 56  1  1
 57 38  1  1
 58 39  1  6
 59 41  1  1
 60 40  1  1
 61 37  1  6
 62 77  1  0
 63 98  1  0
 64 70  1  6
 65144  1  0
 66146  1  0
 67147  1  0
 68145  1  0
 69 52  1  0
 70 80  1  0
 71 79  1  0
 72 43  1  6
 73 46  1  6
 74 42  1  1
 75 53  1  0
 76 71  1  0
 77 47  1  6
 78 56  1  0
 83 79  1  0
 80148  1  0
 81149  1  0
 82 62  1  0
 83 21  1  0
 84 44  1  0
 85 48  1  1
 86 45  1  6
 87 49  1  6
 88 50  1  1
 89 76  1  0
 90156  1  0
 91157  1  0
 92 65  2  0
 93 68  2  0
 94 66  2  0
 95 67  2  0
 96159  1  0
 97158  1  0
 98 71  2  0
 99  3  2  0
100  2  2  0
101  9  2  0
102 10  2  0
103  8  2  0
104 11  2  0
105 12  2  0
106  7  2  0
107 16  2  0
108 15  2  0
109 17  2  0
110 13  2  0
111 14  2  0
112 24  2  0
113 23  2  0
114 25  2  0
115 22  2  0
116 27  2  0
117 21  2  0
118 19  2  0
119 20  2  0
120 26  2  0
 55121  1  0
122 54  2  0
123 62  2  0
124 69  2  0
 61125  1  0
 57126  1  0
 59127  1  0
 58128  1  0
 60129  1  0
 64130  1  0
131  1  1  0
132  5  1  0
133 75  2  0
134 78  2  0
135 80  2  0
136 90  2  0
137 91  2  0
138 97  2  0
139 96  2  0
 72140  1  0
 73141  1  0
 74142  1  0
 77143  1  0
144186  1  0
145189  1  0
146187  1  0
147188  1  0
148 82  1  0
149 78  1  0
150 68  1  0
151 65  1  0
152 67  1  0
153 66  1  0
154 69  1  0
 52155  1  0
156143  1  0
157140  1  0
158142  1  0
159141  1  0
160 91  1  0
161 90  1  0
 83162  1  1
163 75  1  0
164 96  1  0
165 97  1  0
166121  1  0
 31167  1  0
 34168  1  0
 35169  1  0
132170  1  1
131171  1  1
172167  1  0
173168  1  0
174169  1  0
175125  1  0
176128  1  0
177130  1  0
178127  1  0
179129  1  0
180126  1  0
 85181  1  0
 88182  1  0
 87183  1  0
 86184  1  0
 84185  1  6
186199  1  0
187196  1  0
188198  1  0
189197  1  0
190131  1  0
191132  1  0
192155  1  0
193155  1  0
194166  1  0
195166  2  0
196183  1  0
197182  1  0
198181  1  0
199184  1  0
200178  1  0
201178  1  0
202175  1  0
203177  1  0
204177  1  0
205176  1  0
206176  1  0
207180  1  0
208180  1  0
209179  1  0
210179  1  0
211175  1  0
212194  2  0
213195  1  0
214213  2  0
214212  1  0
 89 63  2  0
 33 30  1  0
M  END
> <chembl_id>
CHEMBL3039582

> <chembl_pref_name>
SECRETIN
