
     RDKit          2D

 25 28  0  0  0  0  0  0  0  0999 V2000
    4.1792   -6.8750    0.0000 N   0  0  0  0  0  0  0  0  0  0  0  0
    4.8042   -7.2292    0.0000 C   0  0  0  0  0  0  0  0  0  0  0  0
    4.1792   -8.2875    0.0000 S   0  0  0  0  0  0  0  0  0  0  0  0
    3.5625   -7.2292    0.0000 C   0  0  0  0  0  0  0  0  0  0  0  0
    4.8042   -7.9375    0.0000 C   0  0  0  0  0  0  0  0  0  0  0  0
    3.5625   -7.9375    0.0000 C   0  0  0  0  0  0  0  0  0  0  0  0
    5.4167   -6.8750    0.0000 C   0  0  0  0  0  0  0  0  0  0  0  0
    6.0042   -5.8292    0.0000 N   0  0  0  0  0  0  0  0  0  0  0  0
    7.2167   -5.1125    0.0000 N   0  0  0  0  0  0  0  0  0  0  0  0
    5.4167   -8.2875    0.0000 C   0  0  0  0  0  0  0  0  0  0  0  0
    4.1792   -6.1667    0.0000 C   0  0  0  0  0  0  0  0  0  0  0  0
    6.0417   -7.2292    0.0000 C   0  0  0  0  0  0  0  0  0  0  0  0
    7.2167   -5.8292    0.0000 C   0  0  0  0  0  0  0  0  0  0  0  0
    6.6000   -4.7625    0.0000 C   0  0  0  0  0  0  0  0  0  0  0  0
    6.6000   -6.1917    0.0000 C   0  0  0  0  0  0  0  0  0  0  0  0
    6.0042   -5.1125    0.0000 C   0  0  0  0  0  0  0  0  0  0  0  0
    4.8042   -5.8167    0.0000 C   0  0  0  0  0  0  0  0  0  0  0  0
    6.0417   -7.9375    0.0000 C   0  0  0  0  0  0  0  0  0  0  0  0
    5.4125   -6.1667    0.0000 C   0  0  0  0  0  0  0  0  0  0  0  0
    6.6500   -6.8875    0.0000 Cl  0  0  0  0  0  0  0  0  0  0  0  0
    2.9375   -6.8750    0.0000 C   0  0  0  0  0  0  0  0  0  0  0  0
    2.9375   -8.2875    0.0000 C   0  0  0  0  0  0  0  0  0  0  0  0
    7.8292   -4.7667    0.0000 C   0  0  0  0  0  0  0  0  0  0  0  0
    2.3167   -7.2292    0.0000 C   0  0  0  0  0  0  0  0  0  0  0  0
    2.3167   -7.9375    0.0000 C   0  0  0  0  0  0  0  0  0  0  0  0
  2  1  1  0
  3  6  1  0
  4  1  1  0
  5  2  1  0
  6  4  1  0
  7  2  2  0
  8 19  1  0
  9 14  1  0
 10  5  2  0
 11  1  1  0
 12  7  1  0
 13 15  1  0
 14 16  1  0
 15  8  1  0
 16  8  1  0
 17 11  1  0
 18 12  2  0
 19 17  1  0
 20 12  1  0
 21  4  2  0
 22  6  2  0
 23  9  1  0
 24 21  1  0
 25 24  2  0
  3  5  1  0
 25 22  1  0
 18 10  1  0
  9 13  1  0
M  END
> <chembl_id>
CHEMBL728

> <chembl_pref_name>
PROCHLORPERAZINE
