
     RDKit          2D

 38 41  0  0  1  0  0  0  0  0999 V2000
   -2.1000   -1.4625    0.0000 C   0  0  0  0  0  0  0  0  0  0  0  0
    0.0292   -0.1750    0.0000 C   0  0  0  0  0  0  0  0  0  0  0  0
   -1.3833   -1.0375    0.0000 C   0  0  0  0  0  0  0  0  0  0  0  0
    0.8042    0.1208    0.0000 C   0  0  0  0  0  0  0  0  0  0  0  0
   -2.1083   -2.2917    0.0000 C   0  0  0  0  0  0  0  0  0  0  0  0
   -0.6750   -1.4167    0.0000 C   0  0  0  0  0  0  0  0  0  0  0  0
    0.0250   -0.9917    0.0000 C   0  0  0  0  0  0  0  0  0  0  0  0
   -1.3875   -0.2000    0.0000 C   0  0  0  0  0  0  0  0  0  0  0  0
   -2.8500   -1.0667    0.0000 C   0  0  0  0  0  0  0  0  0  0  0  0
   -0.7125    0.2250    0.0000 C   0  0  0  0  0  0  0  0  0  0  0  0
   -0.6833   -2.2500    0.0000 C   0  0  0  0  0  0  0  0  0  0  0  0
   -1.3458   -2.6917    0.0000 C   0  0  0  0  0  0  0  0  0  0  0  0
   -2.8083   -2.7292    0.0000 C   0  0  0  0  0  0  0  0  0  0  0  0
    0.8417    1.0583    0.0000 C   0  0  0  0  0  0  0  0  0  0  0  0
    1.3125   -0.5292    0.0000 C   0  0  0  0  0  0  0  0  0  0  0  0
    1.7792    0.3833    0.0000 O   0  0  0  0  0  0  0  0  0  0  0  0
    0.8292   -1.2250    0.0000 C   0  0  0  0  0  0  0  0  0  0  0  0
   -3.5333   -1.5125    0.0000 C   0  0  0  0  0  0  0  0  0  0  0  0
   -3.5375   -2.3375    0.0000 C   0  0  0  0  0  0  0  0  0  0  0  0
    2.3167   -0.1542    0.0000 C   0  0  0  0  0  0  0  0  0  0  0  0
   -0.5458    2.6458    0.0000 C   0  0  0  0  0  0  0  0  0  0  0  0
   -1.3708   -1.6000    0.0000 F   0  0  0  0  0  0  0  0  0  0  0  0
    0.1167    1.4625    0.0000 C   0  0  0  0  0  0  0  0  0  0  0  0
    1.6250    1.4375    0.0000 O   0  0  0  0  0  0  0  0  0  0  0  0
    0.0917    2.2458    0.0000 O   0  0  0  0  0  0  0  0  0  0  0  0
    2.1292   -0.8917    0.0000 O   0  0  0  0  0  0  0  0  0  0  0  0
   -0.5750    3.3750    0.0000 O   0  0  0  0  0  0  0  0  0  0  0  0
   -4.2458   -2.7875    0.0000 O   0  0  0  0  0  0  0  0  0  0  0  0
   -2.1250   -0.6417    0.0000 C   0  0  0  0  0  0  0  0  0  0  0  0
    0.0042    0.6583    0.0000 C   0  0  0  0  0  0  0  0  0  0  0  0
   -2.1083    0.1750    0.0000 O   0  0  0  0  0  0  0  0  0  0  0  0
   -1.3333   -3.3167    0.0000 F   0  0  0  0  0  0  0  0  0  0  0  0
    3.0542    0.0458    0.0000 C   0  0  0  0  0  0  0  0  0  0  0  0
   -1.1250    2.3625    0.0000 C   0  0  0  0  0  0  0  0  0  0  0  0
    3.6042   -0.4917    0.0000 C   0  0  0  0  0  0  0  0  0  0  0  0
    4.3417   -0.2917    0.0000 C   0  0  0  0  0  0  0  0  0  0  0  0
    0.0625   -1.8042    0.0000 H   0  0  0  0  0  0  0  0  0  0  0  0
   -0.7000   -0.6042    0.0000 H   0  0  0  0  0  0  0  0  0  0  0  0
  2 10  1  0
  3  1  1  0
  4  2  1  0
  5  1  1  0
  6  3  1  0
  7  6  1  0
  8  3  1  0
  9  1  1  0
 10  8  1  0
 11 12  1  0
 12  5  1  0
 13  5  2  0
  4 14  1  1
 15 17  1  0
 16  4  1  0
 17  7  1  0
 18  9  2  0
 19 18  1  0
 20 16  1  0
 21 25  1  0
  3 22  1  6
 23 14  1  0
 24 14  2  0
 25 23  1  0
 26 20  2  0
 27 21  2  0
 28 19  2  0
  1 29  1  1
  2 30  1  1
  8 31  1  1
 12 32  1  6
 33 20  1  0
 34 21  1  0
 35 33  1  0
 36 35  1  0
  7 37  1  6
  6 38  1  1
 13 19  1  0
  6 11  1  0
  2  7  1  0
  4 15  1  0
M  END
> <chembl_id>
CHEMBL1201749

> <chembl_pref_name>
DIFLUPREDNATE
