
     RDKit          2D

 29 32  0  0  1  0  0  0  0  0999 V2000
    1.6042   -2.5625    0.0000 N   0  0  0  0  0  0  0  0  0  0  0  0
    1.6042   -1.8500    0.0000 C   0  0  0  0  0  0  0  0  0  0  0  0
    0.8917   -2.5625    0.0000 C   0  0  0  0  0  0  0  0  0  0  0  0
    0.8917   -1.8500    0.0000 C   0  0  0  0  0  0  0  0  0  0  0  0
   -0.9583   -1.5417    0.0000 C   0  0  0  0  0  0  0  0  0  0  0  0
    2.2792   -2.7875    0.0000 C   0  0  0  0  0  0  0  0  0  0  0  0
    2.2792   -1.6375    0.0000 S   0  0  0  0  0  0  0  0  0  0  0  0
   -0.3208   -1.8792    0.0000 C   0  0  0  0  0  0  0  0  0  0  0  0
    2.7042   -2.2125    0.0000 C   0  0  0  0  0  0  0  0  0  0  0  0
   -1.8750   -0.8542    0.0000 N   0  0  0  0  0  0  0  0  0  0  0  0
    0.2792   -1.5125    0.0000 N   0  0  0  0  0  0  0  0  0  0  0  0
   -1.1708   -0.8542    0.0000 C   0  0  0  0  0  0  0  0  0  0  0  0
   -2.0958   -1.5375    0.0000 O   0  0  0  0  0  0  0  0  0  0  0  0
   -1.5333   -1.9542    0.0000 C   0  0  0  0  0  0  0  0  0  0  0  0
    2.2875   -3.5042    0.0000 C   0  0  0  0  0  0  0  0  0  0  0  0
    0.4042   -3.0750    0.0000 O   0  0  0  0  0  0  0  0  0  0  0  0
   -0.3125   -2.5792    0.0000 O   0  0  0  0  0  0  0  0  0  0  0  0
    2.9042   -3.8542    0.0000 O   0  0  0  0  0  0  0  0  0  0  0  0
   -0.5583   -0.5000    0.0000 C   0  0  0  0  0  0  0  0  0  0  0  0
    1.6792   -3.8625    0.0000 O   0  0  0  0  0  0  0  0  0  0  0  0
    3.3167   -2.5667    0.0000 C   0  0  0  0  0  0  0  0  0  0  0  0
    3.3167   -1.8542    0.0000 C   0  0  0  0  0  0  0  0  0  0  0  0
   -1.5333   -2.6542    0.0000 C   0  0  0  0  0  0  0  0  0  0  0  0
    0.0667   -0.8542    0.0000 C   0  0  0  0  0  0  0  0  0  0  0  0
   -0.5708    0.2208    0.0000 C   0  0  0  0  0  0  0  0  0  0  0  0
    0.6667   -0.4917    0.0000 C   0  0  0  0  0  0  0  0  0  0  0  0
    0.0542    0.5708    0.0000 C   0  0  0  0  0  0  0  0  0  0  0  0
    0.6667    0.2208    0.0000 C   0  0  0  0  0  0  0  0  0  0  0  0
    1.6042   -1.1375    0.0000 H   0  0  0  0  0  0  0  0  0  0  0  0
  2  1  1  0
  3  1  1  0
  4  2  1  0
  5  8  1  0
  6  1  1  0
  7  2  1  0
  8 11  1  0
  9  6  1  0
 10 12  2  0
  4 11  1  1
 12  5  1  0
 13 14  1  0
 14  5  2  0
  6 15  1  6
 16  3  2  0
 17  8  2  0
 18 15  1  0
 19 12  1  0
 20 15  2  0
 21  9  1  0
 22  9  1  0
 23 14  1  0
 24 19  2  0
 25 19  1  0
 26 24  1  0
 27 25  2  0
 28 26  2  0
  2 29  1  6
  3  4  1  0
  9  7  1  0
 13 10  1  0
 28 27  1  0
M  END
> <chembl_id>
CHEMBL819

> <chembl_pref_name>
OXACILLIN
