
     RDKit          2D

 25 28  0  0  1  0  0  0  0  0999 V2000
    5.9202   -1.5639    0.0000 C   0  0  0  0  0  0  0  0  0  0  0  0
    5.9202   -2.3808    0.0000 C   0  0  0  0  0  0  0  0  0  0  0  0
    5.2043   -2.7907    0.0000 C   0  0  0  0  0  0  0  0  0  0  0  0
    4.4822   -2.3808    0.0000 C   0  0  0  0  0  0  0  0  0  0  0  0
    3.7663   -2.7907    0.0000 C   0  0  0  0  0  0  0  0  0  0  0  0
    6.7463   -1.2702    0.0000 C   0  0  0  0  0  0  0  0  0  0  0  0
    3.7663   -3.6076    0.0000 C   0  0  0  0  0  0  0  0  0  0  0  0
    5.2043   -1.1600    0.0000 C   0  0  0  0  0  0  0  0  0  0  0  0
    4.4822   -1.5639    0.0000 C   0  0  0  0  0  0  0  0  0  0  0  0
    6.8320   -2.6164    0.0000 C   0  0  0  0  0  0  0  0  0  0  0  0
    5.2043   -3.6076    0.0000 C   0  0  0  0  0  0  0  0  0  0  0  0
    4.4822   -4.0146    0.0000 C   0  0  0  0  0  0  0  0  0  0  0  0
    7.3643   -1.9371    0.0000 C   0  0  0  0  0  0  0  0  0  0  0  0
    3.0504   -4.0146    0.0000 C   0  0  0  0  0  0  0  0  0  0  0  0
    5.9349   -0.6518    0.0000 C   0  0  0  0  0  0  0  0  0  0  0  0
    3.0504   -2.3808    0.0000 C   0  0  0  0  0  0  0  0  0  0  0  0
    2.3344   -3.6076    0.0000 C   0  0  0  0  0  0  0  0  0  0  0  0
    2.3344   -2.7907    0.0000 C   0  0  0  0  0  0  0  0  0  0  0  0
    6.1619   -3.2711    0.0000 H   0  0  0  0  0  0  0  0  0  0  0  0
    5.2043   -1.9127    0.0000 H   0  0  0  0  0  0  0  0  0  0  0  0
    4.4822   -3.2436    0.0000 H   0  0  0  0  0  0  0  0  0  0  0  0
    6.7463   -0.4452    0.0000 C   0  0  0  0  0  0  0  0  0  0  0  0
    7.4607   -0.0327    0.0000 C   0  0  0  0  0  0  0  0  0  0  0  0
    7.4607    0.7923    0.0000 C   0  0  0  0  0  0  0  0  0  0  0  0
    7.5143   -0.9690    0.0000 O   0  0  0  0  0  0  0  0  0  0  0  0
  2  1  1  0
  3  2  1  0
  4  9  1  0
  5  4  1  0
  1  6  1  0
  5  7  1  0
  1  8  1  0
  9  8  1  0
  2 10  1  0
  3 11  1  0
 12 11  1  0
  6 13  1  0
 14  7  2  0
  1 15  1  1
  5 16  1  0
 17 18  1  0
 18 16  1  0
  2 19  1  6
  3 20  1  1
  4 21  1  6
 10 13  1  0
  4  3  1  0
 12  7  1  0
 14 17  1  0
  6 22  1  6
 22 23  1  0
 23 24  2  0
  6 25  1  1
M  END
> <chembl_id>
CHEMBL2105618

> <chembl_pref_name>
ALLYLESTRENOL
