
     RDKit          2D

 26 30  0  0  0  0  0  0  0  0999 V2000
    0.1708   -7.0083    0.0000 N   0  0  0  0  0  0  0  0  0  0  0  0
    0.1750   -8.1917    0.0000 N   0  0  0  0  0  0  0  0  0  0  0  0
    0.6000   -7.5917    0.0000 C   0  0  0  0  0  0  0  0  0  0  0  0
   -0.5000   -7.2375    0.0000 C   0  0  0  0  0  0  0  0  0  0  0  0
   -0.5000   -7.9625    0.0000 C   0  0  0  0  0  0  0  0  0  0  0  0
   -1.6042   -7.5917    0.0000 S   0  0  0  0  0  0  0  0  0  0  0  0
   -1.1792   -7.0375    0.0000 C   0  0  0  0  0  0  0  0  0  0  0  0
   -1.1833   -8.1792    0.0000 C   0  0  0  0  0  0  0  0  0  0  0  0
    0.1667   -6.3000    0.0000 C   0  0  0  0  0  0  0  0  0  0  0  0
    0.1667   -8.9000    0.0000 C   0  0  0  0  0  0  0  0  0  0  0  0
    1.3083   -7.5667    0.0000 O   0  0  0  0  0  0  0  0  0  0  0  0
   -2.2750   -7.8083    0.0000 C   0  0  0  0  0  0  0  0  0  0  0  0
    0.7792   -9.2583    0.0000 C   0  0  0  0  0  0  0  0  0  0  0  0
    0.7750   -5.9375    0.0000 C   0  0  0  0  0  0  0  0  0  0  0  0
   -1.6083   -8.7375    0.0000 C   0  0  0  0  0  0  0  0  0  0  0  0
   -2.2750   -8.5333    0.0000 C   0  0  0  0  0  0  0  0  0  0  0  0
    1.3917   -8.9083    0.0000 C   0  0  0  0  0  0  0  0  0  0  0  0
    1.3875   -6.2875    0.0000 C   0  0  0  0  0  0  0  0  0  0  0  0
    0.7625   -5.2333    0.0000 C   0  0  0  0  0  0  0  0  0  0  0  0
    0.7667   -9.9667    0.0000 C   0  0  0  0  0  0  0  0  0  0  0  0
    2.0000   -5.9292    0.0000 C   0  0  0  0  0  0  0  0  0  0  0  0
    1.3708   -4.8708    0.0000 C   0  0  0  0  0  0  0  0  0  0  0  0
    1.3792  -10.3250    0.0000 C   0  0  0  0  0  0  0  0  0  0  0  0
    2.0000   -9.2667    0.0000 C   0  0  0  0  0  0  0  0  0  0  0  0
    1.9958   -9.9750    0.0000 C   0  0  0  0  0  0  0  0  0  0  0  0
    1.9917   -5.2167    0.0000 C   0  0  0  0  0  0  0  0  0  0  0  0
  2  3  1  0
  3  1  1  0
  4  1  1  0
  5  4  1  0
  6  7  1  0
  7  4  1  0
  8  5  1  0
  9  1  1  0
 10  2  1  0
 11  3  2  0
 12  6  1  0
 13 10  1  0
 14  9  1  0
 15  8  1  0
 16 12  1  0
 17 13  1  0
 18 14  2  0
 19 14  1  0
 20 13  2  0
 21 18  1  0
 22 19  2  0
 23 20  1  0
 24 17  2  0
 25 23  2  0
 26 22  1  0
  5  2  1  0
  8  6  1  0
 15 16  1  0
 26 21  2  0
 24 25  1  0
M  CHG  1   6   1
M  END
> <chembl_id>
CHEMBL1201329

> <chembl_pref_name>
TRIMETHAPHAN
