
     RDKit          2D

 59 62  0  0  0  0  0  0  0  0999 V2000
   -6.7768    6.5411    0.0000 C   0  0  0  0  0  0  0  0  0  0  0  0
   -7.1893    7.2555    0.0000 C   0  0  0  0  0  0  0  0  0  0  0  0
   -8.0143    7.2555    0.0000 C   0  0  0  0  0  0  0  0  0  0  0  0
   -8.4268    6.5411    0.0000 C   0  0  0  0  0  0  0  0  0  0  0  0
   -8.0143    5.8266    0.0000 C   0  0  0  0  0  0  0  0  0  0  0  0
   -7.1893    5.8266    0.0000 O   0  0  0  0  0  0  0  0  0  0  0  0
   -6.7768    7.9700    0.0000 C   0  0  0  0  0  0  0  0  0  0  0  0
   -9.2518    6.5411    0.0000 O   0  0  0  0  0  0  0  0  0  0  0  0
   -8.9802    6.0854    0.0000 H   0  0  0  0  0  0  0  0  0  0  0  0
   -6.0623    6.1286    0.0000 O   0  0  0  0  0  0  0  0  0  0  0  0
   -8.7288    5.4141    0.0000 C   0  0  0  0  0  0  0  0  0  0  0  0
   -8.7288    4.5891    0.0000 C   0  0  0  0  0  0  0  0  0  0  0  0
   -9.3121    4.0057    0.0000 C   0  0  0  0  0  0  0  0  0  0  0  0
   -9.3121    3.1807    0.0000 C   0  0  0  0  0  0  0  0  0  0  0  0
   -8.5977    2.7682    0.0000 C   0  0  0  0  0  0  0  0  0  0  0  0
   -8.5977    1.9432    0.0000 C   0  0  0  0  0  0  0  0  0  0  0  0
   -7.8832    3.1807    0.0000 C   0  0  0  0  0  0  0  0  0  0  0  0
   -7.1687    2.7682    0.0000 C   0  0  0  0  0  0  0  0  0  0  0  0
   -6.4542    3.1807    0.0000 C   0  0  0  0  0  0  0  0  0  0  0  0
   -7.1687    1.9432    0.0000 C   0  0  0  0  0  0  0  0  0  0  0  0
   -6.4542    1.5307    0.0000 C   0  0  0  0  0  0  0  0  0  0  0  0
   -6.4542    0.7057    0.0000 C   0  0  0  0  0  0  0  0  0  0  0  0
   -5.7398    2.7682    0.0000 C   0  0  0  0  0  0  0  0  0  0  0  0
   -6.4542    4.0057    0.0000 O   0  0  0  0  0  0  0  0  0  0  0  0
   -5.0253    3.1807    0.0000 C   0  0  0  0  0  0  0  0  0  0  0  0
   -5.0253    4.0057    0.0000 C   0  0  0  0  0  0  0  0  0  0  0  0
   -4.3108    4.4182    0.0000 C   0  0  0  0  0  0  0  0  0  0  0  0
   -5.7398    4.4182    0.0000 C   0  0  0  0  0  0  0  0  0  0  0  0
   -4.3108    5.2432    0.0000 O   0  0  0  0  0  0  0  0  0  0  0  0
   -3.5964    4.0057    0.0000 C   0  0  0  0  0  0  0  0  0  0  0  0
   -3.5964    3.1807    0.0000 C   0  0  0  0  0  0  0  0  0  0  0  0
   -4.3108    2.7682    0.0000 O   0  0  0  0  0  0  0  0  0  0  0  0
   -3.5964    5.6557    0.0000 C   0  0  0  0  0  0  0  0  0  0  0  0
   -3.5964    6.4807    0.0000 C   0  0  0  0  0  0  0  0  0  0  0  0
   -2.8819    5.2432    0.0000 O   0  0  0  0  0  0  0  0  0  0  0  0
   -2.8819    4.4182    0.0000 C   0  0  0  0  0  0  0  0  0  0  0  0
   -2.1674    4.0057    0.0000 C   0  0  0  0  0  0  0  0  0  0  0  0
   -2.1674    3.1807    0.0000 C   0  0  0  0  0  0  0  0  0  0  0  0
   -1.4529    2.7682    0.0000 C   0  0  0  0  0  0  0  0  0  0  0  0
   -0.7384    3.1807    0.0000 C   0  0  0  0  0  0  0  0  0  0  0  0
   -0.7385    4.0057    0.0000 C   0  0  0  0  0  0  0  0  0  0  0  0
   -1.4529    4.4182    0.0000 C   0  0  0  0  0  0  0  0  0  0  0  0
   -0.0240    4.4182    0.0000 O   0  0  0  0  0  0  0  0  0  0  0  0
   -0.0240    5.2432    0.0000 C   0  0  0  0  0  0  0  0  0  0  0  0
   -0.0240    2.7682    0.0000 O   0  0  0  0  0  0  0  0  0  0  0  0
   -2.8819    6.8933    0.0000 C   0  0  0  0  0  0  0  0  0  0  0  0
   -2.8819    7.7183    0.0000 C   0  0  0  0  0  0  0  0  0  0  0  0
   -3.5964    8.1308    0.0000 C   0  0  0  0  0  0  0  0  0  0  0  0
   -4.3108    7.7183    0.0000 C   0  0  0  0  0  0  0  0  0  0  0  0
   -4.3108    6.8933    0.0000 N   0  0  0  0  0  0  0  0  0  0  0  0
   -5.0253    6.4808    0.0000 C   0  0  0  0  0  0  0  0  0  0  0  0
   -5.0253    5.6558    0.0000 O   0  0  0  0  0  0  0  0  0  0  0  0
   -5.7398    6.8933    0.0000 C   0  0  0  0  0  0  0  0  0  0  0  0
   -5.6590    7.7143    0.0000 O   0  0  0  0  0  0  0  0  0  0  0  0
   -9.4432    5.8266    0.0000 O   0  0  0  0  0  0  0  0  0  0  0  0
  -10.0266    5.2432    0.0000 C   0  0  0  0  0  0  0  0  0  0  0  0
   -9.8352    7.1244    0.0000 C   0  0  0  0  0  0  0  0  0  0  0  0
  -10.0743    4.3215    0.0000 C   0  0  0  0  0  0  0  0  0  0  0  0
   -2.7304    5.9807    0.0000 H   0  0  0  0  0  0  0  0  0  0  0  0
  1  2  1  0
  2  3  1  0
  3  4  1  0
  4  5  1  0
  5  6  1  0
  6  1  1  0
  2  7  1  1
  4  8  1  1
  5  9  1  1
  1 10  1  1
  5 11  1  0
 11 12  1  0
 12 13  1  0
 13 14  1  0
 14 15  1  0
 15 16  1  0
 15 17  2  0
 17 18  1  0
 18 19  1  0
 18 20  1  6
 20 21  1  0
 21 22  2  0
 19 23  1  0
 19 24  2  0
 23 25  1  0
 25 26  1  0
 26 27  1  0
 26 28  1  1
 27 29  1  0
 27 30  1  6
 30 31  1  0
 25 32  1  1
 29 33  1  0
 34 33  1  0
 33 35  2  0
 30 36  2  0
 37 36  1  1
 37 38  1  0
 42 37  1  0
 38 39  1  0
 39 40  1  0
 40 41  1  0
 41 42  1  0
 41 43  1  1
 43 44  1  0
 40 45  1  6
 34 46  1  0
 50 34  1  0
 46 47  1  0
 47 48  1  0
 48 49  1  0
 49 50  1  0
 50 51  1  0
 51 52  2  0
 51 53  1  0
  1 53  1  0
 53 54  2  0
 11 55  1  6
 55 56  1  0
  8 57  1  0
 13 58  1  6
 34 59  1  6
M  END
> <chembl_id>
CHEMBL269732

> <chembl_pref_name>
TACROLIMUS ANHYDROUS
