
     RDKit          2D

 12 13  0  0  1  0  0  0  0  0999 V2000
   -2.8742   -4.5797    0.0000 C   0  0  0  0  0  0  0  0  0  0  0  0
   -3.5922   -4.1734    0.0000 C   0  0  0  0  0  0  0  0  0  0  0  0
   -4.3031   -4.5921    0.0000 C   0  0  0  0  0  0  0  0  0  0  0  0
   -4.2959   -5.4171    0.0000 C   0  0  0  0  0  0  0  0  0  0  0  0
   -3.5779   -5.8234    0.0000 C   0  0  0  0  0  0  0  0  0  0  0  0
   -2.8670   -5.4046    0.0000 C   0  0  0  0  0  0  0  0  0  0  0  0
   -4.0047   -4.8879    0.0000 C   0  0  0  0  0  0  0  0  0  0  0  0
   -3.5994   -3.3485    0.0000 H   0  0  0  0  0  0  0  0  0  0  0  0
   -3.5707   -6.6483    0.0000 C   0  0  0  0  0  0  0  0  0  0  0  0
   -4.8016   -4.6744    0.0000 C   0  0  0  0  0  0  0  0  0  0  0  0
   -4.8016   -5.1014    0.0000 C   0  0  0  0  0  0  0  0  0  0  0  0
   -2.1490   -5.8109    0.0000 O   0  0  0  0  0  0  0  0  0  0  0  0
  1  2  1  0
  6  1  1  0
  2  3  1  0
  3  4  1  0
  4  5  1  0
  5  6  1  0
  2  7  1  0
  5  7  1  0
  2  8  1  1
  5  9  1  1
  7 10  1  0
  7 11  1  0
  6 12  2  0
M  END
> <chembl_id>
CHEMBL504760

> <chembl_pref_name>
CAMPHOR
