
     RDKit          3D

 27 20  0  0  0  0  0  0  0  0999 V2000
   -0.0016    0.3978    0.0000 O   0  0  0  0  0  0  0  0  0  0  0  0
    0.8739    0.0840   -0.0123 C   0  0  0  0  0  0  0  0  0  0  0  0
    1.5085   -0.9940    0.1624 O   0  0  0  0  0  0  0  0  0  0  0  0
    1.3039    1.2557   -0.2005 O   0  0  0  0  0  0  0  0  0  0  0  0
   -0.6382   -0.0566    0.0082 C   0  0  0  0  0  0  0  0  0  0  0  0
    0.8774    0.0208    0.0278 C   0  0  0  0  0  0  0  0  0  0  0  0
    1.4281   -1.1131    0.1068 O   0  0  0  0  0  0  0  0  0  0  0  0
    1.3946    1.1713   -0.0170 O   0  0  0  0  0  0  0  0  0  0  0  0
   -0.6403   -0.0104   -0.0205 C   0  0  0  0  0  0  0  0  0  0  0  0
    0.0000    0.0000    0.0000 Mg  0  0  0  0  0 15  0  0  0  0  0  0
   -0.0006    0.3978    0.0000 O   0  0  0  0  0  0  0  0  0  0  0  0
   -0.0021    0.3978    0.0000 O   0  0  0  0  0  0  0  0  0  0  0  0
   -0.0012    0.3978    0.0000 O   0  0  0  0  0  0  0  0  0  0  0  0
    0.7642   -0.1959    0.0000 H   0  0  0  0  0  0  0  0  0  0  0  0
   -0.7627   -0.2019    0.0000 H   0  0  0  0  0  0  0  0  0  0  0  0
   -0.9575   -0.7402   -0.7841 H   0  0  0  0  0  0  0  0  0  0  0  0
   -1.1305    0.9080   -0.1479 H   0  0  0  0  0  0  0  0  0  0  0  0
   -0.9601   -0.4569    0.9742 H   0  0  0  0  0  0  0  0  0  0  0  0
   -0.9717   -0.5815   -0.8930 H   0  0  0  0  0  0  0  0  0  0  0  0
   -1.0580    0.9987   -0.0886 H   0  0  0  0  0  0  0  0  0  0  0  0
   -1.0302   -0.4858    0.8845 H   0  0  0  0  0  0  0  0  0  0  0  0
   -0.7631   -0.2001    0.0000 H   0  0  0  0  0  0  0  0  0  0  0  0
    0.7638   -0.1977    0.0000 H   0  0  0  0  0  0  0  0  0  0  0  0
    0.7645   -0.1949    0.0000 H   0  0  0  0  0  0  0  0  0  0  0  0
   -0.7624   -0.2029    0.0000 H   0  0  0  0  0  0  0  0  0  0  0  0
   -0.7628   -0.2013    0.0000 H   0  0  0  0  0  0  0  0  0  0  0  0
    0.7641   -0.1965    0.0000 H   0  0  0  0  0  0  0  0  0  0  0  0
  5  2  1  0
  3  2  1  0
  4  2  2  0
  7  6  1  0
  8  6  2  0
  9  6  1  0
  1 14  1  0
  1 15  1  0
  5 16  1  0
  5 17  1  0
  5 18  1  0
  9 19  1  0
  9 20  1  0
  9 21  1  0
 11 22  1  0
 11 23  1  0
 12 24  1  0
 12 25  1  0
 13 26  1  0
 13 27  1  0
M  CHG  3   3  -1   7  -1  10   2
M  END
$$$$
