
     RDKit          2D

 13  6  0  0  0  0  0  0  0  0999 V2000
    3.7232   -2.9464    0.0000 O   0  0  0  0  0  0  0  0  0  0  0  0
    0.8137   -0.2843    0.0000 C   0  0  0  0  0  0  0  0  0  0  0  0
    1.6272   -0.2843    0.0000 O   0  0  0  0  0  0  0  0  0  0  0  0
    0.3676    0.4705    0.0000 O   0  0  0  0  0  0  0  0  0  0  0  0
    0.3676   -0.9802    0.0000 C   0  0  0  0  0  0  0  0  0  0  0  0
    4.6758   -0.2843    0.0000 C   0  0  0  0  0  0  0  0  0  0  0  0
    3.8524   -0.2843    0.0000 O   0  0  0  0  0  0  0  0  0  0  0  0
    5.1120    0.4705    0.0000 O   0  0  0  0  0  0  0  0  0  0  0  0
    5.1120   -0.9802    0.0000 C   0  0  0  0  0  0  0  0  0  0  0  0
    2.6026   -0.2990    0.0000 Mg  0  0  0  0  0 15  0  0  0  0  0  0
    2.7496   -1.3822    0.0000 O   0  0  0  0  0  0  0  0  0  0  0  0
    4.1250   -1.9286    0.0000 O   0  0  0  0  0  0  0  0  0  0  0  0
    2.3036   -2.6250    0.0000 O   0  0  0  0  0  0  0  0  0  0  0  0
  5  2  1  0
  3  2  1  0
  4  2  2  0
  7  6  1  0
  8  6  2  0
  9  6  1  0
M  CHG  3   3  -1   7  -1  10   2
M  END
> <chembl_id>
CHEMBL3989858

> <chembl_pref_name>
MAGNESIUM ACETATE TETRAHYDRATE
