
     RDKit          3D

 27 20  0  0  0  0  0  0  0  0999 V2000
   -0.0028    0.3978    0.0000 O   0  0  0  0  0  0  0  0  0  0  0  0
    0.8642   -0.0101   -0.1551 C   0  0  0  0  0  0  0  0  0  0  0  0
    1.3655    1.0939   -0.5061 O   0  0  0  0  0  0  0  0  0  0  0  0
    1.4149   -1.1348    0.0090 O   0  0  0  0  0  0  0  0  0  0  0  0
   -0.6307    0.0120    0.1121 C   0  0  0  0  0  0  0  0  0  0  0  0
    0.8770    0.0413   -0.0150 C   0  0  0  0  0  0  0  0  0  0  0  0
    1.4571   -1.0799    0.0246 O   0  0  0  0  0  0  0  0  0  0  0  0
    1.3645    1.2041   -0.0726 O   0  0  0  0  0  0  0  0  0  0  0  0
   -0.6401   -0.0254    0.0107 C   0  0  0  0  0  0  0  0  0  0  0  0
    0.0000    0.0000    0.0000 Mg  0  0  0  0  0 15  0  0  0  0  0  0
   -0.0043    0.3978    0.0000 O   0  0  0  0  0  0  0  0  0  0  0  0
   -0.0024    0.3978    0.0000 O   0  0  0  0  0  0  0  0  0  0  0  0
   -0.0020    0.3978    0.0000 O   0  0  0  0  0  0  0  0  0  0  0  0
    0.7649   -0.1935    0.0000 H   0  0  0  0  0  0  0  0  0  0  0  0
   -0.7620   -0.2043    0.0000 H   0  0  0  0  0  0  0  0  0  0  0  0
   -1.0495    1.0104   -0.0465 H   0  0  0  0  0  0  0  0  0  0  0  0
   -0.8267   -0.2849    1.1468 H   0  0  0  0  0  0  0  0  0  0  0  0
   -1.1377   -0.6865   -0.5603 H   0  0  0  0  0  0  0  0  0  0  0  0
   -1.0007   -0.5958   -0.8505 H   0  0  0  0  0  0  0  0  0  0  0  0
   -1.0840    0.9741   -0.0260 H   0  0  0  0  0  0  0  0  0  0  0  0
   -0.9738   -0.5185    0.9286 H   0  0  0  0  0  0  0  0  0  0  0  0
   -0.7613   -0.2071    0.0000 H   0  0  0  0  0  0  0  0  0  0  0  0
    0.7656   -0.1907    0.0000 H   0  0  0  0  0  0  0  0  0  0  0  0
   -0.7623   -0.2035    0.0000 H   0  0  0  0  0  0  0  0  0  0  0  0
    0.7647   -0.1943    0.0000 H   0  0  0  0  0  0  0  0  0  0  0  0
   -0.7625   -0.2027    0.0000 H   0  0  0  0  0  0  0  0  0  0  0  0
    0.7644   -0.1951    0.0000 H   0  0  0  0  0  0  0  0  0  0  0  0
  5  2  1  0
  3  2  1  0
  4  2  2  0
  7  6  1  0
  8  6  2  0
  9  6  1  0
  1 14  1  0
  1 15  1  0
  5 16  1  0
  5 17  1  0
  5 18  1  0
  9 19  1  0
  9 20  1  0
  9 21  1  0
 11 22  1  0
 11 23  1  0
 12 24  1  0
 12 25  1  0
 13 26  1  0
 13 27  1  0
M  CHG  3   3  -1   7  -1  10   2
M  END
$$$$
