
     RDKit          3D

 27 20  0  0  0  0  0  0  0  0999 V2000
   -0.0002    0.3978    0.0000 O   0  0  0  0  0  0  0  0  0  0  0  0
    0.8778   -0.0127   -0.0167 C   0  0  0  0  0  0  0  0  0  0  0  0
    1.4037   -1.1601   -0.0342 O   0  0  0  0  0  0  0  0  0  0  0  0
    1.4204    1.1278   -0.0195 O   0  0  0  0  0  0  0  0  0  0  0  0
   -0.6406    0.0045    0.0121 C   0  0  0  0  0  0  0  0  0  0  0  0
    0.8759    0.0558   -0.0244 C   0  0  0  0  0  0  0  0  0  0  0  0
    1.4768   -1.0491    0.0908 O   0  0  0  0  0  0  0  0  0  0  0  0
    1.3418    1.2200   -0.1685 O   0  0  0  0  0  0  0  0  0  0  0  0
   -0.6395   -0.0360    0.0173 C   0  0  0  0  0  0  0  0  0  0  0  0
    0.0000    0.0000    0.0000 Mg  0  0  0  0  0 15  0  0  0  0  0  0
   -0.0001    0.3978    0.0000 O   0  0  0  0  0  0  0  0  0  0  0  0
   -0.0013    0.3978    0.0000 O   0  0  0  0  0  0  0  0  0  0  0  0
   -0.0001    0.3978    0.0000 O   0  0  0  0  0  0  0  0  0  0  0  0
   -0.7634   -0.1992    0.0000 H   0  0  0  0  0  0  0  0  0  0  0  0
    0.7635   -0.1986    0.0000 H   0  0  0  0  0  0  0  0  0  0  0  0
   -0.9883    0.5177    0.9137 H   0  0  0  0  0  0  0  0  0  0  0  0
   -1.0510   -1.0098    0.0114 H   0  0  0  0  0  0  0  0  0  0  0  0
   -1.0220    0.5326   -0.8669 H   0  0  0  0  0  0  0  0  0  0  0  0
   -1.1017    0.9505   -0.0852 H   0  0  0  0  0  0  0  0  0  0  0  0
   -0.9584   -0.4701    0.9696 H   0  0  0  0  0  0  0  0  0  0  0  0
   -0.9949   -0.6711   -0.7996 H   0  0  0  0  0  0  0  0  0  0  0  0
    0.7635   -0.1988    0.0000 H   0  0  0  0  0  0  0  0  0  0  0  0
   -0.7634   -0.1990    0.0000 H   0  0  0  0  0  0  0  0  0  0  0  0
   -0.7628   -0.2013    0.0000 H   0  0  0  0  0  0  0  0  0  0  0  0
    0.7641   -0.1965    0.0000 H   0  0  0  0  0  0  0  0  0  0  0  0
    0.7635   -0.1988    0.0000 H   0  0  0  0  0  0  0  0  0  0  0  0
   -0.7634   -0.1990    0.0000 H   0  0  0  0  0  0  0  0  0  0  0  0
  5  2  1  0
  3  2  1  0
  4  2  2  0
  7  6  1  0
  8  6  2  0
  9  6  1  0
  1 14  1  0
  1 15  1  0
  5 16  1  0
  5 17  1  0
  5 18  1  0
  9 19  1  0
  9 20  1  0
  9 21  1  0
 11 22  1  0
 11 23  1  0
 12 24  1  0
 12 25  1  0
 13 26  1  0
 13 27  1  0
M  CHG  3   3  -1   7  -1  10   2
M  END
$$$$
