
     RDKit          3D

 27 20  0  0  0  0  0  0  0  0999 V2000
   -0.0000    0.3978    0.0000 O   0  0  0  0  0  0  0  0  0  0  0  0
    0.8758    0.0299    0.0551 C   0  0  0  0  0  0  0  0  0  0  0  0
    1.3620    1.1954    0.0769 O   0  0  0  0  0  0  0  0  0  0  0  0
    1.4553   -1.0905    0.1004 O   0  0  0  0  0  0  0  0  0  0  0  0
   -0.6389   -0.0266   -0.0402 C   0  0  0  0  0  0  0  0  0  0  0  0
    0.8568    0.1193   -0.1504 C   0  0  0  0  0  0  0  0  0  0  0  0
    1.5160   -0.9290   -0.3950 O   0  0  0  0  0  0  0  0  0  0  0  0
    1.2395    1.3213   -0.0878 O   0  0  0  0  0  0  0  0  0  0  0  0
   -0.6247   -0.0917    0.1091 C   0  0  0  0  0  0  0  0  0  0  0  0
    0.0000    0.0000    0.0000 Mg  0  0  0  0  0 15  0  0  0  0  0  0
   -0.0019    0.3978    0.0000 O   0  0  0  0  0  0  0  0  0  0  0  0
   -0.0034    0.3978    0.0000 O   0  0  0  0  0  0  0  0  0  0  0  0
   -0.0011    0.3978    0.0000 O   0  0  0  0  0  0  0  0  0  0  0  0
    0.7635   -0.1989    0.0000 H   0  0  0  0  0  0  0  0  0  0  0  0
   -0.7635   -0.1989    0.0000 H   0  0  0  0  0  0  0  0  0  0  0  0
   -0.9993   -1.0597   -0.0550 H   0  0  0  0  0  0  0  0  0  0  0  0
   -0.9713    0.4688   -0.9573 H   0  0  0  0  0  0  0  0  0  0  0  0
   -1.0836    0.4825    0.8201 H   0  0  0  0  0  0  0  0  0  0  0  0
   -0.8947   -1.1500    0.0412 H   0  0  0  0  0  0  0  0  0  0  0  0
   -0.8801    0.2668    1.1108 H   0  0  0  0  0  0  0  0  0  0  0  0
   -1.2128    0.4633   -0.6278 H   0  0  0  0  0  0  0  0  0  0  0  0
    0.7644   -0.1952    0.0000 H   0  0  0  0  0  0  0  0  0  0  0  0
   -0.7625   -0.2026    0.0000 H   0  0  0  0  0  0  0  0  0  0  0  0
    0.7652   -0.1923    0.0000 H   0  0  0  0  0  0  0  0  0  0  0  0
   -0.7617   -0.2055    0.0000 H   0  0  0  0  0  0  0  0  0  0  0  0
    0.7640   -0.1968    0.0000 H   0  0  0  0  0  0  0  0  0  0  0  0
   -0.7629   -0.2010    0.0000 H   0  0  0  0  0  0  0  0  0  0  0  0
  5  2  1  0
  3  2  1  0
  4  2  2  0
  7  6  1  0
  8  6  2  0
  9  6  1  0
  1 14  1  0
  1 15  1  0
  5 16  1  0
  5 17  1  0
  5 18  1  0
  9 19  1  0
  9 20  1  0
  9 21  1  0
 11 22  1  0
 11 23  1  0
 12 24  1  0
 12 25  1  0
 13 26  1  0
 13 27  1  0
M  CHG  3   3  -1   7  -1  10   2
M  END
$$$$
