
     RDKit          3D

 92 91  0  0  0  0  0  0  0  0999 V2000
   40.3932   11.9127   12.1803 C   0  0  0  0  0  0  0  0  0  0  0  0
   41.5059   11.3910   11.4994 C   0  0  0  0  0  0  0  0  0  0  0  0
   42.6944   12.1297   11.3624 C   0  0  0  0  0  0  0  0  0  0  0  0
   40.5006   13.1881   12.7481 C   0  0  0  0  0  0  0  0  0  0  0  0
   42.7060   11.4008    8.3389 N   0  0  0  0  0  0  0  0  0  0  0  0
   42.7687   13.3985   11.9601 C   0  0  0  0  0  0  0  0  0  0  0  0
   43.2739   12.2652    7.2962 C   0  0  0  0  0  0  0  0  0  0  0  0
   41.6787   13.9277   12.6508 C   0  0  0  0  0  0  0  0  0  0  0  0
   43.6159   10.7929    9.3182 C   0  0  0  0  0  0  0  0  0  0  0  0
   43.9053   11.5815   10.6282 C   0  0  2  0  0  0  0  0  0  0  0  0
   39.4208   13.7028   13.4113 O   0  0  0  0  0  0  0  0  0  0  0  0
   39.0961   11.1541   12.2922 C   0  0  0  0  0  0  0  0  0  0  0  0
   44.6444   10.7343   11.5163 O   0  0  0  0  0  0  0  0  0  0  0  0
   39.1898    9.8395   11.7480 O   0  0  0  0  0  0  0  0  0  0  0  0
   44.1986   11.4751    6.3537 C   0  0  0  0  0  0  0  0  0  0  0  0
   44.0172   13.4796    7.8638 C   0  0  0  0  0  0  0  0  0  0  0  0
   42.0738   12.7752    6.4679 C   0  0  0  0  0  0  0  0  0  0  0  0
   39.9748   12.2839   13.0698 C   0  0  0  0  0  0  0  0  0  0  0  0
   41.2225   12.4111   12.4344 C   0  0  0  0  0  0  0  0  0  0  0  0
   41.4053   12.0530   11.0851 C   0  0  0  0  0  0  0  0  0  0  0  0
   38.8984   11.7959   12.3271 C   0  0  0  0  0  0  0  0  0  0  0  0
   44.2091   12.6379    8.4821 N   0  0  0  0  0  0  0  0  0  0  0  0
   40.3090   11.5409   10.3824 C   0  0  0  0  0  0  0  0  0  0  0  0
   44.4611   12.4750    7.0399 C   0  0  0  0  0  0  0  0  0  0  0  0
   39.0582   11.4238   10.9961 C   0  0  0  0  0  0  0  0  0  0  0  0
   42.8348   12.3651    8.9352 C   0  0  0  0  0  0  0  0  0  0  0  0
   42.7880   12.1973   10.4750 C   0  0  2  0  0  0  0  0  0  0  0  0
   37.6758   11.6804   12.9215 O   0  0  0  0  0  0  0  0  0  0  0  0
   39.8355   12.6942   14.5121 C   0  0  0  0  0  0  0  0  0  0  0  0
   43.5779   11.0497   10.8233 O   0  0  0  0  0  0  0  0  0  0  0  0
   40.7438   11.9559   15.3231 O   0  0  0  0  0  0  0  0  0  0  0  0
   45.8763   13.0277    6.7923 C   0  0  0  0  0  0  0  0  0  0  0  0
   44.4365   10.9896    6.6337 C   0  0  0  0  0  0  0  0  0  0  0  0
   43.4691   13.2678    6.1772 C   0  0  0  0  0  0  0  0  0  0  0  0
   40.2303   10.8390   10.8079 O   0  0  0  0  0  0  0  0  0  0  0  0
   42.2839   10.6837   11.6789 O   0  0  0  0  0  0  0  0  0  0  0  0
   43.2626   10.8256    8.6467 O   0  0  0  0  0  0  0  0  0  0  0  0
   43.7071   12.7091    7.5433 O   0  0  0  0  0  0  0  0  0  0  0  0
   40.7729   12.9637    9.3047 O   0  0  0  0  0  0  0  0  0  0  0  0
   43.3951   14.2750    9.7786 O   0  0  0  0  0  0  0  0  0  0  0  0
   41.4834   11.3124   11.0051 C   0  0  0  0  0  0  0  0  0  0  0  0
   41.6826   12.6869   10.3732 C   0  0  1  0  0  0  0  0  0  0  0  0
   43.1290   12.8685    9.9166 C   0  0  1  0  0  0  0  0  0  0  0  0
   43.3887   12.1629    8.5902 C   0  0  0  0  0  0  0  0  0  0  0  0
   41.4338   10.3973   11.0566 H   0  0  0  0  0  0  0  0  0  0  0  0
   41.9552   11.8850    8.8301 H   0  0  0  0  0  0  0  0  0  0  0  0
   43.6860   13.9843   11.8905 H   0  0  0  0  0  0  0  0  0  0  0  0
   41.7682   14.9110   13.1027 H   0  0  0  0  0  0  0  0  0  0  0  0
   43.1698    9.8294    9.6007 H   0  0  0  0  0  0  0  0  0  0  0  0
   44.5699   10.5015    8.8647 H   0  0  0  0  0  0  0  0  0  0  0  0
   44.5720   12.4121   10.3811 H   0  0  0  0  0  0  0  0  0  0  0  0
   39.6679   14.5687   13.7781 H   0  0  0  0  0  0  0  0  0  0  0  0
   38.8042   11.0596   13.3420 H   0  0  0  0  0  0  0  0  0  0  0  0
   38.3190   11.6913   11.7379 H   0  0  0  0  0  0  0  0  0  0  0  0
   44.0497   10.4853   12.2481 H   0  0  0  0  0  0  0  0  0  0  0  0
   38.2985    9.4605   11.7971 H   0  0  0  0  0  0  0  0  0  0  0  0
   43.7012   10.5781    5.9650 H   0  0  0  0  0  0  0  0  0  0  0  0
   44.4913   12.0870    5.4923 H   0  0  0  0  0  0  0  0  0  0  0  0
   45.1224   11.1587    6.8489 H   0  0  0  0  0  0  0  0  0  0  0  0
   44.9566   13.1877    8.3422 H   0  0  0  0  0  0  0  0  0  0  0  0
   44.2719   14.1924    7.0701 H   0  0  0  0  0  0  0  0  0  0  0  0
   43.4055   14.0149    8.5996 H   0  0  0  0  0  0  0  0  0  0  0  0
   41.5184   11.9446    6.0121 H   0  0  0  0  0  0  0  0  0  0  0  0
   42.4012   13.4360    5.6577 H   0  0  0  0  0  0  0  0  0  0  0  0
   41.3723   13.3407    7.0903 H   0  0  0  0  0  0  0  0  0  0  0  0
   42.0668   12.7980   13.0090 H   0  0  0  0  0  0  0  0  0  0  0  0
   44.8326   12.0150    9.0088 H   0  0  0  0  0  0  0  0  0  0  0  0
   40.4038   11.2299    9.3465 H   0  0  0  0  0  0  0  0  0  0  0  0
   38.2256   11.0279   10.4222 H   0  0  0  0  0  0  0  0  0  0  0  0
   42.4715   11.4392    8.4775 H   0  0  0  0  0  0  0  0  0  0  0  0
   42.1780   13.1896    8.6351 H   0  0  0  0  0  0  0  0  0  0  0  0
   43.2702   13.0725   10.9308 H   0  0  0  0  0  0  0  0  0  0  0  0
   37.0150   11.4386   12.2473 H   0  0  0  0  0  0  0  0  0  0  0  0
   38.8276   12.5272   14.9005 H   0  0  0  0  0  0  0  0  0  0  0  0
   40.0574   13.7600   14.6207 H   0  0  0  0  0  0  0  0  0  0  0  0
   43.0798   10.5345   11.4848 H   0  0  0  0  0  0  0  0  0  0  0  0
   40.6539   11.0268   15.0485 H   0  0  0  0  0  0  0  0  0  0  0  0
   45.9465   14.0840    7.0699 H   0  0  0  0  0  0  0  0  0  0  0  0
   46.6298   12.4817    7.3688 H   0  0  0  0  0  0  0  0  0  0  0  0
   46.1543   12.9498    5.7351 H   0  0  0  0  0  0  0  0  0  0  0  0
   43.4274   10.5708    6.6656 H   0  0  0  0  0  0  0  0  0  0  0  0
   45.0714   10.3810    7.2867 H   0  0  0  0  0  0  0  0  0  0  0  0
   44.8066   10.8601    5.6092 H   0  0  0  0  0  0  0  0  0  0  0  0
   42.4459   12.8872    6.2674 H   0  0  0  0  0  0  0  0  0  0  0  0
   43.7368   13.2106    5.1146 H   0  0  0  0  0  0  0  0  0  0  0  0
   43.4550   14.3270    6.4565 H   0  0  0  0  0  0  0  0  0  0  0  0
   40.2421    9.9674   11.2622 H   0  0  0  0  0  0  0  0  0  0  0  0
   43.4620   10.5243    7.7344 H   0  0  0  0  0  0  0  0  0  0  0  0
   39.8878   12.7312    9.6441 H   0  0  0  0  0  0  0  0  0  0  0  0
   43.0517   14.5221    8.8948 H   0  0  0  0  0  0  0  0  0  0  0  0
   41.4556   13.4206   11.1587 H   0  0  0  0  0  0  0  0  0  0  0  0
   43.8485   12.4903   10.6513 H   0  0  0  0  0  0  0  0  0  0  0  0
 10  3  1  0
 11  4  1  0
 12  1  1  0
 10 13  1  0
 14 12  1  0
 15  7  1  0
 16  7  1  0
 17  7  1  0
  6  8  1  0
  2  1  2  0
  3  2  1  0
  4  1  1  0
  5  9  1  0
  6  3  2  0
  7  5  1  0
  8  4  2  0
  9 10  1  0
 27 20  1  0
 28 21  1  0
 29 18  1  0
 27 30  1  0
 31 29  1  0
 32 24  1  0
 33 24  1  0
 34 24  1  0
 23 25  1  0
 19 18  2  0
 20 19  1  0
 21 18  1  0
 22 26  1  0
 23 20  2  0
 24 22  1  0
 25 21  2  0
 26 27  1  0
 41 36  2  0
 42 39  1  0
 43 40  1  0
 41 35  1  0
 43 44  1  0
 42 43  1  0
 44 37  1  0
 41 42  1  0
 44 38  2  0
  2 45  1  0
  5 46  1  0
  6 47  1  0
  8 48  1  0
  9 49  1  0
  9 50  1  0
 10 51  1  1
 11 52  1  0
 12 53  1  0
 12 54  1  0
 13 55  1  0
 14 56  1  0
 15 57  1  0
 15 58  1  0
 15 59  1  0
 16 60  1  0
 16 61  1  0
 16 62  1  0
 17 63  1  0
 17 64  1  0
 17 65  1  0
 19 66  1  0
 22 67  1  0
 23 68  1  0
 25 69  1  0
 26 70  1  0
 26 71  1  0
 27 72  1  1
 28 73  1  0
 29 74  1  0
 29 75  1  0
 30 76  1  0
 31 77  1  0
 32 78  1  0
 32 79  1  0
 32 80  1  0
 33 81  1  0
 33 82  1  0
 33 83  1  0
 34 84  1  0
 34 85  1  0
 34 86  1  0
 35 87  1  0
 37 88  1  0
 39 89  1  0
 40 90  1  0
 42 91  1  6
 43 92  1  1
M  END
> <Uni-Dock RESULT> 
ENERGY=   -5.020  LOWER_BOUND=    0.000  UPPER_BOUND=    0.000
INTER + INTRA:          -5.020
INTER:                  -5.020
INTRA:                   0.000
UNBOUND:                 0.000

$$$$

     RDKit          3D

 92 91  0  0  0  0  0  0  0  0999 V2000
   46.1232    7.7367   12.1368 C   0  0  0  0  0  0  0  0  0  0  0  0
   47.4930    8.0477   12.1667 C   0  0  0  0  0  0  0  0  0  0  0  0
   48.4334    7.1647   12.7260 C   0  0  0  0  0  0  0  0  0  0  0  0
   45.7107    6.5047   12.6587 C   0  0  0  0  0  0  0  0  0  0  0  0
   49.6439    9.5674   14.2864 N   0  0  0  0  0  0  0  0  0  0  0  0
   47.9825    5.9315   13.2243 C   0  0  0  0  0  0  0  0  0  0  0  0
   50.2944    9.4410   15.5970 C   0  0  0  0  0  0  0  0  0  0  0  0
   46.6282    5.5999   13.1918 C   0  0  0  0  0  0  0  0  0  0  0  0
   50.2922    8.9548   13.1198 C   0  0  0  0  0  0  0  0  0  0  0  0
   49.9169    7.4862   12.7678 C   0  0  2  0  0  0  0  0  0  0  0  0
   44.3785    6.1959   12.6342 O   0  0  0  0  0  0  0  0  0  0  0  0
   45.0975    8.6938   11.5868 C   0  0  0  0  0  0  0  0  0  0  0  0
   50.5007    7.1576   11.5013 O   0  0  0  0  0  0  0  0  0  0  0  0
   45.6944    9.8526   11.0088 O   0  0  0  0  0  0  0  0  0  0  0  0
   51.6487   10.1709   15.6247 C   0  0  0  0  0  0  0  0  0  0  0  0
   50.4747    7.9843   16.0386 C   0  0  0  0  0  0  0  0  0  0  0  0
   49.3563   10.1405   16.6055 C   0  0  0  0  0  0  0  0  0  0  0  0
   45.3511    7.1010   11.8146 C   0  0  0  0  0  0  0  0  0  0  0  0
   46.6660    6.9077   12.2734 C   0  0  0  0  0  0  0  0  0  0  0  0
   47.3756    7.9273   12.9359 C   0  0  0  0  0  0  0  0  0  0  0  0
   44.7459    8.3391   12.0370 C   0  0  0  0  0  0  0  0  0  0  0  0
   50.6511    8.0522   14.9937 N   0  0  0  0  0  0  0  0  0  0  0  0
   46.7449    9.1635   13.1145 C   0  0  0  0  0  0  0  0  0  0  0  0
   51.4062    8.9765   15.8572 C   0  0  0  0  0  0  0  0  0  0  0  0
   45.4320    9.3656   12.6781 C   0  0  0  0  0  0  0  0  0  0  0  0
   49.3191    8.5090   14.5630 C   0  0  0  0  0  0  0  0  0  0  0  0
   48.8002    7.6506   13.3818 C   0  0  2  0  0  0  0  0  0  0  0  0
   43.4647    8.5407   11.6136 O   0  0  0  0  0  0  0  0  0  0  0  0
   44.6365    5.9701   11.1230 C   0  0  0  0  0  0  0  0  0  0  0  0
   49.6870    7.8407   12.2683 O   0  0  0  0  0  0  0  0  0  0  0  0
   45.3727    5.5502    9.9786 O   0  0  0  0  0  0  0  0  0  0  0  0
   52.6361    8.1904   16.3456 C   0  0  0  0  0  0  0  0  0  0  0  0
   51.8918   10.2064   15.0675 C   0  0  0  0  0  0  0  0  0  0  0  0
   50.5978    9.4290   17.0814 C   0  0  0  0  0  0  0  0  0  0  0  0
   46.7056    9.3770   12.3190 O   0  0  0  0  0  0  0  0  0  0  0  0
   48.3156    8.0665   11.4880 O   0  0  0  0  0  0  0  0  0  0  0  0
   50.1894    9.5105   13.6272 O   0  0  0  0  0  0  0  0  0  0  0  0
   50.4936    8.8160   15.7218 O   0  0  0  0  0  0  0  0  0  0  0  0
   47.1732    8.7420   14.8580 O   0  0  0  0  0  0  0  0  0  0  0  0
   49.0665    6.5024   15.3264 O   0  0  0  0  0  0  0  0  0  0  0  0
   47.6585    8.4245   12.4525 C   0  0  0  0  0  0  0  0  0  0  0  0
   47.7086    7.8586   13.8686 C   0  0  1  0  0  0  0  0  0  0  0  0
   49.1300    7.4330   14.2318 C   0  0  1  0  0  0  0  0  0  0  0  0
   49.9886    8.6306   14.6235 C   0  0  0  0  0  0  0  0  0  0  0  0
   47.8249    9.0031   11.7597 H   0  0  0  0  0  0  0  0  0  0  0  0
   48.6759    9.2518   14.3396 H   0  0  0  0  0  0  0  0  0  0  0  0
   48.6923    5.2166   13.6423 H   0  0  0  0  0  0  0  0  0  0  0  0
   46.3115    4.6381   13.5840 H   0  0  0  0  0  0  0  0  0  0  0  0
   50.0329    9.5815   12.2554 H   0  0  0  0  0  0  0  0  0  0  0  0
   51.3839    9.0373   13.1679 H   0  0  0  0  0  0  0  0  0  0  0  0
   50.3977    6.8310   13.4993 H   0  0  0  0  0  0  0  0  0  0  0  0
   44.2630    5.2990   12.9914 H   0  0  0  0  0  0  0  0  0  0  0  0
   44.5027    8.2037   10.8108 H   0  0  0  0  0  0  0  0  0  0  0  0
   44.4443    9.0246   12.4015 H   0  0  0  0  0  0  0  0  0  0  0  0
   49.7766    7.0967   10.8507 H   0  0  0  0  0  0  0  0  0  0  0  0
   44.9634   10.4362   10.7527 H   0  0  0  0  0  0  0  0  0  0  0  0
   51.5522   11.2059   15.2744 H   0  0  0  0  0  0  0  0  0  0  0  0
   52.0515   10.2058   16.6438 H   0  0  0  0  0  0  0  0  0  0  0  0
   52.3998    9.6744   15.0016 H   0  0  0  0  0  0  0  0  0  0  0  0
   51.2394    7.4762   15.4440 H   0  0  0  0  0  0  0  0  0  0  0  0
   50.7950    7.9264   17.0860 H   0  0  0  0  0  0  0  0  0  0  0  0
   49.5378    7.4213   15.9519 H   0  0  0  0  0  0  0  0  0  0  0  0
   49.2131   11.1997   16.3528 H   0  0  0  0  0  0  0  0  0  0  0  0
   49.7611   10.0966   17.6226 H   0  0  0  0  0  0  0  0  0  0  0  0
   48.3686    9.6679   16.6240 H   0  0  0  0  0  0  0  0  0  0  0  0
   47.1423    5.9390   12.1074 H   0  0  0  0  0  0  0  0  0  0  0  0
   51.1955    7.8582   14.1451 H   0  0  0  0  0  0  0  0  0  0  0  0
   47.2573    9.9885   13.5996 H   0  0  0  0  0  0  0  0  0  0  0  0
   44.9682   10.3347   12.8365 H   0  0  0  0  0  0  0  0  0  0  0  0
   49.3748    9.5512   14.2319 H   0  0  0  0  0  0  0  0  0  0  0  0
   48.6178    8.4415   15.4025 H   0  0  0  0  0  0  0  0  0  0  0  0
   48.8658    6.5930   13.6708 H   0  0  0  0  0  0  0  0  0  0  0  0
   43.1521    9.4032   11.9424 H   0  0  0  0  0  0  0  0  0  0  0  0
   43.6325    6.2477   10.7923 H   0  0  0  0  0  0  0  0  0  0  0  0
   44.5351    5.1199   11.8041 H   0  0  0  0  0  0  0  0  0  0  0  0
   49.1408    7.9567   11.4687 H   0  0  0  0  0  0  0  0  0  0  0  0
   45.6157    6.3636    9.5032 H   0  0  0  0  0  0  0  0  0  0  0  0
   52.3424    7.3010   16.9119 H   0  0  0  0  0  0  0  0  0  0  0  0
   53.2626    7.8608   15.5106 H   0  0  0  0  0  0  0  0  0  0  0  0
   53.2639    8.8024   17.0032 H   0  0  0  0  0  0  0  0  0  0  0  0
   51.0696   10.8756   14.8013 H   0  0  0  0  0  0  0  0  0  0  0  0
   52.4004    9.9176   14.1414 H   0  0  0  0  0  0  0  0  0  0  0  0
   52.6050   10.7926   15.6600 H   0  0  0  0  0  0  0  0  0  0  0  0
   49.7336   10.0421   16.8033 H   0  0  0  0  0  0  0  0  0  0  0  0
   51.2128   10.0353   17.7583 H   0  0  0  0  0  0  0  0  0  0  0  0
   50.2262    8.5718   17.6535 H   0  0  0  0  0  0  0  0  0  0  0  0
   46.7813    9.6441   11.3760 H   0  0  0  0  0  0  0  0  0  0  0  0
   50.7528   10.2067   14.0281 H   0  0  0  0  0  0  0  0  0  0  0  0
   46.3135    9.0425   14.5068 H   0  0  0  0  0  0  0  0  0  0  0  0
   48.9905    7.0515   16.1343 H   0  0  0  0  0  0  0  0  0  0  0  0
   47.0547    6.9758   13.8687 H   0  0  0  0  0  0  0  0  0  0  0  0
   49.6304    6.9080   13.4106 H   0  0  0  0  0  0  0  0  0  0  0  0
 10  3  1  0
 11  4  1  0
 12  1  1  0
 10 13  1  0
 14 12  1  0
 15  7  1  0
 16  7  1  0
 17  7  1  0
  6  8  1  0
  2  1  2  0
  3  2  1  0
  4  1  1  0
  5  9  1  0
  6  3  2  0
  7  5  1  0
  8  4  2  0
  9 10  1  0
 27 20  1  0
 28 21  1  0
 29 18  1  0
 27 30  1  0
 31 29  1  0
 32 24  1  0
 33 24  1  0
 34 24  1  0
 23 25  1  0
 19 18  2  0
 20 19  1  0
 21 18  1  0
 22 26  1  0
 23 20  2  0
 24 22  1  0
 25 21  2  0
 26 27  1  0
 41 36  2  0
 42 39  1  0
 43 40  1  0
 41 35  1  0
 43 44  1  0
 42 43  1  0
 44 37  1  0
 41 42  1  0
 44 38  2  0
  2 45  1  0
  5 46  1  0
  6 47  1  0
  8 48  1  0
  9 49  1  0
  9 50  1  0
 10 51  1  1
 11 52  1  0
 12 53  1  0
 12 54  1  0
 13 55  1  0
 14 56  1  0
 15 57  1  0
 15 58  1  0
 15 59  1  0
 16 60  1  0
 16 61  1  0
 16 62  1  0
 17 63  1  0
 17 64  1  0
 17 65  1  0
 19 66  1  0
 22 67  1  0
 23 68  1  0
 25 69  1  0
 26 70  1  0
 26 71  1  0
 27 72  1  1
 28 73  1  0
 29 74  1  0
 29 75  1  0
 30 76  1  0
 31 77  1  0
 32 78  1  0
 32 79  1  0
 32 80  1  0
 33 81  1  0
 33 82  1  0
 33 83  1  0
 34 84  1  0
 34 85  1  0
 34 86  1  0
 35 87  1  0
 37 88  1  0
 39 89  1  0
 40 90  1  0
 42 91  1  6
 43 92  1  1
M  END
> <Uni-Dock RESULT> 
ENERGY=   -4.758  LOWER_BOUND=    6.756  UPPER_BOUND=    9.118
INTER + INTRA:          -4.758
INTER:                  -4.758
INTRA:                   0.000
UNBOUND:                 0.000

$$$$

     RDKit          3D

 92 91  0  0  0  0  0  0  0  0999 V2000
   46.1231    7.7368   12.1369 C   0  0  0  0  0  0  0  0  0  0  0  0
   47.4929    8.0477   12.1667 C   0  0  0  0  0  0  0  0  0  0  0  0
   48.4333    7.1646   12.7259 C   0  0  0  0  0  0  0  0  0  0  0  0
   45.7106    6.5048   12.6588 C   0  0  0  0  0  0  0  0  0  0  0  0
   49.6441    9.5671   14.2863 N   0  0  0  0  0  0  0  0  0  0  0  0
   47.9823    5.9314   13.2243 C   0  0  0  0  0  0  0  0  0  0  0  0
   50.2947    9.4407   15.5969 C   0  0  0  0  0  0  0  0  0  0  0  0
   46.6280    5.5999   13.1918 C   0  0  0  0  0  0  0  0  0  0  0  0
   50.2924    8.9545   13.1196 C   0  0  0  0  0  0  0  0  0  0  0  0
   49.9169    7.4859   12.7677 C   0  0  2  0  0  0  0  0  0  0  0  0
   44.3783    6.1961   12.6344 O   0  0  0  0  0  0  0  0  0  0  0  0
   45.0975    8.6940   11.5869 C   0  0  0  0  0  0  0  0  0  0  0  0
   50.5005    7.1573   11.5011 O   0  0  0  0  0  0  0  0  0  0  0  0
   45.6944    9.8528   11.0089 O   0  0  0  0  0  0  0  0  0  0  0  0
   51.6491   10.1704   15.6244 C   0  0  0  0  0  0  0  0  0  0  0  0
   50.4749    7.9839   16.0384 C   0  0  0  0  0  0  0  0  0  0  0  0
   49.3568   10.1402   16.6054 C   0  0  0  0  0  0  0  0  0  0  0  0
   45.3510    7.1012   11.8148 C   0  0  0  0  0  0  0  0  0  0  0  0
   46.6658    6.9077   12.2735 C   0  0  0  0  0  0  0  0  0  0  0  0
   47.3756    7.9272   12.9359 C   0  0  0  0  0  0  0  0  0  0  0  0
   44.7459    8.3393   12.0372 C   0  0  0  0  0  0  0  0  0  0  0  0
   50.6513    8.0518   14.9935 N   0  0  0  0  0  0  0  0  0  0  0  0
   46.7450    9.1635   13.1146 C   0  0  0  0  0  0  0  0  0  0  0  0
   51.4064    8.9761   15.8570 C   0  0  0  0  0  0  0  0  0  0  0  0
   45.4321    9.3657   12.6783 C   0  0  0  0  0  0  0  0  0  0  0  0
   49.3192    8.5088   14.5630 C   0  0  0  0  0  0  0  0  0  0  0  0
   48.8002    7.6504   13.3817 C   0  0  2  0  0  0  0  0  0  0  0  0
   43.4647    8.5410   11.6138 O   0  0  0  0  0  0  0  0  0  0  0  0
   44.6362    5.9703   11.1232 C   0  0  0  0  0  0  0  0  0  0  0  0
   49.6869    7.8404   12.2682 O   0  0  0  0  0  0  0  0  0  0  0  0
   45.3723    5.5504    9.9787 O   0  0  0  0  0  0  0  0  0  0  0  0
   52.6363    8.1898   16.3453 C   0  0  0  0  0  0  0  0  0  0  0  0
   51.8921   10.2059   15.0673 C   0  0  0  0  0  0  0  0  0  0  0  0
   50.5982    9.4286   17.0813 C   0  0  0  0  0  0  0  0  0  0  0  0
   46.7057    9.3771   12.3191 O   0  0  0  0  0  0  0  0  0  0  0  0
   48.3155    8.0664   11.4880 O   0  0  0  0  0  0  0  0  0  0  0  0
   50.1896    9.5102   13.6270 O   0  0  0  0  0  0  0  0  0  0  0  0
   50.4938    8.8156   15.7217 O   0  0  0  0  0  0  0  0  0  0  0  0
   47.1733    8.7420   14.8580 O   0  0  0  0  0  0  0  0  0  0  0  0
   49.0665    6.5022   15.3263 O   0  0  0  0  0  0  0  0  0  0  0  0
   47.6585    8.4244   12.4525 C   0  0  0  0  0  0  0  0  0  0  0  0
   47.7086    7.8585   13.8686 C   0  0  1  0  0  0  0  0  0  0  0  0
   49.1301    7.4328   14.2317 C   0  0  1  0  0  0  0  0  0  0  0  0
   49.9888    8.6303   14.6234 C   0  0  0  0  0  0  0  0  0  0  0  0
   47.8250    9.0031   11.7597 H   0  0  0  0  0  0  0  0  0  0  0  0
   48.6761    9.2516   14.3396 H   0  0  0  0  0  0  0  0  0  0  0  0
   48.6921    5.2164   13.6422 H   0  0  0  0  0  0  0  0  0  0  0  0
   46.3112    4.6382   13.5841 H   0  0  0  0  0  0  0  0  0  0  0  0
   50.0331    9.5812   12.2553 H   0  0  0  0  0  0  0  0  0  0  0  0
   51.3840    9.0369   13.1677 H   0  0  0  0  0  0  0  0  0  0  0  0
   50.3977    6.8307   13.4991 H   0  0  0  0  0  0  0  0  0  0  0  0
   44.2627    5.2993   12.9915 H   0  0  0  0  0  0  0  0  0  0  0  0
   44.5026    8.2040   10.8110 H   0  0  0  0  0  0  0  0  0  0  0  0
   44.4444    9.0249   12.4017 H   0  0  0  0  0  0  0  0  0  0  0  0
   49.7764    7.0965   10.8506 H   0  0  0  0  0  0  0  0  0  0  0  0
   44.9635   10.4364   10.7529 H   0  0  0  0  0  0  0  0  0  0  0  0
   51.5527   11.2054   15.2742 H   0  0  0  0  0  0  0  0  0  0  0  0
   52.0519   10.2053   16.6436 H   0  0  0  0  0  0  0  0  0  0  0  0
   52.4001    9.6739   15.0014 H   0  0  0  0  0  0  0  0  0  0  0  0
   51.2396    7.4758   15.4438 H   0  0  0  0  0  0  0  0  0  0  0  0
   50.7952    7.9260   17.0858 H   0  0  0  0  0  0  0  0  0  0  0  0
   49.5380    7.4210   15.9518 H   0  0  0  0  0  0  0  0  0  0  0  0
   49.2136   11.1994   16.3527 H   0  0  0  0  0  0  0  0  0  0  0  0
   49.7616   10.0963   17.6225 H   0  0  0  0  0  0  0  0  0  0  0  0
   48.3689    9.6677   16.6240 H   0  0  0  0  0  0  0  0  0  0  0  0
   47.1421    5.9390   12.1074 H   0  0  0  0  0  0  0  0  0  0  0  0
   51.1956    7.8578   14.1449 H   0  0  0  0  0  0  0  0  0  0  0  0
   47.2576    9.9885   13.5997 H   0  0  0  0  0  0  0  0  0  0  0  0
   44.9685   10.3349   12.8367 H   0  0  0  0  0  0  0  0  0  0  0  0
   49.3750    9.5509   14.2318 H   0  0  0  0  0  0  0  0  0  0  0  0
   48.6180    8.4413   15.4025 H   0  0  0  0  0  0  0  0  0  0  0  0
   48.8657    6.5928   13.6707 H   0  0  0  0  0  0  0  0  0  0  0  0
   43.1522    9.4036   11.9426 H   0  0  0  0  0  0  0  0  0  0  0  0
   43.6322    6.2481   10.7925 H   0  0  0  0  0  0  0  0  0  0  0  0
   44.5348    5.1201   11.8043 H   0  0  0  0  0  0  0  0  0  0  0  0
   49.1407    7.9565   11.4686 H   0  0  0  0  0  0  0  0  0  0  0  0
   45.6154    6.3638    9.5033 H   0  0  0  0  0  0  0  0  0  0  0  0
   52.3425    7.3004   16.9116 H   0  0  0  0  0  0  0  0  0  0  0  0
   53.2627    7.8601   15.5102 H   0  0  0  0  0  0  0  0  0  0  0  0
   53.2642    8.8017   17.0029 H   0  0  0  0  0  0  0  0  0  0  0  0
   51.0700   10.8751   14.8011 H   0  0  0  0  0  0  0  0  0  0  0  0
   52.4007    9.9170   14.1411 H   0  0  0  0  0  0  0  0  0  0  0  0
   52.6054   10.7920   15.6598 H   0  0  0  0  0  0  0  0  0  0  0  0
   49.7340   10.0417   16.8032 H   0  0  0  0  0  0  0  0  0  0  0  0
   51.2133   10.0349   17.7581 H   0  0  0  0  0  0  0  0  0  0  0  0
   50.2266    8.5714   17.6533 H   0  0  0  0  0  0  0  0  0  0  0  0
   46.7813    9.6442   11.3761 H   0  0  0  0  0  0  0  0  0  0  0  0
   50.7531   10.2063   14.0279 H   0  0  0  0  0  0  0  0  0  0  0  0
   46.3137    9.0425   14.5069 H   0  0  0  0  0  0  0  0  0  0  0  0
   48.9906    7.0513   16.1342 H   0  0  0  0  0  0  0  0  0  0  0  0
   47.0547    6.9758   13.8687 H   0  0  0  0  0  0  0  0  0  0  0  0
   49.6303    6.9077   13.4105 H   0  0  0  0  0  0  0  0  0  0  0  0
 10  3  1  0
 11  4  1  0
 12  1  1  0
 10 13  1  0
 14 12  1  0
 15  7  1  0
 16  7  1  0
 17  7  1  0
  6  8  1  0
  2  1  2  0
  3  2  1  0
  4  1  1  0
  5  9  1  0
  6  3  2  0
  7  5  1  0
  8  4  2  0
  9 10  1  0
 27 20  1  0
 28 21  1  0
 29 18  1  0
 27 30  1  0
 31 29  1  0
 32 24  1  0
 33 24  1  0
 34 24  1  0
 23 25  1  0
 19 18  2  0
 20 19  1  0
 21 18  1  0
 22 26  1  0
 23 20  2  0
 24 22  1  0
 25 21  2  0
 26 27  1  0
 41 36  2  0
 42 39  1  0
 43 40  1  0
 41 35  1  0
 43 44  1  0
 42 43  1  0
 44 37  1  0
 41 42  1  0
 44 38  2  0
  2 45  1  0
  5 46  1  0
  6 47  1  0
  8 48  1  0
  9 49  1  0
  9 50  1  0
 10 51  1  1
 11 52  1  0
 12 53  1  0
 12 54  1  0
 13 55  1  0
 14 56  1  0
 15 57  1  0
 15 58  1  0
 15 59  1  0
 16 60  1  0
 16 61  1  0
 16 62  1  0
 17 63  1  0
 17 64  1  0
 17 65  1  0
 19 66  1  0
 22 67  1  0
 23 68  1  0
 25 69  1  0
 26 70  1  0
 26 71  1  0
 27 72  1  1
 28 73  1  0
 29 74  1  0
 29 75  1  0
 30 76  1  0
 31 77  1  0
 32 78  1  0
 32 79  1  0
 32 80  1  0
 33 81  1  0
 33 82  1  0
 33 83  1  0
 34 84  1  0
 34 85  1  0
 34 86  1  0
 35 87  1  0
 37 88  1  0
 39 89  1  0
 40 90  1  0
 42 91  1  6
 43 92  1  1
M  END
> <Uni-Dock RESULT> 
ENERGY=   -4.756  LOWER_BOUND=    6.756  UPPER_BOUND=    9.118
INTER + INTRA:          -4.756
INTER:                  -4.756
INTRA:                   0.000
UNBOUND:                 0.000

$$$$

     RDKit          3D

 92 91  0  0  0  0  0  0  0  0999 V2000
   48.9711    5.6701   18.5247 C   0  0  0  0  0  0  0  0  0  0  0  0
   49.7505    6.3690   17.5877 C   0  0  0  0  0  0  0  0  0  0  0  0
   49.4740    7.7071   17.2563 C   0  0  0  0  0  0  0  0  0  0  0  0
   47.9161    6.3478   19.1479 C   0  0  0  0  0  0  0  0  0  0  0  0
   49.7082    6.9294   14.2541 N   0  0  0  0  0  0  0  0  0  0  0  0
   48.4177    8.3573   17.9151 C   0  0  0  0  0  0  0  0  0  0  0  0
   48.9615    7.5974   13.1803 C   0  0  0  0  0  0  0  0  0  0  0  0
   47.6409    7.6836   18.8574 C   0  0  0  0  0  0  0  0  0  0  0  0
   50.7375    7.6921   14.9719 C   0  0  0  0  0  0  0  0  0  0  0  0
   50.3052    8.4763   16.2446 C   0  0  2  0  0  0  0  0  0  0  0  0
   47.1523    5.6731   20.0601 O   0  0  0  0  0  0  0  0  0  0  0  0
   49.2234    4.2213   18.8532 C   0  0  0  0  0  0  0  0  0  0  0  0
   51.4809    8.9774   16.8924 O   0  0  0  0  0  0  0  0  0  0  0  0
   50.3898    3.7156   18.2076 O   0  0  0  0  0  0  0  0  0  0  0  0
   49.8829    7.9793   12.0087 C   0  0  0  0  0  0  0  0  0  0  0  0
   48.1901    8.8304   13.6643 C   0  0  0  0  0  0  0  0  0  0  0  0
   47.9408    6.5592   12.6639 C   0  0  0  0  0  0  0  0  0  0  0  0
   48.6092    5.5809   19.5071 C   0  0  0  0  0  0  0  0  0  0  0  0
   48.8450    6.6565   18.6329 C   0  0  0  0  0  0  0  0  0  0  0  0
   49.0433    6.4585   17.2532 C   0  0  0  0  0  0  0  0  0  0  0  0
   48.5658    4.2909   18.9756 C   0  0  0  0  0  0  0  0  0  0  0  0
   49.1255    8.7903   14.1653 N   0  0  0  0  0  0  0  0  0  0  0  0
   49.0208    5.1481   16.7631 C   0  0  0  0  0  0  0  0  0  0  0  0
   49.1549    8.7136   12.6945 C   0  0  0  0  0  0  0  0  0  0  0  0
   48.7715    4.0698   17.6175 C   0  0  0  0  0  0  0  0  0  0  0  0
   48.9520    7.5134   14.8779 C   0  0  0  0  0  0  0  0  0  0  0  0
   49.3154    7.6677   16.3765 C   0  0  2  0  0  0  0  0  0  0  0  0
   48.3221    3.2356   19.8052 O   0  0  0  0  0  0  0  0  0  0  0  0
   48.3919    5.8539   20.9721 C   0  0  0  0  0  0  0  0  0  0  0  0
   50.7073    8.0098   16.4655 O   0  0  0  0  0  0  0  0  0  0  0  0
   49.5163    6.5373   21.5168 O   0  0  0  0  0  0  0  0  0  0  0  0
   49.1149   10.1687   12.1938 C   0  0  0  0  0  0  0  0  0  0  0  0
   50.4568    8.0589   12.1961 C   0  0  0  0  0  0  0  0  0  0  0  0
   47.9427    7.9661   12.1211 C   0  0  0  0  0  0  0  0  0  0  0  0
   49.7024    4.8822   17.1436 O   0  0  0  0  0  0  0  0  0  0  0  0
   50.7073    6.8387   17.5467 O   0  0  0  0  0  0  0  0  0  0  0  0
   50.4828    7.2696   14.3945 O   0  0  0  0  0  0  0  0  0  0  0  0
   48.7430    8.2018   13.3617 O   0  0  0  0  0  0  0  0  0  0  0  0
   47.7167    5.9275   15.7179 O   0  0  0  0  0  0  0  0  0  0  0  0
   47.5141    8.8904   15.7200 O   0  0  0  0  0  0  0  0  0  0  0  0
   49.7426    6.2350   17.1050 C   0  0  0  0  0  0  0  0  0  0  0  0
   48.4537    6.8308   16.5467 C   0  0  1  0  0  0  0  0  0  0  0  0
   48.7365    8.1381   15.8088 C   0  0  1  0  0  0  0  0  0  0  0  0
   49.2862    7.8821   14.4098 C   0  0  0  0  0  0  0  0  0  0  0  0
   50.5765    5.8514   17.0993 H   0  0  0  0  0  0  0  0  0  0  0  0
   49.0650    6.5133   14.9269 H   0  0  0  0  0  0  0  0  0  0  0  0
   48.1952    9.4022   17.6957 H   0  0  0  0  0  0  0  0  0  0  0  0
   46.8320    8.2145   19.3503 H   0  0  0  0  0  0  0  0  0  0  0  0
   51.5080    6.9686   15.2718 H   0  0  0  0  0  0  0  0  0  0  0  0
   51.2810    8.3726   14.3068 H   0  0  0  0  0  0  0  0  0  0  0  0
   49.7413    9.3561   15.9230 H   0  0  0  0  0  0  0  0  0  0  0  0
   46.4957    6.2885   20.4281 H   0  0  0  0  0  0  0  0  0  0  0  0
   49.3597    4.0976   19.9313 H   0  0  0  0  0  0  0  0  0  0  0  0
   48.3689    3.6245   18.5163 H   0  0  0  0  0  0  0  0  0  0  0  0
   51.6049    8.4658   17.7134 H   0  0  0  0  0  0  0  0  0  0  0  0
   50.4279    2.7694   18.4165 H   0  0  0  0  0  0  0  0  0  0  0  0
   50.4756    7.1207   11.6701 H   0  0  0  0  0  0  0  0  0  0  0  0
   49.2972    8.3320   11.1516 H   0  0  0  0  0  0  0  0  0  0  0  0
   50.5775    8.7834   12.2729 H   0  0  0  0  0  0  0  0  0  0  0  0
   48.8652    9.6552   13.9106 H   0  0  0  0  0  0  0  0  0  0  0  0
   47.5076    9.1983   12.8885 H   0  0  0  0  0  0  0  0  0  0  0  0
   47.5853    8.6017   14.5498 H   0  0  0  0  0  0  0  0  0  0  0  0
   48.4417    5.6617   12.2770 H   0  0  0  0  0  0  0  0  0  0  0  0
   47.3298    6.9706   11.8530 H   0  0  0  0  0  0  0  0  0  0  0  0
   47.2594    6.2410   13.4601 H   0  0  0  0  0  0  0  0  0  0  0  0
   48.8741    7.6686   19.0424 H   0  0  0  0  0  0  0  0  0  0  0  0
   50.0000    9.2102   14.5015 H   0  0  0  0  0  0  0  0  0  0  0  0
   49.1901    4.9410   15.7110 H   0  0  0  0  0  0  0  0  0  0  0  0
   48.7549    3.0651   17.2056 H   0  0  0  0  0  0  0  0  0  0  0  0
   49.6092    6.7541   14.4415 H   0  0  0  0  0  0  0  0  0  0  0  0
   47.9128    7.1780   14.7842 H   0  0  0  0  0  0  0  0  0  0  0  0
   48.7472    8.5156   16.7822 H   0  0  0  0  0  0  0  0  0  0  0  0
   48.2103    2.4286   19.2705 H   0  0  0  0  0  0  0  0  0  0  0  0
   48.2424    4.9396   21.5518 H   0  0  0  0  0  0  0  0  0  0  0  0
   47.5041    6.4786   21.1083 H   0  0  0  0  0  0  0  0  0  0  0  0
   51.1011    7.4731   17.1783 H   0  0  0  0  0  0  0  0  0  0  0  0
   50.3009    6.0565   21.2007 H   0  0  0  0  0  0  0  0  0  0  0  0
   48.2063   10.6803   12.5262 H   0  0  0  0  0  0  0  0  0  0  0  0
   49.9723   10.7444   12.5567 H   0  0  0  0  0  0  0  0  0  0  0  0
   49.1315   10.2131   11.0989 H   0  0  0  0  0  0  0  0  0  0  0  0
   50.4870    6.9875   12.4103 H   0  0  0  0  0  0  0  0  0  0  0  0
   51.3407    8.5159   12.6540 H   0  0  0  0  0  0  0  0  0  0  0  0
   50.5587    8.1729   11.1098 H   0  0  0  0  0  0  0  0  0  0  0  0
   47.9412    6.9062   12.3979 H   0  0  0  0  0  0  0  0  0  0  0  0
   47.9358    8.0081   11.0247 H   0  0  0  0  0  0  0  0  0  0  0  0
   47.0016    8.4025   12.4732 H   0  0  0  0  0  0  0  0  0  0  0  0
   50.5771    4.6391   17.5207 H   0  0  0  0  0  0  0  0  0  0  0  0
   50.6985    7.1822   13.4414 H   0  0  0  0  0  0  0  0  0  0  0  0
   47.6644    5.0917   16.2191 H   0  0  0  0  0  0  0  0  0  0  0  0
   47.0341    8.5223   14.9492 H   0  0  0  0  0  0  0  0  0  0  0  0
   47.8106    7.0357   17.4135 H   0  0  0  0  0  0  0  0  0  0  0  0
   49.4501    8.7734   16.3451 H   0  0  0  0  0  0  0  0  0  0  0  0
 10  3  1  0
 11  4  1  0
 12  1  1  0
 10 13  1  0
 14 12  1  0
 15  7  1  0
 16  7  1  0
 17  7  1  0
  6  8  1  0
  2  1  2  0
  3  2  1  0
  4  1  1  0
  5  9  1  0
  6  3  2  0
  7  5  1  0
  8  4  2  0
  9 10  1  0
 27 20  1  0
 28 21  1  0
 29 18  1  0
 27 30  1  0
 31 29  1  0
 32 24  1  0
 33 24  1  0
 34 24  1  0
 23 25  1  0
 19 18  2  0
 20 19  1  0
 21 18  1  0
 22 26  1  0
 23 20  2  0
 24 22  1  0
 25 21  2  0
 26 27  1  0
 41 36  2  0
 42 39  1  0
 43 40  1  0
 41 35  1  0
 43 44  1  0
 42 43  1  0
 44 37  1  0
 41 42  1  0
 44 38  2  0
  2 45  1  0
  5 46  1  0
  6 47  1  0
  8 48  1  0
  9 49  1  0
  9 50  1  0
 10 51  1  1
 11 52  1  0
 12 53  1  0
 12 54  1  0
 13 55  1  0
 14 56  1  0
 15 57  1  0
 15 58  1  0
 15 59  1  0
 16 60  1  0
 16 61  1  0
 16 62  1  0
 17 63  1  0
 17 64  1  0
 17 65  1  0
 19 66  1  0
 22 67  1  0
 23 68  1  0
 25 69  1  0
 26 70  1  0
 26 71  1  0
 27 72  1  1
 28 73  1  0
 29 74  1  0
 29 75  1  0
 30 76  1  0
 31 77  1  0
 32 78  1  0
 32 79  1  0
 32 80  1  0
 33 81  1  0
 33 82  1  0
 33 83  1  0
 34 84  1  0
 34 85  1  0
 34 86  1  0
 35 87  1  0
 37 88  1  0
 39 89  1  0
 40 90  1  0
 42 91  1  6
 43 92  1  1
M  END
> <Uni-Dock RESULT> 
ENERGY=   -4.637  LOWER_BOUND=    9.247  UPPER_BOUND=   10.919
INTER + INTRA:          -4.637
INTER:                  -4.637
INTRA:                   0.000
UNBOUND:                 0.000

$$$$

     RDKit          3D

 92 91  0  0  0  0  0  0  0  0999 V2000
   53.4516    5.0540   20.3021 C   0  0  0  0  0  0  0  0  0  0  0  0
   52.6138    4.1443   19.6354 C   0  0  0  0  0  0  0  0  0  0  0  0
   52.3613    4.2547   18.2567 C   0  0  0  0  0  0  0  0  0  0  0  0
   54.0571    6.0703   19.5530 C   0  0  0  0  0  0  0  0  0  0  0  0
   49.3311    3.9050   18.8640 N   0  0  0  0  0  0  0  0  0  0  0  0
   53.0003    5.2775   17.5371 C   0  0  0  0  0  0  0  0  0  0  0  0
   48.2644    4.5036   18.0510 C   0  0  0  0  0  0  0  0  0  0  0  0
   53.8453    6.1823   18.1793 C   0  0  0  0  0  0  0  0  0  0  0  0
   50.1604    2.8507   18.2663 C   0  0  0  0  0  0  0  0  0  0  0  0
   51.4571    3.2811   17.5214 C   0  0  2  0  0  0  0  0  0  0  0  0
   54.8729    6.9603   20.1957 O   0  0  0  0  0  0  0  0  0  0  0  0
   53.6921    4.9791   21.7877 C   0  0  0  0  0  0  0  0  0  0  0  0
   52.2070    2.1047   17.1950 O   0  0  0  0  0  0  0  0  0  0  0  0
   53.0829    3.8325   22.3770 O   0  0  0  0  0  0  0  0  0  0  0  0
   47.1792    3.4709   17.6997 C   0  0  0  0  0  0  0  0  0  0  0  0
   48.7871    5.1703   16.7736 C   0  0  0  0  0  0  0  0  0  0  0  0
   47.6169    5.5919   18.9356 C   0  0  0  0  0  0  0  0  0  0  0  0
   54.4021    5.4879   20.4128 C   0  0  0  0  0  0  0  0  0  0  0  0
   53.6211    5.0817   19.3166 C   0  0  0  0  0  0  0  0  0  0  0  0
   52.2451    4.8141   19.4475 C   0  0  0  0  0  0  0  0  0  0  0  0
   53.7798    5.6323   21.6540 C   0  0  0  0  0  0  0  0  0  0  0  0
   49.3386    4.2799   16.9483 N   0  0  0  0  0  0  0  0  0  0  0  0
   51.6638    4.9428   20.7138 C   0  0  0  0  0  0  0  0  0  0  0  0
   47.8704    4.1609   16.9345 C   0  0  0  0  0  0  0  0  0  0  0  0
   52.4242    5.3614   21.8100 C   0  0  0  0  0  0  0  0  0  0  0  0
   49.9484    4.6348   18.2408 C   0  0  0  0  0  0  0  0  0  0  0  0
   51.4730    4.3577   18.2226 C   0  0  2  0  0  0  0  0  0  0  0  0
   54.5175    6.0412   22.7263 O   0  0  0  0  0  0  0  0  0  0  0  0
   55.8672    5.7720   20.2108 C   0  0  0  0  0  0  0  0  0  0  0  0
   51.6682    2.9464   18.0425 O   0  0  0  0  0  0  0  0  0  0  0  0
   56.5242    4.6202   19.6914 O   0  0  0  0  0  0  0  0  0  0  0  0
   47.4715    4.0131   15.4552 C   0  0  0  0  0  0  0  0  0  0  0  0
   47.4054    2.9056   17.6959 C   0  0  0  0  0  0  0  0  0  0  0  0
   47.1752    5.4047   17.5060 C   0  0  0  0  0  0  0  0  0  0  0  0
   52.0645    4.3201   21.0768 O   0  0  0  0  0  0  0  0  0  0  0  0
   52.6627    3.1425   19.2725 O   0  0  0  0  0  0  0  0  0  0  0  0
   49.5407    3.1098   18.6208 O   0  0  0  0  0  0  0  0  0  0  0  0
   48.4745    4.6683   17.4390 O   0  0  0  0  0  0  0  0  0  0  0  0
   50.6003    6.0844   19.7308 O   0  0  0  0  0  0  0  0  0  0  0  0
   50.7982    5.9714   16.7697 O   0  0  0  0  0  0  0  0  0  0  0  0
   52.1233    4.1342   19.7369 C   0  0  0  0  0  0  0  0  0  0  0  0
   51.5327    5.3126   18.9685 C   0  0  1  0  0  0  0  0  0  0  0  0
   50.9063    4.8443   17.6563 C   0  0  1  0  0  0  0  0  0  0  0  0
   49.5279    4.2331   17.8823 C   0  0  0  0  0  0  0  0  0  0  0  0
   52.1402    3.3471   20.2090 H   0  0  0  0  0  0  0  0  0  0  0  0
   49.9337    4.6320   19.2483 H   0  0  0  0  0  0  0  0  0  0  0  0
   52.8419    5.3729   16.4622 H   0  0  0  0  0  0  0  0  0  0  0  0
   54.3253    6.9614   17.5947 H   0  0  0  0  0  0  0  0  0  0  0  0
   50.4539    2.1829   19.0879 H   0  0  0  0  0  0  0  0  0  0  0  0
   49.5781    2.1950   17.6092 H   0  0  0  0  0  0  0  0  0  0  0  0
   51.1651    3.7259   16.5662 H   0  0  0  0  0  0  0  0  0  0  0  0
   55.2436    7.5710   19.5362 H   0  0  0  0  0  0  0  0  0  0  0  0
   54.7650    4.9288   21.9937 H   0  0  0  0  0  0  0  0  0  0  0  0
   53.2641    5.8678   22.2642 H   0  0  0  0  0  0  0  0  0  0  0  0
   52.9960    2.0905   17.7680 H   0  0  0  0  0  0  0  0  0  0  0  0
   53.2268    3.9090   23.3330 H   0  0  0  0  0  0  0  0  0  0  0  0
   46.8169    2.9514   18.5952 H   0  0  0  0  0  0  0  0  0  0  0  0
   46.3157    3.9576   17.2310 H   0  0  0  0  0  0  0  0  0  0  0  0
   47.5399    2.7141   16.9955 H   0  0  0  0  0  0  0  0  0  0  0  0
   49.1303    4.4295   16.0456 H   0  0  0  0  0  0  0  0  0  0  0  0
   48.0000    5.7568   16.2844 H   0  0  0  0  0  0  0  0  0  0  0  0
   49.6169    5.8536   16.9899 H   0  0  0  0  0  0  0  0  0  0  0  0
   47.1984    5.1644   19.8566 H   0  0  0  0  0  0  0  0  0  0  0  0
   46.8020    6.1006   18.4088 H   0  0  0  0  0  0  0  0  0  0  0  0
   48.3470    6.3547   19.2265 H   0  0  0  0  0  0  0  0  0  0  0  0
   54.1016    4.9728   18.3419 H   0  0  0  0  0  0  0  0  0  0  0  0
   49.7548    3.3901   16.6495 H   0  0  0  0  0  0  0  0  0  0  0  0
   50.6116    4.7268   20.8713 H   0  0  0  0  0  0  0  0  0  0  0  0
   51.9426    5.4569   22.7786 H   0  0  0  0  0  0  0  0  0  0  0  0
   49.4996    4.0342   19.0388 H   0  0  0  0  0  0  0  0  0  0  0  0
   49.7700    5.6951   18.4530 H   0  0  0  0  0  0  0  0  0  0  0  0
   51.9028    4.8584   17.3447 H   0  0  0  0  0  0  0  0  0  0  0  0
   53.9218    6.2021   23.4806 H   0  0  0  0  0  0  0  0  0  0  0  0
   56.3715    6.0559   21.1380 H   0  0  0  0  0  0  0  0  0  0  0  0
   55.9940    6.5956   19.5019 H   0  0  0  0  0  0  0  0  0  0  0  0
   52.3637    2.6600   18.6633 H   0  0  0  0  0  0  0  0  0  0  0  0
   56.2223    3.8717   20.2348 H   0  0  0  0  0  0  0  0  0  0  0  0
   47.7845    4.8824   14.8685 H   0  0  0  0  0  0  0  0  0  0  0  0
   47.9241    3.1255   15.0015 H   0  0  0  0  0  0  0  0  0  0  0  0
   46.3853    3.9191   15.3436 H   0  0  0  0  0  0  0  0  0  0  0  0
   47.5454    3.0035   18.7755 H   0  0  0  0  0  0  0  0  0  0  0  0
   47.9458    2.0107   17.3690 H   0  0  0  0  0  0  0  0  0  0  0  0
   46.3378    2.7201   17.5252 H   0  0  0  0  0  0  0  0  0  0  0  0
   47.3764    5.5371   18.5747 H   0  0  0  0  0  0  0  0  0  0  0  0
   46.0859    5.3342   17.3942 H   0  0  0  0  0  0  0  0  0  0  0  0
   47.5005    6.3156   16.9917 H   0  0  0  0  0  0  0  0  0  0  0  0
   52.4748    3.5032   21.4382 H   0  0  0  0  0  0  0  0  0  0  0  0
   48.5982    2.8416   18.6710 H   0  0  0  0  0  0  0  0  0  0  0  0
   51.0377    6.2584   20.5858 H   0  0  0  0  0  0  0  0  0  0  0  0
   49.9764    6.4354   17.0332 H   0  0  0  0  0  0  0  0  0  0  0  0
   52.3721    5.9866   18.7493 H   0  0  0  0  0  0  0  0  0  0  0  0
   51.5273    4.1047   17.1388 H   0  0  0  0  0  0  0  0  0  0  0  0
 10  3  1  0
 11  4  1  0
 12  1  1  0
 10 13  1  0
 14 12  1  0
 15  7  1  0
 16  7  1  0
 17  7  1  0
  6  8  1  0
  2  1  2  0
  3  2  1  0
  4  1  1  0
  5  9  1  0
  6  3  2  0
  7  5  1  0
  8  4  2  0
  9 10  1  0
 27 20  1  0
 28 21  1  0
 29 18  1  0
 27 30  1  0
 31 29  1  0
 32 24  1  0
 33 24  1  0
 34 24  1  0
 23 25  1  0
 19 18  2  0
 20 19  1  0
 21 18  1  0
 22 26  1  0
 23 20  2  0
 24 22  1  0
 25 21  2  0
 26 27  1  0
 41 36  2  0
 42 39  1  0
 43 40  1  0
 41 35  1  0
 43 44  1  0
 42 43  1  0
 44 37  1  0
 41 42  1  0
 44 38  2  0
  2 45  1  0
  5 46  1  0
  6 47  1  0
  8 48  1  0
  9 49  1  0
  9 50  1  0
 10 51  1  1
 11 52  1  0
 12 53  1  0
 12 54  1  0
 13 55  1  0
 14 56  1  0
 15 57  1  0
 15 58  1  0
 15 59  1  0
 16 60  1  0
 16 61  1  0
 16 62  1  0
 17 63  1  0
 17 64  1  0
 17 65  1  0
 19 66  1  0
 22 67  1  0
 23 68  1  0
 25 69  1  0
 26 70  1  0
 26 71  1  0
 27 72  1  1
 28 73  1  0
 29 74  1  0
 29 75  1  0
 30 76  1  0
 31 77  1  0
 32 78  1  0
 32 79  1  0
 32 80  1  0
 33 81  1  0
 33 82  1  0
 33 83  1  0
 34 84  1  0
 34 85  1  0
 34 86  1  0
 35 87  1  0
 37 88  1  0
 39 89  1  0
 40 90  1  0
 42 91  1  6
 43 92  1  1
M  END
> <Uni-Dock RESULT> 
ENERGY=   -4.429  LOWER_BOUND=   13.236  UPPER_BOUND=   15.434
INTER + INTRA:          -4.429
INTER:                  -4.429
INTRA:                   0.000
UNBOUND:                 0.000

$$$$

     RDKit          3D

 92 91  0  0  0  0  0  0  0  0999 V2000
   48.6683    9.8459   22.3561 C   0  0  0  0  0  0  0  0  0  0  0  0
   48.3543   11.1152   21.8421 C   0  0  0  0  0  0  0  0  0  0  0  0
   47.4083   11.2768   20.8146 C   0  0  0  0  0  0  0  0  0  0  0  0
   47.9946    8.7341   21.8362 C   0  0  0  0  0  0  0  0  0  0  0  0
   49.4394   13.1142   19.3409 N   0  0  0  0  0  0  0  0  0  0  0  0
   46.7419   10.1391   20.3309 C   0  0  0  0  0  0  0  0  0  0  0  0
   49.5091   13.2415   17.8795 C   0  0  0  0  0  0  0  0  0  0  0  0
   47.0311    8.8723   20.8377 C   0  0  0  0  0  0  0  0  0  0  0  0
   48.2479   13.6219   20.0331 C   0  0  0  0  0  0  0  0  0  0  0  0
   47.0587   12.6411   20.2467 C   0  0  2  0  0  0  0  0  0  0  0  0
   48.2962    7.4951   22.3309 O   0  0  0  0  0  0  0  0  0  0  0  0
   49.7158    9.6513   23.4217 C   0  0  0  0  0  0  0  0  0  0  0  0
   46.0976   13.2699   21.1032 O   0  0  0  0  0  0  0  0  0  0  0  0
   50.2303   10.8894   23.9069 O   0  0  0  0  0  0  0  0  0  0  0  0
   49.5511   14.7171   17.4455 C   0  0  0  0  0  0  0  0  0  0  0  0
   48.3671   12.5155   17.1596 C   0  0  0  0  0  0  0  0  0  0  0  0
   50.8423   12.5839   17.4594 C   0  0  0  0  0  0  0  0  0  0  0  0
   48.3549    8.9689   22.8424 C   0  0  0  0  0  0  0  0  0  0  0  0
   47.7909    9.8205   21.8763 C   0  0  0  0  0  0  0  0  0  0  0  0
   48.5694   10.7596   21.1734 C   0  0  0  0  0  0  0  0  0  0  0  0
   49.7248    9.0646   23.0931 C   0  0  0  0  0  0  0  0  0  0  0  0
   47.9876   12.9626   18.0449 N   0  0  0  0  0  0  0  0  0  0  0  0
   49.9335   10.8448   21.4733 C   0  0  0  0  0  0  0  0  0  0  0  0
   48.7365   13.8374   17.1263 C   0  0  0  0  0  0  0  0  0  0  0  0
   50.5117    9.9936   22.4199 C   0  0  0  0  0  0  0  0  0  0  0  0
   48.7889   12.2271   19.0377 C   0  0  0  0  0  0  0  0  0  0  0  0
   47.8845   11.6604   20.1613 C   0  0  2  0  0  0  0  0  0  0  0  0
   50.2935    8.2356   24.0154 O   0  0  0  0  0  0  0  0  0  0  0  0
   47.4754    7.9751   23.5545 C   0  0  0  0  0  0  0  0  0  0  0  0
   47.2806   12.7669   20.8492 O   0  0  0  0  0  0  0  0  0  0  0  0
   46.4151    8.6490   24.2250 O   0  0  0  0  0  0  0  0  0  0  0  0
   47.7235   14.3033   16.0651 C   0  0  0  0  0  0  0  0  0  0  0  0
   49.2847   15.0764   17.8587 C   0  0  0  0  0  0  0  0  0  0  0  0
   49.8824   13.1012   16.4178 C   0  0  0  0  0  0  0  0  0  0  0  0
   49.8540   11.1283   22.2436 O   0  0  0  0  0  0  0  0  0  0  0  0
   47.7847   11.9687   22.1334 O   0  0  0  0  0  0  0  0  0  0  0  0
   48.9315   13.6977   19.7110 O   0  0  0  0  0  0  0  0  0  0  0  0
   48.9448   13.0457   17.5809 O   0  0  0  0  0  0  0  0  0  0  0  0
   50.0008   10.5264   19.6581 O   0  0  0  0  0  0  0  0  0  0  0  0
   47.4829   10.7796   18.1037 O   0  0  0  0  0  0  0  0  0  0  0  0
   48.6974   11.3730   21.5835 C   0  0  0  0  0  0  0  0  0  0  0  0
   48.6922   10.7555   20.1883 C   0  0  1  0  0  0  0  0  0  0  0  0
   47.8556   11.5973   19.2265 C   0  0  1  0  0  0  0  0  0  0  0  0
   48.6258   12.8199   18.7398 C   0  0  0  0  0  0  0  0  0  0  0  0
   48.8708   11.9879   22.2426 H   0  0  0  0  0  0  0  0  0  0  0  0
   49.6069   12.1481   19.6206 H   0  0  0  0  0  0  0  0  0  0  0  0
   45.9859   10.2369   19.5508 H   0  0  0  0  0  0  0  0  0  0  0  0
   46.4977    8.0126   20.4434 H   0  0  0  0  0  0  0  0  0  0  0  0
   48.5838   13.9593   21.0232 H   0  0  0  0  0  0  0  0  0  0  0  0
   47.8679   14.5410   19.5730 H   0  0  0  0  0  0  0  0  0  0  0  0
   46.5587   12.5032   19.2842 H   0  0  0  0  0  0  0  0  0  0  0  0
   47.7191    6.8419   21.9001 H   0  0  0  0  0  0  0  0  0  0  0  0
   49.2918    9.1107   24.2726 H   0  0  0  0  0  0  0  0  0  0  0  0
   50.5524    9.0830   23.0008 H   0  0  0  0  0  0  0  0  0  0  0  0
   46.1308   12.8158   21.9657 H   0  0  0  0  0  0  0  0  0  0  0  0
   50.9414   10.6644   24.5267 H   0  0  0  0  0  0  0  0  0  0  0  0
   50.3365   15.2680   17.9775 H   0  0  0  0  0  0  0  0  0  0  0  0
   49.7606   14.8016   16.3726 H   0  0  0  0  0  0  0  0  0  0  0  0
   48.6006   15.2294   17.6264 H   0  0  0  0  0  0  0  0  0  0  0  0
   47.4108   13.0256   17.3074 H   0  0  0  0  0  0  0  0  0  0  0  0
   48.5439   12.4773   16.0779 H   0  0  0  0  0  0  0  0  0  0  0  0
   48.2660   11.4817   17.5108 H   0  0  0  0  0  0  0  0  0  0  0  0
   51.7014   13.0843   17.9259 H   0  0  0  0  0  0  0  0  0  0  0  0
   50.9843   12.6294   16.3741 H   0  0  0  0  0  0  0  0  0  0  0  0
   50.8749   11.5288   17.7513 H   0  0  0  0  0  0  0  0  0  0  0  0
   46.7207    9.7458   21.6719 H   0  0  0  0  0  0  0  0  0  0  0  0
   47.3002   13.5223   18.5628 H   0  0  0  0  0  0  0  0  0  0  0  0
   50.5722   11.5675   20.9748 H   0  0  0  0  0  0  0  0  0  0  0  0
   51.5742   10.0807   22.6263 H   0  0  0  0  0  0  0  0  0  0  0  0
   49.5219   12.9007   19.4936 H   0  0  0  0  0  0  0  0  0  0  0  0
   49.3215   11.4057   18.5450 H   0  0  0  0  0  0  0  0  0  0  0  0
   47.0723   11.0883   19.6929 H   0  0  0  0  0  0  0  0  0  0  0  0
   51.2614    8.3465   23.9901 H   0  0  0  0  0  0  0  0  0  0  0  0
   48.0215    7.3876   24.2968 H   0  0  0  0  0  0  0  0  0  0  0  0
   47.0433    7.2746   22.8337 H   0  0  0  0  0  0  0  0  0  0  0  0
   47.3343   12.5880   21.8064 H   0  0  0  0  0  0  0  0  0  0  0  0
   46.8272    9.3928   24.6979 H   0  0  0  0  0  0  0  0  0  0  0  0
   47.3009   13.4553   15.5171 H   0  0  0  0  0  0  0  0  0  0  0  0
   46.8923   14.8556   16.5151 H   0  0  0  0  0  0  0  0  0  0  0  0
   48.1945   14.9645   15.3289 H   0  0  0  0  0  0  0  0  0  0  0  0
   50.1028   14.8244   18.5383 H   0  0  0  0  0  0  0  0  0  0  0  0
   48.5064   15.5774   18.4444 H   0  0  0  0  0  0  0  0  0  0  0  0
   49.6751   15.8104   17.1430 H   0  0  0  0  0  0  0  0  0  0  0  0
   50.6674   12.7888   17.1151 H   0  0  0  0  0  0  0  0  0  0  0  0
   50.3608   13.7442   15.6683 H   0  0  0  0  0  0  0  0  0  0  0  0
   49.5219   12.2052   15.9008 H   0  0  0  0  0  0  0  0  0  0  0  0
   49.7192   11.5711   23.1108 H   0  0  0  0  0  0  0  0  0  0  0  0
   49.4117   14.4162   19.2464 H   0  0  0  0  0  0  0  0  0  0  0  0
   50.4973   10.0734   20.3659 H   0  0  0  0  0  0  0  0  0  0  0  0
   48.2534   10.7967   17.4987 H   0  0  0  0  0  0  0  0  0  0  0  0
   48.2332    9.7631   20.2946 H   0  0  0  0  0  0  0  0  0  0  0  0
   46.9197   11.9416   19.6802 H   0  0  0  0  0  0  0  0  0  0  0  0
 10  3  1  0
 11  4  1  0
 12  1  1  0
 10 13  1  0
 14 12  1  0
 15  7  1  0
 16  7  1  0
 17  7  1  0
  6  8  1  0
  2  1  2  0
  3  2  1  0
  4  1  1  0
  5  9  1  0
  6  3  2  0
  7  5  1  0
  8  4  2  0
  9 10  1  0
 27 20  1  0
 28 21  1  0
 29 18  1  0
 27 30  1  0
 31 29  1  0
 32 24  1  0
 33 24  1  0
 34 24  1  0
 23 25  1  0
 19 18  2  0
 20 19  1  0
 21 18  1  0
 22 26  1  0
 23 20  2  0
 24 22  1  0
 25 21  2  0
 26 27  1  0
 41 36  2  0
 42 39  1  0
 43 40  1  0
 41 35  1  0
 43 44  1  0
 42 43  1  0
 44 37  1  0
 41 42  1  0
 44 38  2  0
  2 45  1  0
  5 46  1  0
  6 47  1  0
  8 48  1  0
  9 49  1  0
  9 50  1  0
 10 51  1  1
 11 52  1  0
 12 53  1  0
 12 54  1  0
 13 55  1  0
 14 56  1  0
 15 57  1  0
 15 58  1  0
 15 59  1  0
 16 60  1  0
 16 61  1  0
 16 62  1  0
 17 63  1  0
 17 64  1  0
 17 65  1  0
 19 66  1  0
 22 67  1  0
 23 68  1  0
 25 69  1  0
 26 70  1  0
 26 71  1  0
 27 72  1  1
 28 73  1  0
 29 74  1  0
 29 75  1  0
 30 76  1  0
 31 77  1  0
 32 78  1  0
 32 79  1  0
 32 80  1  0
 33 81  1  0
 33 82  1  0
 33 83  1  0
 34 84  1  0
 34 85  1  0
 34 86  1  0
 35 87  1  0
 37 88  1  0
 39 89  1  0
 40 90  1  0
 42 91  1  6
 43 92  1  1
M  END
> <Uni-Dock RESULT> 
ENERGY=   -4.221  LOWER_BOUND=   10.463  UPPER_BOUND=   12.562
INTER + INTRA:          -4.221
INTER:                  -4.221
INTRA:                   0.000
UNBOUND:                 0.000

$$$$

     RDKit          3D

 92 91  0  0  0  0  0  0  0  0999 V2000
   47.6248   10.1241   19.6071 C   0  0  0  0  0  0  0  0  0  0  0  0
   47.8899    8.7664   19.8525 C   0  0  0  0  0  0  0  0  0  0  0  0
   47.9967    8.2651   21.1617 C   0  0  0  0  0  0  0  0  0  0  0  0
   47.4423   10.9738   20.7049 C   0  0  0  0  0  0  0  0  0  0  0  0
   50.6132    6.8159   20.3089 N   0  0  0  0  0  0  0  0  0  0  0  0
   47.7909    9.1455   22.2364 C   0  0  0  0  0  0  0  0  0  0  0  0
   51.7275    6.5430   21.2258 C   0  0  0  0  0  0  0  0  0  0  0  0
   47.5142   10.4940   22.0123 C   0  0  0  0  0  0  0  0  0  0  0  0
   49.3393    6.1183   20.5263 C   0  0  0  0  0  0  0  0  0  0  0  0
   48.2845    6.8011   21.4444 C   0  0  2  0  0  0  0  0  0  0  0  0
   47.1853   12.2971   20.4735 O   0  0  0  0  0  0  0  0  0  0  0  0
   47.5573   10.6862   18.2106 C   0  0  0  0  0  0  0  0  0  0  0  0
   47.0605    6.0612   21.3608 O   0  0  0  0  0  0  0  0  0  0  0  0
   47.6665    9.6725   17.2138 O   0  0  0  0  0  0  0  0  0  0  0  0
   52.1968    5.0814   21.1202 C   0  0  0  0  0  0  0  0  0  0  0  0
   51.4012    6.8849   22.6840 C   0  0  0  0  0  0  0  0  0  0  0  0
   52.8891    7.4503   20.7636 C   0  0  0  0  0  0  0  0  0  0  0  0
   46.9830   10.9494   19.7120 C   0  0  0  0  0  0  0  0  0  0  0  0
   47.3671    9.8823   20.5429 C   0  0  0  0  0  0  0  0  0  0  0  0
   48.4899    9.0847   20.2509 C   0  0  0  0  0  0  0  0  0  0  0  0
   47.7502   11.2162   18.5768 C   0  0  0  0  0  0  0  0  0  0  0  0
   50.5399    6.4637   22.2276 N   0  0  0  0  0  0  0  0  0  0  0  0
   49.2167    9.3657   19.0887 C   0  0  0  0  0  0  0  0  0  0  0  0
   51.7926    5.6963   22.1192 C   0  0  0  0  0  0  0  0  0  0  0  0
   48.8565   10.4337   18.2613 C   0  0  0  0  0  0  0  0  0  0  0  0
   50.3094    7.4792   21.1864 C   0  0  0  0  0  0  0  0  0  0  0  0
   48.8284    7.9357   21.1837 C   0  0  2  0  0  0  0  0  0  0  0  0
   47.4030   12.2576   17.7668 O   0  0  0  0  0  0  0  0  0  0  0  0
   45.7796   11.7763   20.0809 C   0  0  0  0  0  0  0  0  0  0  0  0
   48.0124    6.8022   20.8493 O   0  0  0  0  0  0  0  0  0  0  0  0
   44.6258   10.9478   20.1809 O   0  0  0  0  0  0  0  0  0  0  0  0
   51.9040    4.8816   23.4205 C   0  0  0  0  0  0  0  0  0  0  0  0
   51.7465    4.7181   20.9305 C   0  0  0  0  0  0  0  0  0  0  0  0
   53.0273    6.6012   22.0021 C   0  0  0  0  0  0  0  0  0  0  0  0
   48.6302    9.1614   18.5463 O   0  0  0  0  0  0  0  0  0  0  0  0
   47.3621    7.8398   19.8291 O   0  0  0  0  0  0  0  0  0  0  0  0
   50.0476    6.1733   20.2576 O   0  0  0  0  0  0  0  0  0  0  0  0
   51.5390    6.5614   21.8662 O   0  0  0  0  0  0  0  0  0  0  0  0
   50.5465    9.4815   20.3611 O   0  0  0  0  0  0  0  0  0  0  0  0
   49.9631    8.4525   23.0852 O   0  0  0  0  0  0  0  0  0  0  0  0
   48.3343    8.5712   19.7283 C   0  0  0  0  0  0  0  0  0  0  0  0
   49.2853    9.0056   20.8396 C   0  0  1  0  0  0  0  0  0  0  0  0
   49.4784    7.8827   21.8571 C   0  0  1  0  0  0  0  0  0  0  0  0
   50.4637    6.8345   21.3517 C   0  0  0  0  0  0  0  0  0  0  0  0
   48.0302    8.0957   19.0044 H   0  0  0  0  0  0  0  0  0  0  0  0
   50.4429    7.8192   20.2473 H   0  0  0  0  0  0  0  0  0  0  0  0
   47.8440    8.7798   23.2626 H   0  0  0  0  0  0  0  0  0  0  0  0
   47.3589   11.1489   22.8644 H   0  0  0  0  0  0  0  0  0  0  0  0
   48.8837    5.9873   19.5351 H   0  0  0  0  0  0  0  0  0  0  0  0
   49.4899    5.0883   20.8686 H   0  0  0  0  0  0  0  0  0  0  0  0
   48.6247    6.7034   22.4789 H   0  0  0  0  0  0  0  0  0  0  0  0
   47.0442   12.7382   21.3283 H   0  0  0  0  0  0  0  0  0  0  0  0
   46.6051   11.2021   18.0577 H   0  0  0  0  0  0  0  0  0  0  0  0
   48.3865   11.3875   18.0672 H   0  0  0  0  0  0  0  0  0  0  0  0
   46.4212    6.6054   20.8645 H   0  0  0  0  0  0  0  0  0  0  0  0
   47.6874   10.1317   16.3599 H   0  0  0  0  0  0  0  0  0  0  0  0
   52.3990    4.8008   20.0793 H   0  0  0  0  0  0  0  0  0  0  0  0
   53.1227    4.9279   21.6870 H   0  0  0  0  0  0  0  0  0  0  0  0
   51.4580    4.3791   21.5198 H   0  0  0  0  0  0  0  0  0  0  0  0
   50.6822    6.1795   23.1106 H   0  0  0  0  0  0  0  0  0  0  0  0
   52.3006    6.8408   23.3102 H   0  0  0  0  0  0  0  0  0  0  0  0
   50.9892    7.8969   22.7749 H   0  0  0  0  0  0  0  0  0  0  0  0
   53.1849    7.2285   19.7294 H   0  0  0  0  0  0  0  0  0  0  0  0
   53.7744    7.3166   21.3950 H   0  0  0  0  0  0  0  0  0  0  0  0
   52.6099    8.5083   20.8087 H   0  0  0  0  0  0  0  0  0  0  0  0
   46.7739    9.6727   21.4356 H   0  0  0  0  0  0  0  0  0  0  0  0
   49.7422    5.8177   22.2046 H   0  0  0  0  0  0  0  0  0  0  0  0
   50.0772    8.7663   18.8079 H   0  0  0  0  0  0  0  0  0  0  0  0
   49.4440   10.6296   17.3693 H   0  0  0  0  0  0  0  0  0  0  0  0
   50.5411    7.0590   20.2022 H   0  0  0  0  0  0  0  0  0  0  0  0
   50.9600    8.3429   21.3644 H   0  0  0  0  0  0  0  0  0  0  0  0
   48.5601    8.2376   22.2050 H   0  0  0  0  0  0  0  0  0  0  0  0
   48.0950   12.3814   17.0919 H   0  0  0  0  0  0  0  0  0  0  0  0
   45.5676   12.5591   19.3482 H   0  0  0  0  0  0  0  0  0  0  0  0
   45.9433   12.2648   21.0460 H   0  0  0  0  0  0  0  0  0  0  0  0
   47.3425    7.0970   20.2048 H   0  0  0  0  0  0  0  0  0  0  0  0
   44.6310   10.3844   19.3876 H   0  0  0  0  0  0  0  0  0  0  0  0
   51.9368    5.5344   24.2985 H   0  0  0  0  0  0  0  0  0  0  0  0
   51.0562    4.2003   23.5444 H   0  0  0  0  0  0  0  0  0  0  0  0
   52.8159    4.2739   23.4325 H   0  0  0  0  0  0  0  0  0  0  0  0
   51.7953    5.2359   19.9692 H   0  0  0  0  0  0  0  0  0  0  0  0
   50.8325    4.1145   20.9385 H   0  0  0  0  0  0  0  0  0  0  0  0
   52.5945    4.0231   20.9653 H   0  0  0  0  0  0  0  0  0  0  0  0
   53.0355    7.1712   21.0667 H   0  0  0  0  0  0  0  0  0  0  0  0
   53.9523    6.0112   22.0227 H   0  0  0  0  0  0  0  0  0  0  0  0
   53.0762    7.3186   22.8285 H   0  0  0  0  0  0  0  0  0  0  0  0
   47.9495    8.8013   17.9353 H   0  0  0  0  0  0  0  0  0  0  0  0
   50.7745    5.5436   20.0636 H   0  0  0  0  0  0  0  0  0  0  0  0
   50.3370   10.1186   19.6521 H   0  0  0  0  0  0  0  0  0  0  0  0
   50.9304    8.5527   22.9649 H   0  0  0  0  0  0  0  0  0  0  0  0
   48.8081    9.8635   21.3328 H   0  0  0  0  0  0  0  0  0  0  0  0
   48.5380    7.3770   22.1029 H   0  0  0  0  0  0  0  0  0  0  0  0
 10  3  1  0
 11  4  1  0
 12  1  1  0
 10 13  1  0
 14 12  1  0
 15  7  1  0
 16  7  1  0
 17  7  1  0
  6  8  1  0
  2  1  2  0
  3  2  1  0
  4  1  1  0
  5  9  1  0
  6  3  2  0
  7  5  1  0
  8  4  2  0
  9 10  1  0
 27 20  1  0
 28 21  1  0
 29 18  1  0
 27 30  1  0
 31 29  1  0
 32 24  1  0
 33 24  1  0
 34 24  1  0
 23 25  1  0
 19 18  2  0
 20 19  1  0
 21 18  1  0
 22 26  1  0
 23 20  2  0
 24 22  1  0
 25 21  2  0
 26 27  1  0
 41 36  2  0
 42 39  1  0
 43 40  1  0
 41 35  1  0
 43 44  1  0
 42 43  1  0
 44 37  1  0
 41 42  1  0
 44 38  2  0
  2 45  1  0
  5 46  1  0
  6 47  1  0
  8 48  1  0
  9 49  1  0
  9 50  1  0
 10 51  1  1
 11 52  1  0
 12 53  1  0
 12 54  1  0
 13 55  1  0
 14 56  1  0
 15 57  1  0
 15 58  1  0
 15 59  1  0
 16 60  1  0
 16 61  1  0
 16 62  1  0
 17 63  1  0
 17 64  1  0
 17 65  1  0
 19 66  1  0
 22 67  1  0
 23 68  1  0
 25 69  1  0
 26 70  1  0
 26 71  1  0
 27 72  1  1
 28 73  1  0
 29 74  1  0
 29 75  1  0
 30 76  1  0
 31 77  1  0
 32 78  1  0
 32 79  1  0
 32 80  1  0
 33 81  1  0
 33 82  1  0
 33 83  1  0
 34 84  1  0
 34 85  1  0
 34 86  1  0
 35 87  1  0
 37 88  1  0
 39 89  1  0
 40 90  1  0
 42 91  1  6
 43 92  1  1
M  END
> <Uni-Dock RESULT> 
ENERGY=   -4.219  LOWER_BOUND=   11.714  UPPER_BOUND=   13.689
INTER + INTRA:          -4.219
INTER:                  -4.219
INTRA:                   0.000
UNBOUND:                 0.000

$$$$

     RDKit          3D

 92 91  0  0  0  0  0  0  0  0999 V2000
   48.9088    8.5888   13.4339 C   0  0  0  0  0  0  0  0  0  0  0  0
   48.6638    9.4047   14.5512 C   0  0  0  0  0  0  0  0  0  0  0  0
   49.6686    9.6740   15.4970 C   0  0  0  0  0  0  0  0  0  0  0  0
   50.1955    8.0630   13.2654 C   0  0  0  0  0  0  0  0  0  0  0  0
   47.6280    8.9913   17.7427 N   0  0  0  0  0  0  0  0  0  0  0  0
   50.9508    9.1418   15.2841 C   0  0  0  0  0  0  0  0  0  0  0  0
   48.0086    8.4197   19.0409 C   0  0  0  0  0  0  0  0  0  0  0  0
   51.2162    8.3402   14.1741 C   0  0  0  0  0  0  0  0  0  0  0  0
   48.0523   10.3616   17.4283 C   0  0  0  0  0  0  0  0  0  0  0  0
   49.4200   10.5520   16.7108 C   0  0  2  0  0  0  0  0  0  0  0  0
   50.4408    7.2668   12.1807 O   0  0  0  0  0  0  0  0  0  0  0  0
   47.8292    8.2500   12.4388 C   0  0  0  0  0  0  0  0  0  0  0  0
   49.5448   11.9262   16.3251 O   0  0  0  0  0  0  0  0  0  0  0  0
   46.6122    8.9441   12.7039 O   0  0  0  0  0  0  0  0  0  0  0  0
   47.3505    9.1814   20.2046 C   0  0  0  0  0  0  0  0  0  0  0  0
   49.5262    8.3575   19.2465 C   0  0  0  0  0  0  0  0  0  0  0  0
   47.4592    6.9759   19.0462 C   0  0  0  0  0  0  0  0  0  0  0  0
   49.4462    8.4125   12.5485 C   0  0  0  0  0  0  0  0  0  0  0  0
   49.7703    8.9214   13.8184 C   0  0  0  0  0  0  0  0  0  0  0  0
   48.9124    8.7563   14.9224 C   0  0  0  0  0  0  0  0  0  0  0  0
   48.2428    7.7214   12.3977 C   0  0  0  0  0  0  0  0  0  0  0  0
   49.2834    9.2596   18.7418 N   0  0  0  0  0  0  0  0  0  0  0  0
   47.7020    8.0826   14.7245 C   0  0  0  0  0  0  0  0  0  0  0  0
   48.5562    8.9805   19.9922 C   0  0  0  0  0  0  0  0  0  0  0  0
   47.3734    7.5568   13.4713 C   0  0  0  0  0  0  0  0  0  0  0  0
   48.7044    8.6893   17.5138 C   0  0  0  0  0  0  0  0  0  0  0  0
   49.3206    9.3541   16.2568 C   0  0  2  0  0  0  0  0  0  0  0  0
   47.9182    7.2061   11.1769 O   0  0  0  0  0  0  0  0  0  0  0  0
   50.4084    8.6088   11.4067 C   0  0  0  0  0  0  0  0  0  0  0  0
   48.9744   10.7477   16.2736 O   0  0  0  0  0  0  0  0  0  0  0  0
   50.6507    9.9970   11.2013 O   0  0  0  0  0  0  0  0  0  0  0  0
   49.4652    9.4778   21.1306 C   0  0  0  0  0  0  0  0  0  0  0  0
   47.2277    9.7575   20.0501 C   0  0  0  0  0  0  0  0  0  0  0  0
   48.2930    7.4818   20.1964 C   0  0  0  0  0  0  0  0  0  0  0  0
   47.3509    8.6410   14.2297 O   0  0  0  0  0  0  0  0  0  0  0  0
   48.5597   10.4445   14.7647 O   0  0  0  0  0  0  0  0  0  0  0  0
   47.5905    9.8480   17.7442 O   0  0  0  0  0  0  0  0  0  0  0  0
   48.6533    8.5200   19.1826 O   0  0  0  0  0  0  0  0  0  0  0  0
   48.4397    7.0715   16.0789 O   0  0  0  0  0  0  0  0  0  0  0  0
   50.8018    8.1662   17.5080 O   0  0  0  0  0  0  0  0  0  0  0  0
   48.3500    9.2508   14.9102 C   0  0  0  0  0  0  0  0  0  0  0  0
   49.1570    8.2644   15.7492 C   0  0  1  0  0  0  0  0  0  0  0  0
   49.6970    8.9396   17.0086 C   0  0  1  0  0  0  0  0  0  0  0  0
   48.6226    9.0565   18.0841 C   0  0  0  0  0  0  0  0  0  0  0  0
   47.6660    9.8219   14.6898 H   0  0  0  0  0  0  0  0  0  0  0  0
   47.9085    8.3685   16.9857 H   0  0  0  0  0  0  0  0  0  0  0  0
   51.7561    9.3536   15.9885 H   0  0  0  0  0  0  0  0  0  0  0  0
   52.2182    7.9446   14.0372 H   0  0  0  0  0  0  0  0  0  0  0  0
   47.2738   10.7871   16.7803 H   0  0  0  0  0  0  0  0  0  0  0  0
   48.0240   11.0113   18.3103 H   0  0  0  0  0  0  0  0  0  0  0  0
   50.2123   10.3722   17.4426 H   0  0  0  0  0  0  0  0  0  0  0  0
   51.3810    7.0191   12.1860 H   0  0  0  0  0  0  0  0  0  0  0  0
   48.1511    8.5168   11.4282 H   0  0  0  0  0  0  0  0  0  0  0  0
   47.6201    7.1760   12.4903 H   0  0  0  0  0  0  0  0  0  0  0  0
   49.4612   11.9680   15.3543 H   0  0  0  0  0  0  0  0  0  0  0  0
   45.9636    8.6098   12.0652 H   0  0  0  0  0  0  0  0  0  0  0  0
   46.2670    9.2736   20.0601 H   0  0  0  0  0  0  0  0  0  0  0  0
   47.5112    8.6567   21.1538 H   0  0  0  0  0  0  0  0  0  0  0  0
   47.7601   10.1897   20.3242 H   0  0  0  0  0  0  0  0  0  0  0  0
   49.9528    9.3541   19.3926 H   0  0  0  0  0  0  0  0  0  0  0  0
   49.7799    7.7688   20.1366 H   0  0  0  0  0  0  0  0  0  0  0  0
   50.0268    7.8884   18.3912 H   0  0  0  0  0  0  0  0  0  0  0  0
   46.3672    6.9613   18.9299 H   0  0  0  0  0  0  0  0  0  0  0  0
   47.6972    6.4627   19.9844 H   0  0  0  0  0  0  0  0  0  0  0  0
   47.8872    6.3843   18.2300 H   0  0  0  0  0  0  0  0  0  0  0  0
   50.7134    9.4578   13.9435 H   0  0  0  0  0  0  0  0  0  0  0  0
   49.3475   10.2751   18.6051 H   0  0  0  0  0  0  0  0  0  0  0  0
   46.9964    7.9485   15.5385 H   0  0  0  0  0  0  0  0  0  0  0  0
   46.4290    7.0343   13.3512 H   0  0  0  0  0  0  0  0  0  0  0  0
   47.6234    8.8632   17.4993 H   0  0  0  0  0  0  0  0  0  0  0  0
   48.8896    7.6095   17.4868 H   0  0  0  0  0  0  0  0  0  0  0  0
   50.4143    9.2914   16.3362 H   0  0  0  0  0  0  0  0  0  0  0  0
   47.1147    6.6615   11.2640 H   0  0  0  0  0  0  0  0  0  0  0  0
   50.0365    8.1910   10.4678 H   0  0  0  0  0  0  0  0  0  0  0  0
   51.3600    8.1179   11.6311 H   0  0  0  0  0  0  0  0  0  0  0  0
   48.6979   10.9971   15.3721 H   0  0  0  0  0  0  0  0  0  0  0  0
   49.7771   10.4254   11.2086 H   0  0  0  0  0  0  0  0  0  0  0  0
   50.4274    8.9561   21.1299 H   0  0  0  0  0  0  0  0  0  0  0  0
   49.6684   10.5501   21.0461 H   0  0  0  0  0  0  0  0  0  0  0  0
   49.0040    9.3089   22.1103 H   0  0  0  0  0  0  0  0  0  0  0  0
   46.4894    9.3634   19.3471 H   0  0  0  0  0  0  0  0  0  0  0  0
   47.3701   10.8198   19.8241 H   0  0  0  0  0  0  0  0  0  0  0  0
   46.7840    9.6955   21.0514 H   0  0  0  0  0  0  0  0  0  0  0  0
   47.6061    7.0762   19.4456 H   0  0  0  0  0  0  0  0  0  0  0  0
   47.8402    7.2908   21.1774 H   0  0  0  0  0  0  0  0  0  0  0  0
   49.2215    6.9028   20.1440 H   0  0  0  0  0  0  0  0  0  0  0  0
   46.9259    9.3794   13.7392 H   0  0  0  0  0  0  0  0  0  0  0  0
   46.9989    9.8247   18.5266 H   0  0  0  0  0  0  0  0  0  0  0  0
   48.0477    6.7588   15.2415 H   0  0  0  0  0  0  0  0  0  0  0  0
   50.4003    7.4411   18.0306 H   0  0  0  0  0  0  0  0  0  0  0  0
   49.9988    7.9445   15.1200 H   0  0  0  0  0  0  0  0  0  0  0  0
   50.0899    9.9425   16.8078 H   0  0  0  0  0  0  0  0  0  0  0  0
 10  3  1  0
 11  4  1  0
 12  1  1  0
 10 13  1  0
 14 12  1  0
 15  7  1  0
 16  7  1  0
 17  7  1  0
  6  8  1  0
  2  1  2  0
  3  2  1  0
  4  1  1  0
  5  9  1  0
  6  3  2  0
  7  5  1  0
  8  4  2  0
  9 10  1  0
 27 20  1  0
 28 21  1  0
 29 18  1  0
 27 30  1  0
 31 29  1  0
 32 24  1  0
 33 24  1  0
 34 24  1  0
 23 25  1  0
 19 18  2  0
 20 19  1  0
 21 18  1  0
 22 26  1  0
 23 20  2  0
 24 22  1  0
 25 21  2  0
 26 27  1  0
 41 36  2  0
 42 39  1  0
 43 40  1  0
 41 35  1  0
 43 44  1  0
 42 43  1  0
 44 37  1  0
 41 42  1  0
 44 38  2  0
  2 45  1  0
  5 46  1  0
  6 47  1  0
  8 48  1  0
  9 49  1  0
  9 50  1  0
 10 51  1  1
 11 52  1  0
 12 53  1  0
 12 54  1  0
 13 55  1  0
 14 56  1  0
 15 57  1  0
 15 58  1  0
 15 59  1  0
 16 60  1  0
 16 61  1  0
 16 62  1  0
 17 63  1  0
 17 64  1  0
 17 65  1  0
 19 66  1  0
 22 67  1  0
 23 68  1  0
 25 69  1  0
 26 70  1  0
 26 71  1  0
 27 72  1  1
 28 73  1  0
 29 74  1  0
 29 75  1  0
 30 76  1  0
 31 77  1  0
 32 78  1  0
 32 79  1  0
 32 80  1  0
 33 81  1  0
 33 82  1  0
 33 83  1  0
 34 84  1  0
 34 85  1  0
 34 86  1  0
 35 87  1  0
 37 88  1  0
 39 89  1  0
 40 90  1  0
 42 91  1  6
 43 92  1  1
M  END
> <Uni-Dock RESULT> 
ENERGY=   -4.175  LOWER_BOUND=    8.142  UPPER_BOUND=   10.964
INTER + INTRA:          -4.175
INTER:                  -4.175
INTRA:                   0.000
UNBOUND:                 0.000

$$$$

     RDKit          3D

 92 91  0  0  0  0  0  0  0  0999 V2000
   48.6427   12.4984   17.3793 C   0  0  0  0  0  0  0  0  0  0  0  0
   47.8177   11.6666   18.1547 C   0  0  0  0  0  0  0  0  0  0  0  0
   47.4149   12.0352   19.4503 C   0  0  0  0  0  0  0  0  0  0  0  0
   49.0405   13.7278   17.9188 C   0  0  0  0  0  0  0  0  0  0  0  0
   48.2232    9.1944   20.4247 N   0  0  0  0  0  0  0  0  0  0  0  0
   47.8209   13.2834   19.9497 C   0  0  0  0  0  0  0  0  0  0  0  0
   48.7076    8.9072   21.7811 C   0  0  0  0  0  0  0  0  0  0  0  0
   48.6296   14.1283   19.1897 C   0  0  0  0  0  0  0  0  0  0  0  0
   46.8286    9.6216   20.2540 C   0  0  0  0  0  0  0  0  0  0  0  0
   46.5250   11.1472   20.3021 C   0  0  2  0  0  0  0  0  0  0  0  0
   49.8449   14.5421   17.1701 O   0  0  0  0  0  0  0  0  0  0  0  0
   49.1240   12.0952   16.0095 C   0  0  0  0  0  0  0  0  0  0  0  0
   45.1595   11.3524   19.9200 O   0  0  0  0  0  0  0  0  0  0  0  0
   48.5485   10.8653   15.5745 O   0  0  0  0  0  0  0  0  0  0  0  0
   47.9767    7.7002   22.3948 C   0  0  0  0  0  0  0  0  0  0  0  0
   48.6079   10.1139   22.7210 C   0  0  0  0  0  0  0  0  0  0  0  0
   50.1987    8.5334   21.6288 C   0  0  0  0  0  0  0  0  0  0  0  0
   48.7942   13.4200   16.8980 C   0  0  0  0  0  0  0  0  0  0  0  0
   48.2111   13.0225   18.1140 C   0  0  0  0  0  0  0  0  0  0  0  0
   48.4242   11.7389   18.6516 C   0  0  0  0  0  0  0  0  0  0  0  0
   49.6089   12.5092   16.2234 C   0  0  0  0  0  0  0  0  0  0  0  0
   47.7533   10.0960   22.0911 N   0  0  0  0  0  0  0  0  0  0  0  0
   49.2240   10.8446   17.9316 C   0  0  0  0  0  0  0  0  0  0  0  0
   48.0612    8.8592   22.8296 C   0  0  0  0  0  0  0  0  0  0  0  0
   49.8237   11.2310   16.7291 C   0  0  0  0  0  0  0  0  0  0  0  0
   48.4218   10.2574   20.7890 C   0  0  0  0  0  0  0  0  0  0  0  0
   47.7419   11.3750   19.9581 C   0  0  2  0  0  0  0  0  0  0  0  0
   50.1967   12.8819   15.0500 O   0  0  0  0  0  0  0  0  0  0  0  0
   48.5408   14.8102   16.3772 C   0  0  0  0  0  0  0  0  0  0  0  0
   46.3910   10.9704   19.6866 O   0  0  0  0  0  0  0  0  0  0  0  0
   47.1432   15.0246   16.2080 O   0  0  0  0  0  0  0  0  0  0  0  0
   47.4348    9.0321   24.2250 C   0  0  0  0  0  0  0  0  0  0  0  0
   47.4219    7.6320   22.1534 C   0  0  0  0  0  0  0  0  0  0  0  0
   49.5709    8.6352   22.9961 C   0  0  0  0  0  0  0  0  0  0  0  0
   48.7217   10.7527   17.2841 O   0  0  0  0  0  0  0  0  0  0  0  0
   46.7871   11.3961   18.2025 O   0  0  0  0  0  0  0  0  0  0  0  0
   47.3751    9.1010   20.3378 O   0  0  0  0  0  0  0  0  0  0  0  0
   48.5374    9.3835   22.2171 O   0  0  0  0  0  0  0  0  0  0  0  0
   50.1070   10.8674   19.5504 O   0  0  0  0  0  0  0  0  0  0  0  0
   48.7288   12.1021   21.8732 O   0  0  0  0  0  0  0  0  0  0  0  0
   47.9902   11.2263   18.3203 C   0  0  0  0  0  0  0  0  0  0  0  0
   48.8596   11.5669   19.5270 C   0  0  1  0  0  0  0  0  0  0  0  0
   48.0896   11.3489   20.8282 C   0  0  1  0  0  0  0  0  0  0  0  0
   48.0453    9.8735   21.2104 C   0  0  0  0  0  0  0  0  0  0  0  0
   47.4996   10.7087   17.7424 H   0  0  0  0  0  0  0  0  0  0  0  0
   48.8401    9.8614   19.9622 H   0  0  0  0  0  0  0  0  0  0  0  0
   47.5040   13.6063   20.9422 H   0  0  0  0  0  0  0  0  0  0  0  0
   48.9256   15.0874   19.6038 H   0  0  0  0  0  0  0  0  0  0  0  0
   46.5072    9.2486   19.2718 H   0  0  0  0  0  0  0  0  0  0  0  0
   46.1548    9.1066   20.9479 H   0  0  0  0  0  0  0  0  0  0  0  0
   46.5978   11.4725   21.3434 H   0  0  0  0  0  0  0  0  0  0  0  0
   49.9953   15.3660   17.6640 H   0  0  0  0  0  0  0  0  0  0  0  0
   48.8612   12.8633   15.2766 H   0  0  0  0  0  0  0  0  0  0  0  0
   50.2113   11.9650   16.0368 H   0  0  0  0  0  0  0  0  0  0  0  0
   45.1603   11.7672   19.0373 H   0  0  0  0  0  0  0  0  0  0  0  0
   48.9691   10.6529   14.7269 H   0  0  0  0  0  0  0  0  0  0  0  0
   48.0003    6.8343   21.7219 H   0  0  0  0  0  0  0  0  0  0  0  0
   48.4491    7.3967   23.3366 H   0  0  0  0  0  0  0  0  0  0  0  0
   46.9285    7.9214   22.6205 H   0  0  0  0  0  0  0  0  0  0  0  0
   47.5686   10.3372   22.9790 H   0  0  0  0  0  0  0  0  0  0  0  0
   49.1364    9.9247   23.6633 H   0  0  0  0  0  0  0  0  0  0  0  0
   49.0530   11.0092   22.2710 H   0  0  0  0  0  0  0  0  0  0  0  0
   50.3283    7.6534   20.9847 H   0  0  0  0  0  0  0  0  0  0  0  0
   50.6521    8.3011   22.5987 H   0  0  0  0  0  0  0  0  0  0  0  0
   50.7717    9.3551   21.1863 H   0  0  0  0  0  0  0  0  0  0  0  0
   47.5776   13.7332   18.6490 H   0  0  0  0  0  0  0  0  0  0  0  0
   46.7419   10.1487   21.9226 H   0  0  0  0  0  0  0  0  0  0  0  0
   49.4008    9.8361   18.2926 H   0  0  0  0  0  0  0  0  0  0  0  0
   50.4434   10.5157   16.1966 H   0  0  0  0  0  0  0  0  0  0  0  0
   48.3594    9.3222   20.2229 H   0  0  0  0  0  0  0  0  0  0  0  0
   49.4775   10.5064   20.9458 H   0  0  0  0  0  0  0  0  0  0  0  0
   47.6902   12.2805   20.5775 H   0  0  0  0  0  0  0  0  0  0  0  0
   50.8169   12.1849   14.7684 H   0  0  0  0  0  0  0  0  0  0  0  0
   49.0267   14.9932   15.4154 H   0  0  0  0  0  0  0  0  0  0  0  0
   48.9243   15.5505   17.0856 H   0  0  0  0  0  0  0  0  0  0  0  0
   46.2026   11.1696   18.7506 H   0  0  0  0  0  0  0  0  0  0  0  0
   46.8059   14.2389   15.7436 H   0  0  0  0  0  0  0  0  0  0  0  0
   47.8556    9.8972   24.7470 H   0  0  0  0  0  0  0  0  0  0  0  0
   46.3510    9.1741   24.1664 H   0  0  0  0  0  0  0  0  0  0  0  0
   47.6156    8.1529   24.8538 H   0  0  0  0  0  0  0  0  0  0  0  0
   47.9133    7.3790   21.2105 H   0  0  0  0  0  0  0  0  0  0  0  0
   46.3591    7.7937   21.9432 H   0  0  0  0  0  0  0  0  0  0  0  0
   47.4938    6.7494   22.8009 H   0  0  0  0  0  0  0  0  0  0  0  0
   50.0702    8.4513   22.0386 H   0  0  0  0  0  0  0  0  0  0  0  0
   49.7728    7.7641   23.6321 H   0  0  0  0  0  0  0  0  0  0  0  0
   50.0540    9.5013   23.4614 H   0  0  0  0  0  0  0  0  0  0  0  0
   48.0479   10.5823   16.5889 H   0  0  0  0  0  0  0  0  0  0  0  0
   47.4313    8.1988   20.7194 H   0  0  0  0  0  0  0  0  0  0  0  0
   50.4870   10.9745   18.6577 H   0  0  0  0  0  0  0  0  0  0  0  0
   49.4723   11.5440   22.1826 H   0  0  0  0  0  0  0  0  0  0  0  0
   49.1138   12.6313   19.4303 H   0  0  0  0  0  0  0  0  0  0  0  0
   47.0595   11.7176   20.7696 H   0  0  0  0  0  0  0  0  0  0  0  0
 10  3  1  0
 11  4  1  0
 12  1  1  0
 10 13  1  0
 14 12  1  0
 15  7  1  0
 16  7  1  0
 17  7  1  0
  6  8  1  0
  2  1  2  0
  3  2  1  0
  4  1  1  0
  5  9  1  0
  6  3  2  0
  7  5  1  0
  8  4  2  0
  9 10  1  0
 27 20  1  0
 28 21  1  0
 29 18  1  0
 27 30  1  0
 31 29  1  0
 32 24  1  0
 33 24  1  0
 34 24  1  0
 23 25  1  0
 19 18  2  0
 20 19  1  0
 21 18  1  0
 22 26  1  0
 23 20  2  0
 24 22  1  0
 25 21  2  0
 26 27  1  0
 41 36  2  0
 42 39  1  0
 43 40  1  0
 41 35  1  0
 43 44  1  0
 42 43  1  0
 44 37  1  0
 41 42  1  0
 44 38  2  0
  2 45  1  0
  5 46  1  0
  6 47  1  0
  8 48  1  0
  9 49  1  0
  9 50  1  0
 10 51  1  1
 11 52  1  0
 12 53  1  0
 12 54  1  0
 13 55  1  0
 14 56  1  0
 15 57  1  0
 15 58  1  0
 15 59  1  0
 16 60  1  0
 16 61  1  0
 16 62  1  0
 17 63  1  0
 17 64  1  0
 17 65  1  0
 19 66  1  0
 22 67  1  0
 23 68  1  0
 25 69  1  0
 26 70  1  0
 26 71  1  0
 27 72  1  1
 28 73  1  0
 29 74  1  0
 29 75  1  0
 30 76  1  0
 31 77  1  0
 32 78  1  0
 32 79  1  0
 32 80  1  0
 33 81  1  0
 33 82  1  0
 33 83  1  0
 34 84  1  0
 34 85  1  0
 34 86  1  0
 35 87  1  0
 37 88  1  0
 39 89  1  0
 40 90  1  0
 42 91  1  6
 43 92  1  1
M  END
> <Uni-Dock RESULT> 
ENERGY=   -4.138  LOWER_BOUND=    9.773  UPPER_BOUND=   12.413
INTER + INTRA:          -4.138
INTER:                  -4.138
INTRA:                   0.000
UNBOUND:                 0.000

$$$$
