
     RDKit          3D

 92 91  0  0  0  0  0  0  0  0999 V2000
   49.9180    9.1234   13.3436 C   0  0  0  0  0  0  0  0  0  0  0  0
   49.2996    7.8829   13.1212 C   0  0  0  0  0  0  0  0  0  0  0  0
   47.9394    7.7811   12.7635 C   0  0  0  0  0  0  0  0  0  0  0  0
   49.1531   10.2813   13.1698 C   0  0  0  0  0  0  0  0  0  0  0  0
   45.3628    4.9305   12.2355 N   0  0  0  0  0  0  0  0  0  0  0  0
   47.2078    8.9681   12.6070 C   0  0  0  0  0  0  0  0  0  0  0  0
   43.9152    4.7381   12.0073 C   0  0  0  0  0  0  0  0  0  0  0  0
   47.8138   10.2107   12.8046 C   0  0  0  0  0  0  0  0  0  0  0  0
   45.8084    6.3386   12.3002 C   0  0  0  0  0  0  0  0  0  0  0  0
   47.3426    6.4039   12.5360 C   0  0  2  0  0  0  0  0  0  0  0  0
   49.6761   11.5271   13.3682 O   0  0  0  0  0  0  0  0  0  0  0  0
   51.3788    9.1716   13.6917 C   0  0  0  0  0  0  0  0  0  0  0  0
   47.6569    5.5740   13.6630 O   0  0  0  0  0  0  0  0  0  0  0  0
   51.5988   10.2114   14.6458 O   0  0  0  0  0  0  0  0  0  0  0  0
   43.0475    5.4641   13.0465 C   0  0  0  0  0  0  0  0  0  0  0  0
   43.6598    3.2238   12.1348 C   0  0  0  0  0  0  0  0  0  0  0  0
   43.5052    5.1773   10.5901 C   0  0  0  0  0  0  0  0  0  0  0  0
   49.0254    9.2984   14.2286 C   0  0  0  0  0  0  0  0  0  0  0  0
   48.5455    8.0511   13.7931 C   0  0  0  0  0  0  0  0  0  0  0  0
   47.6489    7.9524   12.7148 C   0  0  0  0  0  0  0  0  0  0  0  0
   48.5806   10.4464   13.5651 C   0  0  0  0  0  0  0  0  0  0  0  0
   44.7433    5.6716   12.4450 N   0  0  0  0  0  0  0  0  0  0  0  0
   47.2157    9.1274   12.0825 C   0  0  0  0  0  0  0  0  0  0  0  0
   44.7013    4.4124   11.6772 C   0  0  0  0  0  0  0  0  0  0  0  0
   47.6828   10.3712   12.5024 C   0  0  0  0  0  0  0  0  0  0  0  0
   45.9845    6.0694   13.1332 C   0  0  0  0  0  0  0  0  0  0  0  0
   47.1289    6.6102   12.2362 C   0  0  2  0  0  0  0  0  0  0  0  0
   49.0659   11.6616   13.9628 O   0  0  0  0  0  0  0  0  0  0  0  0
   49.9678    9.3766   15.4069 C   0  0  0  0  0  0  0  0  0  0  0  0
   48.2242    5.6895   12.2061 O   0  0  0  0  0  0  0  0  0  0  0  0
   51.1335   10.1447   15.1233 O   0  0  0  0  0  0  0  0  0  0  0  0
   45.4227    4.5350   10.3245 C   0  0  0  0  0  0  0  0  0  0  0  0
   45.2363    3.2014   12.4546 C   0  0  0  0  0  0  0  0  0  0  0  0
   43.2058    4.1586   11.3733 C   0  0  0  0  0  0  0  0  0  0  0  0
   45.6284    5.0136   11.0979 O   0  0  0  0  0  0  0  0  0  0  0  0
   44.5346    5.0920   13.0449 O   0  0  0  0  0  0  0  0  0  0  0  0
   48.3098    8.9401   13.5377 O   0  0  0  0  0  0  0  0  0  0  0  0
   46.1280    9.0241   14.0472 O   0  0  0  0  0  0  0  0  0  0  0  0
   46.7184    6.0628   14.3860 O   0  0  0  0  0  0  0  0  0  0  0  0
   48.0046    7.4816   11.4095 O   0  0  0  0  0  0  0  0  0  0  0  0
   45.5411    5.3497   12.3982 C   0  0  0  0  0  0  0  0  0  0  0  0
   46.7784    6.0425   12.9497 C   0  0  1  0  0  0  0  0  0  0  0  0
   46.8951    7.4398   12.3274 C   0  0  1  0  0  0  0  0  0  0  0  0
   47.0273    8.5314   13.3838 C   0  0  0  0  0  0  0  0  0  0  0  0
   49.8797    6.9652   13.2326 H   0  0  0  0  0  0  0  0  0  0  0  0
   45.8713    4.4560   11.4884 H   0  0  0  0  0  0  0  0  0  0  0  0
   46.1564    8.9591   12.3262 H   0  0  0  0  0  0  0  0  0  0  0  0
   47.2395   11.1239   12.6829 H   0  0  0  0  0  0  0  0  0  0  0  0
   45.3166    6.8319   13.1458 H   0  0  0  0  0  0  0  0  0  0  0  0
   45.5589    6.8761   11.3809 H   0  0  0  0  0  0  0  0  0  0  0  0
   47.8400    5.9660   11.6614 H   0  0  0  0  0  0  0  0  0  0  0  0
   50.5450   11.4107   13.8083 H   0  0  0  0  0  0  0  0  0  0  0  0
   51.9653    9.3985   12.7943 H   0  0  0  0  0  0  0  0  0  0  0  0
   51.7315    8.2235   14.1207 H   0  0  0  0  0  0  0  0  0  0  0  0
   46.9532    4.8948   13.6734 H   0  0  0  0  0  0  0  0  0  0  0  0
   51.3101    9.8322   15.5014 H   0  0  0  0  0  0  0  0  0  0  0  0
   41.9913    5.1920   12.9275 H   0  0  0  0  0  0  0  0  0  0  0  0
   43.3444    5.2003   14.0704 H   0  0  0  0  0  0  0  0  0  0  0  0
   43.1096    6.5531   12.9427 H   0  0  0  0  0  0  0  0  0  0  0  0
   42.6021    2.9890   11.9517 H   0  0  0  0  0  0  0  0  0  0  0  0
   44.2609    2.6492   11.4172 H   0  0  0  0  0  0  0  0  0  0  0  0
   43.9104    2.8632   13.1409 H   0  0  0  0  0  0  0  0  0  0  0  0
   43.5993    6.2602   10.4579 H   0  0  0  0  0  0  0  0  0  0  0  0
   42.4577    4.9209   10.3895 H   0  0  0  0  0  0  0  0  0  0  0  0
   44.1201    4.6860    9.8290 H   0  0  0  0  0  0  0  0  0  0  0  0
   48.8870    7.1401   14.2820 H   0  0  0  0  0  0  0  0  0  0  0  0
   44.0056    5.6453   13.1524 H   0  0  0  0  0  0  0  0  0  0  0  0
   46.5179    9.0758   11.2459 H   0  0  0  0  0  0  0  0  0  0  0  0
   47.3465   11.2627   11.9821 H   0  0  0  0  0  0  0  0  0  0  0  0
   46.3377    5.2636   13.7818 H   0  0  0  0  0  0  0  0  0  0  0  0
   45.6752    6.8711   13.8137 H   0  0  0  0  0  0  0  0  0  0  0  0
   46.7891    6.7270   11.2016 H   0  0  0  0  0  0  0  0  0  0  0  0
   48.6234   12.3548   13.4410 H   0  0  0  0  0  0  0  0  0  0  0  0
   49.4525    9.8358   16.2554 H   0  0  0  0  0  0  0  0  0  0  0  0
   50.2961    8.3809   15.7238 H   0  0  0  0  0  0  0  0  0  0  0  0
   47.8531    4.8011   12.0641 H   0  0  0  0  0  0  0  0  0  0  0  0
   50.8498   10.8163   14.4788 H   0  0  0  0  0  0  0  0  0  0  0  0
   46.5084    4.5740   10.4327 H   0  0  0  0  0  0  0  0  0  0  0  0
   45.2069    3.6699    9.6868 H   0  0  0  0  0  0  0  0  0  0  0  0
   45.0982    5.4284    9.7790 H   0  0  0  0  0  0  0  0  0  0  0  0
   46.3106    3.2777   12.6492 H   0  0  0  0  0  0  0  0  0  0  0  0
   44.7265    3.0883   13.4138 H   0  0  0  0  0  0  0  0  0  0  0  0
   45.0781    2.2793   11.8859 H   0  0  0  0  0  0  0  0  0  0  0  0
   43.0714    3.2800   10.7304 H   0  0  0  0  0  0  0  0  0  0  0  0
   42.6349    3.9879   12.2925 H   0  0  0  0  0  0  0  0  0  0  0  0
   42.7557    5.0120   10.8551 H   0  0  0  0  0  0  0  0  0  0  0  0
   44.7795    4.5709   10.8826 H   0  0  0  0  0  0  0  0  0  0  0  0
   48.2601    9.6091   14.2562 H   0  0  0  0  0  0  0  0  0  0  0  0
   45.7708    5.9904   14.6356 H   0  0  0  0  0  0  0  0  0  0  0  0
   48.7749    7.7743   11.9378 H   0  0  0  0  0  0  0  0  0  0  0  0
   47.6450    5.4225   12.6957 H   0  0  0  0  0  0  0  0  0  0  0  0
   46.0129    7.6959   11.7274 H   0  0  0  0  0  0  0  0  0  0  0  0
 10  3  1  0
 11  4  1  0
 12  1  1  0
 10 13  1  0
 14 12  1  0
 15  7  1  0
 16  7  1  0
 17  7  1  0
  6  8  1  0
  2  1  2  0
  3  2  1  0
  4  1  1  0
  5  9  1  0
  6  3  2  0
  7  5  1  0
  8  4  2  0
  9 10  1  0
 27 20  1  0
 28 21  1  0
 29 18  1  0
 27 30  1  0
 31 29  1  0
 32 24  1  0
 33 24  1  0
 34 24  1  0
 23 25  1  0
 19 18  2  0
 20 19  1  0
 21 18  1  0
 22 26  1  0
 23 20  2  0
 24 22  1  0
 25 21  2  0
 26 27  1  0
 41 36  2  0
 42 39  1  0
 43 40  1  0
 41 35  1  0
 43 44  1  0
 42 43  1  0
 44 37  1  0
 41 42  1  0
 44 38  2  0
  2 45  1  0
  5 46  1  0
  6 47  1  0
  8 48  1  0
  9 49  1  0
  9 50  1  0
 10 51  1  6
 11 52  1  0
 12 53  1  0
 12 54  1  0
 13 55  1  0
 14 56  1  0
 15 57  1  0
 15 58  1  0
 15 59  1  0
 16 60  1  0
 16 61  1  0
 16 62  1  0
 17 63  1  0
 17 64  1  0
 17 65  1  0
 19 66  1  0
 22 67  1  0
 23 68  1  0
 25 69  1  0
 26 70  1  0
 26 71  1  0
 27 72  1  6
 28 73  1  0
 29 74  1  0
 29 75  1  0
 30 76  1  0
 31 77  1  0
 32 78  1  0
 32 79  1  0
 32 80  1  0
 33 81  1  0
 33 82  1  0
 33 83  1  0
 34 84  1  0
 34 85  1  0
 34 86  1  0
 35 87  1  0
 37 88  1  0
 39 89  1  0
 40 90  1  0
 42 91  1  6
 43 92  1  1
M  END
> <Uni-Dock RESULT> 
ENERGY=   -5.678  LOWER_BOUND=    0.000  UPPER_BOUND=    0.000
INTER + INTRA:          -5.678
INTER:                  -5.678
INTRA:                   0.000
UNBOUND:                 0.000

$$$$

     RDKit          3D

 92 91  0  0  0  0  0  0  0  0999 V2000
   47.5905   12.6262   18.4476 C   0  0  0  0  0  0  0  0  0  0  0  0
   47.7306   11.2512   18.2013 C   0  0  0  0  0  0  0  0  0  0  0  0
   47.8418   10.3134   19.2485 C   0  0  0  0  0  0  0  0  0  0  0  0
   47.5302   13.0542   19.7777 C   0  0  0  0  0  0  0  0  0  0  0  0
   48.5175    6.5080   19.5731 N   0  0  0  0  0  0  0  0  0  0  0  0
   47.7836   10.7877   20.5677 C   0  0  0  0  0  0  0  0  0  0  0  0
   48.7894    5.4886   20.6083 C   0  0  0  0  0  0  0  0  0  0  0  0
   47.6238   12.1502   20.8294 C   0  0  0  0  0  0  0  0  0  0  0  0
   48.2638    7.8719   20.0836 C   0  0  0  0  0  0  0  0  0  0  0  0
   47.9870    8.8424   18.9026 C   0  0  2  0  0  0  0  0  0  0  0  0
   47.3973   14.3734   20.1049 O   0  0  0  0  0  0  0  0  0  0  0  0
   47.4447   13.5751   17.2920 C   0  0  0  0  0  0  0  0  0  0  0  0
   49.0469    8.6966   17.9469 O   0  0  0  0  0  0  0  0  0  0  0  0
   48.1438   14.7847   17.5883 O   0  0  0  0  0  0  0  0  0  0  0  0
   49.9545    5.8748   21.5320 C   0  0  0  0  0  0  0  0  0  0  0  0
   49.1757    4.2031   19.8514 C   0  0  0  0  0  0  0  0  0  0  0  0
   47.5351    5.1924   21.4501 C   0  0  0  0  0  0  0  0  0  0  0  0
   48.6860   12.5241   19.0800 C   0  0  0  0  0  0  0  0  0  0  0  0
   48.5825   11.1589   18.7619 C   0  0  0  0  0  0  0  0  0  0  0  0
   47.8679   10.2717   19.5857 C   0  0  0  0  0  0  0  0  0  0  0  0
   48.0645   12.9801   20.2471 C   0  0  0  0  0  0  0  0  0  0  0  0
   48.8219    6.8029   20.4659 N   0  0  0  0  0  0  0  0  0  0  0  0
   47.2688   10.7642   20.7546 C   0  0  0  0  0  0  0  0  0  0  0  0
   48.2676    5.5750   19.8643 C   0  0  0  0  0  0  0  0  0  0  0  0
   47.3621   12.1150   21.0834 C   0  0  0  0  0  0  0  0  0  0  0  0
   49.0232    8.0014   19.6320 C   0  0  0  0  0  0  0  0  0  0  0  0
   47.7484    8.7978   19.2478 C   0  0  2  0  0  0  0  0  0  0  0  0
   48.1346   14.3122   20.5483 O   0  0  0  0  0  0  0  0  0  0  0  0
   49.4823   13.4498   18.1903 C   0  0  0  0  0  0  0  0  0  0  0  0
   47.4825    8.6787   17.8466 O   0  0  0  0  0  0  0  0  0  0  0  0
   48.7494   14.6132   17.8181 O   0  0  0  0  0  0  0  0  0  0  0  0
   46.7510    5.6784   19.6310 C   0  0  0  0  0  0  0  0  0  0  0  0
   48.9750    5.1530   18.5688 C   0  0  0  0  0  0  0  0  0  0  0  0
   48.4911    4.4592   20.9125 C   0  0  0  0  0  0  0  0  0  0  0  0
   47.3535    6.3901   19.6265 O   0  0  0  0  0  0  0  0  0  0  0  0
   49.5231    6.4092   20.1615 O   0  0  0  0  0  0  0  0  0  0  0  0
   48.3093   11.6472   19.5351 O   0  0  0  0  0  0  0  0  0  0  0  0
   49.4752   10.6501   21.1701 O   0  0  0  0  0  0  0  0  0  0  0  0
   49.9666    8.7669   18.8368 O   0  0  0  0  0  0  0  0  0  0  0  0
   46.5852    9.7233   19.2602 O   0  0  0  0  0  0  0  0  0  0  0  0
   48.5621    6.9809   19.6640 C   0  0  0  0  0  0  0  0  0  0  0  0
   48.6002    8.3676   19.0389 C   0  0  1  0  0  0  0  0  0  0  0  0
   47.8075    9.3414   19.9202 C   0  0  1  0  0  0  0  0  0  0  0  0
   48.6246   10.5725   20.2972 C   0  0  0  0  0  0  0  0  0  0  0  0
   47.7620   10.8898   17.1719 H   0  0  0  0  0  0  0  0  0  0  0  0
   47.7109    6.2033   19.0267 H   0  0  0  0  0  0  0  0  0  0  0  0
   47.8569   10.1159   21.4208 H   0  0  0  0  0  0  0  0  0  0  0  0
   47.5815   12.5083   21.8534 H   0  0  0  0  0  0  0  0  0  0  0  0
   49.1553    8.2291   20.6109 H   0  0  0  0  0  0  0  0  0  0  0  0
   47.4142    7.8860   20.7723 H   0  0  0  0  0  0  0  0  0  0  0  0
   47.0597    8.5232   18.4103 H   0  0  0  0  0  0  0  0  0  0  0  0
   47.5472   14.8924   19.2862 H   0  0  0  0  0  0  0  0  0  0  0  0
   46.3862   13.8171   17.1437 H   0  0  0  0  0  0  0  0  0  0  0  0
   47.8508   13.1560   16.3610 H   0  0  0  0  0  0  0  0  0  0  0  0
   49.3646    7.7796   18.0686 H   0  0  0  0  0  0  0  0  0  0  0  0
   49.0864   14.5772   17.4219 H   0  0  0  0  0  0  0  0  0  0  0  0
   50.2136    5.0421   22.1977 H   0  0  0  0  0  0  0  0  0  0  0  0
   50.8539    6.1308   20.9560 H   0  0  0  0  0  0  0  0  0  0  0  0
   49.7040    6.7283   22.1718 H   0  0  0  0  0  0  0  0  0  0  0  0
   49.3704    3.3801   20.5530 H   0  0  0  0  0  0  0  0  0  0  0  0
   48.3795    3.8804   19.1672 H   0  0  0  0  0  0  0  0  0  0  0  0
   50.0850    4.3528   19.2549 H   0  0  0  0  0  0  0  0  0  0  0  0
   47.2485    6.0507   22.0668 H   0  0  0  0  0  0  0  0  0  0  0  0
   47.7128    4.3531   22.1337 H   0  0  0  0  0  0  0  0  0  0  0  0
   46.6834    4.9297   20.8143 H   0  0  0  0  0  0  0  0  0  0  0  0
   49.0440   10.7799   17.8514 H   0  0  0  0  0  0  0  0  0  0  0  0
   49.7256    6.5783   20.8880 H   0  0  0  0  0  0  0  0  0  0  0  0
   46.7121   10.0941   21.4108 H   0  0  0  0  0  0  0  0  0  0  0  0
   46.8718   12.4727   21.9836 H   0  0  0  0  0  0  0  0  0  0  0  0
   49.6181    7.7572   18.7480 H   0  0  0  0  0  0  0  0  0  0  0  0
   49.6635    8.6523   20.2383 H   0  0  0  0  0  0  0  0  0  0  0  0
   46.8706    8.4002   19.7683 H   0  0  0  0  0  0  0  0  0  0  0  0
   47.7010   14.4559   21.4086 H   0  0  0  0  0  0  0  0  0  0  0  0
   50.3883   13.7681   18.7142 H   0  0  0  0  0  0  0  0  0  0  0  0
   49.7968   12.9474   17.2693 H   0  0  0  0  0  0  0  0  0  0  0  0
   47.5761    7.7390   17.6119 H   0  0  0  0  0  0  0  0  0  0  0  0
   48.1524   14.7924   18.5654 H   0  0  0  0  0  0  0  0  0  0  0  0
   46.5009    6.3426   18.8014 H   0  0  0  0  0  0  0  0  0  0  0  0
   46.3265    4.6991   19.3813 H   0  0  0  0  0  0  0  0  0  0  0  0
   46.2330    6.0368   20.5279 H   0  0  0  0  0  0  0  0  0  0  0  0
   48.8051    5.8650   17.7550 H   0  0  0  0  0  0  0  0  0  0  0  0
   50.0531    5.0602   18.7168 H   0  0  0  0  0  0  0  0  0  0  0  0
   48.6039    4.1813   18.2272 H   0  0  0  0  0  0  0  0  0  0  0  0
   48.0373    3.5131   20.5928 H   0  0  0  0  0  0  0  0  0  0  0  0
   49.5582    4.2760   21.0793 H   0  0  0  0  0  0  0  0  0  0  0  0
   48.0438    4.7246   21.8762 H   0  0  0  0  0  0  0  0  0  0  0  0
   47.4767    5.5114   20.0459 H   0  0  0  0  0  0  0  0  0  0  0  0
   48.9186   12.3498   19.8537 H   0  0  0  0  0  0  0  0  0  0  0  0
   50.5128    8.2570   19.4749 H   0  0  0  0  0  0  0  0  0  0  0  0
   46.7997   10.5322   18.7524 H   0  0  0  0  0  0  0  0  0  0  0  0
   48.1603    8.2913   18.0387 H   0  0  0  0  0  0  0  0  0  0  0  0
   47.4945    8.8776   20.8639 H   0  0  0  0  0  0  0  0  0  0  0  0
 10  3  1  0
 11  4  1  0
 12  1  1  0
 10 13  1  0
 14 12  1  0
 15  7  1  0
 16  7  1  0
 17  7  1  0
  6  8  1  0
  2  1  2  0
  3  2  1  0
  4  1  1  0
  5  9  1  0
  6  3  2  0
  7  5  1  0
  8  4  2  0
  9 10  1  0
 27 20  1  0
 28 21  1  0
 29 18  1  0
 27 30  1  0
 31 29  1  0
 32 24  1  0
 33 24  1  0
 34 24  1  0
 23 25  1  0
 19 18  2  0
 20 19  1  0
 21 18  1  0
 22 26  1  0
 23 20  2  0
 24 22  1  0
 25 21  2  0
 26 27  1  0
 41 36  2  0
 42 39  1  0
 43 40  1  0
 41 35  1  0
 43 44  1  0
 42 43  1  0
 44 37  1  0
 41 42  1  0
 44 38  2  0
  2 45  1  0
  5 46  1  0
  6 47  1  0
  8 48  1  0
  9 49  1  0
  9 50  1  0
 10 51  1  6
 11 52  1  0
 12 53  1  0
 12 54  1  0
 13 55  1  0
 14 56  1  0
 15 57  1  0
 15 58  1  0
 15 59  1  0
 16 60  1  0
 16 61  1  0
 16 62  1  0
 17 63  1  0
 17 64  1  0
 17 65  1  0
 19 66  1  0
 22 67  1  0
 23 68  1  0
 25 69  1  0
 26 70  1  0
 26 71  1  0
 27 72  1  6
 28 73  1  0
 29 74  1  0
 29 75  1  0
 30 76  1  0
 31 77  1  0
 32 78  1  0
 32 79  1  0
 32 80  1  0
 33 81  1  0
 33 82  1  0
 33 83  1  0
 34 84  1  0
 34 85  1  0
 34 86  1  0
 35 87  1  0
 37 88  1  0
 39 89  1  0
 40 90  1  0
 42 91  1  6
 43 92  1  1
M  END
> <Uni-Dock RESULT> 
ENERGY=   -5.621  LOWER_BOUND=    6.483  UPPER_BOUND=    7.883
INTER + INTRA:          -5.621
INTER:                  -5.621
INTRA:                   0.000
UNBOUND:                 0.000

$$$$

     RDKit          3D

 92 91  0  0  0  0  0  0  0  0999 V2000
   44.8884    5.2745   11.6709 C   0  0  0  0  0  0  0  0  0  0  0  0
   45.7626    6.3551   11.8671 C   0  0  0  0  0  0  0  0  0  0  0  0
   46.8541    6.2796   12.7568 C   0  0  0  0  0  0  0  0  0  0  0  0
   45.1432    4.0869   12.3643 C   0  0  0  0  0  0  0  0  0  0  0  0
   49.5465    8.7060   14.1376 N   0  0  0  0  0  0  0  0  0  0  0  0
   47.0681    5.0713   13.4371 C   0  0  0  0  0  0  0  0  0  0  0  0
   50.6147    8.7528   15.1582 C   0  0  0  0  0  0  0  0  0  0  0  0
   46.2195    3.9803   13.2374 C   0  0  0  0  0  0  0  0  0  0  0  0
   48.8466    7.4094   14.0176 C   0  0  0  0  0  0  0  0  0  0  0  0
   47.7577    7.4894   12.9125 C   0  0  2  0  0  0  0  0  0  0  0  0
   44.3411    2.9894   12.2330 O   0  0  0  0  0  0  0  0  0  0  0  0
   43.7609    5.4025   10.6862 C   0  0  0  0  0  0  0  0  0  0  0  0
   46.9436    8.6421   13.1704 O   0  0  0  0  0  0  0  0  0  0  0  0
   42.6137    4.7221   11.1968 O   0  0  0  0  0  0  0  0  0  0  0  0
   50.1208    8.3480   16.5553 C   0  0  0  0  0  0  0  0  0  0  0  0
   51.0866   10.2186   15.2162 C   0  0  0  0  0  0  0  0  0  0  0  0
   51.8152    7.8766   14.7574 C   0  0  0  0  0  0  0  0  0  0  0  0
   44.6802    5.3437   12.9209 C   0  0  0  0  0  0  0  0  0  0  0  0
   45.6391    6.3708   12.8834 C   0  0  0  0  0  0  0  0  0  0  0  0
   47.0123    6.0888   12.9906 C   0  0  0  0  0  0  0  0  0  0  0  0
   45.1268    4.0275   13.0767 C   0  0  0  0  0  0  0  0  0  0  0  0
   49.5394    8.0399   14.8678 N   0  0  0  0  0  0  0  0  0  0  0  0
   47.4207    4.7572   13.1585 C   0  0  0  0  0  0  0  0  0  0  0  0
   50.5019    8.9945   14.2852 C   0  0  0  0  0  0  0  0  0  0  0  0
   46.4822    3.7280   13.1971 C   0  0  0  0  0  0  0  0  0  0  0  0
   48.1817    7.9319   14.3044 C   0  0  0  0  0  0  0  0  0  0  0  0
   48.0537    7.1908   12.9475 C   0  0  2  0  0  0  0  0  0  0  0  0
   44.2027    3.0194   13.0838 O   0  0  0  0  0  0  0  0  0  0  0  0
   43.2098    5.6783   12.8298 C   0  0  0  0  0  0  0  0  0  0  0  0
   47.6974    8.1046   11.9053 O   0  0  0  0  0  0  0  0  0  0  0  0
   42.5367    4.9130   11.8345 O   0  0  0  0  0  0  0  0  0  0  0  0
   51.0845    8.4896   12.9545 C   0  0  0  0  0  0  0  0  0  0  0  0
   49.9333   10.4099   14.1111 C   0  0  0  0  0  0  0  0  0  0  0  0
   51.6730    9.0739   15.2931 C   0  0  0  0  0  0  0  0  0  0  0  0
   50.2400    8.2851   13.2930 O   0  0  0  0  0  0  0  0  0  0  0  0
   49.3626    8.7674   15.2908 O   0  0  0  0  0  0  0  0  0  0  0  0
   45.7241    5.4368   13.0612 O   0  0  0  0  0  0  0  0  0  0  0  0
   46.5768    5.4178   15.1347 O   0  0  0  0  0  0  0  0  0  0  0  0
   46.7988    8.3608   14.4124 O   0  0  0  0  0  0  0  0  0  0  0  0
   47.9359    6.1455   11.8971 O   0  0  0  0  0  0  0  0  0  0  0  0
   49.2019    8.3667   14.1456 C   0  0  0  0  0  0  0  0  0  0  0  0
   47.8690    7.9360   13.5514 C   0  0  1  0  0  0  0  0  0  0  0  0
   47.8888    6.4211   13.3103 C   0  0  1  0  0  0  0  0  0  0  0  0
   46.6997    5.7194   13.9576 C   0  0  0  0  0  0  0  0  0  0  0  0
   45.5960    7.2870   11.3239 H   0  0  0  0  0  0  0  0  0  0  0  0
   49.9553    8.9468   13.2339 H   0  0  0  0  0  0  0  0  0  0  0  0
   47.8957    4.9453   14.1325 H   0  0  0  0  0  0  0  0  0  0  0  0
   46.3918    3.0498   13.7693 H   0  0  0  0  0  0  0  0  0  0  0  0
   48.3475    7.1821   14.9661 H   0  0  0  0  0  0  0  0  0  0  0  0
   49.5455    6.6019   13.7813 H   0  0  0  0  0  0  0  0  0  0  0  0
   48.2603    7.6554   11.9513 H   0  0  0  0  0  0  0  0  0  0  0  0
   43.5325    3.2757   11.7573 H   0  0  0  0  0  0  0  0  0  0  0  0
   44.0443    4.9341    9.7368 H   0  0  0  0  0  0  0  0  0  0  0  0
   43.4916    6.4518   10.5024 H   0  0  0  0  0  0  0  0  0  0  0  0
   47.5330    9.2585   13.6493 H   0  0  0  0  0  0  0  0  0  0  0  0
   42.2317    5.3353   11.8581 H   0  0  0  0  0  0  0  0  0  0  0  0
   50.9005    8.5220   17.3074 H   0  0  0  0  0  0  0  0  0  0  0  0
   49.2382    8.9303   16.8521 H   0  0  0  0  0  0  0  0  0  0  0  0
   49.8613    7.2846   16.6056 H   0  0  0  0  0  0  0  0  0  0  0  0
   51.9059   10.3370   15.9388 H   0  0  0  0  0  0  0  0  0  0  0  0
   51.4470   10.5677   14.2391 H   0  0  0  0  0  0  0  0  0  0  0  0
   50.2715   10.8851   15.5264 H   0  0  0  0  0  0  0  0  0  0  0  0
   51.5605    6.8116   14.7647 H   0  0  0  0  0  0  0  0  0  0  0  0
   52.6479    8.0106   15.4587 H   0  0  0  0  0  0  0  0  0  0  0  0
   52.1776    8.1337   13.7568 H   0  0  0  0  0  0  0  0  0  0  0  0
   45.3202    7.4030   12.7479 H   0  0  0  0  0  0  0  0  0  0  0  0
   49.4334    8.2519   15.8623 H   0  0  0  0  0  0  0  0  0  0  0  0
   48.4803    4.5147   13.2471 H   0  0  0  0  0  0  0  0  0  0  0  0
   46.8275    2.7047   13.3078 H   0  0  0  0  0  0  0  0  0  0  0  0
   47.7045    8.9146   14.2647 H   0  0  0  0  0  0  0  0  0  0  0  0
   47.6173    7.3687   15.0565 H   0  0  0  0  0  0  0  0  0  0  0  0
   49.0104    6.7428   12.6581 H   0  0  0  0  0  0  0  0  0  0  0  0
   44.6660    2.1791   13.2510 H   0  0  0  0  0  0  0  0  0  0  0  0
   42.7316    5.4832   13.7940 H   0  0  0  0  0  0  0  0  0  0  0  0
   43.0538    6.7368   12.5958 H   0  0  0  0  0  0  0  0  0  0  0  0
   48.2686    8.8871   11.9971 H   0  0  0  0  0  0  0  0  0  0  0  0
   43.0078    4.0623   11.8003 H   0  0  0  0  0  0  0  0  0  0  0  0
   50.3608    8.5349   12.1383 H   0  0  0  0  0  0  0  0  0  0  0  0
   51.9385    9.1027   12.6443 H   0  0  0  0  0  0  0  0  0  0  0  0
   51.4417    7.4572   13.0417 H   0  0  0  0  0  0  0  0  0  0  0  0
   49.1397   10.4462   13.3583 H   0  0  0  0  0  0  0  0  0  0  0  0
   49.5264   10.7929   15.0495 H   0  0  0  0  0  0  0  0  0  0  0  0
   50.7169   11.1013   13.7845 H   0  0  0  0  0  0  0  0  0  0  0  0
   52.4874    9.7019   14.9117 H   0  0  0  0  0  0  0  0  0  0  0  0
   51.3481    9.4963   16.2502 H   0  0  0  0  0  0  0  0  0  0  0  0
   52.0933    8.0823   15.4919 H   0  0  0  0  0  0  0  0  0  0  0  0
   51.0206    8.6003   13.7973 H   0  0  0  0  0  0  0  0  0  0  0  0
   45.0168    5.0230   13.6042 H   0  0  0  0  0  0  0  0  0  0  0  0
   47.1778    8.4648   15.3130 H   0  0  0  0  0  0  0  0  0  0  0  0
   47.0031    6.0666   11.6112 H   0  0  0  0  0  0  0  0  0  0  0  0
   47.7330    8.4843   12.6131 H   0  0  0  0  0  0  0  0  0  0  0  0
   48.7887    5.9518   13.7272 H   0  0  0  0  0  0  0  0  0  0  0  0
 10  3  1  0
 11  4  1  0
 12  1  1  0
 10 13  1  0
 14 12  1  0
 15  7  1  0
 16  7  1  0
 17  7  1  0
  6  8  1  0
  2  1  2  0
  3  2  1  0
  4  1  1  0
  5  9  1  0
  6  3  2  0
  7  5  1  0
  8  4  2  0
  9 10  1  0
 27 20  1  0
 28 21  1  0
 29 18  1  0
 27 30  1  0
 31 29  1  0
 32 24  1  0
 33 24  1  0
 34 24  1  0
 23 25  1  0
 19 18  2  0
 20 19  1  0
 21 18  1  0
 22 26  1  0
 23 20  2  0
 24 22  1  0
 25 21  2  0
 26 27  1  0
 41 36  2  0
 42 39  1  0
 43 40  1  0
 41 35  1  0
 43 44  1  0
 42 43  1  0
 44 37  1  0
 41 42  1  0
 44 38  2  0
  2 45  1  0
  5 46  1  0
  6 47  1  0
  8 48  1  0
  9 49  1  0
  9 50  1  0
 10 51  1  6
 11 52  1  0
 12 53  1  0
 12 54  1  0
 13 55  1  0
 14 56  1  0
 15 57  1  0
 15 58  1  0
 15 59  1  0
 16 60  1  0
 16 61  1  0
 16 62  1  0
 17 63  1  0
 17 64  1  0
 17 65  1  0
 19 66  1  0
 22 67  1  0
 23 68  1  0
 25 69  1  0
 26 70  1  0
 26 71  1  0
 27 72  1  6
 28 73  1  0
 29 74  1  0
 29 75  1  0
 30 76  1  0
 31 77  1  0
 32 78  1  0
 32 79  1  0
 32 80  1  0
 33 81  1  0
 33 82  1  0
 33 83  1  0
 34 84  1  0
 34 85  1  0
 34 86  1  0
 35 87  1  0
 37 88  1  0
 39 89  1  0
 40 90  1  0
 42 91  1  6
 43 92  1  1
M  END
> <Uni-Dock RESULT> 
ENERGY=   -5.496  LOWER_BOUND=    1.909  UPPER_BOUND=    6.498
INTER + INTRA:          -5.496
INTER:                  -5.496
INTRA:                   0.000
UNBOUND:                 0.000

$$$$

     RDKit          3D

 92 91  0  0  0  0  0  0  0  0999 V2000
   44.4048    4.9341   12.7855 C   0  0  0  0  0  0  0  0  0  0  0  0
   45.5988    5.3694   13.3817 C   0  0  0  0  0  0  0  0  0  0  0  0
   46.3212    6.4738   12.8848 C   0  0  0  0  0  0  0  0  0  0  0  0
   43.9183    5.6494   11.6866 C   0  0  0  0  0  0  0  0  0  0  0  0
   49.7160    8.1955   13.6292 N   0  0  0  0  0  0  0  0  0  0  0  0
   45.8003    7.1579   11.7760 C   0  0  0  0  0  0  0  0  0  0  0  0
   50.6012    9.2433   13.0783 C   0  0  0  0  0  0  0  0  0  0  0  0
   44.6029    6.7498   11.1842 C   0  0  0  0  0  0  0  0  0  0  0  0
   48.4399    8.0058   12.9074 C   0  0  0  0  0  0  0  0  0  0  0  0
   47.6026    6.8869   13.5861 C   0  0  2  0  0  0  0  0  0  0  0  0
   42.7660    5.2918   11.0467 O   0  0  0  0  0  0  0  0  0  0  0  0
   43.6617    3.7705   13.3782 C   0  0  0  0  0  0  0  0  0  0  0  0
   48.4392    5.7311   13.7350 O   0  0  0  0  0  0  0  0  0  0  0  0
   43.1022    2.9862   12.3239 O   0  0  0  0  0  0  0  0  0  0  0  0
   50.9233    9.0288   11.5917 C   0  0  0  0  0  0  0  0  0  0  0  0
   51.9160    9.1556   13.8772 C   0  0  0  0  0  0  0  0  0  0  0  0
   50.0065   10.6481   13.2837 C   0  0  0  0  0  0  0  0  0  0  0  0
   45.0956    4.8033   11.7290 C   0  0  0  0  0  0  0  0  0  0  0  0
   46.1405    5.3204   12.5142 C   0  0  0  0  0  0  0  0  0  0  0  0
   46.3419    6.7064   12.6366 C   0  0  0  0  0  0  0  0  0  0  0  0
   44.2611    5.7057   11.0616 C   0  0  0  0  0  0  0  0  0  0  0  0
   49.5921    8.4813   12.6912 N   0  0  0  0  0  0  0  0  0  0  0  0
   45.4918    7.5796   11.9418 C   0  0  0  0  0  0  0  0  0  0  0  0
   50.2792    8.9896   13.8939 C   0  0  0  0  0  0  0  0  0  0  0  0
   44.4513    7.0824   11.1597 C   0  0  0  0  0  0  0  0  0  0  0  0
   48.8346    7.2187   12.7583 C   0  0  0  0  0  0  0  0  0  0  0  0
   47.4648    7.2727   13.4846 C   0  0  2  0  0  0  0  0  0  0  0  0
   43.2236    5.2120   10.3199 O   0  0  0  0  0  0  0  0  0  0  0  0
   44.9189    3.3089   11.5945 C   0  0  0  0  0  0  0  0  0  0  0  0
   47.5152    6.5375   14.7115 O   0  0  0  0  0  0  0  0  0  0  0  0
   43.5853    2.8903   11.8695 O   0  0  0  0  0  0  0  0  0  0  0  0
   49.2991    9.6204   14.8973 C   0  0  0  0  0  0  0  0  0  0  0  0
   51.1495    7.9367   14.5945 C   0  0  0  0  0  0  0  0  0  0  0  0
   51.2104   10.1203   13.3960 C   0  0  0  0  0  0  0  0  0  0  0  0
   49.1006    8.9332   14.2991 O   0  0  0  0  0  0  0  0  0  0  0  0
   50.3535    8.0834   12.6554 O   0  0  0  0  0  0  0  0  0  0  0  0
   45.5240    5.7498   11.9256 O   0  0  0  0  0  0  0  0  0  0  0  0
   46.8824    6.6950   10.4129 O   0  0  0  0  0  0  0  0  0  0  0  0
   48.8657    5.7855   12.5276 O   0  0  0  0  0  0  0  0  0  0  0  0
   46.0271    7.4676   13.8085 O   0  0  0  0  0  0  0  0  0  0  0  0
   49.3610    7.9986   13.3664 C   0  0  0  0  0  0  0  0  0  0  0  0
   48.3382    6.8737   13.3054 C   0  0  1  0  0  0  0  0  0  0  0  0
   47.0140    7.4234   12.7599 C   0  0  1  0  0  0  0  0  0  0  0  0
   46.5021    6.6174   11.5709 C   0  0  0  0  0  0  0  0  0  0  0  0
   45.9899    4.8392   14.2519 H   0  0  0  0  0  0  0  0  0  0  0  0
   49.5148    8.4249   14.6032 H   0  0  0  0  0  0  0  0  0  0  0  0
   46.3053    8.0216   11.3478 H   0  0  0  0  0  0  0  0  0  0  0  0
   44.2082    7.2841   10.3255 H   0  0  0  0  0  0  0  0  0  0  0  0
   48.6525    7.6907   11.8798 H   0  0  0  0  0  0  0  0  0  0  0  0
   47.8572    8.9310   12.8820 H   0  0  0  0  0  0  0  0  0  0  0  0
   47.3354    7.2266   14.5947 H   0  0  0  0  0  0  0  0  0  0  0  0
   42.5142    4.4030   11.3768 H   0  0  0  0  0  0  0  0  0  0  0  0
   42.8420    4.1367   14.0066 H   0  0  0  0  0  0  0  0  0  0  0  0
   44.3171    3.1276   13.9819 H   0  0  0  0  0  0  0  0  0  0  0  0
   49.3473    6.0896   13.7937 H   0  0  0  0  0  0  0  0  0  0  0  0
   43.8508    2.4556   11.9811 H   0  0  0  0  0  0  0  0  0  0  0  0
   51.6837    9.7434   11.2530 H   0  0  0  0  0  0  0  0  0  0  0  0
   51.3128    8.0185   11.4083 H   0  0  0  0  0  0  0  0  0  0  0  0
   50.0425    9.1759   10.9567 H   0  0  0  0  0  0  0  0  0  0  0  0
   52.6269    9.9250   13.5455 H   0  0  0  0  0  0  0  0  0  0  0  0
   51.7469    9.2956   14.9534 H   0  0  0  0  0  0  0  0  0  0  0  0
   52.3974    8.1784   13.7416 H   0  0  0  0  0  0  0  0  0  0  0  0
   49.1020   10.7973   12.6848 H   0  0  0  0  0  0  0  0  0  0  0  0
   50.7214   11.4230   12.9809 H   0  0  0  0  0  0  0  0  0  0  0  0
   49.7523   10.8217   14.3344 H   0  0  0  0  0  0  0  0  0  0  0  0
   46.7959    4.6408   13.0567 H   0  0  0  0  0  0  0  0  0  0  0  0
   50.2814    8.3759   11.9436 H   0  0  0  0  0  0  0  0  0  0  0  0
   45.6307    8.6587   12.0189 H   0  0  0  0  0  0  0  0  0  0  0  0
   43.7962    7.7815   10.6491 H   0  0  0  0  0  0  0  0  0  0  0  0
   49.4618    6.4167   13.1562 H   0  0  0  0  0  0  0  0  0  0  0  0
   48.6560    6.9507   11.7106 H   0  0  0  0  0  0  0  0  0  0  0  0
   47.2050    8.3037   13.7475 H   0  0  0  0  0  0  0  0  0  0  0  0
   42.7757    5.9585    9.8831 H   0  0  0  0  0  0  0  0  0  0  0  0
   45.1712    3.0028   10.5752 H   0  0  0  0  0  0  0  0  0  0  0  0
   45.5838    2.7644   12.2735 H   0  0  0  0  0  0  0  0  0  0  0  0
   48.3355    6.7918   15.1691 H   0  0  0  0  0  0  0  0  0  0  0  0
   43.0197    3.6337   11.5967 H   0  0  0  0  0  0  0  0  0  0  0  0
   48.6912    8.8740   15.4122 H   0  0  0  0  0  0  0  0  0  0  0  0
   49.8385   10.1706   15.6770 H   0  0  0  0  0  0  0  0  0  0  0  0
   48.6271   10.3322   14.4046 H   0  0  0  0  0  0  0  0  0  0  0  0
   50.5509    7.1329   15.0346 H   0  0  0  0  0  0  0  0  0  0  0  0
   51.8630    7.4857   13.9013 H   0  0  0  0  0  0  0  0  0  0  0  0
   51.7229    8.3919   15.4085 H   0  0  0  0  0  0  0  0  0  0  0  0
   51.7116   10.6233   14.2320 H   0  0  0  0  0  0  0  0  0  0  0  0
   51.9871    9.7326   12.7278 H   0  0  0  0  0  0  0  0  0  0  0  0
   50.6491   10.8838   12.8470 H   0  0  0  0  0  0  0  0  0  0  0  0
   49.8358    9.5801   14.2362 H   0  0  0  0  0  0  0  0  0  0  0  0
   45.3098    5.2802   11.0889 H   0  0  0  0  0  0  0  0  0  0  0  0
   49.5466    6.1635   11.9285 H   0  0  0  0  0  0  0  0  0  0  0  0
   45.5588    6.6090   13.7683 H   0  0  0  0  0  0  0  0  0  0  0  0
   48.2160    6.4829   14.3213 H   0  0  0  0  0  0  0  0  0  0  0  0
   47.1130    8.4590   12.4114 H   0  0  0  0  0  0  0  0  0  0  0  0
 10  3  1  0
 11  4  1  0
 12  1  1  0
 10 13  1  0
 14 12  1  0
 15  7  1  0
 16  7  1  0
 17  7  1  0
  6  8  1  0
  2  1  2  0
  3  2  1  0
  4  1  1  0
  5  9  1  0
  6  3  2  0
  7  5  1  0
  8  4  2  0
  9 10  1  0
 27 20  1  0
 28 21  1  0
 29 18  1  0
 27 30  1  0
 31 29  1  0
 32 24  1  0
 33 24  1  0
 34 24  1  0
 23 25  1  0
 19 18  2  0
 20 19  1  0
 21 18  1  0
 22 26  1  0
 23 20  2  0
 24 22  1  0
 25 21  2  0
 26 27  1  0
 41 36  2  0
 42 39  1  0
 43 40  1  0
 41 35  1  0
 43 44  1  0
 42 43  1  0
 44 37  1  0
 41 42  1  0
 44 38  2  0
  2 45  1  0
  5 46  1  0
  6 47  1  0
  8 48  1  0
  9 49  1  0
  9 50  1  0
 10 51  1  6
 11 52  1  0
 12 53  1  0
 12 54  1  0
 13 55  1  0
 14 56  1  0
 15 57  1  0
 15 58  1  0
 15 59  1  0
 16 60  1  0
 16 61  1  0
 16 62  1  0
 17 63  1  0
 17 64  1  0
 17 65  1  0
 19 66  1  0
 22 67  1  0
 23 68  1  0
 25 69  1  0
 26 70  1  0
 26 71  1  0
 27 72  1  6
 28 73  1  0
 29 74  1  0
 29 75  1  0
 30 76  1  0
 31 77  1  0
 32 78  1  0
 32 79  1  0
 32 80  1  0
 33 81  1  0
 33 82  1  0
 33 83  1  0
 34 84  1  0
 34 85  1  0
 34 86  1  0
 35 87  1  0
 37 88  1  0
 39 89  1  0
 40 90  1  0
 42 91  1  6
 43 92  1  1
M  END
> <Uni-Dock RESULT> 
ENERGY=   -5.441  LOWER_BOUND=    1.823  UPPER_BOUND=    6.336
INTER + INTRA:          -5.441
INTER:                  -5.441
INTRA:                   0.000
UNBOUND:                 0.000

$$$$

     RDKit          3D

 92 91  0  0  0  0  0  0  0  0999 V2000
   44.9854   18.0308   14.0070 C   0  0  0  0  0  0  0  0  0  0  0  0
   43.6216   17.7225   14.1323 C   0  0  0  0  0  0  0  0  0  0  0  0
   43.1709   16.4015   14.3328 C   0  0  0  0  0  0  0  0  0  0  0  0
   45.9096   16.9870   14.1184 C   0  0  0  0  0  0  0  0  0  0  0  0
   39.7518   14.5789   14.5077 N   0  0  0  0  0  0  0  0  0  0  0  0
   44.1323   15.3843   14.4313 C   0  0  0  0  0  0  0  0  0  0  0  0
   39.1981   13.2097   14.5678 C   0  0  0  0  0  0  0  0  0  0  0  0
   45.4940   15.6775   14.3293 C   0  0  0  0  0  0  0  0  0  0  0  0
   41.2276   14.6626   14.5233 C   0  0  0  0  0  0  0  0  0  0  0  0
   41.6799   16.1476   14.4627 C   0  0  2  0  0  0  0  0  0  0  0  0
   47.2539   17.1997   14.0064 O   0  0  0  0  0  0  0  0  0  0  0  0
   45.4084   19.4611   13.8263 C   0  0  0  0  0  0  0  0  0  0  0  0
   41.0084   16.7743   13.3607 O   0  0  0  0  0  0  0  0  0  0  0  0
   46.5153   19.5117   12.9252 O   0  0  0  0  0  0  0  0  0  0  0  0
   39.7377   12.3004   13.4534 C   0  0  0  0  0  0  0  0  0  0  0  0
   37.6756   13.3555   14.3804 C   0  0  0  0  0  0  0  0  0  0  0  0
   39.4537   12.5585   15.9390 C   0  0  0  0  0  0  0  0  0  0  0  0
   44.9780   17.2194   13.0313 C   0  0  0  0  0  0  0  0  0  0  0  0
   43.6314   17.0240   13.3837 C   0  0  0  0  0  0  0  0  0  0  0  0
   43.2629   16.0740   14.3522 C   0  0  0  0  0  0  0  0  0  0  0  0
   45.9477   16.4356   13.6649 C   0  0  0  0  0  0  0  0  0  0  0  0
   40.3268   13.8189   14.2457 N   0  0  0  0  0  0  0  0  0  0  0  0
   44.2631   15.2978   14.9566 C   0  0  0  0  0  0  0  0  0  0  0  0
   39.0603   14.0138   14.9772 C   0  0  0  0  0  0  0  0  0  0  0  0
   45.6024   15.4800   14.6182 C   0  0  0  0  0  0  0  0  0  0  0  0
   41.0507   14.9856   13.7098 C   0  0  0  0  0  0  0  0  0  0  0  0
   41.8124   15.8593   14.7409 C   0  0  2  0  0  0  0  0  0  0  0  0
   47.2627   16.6402   13.3500 O   0  0  0  0  0  0  0  0  0  0  0  0
   45.3427   18.2290   11.9682 C   0  0  0  0  0  0  0  0  0  0  0  0
   41.1893   17.1408   14.8742 O   0  0  0  0  0  0  0  0  0  0  0  0
   46.3595   19.1299   12.3971 O   0  0  0  0  0  0  0  0  0  0  0  0
   39.2910   14.5377   16.4046 C   0  0  0  0  0  0  0  0  0  0  0  0
   38.0574   14.9119   14.2393 C   0  0  0  0  0  0  0  0  0  0  0  0
   38.4318   12.6059   15.1058 C   0  0  0  0  0  0  0  0  0  0  0  0
   39.8424   14.6961   15.6694 O   0  0  0  0  0  0  0  0  0  0  0  0
   39.7434   13.8249   13.6140 O   0  0  0  0  0  0  0  0  0  0  0  0
   44.4215   16.5485   13.6298 O   0  0  0  0  0  0  0  0  0  0  0  0
   43.9906   14.4798   12.8805 O   0  0  0  0  0  0  0  0  0  0  0  0
   41.2857   15.8234   12.5474 O   0  0  0  0  0  0  0  0  0  0  0  0
   42.8315   16.3991   15.6790 O   0  0  0  0  0  0  0  0  0  0  0  0
   40.2093   14.6626   14.3750 C   0  0  0  0  0  0  0  0  0  0  0  0
   41.2112   15.7376   13.9807 C   0  0  1  0  0  0  0  0  0  0  0  0
   42.5624   15.4363   14.6416 C   0  0  1  0  0  0  0  0  0  0  0  0
   43.7028   15.4001   13.6300 C   0  0  0  0  0  0  0  0  0  0  0  0
   42.8814   18.5220   14.0673 H   0  0  0  0  0  0  0  0  0  0  0  0
   39.3813   15.1097   15.2970 H   0  0  0  0  0  0  0  0  0  0  0  0
   43.8512   14.3453   14.5921 H   0  0  0  0  0  0  0  0  0  0  0  0
   46.2307   14.8838   14.4051 H   0  0  0  0  0  0  0  0  0  0  0  0
   41.6251   14.1533   13.6385 H   0  0  0  0  0  0  0  0  0  0  0  0
   41.6420   14.1929   15.4199 H   0  0  0  0  0  0  0  0  0  0  0  0
   41.3360   16.6454   15.3781 H   0  0  0  0  0  0  0  0  0  0  0  0
   47.3764   18.1108   13.6643 H   0  0  0  0  0  0  0  0  0  0  0  0
   45.7290   19.8762   14.7885 H   0  0  0  0  0  0  0  0  0  0  0  0
   44.5982   20.0820   13.4196 H   0  0  0  0  0  0  0  0  0  0  0  0
   40.1783   16.2676   13.2570 H   0  0  0  0  0  0  0  0  0  0  0  0
   46.1187   19.4172   12.0346 H   0  0  0  0  0  0  0  0  0  0  0  0
   39.2086   11.3393   13.4472 H   0  0  0  0  0  0  0  0  0  0  0  0
   39.6050   12.7582   12.4640 H   0  0  0  0  0  0  0  0  0  0  0  0
   40.8022   12.0773   13.5866 H   0  0  0  0  0  0  0  0  0  0  0  0
   37.1791   12.3770   14.4386 H   0  0  0  0  0  0  0  0  0  0  0  0
   37.2325   14.0036   15.1486 H   0  0  0  0  0  0  0  0  0  0  0  0
   37.4369   13.7910   13.4014 H   0  0  0  0  0  0  0  0  0  0  0  0
   40.5188   12.3648   16.1039 H   0  0  0  0  0  0  0  0  0  0  0  0
   38.9380   11.5934   16.0153 H   0  0  0  0  0  0  0  0  0  0  0  0
   39.0926   13.1946   16.7538 H   0  0  0  0  0  0  0  0  0  0  0  0
   42.8572   17.6311   12.9170 H   0  0  0  0  0  0  0  0  0  0  0  0
   40.1540   13.1885   13.4596 H   0  0  0  0  0  0  0  0  0  0  0  0
   44.0008   14.5524   15.7083 H   0  0  0  0  0  0  0  0  0  0  0  0
   46.3575   14.8797   15.1163 H   0  0  0  0  0  0  0  0  0  0  0  0
   40.3890   15.5942   13.0880 H   0  0  0  0  0  0  0  0  0  0  0  0
   41.7837   14.5578   13.0160 H   0  0  0  0  0  0  0  0  0  0  0  0
   41.7917   15.3960   15.7331 H   0  0  0  0  0  0  0  0  0  0  0  0
   47.7996   15.9869   13.8334 H   0  0  0  0  0  0  0  0  0  0  0  0
   45.7015   17.7059   11.0771 H   0  0  0  0  0  0  0  0  0  0  0  0
   44.4750   18.8267   11.6691 H   0  0  0  0  0  0  0  0  0  0  0  0
   40.2311   16.9909   14.9549 H   0  0  0  0  0  0  0  0  0  0  0  0
   46.9085   18.6222   13.0198 H   0  0  0  0  0  0  0  0  0  0  0  0
   39.6013   15.5843   16.4198 H   0  0  0  0  0  0  0  0  0  0  0  0
   38.3696   14.4802   16.9955 H   0  0  0  0  0  0  0  0  0  0  0  0
   40.0496   13.9455   16.9290 H   0  0  0  0  0  0  0  0  0  0  0  0
   38.4051   15.9472   14.1682 H   0  0  0  0  0  0  0  0  0  0  0  0
   37.8689   14.5486   13.2266 H   0  0  0  0  0  0  0  0  0  0  0  0
   37.0983   14.9312   14.7669 H   0  0  0  0  0  0  0  0  0  0  0  0
   37.5171   12.6297   15.7107 H   0  0  0  0  0  0  0  0  0  0  0  0
   38.1706   12.1942   14.1249 H   0  0  0  0  0  0  0  0  0  0  0  0
   39.1221   11.9058   15.5881 H   0  0  0  0  0  0  0  0  0  0  0  0
   39.1945   13.9672   15.7786 H   0  0  0  0  0  0  0  0  0  0  0  0
   45.0917   16.4078   12.9246 H   0  0  0  0  0  0  0  0  0  0  0  0
   40.9944   14.9550   12.1916 H   0  0  0  0  0  0  0  0  0  0  0  0
   43.3300   17.1221   15.2468 H   0  0  0  0  0  0  0  0  0  0  0  0
   40.8120   16.7006   14.3171 H   0  0  0  0  0  0  0  0  0  0  0  0
   42.5641   14.4610   15.1440 H   0  0  0  0  0  0  0  0  0  0  0  0
 10  3  1  0
 11  4  1  0
 12  1  1  0
 10 13  1  0
 14 12  1  0
 15  7  1  0
 16  7  1  0
 17  7  1  0
  6  8  1  0
  2  1  2  0
  3  2  1  0
  4  1  1  0
  5  9  1  0
  6  3  2  0
  7  5  1  0
  8  4  2  0
  9 10  1  0
 27 20  1  0
 28 21  1  0
 29 18  1  0
 27 30  1  0
 31 29  1  0
 32 24  1  0
 33 24  1  0
 34 24  1  0
 23 25  1  0
 19 18  2  0
 20 19  1  0
 21 18  1  0
 22 26  1  0
 23 20  2  0
 24 22  1  0
 25 21  2  0
 26 27  1  0
 41 36  2  0
 42 39  1  0
 43 40  1  0
 41 35  1  0
 43 44  1  0
 42 43  1  0
 44 37  1  0
 41 42  1  0
 44 38  2  0
  2 45  1  0
  5 46  1  0
  6 47  1  0
  8 48  1  0
  9 49  1  0
  9 50  1  0
 10 51  1  6
 11 52  1  0
 12 53  1  0
 12 54  1  0
 13 55  1  0
 14 56  1  0
 15 57  1  0
 15 58  1  0
 15 59  1  0
 16 60  1  0
 16 61  1  0
 16 62  1  0
 17 63  1  0
 17 64  1  0
 17 65  1  0
 19 66  1  0
 22 67  1  0
 23 68  1  0
 25 69  1  0
 26 70  1  0
 26 71  1  0
 27 72  1  6
 28 73  1  0
 29 74  1  0
 29 75  1  0
 30 76  1  0
 31 77  1  0
 32 78  1  0
 32 79  1  0
 32 80  1  0
 33 81  1  0
 33 82  1  0
 33 83  1  0
 34 84  1  0
 34 85  1  0
 34 86  1  0
 35 87  1  0
 37 88  1  0
 39 89  1  0
 40 90  1  0
 42 91  1  6
 43 92  1  1
M  END
> <Uni-Dock RESULT> 
ENERGY=   -5.381  LOWER_BOUND=    8.346  UPPER_BOUND=   10.081
INTER + INTRA:          -5.381
INTER:                  -5.381
INTRA:                   0.000
UNBOUND:                 0.000

$$$$

     RDKit          3D

 92 91  0  0  0  0  0  0  0  0999 V2000
   45.5469    6.0669   12.4246 C   0  0  0  0  0  0  0  0  0  0  0  0
   46.8755    6.1733   12.8652 C   0  0  0  0  0  0  0  0  0  0  0  0
   47.4890    7.4229   13.0899 C   0  0  0  0  0  0  0  0  0  0  0  0
   44.8181    7.2460   12.2390 C   0  0  0  0  0  0  0  0  0  0  0  0
   51.0349    8.7072   13.9956 N   0  0  0  0  0  0  0  0  0  0  0  0
   46.7230    8.5803   12.8842 C   0  0  0  0  0  0  0  0  0  0  0  0
   51.7881    9.9741   14.1071 C   0  0  0  0  0  0  0  0  0  0  0  0
   45.3936    8.4908   12.4658 C   0  0  0  0  0  0  0  0  0  0  0  0
   49.6051    8.8531   13.6497 C   0  0  0  0  0  0  0  0  0  0  0  0
   48.9288    7.4567   13.5698 C   0  0  2  0  0  0  0  0  0  0  0  0
   43.5216    7.2319   11.8102 O   0  0  0  0  0  0  0  0  0  0  0  0
   44.9363    4.7076   12.2326 C   0  0  0  0  0  0  0  0  0  0  0  0
   49.7206    6.6256   12.7095 O   0  0  0  0  0  0  0  0  0  0  0  0
   44.0800    4.7361   11.0899 O   0  0  0  0  0  0  0  0  0  0  0  0
   51.6912   10.8373   12.8401 C   0  0  0  0  0  0  0  0  0  0  0  0
   53.2631    9.5780   14.3126 C   0  0  0  0  0  0  0  0  0  0  0  0
   51.3353   10.7928   15.3294 C   0  0  0  0  0  0  0  0  0  0  0  0
   45.9237    6.7640   11.4334 C   0  0  0  0  0  0  0  0  0  0  0  0
   47.1630    6.7852   12.0962 C   0  0  0  0  0  0  0  0  0  0  0  0
   47.4534    7.7609   13.0658 C   0  0  0  0  0  0  0  0  0  0  0  0
   44.9837    7.7478   11.7573 C   0  0  0  0  0  0  0  0  0  0  0  0
   50.6783    9.5158   13.5531 N   0  0  0  0  0  0  0  0  0  0  0  0
   46.4898    8.7388   13.3544 C   0  0  0  0  0  0  0  0  0  0  0  0
   51.6844    9.2043   14.5864 C   0  0  0  0  0  0  0  0  0  0  0  0
   45.2564    8.7309   12.7061 C   0  0  0  0  0  0  0  0  0  0  0  0
   49.9089    8.4258   12.9268 C   0  0  0  0  0  0  0  0  0  0  0  0
   48.7869    7.7887   13.7882 C   0  0  2  0  0  0  0  0  0  0  0  0
   43.7642    7.7165   11.1391 O   0  0  0  0  0  0  0  0  0  0  0  0
   45.6488    5.7195   10.3770 C   0  0  0  0  0  0  0  0  0  0  0  0
   49.1291    6.4471   14.1503 O   0  0  0  0  0  0  0  0  0  0  0  0
   44.4192    5.0338   10.5946 O   0  0  0  0  0  0  0  0  0  0  0  0
   51.0380    8.8699   15.9413 C   0  0  0  0  0  0  0  0  0  0  0  0
   52.6607    8.0925   14.1768 C   0  0  0  0  0  0  0  0  0  0  0  0
   52.4998   10.5046   14.7804 C   0  0  0  0  0  0  0  0  0  0  0  0
   50.6555    8.7241   15.1034 O   0  0  0  0  0  0  0  0  0  0  0  0
   51.3833    9.3561   13.0874 O   0  0  0  0  0  0  0  0  0  0  0  0
   46.4321    7.3989   12.1090 O   0  0  0  0  0  0  0  0  0  0  0  0
   47.3793    9.2899   11.3646 O   0  0  0  0  0  0  0  0  0  0  0  0
   49.8112    7.5201   11.7961 O   0  0  0  0  0  0  0  0  0  0  0  0
   47.4985    7.5101   14.4754 O   0  0  0  0  0  0  0  0  0  0  0  0
   50.6139    8.6817   13.7589 C   0  0  0  0  0  0  0  0  0  0  0  0
   49.5613    7.7387   13.1950 C   0  0  1  0  0  0  0  0  0  0  0  0
   48.1663    8.3095   13.4803 C   0  0  1  0  0  0  0  0  0  0  0  0
   47.3189    8.4174   12.2171 C   0  0  0  0  0  0  0  0  0  0  0  0
   47.4600    5.2672   13.0351 H   0  0  0  0  0  0  0  0  0  0  0  0
   51.1120    8.2089   14.8831 H   0  0  0  0  0  0  0  0  0  0  0  0
   47.1346    9.5748   13.0457 H   0  0  0  0  0  0  0  0  0  0  0  0
   44.8090    9.3917   12.3076 H   0  0  0  0  0  0  0  0  0  0  0  0
   49.5208    9.3247   12.6644 H   0  0  0  0  0  0  0  0  0  0  0  0
   49.0801    9.4696   14.3848 H   0  0  0  0  0  0  0  0  0  0  0  0
   48.9567    7.0077   14.5707 H   0  0  0  0  0  0  0  0  0  0  0  0
   43.3264    6.3204   11.5050 H   0  0  0  0  0  0  0  0  0  0  0  0
   44.3320    4.4467   13.1088 H   0  0  0  0  0  0  0  0  0  0  0  0
   45.6987    3.9315   12.0785 H   0  0  0  0  0  0  0  0  0  0  0  0
   50.6269    6.9856   12.7841 H   0  0  0  0  0  0  0  0  0  0  0  0
   44.6846    4.6776   10.3216 H   0  0  0  0  0  0  0  0  0  0  0  0
   52.3657   11.7001   12.9065 H   0  0  0  0  0  0  0  0  0  0  0  0
   51.9706   10.2664   11.9445 H   0  0  0  0  0  0  0  0  0  0  0  0
   50.6806   11.2336   12.6911 H   0  0  0  0  0  0  0  0  0  0  0  0
   53.8942   10.4695   14.4321 H   0  0  0  0  0  0  0  0  0  0  0  0
   53.3942    8.9511   15.2050 H   0  0  0  0  0  0  0  0  0  0  0  0
   53.6452    9.0137   13.4521 H   0  0  0  0  0  0  0  0  0  0  0  0
   50.3116   11.1636   15.2128 H   0  0  0  0  0  0  0  0  0  0  0  0
   51.9783   11.6700   15.4720 H   0  0  0  0  0  0  0  0  0  0  0  0
   51.3792   10.1951   16.2458 H   0  0  0  0  0  0  0  0  0  0  0  0
   47.9074    6.0222   11.8743 H   0  0  0  0  0  0  0  0  0  0  0  0
   51.1373   10.0290   12.7973 H   0  0  0  0  0  0  0  0  0  0  0  0
   46.6938    9.5077   14.1005 H   0  0  0  0  0  0  0  0  0  0  0  0
   44.5217    9.4876   12.9635 H   0  0  0  0  0  0  0  0  0  0  0  0
   50.5819    7.6627   12.5272 H   0  0  0  0  0  0  0  0  0  0  0  0
   49.4448    8.8882   12.0480 H   0  0  0  0  0  0  0  0  0  0  0  0
   48.6545    8.3419   14.7242 H   0  0  0  0  0  0  0  0  0  0  0  0
   43.2508    8.4902   11.4333 H   0  0  0  0  0  0  0  0  0  0  0  0
   45.6053    6.1982    9.3944 H   0  0  0  0  0  0  0  0  0  0  0  0
   46.4450    4.9685   10.3398 H   0  0  0  0  0  0  0  0  0  0  0  0
   50.0527    6.4555   14.4568 H   0  0  0  0  0  0  0  0  0  0  0  0
   43.8363    5.6804   11.0293 H   0  0  0  0  0  0  0  0  0  0  0  0
   50.5560    7.8904   15.9431 H   0  0  0  0  0  0  0  0  0  0  0  0
   51.7908    8.8451   16.7377 H   0  0  0  0  0  0  0  0  0  0  0  0
   50.2923    9.6217   16.2238 H   0  0  0  0  0  0  0  0  0  0  0  0
   52.1650    7.1210   14.0853 H   0  0  0  0  0  0  0  0  0  0  0  0
   53.1415    8.3176   13.2224 H   0  0  0  0  0  0  0  0  0  0  0  0
   53.4510    7.9799   14.9261 H   0  0  0  0  0  0  0  0  0  0  0  0
   53.2287   10.4023   15.5936 H   0  0  0  0  0  0  0  0  0  0  0  0
   53.0511   10.7695   13.8716 H   0  0  0  0  0  0  0  0  0  0  0  0
   51.8481   11.3478   15.0325 H   0  0  0  0  0  0  0  0  0  0  0  0
   51.3762    9.3522   15.3251 H   0  0  0  0  0  0  0  0  0  0  0  0
   45.9809    7.5684   11.2523 H   0  0  0  0  0  0  0  0  0  0  0  0
   50.3240    8.2927   11.4711 H   0  0  0  0  0  0  0  0  0  0  0  0
   46.9974    6.8320   13.9782 H   0  0  0  0  0  0  0  0  0  0  0  0
   49.6970    6.7652   13.6783 H   0  0  0  0  0  0  0  0  0  0  0  0
   48.2162    9.3196   13.9058 H   0  0  0  0  0  0  0  0  0  0  0  0
 10  3  1  0
 11  4  1  0
 12  1  1  0
 10 13  1  0
 14 12  1  0
 15  7  1  0
 16  7  1  0
 17  7  1  0
  6  8  1  0
  2  1  2  0
  3  2  1  0
  4  1  1  0
  5  9  1  0
  6  3  2  0
  7  5  1  0
  8  4  2  0
  9 10  1  0
 27 20  1  0
 28 21  1  0
 29 18  1  0
 27 30  1  0
 31 29  1  0
 32 24  1  0
 33 24  1  0
 34 24  1  0
 23 25  1  0
 19 18  2  0
 20 19  1  0
 21 18  1  0
 22 26  1  0
 23 20  2  0
 24 22  1  0
 25 21  2  0
 26 27  1  0
 41 36  2  0
 42 39  1  0
 43 40  1  0
 41 35  1  0
 43 44  1  0
 42 43  1  0
 44 37  1  0
 41 42  1  0
 44 38  2  0
  2 45  1  0
  5 46  1  0
  6 47  1  0
  8 48  1  0
  9 49  1  0
  9 50  1  0
 10 51  1  6
 11 52  1  0
 12 53  1  0
 12 54  1  0
 13 55  1  0
 14 56  1  0
 15 57  1  0
 15 58  1  0
 15 59  1  0
 16 60  1  0
 16 61  1  0
 16 62  1  0
 17 63  1  0
 17 64  1  0
 17 65  1  0
 19 66  1  0
 22 67  1  0
 23 68  1  0
 25 69  1  0
 26 70  1  0
 26 71  1  0
 27 72  1  6
 28 73  1  0
 29 74  1  0
 29 75  1  0
 30 76  1  0
 31 77  1  0
 32 78  1  0
 32 79  1  0
 32 80  1  0
 33 81  1  0
 33 82  1  0
 33 83  1  0
 34 84  1  0
 34 85  1  0
 34 86  1  0
 35 87  1  0
 37 88  1  0
 39 89  1  0
 40 90  1  0
 42 91  1  6
 43 92  1  1
M  END
> <Uni-Dock RESULT> 
ENERGY=   -5.336  LOWER_BOUND=    2.113  UPPER_BOUND=    6.365
INTER + INTRA:          -5.336
INTER:                  -5.336
INTRA:                   0.000
UNBOUND:                 0.000

$$$$

     RDKit          3D

 92 91  0  0  0  0  0  0  0  0999 V2000
   47.5348    6.5327   22.7651 C   0  0  0  0  0  0  0  0  0  0  0  0
   47.5834    7.9303   22.6432 C   0  0  0  0  0  0  0  0  0  0  0  0
   47.7689    8.5644   21.3974 C   0  0  0  0  0  0  0  0  0  0  0  0
   47.6445    5.7658   21.6006 C   0  0  0  0  0  0  0  0  0  0  0  0
   48.3021   12.1889   20.1239 N   0  0  0  0  0  0  0  0  0  0  0  0
   47.8814    7.7561   20.2561 C   0  0  0  0  0  0  0  0  0  0  0  0
   48.6420   12.9165   18.8830 C   0  0  0  0  0  0  0  0  0  0  0  0
   47.8146    6.3649   20.3580 C   0  0  0  0  0  0  0  0  0  0  0  0
   48.1702   10.7237   19.9786 C   0  0  0  0  0  0  0  0  0  0  0  0
   47.8067   10.0811   21.3456 C   0  0  2  0  0  0  0  0  0  0  0  0
   47.6098    4.4009   21.6307 O   0  0  0  0  0  0  0  0  0  0  0  0
   47.3033    5.9139   24.1145 C   0  0  0  0  0  0  0  0  0  0  0  0
   48.7443   10.5520   22.3238 O   0  0  0  0  0  0  0  0  0  0  0  0
   48.0859    4.7243   24.2246 O   0  0  0  0  0  0  0  0  0  0  0  0
   49.9203   12.3881   18.2146 C   0  0  0  0  0  0  0  0  0  0  0  0
   48.8814   14.3811   19.2981 C   0  0  0  0  0  0  0  0  0  0  0  0
   47.4785   12.8863   17.8757 C   0  0  0  0  0  0  0  0  0  0  0  0
   48.6888    6.5453   22.2372 C   0  0  0  0  0  0  0  0  0  0  0  0
   48.4879    7.9346   22.1634 C   0  0  0  0  0  0  0  0  0  0  0  0
   47.8309    8.5176   21.0657 C   0  0  0  0  0  0  0  0  0  0  0  0
   48.2243    5.7530   21.1824 C   0  0  0  0  0  0  0  0  0  0  0  0
   48.7183   11.6924   19.3774 N   0  0  0  0  0  0  0  0  0  0  0  0
   47.3905    7.6913   20.0211 C   0  0  0  0  0  0  0  0  0  0  0  0
   48.0442   12.9909   19.5687 C   0  0  0  0  0  0  0  0  0  0  0  0
   47.5819    6.3123   20.0799 C   0  0  0  0  0  0  0  0  0  0  0  0
   48.8790   10.7746   20.5195 C   0  0  0  0  0  0  0  0  0  0  0  0
   47.6068   10.0154   20.9798 C   0  0  2  0  0  0  0  0  0  0  0  0
   48.3888    4.3976   21.2604 O   0  0  0  0  0  0  0  0  0  0  0  0
   49.4213    5.9488   23.4163 C   0  0  0  0  0  0  0  0  0  0  0  0
   47.1795   10.4795   22.2644 O   0  0  0  0  0  0  0  0  0  0  0  0
   48.7051    4.8736   24.0165 O   0  0  0  0  0  0  0  0  0  0  0  0
   46.5173   12.8403   19.6741 C   0  0  0  0  0  0  0  0  0  0  0  0
   48.5810   13.7908   20.7641 C   0  0  0  0  0  0  0  0  0  0  0  0
   48.3332   13.8042   18.2848 C   0  0  0  0  0  0  0  0  0  0  0  0
   47.1474   12.2018   19.9286 O   0  0  0  0  0  0  0  0  0  0  0  0
   49.3620   12.2034   19.6303 O   0  0  0  0  0  0  0  0  0  0  0  0
   48.3261    7.2408   21.5281 O   0  0  0  0  0  0  0  0  0  0  0  0
   49.6221    7.8552   19.8048 O   0  0  0  0  0  0  0  0  0  0  0  0
   49.7607   10.3181   21.5789 O   0  0  0  0  0  0  0  0  0  0  0  0
   46.4959    9.0356   21.1057 O   0  0  0  0  0  0  0  0  0  0  0  0
   48.3783   11.7134   20.1688 C   0  0  0  0  0  0  0  0  0  0  0  0
   48.4090   10.5474   21.1458 C   0  0  1  0  0  0  0  0  0  0  0  0
   47.7661    9.3196   20.4881 C   0  0  1  0  0  0  0  0  0  0  0  0
   48.6758    8.0969   20.5381 C   0  0  0  0  0  0  0  0  0  0  0  0
   47.4819    8.5517   23.5348 H   0  0  0  0  0  0  0  0  0  0  0  0
   47.4260   12.5661   20.4872 H   0  0  0  0  0  0  0  0  0  0  0  0
   48.0197    8.1828   19.2645 H   0  0  0  0  0  0  0  0  0  0  0  0
   47.9044    5.7473   19.4697 H   0  0  0  0  0  0  0  0  0  0  0  0
   49.1309   10.3074   19.6559 H   0  0  0  0  0  0  0  0  0  0  0  0
   47.4052   10.4655   19.2409 H   0  0  0  0  0  0  0  0  0  0  0  0
   46.8162   10.4491   21.6416 H   0  0  0  0  0  0  0  0  0  0  0  0
   47.6900    4.1288   22.5696 H   0  0  0  0  0  0  0  0  0  0  0  0
   46.2470    5.6416   24.2199 H   0  0  0  0  0  0  0  0  0  0  0  0
   47.5823    6.5926   24.9322 H   0  0  0  0  0  0  0  0  0  0  0  0
   49.0315   11.4255   21.9902 H   0  0  0  0  0  0  0  0  0  0  0  0
   48.9933    5.0378   24.4188 H   0  0  0  0  0  0  0  0  0  0  0  0
   50.2144   13.0326   17.3769 H   0  0  0  0  0  0  0  0  0  0  0  0
   50.7597   12.3604   18.9222 H   0  0  0  0  0  0  0  0  0  0  0  0
   49.7828   11.3799   17.8080 H   0  0  0  0  0  0  0  0  0  0  0  0
   49.1161   15.0021   18.4225 H   0  0  0  0  0  0  0  0  0  0  0  0
   47.9992   14.8128   19.7897 H   0  0  0  0  0  0  0  0  0  0  0  0
   49.7235   14.4619   19.9976 H   0  0  0  0  0  0  0  0  0  0  0  0
   47.3027   11.8770   17.4891 H   0  0  0  0  0  0  0  0  0  0  0  0
   47.6934   13.5264   17.0113 H   0  0  0  0  0  0  0  0  0  0  0  0
   46.5493   13.2434   18.3318 H   0  0  0  0  0  0  0  0  0  0  0  0
   48.8260    8.5734   22.9777 H   0  0  0  0  0  0  0  0  0  0  0  0
   49.6526   11.8642   18.9995 H   0  0  0  0  0  0  0  0  0  0  0  0
   46.8812    8.1214   19.1578 H   0  0  0  0  0  0  0  0  0  0  0  0
   47.2130    5.6946   19.2669 H   0  0  0  0  0  0  0  0  0  0  0  0
   49.3587   11.2868   21.3576 H   0  0  0  0  0  0  0  0  0  0  0  0
   49.6126   10.0362   20.1761 H   0  0  0  0  0  0  0  0  0  0  0  0
   46.7759   10.1954   20.2892 H   0  0  0  0  0  0  0  0  0  0  0  0
   48.0620    4.0004   20.4333 H   0  0  0  0  0  0  0  0  0  0  0  0
   50.3941    5.5718   23.0877 H   0  0  0  0  0  0  0  0  0  0  0  0
   49.6067    6.6982   24.1933 H   0  0  0  0  0  0  0  0  0  0  0  0
   47.2030   11.4522   22.2444 H   0  0  0  0  0  0  0  0  0  0  0  0
   48.2049    4.4599   23.2915 H   0  0  0  0  0  0  0  0  0  0  0  0
   46.2059   12.4017   20.6241 H   0  0  0  0  0  0  0  0  0  0  0  0
   46.0230   13.8165   19.6079 H   0  0  0  0  0  0  0  0  0  0  0  0
   46.1207   12.2207   18.8618 H   0  0  0  0  0  0  0  0  0  0  0  0
   48.3532   13.3080   21.7196 H   0  0  0  0  0  0  0  0  0  0  0  0
   49.6636   13.9211   20.7011 H   0  0  0  0  0  0  0  0  0  0  0  0
   48.1298   14.7879   20.7931 H   0  0  0  0  0  0  0  0  0  0  0  0
   47.8035   14.7647   18.2918 H   0  0  0  0  0  0  0  0  0  0  0  0
   49.4028   14.0156   18.1784 H   0  0  0  0  0  0  0  0  0  0  0  0
   48.0100   13.2616   17.3901 H   0  0  0  0  0  0  0  0  0  0  0  0
   47.2767   12.9454   19.3015 H   0  0  0  0  0  0  0  0  0  0  0  0
   48.9990    6.5263   21.4714 H   0  0  0  0  0  0  0  0  0  0  0  0
   50.3515   10.6808   20.8825 H   0  0  0  0  0  0  0  0  0  0  0  0
   46.6885    8.4075   21.8314 H   0  0  0  0  0  0  0  0  0  0  0  0
   47.8562   10.8518   22.0410 H   0  0  0  0  0  0  0  0  0  0  0  0
   47.5406    9.4936   19.4286 H   0  0  0  0  0  0  0  0  0  0  0  0
 10  3  1  0
 11  4  1  0
 12  1  1  0
 10 13  1  0
 14 12  1  0
 15  7  1  0
 16  7  1  0
 17  7  1  0
  6  8  1  0
  2  1  2  0
  3  2  1  0
  4  1  1  0
  5  9  1  0
  6  3  2  0
  7  5  1  0
  8  4  2  0
  9 10  1  0
 27 20  1  0
 28 21  1  0
 29 18  1  0
 27 30  1  0
 31 29  1  0
 32 24  1  0
 33 24  1  0
 34 24  1  0
 23 25  1  0
 19 18  2  0
 20 19  1  0
 21 18  1  0
 22 26  1  0
 23 20  2  0
 24 22  1  0
 25 21  2  0
 26 27  1  0
 41 36  2  0
 42 39  1  0
 43 40  1  0
 41 35  1  0
 43 44  1  0
 42 43  1  0
 44 37  1  0
 41 42  1  0
 44 38  2  0
  2 45  1  0
  5 46  1  0
  6 47  1  0
  8 48  1  0
  9 49  1  0
  9 50  1  0
 10 51  1  6
 11 52  1  0
 12 53  1  0
 12 54  1  0
 13 55  1  0
 14 56  1  0
 15 57  1  0
 15 58  1  0
 15 59  1  0
 16 60  1  0
 16 61  1  0
 16 62  1  0
 17 63  1  0
 17 64  1  0
 17 65  1  0
 19 66  1  0
 22 67  1  0
 23 68  1  0
 25 69  1  0
 26 70  1  0
 26 71  1  0
 27 72  1  6
 28 73  1  0
 29 74  1  0
 29 75  1  0
 30 76  1  0
 31 77  1  0
 32 78  1  0
 32 79  1  0
 32 80  1  0
 33 81  1  0
 33 82  1  0
 33 83  1  0
 34 84  1  0
 34 85  1  0
 34 86  1  0
 35 87  1  0
 37 88  1  0
 39 89  1  0
 40 90  1  0
 42 91  1  6
 43 92  1  1
M  END
> <Uni-Dock RESULT> 
ENERGY=   -5.277  LOWER_BOUND=    7.545  UPPER_BOUND=   10.150
INTER + INTRA:          -5.277
INTER:                  -5.277
INTRA:                   0.000
UNBOUND:                 0.000

$$$$

     RDKit          3D

 92 91  0  0  0  0  0  0  0  0999 V2000
   46.1084   12.2386    8.0248 C   0  0  0  0  0  0  0  0  0  0  0  0
   45.1543   12.2050    9.0540 C   0  0  0  0  0  0  0  0  0  0  0  0
   43.8053   11.8746    8.8100 C   0  0  0  0  0  0  0  0  0  0  0  0
   45.6950   11.9009    6.7321 C   0  0  0  0  0  0  0  0  0  0  0  0
   40.5052   11.7879   10.8459 N   0  0  0  0  0  0  0  0  0  0  0  0
   43.4328   11.5496    7.4969 C   0  0  0  0  0  0  0  0  0  0  0  0
   39.0530   11.5995   10.6446 C   0  0  0  0  0  0  0  0  0  0  0  0
   44.3745   11.5584    6.4655 C   0  0  0  0  0  0  0  0  0  0  0  0
   41.3336   11.6418    9.6303 C   0  0  0  0  0  0  0  0  0  0  0  0
   42.8330   11.8560    9.9757 C   0  0  2  0  0  0  0  0  0  0  0  0
   46.5580   11.9105    5.6738 O   0  0  0  0  0  0  0  0  0  0  0  0
   47.5381   12.5668    8.3499 C   0  0  0  0  0  0  0  0  0  0  0  0
   42.9534   13.0910   10.6955 O   0  0  0  0  0  0  0  0  0  0  0  0
   48.0889   13.3560    7.2946 O   0  0  0  0  0  0  0  0  0  0  0  0
   38.4772   12.5258    9.5628 C   0  0  0  0  0  0  0  0  0  0  0  0
   38.3860   11.9500   11.9888 C   0  0  0  0  0  0  0  0  0  0  0  0
   38.7164   10.1356   10.3081 C   0  0  0  0  0  0  0  0  0  0  0  0
   45.3454   13.0937    7.4796 C   0  0  0  0  0  0  0  0  0  0  0  0
   44.5118   12.8495    8.5846 C   0  0  0  0  0  0  0  0  0  0  0  0
   43.5732   11.8030    8.5711 C   0  0  0  0  0  0  0  0  0  0  0  0
   45.2123   12.2711    6.3563 C   0  0  0  0  0  0  0  0  0  0  0  0
   40.1315   11.8898    9.9366 N   0  0  0  0  0  0  0  0  0  0  0  0
   43.4603   11.0073    7.4212 C   0  0  0  0  0  0  0  0  0  0  0  0
   39.6980   11.3160   11.2249 C   0  0  0  0  0  0  0  0  0  0  0  0
   44.2798   11.2367    6.3179 C   0  0  0  0  0  0  0  0  0  0  0  0
   41.4661   12.5043    9.8198 C   0  0  0  0  0  0  0  0  0  0  0  0
   42.6723   11.5304    9.7606 C   0  0  2  0  0  0  0  0  0  0  0  0
   46.0401   12.4827    5.2884 O   0  0  0  0  0  0  0  0  0  0  0  0
   46.3270   14.2418    7.5118 C   0  0  0  0  0  0  0  0  0  0  0  0
   43.4595   11.6295   10.9517 O   0  0  0  0  0  0  0  0  0  0  0  0
   47.6473   13.8410    7.1577 O   0  0  0  0  0  0  0  0  0  0  0  0
   40.3588    9.9556   11.5041 C   0  0  0  0  0  0  0  0  0  0  0  0
   39.9052   12.2599   12.4178 C   0  0  0  0  0  0  0  0  0  0  0  0
   38.1790   11.0620   11.0786 C   0  0  0  0  0  0  0  0  0  0  0  0
   40.7284   10.6489   11.0018 O   0  0  0  0  0  0  0  0  0  0  0  0
   39.7964   12.5698   10.3424 O   0  0  0  0  0  0  0  0  0  0  0  0
   44.5253   12.4674    7.7100 O   0  0  0  0  0  0  0  0  0  0  0  0
   42.4836   12.9725    6.9333 O   0  0  0  0  0  0  0  0  0  0  0  0
   42.2275   13.7399    9.8622 O   0  0  0  0  0  0  0  0  0  0  0  0
   43.7180   10.5790    9.3012 O   0  0  0  0  0  0  0  0  0  0  0  0
   40.8024   11.8860   10.4771 C   0  0  0  0  0  0  0  0  0  0  0  0
   42.2102   12.3218   10.0987 C   0  0  1  0  0  0  0  0  0  0  0  0
   42.6874   11.4999    8.8946 C   0  0  1  0  0  0  0  0  0  0  0  0
   43.1738   12.3833    7.7508 C   0  0  0  0  0  0  0  0  0  0  0  0
   45.4557   12.4468   10.0748 H   0  0  0  0  0  0  0  0  0  0  0  0
   40.8220   11.1157   11.5456 H   0  0  0  0  0  0  0  0  0  0  0  0
   42.4096   11.2796    7.2428 H   0  0  0  0  0  0  0  0  0  0  0  0
   44.0769   11.3071    5.4522 H   0  0  0  0  0  0  0  0  0  0  0  0
   41.0427   12.4086    8.9038 H   0  0  0  0  0  0  0  0  0  0  0  0
   41.2024   10.6550    9.1772 H   0  0  0  0  0  0  0  0  0  0  0  0
   43.1435   11.0524   10.6553 H   0  0  0  0  0  0  0  0  0  0  0  0
   47.3786   12.3576    5.9722 H   0  0  0  0  0  0  0  0  0  0  0  0
   48.1210   11.6421    8.4281 H   0  0  0  0  0  0  0  0  0  0  0  0
   47.6283   13.1285    9.2899 H   0  0  0  0  0  0  0  0  0  0  0  0
   42.0876   13.2056   11.1358 H   0  0  0  0  0  0  0  0  0  0  0  0
   47.7463   14.2600    7.4520 H   0  0  0  0  0  0  0  0  0  0  0  0
   37.3828   12.4547    9.5342 H   0  0  0  0  0  0  0  0  0  0  0  0
   38.7363   13.5755    9.7555 H   0  0  0  0  0  0  0  0  0  0  0  0
   38.8399   12.2623    8.5630 H   0  0  0  0  0  0  0  0  0  0  0  0
   37.2976   11.8100   11.9333 H   0  0  0  0  0  0  0  0  0  0  0  0
   38.7647   11.3212   12.8058 H   0  0  0  0  0  0  0  0  0  0  0  0
   38.5724   12.9967   12.2624 H   0  0  0  0  0  0  0  0  0  0  0  0
   39.1066    9.8448    9.3272 H   0  0  0  0  0  0  0  0  0  0  0  0
   37.6308    9.9813   10.2785 H   0  0  0  0  0  0  0  0  0  0  0  0
   39.1298    9.4513   11.0562 H   0  0  0  0  0  0  0  0  0  0  0  0
   44.6047   13.4651    9.4779 H   0  0  0  0  0  0  0  0  0  0  0  0
   39.4514   12.5979    9.6513 H   0  0  0  0  0  0  0  0  0  0  0  0
   42.7370   10.1917    7.3864 H   0  0  0  0  0  0  0  0  0  0  0  0
   44.1850   10.5928    5.4490 H   0  0  0  0  0  0  0  0  0  0  0  0
   41.6077   13.2623   10.5946 H   0  0  0  0  0  0  0  0  0  0  0  0
   41.4294   13.0612    8.8765 H   0  0  0  0  0  0  0  0  0  0  0  0
   42.3301   10.4920    9.6965 H   0  0  0  0  0  0  0  0  0  0  0  0
   45.7873   11.8672    4.5771 H   0  0  0  0  0  0  0  0  0  0  0  0
   46.0040   15.0166    6.8105 H   0  0  0  0  0  0  0  0  0  0  0  0
   46.3749   14.6998    8.5055 H   0  0  0  0  0  0  0  0  0  0  0  0
   42.8458   11.6220   11.7070 H   0  0  0  0  0  0  0  0  0  0  0  0
   47.5346   13.1064    6.5296 H   0  0  0  0  0  0  0  0  0  0  0  0
   41.4150   10.0502   11.7636 H   0  0  0  0  0  0  0  0  0  0  0  0
   39.8766    9.4535   12.3509 H   0  0  0  0  0  0  0  0  0  0  0  0
   40.2745    9.2865   10.6402 H   0  0  0  0  0  0  0  0  0  0  0  0
   40.9652   12.4345   12.6268 H   0  0  0  0  0  0  0  0  0  0  0  0
   39.4309   13.2285   12.2452 H   0  0  0  0  0  0  0  0  0  0  0  0
   39.4654   11.8342   13.3256 H   0  0  0  0  0  0  0  0  0  0  0  0
   37.7708   10.5563   11.9623 H   0  0  0  0  0  0  0  0  0  0  0  0
   37.6280   11.9999   10.9486 H   0  0  0  0  0  0  0  0  0  0  0  0
   37.9644   10.4266   10.2128 H   0  0  0  0  0  0  0  0  0  0  0  0
   39.7795   10.5063   11.2077 H   0  0  0  0  0  0  0  0  0  0  0  0
   44.7015   13.0799    6.9616 H   0  0  0  0  0  0  0  0  0  0  0  0
   41.3112   14.0032    9.6242 H   0  0  0  0  0  0  0  0  0  0  0  0
   44.5641   11.0537    9.1712 H   0  0  0  0  0  0  0  0  0  0  0  0
   42.8526   12.1566   10.9703 H   0  0  0  0  0  0  0  0  0  0  0  0
   41.8860   10.8743    8.4823 H   0  0  0  0  0  0  0  0  0  0  0  0
 10  3  1  0
 11  4  1  0
 12  1  1  0
 10 13  1  0
 14 12  1  0
 15  7  1  0
 16  7  1  0
 17  7  1  0
  6  8  1  0
  2  1  2  0
  3  2  1  0
  4  1  1  0
  5  9  1  0
  6  3  2  0
  7  5  1  0
  8  4  2  0
  9 10  1  0
 27 20  1  0
 28 21  1  0
 29 18  1  0
 27 30  1  0
 31 29  1  0
 32 24  1  0
 33 24  1  0
 34 24  1  0
 23 25  1  0
 19 18  2  0
 20 19  1  0
 21 18  1  0
 22 26  1  0
 23 20  2  0
 24 22  1  0
 25 21  2  0
 26 27  1  0
 41 36  2  0
 42 39  1  0
 43 40  1  0
 41 35  1  0
 43 44  1  0
 42 43  1  0
 44 37  1  0
 41 42  1  0
 44 38  2  0
  2 45  1  0
  5 46  1  0
  6 47  1  0
  8 48  1  0
  9 49  1  0
  9 50  1  0
 10 51  1  6
 11 52  1  0
 12 53  1  0
 12 54  1  0
 13 55  1  0
 14 56  1  0
 15 57  1  0
 15 58  1  0
 15 59  1  0
 16 60  1  0
 16 61  1  0
 16 62  1  0
 17 63  1  0
 17 64  1  0
 17 65  1  0
 19 66  1  0
 22 67  1  0
 23 68  1  0
 25 69  1  0
 26 70  1  0
 26 71  1  0
 27 72  1  6
 28 73  1  0
 29 74  1  0
 29 75  1  0
 30 76  1  0
 31 77  1  0
 32 78  1  0
 32 79  1  0
 32 80  1  0
 33 81  1  0
 33 82  1  0
 33 83  1  0
 34 84  1  0
 34 85  1  0
 34 86  1  0
 35 87  1  0
 37 88  1  0
 39 89  1  0
 40 90  1  0
 42 91  1  6
 43 92  1  1
M  END
> <Uni-Dock RESULT> 
ENERGY=   -5.236  LOWER_BOUND=    6.743  UPPER_BOUND=    8.159
INTER + INTRA:          -5.236
INTER:                  -5.236
INTRA:                   0.000
UNBOUND:                 0.000

$$$$

     RDKit          3D

 92 91  0  0  0  0  0  0  0  0999 V2000
   47.5094   11.6602   20.8928 C   0  0  0  0  0  0  0  0  0  0  0  0
   47.5499   10.6325   19.9374 C   0  0  0  0  0  0  0  0  0  0  0  0
   47.9723    9.3272   20.2635 C   0  0  0  0  0  0  0  0  0  0  0  0
   47.8729   11.3519   22.2077 C   0  0  0  0  0  0  0  0  0  0  0  0
   48.6721    6.0246   18.3539 N   0  0  0  0  0  0  0  0  0  0  0  0
   48.3348    9.0640   21.5931 C   0  0  0  0  0  0  0  0  0  0  0  0
   49.2424    4.6805   18.5840 C   0  0  0  0  0  0  0  0  0  0  0  0
   48.2804   10.0705   22.5598 C   0  0  0  0  0  0  0  0  0  0  0  0
   48.6064    6.8935   19.5481 C   0  0  0  0  0  0  0  0  0  0  0  0
   47.9852    8.2680   19.1760 C   0  0  2  0  0  0  0  0  0  0  0  0
   47.8640   12.2929   23.1973 O   0  0  0  0  0  0  0  0  0  0  0  0
   47.0205   13.0238   20.4943 C   0  0  0  0  0  0  0  0  0  0  0  0
   48.6914    8.7841   18.0390 O   0  0  0  0  0  0  0  0  0  0  0  0
   47.7909   14.0150   21.1753 O   0  0  0  0  0  0  0  0  0  0  0  0
   50.6423    4.7282   19.2149 C   0  0  0  0  0  0  0  0  0  0  0  0
   49.3581    4.0218   17.1957 C   0  0  0  0  0  0  0  0  0  0  0  0
   48.3110    3.8144   19.4510 C   0  0  0  0  0  0  0  0  0  0  0  0
   48.7465   11.4263   21.0523 C   0  0  0  0  0  0  0  0  0  0  0  0
   48.5332   10.4052   20.1102 C   0  0  0  0  0  0  0  0  0  0  0  0
   48.1020    9.1273   20.5070 C   0  0  0  0  0  0  0  0  0  0  0  0
   48.5263   11.1367   22.4027 C   0  0  0  0  0  0  0  0  0  0  0  0
   49.2437    5.8772   19.1466 N   0  0  0  0  0  0  0  0  0  0  0  0
   47.9041    8.8713   21.8720 C   0  0  0  0  0  0  0  0  0  0  0  0
   48.5152    5.0451   18.1700 C   0  0  0  0  0  0  0  0  0  0  0  0
   48.1109    9.8733   22.8179 C   0  0  0  0  0  0  0  0  0  0  0  0
   49.1879    7.3465   19.0439 C   0  0  0  0  0  0  0  0  0  0  0  0
   47.8661    8.0208   19.4966 C   0  0  2  0  0  0  0  0  0  0  0  0
   48.7023   12.1330   23.3229 O   0  0  0  0  0  0  0  0  0  0  0  0
   49.2353   12.7825   20.6000 C   0  0  0  0  0  0  0  0  0  0  0  0
   47.1740    8.5779   18.3745 O   0  0  0  0  0  0  0  0  0  0  0  0
   48.4360   13.8473   21.1065 O   0  0  0  0  0  0  0  0  0  0  0  0
   47.0030    5.0161   18.4484 C   0  0  0  0  0  0  0  0  0  0  0  0
   48.7772    5.4412   16.7101 C   0  0  0  0  0  0  0  0  0  0  0  0
   49.0425    3.6049   18.3732 C   0  0  0  0  0  0  0  0  0  0  0  0
   47.5820    5.7180   18.6525 O   0  0  0  0  0  0  0  0  0  0  0  0
   49.8101    5.8016   18.5040 O   0  0  0  0  0  0  0  0  0  0  0  0
   48.5210   10.3934   21.0645 O   0  0  0  0  0  0  0  0  0  0  0  0
   50.1283    8.9067   21.5474 O   0  0  0  0  0  0  0  0  0  0  0  0
   49.8440    8.5415   18.5444 O   0  0  0  0  0  0  0  0  0  0  0  0
   46.7757    8.6245   20.3068 O   0  0  0  0  0  0  0  0  0  0  0  0
   48.7483    6.3893   18.6623 C   0  0  0  0  0  0  0  0  0  0  0  0
   48.6048    7.8896   18.8712 C   0  0  1  0  0  0  0  0  0  0  0  0
   48.1386    8.1577   20.3078 C   0  0  1  0  0  0  0  0  0  0  0  0
   49.0466    9.1451   21.0331 C   0  0  0  0  0  0  0  0  0  0  0  0
   47.2537   10.8430   18.9082 H   0  0  0  0  0  0  0  0  0  0  0  0
   47.7317    5.9132   17.9729 H   0  0  0  0  0  0  0  0  0  0  0  0
   48.6635    8.0766   21.9115 H   0  0  0  0  0  0  0  0  0  0  0  0
   48.5644    9.8581   23.5858 H   0  0  0  0  0  0  0  0  0  0  0  0
   49.6220    7.0722   19.9180 H   0  0  0  0  0  0  0  0  0  0  0  0
   48.0149    6.4308   20.3432 H   0  0  0  0  0  0  0  0  0  0  0  0
   46.9469    8.0986   18.8639 H   0  0  0  0  0  0  0  0  0  0  0  0
   47.7564   13.1672   22.7660 H   0  0  0  0  0  0  0  0  0  0  0  0
   45.9715   13.1411   20.7891 H   0  0  0  0  0  0  0  0  0  0  0  0
   47.1104   13.1938   19.4125 H   0  0  0  0  0  0  0  0  0  0  0  0
   49.0208    7.9905   17.5718 H   0  0  0  0  0  0  0  0  0  0  0  0
   48.6318   14.0664   20.6757 H   0  0  0  0  0  0  0  0  0  0  0  0
   51.0870    3.7258   19.2474 H   0  0  0  0  0  0  0  0  0  0  0  0
   51.3193    5.3726   18.6383 H   0  0  0  0  0  0  0  0  0  0  0  0
   50.6141    5.0979   20.2460 H   0  0  0  0  0  0  0  0  0  0  0  0
   49.7530    2.9999   17.2797 H   0  0  0  0  0  0  0  0  0  0  0  0
   48.3842    3.9655   16.6909 H   0  0  0  0  0  0  0  0  0  0  0  0
   50.0369    4.5874   16.5443 H   0  0  0  0  0  0  0  0  0  0  0  0
   48.2413    4.1941   20.4758 H   0  0  0  0  0  0  0  0  0  0  0  0
   48.6839    2.7849   19.5167 H   0  0  0  0  0  0  0  0  0  0  0  0
   47.3002    3.7765   19.0319 H   0  0  0  0  0  0  0  0  0  0  0  0
   48.6826   10.6077   19.0508 H   0  0  0  0  0  0  0  0  0  0  0  0
   50.2315    5.6143   19.1244 H   0  0  0  0  0  0  0  0  0  0  0  0
   47.5728    7.8865   22.2038 H   0  0  0  0  0  0  0  0  0  0  0  0
   47.9307    9.6533   23.8657 H   0  0  0  0  0  0  0  0  0  0  0  0
   49.4738    7.6712   18.0401 H   0  0  0  0  0  0  0  0  0  0  0  0
   49.9930    7.6974   19.6996 H   0  0  0  0  0  0  0  0  0  0  0  0
   47.1905    7.2867   19.9485 H   0  0  0  0  0  0  0  0  0  0  0  0
   48.5611   11.7592   24.2112 H   0  0  0  0  0  0  0  0  0  0  0  0
   50.2631   12.9320   20.9429 H   0  0  0  0  0  0  0  0  0  0  0  0
   49.2402   12.8624   19.5077 H   0  0  0  0  0  0  0  0  0  0  0  0
   47.1789    7.9082   17.6685 H   0  0  0  0  0  0  0  0  0  0  0  0
   48.1047   13.5351   21.9665 H   0  0  0  0  0  0  0  0  0  0  0  0
   46.5136    5.9580   18.1931 H   0  0  0  0  0  0  0  0  0  0  0  0
   46.5106    4.2403   17.8507 H   0  0  0  0  0  0  0  0  0  0  0  0
   46.7955    4.7941   19.5014 H   0  0  0  0  0  0  0  0  0  0  0  0
   48.3695    6.4283   16.4706 H   0  0  0  0  0  0  0  0  0  0  0  0
   49.8465    5.4543   16.4876 H   0  0  0  0  0  0  0  0  0  0  0  0
   48.3069    4.7259   16.0275 H   0  0  0  0  0  0  0  0  0  0  0  0
   48.5008    2.8879   17.7443 H   0  0  0  0  0  0  0  0  0  0  0  0
   50.1061    3.5300   18.1218 H   0  0  0  0  0  0  0  0  0  0  0  0
   48.9221    3.2812   19.4125 H   0  0  0  0  0  0  0  0  0  0  0  0
   47.8200    4.7784   18.4989 H   0  0  0  0  0  0  0  0  0  0  0  0
   49.2074   10.9273   21.5230 H   0  0  0  0  0  0  0  0  0  0  0  0
   50.5565    7.8724   18.6450 H   0  0  0  0  0  0  0  0  0  0  0  0
   46.8298    9.6007   20.2606 H   0  0  0  0  0  0  0  0  0  0  0  0
   47.8735    8.2561   18.1428 H   0  0  0  0  0  0  0  0  0  0  0  0
   48.1311    7.2429   20.9134 H   0  0  0  0  0  0  0  0  0  0  0  0
 10  3  1  0
 11  4  1  0
 12  1  1  0
 10 13  1  0
 14 12  1  0
 15  7  1  0
 16  7  1  0
 17  7  1  0
  6  8  1  0
  2  1  2  0
  3  2  1  0
  4  1  1  0
  5  9  1  0
  6  3  2  0
  7  5  1  0
  8  4  2  0
  9 10  1  0
 27 20  1  0
 28 21  1  0
 29 18  1  0
 27 30  1  0
 31 29  1  0
 32 24  1  0
 33 24  1  0
 34 24  1  0
 23 25  1  0
 19 18  2  0
 20 19  1  0
 21 18  1  0
 22 26  1  0
 23 20  2  0
 24 22  1  0
 25 21  2  0
 26 27  1  0
 41 36  2  0
 42 39  1  0
 43 40  1  0
 41 35  1  0
 43 44  1  0
 42 43  1  0
 44 37  1  0
 41 42  1  0
 44 38  2  0
  2 45  1  0
  5 46  1  0
  6 47  1  0
  8 48  1  0
  9 49  1  0
  9 50  1  0
 10 51  1  6
 11 52  1  0
 12 53  1  0
 12 54  1  0
 13 55  1  0
 14 56  1  0
 15 57  1  0
 15 58  1  0
 15 59  1  0
 16 60  1  0
 16 61  1  0
 16 62  1  0
 17 63  1  0
 17 64  1  0
 17 65  1  0
 19 66  1  0
 22 67  1  0
 23 68  1  0
 25 69  1  0
 26 70  1  0
 26 71  1  0
 27 72  1  6
 28 73  1  0
 29 74  1  0
 29 75  1  0
 30 76  1  0
 31 77  1  0
 32 78  1  0
 32 79  1  0
 32 80  1  0
 33 81  1  0
 33 82  1  0
 33 83  1  0
 34 84  1  0
 34 85  1  0
 34 86  1  0
 35 87  1  0
 37 88  1  0
 39 89  1  0
 40 90  1  0
 42 91  1  6
 43 92  1  1
M  END
> <Uni-Dock RESULT> 
ENERGY=   -5.085  LOWER_BOUND=    6.107  UPPER_BOUND=    8.103
INTER + INTRA:          -5.085
INTER:                  -5.085
INTRA:                   0.000
UNBOUND:                 0.000

$$$$
