
     RDKit          3D

 92 91  0  0  0  0  0  0  0  0999 V2000
   50.4202    8.2437   14.1590 C   0  0  0  0  0  0  0  0  0  0  0  0
   49.0172    8.1751   14.1113 C   0  0  0  0  0  0  0  0  0  0  0  0
   48.3059    8.4841   12.9370 C   0  0  0  0  0  0  0  0  0  0  0  0
   51.1018    8.6491   13.0068 C   0  0  0  0  0  0  0  0  0  0  0  0
   44.9000    6.7399   12.8453 N   0  0  0  0  0  0  0  0  0  0  0  0
   49.0270    8.8650   11.7965 C   0  0  0  0  0  0  0  0  0  0  0  0
   44.3053    5.4833   12.3581 C   0  0  0  0  0  0  0  0  0  0  0  0
   50.4192    8.9527   11.8303 C   0  0  0  0  0  0  0  0  0  0  0  0
   46.3426    6.9126   12.6187 C   0  0  0  0  0  0  0  0  0  0  0  0
   46.7933    8.3668   12.9250 C   0  0  2  0  0  0  0  0  0  0  0  0
   52.4675    8.7308   13.0471 O   0  0  0  0  0  0  0  0  0  0  0  0
   51.1356    7.9465   15.4538 C   0  0  0  0  0  0  0  0  0  0  0  0
   46.2514    9.2814   11.9611 O   0  0  0  0  0  0  0  0  0  0  0  0
   52.2574    7.0946   15.2647 O   0  0  0  0  0  0  0  0  0  0  0  0
   42.8756    5.4368   12.9296 C   0  0  0  0  0  0  0  0  0  0  0  0
   44.2193    5.4749   10.8233 C   0  0  0  0  0  0  0  0  0  0  0  0
   45.0655    4.2416   12.8488 C   0  0  0  0  0  0  0  0  0  0  0  0
   50.5204    8.8208   13.6054 C   0  0  0  0  0  0  0  0  0  0  0  0
   49.8053    7.8335   12.9033 C   0  0  0  0  0  0  0  0  0  0  0  0
   48.8218    7.0571   13.5353 C   0  0  0  0  0  0  0  0  0  0  0  0
   50.2362    9.0129   14.9600 C   0  0  0  0  0  0  0  0  0  0  0  0
   45.8831    5.4700   11.6589 N   0  0  0  0  0  0  0  0  0  0  0  0
   48.5617    7.2766   14.8957 C   0  0  0  0  0  0  0  0  0  0  0  0
   44.4295    5.6557   11.5110 C   0  0  0  0  0  0  0  0  0  0  0  0
   49.2661    8.2492   15.6064 C   0  0  0  0  0  0  0  0  0  0  0  0
   46.5768    6.4437   12.5169 C   0  0  0  0  0  0  0  0  0  0  0  0
   48.0479    6.0187   12.7481 C   0  0  2  0  0  0  0  0  0  0  0  0
   50.9224    9.9685   15.6546 O   0  0  0  0  0  0  0  0  0  0  0  0
   51.5695    9.6231   12.8814 C   0  0  0  0  0  0  0  0  0  0  0  0
   48.0787    4.7681   13.4487 O   0  0  0  0  0  0  0  0  0  0  0  0
   50.9986   10.2949   11.7604 O   0  0  0  0  0  0  0  0  0  0  0  0
   43.6810    5.3353   12.8161 C   0  0  0  0  0  0  0  0  0  0  0  0
   43.9805    4.6493   10.4339 C   0  0  0  0  0  0  0  0  0  0  0  0
   44.0680    7.0727   11.0348 C   0  0  0  0  0  0  0  0  0  0  0  0
   44.7191    6.6033   13.1686 O   0  0  0  0  0  0  0  0  0  0  0  0
   45.6738    4.7134   12.4499 O   0  0  0  0  0  0  0  0  0  0  0  0
   48.8815    9.1364   13.3313 O   0  0  0  0  0  0  0  0  0  0  0  0
   49.9713    7.5423   12.2008 O   0  0  0  0  0  0  0  0  0  0  0  0
   46.8923    7.1947   14.5808 O   0  0  0  0  0  0  0  0  0  0  0  0
   47.6414    6.7930   10.9695 O   0  0  0  0  0  0  0  0  0  0  0  0
   45.8028    5.8267   12.9291 C   0  0  0  0  0  0  0  0  0  0  0  0
   47.0985    6.5108   13.3375 C   0  0  1  0  0  0  0  0  0  0  0  0
   47.5407    7.4675   12.2320 C   0  0  1  0  0  0  0  0  0  0  0  0
   48.9121    8.0238   12.5758 C   0  0  0  0  0  0  0  0  0  0  0  0
   48.4662    7.8796   15.0039 H   0  0  0  0  0  0  0  0  0  0  0  0
   44.3626    7.5382   12.5138 H   0  0  0  0  0  0  0  0  0  0  0  0
   48.5027    9.1109   10.8755 H   0  0  0  0  0  0  0  0  0  0  0  0
   50.9460    9.2572   10.9310 H   0  0  0  0  0  0  0  0  0  0  0  0
   46.5935    6.6857   11.5764 H   0  0  0  0  0  0  0  0  0  0  0  0
   46.8951    6.2197   13.2634 H   0  0  0  0  0  0  0  0  0  0  0  0
   46.4077    8.6826   13.9032 H   0  0  0  0  0  0  0  0  0  0  0  0
   52.7685    9.1517   12.2219 H   0  0  0  0  0  0  0  0  0  0  0  0
   50.4692    7.4514   16.1673 H   0  0  0  0  0  0  0  0  0  0  0  0
   51.4762    8.8849   15.9031 H   0  0  0  0  0  0  0  0  0  0  0  0
   45.5678    8.8106   11.4591 H   0  0  0  0  0  0  0  0  0  0  0  0
   52.6989    7.4208   14.4560 H   0  0  0  0  0  0  0  0  0  0  0  0
   42.3536    4.5255   12.6144 H   0  0  0  0  0  0  0  0  0  0  0  0
   42.2771    6.2908   12.5896 H   0  0  0  0  0  0  0  0  0  0  0  0
   42.8837    5.4484   14.0265 H   0  0  0  0  0  0  0  0  0  0  0  0
   45.2081    5.4214   10.3569 H   0  0  0  0  0  0  0  0  0  0  0  0
   43.7188    6.3740   10.4473 H   0  0  0  0  0  0  0  0  0  0  0  0
   43.6487    4.6097   10.4685 H   0  0  0  0  0  0  0  0  0  0  0  0
   46.0699    4.1790   12.4147 H   0  0  0  0  0  0  0  0  0  0  0  0
   45.1667    4.2427   13.9405 H   0  0  0  0  0  0  0  0  0  0  0  0
   44.5382    3.3218   12.5692 H   0  0  0  0  0  0  0  0  0  0  0  0
   50.0209    7.6799   11.8457 H   0  0  0  0  0  0  0  0  0  0  0  0
   46.0779    4.5377   12.0358 H   0  0  0  0  0  0  0  0  0  0  0  0
   47.8048    6.6862   15.4094 H   0  0  0  0  0  0  0  0  0  0  0  0
   49.0445    8.3971   16.6590 H   0  0  0  0  0  0  0  0  0  0  0  0
   46.5630    7.4343   12.0517 H   0  0  0  0  0  0  0  0  0  0  0  0
   46.0751    6.5085   13.4877 H   0  0  0  0  0  0  0  0  0  0  0  0
   48.5361    5.8462   11.7816 H   0  0  0  0  0  0  0  0  0  0  0  0
   50.5820   10.0072   16.5648 H   0  0  0  0  0  0  0  0  0  0  0  0
   52.0342   10.3809   13.5193 H   0  0  0  0  0  0  0  0  0  0  0  0
   52.3653    8.9597   12.5220 H   0  0  0  0  0  0  0  0  0  0  0  0
   48.9813    4.6669   13.7961 H   0  0  0  0  0  0  0  0  0  0  0  0
   50.1024   10.5684   12.0261 H   0  0  0  0  0  0  0  0  0  0  0  0
   43.9095    6.0549   13.6089 H   0  0  0  0  0  0  0  0  0  0  0  0
   42.5953    5.3607   12.6596 H   0  0  0  0  0  0  0  0  0  0  0  0
   43.9366    4.3355   13.1855 H   0  0  0  0  0  0  0  0  0  0  0  0
   44.4894    4.8316    9.4797 H   0  0  0  0  0  0  0  0  0  0  0  0
   42.9019    4.7234   10.2500 H   0  0  0  0  0  0  0  0  0  0  0  0
   44.1917    3.6160   10.7336 H   0  0  0  0  0  0  0  0  0  0  0  0
   44.2810    7.8280   11.7984 H   0  0  0  0  0  0  0  0  0  0  0  0
   42.9990    7.1456   10.7997 H   0  0  0  0  0  0  0  0  0  0  0  0
   44.6228    7.3412   10.1282 H   0  0  0  0  0  0  0  0  0  0  0  0
   43.9697    6.0465   12.8609 H   0  0  0  0  0  0  0  0  0  0  0  0
   49.8230    9.3649   13.4786 H   0  0  0  0  0  0  0  0  0  0  0  0
   46.0560    7.6928   14.4839 H   0  0  0  0  0  0  0  0  0  0  0  0
   48.5165    6.3533   10.9447 H   0  0  0  0  0  0  0  0  0  0  0  0
   47.8449    5.7285   13.5132 H   0  0  0  0  0  0  0  0  0  0  0  0
   46.8419    8.3005   12.1023 H   0  0  0  0  0  0  0  0  0  0  0  0
 10  3  1  0
 11  4  1  0
 12  1  1  0
 10 13  1  0
 14 12  1  0
 15  7  1  0
 16  7  1  0
 17  7  1  0
  6  8  1  0
  2  1  2  0
  3  2  1  0
  4  1  1  0
  5  9  1  0
  6  3  2  0
  7  5  1  0
  8  4  2  0
  9 10  1  0
 27 20  1  0
 28 21  1  0
 29 18  1  0
 27 30  1  0
 31 29  1  0
 32 24  1  0
 33 24  1  0
 34 24  1  0
 23 25  1  0
 19 18  2  0
 20 19  1  0
 21 18  1  0
 22 26  1  0
 23 20  2  0
 24 22  1  0
 25 21  2  0
 26 27  1  0
 41 36  2  0
 42 39  1  0
 43 40  1  0
 41 35  1  0
 43 44  1  0
 42 43  1  0
 44 37  1  0
 41 42  1  0
 44 38  2  0
  2 45  1  0
  5 46  1  0
  6 47  1  0
  8 48  1  0
  9 49  1  0
  9 50  1  0
 10 51  1  6
 11 52  1  0
 12 53  1  0
 12 54  1  0
 13 55  1  0
 14 56  1  0
 15 57  1  0
 15 58  1  0
 15 59  1  0
 16 60  1  0
 16 61  1  0
 16 62  1  0
 17 63  1  0
 17 64  1  0
 17 65  1  0
 19 66  1  0
 22 67  1  0
 23 68  1  0
 25 69  1  0
 26 70  1  0
 26 71  1  0
 27 72  1  1
 28 73  1  0
 29 74  1  0
 29 75  1  0
 30 76  1  0
 31 77  1  0
 32 78  1  0
 32 79  1  0
 32 80  1  0
 33 81  1  0
 33 82  1  0
 33 83  1  0
 34 84  1  0
 34 85  1  0
 34 86  1  0
 35 87  1  0
 37 88  1  0
 39 89  1  0
 40 90  1  0
 42 91  1  1
 43 92  1  6
M  END
> <Uni-Dock RESULT> 
ENERGY=   -5.698  LOWER_BOUND=    0.000  UPPER_BOUND=    0.000
INTER + INTRA:          -5.698
INTER:                  -5.698
INTRA:                   0.000
UNBOUND:                 0.000

$$$$

     RDKit          3D

 92 91  0  0  0  0  0  0  0  0999 V2000
   48.1728   12.2445   18.6320 C   0  0  0  0  0  0  0  0  0  0  0  0
   47.6142   11.0702   19.1653 C   0  0  0  0  0  0  0  0  0  0  0  0
   47.9347    9.8023   18.6457 C   0  0  0  0  0  0  0  0  0  0  0  0
   49.0493   12.1266   17.5483 C   0  0  0  0  0  0  0  0  0  0  0  0
   47.4512    7.0413   21.2523 N   0  0  0  0  0  0  0  0  0  0  0  0
   48.8347    9.7247   17.5734 C   0  0  0  0  0  0  0  0  0  0  0  0
   48.2300    6.3363   22.2850 C   0  0  0  0  0  0  0  0  0  0  0  0
   49.3872   10.8812   17.0220 C   0  0  0  0  0  0  0  0  0  0  0  0
   48.1590    8.0866   20.4982 C   0  0  0  0  0  0  0  0  0  0  0  0
   47.3297    8.5609   19.2739 C   0  0  2  0  0  0  0  0  0  0  0  0
   49.5888   13.2655   17.0141 O   0  0  0  0  0  0  0  0  0  0  0  0
   47.7640   13.5840   19.1934 C   0  0  0  0  0  0  0  0  0  0  0  0
   47.2391    7.5226   18.2874 O   0  0  0  0  0  0  0  0  0  0  0  0
   48.8790   14.4370   19.4147 O   0  0  0  0  0  0  0  0  0  0  0  0
   47.2177    5.4923   23.0824 C   0  0  0  0  0  0  0  0  0  0  0  0
   49.2601    5.3907   21.6465 C   0  0  0  0  0  0  0  0  0  0  0  0
   48.9310    7.2993   23.2554 C   0  0  0  0  0  0  0  0  0  0  0  0
   48.2763   11.9831   17.8767 C   0  0  0  0  0  0  0  0  0  0  0  0
   48.9982   11.0438   18.6354 C   0  0  0  0  0  0  0  0  0  0  0  0
   48.5558   10.6353   19.9030 C   0  0  0  0  0  0  0  0  0  0  0  0
   47.1012   12.5135   18.4156 C   0  0  0  0  0  0  0  0  0  0  0  0
   49.4310    7.2318   21.4282 N   0  0  0  0  0  0  0  0  0  0  0  0
   47.3721   11.1874   20.4134 C   0  0  0  0  0  0  0  0  0  0  0  0
   48.7758    5.9466   21.7257 C   0  0  0  0  0  0  0  0  0  0  0  0
   46.6477   12.1236   19.6744 C   0  0  0  0  0  0  0  0  0  0  0  0
   48.5990    8.2432   20.7569 C   0  0  0  0  0  0  0  0  0  0  0  0
   49.3391    9.6017   20.6872 C   0  0  2  0  0  0  0  0  0  0  0  0
   46.3895   13.4263   17.6900 O   0  0  0  0  0  0  0  0  0  0  0  0
   48.7975   12.3917   16.5239 C   0  0  0  0  0  0  0  0  0  0  0  0
   49.5720   10.0868   22.0162 O   0  0  0  0  0  0  0  0  0  0  0  0
   48.9396   11.2518   15.6787 O   0  0  0  0  0  0  0  0  0  0  0  0
   47.7154    6.0928   22.8303 C   0  0  0  0  0  0  0  0  0  0  0  0
   49.8881    5.0126   22.2406 C   0  0  0  0  0  0  0  0  0  0  0  0
   48.1451    5.3104   20.4757 C   0  0  0  0  0  0  0  0  0  0  0  0
   47.2228    7.0840   21.5714 O   0  0  0  0  0  0  0  0  0  0  0  0
   49.2149    7.5478   22.4748 O   0  0  0  0  0  0  0  0  0  0  0  0
   47.5523   10.4677   18.0772 O   0  0  0  0  0  0  0  0  0  0  0  0
   49.7239   10.7932   18.5072 O   0  0  0  0  0  0  0  0  0  0  0  0
   46.8867    9.6430   20.9346 O   0  0  0  0  0  0  0  0  0  0  0  0
   49.9532    8.2166   19.4096 O   0  0  0  0  0  0  0  0  0  0  0  0
   48.3133    7.8733   21.7220 C   0  0  0  0  0  0  0  0  0  0  0  0
   48.2266    9.1358   20.8779 C   0  0  1  0  0  0  0  0  0  0  0  0
   48.6527    8.8217   19.4451 C   0  0  1  0  0  0  0  0  0  0  0  0
   48.7168   10.1154   18.6511 C   0  0  0  0  0  0  0  0  0  0  0  0
   46.9144   11.1419   19.9977 H   0  0  0  0  0  0  0  0  0  0  0  0
   46.9898    6.3732   20.6386 H   0  0  0  0  0  0  0  0  0  0  0  0
   49.0991    8.7575   17.1510 H   0  0  0  0  0  0  0  0  0  0  0  0
   50.0757   10.7855   16.1878 H   0  0  0  0  0  0  0  0  0  0  0  0
   49.1222    7.7087   20.1372 H   0  0  0  0  0  0  0  0  0  0  0  0
   48.3507    8.9407   21.1574 H   0  0  0  0  0  0  0  0  0  0  0  0
   46.3003    8.7874   19.5811 H   0  0  0  0  0  0  0  0  0  0  0  0
   50.0589   13.0213   16.1967 H   0  0  0  0  0  0  0  0  0  0  0  0
   47.2489   13.4684   20.1524 H   0  0  0  0  0  0  0  0  0  0  0  0
   47.0766   14.0744   18.4966 H   0  0  0  0  0  0  0  0  0  0  0  0
   47.5454    6.6985   18.6971 H   0  0  0  0  0  0  0  0  0  0  0  0
   49.4542   14.3219   18.6329 H   0  0  0  0  0  0  0  0  0  0  0  0
   47.7153    4.9284   23.8803 H   0  0  0  0  0  0  0  0  0  0  0  0
   46.7033    4.7664   22.4407 H   0  0  0  0  0  0  0  0  0  0  0  0
   46.4543    6.1240   23.5530 H   0  0  0  0  0  0  0  0  0  0  0  0
   50.0578    5.9380   21.1344 H   0  0  0  0  0  0  0  0  0  0  0  0
   48.7894    4.7226   20.9170 H   0  0  0  0  0  0  0  0  0  0  0  0
   49.7374    4.7621   22.4062 H   0  0  0  0  0  0  0  0  0  0  0  0
   49.7183    7.8783   22.7594 H   0  0  0  0  0  0  0  0  0  0  0  0
   48.2189    8.0050   23.6994 H   0  0  0  0  0  0  0  0  0  0  0  0
   49.4063    6.7518   24.0779 H   0  0  0  0  0  0  0  0  0  0  0  0
   49.9149   10.6247   18.2198 H   0  0  0  0  0  0  0  0  0  0  0  0
   49.7825    7.6514   22.2939 H   0  0  0  0  0  0  0  0  0  0  0  0
   47.0086   10.8883   21.3951 H   0  0  0  0  0  0  0  0  0  0  0  0
   45.7351   12.5352   20.0946 H   0  0  0  0  0  0  0  0  0  0  0  0
   48.3571    7.9188   19.7400 H   0  0  0  0  0  0  0  0  0  0  0  0
   47.6641    8.3824   21.3090 H   0  0  0  0  0  0  0  0  0  0  0  0
   50.3256    9.4590   20.2306 H   0  0  0  0  0  0  0  0  0  0  0  0
   45.5837   13.6645   18.1798 H   0  0  0  0  0  0  0  0  0  0  0  0
   48.1369   13.1001   16.0150 H   0  0  0  0  0  0  0  0  0  0  0  0
   49.7779   12.8712   16.6303 H   0  0  0  0  0  0  0  0  0  0  0  0
   49.7935   11.0299   21.9324 H   0  0  0  0  0  0  0  0  0  0  0  0
   48.1986   10.6553   15.8881 H   0  0  0  0  0  0  0  0  0  0  0  0
   46.8628    6.6977   22.5049 H   0  0  0  0  0  0  0  0  0  0  0  0
   47.3219    5.1121   23.1257 H   0  0  0  0  0  0  0  0  0  0  0  0
   48.1375    6.5612   23.7269 H   0  0  0  0  0  0  0  0  0  0  0  0
   50.6755    4.8768   21.4894 H   0  0  0  0  0  0  0  0  0  0  0  0
   49.4893    4.0197   22.4812 H   0  0  0  0  0  0  0  0  0  0  0  0
   50.3574    5.4064   23.1498 H   0  0  0  0  0  0  0  0  0  0  0  0
   47.2858    5.8842   20.1135 H   0  0  0  0  0  0  0  0  0  0  0  0
   47.7869    4.2962   20.6913 H   0  0  0  0  0  0  0  0  0  0  0  0
   48.8716    5.2352   19.6581 H   0  0  0  0  0  0  0  0  0  0  0  0
   47.4133    6.3209   22.1611 H   0  0  0  0  0  0  0  0  0  0  0  0
   47.7444   11.3128   17.6195 H   0  0  0  0  0  0  0  0  0  0  0  0
   46.2975    8.8780   20.7779 H   0  0  0  0  0  0  0  0  0  0  0  0
   50.6113    8.9412   19.4508 H   0  0  0  0  0  0  0  0  0  0  0  0
   48.8810    9.8857   21.3356 H   0  0  0  0  0  0  0  0  0  0  0  0
   47.9592    8.1347   18.9489 H   0  0  0  0  0  0  0  0  0  0  0  0
 10  3  1  0
 11  4  1  0
 12  1  1  0
 10 13  1  0
 14 12  1  0
 15  7  1  0
 16  7  1  0
 17  7  1  0
  6  8  1  0
  2  1  2  0
  3  2  1  0
  4  1  1  0
  5  9  1  0
  6  3  2  0
  7  5  1  0
  8  4  2  0
  9 10  1  0
 27 20  1  0
 28 21  1  0
 29 18  1  0
 27 30  1  0
 31 29  1  0
 32 24  1  0
 33 24  1  0
 34 24  1  0
 23 25  1  0
 19 18  2  0
 20 19  1  0
 21 18  1  0
 22 26  1  0
 23 20  2  0
 24 22  1  0
 25 21  2  0
 26 27  1  0
 41 36  2  0
 42 39  1  0
 43 40  1  0
 41 35  1  0
 43 44  1  0
 42 43  1  0
 44 37  1  0
 41 42  1  0
 44 38  2  0
  2 45  1  0
  5 46  1  0
  6 47  1  0
  8 48  1  0
  9 49  1  0
  9 50  1  0
 10 51  1  6
 11 52  1  0
 12 53  1  0
 12 54  1  0
 13 55  1  0
 14 56  1  0
 15 57  1  0
 15 58  1  0
 15 59  1  0
 16 60  1  0
 16 61  1  0
 16 62  1  0
 17 63  1  0
 17 64  1  0
 17 65  1  0
 19 66  1  0
 22 67  1  0
 23 68  1  0
 25 69  1  0
 26 70  1  0
 26 71  1  0
 27 72  1  1
 28 73  1  0
 29 74  1  0
 29 75  1  0
 30 76  1  0
 31 77  1  0
 32 78  1  0
 32 79  1  0
 32 80  1  0
 33 81  1  0
 33 82  1  0
 33 83  1  0
 34 84  1  0
 34 85  1  0
 34 86  1  0
 35 87  1  0
 37 88  1  0
 39 89  1  0
 40 90  1  0
 42 91  1  1
 43 92  1  6
M  END
> <Uni-Dock RESULT> 
ENERGY=   -5.436  LOWER_BOUND=    6.093  UPPER_BOUND=    8.278
INTER + INTRA:          -5.436
INTER:                  -5.436
INTRA:                   0.000
UNBOUND:                 0.000

$$$$

     RDKit          3D

 92 91  0  0  0  0  0  0  0  0999 V2000
   48.7775    5.9284   19.4139 C   0  0  0  0  0  0  0  0  0  0  0  0
   48.0956    7.0989   19.0396 C   0  0  0  0  0  0  0  0  0  0  0  0
   47.5975    7.9983   20.0005 C   0  0  0  0  0  0  0  0  0  0  0  0
   48.9358    5.6631   20.7781 C   0  0  0  0  0  0  0  0  0  0  0  0
   47.2628   11.5389   18.5853 N   0  0  0  0  0  0  0  0  0  0  0  0
   47.7959    7.7078   21.3577 C   0  0  0  0  0  0  0  0  0  0  0  0
   48.0589   12.7734   18.4739 C   0  0  0  0  0  0  0  0  0  0  0  0
   48.4577    6.5429   21.7475 C   0  0  0  0  0  0  0  0  0  0  0  0
   47.9109   10.3998   19.2520 C   0  0  0  0  0  0  0  0  0  0  0  0
   46.8940    9.2640   19.5477 C   0  0  2  0  0  0  0  0  0  0  0  0
   49.5878    4.5194   21.1527 O   0  0  0  0  0  0  0  0  0  0  0  0
   49.2536    4.9721   18.3484 C   0  0  0  0  0  0  0  0  0  0  0  0
   45.9529    9.6719   20.5514 O   0  0  0  0  0  0  0  0  0  0  0  0
   50.5865    4.5344   18.5756 O   0  0  0  0  0  0  0  0  0  0  0  0
   47.2709   13.7074   17.5361 C   0  0  0  0  0  0  0  0  0  0  0  0
   48.2019   13.4603   19.8417 C   0  0  0  0  0  0  0  0  0  0  0  0
   49.4463   12.5275   17.8615 C   0  0  0  0  0  0  0  0  0  0  0  0
   48.4121    5.8107   20.1225 C   0  0  0  0  0  0  0  0  0  0  0  0
   48.9437    7.1064   20.2552 C   0  0  0  0  0  0  0  0  0  0  0  0
   48.9979    7.9877   19.1643 C   0  0  0  0  0  0  0  0  0  0  0  0
   47.9396    5.4091   18.8703 C   0  0  0  0  0  0  0  0  0  0  0  0
   48.9908   11.7990   19.5512 N   0  0  0  0  0  0  0  0  0  0  0  0
   48.5146    7.5523   17.9220 C   0  0  0  0  0  0  0  0  0  0  0  0
   48.0804   12.9359   19.3317 C   0  0  0  0  0  0  0  0  0  0  0  0
   47.9886    6.2683   17.7741 C   0  0  0  0  0  0  0  0  0  0  0  0
   48.4407   10.4640   19.2667 C   0  0  0  0  0  0  0  0  0  0  0  0
   49.5513    9.3874   19.3420 C   0  0  2  0  0  0  0  0  0  0  0  0
   47.4202    4.1538   18.7266 O   0  0  0  0  0  0  0  0  0  0  0  0
   48.3819    4.9022   21.3235 C   0  0  0  0  0  0  0  0  0  0  0  0
   50.5340    9.6441   18.3300 O   0  0  0  0  0  0  0  0  0  0  0  0
   47.6477    5.5052   22.3871 O   0  0  0  0  0  0  0  0  0  0  0  0
   47.7972   13.1551   17.8358 C   0  0  0  0  0  0  0  0  0  0  0  0
   48.8138   14.1777   19.8744 C   0  0  0  0  0  0  0  0  0  0  0  0
   46.7559   12.7788   20.0974 C   0  0  0  0  0  0  0  0  0  0  0  0
   47.2430   11.6153   18.1984 O   0  0  0  0  0  0  0  0  0  0  0  0
   49.4208   11.9894   18.5408 O   0  0  0  0  0  0  0  0  0  0  0  0
   47.3092    7.0877   20.0053 O   0  0  0  0  0  0  0  0  0  0  0  0
   49.3593    7.3858   20.8510 O   0  0  0  0  0  0  0  0  0  0  0  0
   47.7340    9.0485   17.7111 O   0  0  0  0  0  0  0  0  0  0  0  0
   48.8962   10.0762   21.0811 O   0  0  0  0  0  0  0  0  0  0  0  0
   48.4985   11.1945   18.4838 C   0  0  0  0  0  0  0  0  0  0  0  0
   48.5644    9.6888   18.6891 C   0  0  1  0  0  0  0  0  0  0  0  0
   48.1275    9.3483   20.1126 C   0  0  1  0  0  0  0  0  0  0  0  0
   48.3484    7.8655   20.3587 C   0  0  0  0  0  0  0  0  0  0  0  0
   47.9452    7.3144   17.9819 H   0  0  0  0  0  0  0  0  0  0  0  0
   46.3468   11.7423   18.9797 H   0  0  0  0  0  0  0  0  0  0  0  0
   47.4201    8.3849   22.1219 H   0  0  0  0  0  0  0  0  0  0  0  0
   48.5885    6.3454   22.8072 H   0  0  0  0  0  0  0  0  0  0  0  0
   48.3579   10.7185   20.2004 H   0  0  0  0  0  0  0  0  0  0  0  0
   48.7094   10.0116   18.6096 H   0  0  0  0  0  0  0  0  0  0  0  0
   46.3084    9.0386   18.6469 H   0  0  0  0  0  0  0  0  0  0  0  0
   49.4922    4.4202   22.1170 H   0  0  0  0  0  0  0  0  0  0  0  0
   49.2305    5.4411   17.3595 H   0  0  0  0  0  0  0  0  0  0  0  0
   48.5940    4.0986   18.3246 H   0  0  0  0  0  0  0  0  0  0  0  0
   46.0442   10.6303   20.6697 H   0  0  0  0  0  0  0  0  0  0  0  0
   50.6431    4.3590   19.5355 H   0  0  0  0  0  0  0  0  0  0  0  0
   47.7955   14.6599   17.3950 H   0  0  0  0  0  0  0  0  0  0  0  0
   46.2767   13.9380   17.9382 H   0  0  0  0  0  0  0  0  0  0  0  0
   47.1356   13.2567   16.5452 H   0  0  0  0  0  0  0  0  0  0  0  0
   48.8271   12.8812   20.5286 H   0  0  0  0  0  0  0  0  0  0  0  0
   47.2262   13.6067   20.3181 H   0  0  0  0  0  0  0  0  0  0  0  0
   48.6667   14.4467   19.7371 H   0  0  0  0  0  0  0  0  0  0  0  0
   50.0836   11.9271   18.5207 H   0  0  0  0  0  0  0  0  0  0  0  0
   49.3699   12.0091   16.8984 H   0  0  0  0  0  0  0  0  0  0  0  0
   49.9710   13.4737   17.6840 H   0  0  0  0  0  0  0  0  0  0  0  0
   49.3122    7.4266   21.2300 H   0  0  0  0  0  0  0  0  0  0  0  0
   49.8318   11.9114   18.9775 H   0  0  0  0  0  0  0  0  0  0  0  0
   48.5471    8.2164   17.0599 H   0  0  0  0  0  0  0  0  0  0  0  0
   47.6223    5.9575   16.8004 H   0  0  0  0  0  0  0  0  0  0  0  0
   47.6573   10.2163   19.9898 H   0  0  0  0  0  0  0  0  0  0  0  0
   48.0049   10.4471   18.2627 H   0  0  0  0  0  0  0  0  0  0  0  0
   50.0696    9.4618   20.3053 H   0  0  0  0  0  0  0  0  0  0  0  0
   47.0992    4.0439   17.8151 H   0  0  0  0  0  0  0  0  0  0  0  0
   47.9174    3.9352   21.1079 H   0  0  0  0  0  0  0  0  0  0  0  0
   49.4036    4.7084   21.6712 H   0  0  0  0  0  0  0  0  0  0  0  0
   51.0571    8.8295   18.2383 H   0  0  0  0  0  0  0  0  0  0  0  0
   46.9107    5.9918   21.9763 H   0  0  0  0  0  0  0  0  0  0  0  0
   47.2210   12.3321   17.4009 H   0  0  0  0  0  0  0  0  0  0  0  0
   47.2178   14.0736   17.6788 H   0  0  0  0  0  0  0  0  0  0  0  0
   48.7281   13.2522   17.2652 H   0  0  0  0  0  0  0  0  0  0  0  0
   49.0440   14.0713   20.9414 H   0  0  0  0  0  0  0  0  0  0  0  0
   48.2005   15.0796   19.7594 H   0  0  0  0  0  0  0  0  0  0  0  0
   49.7574   14.3532   19.3444 H   0  0  0  0  0  0  0  0  0  0  0  0
   46.1450   11.9637   19.6957 H   0  0  0  0  0  0  0  0  0  0  0  0
   46.1548   13.6940   20.0313 H   0  0  0  0  0  0  0  0  0  0  0  0
   46.9326   12.5780   21.1606 H   0  0  0  0  0  0  0  0  0  0  0  0
   47.3486   12.5872   18.0951 H   0  0  0  0  0  0  0  0  0  0  0  0
   47.6002    6.1741   20.2077 H   0  0  0  0  0  0  0  0  0  0  0  0
   46.8834    9.5316   17.7157 H   0  0  0  0  0  0  0  0  0  0  0  0
   49.7329    9.5847   21.2160 H   0  0  0  0  0  0  0  0  0  0  0  0
   49.5964    9.3736   18.5001 H   0  0  0  0  0  0  0  0  0  0  0  0
   47.0727    9.5842   20.2887 H   0  0  0  0  0  0  0  0  0  0  0  0
 10  3  1  0
 11  4  1  0
 12  1  1  0
 10 13  1  0
 14 12  1  0
 15  7  1  0
 16  7  1  0
 17  7  1  0
  6  8  1  0
  2  1  2  0
  3  2  1  0
  4  1  1  0
  5  9  1  0
  6  3  2  0
  7  5  1  0
  8  4  2  0
  9 10  1  0
 27 20  1  0
 28 21  1  0
 29 18  1  0
 27 30  1  0
 31 29  1  0
 32 24  1  0
 33 24  1  0
 34 24  1  0
 23 25  1  0
 19 18  2  0
 20 19  1  0
 21 18  1  0
 22 26  1  0
 23 20  2  0
 24 22  1  0
 25 21  2  0
 26 27  1  0
 41 36  2  0
 42 39  1  0
 43 40  1  0
 41 35  1  0
 43 44  1  0
 42 43  1  0
 44 37  1  0
 41 42  1  0
 44 38  2  0
  2 45  1  0
  5 46  1  0
  6 47  1  0
  8 48  1  0
  9 49  1  0
  9 50  1  0
 10 51  1  6
 11 52  1  0
 12 53  1  0
 12 54  1  0
 13 55  1  0
 14 56  1  0
 15 57  1  0
 15 58  1  0
 15 59  1  0
 16 60  1  0
 16 61  1  0
 16 62  1  0
 17 63  1  0
 17 64  1  0
 17 65  1  0
 19 66  1  0
 22 67  1  0
 23 68  1  0
 25 69  1  0
 26 70  1  0
 26 71  1  0
 27 72  1  1
 28 73  1  0
 29 74  1  0
 29 75  1  0
 30 76  1  0
 31 77  1  0
 32 78  1  0
 32 79  1  0
 32 80  1  0
 33 81  1  0
 33 82  1  0
 33 83  1  0
 34 84  1  0
 34 85  1  0
 34 86  1  0
 35 87  1  0
 37 88  1  0
 39 89  1  0
 40 90  1  0
 42 91  1  1
 43 92  1  6
M  END
> <Uni-Dock RESULT> 
ENERGY=   -5.368  LOWER_BOUND=    5.815  UPPER_BOUND=    8.589
INTER + INTRA:          -5.368
INTER:                  -5.368
INTRA:                   0.000
UNBOUND:                 0.000

$$$$

     RDKit          3D

 92 91  0  0  0  0  0  0  0  0999 V2000
   48.5053   12.7642   17.8924 C   0  0  0  0  0  0  0  0  0  0  0  0
   47.7876   11.9285   18.7652 C   0  0  0  0  0  0  0  0  0  0  0  0
   47.8605   10.5267   18.6662 C   0  0  0  0  0  0  0  0  0  0  0  0
   49.2878   12.1665   16.8990 C   0  0  0  0  0  0  0  0  0  0  0  0
   47.0648    8.8289   22.0031 N   0  0  0  0  0  0  0  0  0  0  0  0
   48.6735    9.9659   17.6709 C   0  0  0  0  0  0  0  0  0  0  0  0
   47.7699    8.3479   23.2037 C   0  0  0  0  0  0  0  0  0  0  0  0
   49.3813   10.7806   16.7865 C   0  0  0  0  0  0  0  0  0  0  0  0
   47.8954    9.4499   20.9607 C   0  0  0  0  0  0  0  0  0  0  0  0
   47.0910    9.6654   19.6500 C   0  0  2  0  0  0  0  0  0  0  0  0
   49.9808   12.9722   16.0365 O   0  0  0  0  0  0  0  0  0  0  0  0
   48.3598   14.2615   18.0090 C   0  0  0  0  0  0  0  0  0  0  0  0
   46.7721    8.4082   19.0358 O   0  0  0  0  0  0  0  0  0  0  0  0
   49.6131   14.9293   17.9532 O   0  0  0  0  0  0  0  0  0  0  0  0
   46.6759    7.9824   24.2247 C   0  0  0  0  0  0  0  0  0  0  0  0
   48.5890    7.0851   22.8910 C   0  0  0  0  0  0  0  0  0  0  0  0
   48.6760    9.4215   23.8256 C   0  0  0  0  0  0  0  0  0  0  0  0
   48.5212   12.2700   17.2560 C   0  0  0  0  0  0  0  0  0  0  0  0
   49.1157   11.4959   18.2693 C   0  0  0  0  0  0  0  0  0  0  0  0
   48.6820   11.5808   19.6012 C   0  0  0  0  0  0  0  0  0  0  0  0
   47.4841   13.1396   17.6036 C   0  0  0  0  0  0  0  0  0  0  0  0
   49.0550    8.7098   22.1101 N   0  0  0  0  0  0  0  0  0  0  0  0
   47.6385   12.4635   19.9149 C   0  0  0  0  0  0  0  0  0  0  0  0
   48.2104    7.7152   22.7933 C   0  0  0  0  0  0  0  0  0  0  0  0
   47.0421   13.2410   18.9213 C   0  0  0  0  0  0  0  0  0  0  0  0
   48.3692    9.5976   21.1576 C   0  0  0  0  0  0  0  0  0  0  0  0
   49.3225   10.7155   20.6680 C   0  0  2  0  0  0  0  0  0  0  0  0
   46.8970   13.8972   16.6301 O   0  0  0  0  0  0  0  0  0  0  0  0
   49.0276   12.1452   15.8431 C   0  0  0  0  0  0  0  0  0  0  0  0
   49.7073   11.5351   21.7797 O   0  0  0  0  0  0  0  0  0  0  0  0
   48.9285   10.7950   15.3948 O   0  0  0  0  0  0  0  0  0  0  0  0
   47.2529    8.3785   23.7979 C   0  0  0  0  0  0  0  0  0  0  0  0
   49.1764    6.8022   23.5730 C   0  0  0  0  0  0  0  0  0  0  0  0
   47.4130    6.8490   21.8038 C   0  0  0  0  0  0  0  0  0  0  0  0
   46.8649    9.0071   22.2932 O   0  0  0  0  0  0  0  0  0  0  0  0
   48.9538    9.3644   23.0064 O   0  0  0  0  0  0  0  0  0  0  0  0
   47.5646   11.0426   17.9188 O   0  0  0  0  0  0  0  0  0  0  0  0
   49.7805   11.0936   18.2252 O   0  0  0  0  0  0  0  0  0  0  0  0
   46.9297   11.2649   20.8913 O   0  0  0  0  0  0  0  0  0  0  0  0
   49.6225    8.9197   19.8849 O   0  0  0  0  0  0  0  0  0  0  0  0
   48.0794    9.5980   22.1900 C   0  0  0  0  0  0  0  0  0  0  0  0
   48.1598   10.5354   20.9948 C   0  0  1  0  0  0  0  0  0  0  0  0
   48.4465    9.7271   19.7308 C   0  0  1  0  0  0  0  0  0  0  0  0
   48.6833   10.6824   18.5734 C   0  0  0  0  0  0  0  0  0  0  0  0
   47.1572   12.3747   19.5342 H   0  0  0  0  0  0  0  0  0  0  0  0
   46.4640    8.0978   21.6282 H   0  0  0  0  0  0  0  0  0  0  0  0
   48.7474    8.8851   17.5706 H   0  0  0  0  0  0  0  0  0  0  0  0
   49.9964   10.3133   16.0234 H   0  0  0  0  0  0  0  0  0  0  0  0
   48.7596    8.8150   20.7349 H   0  0  0  0  0  0  0  0  0  0  0  0
   48.2646   10.4167   21.3211 H   0  0  0  0  0  0  0  0  0  0  0  0
   46.1331   10.1539   19.8717 H   0  0  0  0  0  0  0  0  0  0  0  0
   50.3569   12.4100   15.3356 H   0  0  0  0  0  0  0  0  0  0  0  0
   47.8868   14.5386   18.9566 H   0  0  0  0  0  0  0  0  0  0  0  0
   47.7272   14.6285   17.1944 H   0  0  0  0  0  0  0  0  0  0  0  0
   46.9575    7.7086   19.6817 H   0  0  0  0  0  0  0  0  0  0  0  0
   50.1163   14.4801   17.2458 H   0  0  0  0  0  0  0  0  0  0  0  0
   47.1151    7.6112   25.1584 H   0  0  0  0  0  0  0  0  0  0  0  0
   46.0118    7.1981   23.8411 H   0  0  0  0  0  0  0  0  0  0  0  0
   46.0572    8.8528   24.4756 H   0  0  0  0  0  0  0  0  0  0  0  0
   49.4377    7.2986   22.2335 H   0  0  0  0  0  0  0  0  0  0  0  0
   47.9726    6.3203   22.4060 H   0  0  0  0  0  0  0  0  0  0  0  0
   48.9951    6.6454   23.8085 H   0  0  0  0  0  0  0  0  0  0  0  0
   49.5208    9.6714   23.1737 H   0  0  0  0  0  0  0  0  0  0  0  0
   48.1188   10.3438   24.0281 H   0  0  0  0  0  0  0  0  0  0  0  0
   49.0973    9.0771   24.7776 H   0  0  0  0  0  0  0  0  0  0  0  0
   49.9241   10.8141   18.0044 H   0  0  0  0  0  0  0  0  0  0  0  0
   49.5199    9.3051   22.8020 H   0  0  0  0  0  0  0  0  0  0  0  0
   47.2850   12.5490   20.9411 H   0  0  0  0  0  0  0  0  0  0  0  0
   46.2367   13.9166   19.1929 H   0  0  0  0  0  0  0  0  0  0  0  0
   48.0199    9.0255   20.2924 H   0  0  0  0  0  0  0  0  0  0  0  0
   47.5033   10.0627   21.6393 H   0  0  0  0  0  0  0  0  0  0  0  0
   50.2439   10.2672   20.2781 H   0  0  0  0  0  0  0  0  0  0  0  0
   46.1713   14.4130   17.0217 H   0  0  0  0  0  0  0  0  0  0  0  0
   48.4685   12.7690   15.1392 H   0  0  0  0  0  0  0  0  0  0  0  0
   50.0792   12.4523   15.7945 H   0  0  0  0  0  0  0  0  0  0  0  0
   50.0795   12.3521   21.4063 H   0  0  0  0  0  0  0  0  0  0  0  0
   48.1105   10.4327   15.7799 H   0  0  0  0  0  0  0  0  0  0  0  0
   46.4976    8.9957   23.3007 H   0  0  0  0  0  0  0  0  0  0  0  0
   46.7169    7.6216   24.3842 H   0  0  0  0  0  0  0  0  0  0  0  0
   47.7970    9.0164   24.5038 H   0  0  0  0  0  0  0  0  0  0  0  0
   49.8866    6.3053   22.9011 H   0  0  0  0  0  0  0  0  0  0  0  0
   48.6301    6.0181   24.1110 H   0  0  0  0  0  0  0  0  0  0  0  0
   49.7551    7.3658   24.3141 H   0  0  0  0  0  0  0  0  0  0  0  0
   46.6437    7.4272   21.2813 H   0  0  0  0  0  0  0  0  0  0  0  0
   46.9016    6.0302   22.3247 H   0  0  0  0  0  0  0  0  0  0  0  0
   48.0698    6.3994   21.0500 H   0  0  0  0  0  0  0  0  0  0  0  0
   46.9567    8.4403   23.0911 H   0  0  0  0  0  0  0  0  0  0  0  0
   47.8705   11.6586   17.2207 H   0  0  0  0  0  0  0  0  0  0  0  0
   46.2123   10.6059   20.9809 H   0  0  0  0  0  0  0  0  0  0  0  0
   50.3945    9.4932   19.6982 H   0  0  0  0  0  0  0  0  0  0  0  0
   48.9555   11.2610   21.1959 H   0  0  0  0  0  0  0  0  0  0  0  0
   47.6207    9.0556   19.4736 H   0  0  0  0  0  0  0  0  0  0  0  0
 10  3  1  0
 11  4  1  0
 12  1  1  0
 10 13  1  0
 14 12  1  0
 15  7  1  0
 16  7  1  0
 17  7  1  0
  6  8  1  0
  2  1  2  0
  3  2  1  0
  4  1  1  0
  5  9  1  0
  6  3  2  0
  7  5  1  0
  8  4  2  0
  9 10  1  0
 27 20  1  0
 28 21  1  0
 29 18  1  0
 27 30  1  0
 31 29  1  0
 32 24  1  0
 33 24  1  0
 34 24  1  0
 23 25  1  0
 19 18  2  0
 20 19  1  0
 21 18  1  0
 22 26  1  0
 23 20  2  0
 24 22  1  0
 25 21  2  0
 26 27  1  0
 41 36  2  0
 42 39  1  0
 43 40  1  0
 41 35  1  0
 43 44  1  0
 42 43  1  0
 44 37  1  0
 41 42  1  0
 44 38  2  0
  2 45  1  0
  5 46  1  0
  6 47  1  0
  8 48  1  0
  9 49  1  0
  9 50  1  0
 10 51  1  6
 11 52  1  0
 12 53  1  0
 12 54  1  0
 13 55  1  0
 14 56  1  0
 15 57  1  0
 15 58  1  0
 15 59  1  0
 16 60  1  0
 16 61  1  0
 16 62  1  0
 17 63  1  0
 17 64  1  0
 17 65  1  0
 19 66  1  0
 22 67  1  0
 23 68  1  0
 25 69  1  0
 26 70  1  0
 26 71  1  0
 27 72  1  1
 28 73  1  0
 29 74  1  0
 29 75  1  0
 30 76  1  0
 31 77  1  0
 32 78  1  0
 32 79  1  0
 32 80  1  0
 33 81  1  0
 33 82  1  0
 33 83  1  0
 34 84  1  0
 34 85  1  0
 34 86  1  0
 35 87  1  0
 37 88  1  0
 39 89  1  0
 40 90  1  0
 42 91  1  1
 43 92  1  6
M  END
> <Uni-Dock RESULT> 
ENERGY=   -5.252  LOWER_BOUND=    6.203  UPPER_BOUND=    8.747
INTER + INTRA:          -5.252
INTER:                  -5.252
INTRA:                   0.000
UNBOUND:                 0.000

$$$$

     RDKit          3D

 92 91  0  0  0  0  0  0  0  0999 V2000
   48.3144    6.3371   22.0319 C   0  0  0  0  0  0  0  0  0  0  0  0
   48.8040    7.6310   21.7835 C   0  0  0  0  0  0  0  0  0  0  0  0
   49.1605    8.0453   20.4868 C   0  0  0  0  0  0  0  0  0  0  0  0
   48.2060    5.4530   20.9535 C   0  0  0  0  0  0  0  0  0  0  0  0
   48.9330   11.8469   20.1033 N   0  0  0  0  0  0  0  0  0  0  0  0
   49.0164    7.1366   19.4288 C   0  0  0  0  0  0  0  0  0  0  0  0
   47.9539   12.8679   19.6923 C   0  0  0  0  0  0  0  0  0  0  0  0
   48.5459    5.8434   19.6595 C   0  0  0  0  0  0  0  0  0  0  0  0
   48.4734   10.4504   20.0756 C   0  0  0  0  0  0  0  0  0  0  0  0
   49.6562    9.4617   20.2630 C   0  0  2  0  0  0  0  0  0  0  0  0
   47.7419    4.1868   21.1874 O   0  0  0  0  0  0  0  0  0  0  0  0
   47.9879    5.9244   23.4460 C   0  0  0  0  0  0  0  0  0  0  0  0
   50.5271    9.4879   19.1227 O   0  0  0  0  0  0  0  0  0  0  0  0
   46.7406    5.2490   23.5343 O   0  0  0  0  0  0  0  0  0  0  0  0
   48.5823   14.2295   20.0446 C   0  0  0  0  0  0  0  0  0  0  0  0
   47.7123   12.8184   18.1750 C   0  0  0  0  0  0  0  0  0  0  0  0
   46.6188   12.7404   20.4417 C   0  0  0  0  0  0  0  0  0  0  0  0
   48.6972    5.9583   21.4323 C   0  0  0  0  0  0  0  0  0  0  0  0
   47.9709    6.9576   20.7590 C   0  0  0  0  0  0  0  0  0  0  0  0
   47.7749    8.2253   21.3281 C   0  0  0  0  0  0  0  0  0  0  0  0
   49.2204    6.2507   22.6946 C   0  0  0  0  0  0  0  0  0  0  0  0
   47.1903   11.3864   19.2445 N   0  0  0  0  0  0  0  0  0  0  0  0
   48.3141    8.4850   22.5963 C   0  0  0  0  0  0  0  0  0  0  0  0
   47.9115   12.6114   18.8586 C   0  0  0  0  0  0  0  0  0  0  0  0
   49.0329    7.5024   23.2781 C   0  0  0  0  0  0  0  0  0  0  0  0
   47.9402   10.4255   20.0691 C   0  0  0  0  0  0  0  0  0  0  0  0
   47.0112    9.2918   20.5689 C   0  0  2  0  0  0  0  0  0  0  0  0
   49.9282    5.2903   23.3600 O   0  0  0  0  0  0  0  0  0  0  0  0
   48.8743    4.6125   20.7795 C   0  0  0  0  0  0  0  0  0  0  0  0
   45.9956    9.8457   21.4160 O   0  0  0  0  0  0  0  0  0  0  0  0
   49.5108    4.7529   19.5111 O   0  0  0  0  0  0  0  0  0  0  0  0
   48.1498   13.5335   20.0665 C   0  0  0  0  0  0  0  0  0  0  0  0
   46.9963   13.3458   17.8598 C   0  0  0  0  0  0  0  0  0  0  0  0
   49.2479   12.3062   18.1614 C   0  0  0  0  0  0  0  0  0  0  0  0
   48.9388   12.0951   20.4102 O   0  0  0  0  0  0  0  0  0  0  0  0
   46.7310   11.9591   20.0829 O   0  0  0  0  0  0  0  0  0  0  0  0
   49.5871    7.2859   20.8787 O   0  0  0  0  0  0  0  0  0  0  0  0
   47.5198    6.8690   20.1310 O   0  0  0  0  0  0  0  0  0  0  0  0
   48.8511   10.0026   22.0475 O   0  0  0  0  0  0  0  0  0  0  0  0
   47.5593    9.1846   18.6673 O   0  0  0  0  0  0  0  0  0  0  0  0
   47.7655   11.4185   20.4341 C   0  0  0  0  0  0  0  0  0  0  0  0
   47.9359    9.9956   20.9438 C   0  0  1  0  0  0  0  0  0  0  0  0
   48.4274    9.1018   19.8068 C   0  0  1  0  0  0  0  0  0  0  0  0
   48.4413    7.6583   20.2804 C   0  0  0  0  0  0  0  0  0  0  0  0
   48.9138    8.3289   22.6132 H   0  0  0  0  0  0  0  0  0  0  0  0
   49.8080   11.9715   19.5985 H   0  0  0  0  0  0  0  0  0  0  0  0
   49.2858    7.4298   18.4163 H   0  0  0  0  0  0  0  0  0  0  0  0
   48.4526    5.1630   18.8184 H   0  0  0  0  0  0  0  0  0  0  0  0
   47.9869   10.2292   19.1190 H   0  0  0  0  0  0  0  0  0  0  0  0
   47.7421   10.2947   20.8767 H   0  0  0  0  0  0  0  0  0  0  0  0
   50.2654    9.7621   21.1255 H   0  0  0  0  0  0  0  0  0  0  0  0
   47.8564    3.6683   20.3708 H   0  0  0  0  0  0  0  0  0  0  0  0
   47.9329    6.7948   24.1075 H   0  0  0  0  0  0  0  0  0  0  0  0
   48.7754    5.2628   23.8212 H   0  0  0  0  0  0  0  0  0  0  0  0
   50.2882   10.2601   18.5865 H   0  0  0  0  0  0  0  0  0  0  0  0
   46.7167    4.6445   22.7667 H   0  0  0  0  0  0  0  0  0  0  0  0
   47.9151   15.0553   19.7704 H   0  0  0  0  0  0  0  0  0  0  0  0
   49.5304   14.3854   19.5153 H   0  0  0  0  0  0  0  0  0  0  0  0
   48.7813   14.3109   21.1203 H   0  0  0  0  0  0  0  0  0  0  0  0
   47.1881   11.9063   17.8723 H   0  0  0  0  0  0  0  0  0  0  0  0
   48.6555   12.8637   17.6196 H   0  0  0  0  0  0  0  0  0  0  0  0
   47.0990   13.6655   17.8489 H   0  0  0  0  0  0  0  0  0  0  0  0
   46.0859   11.8208   20.1741 H   0  0  0  0  0  0  0  0  0  0  0  0
   46.7703   12.7414   21.5276 H   0  0  0  0  0  0  0  0  0  0  0  0
   45.9522   13.5775   20.2026 H   0  0  0  0  0  0  0  0  0  0  0  0
   47.5617    6.7364   19.7730 H   0  0  0  0  0  0  0  0  0  0  0  0
   46.3393   11.6316   19.7590 H   0  0  0  0  0  0  0  0  0  0  0  0
   48.1744    9.4601   23.0601 H   0  0  0  0  0  0  0  0  0  0  0  0
   49.4384    7.7309   24.2590 H   0  0  0  0  0  0  0  0  0  0  0  0
   48.7560    9.9848   19.4877 H   0  0  0  0  0  0  0  0  0  0  0  0
   48.3684   10.9352   20.9381 H   0  0  0  0  0  0  0  0  0  0  0  0
   46.4922    8.8397   19.7155 H   0  0  0  0  0  0  0  0  0  0  0  0
   50.2580    5.6598   24.1970 H   0  0  0  0  0  0  0  0  0  0  0  0
   49.4826    3.9302   21.3808 H   0  0  0  0  0  0  0  0  0  0  0  0
   47.8969    4.1389   20.6286 H   0  0  0  0  0  0  0  0  0  0  0  0
   45.6053    9.1011   21.9045 H   0  0  0  0  0  0  0  0  0  0  0  0
   50.1609    5.4722   19.6035 H   0  0  0  0  0  0  0  0  0  0  0  0
   48.8451   13.0941   20.7890 H   0  0  0  0  0  0  0  0  0  0  0  0
   48.5784   14.4918   19.7472 H   0  0  0  0  0  0  0  0  0  0  0  0
   47.2125   13.7512   20.5912 H   0  0  0  0  0  0  0  0  0  0  0  0
   46.7906   12.7279   16.9774 H   0  0  0  0  0  0  0  0  0  0  0  0
   47.4610   14.2750   17.5087 H   0  0  0  0  0  0  0  0  0  0  0  0
   46.0343   13.6117   18.3137 H   0  0  0  0  0  0  0  0  0  0  0  0
   49.9764   11.8633   18.8486 H   0  0  0  0  0  0  0  0  0  0  0  0
   49.6988   13.2229   17.7616 H   0  0  0  0  0  0  0  0  0  0  0  0
   49.1098   11.6149   17.3219 H   0  0  0  0  0  0  0  0  0  0  0  0
   48.6826   12.9793   20.0654 H   0  0  0  0  0  0  0  0  0  0  0  0
   49.4430    6.3513   21.1359 H   0  0  0  0  0  0  0  0  0  0  0  0
   49.6162   10.5430   21.7654 H   0  0  0  0  0  0  0  0  0  0  0  0
   46.8101    8.5744   18.8286 H   0  0  0  0  0  0  0  0  0  0  0  0
   46.9647    9.6619   21.3251 H   0  0  0  0  0  0  0  0  0  0  0  0
   49.4333    9.3751   19.4716 H   0  0  0  0  0  0  0  0  0  0  0  0
 10  3  1  0
 11  4  1  0
 12  1  1  0
 10 13  1  0
 14 12  1  0
 15  7  1  0
 16  7  1  0
 17  7  1  0
  6  8  1  0
  2  1  2  0
  3  2  1  0
  4  1  1  0
  5  9  1  0
  6  3  2  0
  7  5  1  0
  8  4  2  0
  9 10  1  0
 27 20  1  0
 28 21  1  0
 29 18  1  0
 27 30  1  0
 31 29  1  0
 32 24  1  0
 33 24  1  0
 34 24  1  0
 23 25  1  0
 19 18  2  0
 20 19  1  0
 21 18  1  0
 22 26  1  0
 23 20  2  0
 24 22  1  0
 25 21  2  0
 26 27  1  0
 41 36  2  0
 42 39  1  0
 43 40  1  0
 41 35  1  0
 43 44  1  0
 42 43  1  0
 44 37  1  0
 41 42  1  0
 44 38  2  0
  2 45  1  0
  5 46  1  0
  6 47  1  0
  8 48  1  0
  9 49  1  0
  9 50  1  0
 10 51  1  6
 11 52  1  0
 12 53  1  0
 12 54  1  0
 13 55  1  0
 14 56  1  0
 15 57  1  0
 15 58  1  0
 15 59  1  0
 16 60  1  0
 16 61  1  0
 16 62  1  0
 17 63  1  0
 17 64  1  0
 17 65  1  0
 19 66  1  0
 22 67  1  0
 23 68  1  0
 25 69  1  0
 26 70  1  0
 26 71  1  0
 27 72  1  1
 28 73  1  0
 29 74  1  0
 29 75  1  0
 30 76  1  0
 31 77  1  0
 32 78  1  0
 32 79  1  0
 32 80  1  0
 33 81  1  0
 33 82  1  0
 33 83  1  0
 34 84  1  0
 34 85  1  0
 34 86  1  0
 35 87  1  0
 37 88  1  0
 39 89  1  0
 40 90  1  0
 42 91  1  1
 43 92  1  6
M  END
> <Uni-Dock RESULT> 
ENERGY=   -5.246  LOWER_BOUND=    7.071  UPPER_BOUND=    9.271
INTER + INTRA:          -5.246
INTER:                  -5.246
INTRA:                   0.000
UNBOUND:                 0.000

$$$$

     RDKit          3D

 92 91  0  0  0  0  0  0  0  0999 V2000
   48.8432    7.7996   16.2082 C   0  0  0  0  0  0  0  0  0  0  0  0
   49.3450    7.5315   17.4933 C   0  0  0  0  0  0  0  0  0  0  0  0
   49.2946    8.4950   18.5176 C   0  0  0  0  0  0  0  0  0  0  0  0
   48.3038    9.0661   15.9601 C   0  0  0  0  0  0  0  0  0  0  0  0
   49.3167    6.8759   21.9859 N   0  0  0  0  0  0  0  0  0  0  0  0
   48.7260    9.7452   18.2353 C   0  0  0  0  0  0  0  0  0  0  0  0
   48.3587    6.3859   22.9921 C   0  0  0  0  0  0  0  0  0  0  0  0
   48.2364   10.0336   16.9609 C   0  0  0  0  0  0  0  0  0  0  0  0
   48.7428    7.4271   20.7493 C   0  0  0  0  0  0  0  0  0  0  0  0
   49.8219    8.1492   19.8976 C   0  0  2  0  0  0  0  0  0  0  0  0
   47.8237    9.3409   14.7081 O   0  0  0  0  0  0  0  0  0  0  0  0
   48.9604    6.7504   15.1302 C   0  0  0  0  0  0  0  0  0  0  0  0
   50.2694    9.3459   20.5511 O   0  0  0  0  0  0  0  0  0  0  0  0
   47.7526    6.5955   14.3974 O   0  0  0  0  0  0  0  0  0  0  0  0
   49.1943    5.6454   24.0533 C   0  0  0  0  0  0  0  0  0  0  0  0
   47.6297    7.5560   23.6722 C   0  0  0  0  0  0  0  0  0  0  0  0
   47.3372    5.4008   22.4036 C   0  0  0  0  0  0  0  0  0  0  0  0
   48.9704    8.5954   16.2048 C   0  0  0  0  0  0  0  0  0  0  0  0
   48.1622    8.4117   17.3416 C   0  0  0  0  0  0  0  0  0  0  0  0
   48.2849    7.2689   18.1468 C   0  0  0  0  0  0  0  0  0  0  0  0
   49.9037    7.6062   15.8837 C   0  0  0  0  0  0  0  0  0  0  0  0
   47.3533    7.2174   21.8624 N   0  0  0  0  0  0  0  0  0  0  0  0
   49.2321    6.2962   17.7958 C   0  0  0  0  0  0  0  0  0  0  0  0
   48.0213    7.1705   23.1743 C   0  0  0  0  0  0  0  0  0  0  0  0
   50.0377    6.4624   16.6686 C   0  0  0  0  0  0  0  0  0  0  0  0
   48.2370    7.2679   20.6867 C   0  0  0  0  0  0  0  0  0  0  0  0
   47.4197    7.1095   19.3809 C   0  0  2  0  0  0  0  0  0  0  0  0
   50.6957    7.7713   14.7830 O   0  0  0  0  0  0  0  0  0  0  0  0
   48.7950    9.8376   15.3713 C   0  0  0  0  0  0  0  0  0  0  0  0
   46.7954    5.8189   19.3625 O   0  0  0  0  0  0  0  0  0  0  0  0
   48.9910   11.0046   16.1673 O   0  0  0  0  0  0  0  0  0  0  0  0
   48.7288    5.8240   23.4027 C   0  0  0  0  0  0  0  0  0  0  0  0
   46.9035    7.3164   24.2250 C   0  0  0  0  0  0  0  0  0  0  0  0
   49.0200    8.3249   23.3618 C   0  0  0  0  0  0  0  0  0  0  0  0
   49.4463    6.5088   22.0514 O   0  0  0  0  0  0  0  0  0  0  0  0
   47.2508    6.1087   21.9106 O   0  0  0  0  0  0  0  0  0  0  0  0
   49.7518    8.6899   17.7020 O   0  0  0  0  0  0  0  0  0  0  0  0
   47.5239    8.8130   17.5350 O   0  0  0  0  0  0  0  0  0  0  0  0
   49.7014    6.1773   19.4262 O   0  0  0  0  0  0  0  0  0  0  0  0
   47.3016    8.8795   20.2647 O   0  0  0  0  0  0  0  0  0  0  0  0
   48.2869    6.4311   21.3553 C   0  0  0  0  0  0  0  0  0  0  0  0
   48.4787    6.7695   19.8848 C   0  0  1  0  0  0  0  0  0  0  0  0
   48.4831    8.2865   19.7068 C   0  0  1  0  0  0  0  0  0  0  0  0
   48.5141    8.6125   18.2232 C   0  0  0  0  0  0  0  0  0  0  0  0
   49.7866    6.5571   17.7017 H   0  0  0  0  0  0  0  0  0  0  0  0
   49.9856    7.5125   22.4139 H   0  0  0  0  0  0  0  0  0  0  0  0
   48.6753   10.5094   19.0080 H   0  0  0  0  0  0  0  0  0  0  0  0
   47.8084   11.0140   16.7747 H   0  0  0  0  0  0  0  0  0  0  0  0
   47.9509    8.1467   20.9856 H   0  0  0  0  0  0  0  0  0  0  0  0
   48.3030    6.6137   20.1612 H   0  0  0  0  0  0  0  0  0  0  0  0
   50.7058    7.5076   19.7864 H   0  0  0  0  0  0  0  0  0  0  0  0
   47.6144   10.2913   14.6677 H   0  0  0  0  0  0  0  0  0  0  0  0
   49.2083    5.7733   15.5571 H   0  0  0  0  0  0  0  0  0  0  0  0
   49.7606    7.0305   14.4376 H   0  0  0  0  0  0  0  0  0  0  0  0
   49.9426    9.3236   21.4641 H   0  0  0  0  0  0  0  0  0  0  0  0
   47.4211    7.5025   14.2467 H   0  0  0  0  0  0  0  0  0  0  0  0
   48.5558    5.2434   24.8489 H   0  0  0  0  0  0  0  0  0  0  0  0
   49.9269    6.3108   24.5265 H   0  0  0  0  0  0  0  0  0  0  0  0
   49.7417    4.8026   23.6136 H   0  0  0  0  0  0  0  0  0  0  0  0
   46.9510    8.0718   22.9855 H   0  0  0  0  0  0  0  0  0  0  0  0
   48.3386    8.2948   24.0619 H   0  0  0  0  0  0  0  0  0  0  0  0
   47.0269    7.2034   24.5163 H   0  0  0  0  0  0  0  0  0  0  0  0
   46.6611    5.8890   21.6924 H   0  0  0  0  0  0  0  0  0  0  0  0
   47.8355    4.5732   21.8852 H   0  0  0  0  0  0  0  0  0  0  0  0
   46.7119    4.9651   23.1919 H   0  0  0  0  0  0  0  0  0  0  0  0
   47.4334    9.1807   17.5987 H   0  0  0  0  0  0  0  0  0  0  0  0
   46.7453    6.4005   21.7525 H   0  0  0  0  0  0  0  0  0  0  0  0
   49.3455    5.3998   18.4032 H   0  0  0  0  0  0  0  0  0  0  0  0
   50.7621    5.6928   16.4201 H   0  0  0  0  0  0  0  0  0  0  0  0
   48.7715    8.2226   20.6567 H   0  0  0  0  0  0  0  0  0  0  0  0
   48.9727    6.4591   20.7389 H   0  0  0  0  0  0  0  0  0  0  0  0
   46.6092    7.8476   19.3635 H   0  0  0  0  0  0  0  0  0  0  0  0
   51.3152    7.0240   14.7210 H   0  0  0  0  0  0  0  0  0  0  0  0
   49.4990    9.8859   14.5350 H   0  0  0  0  0  0  0  0  0  0  0  0
   47.7817    9.8670   14.9531 H   0  0  0  0  0  0  0  0  0  0  0  0
   46.5178    5.6581   18.4445 H   0  0  0  0  0  0  0  0  0  0  0  0
   49.7008   10.7944   16.8002 H   0  0  0  0  0  0  0  0  0  0  0  0
   49.5773    5.6847   22.7251 H   0  0  0  0  0  0  0  0  0  0  0  0
   49.1181    5.7565   24.4263 H   0  0  0  0  0  0  0  0  0  0  0  0
   48.0404    4.9836   23.2569 H   0  0  0  0  0  0  0  0  0  0  0  0
   46.3622    8.2625   24.1039 H   0  0  0  0  0  0  0  0  0  0  0  0
   47.3137    7.3009   25.2419 H   0  0  0  0  0  0  0  0  0  0  0  0
   46.1734    6.5017   24.1536 H   0  0  0  0  0  0  0  0  0  0  0  0
   49.8878    8.2269   22.7013 H   0  0  0  0  0  0  0  0  0  0  0  0
   49.4000    8.3502   24.3906 H   0  0  0  0  0  0  0  0  0  0  0  0
   48.5493    9.2945   23.1616 H   0  0  0  0  0  0  0  0  0  0  0  0
   49.1766    6.2715   22.9665 H   0  0  0  0  0  0  0  0  0  0  0  0
   49.6117    8.8901   16.7529 H   0  0  0  0  0  0  0  0  0  0  0  0
   50.3795    6.3950   20.0968 H   0  0  0  0  0  0  0  0  0  0  0  0
   46.5922    8.7987   19.5940 H   0  0  0  0  0  0  0  0  0  0  0  0
   47.6590    6.3027   19.3279 H   0  0  0  0  0  0  0  0  0  0  0  0
   49.3448    8.7571   20.1917 H   0  0  0  0  0  0  0  0  0  0  0  0
 10  3  1  0
 11  4  1  0
 12  1  1  0
 10 13  1  0
 14 12  1  0
 15  7  1  0
 16  7  1  0
 17  7  1  0
  6  8  1  0
  2  1  2  0
  3  2  1  0
  4  1  1  0
  5  9  1  0
  6  3  2  0
  7  5  1  0
  8  4  2  0
  9 10  1  0
 27 20  1  0
 28 21  1  0
 29 18  1  0
 27 30  1  0
 31 29  1  0
 32 24  1  0
 33 24  1  0
 34 24  1  0
 23 25  1  0
 19 18  2  0
 20 19  1  0
 21 18  1  0
 22 26  1  0
 23 20  2  0
 24 22  1  0
 25 21  2  0
 26 27  1  0
 41 36  2  0
 42 39  1  0
 43 40  1  0
 41 35  1  0
 43 44  1  0
 42 43  1  0
 44 37  1  0
 41 42  1  0
 44 38  2  0
  2 45  1  0
  5 46  1  0
  6 47  1  0
  8 48  1  0
  9 49  1  0
  9 50  1  0
 10 51  1  6
 11 52  1  0
 12 53  1  0
 12 54  1  0
 13 55  1  0
 14 56  1  0
 15 57  1  0
 15 58  1  0
 15 59  1  0
 16 60  1  0
 16 61  1  0
 16 62  1  0
 17 63  1  0
 17 64  1  0
 17 65  1  0
 19 66  1  0
 22 67  1  0
 23 68  1  0
 25 69  1  0
 26 70  1  0
 26 71  1  0
 27 72  1  1
 28 73  1  0
 29 74  1  0
 29 75  1  0
 30 76  1  0
 31 77  1  0
 32 78  1  0
 32 79  1  0
 32 80  1  0
 33 81  1  0
 33 82  1  0
 33 83  1  0
 34 84  1  0
 34 85  1  0
 34 86  1  0
 35 87  1  0
 37 88  1  0
 39 89  1  0
 40 90  1  0
 42 91  1  1
 43 92  1  6
M  END
> <Uni-Dock RESULT> 
ENERGY=   -5.088  LOWER_BOUND=    5.244  UPPER_BOUND=    7.874
INTER + INTRA:          -5.088
INTER:                  -5.088
INTRA:                   0.000
UNBOUND:                 0.000

$$$$

     RDKit          3D

 92 91  0  0  0  0  0  0  0  0999 V2000
   48.3335    6.2105   20.5016 C   0  0  0  0  0  0  0  0  0  0  0  0
   48.8883    7.4906   20.3309 C   0  0  0  0  0  0  0  0  0  0  0  0
   49.0939    8.0376   19.0508 C   0  0  0  0  0  0  0  0  0  0  0  0
   48.0042    5.4750   19.3583 C   0  0  0  0  0  0  0  0  0  0  0  0
   49.1277   11.8641   19.1358 N   0  0  0  0  0  0  0  0  0  0  0  0
   48.7301    7.2776   17.9301 C   0  0  0  0  0  0  0  0  0  0  0  0
   48.1880   12.9894   18.9916 C   0  0  0  0  0  0  0  0  0  0  0  0
   48.1919    5.9990   18.0807 C   0  0  0  0  0  0  0  0  0  0  0  0
   48.5558   10.5145   19.0192 C   0  0  0  0  0  0  0  0  0  0  0  0
   49.6681    9.4356   18.9173 C   0  0  2  0  0  0  0  0  0  0  0  0
   47.4749    4.2224   19.5141 O   0  0  0  0  0  0  0  0  0  0  0  0
   48.1740    5.6486   21.8928 C   0  0  0  0  0  0  0  0  0  0  0  0
   50.3714    9.5456   17.6712 O   0  0  0  0  0  0  0  0  0  0  0  0
   46.8999    5.0500   22.0877 O   0  0  0  0  0  0  0  0  0  0  0  0
   48.9687   14.2535   19.3983 C   0  0  0  0  0  0  0  0  0  0  0  0
   47.7347   13.1431   17.5308 C   0  0  0  0  0  0  0  0  0  0  0  0
   46.9641   12.8574   19.9107 C   0  0  0  0  0  0  0  0  0  0  0  0
   48.5969    5.8845   19.8132 C   0  0  0  0  0  0  0  0  0  0  0  0
   47.8686    7.0041   19.3715 C   0  0  0  0  0  0  0  0  0  0  0  0
   47.8581    8.2021   20.1024 C   0  0  0  0  0  0  0  0  0  0  0  0
   49.3126    5.9845   21.0092 C   0  0  0  0  0  0  0  0  0  0  0  0
   47.2507   11.6272   18.4974 N   0  0  0  0  0  0  0  0  0  0  0  0
   48.5877    8.2679   21.2981 C   0  0  0  0  0  0  0  0  0  0  0  0
   48.0093   12.8409   18.1498 C   0  0  0  0  0  0  0  0  0  0  0  0
   49.3113    7.1641   21.7513 C   0  0  0  0  0  0  0  0  0  0  0  0
   48.0266   10.5253   19.0887 C   0  0  0  0  0  0  0  0  0  0  0  0
   47.0863    9.4013   19.5894 C   0  0  2  0  0  0  0  0  0  0  0  0
   50.0249    4.9054   21.4503 O   0  0  0  0  0  0  0  0  0  0  0  0
   48.5707    4.6208   18.9941 C   0  0  0  0  0  0  0  0  0  0  0  0
   46.2471    9.9113   20.6341 O   0  0  0  0  0  0  0  0  0  0  0  0
   49.0341    4.8749   17.6695 O   0  0  0  0  0  0  0  0  0  0  0  0
   48.4879   13.5897   19.4053 C   0  0  0  0  0  0  0  0  0  0  0  0
   47.0275   13.7507   17.3863 C   0  0  0  0  0  0  0  0  0  0  0  0
   49.2063   12.5379   17.2330 C   0  0  0  0  0  0  0  0  0  0  0  0
   49.1964   12.0717   19.4645 O   0  0  0  0  0  0  0  0  0  0  0  0
   46.9610   12.1207   19.4537 O   0  0  0  0  0  0  0  0  0  0  0  0
   49.5071    7.2096   19.2874 O   0  0  0  0  0  0  0  0  0  0  0  0
   47.3288    7.0231   18.8110 O   0  0  0  0  0  0  0  0  0  0  0  0
   49.1659    9.8035   20.8506 O   0  0  0  0  0  0  0  0  0  0  0  0
   47.3543    9.4939   17.6278 O   0  0  0  0  0  0  0  0  0  0  0  0
   47.9864   11.4750   19.5850 C   0  0  0  0  0  0  0  0  0  0  0  0
   48.1087    9.9920   19.9004 C   0  0  1  0  0  0  0  0  0  0  0  0
   48.3625    9.2152   18.6100 C   0  0  1  0  0  0  0  0  0  0  0  0
   48.3237    7.7264   18.9106 C   0  0  0  0  0  0  0  0  0  0  0  0
   49.1692    8.0723   21.2086 H   0  0  0  0  0  0  0  0  0  0  0  0
   49.9314   11.9930   18.5246 H   0  0  0  0  0  0  0  0  0  0  0  0
   48.8794    7.6752   16.9285 H   0  0  0  0  0  0  0  0  0  0  0  0
   47.9272    5.4350   17.1914 H   0  0  0  0  0  0  0  0  0  0  0  0
   47.9246   10.4449   18.1261 H   0  0  0  0  0  0  0  0  0  0  0  0
   47.9326   10.3091   19.8968 H   0  0  0  0  0  0  0  0  0  0  0  0
   50.4138    9.5872   19.7086 H   0  0  0  0  0  0  0  0  0  0  0  0
   47.4319    3.8023   18.6364 H   0  0  0  0  0  0  0  0  0  0  0  0
   48.2829    6.4327   22.6490 H   0  0  0  0  0  0  0  0  0  0  0  0
   48.9490    4.8962   22.0707 H   0  0  0  0  0  0  0  0  0  0  0  0
   50.1244   10.3918   17.2665 H   0  0  0  0  0  0  0  0  0  0  0  0
   46.7200    4.5475   21.2689 H   0  0  0  0  0  0  0  0  0  0  0  0
   48.3398   15.1483   19.3204 H   0  0  0  0  0  0  0  0  0  0  0  0
   49.8436   14.4116   18.7558 H   0  0  0  0  0  0  0  0  0  0  0  0
   49.3213   14.1886   20.4350 H   0  0  0  0  0  0  0  0  0  0  0  0
   47.1006   12.3113   17.2080 H   0  0  0  0  0  0  0  0  0  0  0  0
   48.5921   13.1952   16.8508 H   0  0  0  0  0  0  0  0  0  0  0  0
   47.1536   14.0619   17.3964 H   0  0  0  0  0  0  0  0  0  0  0  0
   46.3256   12.0144   19.6230 H   0  0  0  0  0  0  0  0  0  0  0  0
   47.2645   12.7148   20.9555 H   0  0  0  0  0  0  0  0  0  0  0  0
   46.3416   13.7591   19.8686 H   0  0  0  0  0  0  0  0  0  0  0  0
   47.3096    6.9333   18.4381 H   0  0  0  0  0  0  0  0  0  0  0  0
   46.5025   11.8617   19.1564 H   0  0  0  0  0  0  0  0  0  0  0  0
   48.5942    9.1853   21.8844 H   0  0  0  0  0  0  0  0  0  0  0  0
   49.8665    7.2432   22.6810 H   0  0  0  0  0  0  0  0  0  0  0  0
   48.7149   10.1076   18.3473 H   0  0  0  0  0  0  0  0  0  0  0  0
   48.6117   10.8951   19.9367 H   0  0  0  0  0  0  0  0  0  0  0  0
   46.4185    9.0925   18.7765 H   0  0  0  0  0  0  0  0  0  0  0  0
   50.4970    5.1467   22.2657 H   0  0  0  0  0  0  0  0  0  0  0  0
   49.1986    3.8315   19.4182 H   0  0  0  0  0  0  0  0  0  0  0  0
   47.5463    4.2338   18.9368 H   0  0  0  0  0  0  0  0  0  0  0  0
   45.8688    9.1390   21.0879 H   0  0  0  0  0  0  0  0  0  0  0  0
   49.7476    5.5336   17.7453 H   0  0  0  0  0  0  0  0  0  0  0  0
   49.2385   13.0203   19.9630 H   0  0  0  0  0  0  0  0  0  0  0  0
   48.9451   14.5502   19.1362 H   0  0  0  0  0  0  0  0  0  0  0  0
   47.6536   13.8014   20.0839 H   0  0  0  0  0  0  0  0  0  0  0  0
   46.6512   13.2610   16.4800 H   0  0  0  0  0  0  0  0  0  0  0  0
   47.5136   14.6839   17.0772 H   0  0  0  0  0  0  0  0  0  0  0  0
   46.1630   14.0204   18.0043 H   0  0  0  0  0  0  0  0  0  0  0  0
   49.9844   11.9674   17.7507 H   0  0  0  0  0  0  0  0  0  0  0  0
   49.6710   13.4657   16.8768 H   0  0  0  0  0  0  0  0  0  0  0  0
   48.8967   11.9658   16.3506 H   0  0  0  0  0  0  0  0  0  0  0  0
   48.9682   13.0064   19.2631 H   0  0  0  0  0  0  0  0  0  0  0  0
   49.3240    6.2617   19.4561 H   0  0  0  0  0  0  0  0  0  0  0  0
   49.9260   10.3237   20.5212 H   0  0  0  0  0  0  0  0  0  0  0  0
   46.5872    8.9184   17.8283 H   0  0  0  0  0  0  0  0  0  0  0  0
   47.1758    9.6776   20.3809 H   0  0  0  0  0  0  0  0  0  0  0  0
   49.3311    9.4619   18.1627 H   0  0  0  0  0  0  0  0  0  0  0  0
 10  3  1  0
 11  4  1  0
 12  1  1  0
 10 13  1  0
 14 12  1  0
 15  7  1  0
 16  7  1  0
 17  7  1  0
  6  8  1  0
  2  1  2  0
  3  2  1  0
  4  1  1  0
  5  9  1  0
  6  3  2  0
  7  5  1  0
  8  4  2  0
  9 10  1  0
 27 20  1  0
 28 21  1  0
 29 18  1  0
 27 30  1  0
 31 29  1  0
 32 24  1  0
 33 24  1  0
 34 24  1  0
 23 25  1  0
 19 18  2  0
 20 19  1  0
 21 18  1  0
 22 26  1  0
 23 20  2  0
 24 22  1  0
 25 21  2  0
 26 27  1  0
 41 36  2  0
 42 39  1  0
 43 40  1  0
 41 35  1  0
 43 44  1  0
 42 43  1  0
 44 37  1  0
 41 42  1  0
 44 38  2  0
  2 45  1  0
  5 46  1  0
  6 47  1  0
  8 48  1  0
  9 49  1  0
  9 50  1  0
 10 51  1  6
 11 52  1  0
 12 53  1  0
 12 54  1  0
 13 55  1  0
 14 56  1  0
 15 57  1  0
 15 58  1  0
 15 59  1  0
 16 60  1  0
 16 61  1  0
 16 62  1  0
 17 63  1  0
 17 64  1  0
 17 65  1  0
 19 66  1  0
 22 67  1  0
 23 68  1  0
 25 69  1  0
 26 70  1  0
 26 71  1  0
 27 72  1  1
 28 73  1  0
 29 74  1  0
 29 75  1  0
 30 76  1  0
 31 77  1  0
 32 78  1  0
 32 79  1  0
 32 80  1  0
 33 81  1  0
 33 82  1  0
 33 83  1  0
 34 84  1  0
 34 85  1  0
 34 86  1  0
 35 87  1  0
 37 88  1  0
 39 89  1  0
 40 90  1  0
 42 91  1  1
 43 92  1  6
M  END
> <Uni-Dock RESULT> 
ENERGY=   -5.052  LOWER_BOUND=    5.852  UPPER_BOUND=    8.397
INTER + INTRA:          -5.052
INTER:                  -5.052
INTRA:                   0.000
UNBOUND:                 0.000

$$$$

     RDKit          3D

 92 91  0  0  0  0  0  0  0  0999 V2000
   48.7565   12.1582   18.6929 C   0  0  0  0  0  0  0  0  0  0  0  0
   49.2761   10.8639   18.8665 C   0  0  0  0  0  0  0  0  0  0  0  0
   48.6168    9.9080   19.6614 C   0  0  0  0  0  0  0  0  0  0  0  0
   47.5662   12.4864   19.3501 C   0  0  0  0  0  0  0  0  0  0  0  0
   49.5074    6.3368   18.6106 N   0  0  0  0  0  0  0  0  0  0  0  0
   47.4144   10.2688   20.2858 C   0  0  0  0  0  0  0  0  0  0  0  0
   49.0134    5.2874   17.7023 C   0  0  0  0  0  0  0  0  0  0  0  0
   46.8918   11.5540   20.1363 C   0  0  0  0  0  0  0  0  0  0  0  0
   48.7569    7.6012   18.6198 C   0  0  0  0  0  0  0  0  0  0  0  0
   49.2007    8.5140   19.7951 C   0  0  2  0  0  0  0  0  0  0  0  0
   47.0588   13.7483   19.1970 O   0  0  0  0  0  0  0  0  0  0  0  0
   49.5226   13.1625   17.8677 C   0  0  0  0  0  0  0  0  0  0  0  0
   48.8064    7.9502   21.0545 O   0  0  0  0  0  0  0  0  0  0  0  0
   48.6828   13.8679   16.9639 O   0  0  0  0  0  0  0  0  0  0  0  0
   50.0923    4.1880   17.6919 C   0  0  0  0  0  0  0  0  0  0  0  0
   47.7015    4.6807   18.2256 C   0  0  0  0  0  0  0  0  0  0  0  0
   48.8217    5.7938   16.2646 C   0  0  0  0  0  0  0  0  0  0  0  0
   48.3733   12.2180   19.3994 C   0  0  0  0  0  0  0  0  0  0  0  0
   47.8075   11.0614   18.8325 C   0  0  0  0  0  0  0  0  0  0  0  0
   48.5741   10.1807   18.0539 C   0  0  0  0  0  0  0  0  0  0  0  0
   49.7255   12.4815   19.1658 C   0  0  0  0  0  0  0  0  0  0  0  0
   47.7467    6.4593   17.6769 N   0  0  0  0  0  0  0  0  0  0  0  0
   49.9283   10.4755   17.8399 C   0  0  0  0  0  0  0  0  0  0  0  0
   48.2626    5.1556   18.1284 C   0  0  0  0  0  0  0  0  0  0  0  0
   50.5024   11.6213   18.3920 C   0  0  0  0  0  0  0  0  0  0  0  0
   48.4547    7.6465   18.1820 C   0  0  0  0  0  0  0  0  0  0  0  0
   47.9452    8.9280   17.4776 C   0  0  2  0  0  0  0  0  0  0  0  0
   50.2887   13.6007   19.7103 O   0  0  0  0  0  0  0  0  0  0  0  0
   47.5053   13.1330   20.2227 C   0  0  0  0  0  0  0  0  0  0  0  0
   48.2359    8.8496   16.0758 O   0  0  0  0  0  0  0  0  0  0  0  0
   46.9250   12.4220   21.3142 O   0  0  0  0  0  0  0  0  0  0  0  0
   49.6355    4.8436   17.5090 C   0  0  0  0  0  0  0  0  0  0  0  0
   47.2536    4.1038   17.6283 C   0  0  0  0  0  0  0  0  0  0  0  0
   48.3461    5.0606   19.6611 C   0  0  0  0  0  0  0  0  0  0  0  0
   49.8314    6.2477   18.4034 O   0  0  0  0  0  0  0  0  0  0  0  0
   48.3385    6.3334   16.7410 O   0  0  0  0  0  0  0  0  0  0  0  0
   48.8871   10.7407   20.0432 O   0  0  0  0  0  0  0  0  0  0  0  0
   47.0509   10.8883   18.7730 O   0  0  0  0  0  0  0  0  0  0  0  0
   50.3202    8.8467   18.1333 O   0  0  0  0  0  0  0  0  0  0  0  0
   46.7461    8.1671   18.8601 O   0  0  0  0  0  0  0  0  0  0  0  0
   48.9818    6.9224   17.5924 C   0  0  0  0  0  0  0  0  0  0  0  0
   48.9755    8.4150   17.8853 C   0  0  1  0  0  0  0  0  0  0  0  0
   48.0617    8.6973   19.0763 C   0  0  1  0  0  0  0  0  0  0  0  0
   47.9359   10.2001   19.2605 C   0  0  0  0  0  0  0  0  0  0  0  0
   50.2123   10.5942   18.3782 H   0  0  0  0  0  0  0  0  0  0  0  0
   49.6367    5.9620   19.5480 H   0  0  0  0  0  0  0  0  0  0  0  0
   46.8843    9.5501   20.9072 H   0  0  0  0  0  0  0  0  0  0  0  0
   45.9619   11.8021   20.6391 H   0  0  0  0  0  0  0  0  0  0  0  0
   47.6835    7.4055   18.7211 H   0  0  0  0  0  0  0  0  0  0  0  0
   48.9221    8.1264   17.6722 H   0  0  0  0  0  0  0  0  0  0  0  0
   50.2956    8.5916   19.8193 H   0  0  0  0  0  0  0  0  0  0  0  0
   46.3158   13.8517   19.8185 H   0  0  0  0  0  0  0  0  0  0  0  0
   50.2998   12.6723   17.2727 H   0  0  0  0  0  0  0  0  0  0  0  0
   50.0091   13.8826   18.5334 H   0  0  0  0  0  0  0  0  0  0  0  0
   48.5313    7.0339   20.8946 H   0  0  0  0  0  0  0  0  0  0  0  0
   47.8729   14.0767   17.4696 H   0  0  0  0  0  0  0  0  0  0  0  0
   49.8049    3.3587   17.0347 H   0  0  0  0  0  0  0  0  0  0  0  0
   50.2531    3.7709   18.6937 H   0  0  0  0  0  0  0  0  0  0  0  0
   51.0533    4.5752   17.3316 H   0  0  0  0  0  0  0  0  0  0  0  0
   46.8717    5.3929   18.1772 H   0  0  0  0  0  0  0  0  0  0  0  0
   47.8015    4.3517   19.2658 H   0  0  0  0  0  0  0  0  0  0  0  0
   47.4108    3.8069   17.6322 H   0  0  0  0  0  0  0  0  0  0  0  0
   48.0116    6.5286   16.1945 H   0  0  0  0  0  0  0  0  0  0  0  0
   49.7372    6.2600   15.8815 H   0  0  0  0  0  0  0  0  0  0  0  0
   48.5656    4.9696   15.5883 H   0  0  0  0  0  0  0  0  0  0  0  0
   46.7534   10.8489   19.0125 H   0  0  0  0  0  0  0  0  0  0  0  0
   47.7652    6.5050   16.6539 H   0  0  0  0  0  0  0  0  0  0  0  0
   50.5440    9.8091   17.2382 H   0  0  0  0  0  0  0  0  0  0  0  0
   51.5531   11.8251   18.2093 H   0  0  0  0  0  0  0  0  0  0  0  0
   48.2987    7.7489   19.2605 H   0  0  0  0  0  0  0  0  0  0  0  0
   49.5285    7.5476   17.9940 H   0  0  0  0  0  0  0  0  0  0  0  0
   46.8539    8.9863   17.5664 H   0  0  0  0  0  0  0  0  0  0  0  0
   51.2366   13.6187   19.4930 H   0  0  0  0  0  0  0  0  0  0  0  0
   48.0611   13.9793   20.6376 H   0  0  0  0  0  0  0  0  0  0  0  0
   46.6975   13.5397   19.6027 H   0  0  0  0  0  0  0  0  0  0  0  0
   48.1432    9.7508   15.7224 H   0  0  0  0  0  0  0  0  0  0  0  0
   47.5953   11.7848   21.6199 H   0  0  0  0  0  0  0  0  0  0  0  0
   50.4150    5.5204   17.8736 H   0  0  0  0  0  0  0  0  0  0  0  0
   49.9523    3.8226   17.7565 H   0  0  0  0  0  0  0  0  0  0  0  0
   49.6056    4.9225   16.4162 H   0  0  0  0  0  0  0  0  0  0  0  0
   46.2527    4.2832   18.0390 H   0  0  0  0  0  0  0  0  0  0  0  0
   47.5554    3.0933   17.9291 H   0  0  0  0  0  0  0  0  0  0  0  0
   47.1726    4.1097   16.5349 H   0  0  0  0  0  0  0  0  0  0  0  0
   49.1153    5.7234   20.0711 H   0  0  0  0  0  0  0  0  0  0  0  0
   48.5989    4.0408   19.9766 H   0  0  0  0  0  0  0  0  0  0  0  0
   47.3894    5.3214   20.1285 H   0  0  0  0  0  0  0  0  0  0  0  0
   49.7324    5.3151   18.1084 H   0  0  0  0  0  0  0  0  0  0  0  0
   48.6848   11.6995   20.0571 H   0  0  0  0  0  0  0  0  0  0  0  0
   50.7038    8.2011   18.7602 H   0  0  0  0  0  0  0  0  0  0  0  0
   46.2544    8.8218   18.3223 H   0  0  0  0  0  0  0  0  0  0  0  0
   48.6275    8.9282   16.9822 H   0  0  0  0  0  0  0  0  0  0  0  0
   48.4431    8.2567   20.0034 H   0  0  0  0  0  0  0  0  0  0  0  0
 10  3  1  0
 11  4  1  0
 12  1  1  0
 10 13  1  0
 14 12  1  0
 15  7  1  0
 16  7  1  0
 17  7  1  0
  6  8  1  0
  2  1  2  0
  3  2  1  0
  4  1  1  0
  5  9  1  0
  6  3  2  0
  7  5  1  0
  8  4  2  0
  9 10  1  0
 27 20  1  0
 28 21  1  0
 29 18  1  0
 27 30  1  0
 31 29  1  0
 32 24  1  0
 33 24  1  0
 34 24  1  0
 23 25  1  0
 19 18  2  0
 20 19  1  0
 21 18  1  0
 22 26  1  0
 23 20  2  0
 24 22  1  0
 25 21  2  0
 26 27  1  0
 41 36  2  0
 42 39  1  0
 43 40  1  0
 41 35  1  0
 43 44  1  0
 42 43  1  0
 44 37  1  0
 41 42  1  0
 44 38  2  0
  2 45  1  0
  5 46  1  0
  6 47  1  0
  8 48  1  0
  9 49  1  0
  9 50  1  0
 10 51  1  6
 11 52  1  0
 12 53  1  0
 12 54  1  0
 13 55  1  0
 14 56  1  0
 15 57  1  0
 15 58  1  0
 15 59  1  0
 16 60  1  0
 16 61  1  0
 16 62  1  0
 17 63  1  0
 17 64  1  0
 17 65  1  0
 19 66  1  0
 22 67  1  0
 23 68  1  0
 25 69  1  0
 26 70  1  0
 26 71  1  0
 27 72  1  1
 28 73  1  0
 29 74  1  0
 29 75  1  0
 30 76  1  0
 31 77  1  0
 32 78  1  0
 32 79  1  0
 32 80  1  0
 33 81  1  0
 33 82  1  0
 33 83  1  0
 34 84  1  0
 34 85  1  0
 34 86  1  0
 35 87  1  0
 37 88  1  0
 39 89  1  0
 40 90  1  0
 42 91  1  1
 43 92  1  6
M  END
> <Uni-Dock RESULT> 
ENERGY=   -5.040  LOWER_BOUND=    4.834  UPPER_BOUND=    7.198
INTER + INTRA:          -5.040
INTER:                  -5.040
INTRA:                   0.000
UNBOUND:                 0.000

$$$$

     RDKit          3D

 92 91  0  0  0  0  0  0  0  0999 V2000
   45.7688   12.7082   10.1079 C   0  0  0  0  0  0  0  0  0  0  0  0
   44.5308   12.1637    9.7253 C   0  0  0  0  0  0  0  0  0  0  0  0
   43.9304   11.1204   10.4541 C   0  0  0  0  0  0  0  0  0  0  0  0
   46.4084   12.1719   11.2302 C   0  0  0  0  0  0  0  0  0  0  0  0
   40.1305   11.0783    9.9953 N   0  0  0  0  0  0  0  0  0  0  0  0
   44.5928   10.6250   11.5862 C   0  0  0  0  0  0  0  0  0  0  0  0
   38.9257   11.6360   10.6335 C   0  0  0  0  0  0  0  0  0  0  0  0
   45.8294   11.1437   11.9718 C   0  0  0  0  0  0  0  0  0  0  0  0
   41.4199   11.4383   10.6036 C   0  0  0  0  0  0  0  0  0  0  0  0
   42.5788   10.5851   10.0199 C   0  0  2  0  0  0  0  0  0  0  0  0
   47.6203   12.6873   11.6034 O   0  0  0  0  0  0  0  0  0  0  0  0
   46.3942   13.7952    9.2689 C   0  0  0  0  0  0  0  0  0  0  0  0
   42.4558    9.2141   10.4257 O   0  0  0  0  0  0  0  0  0  0  0  0
   46.8967   14.8632   10.0605 O   0  0  0  0  0  0  0  0  0  0  0  0
   37.7551   11.3269    9.6812 C   0  0  0  0  0  0  0  0  0  0  0  0
   38.6523   10.9524   11.9830 C   0  0  0  0  0  0  0  0  0  0  0  0
   39.0092   13.1583   10.8228 C   0  0  0  0  0  0  0  0  0  0  0  0
   46.0755   12.0491   10.4557 C   0  0  0  0  0  0  0  0  0  0  0  0
   44.8766   12.2486   11.1642 C   0  0  0  0  0  0  0  0  0  0  0  0
   43.7255   12.7369   10.5270 C   0  0  0  0  0  0  0  0  0  0  0  0
   46.1029   12.3551    9.0925 C   0  0  0  0  0  0  0  0  0  0  0  0
   40.1761   11.9999   11.7659 N   0  0  0  0  0  0  0  0  0  0  0  0
   43.7880   13.0333    9.1578 C   0  0  0  0  0  0  0  0  0  0  0  0
   39.0108   11.1871   11.3778 C   0  0  0  0  0  0  0  0  0  0  0  0
   44.9714   12.8448    8.4428 C   0  0  0  0  0  0  0  0  0  0  0  0
   41.3698   11.8689   10.9152 C   0  0  0  0  0  0  0  0  0  0  0  0
   42.4397   12.9170   11.3089 C   0  0  2  0  0  0  0  0  0  0  0  0
   47.2601   12.1659    8.3915 O   0  0  0  0  0  0  0  0  0  0  0  0
   47.2840   11.5278   11.1881 C   0  0  0  0  0  0  0  0  0  0  0  0
   41.9232   14.2349   11.0809 O   0  0  0  0  0  0  0  0  0  0  0  0
   46.9935   10.2732   11.8008 O   0  0  0  0  0  0  0  0  0  0  0  0
   38.3766   11.6926   10.0708 C   0  0  0  0  0  0  0  0  0  0  0  0
   37.9815   11.3520   12.5127 C   0  0  0  0  0  0  0  0  0  0  0  0
   39.3579    9.6945   11.2479 C   0  0  0  0  0  0  0  0  0  0  0  0
   39.9484   11.2514    9.6908 O   0  0  0  0  0  0  0  0  0  0  0  0
   39.7159   12.8597   11.2267 O   0  0  0  0  0  0  0  0  0  0  0  0
   44.8015   11.0014   10.0812 O   0  0  0  0  0  0  0  0  0  0  0  0
   44.7815   12.2517   11.9367 O   0  0  0  0  0  0  0  0  0  0  0  0
   42.2819   12.2755    8.9339 O   0  0  0  0  0  0  0  0  0  0  0  0
   42.2575   11.3673   12.5309 O   0  0  0  0  0  0  0  0  0  0  0  0
   40.4499   12.2216   10.4920 C   0  0  0  0  0  0  0  0  0  0  0  0
   41.9535   12.3805   10.3257 C   0  0  1  0  0  0  0  0  0  0  0  0
   42.6736   11.3216   11.1584 C   0  0  1  0  0  0  0  0  0  0  0  0
   44.1688   11.5869   11.1138 C   0  0  0  0  0  0  0  0  0  0  0  0
   44.0252   12.5549    8.8428 H   0  0  0  0  0  0  0  0  0  0  0  0
   40.0333   10.0726    9.8724 H   0  0  0  0  0  0  0  0  0  0  0  0
   44.1522    9.8177   12.1674 H   0  0  0  0  0  0  0  0  0  0  0  0
   46.3182   10.7325   12.8499 H   0  0  0  0  0  0  0  0  0  0  0  0
   41.3865   11.2798   11.6873 H   0  0  0  0  0  0  0  0  0  0  0  0
   41.6234   12.4991   10.4180 H   0  0  0  0  0  0  0  0  0  0  0  0
   42.5341   10.5890    8.9230 H   0  0  0  0  0  0  0  0  0  0  0  0
   47.9847   12.1208   12.3070 H   0  0  0  0  0  0  0  0  0  0  0  0
   45.6662   14.2228    8.5720 H   0  0  0  0  0  0  0  0  0  0  0  0
   47.2166   13.3725    8.6827 H   0  0  0  0  0  0  0  0  0  0  0  0
   41.5704    9.0964   10.8042 H   0  0  0  0  0  0  0  0  0  0  0  0
   47.3351   14.4381   10.8235 H   0  0  0  0  0  0  0  0  0  0  0  0
   36.8088   11.7101   10.0810 H   0  0  0  0  0  0  0  0  0  0  0  0
   37.6327   10.2474    9.5292 H   0  0  0  0  0  0  0  0  0  0  0  0
   37.9077   11.7888    8.6980 H   0  0  0  0  0  0  0  0  0  0  0  0
   39.4095   11.2048   12.7320 H   0  0  0  0  0  0  0  0  0  0  0  0
   38.6318    9.8618   11.8804 H   0  0  0  0  0  0  0  0  0  0  0  0
   37.6827   11.2615   12.3885 H   0  0  0  0  0  0  0  0  0  0  0  0
   39.7793   13.4382   11.5507 H   0  0  0  0  0  0  0  0  0  0  0  0
   39.2354   13.6650    9.8772 H   0  0  0  0  0  0  0  0  0  0  0  0
   38.0586   13.5614   11.1918 H   0  0  0  0  0  0  0  0  0  0  0  0
   44.8480   12.0100   12.2276 H   0  0  0  0  0  0  0  0  0  0  0  0
   39.9191   12.9912   11.7808 H   0  0  0  0  0  0  0  0  0  0  0  0
   42.9091   13.4149    8.6407 H   0  0  0  0  0  0  0  0  0  0  0  0
   44.9913   13.0834    7.3838 H   0  0  0  0  0  0  0  0  0  0  0  0
   41.7995   10.8676   11.0189 H   0  0  0  0  0  0  0  0  0  0  0  0
   41.0982   12.0237    9.8662 H   0  0  0  0  0  0  0  0  0  0  0  0
   42.6459   12.8450   12.3834 H   0  0  0  0  0  0  0  0  0  0  0  0
   47.1052   12.3825    7.4560 H   0  0  0  0  0  0  0  0  0  0  0  0
   48.1450   11.3821   10.5288 H   0  0  0  0  0  0  0  0  0  0  0  0
   47.5819   12.2369   11.9697 H   0  0  0  0  0  0  0  0  0  0  0  0
   42.6865   14.8372   11.0886 H   0  0  0  0  0  0  0  0  0  0  0  0
   46.4008    9.7964   11.1925 H   0  0  0  0  0  0  0  0  0  0  0  0
   39.0364   11.5462    9.2095 H   0  0  0  0  0  0  0  0  0  0  0  0
   37.4430   11.1572    9.8574 H   0  0  0  0  0  0  0  0  0  0  0  0
   38.1363   12.7603   10.1327 H   0  0  0  0  0  0  0  0  0  0  0  0
   38.3862   11.0082   13.4723 H   0  0  0  0  0  0  0  0  0  0  0  0
   37.0751   10.7685   12.3110 H   0  0  0  0  0  0  0  0  0  0  0  0
   37.6776   12.3984   12.6334 H   0  0  0  0  0  0  0  0  0  0  0  0
   40.0189    9.5005   10.3967 H   0  0  0  0  0  0  0  0  0  0  0  0
   38.4526    9.0941   11.0954 H   0  0  0  0  0  0  0  0  0  0  0  0
   39.8514    9.3207   12.1526 H   0  0  0  0  0  0  0  0  0  0  0  0
   38.9882   11.2588    9.9011 H   0  0  0  0  0  0  0  0  0  0  0  0
   45.7393   11.2692   10.1778 H   0  0  0  0  0  0  0  0  0  0  0  0
   41.8077   11.4880    8.5993 H   0  0  0  0  0  0  0  0  0  0  0  0
   42.7788   12.0718   12.9686 H   0  0  0  0  0  0  0  0  0  0  0  0
   42.2173   13.3931   10.6496 H   0  0  0  0  0  0  0  0  0  0  0  0
   42.4819   10.3074   10.7926 H   0  0  0  0  0  0  0  0  0  0  0  0
 10  3  1  0
 11  4  1  0
 12  1  1  0
 10 13  1  0
 14 12  1  0
 15  7  1  0
 16  7  1  0
 17  7  1  0
  6  8  1  0
  2  1  2  0
  3  2  1  0
  4  1  1  0
  5  9  1  0
  6  3  2  0
  7  5  1  0
  8  4  2  0
  9 10  1  0
 27 20  1  0
 28 21  1  0
 29 18  1  0
 27 30  1  0
 31 29  1  0
 32 24  1  0
 33 24  1  0
 34 24  1  0
 23 25  1  0
 19 18  2  0
 20 19  1  0
 21 18  1  0
 22 26  1  0
 23 20  2  0
 24 22  1  0
 25 21  2  0
 26 27  1  0
 41 36  2  0
 42 39  1  0
 43 40  1  0
 41 35  1  0
 43 44  1  0
 42 43  1  0
 44 37  1  0
 41 42  1  0
 44 38  2  0
  2 45  1  0
  5 46  1  0
  6 47  1  0
  8 48  1  0
  9 49  1  0
  9 50  1  0
 10 51  1  6
 11 52  1  0
 12 53  1  0
 12 54  1  0
 13 55  1  0
 14 56  1  0
 15 57  1  0
 15 58  1  0
 15 59  1  0
 16 60  1  0
 16 61  1  0
 16 62  1  0
 17 63  1  0
 17 64  1  0
 17 65  1  0
 19 66  1  0
 22 67  1  0
 23 68  1  0
 25 69  1  0
 26 70  1  0
 26 71  1  0
 27 72  1  1
 28 73  1  0
 29 74  1  0
 29 75  1  0
 30 76  1  0
 31 77  1  0
 32 78  1  0
 32 79  1  0
 32 80  1  0
 33 81  1  0
 33 82  1  0
 33 83  1  0
 34 84  1  0
 34 85  1  0
 34 86  1  0
 35 87  1  0
 37 88  1  0
 39 89  1  0
 40 90  1  0
 42 91  1  1
 43 92  1  6
M  END
> <Uni-Dock RESULT> 
ENERGY=   -4.861  LOWER_BOUND=    5.593  UPPER_BOUND=    7.768
INTER + INTRA:          -4.861
INTER:                  -4.861
INTRA:                   0.000
UNBOUND:                 0.000

$$$$
