
     RDKit          3D

 92 91  0  0  0  0  0  0  0  0999 V2000
   56.2909    2.9441   10.9363 C   0  0  0  0  0  0  0  0  0  0  0  0
   56.0908    3.3759    9.6091 C   0  0  0  0  0  0  0  0  0  0  0  0
   55.4875    4.6133    9.3101 C   0  0  0  0  0  0  0  0  0  0  0  0
   55.8465    3.7821   11.9665 C   0  0  0  0  0  0  0  0  0  0  0  0
   55.5772    7.6232    8.0135 N   0  0  0  0  0  0  0  0  0  0  0  0
   55.0674    5.4213   10.3733 C   0  0  0  0  0  0  0  0  0  0  0  0
   54.4183    8.3422    7.4359 C   0  0  0  0  0  0  0  0  0  0  0  0
   55.2472    5.0085   11.6925 C   0  0  0  0  0  0  0  0  0  0  0  0
   55.9782    6.3324    7.4227 C   0  0  0  0  0  0  0  0  0  0  0  0
   55.2662    5.0200    7.8626 C   0  0  2  0  0  0  0  0  0  0  0  0
   55.9718    3.4492   13.2859 O   0  0  0  0  0  0  0  0  0  0  0  0
   56.9676    1.6139   11.1513 C   0  0  0  0  0  0  0  0  0  0  0  0
   53.8770    5.0208    7.5370 O   0  0  0  0  0  0  0  0  0  0  0  0
   57.1290    1.3060   12.5367 O   0  0  0  0  0  0  0  0  0  0  0  0
   54.7709    9.8475    7.4715 C   0  0  0  0  0  0  0  0  0  0  0  0
   53.1950    8.1414    8.3462 C   0  0  0  0  0  0  0  0  0  0  0  0
   54.0527    7.9924    5.9827 C   0  0  0  0  0  0  0  0  0  0  0  0
   56.3599    2.7442   10.7692 C   0  0  0  0  0  0  0  0  0  0  0  0
   55.4128    3.4246    9.9794 C   0  0  0  0  0  0  0  0  0  0  0  0
   54.9208    4.6909   10.3436 C   0  0  0  0  0  0  0  0  0  0  0  0
   56.7959    3.3657   11.9468 C   0  0  0  0  0  0  0  0  0  0  0  0
   53.6844    7.1388    7.6854 N   0  0  0  0  0  0  0  0  0  0  0  0
   55.3831    5.2770   11.5294 C   0  0  0  0  0  0  0  0  0  0  0  0
   54.2314    8.2174    6.8352 C   0  0  0  0  0  0  0  0  0  0  0  0
   56.3137    4.6145   12.3293 C   0  0  0  0  0  0  0  0  0  0  0  0
   54.6789    6.3979    8.4897 C   0  0  0  0  0  0  0  0  0  0  0  0
   53.9484    5.4133    9.4377 C   0  0  2  0  0  0  0  0  0  0  0  0
   57.7174    2.7892   12.7779 O   0  0  0  0  0  0  0  0  0  0  0  0
   56.8093    1.3761   10.3188 C   0  0  0  0  0  0  0  0  0  0  0  0
   52.9844    6.1379   10.2122 O   0  0  0  0  0  0  0  0  0  0  0  0
   57.9245    0.8997   11.0758 O   0  0  0  0  0  0  0  0  0  0  0  0
   54.7995    9.3644    7.6888 C   0  0  0  0  0  0  0  0  0  0  0  0
   55.3056    7.7064    5.8588 C   0  0  0  0  0  0  0  0  0  0  0  0
   53.0451    8.7665    6.0172 C   0  0  0  0  0  0  0  0  0  0  0  0
   53.4319    5.0034    8.1992 O   0  0  0  0  0  0  0  0  0  0  0  0
   52.9208    7.1425    8.5672 O   0  0  0  0  0  0  0  0  0  0  0  0
   55.9907    3.5818    9.5081 O   0  0  0  0  0  0  0  0  0  0  0  0
   56.7701    4.2605    7.5314 O   0  0  0  0  0  0  0  0  0  0  0  0
   54.7923    7.3939   10.5794 O   0  0  0  0  0  0  0  0  0  0  0  0
   56.3194    6.9505    8.1380 O   0  0  0  0  0  0  0  0  0  0  0  0
   53.6349    6.1816    8.8193 C   0  0  0  0  0  0  0  0  0  0  0  0
   54.7687    6.1615    9.8378 C   0  0  1  0  0  0  0  0  0  0  0  0
   56.1230    5.9649    9.1613 C   0  0  1  0  0  0  0  0  0  0  0  0
   56.3058    4.5486    8.6267 C   0  0  0  0  0  0  0  0  0  0  0  0
   56.4186    2.7339    8.7922 H   0  0  0  0  0  0  0  0  0  0  0  0
   56.3945    8.2339    7.9732 H   0  0  0  0  0  0  0  0  0  0  0  0
   54.5924    6.3801   10.1880 H   0  0  0  0  0  0  0  0  0  0  0  0
   54.9127    5.6413   12.5111 H   0  0  0  0  0  0  0  0  0  0  0  0
   55.9676    6.3963    6.3288 H   0  0  0  0  0  0  0  0  0  0  0  0
   57.0386    6.2047    7.6813 H   0  0  0  0  0  0  0  0  0  0  0  0
   55.6988    4.2350    7.2294 H   0  0  0  0  0  0  0  0  0  0  0  0
   56.3895    2.5609   13.3059 H   0  0  0  0  0  0  0  0  0  0  0  0
   56.3689    0.8175   10.6994 H   0  0  0  0  0  0  0  0  0  0  0  0
   57.9581    1.6287   10.6878 H   0  0  0  0  0  0  0  0  0  0  0  0
   53.3886    4.8782    8.3648 H   0  0  0  0  0  0  0  0  0  0  0  0
   57.8714    0.6796   12.5985 H   0  0  0  0  0  0  0  0  0  0  0  0
   53.9383   10.4571    7.1085 H   0  0  0  0  0  0  0  0  0  0  0  0
   55.6397   10.0698    6.8400 H   0  0  0  0  0  0  0  0  0  0  0  0
   54.9975   10.1827    8.4895 H   0  0  0  0  0  0  0  0  0  0  0  0
   52.3564    8.7672    8.0162 H   0  0  0  0  0  0  0  0  0  0  0  0
   53.4225    8.4279    9.3805 H   0  0  0  0  0  0  0  0  0  0  0  0
   52.8435    7.1059    8.3560 H   0  0  0  0  0  0  0  0  0  0  0  0
   53.2183    8.6130    5.6304 H   0  0  0  0  0  0  0  0  0  0  0  0
   53.7376    6.9502    5.8697 H   0  0  0  0  0  0  0  0  0  0  0  0
   54.8955    8.1698    5.3045 H   0  0  0  0  0  0  0  0  0  0  0  0
   55.0493    2.9584    9.0640 H   0  0  0  0  0  0  0  0  0  0  0  0
   53.1859    6.4715    7.0929 H   0  0  0  0  0  0  0  0  0  0  0  0
   55.0139    6.2540   11.8378 H   0  0  0  0  0  0  0  0  0  0  0  0
   56.6630    5.0725   13.2516 H   0  0  0  0  0  0  0  0  0  0  0  0
   55.3707    5.8393    7.8472 H   0  0  0  0  0  0  0  0  0  0  0  0
   55.2623    7.1005    9.0974 H   0  0  0  0  0  0  0  0  0  0  0  0
   53.3820    4.6806    8.8493 H   0  0  0  0  0  0  0  0  0  0  0  0
   58.0315    1.9813   12.3159 H   0  0  0  0  0  0  0  0  0  0  0  0
   57.1122    1.4125    9.2678 H   0  0  0  0  0  0  0  0  0  0  0  0
   55.9875    0.6644   10.4425 H   0  0  0  0  0  0  0  0  0  0  0  0
   52.6785    6.8477    9.6116 H   0  0  0  0  0  0  0  0  0  0  0  0
   58.1660    0.0353   10.6933 H   0  0  0  0  0  0  0  0  0  0  0  0
   55.7159    9.0736    8.2126 H   0  0  0  0  0  0  0  0  0  0  0  0
   54.0721    9.6958    8.4399 H   0  0  0  0  0  0  0  0  0  0  0  0
   55.0466   10.2304    7.0627 H   0  0  0  0  0  0  0  0  0  0  0  0
   55.5917    8.4895    5.1473 H   0  0  0  0  0  0  0  0  0  0  0  0
   56.2182    7.4004    6.3806 H   0  0  0  0  0  0  0  0  0  0  0  0
   54.9424    6.8507    5.2772 H   0  0  0  0  0  0  0  0  0  0  0  0
   52.2646    9.1752    6.6680 H   0  0  0  0  0  0  0  0  0  0  0  0
   52.5872    7.9865    5.3977 H   0  0  0  0  0  0  0  0  0  0  0  0
   53.3707    9.5668    5.3450 H   0  0  0  0  0  0  0  0  0  0  0  0
   52.6844    5.1855    7.5908 H   0  0  0  0  0  0  0  0  0  0  0  0
   56.1650    2.7488    9.0200 H   0  0  0  0  0  0  0  0  0  0  0  0
   54.4845    8.0874    9.9579 H   0  0  0  0  0  0  0  0  0  0  0  0
   57.1168    6.6699    7.6432 H   0  0  0  0  0  0  0  0  0  0  0  0
   54.5527    5.3758   10.5675 H   0  0  0  0  0  0  0  0  0  0  0  0
   56.9234    6.1298    9.8940 H   0  0  0  0  0  0  0  0  0  0  0  0
 10  3  1  0
 11  4  1  0
 12  1  1  0
 10 13  1  0
 14 12  1  0
 15  7  1  0
 16  7  1  0
 17  7  1  0
  6  8  1  0
  2  1  2  0
  3  2  1  0
  4  1  1  0
  5  9  1  0
  6  3  2  0
  7  5  1  0
  8  4  2  0
  9 10  1  0
 27 20  1  0
 28 21  1  0
 29 18  1  0
 27 30  1  0
 31 29  1  0
 32 24  1  0
 33 24  1  0
 34 24  1  0
 23 25  1  0
 19 18  2  0
 20 19  1  0
 21 18  1  0
 22 26  1  0
 23 20  2  0
 24 22  1  0
 25 21  2  0
 26 27  1  0
 41 36  2  0
 42 39  1  0
 43 40  1  0
 41 35  1  0
 43 44  1  0
 42 43  1  0
 44 37  1  0
 41 42  1  0
 44 38  2  0
  2 45  1  0
  5 46  1  0
  6 47  1  0
  8 48  1  0
  9 49  1  0
  9 50  1  0
 10 51  1  1
 11 52  1  0
 12 53  1  0
 12 54  1  0
 13 55  1  0
 14 56  1  0
 15 57  1  0
 15 58  1  0
 15 59  1  0
 16 60  1  0
 16 61  1  0
 16 62  1  0
 17 63  1  0
 17 64  1  0
 17 65  1  0
 19 66  1  0
 22 67  1  0
 23 68  1  0
 25 69  1  0
 26 70  1  0
 26 71  1  0
 27 72  1  1
 28 73  1  0
 29 74  1  0
 29 75  1  0
 30 76  1  0
 31 77  1  0
 32 78  1  0
 32 79  1  0
 32 80  1  0
 33 81  1  0
 33 82  1  0
 33 83  1  0
 34 84  1  0
 34 85  1  0
 34 86  1  0
 35 87  1  0
 37 88  1  0
 39 89  1  0
 40 90  1  0
 42 91  1  1
 43 92  1  6
M  END
> <Uni-Dock RESULT> 
ENERGY=   -5.473  LOWER_BOUND=    0.000  UPPER_BOUND=    0.000
INTER + INTRA:          -5.473
INTER:                  -5.473
INTRA:                   0.000
UNBOUND:                 0.000

$$$$

     RDKit          3D

 92 91  0  0  0  0  0  0  0  0999 V2000
   45.0842    5.3783   12.3712 C   0  0  0  0  0  0  0  0  0  0  0  0
   46.3590    5.3539   12.9731 C   0  0  0  0  0  0  0  0  0  0  0  0
   47.1553    6.5109   13.0810 C   0  0  0  0  0  0  0  0  0  0  0  0
   44.6324    6.5992   11.8548 C   0  0  0  0  0  0  0  0  0  0  0  0
   48.7128    8.7801   14.8626 N   0  0  0  0  0  0  0  0  0  0  0  0
   46.6579    7.7105   12.5582 C   0  0  0  0  0  0  0  0  0  0  0  0
   49.9459    9.4919   14.4547 C   0  0  0  0  0  0  0  0  0  0  0  0
   45.4041    7.7540   11.9505 C   0  0  0  0  0  0  0  0  0  0  0  0
   48.7462    7.3097   14.9756 C   0  0  0  0  0  0  0  0  0  0  0  0
   48.5356    6.4266   13.7113 C   0  0  2  0  0  0  0  0  0  0  0  0
   43.4225    6.7275   11.2327 O   0  0  0  0  0  0  0  0  0  0  0  0
   44.3001    4.0911   12.3263 C   0  0  0  0  0  0  0  0  0  0  0  0
   49.5576    6.6235   12.7353 O   0  0  0  0  0  0  0  0  0  0  0  0
   43.0211    4.2573   11.7126 O   0  0  0  0  0  0  0  0  0  0  0  0
   49.9968   10.7964   15.2837 C   0  0  0  0  0  0  0  0  0  0  0  0
   49.8282    9.8987   12.9761 C   0  0  0  0  0  0  0  0  0  0  0  0
   51.2728    8.7489   14.6893 C   0  0  0  0  0  0  0  0  0  0  0  0
   45.1476    5.1228   12.4286 C   0  0  0  0  0  0  0  0  0  0  0  0
   46.4326    5.6783   12.2742 C   0  0  0  0  0  0  0  0  0  0  0  0
   46.6300    7.0678   12.1815 C   0  0  0  0  0  0  0  0  0  0  0  0
   44.0575    6.0015   12.4773 C   0  0  0  0  0  0  0  0  0  0  0  0
   49.9230    8.6467   13.2997 N   0  0  0  0  0  0  0  0  0  0  0  0
   45.5124    7.9114   12.2346 C   0  0  0  0  0  0  0  0  0  0  0  0
   50.5174    9.2107   14.5301 C   0  0  0  0  0  0  0  0  0  0  0  0
   44.2314    7.3792   12.3776 C   0  0  0  0  0  0  0  0  0  0  0  0
   48.5894    8.0305   13.4634 C   0  0  0  0  0  0  0  0  0  0  0  0
   48.0315    7.6269   12.0750 C   0  0  2  0  0  0  0  0  0  0  0  0
   42.7713    5.5607   12.6308 O   0  0  0  0  0  0  0  0  0  0  0  0
   45.0257    3.6200   12.4882 C   0  0  0  0  0  0  0  0  0  0  0  0
   48.0513    8.7711   11.2122 O   0  0  0  0  0  0  0  0  0  0  0  0
   43.7131    3.2013   12.8695 O   0  0  0  0  0  0  0  0  0  0  0  0
   49.7159   10.4258   15.0284 C   0  0  0  0  0  0  0  0  0  0  0  0
   50.6419    8.1661   15.6533 C   0  0  0  0  0  0  0  0  0  0  0  0
   51.9318    9.6903   14.1460 C   0  0  0  0  0  0  0  0  0  0  0  0
   49.2535    6.9375   12.0675 O   0  0  0  0  0  0  0  0  0  0  0  0
   49.6157    9.1272   12.2822 O   0  0  0  0  0  0  0  0  0  0  0  0
   46.5333    5.5285   13.0147 O   0  0  0  0  0  0  0  0  0  0  0  0
   47.8528    5.2845   14.7965 O   0  0  0  0  0  0  0  0  0  0  0  0
   46.9944    9.6398   12.9756 O   0  0  0  0  0  0  0  0  0  0  0  0
   48.0860    8.0456   15.1565 O   0  0  0  0  0  0  0  0  0  0  0  0
   48.8475    8.1809   12.3882 C   0  0  0  0  0  0  0  0  0  0  0  0
   47.3928    8.2646   12.8353 C   0  0  1  0  0  0  0  0  0  0  0  0
   47.1758    7.5482   14.1658 C   0  0  1  0  0  0  0  0  0  0  0  0
   47.2592    6.0317   14.0299 C   0  0  0  0  0  0  0  0  0  0  0  0
   46.7346    4.4119   13.3711 H   0  0  0  0  0  0  0  0  0  0  0  0
   48.4119    9.1400   15.7695 H   0  0  0  0  0  0  0  0  0  0  0  0
   47.2409    8.6249   12.6147 H   0  0  0  0  0  0  0  0  0  0  0  0
   45.0290    8.6898   11.5431 H   0  0  0  0  0  0  0  0  0  0  0  0
   49.6603    6.9893   15.4881 H   0  0  0  0  0  0  0  0  0  0  0  0
   47.9349    7.0471   15.6687 H   0  0  0  0  0  0  0  0  0  0  0  0
   48.6779    5.3949   14.0573 H   0  0  0  0  0  0  0  0  0  0  0  0
   43.0188    5.8325   11.2312 H   0  0  0  0  0  0  0  0  0  0  0  0
   44.8522    3.3421   11.7510 H   0  0  0  0  0  0  0  0  0  0  0  0
   44.1445    3.7225   13.3442 H   0  0  0  0  0  0  0  0  0  0  0  0
   49.1187    6.8908   11.9106 H   0  0  0  0  0  0  0  0  0  0  0  0
   42.4539    3.5429   12.0524 H   0  0  0  0  0  0  0  0  0  0  0  0
   50.8569   11.4106   15.0017 H   0  0  0  0  0  0  0  0  0  0  0  0
   50.0825   10.5853   16.3567 H   0  0  0  0  0  0  0  0  0  0  0  0
   49.0996   11.4056   15.1291 H   0  0  0  0  0  0  0  0  0  0  0  0
   50.6674   10.5405   12.6802 H   0  0  0  0  0  0  0  0  0  0  0  0
   48.9083   10.4690   12.7967 H   0  0  0  0  0  0  0  0  0  0  0  0
   49.8243    9.0376   12.3021 H   0  0  0  0  0  0  0  0  0  0  0  0
   52.1271    9.3772   14.4050 H   0  0  0  0  0  0  0  0  0  0  0  0
   51.3486    7.8308   14.0980 H   0  0  0  0  0  0  0  0  0  0  0  0
   51.4027    8.4864   15.7457 H   0  0  0  0  0  0  0  0  0  0  0  0
   47.2965    5.0161   12.2228 H   0  0  0  0  0  0  0  0  0  0  0  0
   50.5591    7.9438   12.9174 H   0  0  0  0  0  0  0  0  0  0  0  0
   45.6366    8.9906   12.1589 H   0  0  0  0  0  0  0  0  0  0  0  0
   43.3681    8.0396   12.4114 H   0  0  0  0  0  0  0  0  0  0  0  0
   48.6393    7.1439   14.1076 H   0  0  0  0  0  0  0  0  0  0  0  0
   47.9009    8.7518   13.9206 H   0  0  0  0  0  0  0  0  0  0  0  0
   48.6894    6.8811   11.6115 H   0  0  0  0  0  0  0  0  0  0  0  0
   42.8335    4.5942   12.7946 H   0  0  0  0  0  0  0  0  0  0  0  0
   45.7293    3.2197   13.2247 H   0  0  0  0  0  0  0  0  0  0  0  0
   45.2425    3.1982   11.5022 H   0  0  0  0  0  0  0  0  0  0  0  0
   48.8379    9.2765   11.5017 H   0  0  0  0  0  0  0  0  0  0  0  0
   43.7394    2.2273   12.9173 H   0  0  0  0  0  0  0  0  0  0  0  0
   48.7360   10.1392   15.4238 H   0  0  0  0  0  0  0  0  0  0  0  0
   49.5553   11.1512   14.2215 H   0  0  0  0  0  0  0  0  0  0  0  0
   50.2512   10.9412   15.8351 H   0  0  0  0  0  0  0  0  0  0  0  0
   51.2110    8.5677   16.4995 H   0  0  0  0  0  0  0  0  0  0  0  0
   49.6629    7.8658   16.0408 H   0  0  0  0  0  0  0  0  0  0  0  0
   51.1616    7.2654   15.3055 H   0  0  0  0  0  0  0  0  0  0  0  0
   51.8962   10.4631   13.3705 H   0  0  0  0  0  0  0  0  0  0  0  0
   52.5477    8.8664   13.7670 H   0  0  0  0  0  0  0  0  0  0  0  0
   52.4505   10.1124   15.0129 H   0  0  0  0  0  0  0  0  0  0  0  0
   50.1914    7.0580   11.8069 H   0  0  0  0  0  0  0  0  0  0  0  0
   46.6884    4.5612   13.0678 H   0  0  0  0  0  0  0  0  0  0  0  0
   47.7964   10.1234   13.2670 H   0  0  0  0  0  0  0  0  0  0  0  0
   48.0077    7.4400   15.9224 H   0  0  0  0  0  0  0  0  0  0  0  0
   46.7701    7.8514   12.0365 H   0  0  0  0  0  0  0  0  0  0  0  0
   46.1700    7.7751   14.5417 H   0  0  0  0  0  0  0  0  0  0  0  0
 10  3  1  0
 11  4  1  0
 12  1  1  0
 10 13  1  0
 14 12  1  0
 15  7  1  0
 16  7  1  0
 17  7  1  0
  6  8  1  0
  2  1  2  0
  3  2  1  0
  4  1  1  0
  5  9  1  0
  6  3  2  0
  7  5  1  0
  8  4  2  0
  9 10  1  0
 27 20  1  0
 28 21  1  0
 29 18  1  0
 27 30  1  0
 31 29  1  0
 32 24  1  0
 33 24  1  0
 34 24  1  0
 23 25  1  0
 19 18  2  0
 20 19  1  0
 21 18  1  0
 22 26  1  0
 23 20  2  0
 24 22  1  0
 25 21  2  0
 26 27  1  0
 41 36  2  0
 42 39  1  0
 43 40  1  0
 41 35  1  0
 43 44  1  0
 42 43  1  0
 44 37  1  0
 41 42  1  0
 44 38  2  0
  2 45  1  0
  5 46  1  0
  6 47  1  0
  8 48  1  0
  9 49  1  0
  9 50  1  0
 10 51  1  1
 11 52  1  0
 12 53  1  0
 12 54  1  0
 13 55  1  0
 14 56  1  0
 15 57  1  0
 15 58  1  0
 15 59  1  0
 16 60  1  0
 16 61  1  0
 16 62  1  0
 17 63  1  0
 17 64  1  0
 17 65  1  0
 19 66  1  0
 22 67  1  0
 23 68  1  0
 25 69  1  0
 26 70  1  0
 26 71  1  0
 27 72  1  1
 28 73  1  0
 29 74  1  0
 29 75  1  0
 30 76  1  0
 31 77  1  0
 32 78  1  0
 32 79  1  0
 32 80  1  0
 33 81  1  0
 33 82  1  0
 33 83  1  0
 34 84  1  0
 34 85  1  0
 34 86  1  0
 35 87  1  0
 37 88  1  0
 39 89  1  0
 40 90  1  0
 42 91  1  1
 43 92  1  6
M  END
> <Uni-Dock RESULT> 
ENERGY=   -5.464  LOWER_BOUND=    7.920  UPPER_BOUND=   10.096
INTER + INTRA:          -5.464
INTER:                  -5.464
INTRA:                   0.000
UNBOUND:                 0.000

$$$$

     RDKit          3D

 92 91  0  0  0  0  0  0  0  0999 V2000
   48.2148   12.1755   17.7036 C   0  0  0  0  0  0  0  0  0  0  0  0
   48.6337   10.8400   17.5332 C   0  0  0  0  0  0  0  0  0  0  0  0
   48.5987    9.9069   18.5880 C   0  0  0  0  0  0  0  0  0  0  0  0
   47.7766   12.5619   18.9763 C   0  0  0  0  0  0  0  0  0  0  0  0
   47.4904    7.1373   19.9484 N   0  0  0  0  0  0  0  0  0  0  0  0
   48.1444   10.3370   19.8403 C   0  0  0  0  0  0  0  0  0  0  0  0
   48.2525    6.2770   20.8825 C   0  0  0  0  0  0  0  0  0  0  0  0
   47.7349   11.6556   20.0323 C   0  0  0  0  0  0  0  0  0  0  0  0
   48.0312    7.3698   18.5957 C   0  0  0  0  0  0  0  0  0  0  0  0
   49.0900    8.4866   18.3618 C   0  0  2  0  0  0  0  0  0  0  0  0
   47.3700   13.8366   19.2543 O   0  0  0  0  0  0  0  0  0  0  0  0
   48.2685   13.0902   16.5061 C   0  0  0  0  0  0  0  0  0  0  0  0
   50.3017    8.2437   19.0749 O   0  0  0  0  0  0  0  0  0  0  0  0
   47.7973   14.4046   16.8071 O   0  0  0  0  0  0  0  0  0  0  0  0
   47.2099    5.4509   21.6713 C   0  0  0  0  0  0  0  0  0  0  0  0
   48.9902    7.1650   21.8988 C   0  0  0  0  0  0  0  0  0  0  0  0
   49.2374    5.2814   20.2452 C   0  0  0  0  0  0  0  0  0  0  0  0
   48.3203   12.1489   17.4570 C   0  0  0  0  0  0  0  0  0  0  0  0
   49.0108   11.1311   18.1432 C   0  0  0  0  0  0  0  0  0  0  0  0
   48.6354   10.7271   19.4372 C   0  0  0  0  0  0  0  0  0  0  0  0
   47.2431   12.7624   18.1100 C   0  0  0  0  0  0  0  0  0  0  0  0
   49.3425    7.1755   20.6510 N   0  0  0  0  0  0  0  0  0  0  0  0
   47.5522   11.3669   20.0543 C   0  0  0  0  0  0  0  0  0  0  0  0
   48.6779    5.8550   20.6540 C   0  0  0  0  0  0  0  0  0  0  0  0
   46.8622   12.3832   19.3943 C   0  0  0  0  0  0  0  0  0  0  0  0
   48.6395    8.2385   19.9021 C   0  0  0  0  0  0  0  0  0  0  0  0
   49.3666    9.5903   20.1161 C   0  0  2  0  0  0  0  0  0  0  0  0
   46.5060   13.7563   17.5258 O   0  0  0  0  0  0  0  0  0  0  0  0
   48.8111   12.5399   16.0849 C   0  0  0  0  0  0  0  0  0  0  0  0
   49.4866    9.8394   21.5224 O   0  0  0  0  0  0  0  0  0  0  0  0
   47.8979   13.4124   15.4151 O   0  0  0  0  0  0  0  0  0  0  0  0
   47.3506    5.9022   21.4305 C   0  0  0  0  0  0  0  0  0  0  0  0
   48.4370    5.3166   19.2326 C   0  0  0  0  0  0  0  0  0  0  0  0
   49.6328    4.8925   21.3889 C   0  0  0  0  0  0  0  0  0  0  0  0
   50.4234    8.8087   19.6253 O   0  0  0  0  0  0  0  0  0  0  0  0
   49.6258    7.9160   21.5066 O   0  0  0  0  0  0  0  0  0  0  0  0
   48.6460   10.6424   17.6862 O   0  0  0  0  0  0  0  0  0  0  0  0
   48.4027    8.6129   16.7934 O   0  0  0  0  0  0  0  0  0  0  0  0
   47.3020    9.4000   21.3966 O   0  0  0  0  0  0  0  0  0  0  0  0
   47.1966    7.6054   19.1037 O   0  0  0  0  0  0  0  0  0  0  0  0
   49.4522    8.6524   20.5451 C   0  0  0  0  0  0  0  0  0  0  0  0
   48.2025    9.4831   20.2779 C   0  0  1  0  0  0  0  0  0  0  0  0
   47.4760    9.0098   19.0214 C   0  0  1  0  0  0  0  0  0  0  0  0
   48.2314    9.3635   17.7449 C   0  0  0  0  0  0  0  0  0  0  0  0
   48.9893   10.5213   16.5540 H   0  0  0  0  0  0  0  0  0  0  0  0
   46.5556    6.7442   19.8299 H   0  0  0  0  0  0  0  0  0  0  0  0
   48.1066    9.6524   20.6824 H   0  0  0  0  0  0  0  0  0  0  0  0
   47.3885   11.9809   21.0103 H   0  0  0  0  0  0  0  0  0  0  0  0
   48.4006    6.4309   18.1684 H   0  0  0  0  0  0  0  0  0  0  0  0
   47.1661    7.6353   17.9722 H   0  0  0  0  0  0  0  0  0  0  0  0
   49.3684    8.3983   17.3040 H   0  0  0  0  0  0  0  0  0  0  0  0
   47.4772   14.3461   18.4219 H   0  0  0  0  0  0  0  0  0  0  0  0
   49.3005   13.1776   16.1539 H   0  0  0  0  0  0  0  0  0  0  0  0
   47.6467   12.6803   15.7052 H   0  0  0  0  0  0  0  0  0  0  0  0
   50.4606    9.0168   19.6416 H   0  0  0  0  0  0  0  0  0  0  0  0
   47.5027   14.7948   15.9655 H   0  0  0  0  0  0  0  0  0  0  0  0
   47.6922    4.8232   22.4263 H   0  0  0  0  0  0  0  0  0  0  0  0
   46.6408    4.7877   21.0085 H   0  0  0  0  0  0  0  0  0  0  0  0
   46.4981    6.0981   22.1953 H   0  0  0  0  0  0  0  0  0  0  0  0
   49.4573    6.5556   22.6825 H   0  0  0  0  0  0  0  0  0  0  0  0
   48.2961    7.8531   22.3973 H   0  0  0  0  0  0  0  0  0  0  0  0
   49.7809    7.7637   21.4381 H   0  0  0  0  0  0  0  0  0  0  0  0
   49.7118    4.6564   21.0130 H   0  0  0  0  0  0  0  0  0  0  0  0
   50.0469    5.7817   19.7042 H   0  0  0  0  0  0  0  0  0  0  0  0
   48.7280    4.6055   19.5485 H   0  0  0  0  0  0  0  0  0  0  0  0
   49.8590   10.6451   17.6620 H   0  0  0  0  0  0  0  0  0  0  0  0
   50.2816    7.0721   20.2608 H   0  0  0  0  0  0  0  0  0  0  0  0
   47.2446   11.0776   21.0581 H   0  0  0  0  0  0  0  0  0  0  0  0
   46.0267   12.8798   19.8820 H   0  0  0  0  0  0  0  0  0  0  0  0
   48.6039    8.0099   18.8297 H   0  0  0  0  0  0  0  0  0  0  0  0
   47.6104    8.3330   20.2698 H   0  0  0  0  0  0  0  0  0  0  0  0
   50.3905    9.5283   19.7265 H   0  0  0  0  0  0  0  0  0  0  0  0
   46.8278   13.8244   16.6003 H   0  0  0  0  0  0  0  0  0  0  0  0
   48.9316   11.6460   15.4654 H   0  0  0  0  0  0  0  0  0  0  0  0
   49.7700   13.0590   16.1760 H   0  0  0  0  0  0  0  0  0  0  0  0
   49.5889    8.9491   21.9160 H   0  0  0  0  0  0  0  0  0  0  0  0
   48.2766   13.5795   14.5318 H   0  0  0  0  0  0  0  0  0  0  0  0
   46.5852    6.4813   20.9037 H   0  0  0  0  0  0  0  0  0  0  0  0
   47.4888    6.3492   22.4226 H   0  0  0  0  0  0  0  0  0  0  0  0
   46.9482    4.8923   21.5757 H   0  0  0  0  0  0  0  0  0  0  0  0
   48.0759    4.2822   19.2623 H   0  0  0  0  0  0  0  0  0  0  0  0
   47.6829    5.9027   18.6973 H   0  0  0  0  0  0  0  0  0  0  0  0
   49.3596    5.3258   18.6401 H   0  0  0  0  0  0  0  0  0  0  0  0
   49.8102    5.2142   22.4208 H   0  0  0  0  0  0  0  0  0  0  0  0
   50.6058    4.8295   20.8878 H   0  0  0  0  0  0  0  0  0  0  0  0
   49.2178    3.8800   21.4226 H   0  0  0  0  0  0  0  0  0  0  0  0
   51.1404    8.2178   19.9399 H   0  0  0  0  0  0  0  0  0  0  0  0
   49.1000   10.7058   16.8188 H   0  0  0  0  0  0  0  0  0  0  0  0
   47.4216    8.5017   21.7716 H   0  0  0  0  0  0  0  0  0  0  0  0
   46.8859    7.3399   18.2135 H   0  0  0  0  0  0  0  0  0  0  0  0
   48.5032   10.5328   20.2114 H   0  0  0  0  0  0  0  0  0  0  0  0
   46.4995    9.5066   18.9565 H   0  0  0  0  0  0  0  0  0  0  0  0
 10  3  1  0
 11  4  1  0
 12  1  1  0
 10 13  1  0
 14 12  1  0
 15  7  1  0
 16  7  1  0
 17  7  1  0
  6  8  1  0
  2  1  2  0
  3  2  1  0
  4  1  1  0
  5  9  1  0
  6  3  2  0
  7  5  1  0
  8  4  2  0
  9 10  1  0
 27 20  1  0
 28 21  1  0
 29 18  1  0
 27 30  1  0
 31 29  1  0
 32 24  1  0
 33 24  1  0
 34 24  1  0
 23 25  1  0
 19 18  2  0
 20 19  1  0
 21 18  1  0
 22 26  1  0
 23 20  2  0
 24 22  1  0
 25 21  2  0
 26 27  1  0
 41 36  2  0
 42 39  1  0
 43 40  1  0
 41 35  1  0
 43 44  1  0
 42 43  1  0
 44 37  1  0
 41 42  1  0
 44 38  2  0
  2 45  1  0
  5 46  1  0
  6 47  1  0
  8 48  1  0
  9 49  1  0
  9 50  1  0
 10 51  1  1
 11 52  1  0
 12 53  1  0
 12 54  1  0
 13 55  1  0
 14 56  1  0
 15 57  1  0
 15 58  1  0
 15 59  1  0
 16 60  1  0
 16 61  1  0
 16 62  1  0
 17 63  1  0
 17 64  1  0
 17 65  1  0
 19 66  1  0
 22 67  1  0
 23 68  1  0
 25 69  1  0
 26 70  1  0
 26 71  1  0
 27 72  1  1
 28 73  1  0
 29 74  1  0
 29 75  1  0
 30 76  1  0
 31 77  1  0
 32 78  1  0
 32 79  1  0
 32 80  1  0
 33 81  1  0
 33 82  1  0
 33 83  1  0
 34 84  1  0
 34 85  1  0
 34 86  1  0
 35 87  1  0
 37 88  1  0
 39 89  1  0
 40 90  1  0
 42 91  1  1
 43 92  1  6
M  END
> <Uni-Dock RESULT> 
ENERGY=   -5.330  LOWER_BOUND=   11.485  UPPER_BOUND=   14.056
INTER + INTRA:          -5.330
INTER:                  -5.330
INTRA:                   0.000
UNBOUND:                 0.000

$$$$

     RDKit          3D

 92 91  0  0  0  0  0  0  0  0999 V2000
   45.3021    8.4630   12.1173 C   0  0  0  0  0  0  0  0  0  0  0  0
   46.3052    9.4337   12.3162 C   0  0  0  0  0  0  0  0  0  0  0  0
   47.5116    9.1347   12.9791 C   0  0  0  0  0  0  0  0  0  0  0  0
   45.5314    7.1780   12.6245 C   0  0  0  0  0  0  0  0  0  0  0  0
   50.7770    8.8438   13.0267 N   0  0  0  0  0  0  0  0  0  0  0  0
   47.6998    7.8339   13.4610 C   0  0  0  0  0  0  0  0  0  0  0  0
   51.6391    9.0587   14.2117 C   0  0  0  0  0  0  0  0  0  0  0  0
   46.7164    6.8621   13.2833 C   0  0  0  0  0  0  0  0  0  0  0  0
   49.9390    9.9590   12.5468 C   0  0  0  0  0  0  0  0  0  0  0  0
   48.5492   10.2239   13.1956 C   0  0  2  0  0  0  0  0  0  0  0  0
   44.6160    6.1704   12.5054 O   0  0  0  0  0  0  0  0  0  0  0  0
   44.0568    8.8769   11.3746 C   0  0  0  0  0  0  0  0  0  0  0  0
   48.6514   10.5673   14.5767 O   0  0  0  0  0  0  0  0  0  0  0  0
   43.1334    7.7979   11.2221 O   0  0  0  0  0  0  0  0  0  0  0  0
   52.9584    8.2989   13.9407 C   0  0  0  0  0  0  0  0  0  0  0  0
   50.9827    8.4039   15.4389 C   0  0  0  0  0  0  0  0  0  0  0  0
   52.0090   10.5176   14.5318 C   0  0  0  0  0  0  0  0  0  0  0  0
   45.2085    8.7019   12.0348 C   0  0  0  0  0  0  0  0  0  0  0  0
   46.1458    9.1130   13.0024 C   0  0  0  0  0  0  0  0  0  0  0  0
   47.0666    8.2124   13.5678 C   0  0  0  0  0  0  0  0  0  0  0  0
   45.2112    7.3537   11.6539 C   0  0  0  0  0  0  0  0  0  0  0  0
   50.4347    9.4403   14.8848 N   0  0  0  0  0  0  0  0  0  0  0  0
   47.0352    6.8725   13.1589 C   0  0  0  0  0  0  0  0  0  0  0  0
   51.8080    9.6538   14.3808 C   0  0  0  0  0  0  0  0  0  0  0  0
   46.1082    6.4449   12.2090 C   0  0  0  0  0  0  0  0  0  0  0  0
   49.4392    9.0432   13.8669 C   0  0  0  0  0  0  0  0  0  0  0  0
   48.0950    8.7066   14.5608 C   0  0  2  0  0  0  0  0  0  0  0  0
   44.3446    6.8580   10.7182 O   0  0  0  0  0  0  0  0  0  0  0  0
   44.2378    9.7283   11.5049 C   0  0  0  0  0  0  0  0  0  0  0  0
   48.3263    7.7218   15.5760 O   0  0  0  0  0  0  0  0  0  0  0  0
   43.5018    9.2425   10.3797 O   0  0  0  0  0  0  0  0  0  0  0  0
   52.4317    8.3357   13.8903 C   0  0  0  0  0  0  0  0  0  0  0  0
   51.8646   10.7105   13.2634 C   0  0  0  0  0  0  0  0  0  0  0  0
   52.6341   10.1617   15.5798 C   0  0  0  0  0  0  0  0  0  0  0  0
   48.3041   10.0115   15.0322 O   0  0  0  0  0  0  0  0  0  0  0  0
   49.9892    8.6946   15.6633 O   0  0  0  0  0  0  0  0  0  0  0  0
   46.5304    9.4290   12.4252 O   0  0  0  0  0  0  0  0  0  0  0  0
   48.0970   10.8133   11.6475 O   0  0  0  0  0  0  0  0  0  0  0  0
   49.3247    6.7285   13.8446 O   0  0  0  0  0  0  0  0  0  0  0  0
   50.1551    9.0227   12.2521 O   0  0  0  0  0  0  0  0  0  0  0  0
   49.0523    8.8991   14.9036 C   0  0  0  0  0  0  0  0  0  0  0  0
   48.5936    7.9661   13.7890 C   0  0  1  0  0  0  0  0  0  0  0  0
   48.7946    8.5983   12.4141 C   0  0  1  0  0  0  0  0  0  0  0  0
   47.8113    9.7326   12.1464 C   0  0  0  0  0  0  0  0  0  0  0  0
   46.1422   10.4430   11.9398 H   0  0  0  0  0  0  0  0  0  0  0  0
   51.3641    8.5559   12.2427 H   0  0  0  0  0  0  0  0  0  0  0  0
   48.6123    7.5617   13.9831 H   0  0  0  0  0  0  0  0  0  0  0  0
   46.8703    5.8559   13.6658 H   0  0  0  0  0  0  0  0  0  0  0  0
   50.5151   10.8911   12.5410 H   0  0  0  0  0  0  0  0  0  0  0  0
   49.7444    9.7483   11.4860 H   0  0  0  0  0  0  0  0  0  0  0  0
   48.1771   11.1352   12.7103 H   0  0  0  0  0  0  0  0  0  0  0  0
   43.8418    6.5569   12.0413 H   0  0  0  0  0  0  0  0  0  0  0  0
   43.5490    9.6767   11.9217 H   0  0  0  0  0  0  0  0  0  0  0  0
   44.3284    9.2366   10.3781 H   0  0  0  0  0  0  0  0  0  0  0  0
   48.1137    9.9271   15.0718 H   0  0  0  0  0  0  0  0  0  0  0  0
   42.5820    8.0100   10.4486 H   0  0  0  0  0  0  0  0  0  0  0  0
   53.6350    8.3634   14.7979 H   0  0  0  0  0  0  0  0  0  0  0  0
   53.4875    8.7129   13.0737 H   0  0  0  0  0  0  0  0  0  0  0  0
   52.7775    7.2353   13.7508 H   0  0  0  0  0  0  0  0  0  0  0  0
   51.6574    8.4319   16.3036 H   0  0  0  0  0  0  0  0  0  0  0  0
   50.7512    7.3490   15.2457 H   0  0  0  0  0  0  0  0  0  0  0  0
   50.0546    8.9008   15.7347 H   0  0  0  0  0  0  0  0  0  0  0  0
   52.6899   10.5676   15.3916 H   0  0  0  0  0  0  0  0  0  0  0  0
   51.1348   11.1243   14.7887 H   0  0  0  0  0  0  0  0  0  0  0  0
   52.5198   10.9950   13.6875 H   0  0  0  0  0  0  0  0  0  0  0  0
   46.1577   10.1540   13.3239 H   0  0  0  0  0  0  0  0  0  0  0  0
   50.1110   10.2983   15.3361 H   0  0  0  0  0  0  0  0  0  0  0  0
   47.7328    6.1532   13.5853 H   0  0  0  0  0  0  0  0  0  0  0  0
   46.0853    5.4022   11.9014 H   0  0  0  0  0  0  0  0  0  0  0  0
   49.2804    9.8446   13.1347 H   0  0  0  0  0  0  0  0  0  0  0  0
   49.7899    8.1515   13.3329 H   0  0  0  0  0  0  0  0  0  0  0  0
   47.7093    9.5950   15.0766 H   0  0  0  0  0  0  0  0  0  0  0  0
   43.8665    7.6345   10.3531 H   0  0  0  0  0  0  0  0  0  0  0  0
   44.7814   10.6228   11.1854 H   0  0  0  0  0  0  0  0  0  0  0  0
   43.5220    9.9910   12.2897 H   0  0  0  0  0  0  0  0  0  0  0  0
   49.2240    7.9259   15.9083 H   0  0  0  0  0  0  0  0  0  0  0  0
   42.9335    9.9788   10.0856 H   0  0  0  0  0  0  0  0  0  0  0  0
   51.9621    7.9751   12.9693 H   0  0  0  0  0  0  0  0  0  0  0  0
   52.3377    7.5481   14.6479 H   0  0  0  0  0  0  0  0  0  0  0  0
   53.5000    8.4654   13.6785 H   0  0  0  0  0  0  0  0  0  0  0  0
   52.9023   10.9529   13.0066 H   0  0  0  0  0  0  0  0  0  0  0  0
   51.3825   10.3590   12.3454 H   0  0  0  0  0  0  0  0  0  0  0  0
   51.3755   11.6428   13.5698 H   0  0  0  0  0  0  0  0  0  0  0  0
   52.6538    9.4278   16.3926 H   0  0  0  0  0  0  0  0  0  0  0  0
   52.2259   11.0954   15.9840 H   0  0  0  0  0  0  0  0  0  0  0  0
   53.6698   10.3599   15.2852 H   0  0  0  0  0  0  0  0  0  0  0  0
   48.7249   10.4911   15.7772 H   0  0  0  0  0  0  0  0  0  0  0  0
   46.0372   10.2461   12.1979 H   0  0  0  0  0  0  0  0  0  0  0  0
   50.2180    6.9588   14.1777 H   0  0  0  0  0  0  0  0  0  0  0  0
   50.1744    9.5580   11.4320 H   0  0  0  0  0  0  0  0  0  0  0  0
   47.5477    7.7059   13.9759 H   0  0  0  0  0  0  0  0  0  0  0  0
   48.6216    7.8427   11.6370 H   0  0  0  0  0  0  0  0  0  0  0  0
 10  3  1  0
 11  4  1  0
 12  1  1  0
 10 13  1  0
 14 12  1  0
 15  7  1  0
 16  7  1  0
 17  7  1  0
  6  8  1  0
  2  1  2  0
  3  2  1  0
  4  1  1  0
  5  9  1  0
  6  3  2  0
  7  5  1  0
  8  4  2  0
  9 10  1  0
 27 20  1  0
 28 21  1  0
 29 18  1  0
 27 30  1  0
 31 29  1  0
 32 24  1  0
 33 24  1  0
 34 24  1  0
 23 25  1  0
 19 18  2  0
 20 19  1  0
 21 18  1  0
 22 26  1  0
 23 20  2  0
 24 22  1  0
 25 21  2  0
 26 27  1  0
 41 36  2  0
 42 39  1  0
 43 40  1  0
 41 35  1  0
 43 44  1  0
 42 43  1  0
 44 37  1  0
 41 42  1  0
 44 38  2  0
  2 45  1  0
  5 46  1  0
  6 47  1  0
  8 48  1  0
  9 49  1  0
  9 50  1  0
 10 51  1  1
 11 52  1  0
 12 53  1  0
 12 54  1  0
 13 55  1  0
 14 56  1  0
 15 57  1  0
 15 58  1  0
 15 59  1  0
 16 60  1  0
 16 61  1  0
 16 62  1  0
 17 63  1  0
 17 64  1  0
 17 65  1  0
 19 66  1  0
 22 67  1  0
 23 68  1  0
 25 69  1  0
 26 70  1  0
 26 71  1  0
 27 72  1  1
 28 73  1  0
 29 74  1  0
 29 75  1  0
 30 76  1  0
 31 77  1  0
 32 78  1  0
 32 79  1  0
 32 80  1  0
 33 81  1  0
 33 82  1  0
 33 83  1  0
 34 84  1  0
 34 85  1  0
 34 86  1  0
 35 87  1  0
 37 88  1  0
 39 89  1  0
 40 90  1  0
 42 91  1  1
 43 92  1  6
M  END
> <Uni-Dock RESULT> 
ENERGY=   -5.231  LOWER_BOUND=    7.541  UPPER_BOUND=   10.232
INTER + INTRA:          -5.231
INTER:                  -5.231
INTRA:                   0.000
UNBOUND:                 0.000

$$$$

     RDKit          3D

 92 91  0  0  0  0  0  0  0  0999 V2000
   47.6508   11.1425   19.0814 C   0  0  0  0  0  0  0  0  0  0  0  0
   48.2173   10.2034   18.1953 C   0  0  0  0  0  0  0  0  0  0  0  0
   48.5360    8.8927   18.6013 C   0  0  0  0  0  0  0  0  0  0  0  0
   47.4302   10.7378   20.4038 C   0  0  0  0  0  0  0  0  0  0  0  0
   48.1477    5.6428   18.4088 N   0  0  0  0  0  0  0  0  0  0  0  0
   48.2893    8.5308   19.9309 C   0  0  0  0  0  0  0  0  0  0  0  0
   49.2025    4.6369   18.6720 C   0  0  0  0  0  0  0  0  0  0  0  0
   47.7388    9.4473   20.8254 C   0  0  0  0  0  0  0  0  0  0  0  0
   48.3605    6.6299   17.3334 C   0  0  0  0  0  0  0  0  0  0  0  0
   49.1735    7.9267   17.6163 C   0  0  2  0  0  0  0  0  0  0  0  0
   46.9066   11.5757   21.3478 O   0  0  0  0  0  0  0  0  0  0  0  0
   47.3238   12.5126   18.5433 C   0  0  0  0  0  0  0  0  0  0  0  0
   50.5277    7.6516   17.9718 O   0  0  0  0  0  0  0  0  0  0  0  0
   46.7365   13.3575   19.5340 O   0  0  0  0  0  0  0  0  0  0  0  0
   48.4759    3.3140   19.0090 C   0  0  0  0  0  0  0  0  0  0  0  0
   49.9940    5.0512   19.9240 C   0  0  0  0  0  0  0  0  0  0  0  0
   50.1715    4.3440   17.5131 C   0  0  0  0  0  0  0  0  0  0  0  0
   47.7064   11.2663   18.8486 C   0  0  0  0  0  0  0  0  0  0  0  0
   48.6643   10.2340   18.8265 C   0  0  0  0  0  0  0  0  0  0  0  0
   48.6248    9.1703   19.7459 C   0  0  0  0  0  0  0  0  0  0  0  0
   46.7074   11.2097   19.8292 C   0  0  0  0  0  0  0  0  0  0  0  0
   50.0783    5.7567   18.8394 N   0  0  0  0  0  0  0  0  0  0  0  0
   47.6088    9.1521   20.7107 C   0  0  0  0  0  0  0  0  0  0  0  0
   49.6294    4.4941   18.2152 C   0  0  0  0  0  0  0  0  0  0  0  0
   46.6569   10.1703   20.7542 C   0  0  0  0  0  0  0  0  0  0  0  0
   49.0889    6.8550   18.8333 C   0  0  0  0  0  0  0  0  0  0  0  0
   49.6380    8.0512   19.6513 C   0  0  2  0  0  0  0  0  0  0  0  0
   45.7288   12.1608   19.9296 O   0  0  0  0  0  0  0  0  0  0  0  0
   47.8435   12.3843   17.8447 C   0  0  0  0  0  0  0  0  0  0  0  0
   50.0051    7.5945   20.9593 O   0  0  0  0  0  0  0  0  0  0  0  0
   46.6948   13.2351   17.8265 O   0  0  0  0  0  0  0  0  0  0  0  0
   48.4966    3.8438   19.0282 C   0  0  0  0  0  0  0  0  0  0  0  0
   49.1847    4.6877   16.7547 C   0  0  0  0  0  0  0  0  0  0  0  0
   50.8450    3.5454   18.2371 C   0  0  0  0  0  0  0  0  0  0  0  0
   50.6752    7.8822   18.7215 O   0  0  0  0  0  0  0  0  0  0  0  0
   50.4188    6.0214   19.9232 O   0  0  0  0  0  0  0  0  0  0  0  0
   48.2895    9.9651   18.2199 O   0  0  0  0  0  0  0  0  0  0  0  0
   48.1692    8.6470   16.4244 O   0  0  0  0  0  0  0  0  0  0  0  0
   47.9296    6.7828   20.8390 O   0  0  0  0  0  0  0  0  0  0  0  0
   47.6221    6.3839   17.9692 O   0  0  0  0  0  0  0  0  0  0  0  0
   49.9462    7.0729   19.5136 C   0  0  0  0  0  0  0  0  0  0  0  0
   48.5602    7.6124   19.8473 C   0  0  1  0  0  0  0  0  0  0  0  0
   47.6696    7.6669   18.6086 C   0  0  1  0  0  0  0  0  0  0  0  0
   48.0878    8.7678   17.6398 C   0  0  0  0  0  0  0  0  0  0  0  0
   48.4080   10.5013   17.1649 H   0  0  0  0  0  0  0  0  0  0  0  0
   47.2765    5.1553   18.1951 H   0  0  0  0  0  0  0  0  0  0  0  0
   48.5252    7.5326   20.2877 H   0  0  0  0  0  0  0  0  0  0  0  0
   47.5557    9.1577   21.8574 H   0  0  0  0  0  0  0  0  0  0  0  0
   48.7684    6.1386   16.4429 H   0  0  0  0  0  0  0  0  0  0  0  0
   47.3568    6.9599   17.0311 H   0  0  0  0  0  0  0  0  0  0  0  0
   49.2397    8.4386   16.6479 H   0  0  0  0  0  0  0  0  0  0  0  0
   46.7654   12.4383   20.9005 H   0  0  0  0  0  0  0  0  0  0  0  0
   48.2378   12.9983   18.1890 H   0  0  0  0  0  0  0  0  0  0  0  0
   46.6184   12.4200   17.7127 H   0  0  0  0  0  0  0  0  0  0  0  0
   50.6840    8.0573   18.8408 H   0  0  0  0  0  0  0  0  0  0  0  0
   46.2221   14.0317   19.0562 H   0  0  0  0  0  0  0  0  0  0  0  0
   49.1891    2.5268   19.2704 H   0  0  0  0  0  0  0  0  0  0  0  0
   47.8868    2.9530   18.1571 H   0  0  0  0  0  0  0  0  0  0  0  0
   47.7992    3.4338   19.8621 H   0  0  0  0  0  0  0  0  0  0  0  0
   50.6956    4.2616   20.2207 H   0  0  0  0  0  0  0  0  0  0  0  0
   49.3232    5.2219   20.7753 H   0  0  0  0  0  0  0  0  0  0  0  0
   50.5772    5.9632   19.7701 H   0  0  0  0  0  0  0  0  0  0  0  0
   50.8793    3.5509   17.7876 H   0  0  0  0  0  0  0  0  0  0  0  0
   50.7710    5.2176   17.2379 H   0  0  0  0  0  0  0  0  0  0  0  0
   49.6351    4.0029   16.6200 H   0  0  0  0  0  0  0  0  0  0  0  0
   49.4581   10.2599   18.0805 H   0  0  0  0  0  0  0  0  0  0  0  0
   50.9225    6.0796   18.3622 H   0  0  0  0  0  0  0  0  0  0  0  0
   47.5587    8.3434   21.4383 H   0  0  0  0  0  0  0  0  0  0  0  0
   45.8752   10.1530   21.5098 H   0  0  0  0  0  0  0  0  0  0  0  0
   48.8687    7.1838   17.8102 H   0  0  0  0  0  0  0  0  0  0  0  0
   48.1542    6.5149   19.2959 H   0  0  0  0  0  0  0  0  0  0  0  0
   50.5584    8.4282   19.1879 H   0  0  0  0  0  0  0  0  0  0  0  0
   45.8410   12.7487   19.1509 H   0  0  0  0  0  0  0  0  0  0  0  0
   47.9647   11.9680   16.8400 H   0  0  0  0  0  0  0  0  0  0  0  0
   48.7141   12.9965   18.0989 H   0  0  0  0  0  0  0  0  0  0  0  0
   50.3152    6.6774   20.8150 H   0  0  0  0  0  0  0  0  0  0  0  0
   46.8562   13.8984   17.1296 H   0  0  0  0  0  0  0  0  0  0  0  0
   47.5632    4.4122   18.9622 H   0  0  0  0  0  0  0  0  0  0  0  0
   48.7676    3.7615   20.0878 H   0  0  0  0  0  0  0  0  0  0  0  0
   48.2850    2.8321   18.6611 H   0  0  0  0  0  0  0  0  0  0  0  0
   48.9930    3.7220   16.2730 H   0  0  0  0  0  0  0  0  0  0  0  0
   48.2594    5.2688   16.6842 H   0  0  0  0  0  0  0  0  0  0  0  0
   49.9551    5.2009   16.1671 H   0  0  0  0  0  0  0  0  0  0  0  0
   51.1805    3.3473   19.2608 H   0  0  0  0  0  0  0  0  0  0  0  0
   51.6935    3.9646   17.6839 H   0  0  0  0  0  0  0  0  0  0  0  0
   50.5988    2.5836   17.7756 H   0  0  0  0  0  0  0  0  0  0  0  0
   51.5200    7.3973   18.6066 H   0  0  0  0  0  0  0  0  0  0  0  0
   48.5422   10.5510   17.4746 H   0  0  0  0  0  0  0  0  0  0  0  0
   48.2537    5.8721   20.6730 H   0  0  0  0  0  0  0  0  0  0  0  0
   47.1782    6.5284   17.1080 H   0  0  0  0  0  0  0  0  0  0  0  0
   48.6836    8.5950   20.3118 H   0  0  0  0  0  0  0  0  0  0  0  0
   46.6384    7.8897   18.9110 H   0  0  0  0  0  0  0  0  0  0  0  0
 10  3  1  0
 11  4  1  0
 12  1  1  0
 10 13  1  0
 14 12  1  0
 15  7  1  0
 16  7  1  0
 17  7  1  0
  6  8  1  0
  2  1  2  0
  3  2  1  0
  4  1  1  0
  5  9  1  0
  6  3  2  0
  7  5  1  0
  8  4  2  0
  9 10  1  0
 27 20  1  0
 28 21  1  0
 29 18  1  0
 27 30  1  0
 31 29  1  0
 32 24  1  0
 33 24  1  0
 34 24  1  0
 23 25  1  0
 19 18  2  0
 20 19  1  0
 21 18  1  0
 22 26  1  0
 23 20  2  0
 24 22  1  0
 25 21  2  0
 26 27  1  0
 41 36  2  0
 42 39  1  0
 43 40  1  0
 41 35  1  0
 43 44  1  0
 42 43  1  0
 44 37  1  0
 41 42  1  0
 44 38  2  0
  2 45  1  0
  5 46  1  0
  6 47  1  0
  8 48  1  0
  9 49  1  0
  9 50  1  0
 10 51  1  1
 11 52  1  0
 12 53  1  0
 12 54  1  0
 13 55  1  0
 14 56  1  0
 15 57  1  0
 15 58  1  0
 15 59  1  0
 16 60  1  0
 16 61  1  0
 16 62  1  0
 17 63  1  0
 17 64  1  0
 17 65  1  0
 19 66  1  0
 22 67  1  0
 23 68  1  0
 25 69  1  0
 26 70  1  0
 26 71  1  0
 27 72  1  1
 28 73  1  0
 29 74  1  0
 29 75  1  0
 30 76  1  0
 31 77  1  0
 32 78  1  0
 32 79  1  0
 32 80  1  0
 33 81  1  0
 33 82  1  0
 33 83  1  0
 34 84  1  0
 34 85  1  0
 34 86  1  0
 35 87  1  0
 37 88  1  0
 39 89  1  0
 40 90  1  0
 42 91  1  1
 43 92  1  6
M  END
> <Uni-Dock RESULT> 
ENERGY=   -5.202  LOWER_BOUND=   10.856  UPPER_BOUND=   13.372
INTER + INTRA:          -5.202
INTER:                  -5.202
INTRA:                   0.000
UNBOUND:                 0.000

$$$$

     RDKit          3D

 92 91  0  0  0  0  0  0  0  0999 V2000
   48.0551    6.8656   21.5249 C   0  0  0  0  0  0  0  0  0  0  0  0
   48.4478    7.5237   20.3414 C   0  0  0  0  0  0  0  0  0  0  0  0
   48.2280    8.9013   20.1458 C   0  0  0  0  0  0  0  0  0  0  0  0
   47.4098    7.6260   22.5080 C   0  0  0  0  0  0  0  0  0  0  0  0
   49.3243   11.9544   19.6702 N   0  0  0  0  0  0  0  0  0  0  0  0
   47.5872    9.6222   21.1604 C   0  0  0  0  0  0  0  0  0  0  0  0
   48.6131   13.0124   18.9165 C   0  0  0  0  0  0  0  0  0  0  0  0
   47.1822    8.9885   22.3341 C   0  0  0  0  0  0  0  0  0  0  0  0
   49.6855   10.7060   18.9722 C   0  0  0  0  0  0  0  0  0  0  0  0
   48.6425    9.5583   18.8395 C   0  0  2  0  0  0  0  0  0  0  0  0
   46.9692    7.0822   23.6817 O   0  0  0  0  0  0  0  0  0  0  0  0
   48.3570    5.3934   21.6473 C   0  0  0  0  0  0  0  0  0  0  0  0
   47.5011    9.9475   18.0768 O   0  0  0  0  0  0  0  0  0  0  0  0
   47.9288    4.8550   22.8991 O   0  0  0  0  0  0  0  0  0  0  0  0
   49.1839   14.3632   19.4075 C   0  0  0  0  0  0  0  0  0  0  0  0
   47.1224   12.9861   19.2943 C   0  0  0  0  0  0  0  0  0  0  0  0
   48.7658   12.9808   17.3857 C   0  0  0  0  0  0  0  0  0  0  0  0
   48.1457    6.6817   21.3500 C   0  0  0  0  0  0  0  0  0  0  0  0
   47.7002    7.6821   20.4642 C   0  0  0  0  0  0  0  0  0  0  0  0
   47.3372    8.9627   20.9190 C   0  0  0  0  0  0  0  0  0  0  0  0
   48.2082    6.9971   22.7136 C   0  0  0  0  0  0  0  0  0  0  0  0
   47.6407   12.0026   18.6270 N   0  0  0  0  0  0  0  0  0  0  0  0
   47.4143    9.2365   22.2911 C   0  0  0  0  0  0  0  0  0  0  0  0
   48.6471   13.0270   18.2762 C   0  0  0  0  0  0  0  0  0  0  0  0
   47.8441    8.2557   23.1845 C   0  0  0  0  0  0  0  0  0  0  0  0
   48.1133   10.9304   19.5281 C   0  0  0  0  0  0  0  0  0  0  0  0
   46.9197   10.0266   19.9282 C   0  0  2  0  0  0  0  0  0  0  0  0
   48.6330    6.0965   23.6521 O   0  0  0  0  0  0  0  0  0  0  0  0
   48.4846    5.3269   20.7790 C   0  0  0  0  0  0  0  0  0  0  0  0
   45.8780   10.8433   20.4778 O   0  0  0  0  0  0  0  0  0  0  0  0
   49.1311    4.4855   21.7371 O   0  0  0  0  0  0  0  0  0  0  0  0
   49.0436   13.8613   19.5066 C   0  0  0  0  0  0  0  0  0  0  0  0
   49.9024   12.4177   17.6270 C   0  0  0  0  0  0  0  0  0  0  0  0
   47.9716   13.9645   17.2550 C   0  0  0  0  0  0  0  0  0  0  0  0
   46.8440    9.9426   18.5297 O   0  0  0  0  0  0  0  0  0  0  0  0
   46.6149   12.0636   19.1789 O   0  0  0  0  0  0  0  0  0  0  0  0
   48.4309    7.7604   20.2621 O   0  0  0  0  0  0  0  0  0  0  0  0
   50.0024    8.5105   18.8682 O   0  0  0  0  0  0  0  0  0  0  0  0
   47.6047   11.5496   21.7029 O   0  0  0  0  0  0  0  0  0  0  0  0
   49.8350   11.1095   19.8805 O   0  0  0  0  0  0  0  0  0  0  0  0
   47.0016   10.9306   19.4312 C   0  0  0  0  0  0  0  0  0  0  0  0
   47.6465   10.4836   20.7379 C   0  0  1  0  0  0  0  0  0  0  0  0
   49.0988   10.0626   20.5280 C   0  0  1  0  0  0  0  0  0  0  0  0
   49.2183    8.7393   19.7799 C   0  0  0  0  0  0  0  0  0  0  0  0
   48.9411    6.9483   19.5588 H   0  0  0  0  0  0  0  0  0  0  0  0
   50.1899   12.3451   20.0450 H   0  0  0  0  0  0  0  0  0  0  0  0
   47.3926   10.6847   21.0487 H   0  0  0  0  0  0  0  0  0  0  0  0
   46.6808    9.5565   23.1140 H   0  0  0  0  0  0  0  0  0  0  0  0
   50.0985   10.9308   17.9824 H   0  0  0  0  0  0  0  0  0  0  0  0
   50.5306   10.2856   19.5349 H   0  0  0  0  0  0  0  0  0  0  0  0
   49.1369    8.7932   18.2276 H   0  0  0  0  0  0  0  0  0  0  0  0
   47.1862    6.1256   23.6389 H   0  0  0  0  0  0  0  0  0  0  0  0
   47.8429    4.8436   20.8535 H   0  0  0  0  0  0  0  0  0  0  0  0
   49.4352    5.2330   21.5582 H   0  0  0  0  0  0  0  0  0  0  0  0
   46.7203    9.8089   18.6383 H   0  0  0  0  0  0  0  0  0  0  0  0
   48.4713    4.0636   23.0625 H   0  0  0  0  0  0  0  0  0  0  0  0
   48.6697   15.2050   18.9345 H   0  0  0  0  0  0  0  0  0  0  0  0
   50.2509   14.4561   19.1709 H   0  0  0  0  0  0  0  0  0  0  0  0
   49.0658   14.4791   20.4903 H   0  0  0  0  0  0  0  0  0  0  0  0
   46.5931   13.8399   18.8532 H   0  0  0  0  0  0  0  0  0  0  0  0
   46.9904   13.0526   20.3814 H   0  0  0  0  0  0  0  0  0  0  0  0
   46.6177   12.0786   18.9515 H   0  0  0  0  0  0  0  0  0  0  0  0
   48.2479   13.8318   16.9244 H   0  0  0  0  0  0  0  0  0  0  0  0
   48.3392   12.0759   16.9412 H   0  0  0  0  0  0  0  0  0  0  0  0
   49.8189   13.0438   17.0876 H   0  0  0  0  0  0  0  0  0  0  0  0
   47.6322    7.4593   19.3998 H   0  0  0  0  0  0  0  0  0  0  0  0
   47.2933   11.5725   17.7673 H   0  0  0  0  0  0  0  0  0  0  0  0
   47.1333   10.2178   22.6705 H   0  0  0  0  0  0  0  0  0  0  0  0
   47.8951    8.4733   24.2487 H   0  0  0  0  0  0  0  0  0  0  0  0
   48.8867   10.3200   19.0457 H   0  0  0  0  0  0  0  0  0  0  0  0
   48.5385   11.3712   20.4382 H   0  0  0  0  0  0  0  0  0  0  0  0
   46.4974    9.5499   19.0347 H   0  0  0  0  0  0  0  0  0  0  0  0
   48.9512    5.3133   23.1520 H   0  0  0  0  0  0  0  0  0  0  0  0
   49.1619    5.4421   19.9273 H   0  0  0  0  0  0  0  0  0  0  0  0
   47.5657    4.8282   20.4562 H   0  0  0  0  0  0  0  0  0  0  0  0
   45.9500   11.6868   19.9865 H   0  0  0  0  0  0  0  0  0  0  0  0
   49.3434    3.6543   21.2726 H   0  0  0  0  0  0  0  0  0  0  0  0
   49.6294   13.2809   20.2268 H   0  0  0  0  0  0  0  0  0  0  0  0
   48.1572   14.2467   20.0251 H   0  0  0  0  0  0  0  0  0  0  0  0
   49.6556   14.7227   19.2123 H   0  0  0  0  0  0  0  0  0  0  0  0
   50.5674   13.2027   17.2491 H   0  0  0  0  0  0  0  0  0  0  0  0
   50.4828   11.8240   18.3407 H   0  0  0  0  0  0  0  0  0  0  0  0
   49.6410   11.7724   16.7799 H   0  0  0  0  0  0  0  0  0  0  0  0
   47.0881   14.4518   17.6815 H   0  0  0  0  0  0  0  0  0  0  0  0
   47.6515   13.4204   16.3586 H   0  0  0  0  0  0  0  0  0  0  0  0
   48.6608   14.7505   16.9300 H   0  0  0  0  0  0  0  0  0  0  0  0
   46.4246   10.3899   17.7640 H   0  0  0  0  0  0  0  0  0  0  0  0
   48.6273    6.9913   19.6856 H   0  0  0  0  0  0  0  0  0  0  0  0
   47.6799   12.3810   21.1881 H   0  0  0  0  0  0  0  0  0  0  0  0
   50.6976   10.7178   19.6313 H   0  0  0  0  0  0  0  0  0  0  0  0
   47.0379    9.6762   21.1555 H   0  0  0  0  0  0  0  0  0  0  0  0
   49.5802    9.9166   21.5035 H   0  0  0  0  0  0  0  0  0  0  0  0
 10  3  1  0
 11  4  1  0
 12  1  1  0
 10 13  1  0
 14 12  1  0
 15  7  1  0
 16  7  1  0
 17  7  1  0
  6  8  1  0
  2  1  2  0
  3  2  1  0
  4  1  1  0
  5  9  1  0
  6  3  2  0
  7  5  1  0
  8  4  2  0
  9 10  1  0
 27 20  1  0
 28 21  1  0
 29 18  1  0
 27 30  1  0
 31 29  1  0
 32 24  1  0
 33 24  1  0
 34 24  1  0
 23 25  1  0
 19 18  2  0
 20 19  1  0
 21 18  1  0
 22 26  1  0
 23 20  2  0
 24 22  1  0
 25 21  2  0
 26 27  1  0
 41 36  2  0
 42 39  1  0
 43 40  1  0
 41 35  1  0
 43 44  1  0
 42 43  1  0
 44 37  1  0
 41 42  1  0
 44 38  2  0
  2 45  1  0
  5 46  1  0
  6 47  1  0
  8 48  1  0
  9 49  1  0
  9 50  1  0
 10 51  1  1
 11 52  1  0
 12 53  1  0
 12 54  1  0
 13 55  1  0
 14 56  1  0
 15 57  1  0
 15 58  1  0
 15 59  1  0
 16 60  1  0
 16 61  1  0
 16 62  1  0
 17 63  1  0
 17 64  1  0
 17 65  1  0
 19 66  1  0
 22 67  1  0
 23 68  1  0
 25 69  1  0
 26 70  1  0
 26 71  1  0
 27 72  1  1
 28 73  1  0
 29 74  1  0
 29 75  1  0
 30 76  1  0
 31 77  1  0
 32 78  1  0
 32 79  1  0
 32 80  1  0
 33 81  1  0
 33 82  1  0
 33 83  1  0
 34 84  1  0
 34 85  1  0
 34 86  1  0
 35 87  1  0
 37 88  1  0
 39 89  1  0
 40 90  1  0
 42 91  1  1
 43 92  1  6
M  END
> <Uni-Dock RESULT> 
ENERGY=   -5.190  LOWER_BOUND=   12.342  UPPER_BOUND=   13.803
INTER + INTRA:          -5.190
INTER:                  -5.190
INTRA:                   0.000
UNBOUND:                 0.000

$$$$

     RDKit          3D

 92 91  0  0  0  0  0  0  0  0999 V2000
   48.0562    6.9184   21.2961 C   0  0  0  0  0  0  0  0  0  0  0  0
   48.2353    8.2827   21.6040 C   0  0  0  0  0  0  0  0  0  0  0  0
   48.3320    9.2672   20.6011 C   0  0  0  0  0  0  0  0  0  0  0  0
   47.9984    6.5593   19.9438 C   0  0  0  0  0  0  0  0  0  0  0  0
   47.2230   11.9554   19.0868 N   0  0  0  0  0  0  0  0  0  0  0  0
   48.2598    8.8617   19.2632 C   0  0  0  0  0  0  0  0  0  0  0  0
   48.0656   12.9597   18.3977 C   0  0  0  0  0  0  0  0  0  0  0  0
   48.0926    7.5166   18.9374 C   0  0  0  0  0  0  0  0  0  0  0  0
   47.4440   11.7094   20.5244 C   0  0  0  0  0  0  0  0  0  0  0  0
   48.5555   10.7210   20.9834 C   0  0  2  0  0  0  0  0  0  0  0  0
   47.8491    5.2634   19.5367 O   0  0  0  0  0  0  0  0  0  0  0  0
   47.9401    5.9456   22.4424 C   0  0  0  0  0  0  0  0  0  0  0  0
   49.8599   11.1564   20.6030 O   0  0  0  0  0  0  0  0  0  0  0  0
   47.7399    4.6038   21.9957 O   0  0  0  0  0  0  0  0  0  0  0  0
   47.1445   13.6963   17.3974 C   0  0  0  0  0  0  0  0  0  0  0  0
   49.1425   12.2347   17.5730 C   0  0  0  0  0  0  0  0  0  0  0  0
   48.7205   14.0293   19.2892 C   0  0  0  0  0  0  0  0  0  0  0  0
   48.0938    6.9427   21.5619 C   0  0  0  0  0  0  0  0  0  0  0  0
   48.7858    8.0788   21.0995 C   0  0  0  0  0  0  0  0  0  0  0  0
   48.6859    8.5118   19.7649 C   0  0  0  0  0  0  0  0  0  0  0  0
   47.3021    6.2410   20.6433 C   0  0  0  0  0  0  0  0  0  0  0  0
   49.1779   12.1916   18.8684 N   0  0  0  0  0  0  0  0  0  0  0  0
   47.8833    7.7811   18.8786 C   0  0  0  0  0  0  0  0  0  0  0  0
   48.3610   13.4166   18.7372 C   0  0  0  0  0  0  0  0  0  0  0  0
   47.1980    6.6480   19.3159 C   0  0  0  0  0  0  0  0  0  0  0  0
   48.4649   11.0052   19.3872 C   0  0  0  0  0  0  0  0  0  0  0  0
   49.3990    9.7704   19.3230 C   0  0  2  0  0  0  0  0  0  0  0  0
   46.5870    5.1291   20.9960 O   0  0  0  0  0  0  0  0  0  0  0  0
   48.2836    6.5323   23.0014 C   0  0  0  0  0  0  0  0  0  0  0  0
   49.8910    9.6250   17.9847 O   0  0  0  0  0  0  0  0  0  0  0  0
   47.3620    5.5133   23.3965 O   0  0  0  0  0  0  0  0  0  0  0  0
   47.2822   13.2522   17.6527 C   0  0  0  0  0  0  0  0  0  0  0  0
   47.7098   13.8324   20.0682 C   0  0  0  0  0  0  0  0  0  0  0  0
   49.3262   14.5340   18.2922 C   0  0  0  0  0  0  0  0  0  0  0  0
   50.1878   10.6459   20.0845 O   0  0  0  0  0  0  0  0  0  0  0  0
   49.7594   11.5462   18.0899 O   0  0  0  0  0  0  0  0  0  0  0  0
   48.2576    8.4893   21.4646 O   0  0  0  0  0  0  0  0  0  0  0  0
   47.5302   10.4139   22.3261 O   0  0  0  0  0  0  0  0  0  0  0  0
   47.7030    9.7801   17.5733 O   0  0  0  0  0  0  0  0  0  0  0  0
   46.7985   11.4033   19.8175 O   0  0  0  0  0  0  0  0  0  0  0  0
   49.4583   10.7362   18.9560 C   0  0  0  0  0  0  0  0  0  0  0  0
   48.3061    9.7413   18.8787 C   0  0  1  0  0  0  0  0  0  0  0  0
   47.2377   10.0423   19.9268 C   0  0  1  0  0  0  0  0  0  0  0  0
   47.6999    9.7077   21.3408 C   0  0  0  0  0  0  0  0  0  0  0  0
   48.2946    8.5824   22.6497 H   0  0  0  0  0  0  0  0  0  0  0  0
   46.2430   12.2209   18.9791 H   0  0  0  0  0  0  0  0  0  0  0  0
   48.3357    9.5866   18.4583 H   0  0  0  0  0  0  0  0  0  0  0  0
   48.0427    7.2114   17.8949 H   0  0  0  0  0  0  0  0  0  0  0  0
   47.5669   12.6590   21.0572 H   0  0  0  0  0  0  0  0  0  0  0  0
   46.4974   11.3004   20.9041 H   0  0  0  0  0  0  0  0  0  0  0  0
   48.5529   10.7782   22.0793 H   0  0  0  0  0  0  0  0  0  0  0  0
   47.8184    4.7211   20.3546 H   0  0  0  0  0  0  0  0  0  0  0  0
   48.8572    5.9661   23.0386 H   0  0  0  0  0  0  0  0  0  0  0  0
   47.0920    6.2248   23.0740 H   0  0  0  0  0  0  0  0  0  0  0  0
   50.2559   10.4455   20.0720 H   0  0  0  0  0  0  0  0  0  0  0  0
   47.3048    4.1289   22.7255 H   0  0  0  0  0  0  0  0  0  0  0  0
   47.7063   14.4245   16.8051 H   0  0  0  0  0  0  0  0  0  0  0  0
   46.3462   14.2415   17.9157 H   0  0  0  0  0  0  0  0  0  0  0  0
   46.6768   12.9990   16.6939 H   0  0  0  0  0  0  0  0  0  0  0  0
   49.6993   12.9447   16.9487 H   0  0  0  0  0  0  0  0  0  0  0  0
   48.6912   11.4975   16.8974 H   0  0  0  0  0  0  0  0  0  0  0  0
   49.8708   11.7121   18.1993 H   0  0  0  0  0  0  0  0  0  0  0  0
   49.2783   14.7546   18.6824 H   0  0  0  0  0  0  0  0  0  0  0  0
   49.4340   13.6014   20.0007 H   0  0  0  0  0  0  0  0  0  0  0  0
   47.9695   14.5923   19.8555 H   0  0  0  0  0  0  0  0  0  0  0  0
   49.4168    8.6363   21.7911 H   0  0  0  0  0  0  0  0  0  0  0  0
   49.9705   12.3870   19.4836 H   0  0  0  0  0  0  0  0  0  0  0  0
   47.7934    8.0909   17.8385 H   0  0  0  0  0  0  0  0  0  0  0  0
   46.5822    6.0821   18.6209 H   0  0  0  0  0  0  0  0  0  0  0  0
   48.1381   11.1612   20.4228 H   0  0  0  0  0  0  0  0  0  0  0  0
   47.5792   10.8060   18.7715 H   0  0  0  0  0  0  0  0  0  0  0  0
   50.2788    9.9353   19.9576 H   0  0  0  0  0  0  0  0  0  0  0  0
   46.6796    5.0448   21.9703 H   0  0  0  0  0  0  0  0  0  0  0  0
   48.1267    7.3945   23.6567 H   0  0  0  0  0  0  0  0  0  0  0  0
   49.2972    6.1434   23.1380 H   0  0  0  0  0  0  0  0  0  0  0  0
   49.9642   10.5437   17.6548 H   0  0  0  0  0  0  0  0  0  0  0  0
   47.5330    5.3408   24.3413 H   0  0  0  0  0  0  0  0  0  0  0  0
   46.4975   12.5510   17.9548 H   0  0  0  0  0  0  0  0  0  0  0  0
   47.7176   12.8877   16.7143 H   0  0  0  0  0  0  0  0  0  0  0  0
   46.7939   14.2111   17.4405 H   0  0  0  0  0  0  0  0  0  0  0  0
   47.2296   14.8136   19.9789 H   0  0  0  0  0  0  0  0  0  0  0  0
   46.9349   13.1252   20.3811 H   0  0  0  0  0  0  0  0  0  0  0  0
   48.4525   13.9019   20.8719 H   0  0  0  0  0  0  0  0  0  0  0  0
   49.7919   14.3010   17.3285 H   0  0  0  0  0  0  0  0  0  0  0  0
   50.1298   14.6868   19.0220 H   0  0  0  0  0  0  0  0  0  0  0  0
   48.7983   15.4870   18.1848 H   0  0  0  0  0  0  0  0  0  0  0  0
   50.8726   11.3397   19.9760 H   0  0  0  0  0  0  0  0  0  0  0  0
   48.4906    8.4298   22.4158 H   0  0  0  0  0  0  0  0  0  0  0  0
   47.7870   10.7077   17.2659 H   0  0  0  0  0  0  0  0  0  0  0  0
   46.2470   11.5727   20.6091 H   0  0  0  0  0  0  0  0  0  0  0  0
   48.7213    8.7353   18.9881 H   0  0  0  0  0  0  0  0  0  0  0  0
   46.3518    9.4247   19.7314 H   0  0  0  0  0  0  0  0  0  0  0  0
 10  3  1  0
 11  4  1  0
 12  1  1  0
 10 13  1  0
 14 12  1  0
 15  7  1  0
 16  7  1  0
 17  7  1  0
  6  8  1  0
  2  1  2  0
  3  2  1  0
  4  1  1  0
  5  9  1  0
  6  3  2  0
  7  5  1  0
  8  4  2  0
  9 10  1  0
 27 20  1  0
 28 21  1  0
 29 18  1  0
 27 30  1  0
 31 29  1  0
 32 24  1  0
 33 24  1  0
 34 24  1  0
 23 25  1  0
 19 18  2  0
 20 19  1  0
 21 18  1  0
 22 26  1  0
 23 20  2  0
 24 22  1  0
 25 21  2  0
 26 27  1  0
 41 36  2  0
 42 39  1  0
 43 40  1  0
 41 35  1  0
 43 44  1  0
 42 43  1  0
 44 37  1  0
 41 42  1  0
 44 38  2  0
  2 45  1  0
  5 46  1  0
  6 47  1  0
  8 48  1  0
  9 49  1  0
  9 50  1  0
 10 51  1  1
 11 52  1  0
 12 53  1  0
 12 54  1  0
 13 55  1  0
 14 56  1  0
 15 57  1  0
 15 58  1  0
 15 59  1  0
 16 60  1  0
 16 61  1  0
 16 62  1  0
 17 63  1  0
 17 64  1  0
 17 65  1  0
 19 66  1  0
 22 67  1  0
 23 68  1  0
 25 69  1  0
 26 70  1  0
 26 71  1  0
 27 72  1  1
 28 73  1  0
 29 74  1  0
 29 75  1  0
 30 76  1  0
 31 77  1  0
 32 78  1  0
 32 79  1  0
 32 80  1  0
 33 81  1  0
 33 82  1  0
 33 83  1  0
 34 84  1  0
 34 85  1  0
 34 86  1  0
 35 87  1  0
 37 88  1  0
 39 89  1  0
 40 90  1  0
 42 91  1  1
 43 92  1  6
M  END
> <Uni-Dock RESULT> 
ENERGY=   -4.950  LOWER_BOUND=   12.088  UPPER_BOUND=   13.746
INTER + INTRA:          -4.950
INTER:                  -4.950
INTRA:                   0.000
UNBOUND:                 0.000

$$$$

     RDKit          3D

 92 91  0  0  0  0  0  0  0  0999 V2000
   56.5720    2.5269   11.0204 C   0  0  0  0  0  0  0  0  0  0  0  0
   56.0567    3.8167   11.2630 C   0  0  0  0  0  0  0  0  0  0  0  0
   55.7144    4.6927   10.2143 C   0  0  0  0  0  0  0  0  0  0  0  0
   56.7585    2.1416    9.6870 C   0  0  0  0  0  0  0  0  0  0  0  0
   53.5204    6.4596    8.5369 N   0  0  0  0  0  0  0  0  0  0  0  0
   55.9099    4.2603    8.8973 C   0  0  0  0  0  0  0  0  0  0  0  0
   53.8062    7.7236    7.8199 C   0  0  0  0  0  0  0  0  0  0  0  0
   56.4273    2.9925    8.6360 C   0  0  0  0  0  0  0  0  0  0  0  0
   53.7642    6.3972    9.9905 C   0  0  0  0  0  0  0  0  0  0  0  0
   55.1912    6.0847   10.5279 C   0  0  2  0  0  0  0  0  0  0  0  0
   57.2716    0.9228    9.3425 O   0  0  0  0  0  0  0  0  0  0  0  0
   56.8849    1.6564   12.2112 C   0  0  0  0  0  0  0  0  0  0  0  0
   56.1407    7.0841   10.1600 O   0  0  0  0  0  0  0  0  0  0  0  0
   57.3775    0.3715   11.8282 O   0  0  0  0  0  0  0  0  0  0  0  0
   52.6928    7.8907    6.7598 C   0  0  0  0  0  0  0  0  0  0  0  0
   55.1369    7.5838    7.0614 C   0  0  0  0  0  0  0  0  0  0  0  0
   53.8216    9.0043    8.6726 C   0  0  0  0  0  0  0  0  0  0  0  0
   56.5806    2.5747   11.2855 C   0  0  0  0  0  0  0  0  0  0  0  0
   56.6605    3.8884   10.7840 C   0  0  0  0  0  0  0  0  0  0  0  0
   56.4277    4.1762    9.4270 C   0  0  0  0  0  0  0  0  0  0  0  0
   56.2695    1.5489   10.3834 C   0  0  0  0  0  0  0  0  0  0  0  0
   55.1274    7.6045    8.3579 N   0  0  0  0  0  0  0  0  0  0  0  0
   56.1195    3.1207    8.5585 C   0  0  0  0  0  0  0  0  0  0  0  0
   53.8284    8.2769    8.1433 C   0  0  0  0  0  0  0  0  0  0  0  0
   56.0452    1.8122    9.0347 C   0  0  0  0  0  0  0  0  0  0  0  0
   55.0506    6.2385    8.9175 C   0  0  0  0  0  0  0  0  0  0  0  0
   56.4660    5.6079    8.9405 C   0  0  2  0  0  0  0  0  0  0  0  0
   56.1630    0.2417   10.7734 O   0  0  0  0  0  0  0  0  0  0  0  0
   56.8763    2.3535   12.7484 C   0  0  0  0  0  0  0  0  0  0  0  0
   57.0299    5.6760    7.6246 O   0  0  0  0  0  0  0  0  0  0  0  0
   56.5422    1.0291   13.1706 O   0  0  0  0  0  0  0  0  0  0  0  0
   53.0152    7.5769    7.0408 C   0  0  0  0  0  0  0  0  0  0  0  0
   52.9953    8.3683    9.4340 C   0  0  0  0  0  0  0  0  0  0  0  0
   54.1556    9.7068    7.6673 C   0  0  0  0  0  0  0  0  0  0  0  0
   56.6982    6.7795    9.6768 O   0  0  0  0  0  0  0  0  0  0  0  0
   55.9840    7.2962    7.6286 O   0  0  0  0  0  0  0  0  0  0  0  0
   55.9832    4.0038   11.1140 O   0  0  0  0  0  0  0  0  0  0  0  0
   54.3785    5.3631   11.8573 O   0  0  0  0  0  0  0  0  0  0  0  0
   55.0602    4.7406    7.1489 O   0  0  0  0  0  0  0  0  0  0  0  0
   53.3804    5.7948    9.2834 O   0  0  0  0  0  0  0  0  0  0  0  0
   56.0699    6.4697    8.5266 C   0  0  0  0  0  0  0  0  0  0  0  0
   55.5448    5.0399    8.4699 C   0  0  1  0  0  0  0  0  0  0  0  0
   54.4154    4.8201    9.4731 C   0  0  1  0  0  0  0  0  0  0  0  0
   54.9140    4.7959   10.9139 C   0  0  0  0  0  0  0  0  0  0  0  0
   55.9146    4.1409   12.2933 H   0  0  0  0  0  0  0  0  0  0  0  0
   52.5401    6.2146    8.3904 H   0  0  0  0  0  0  0  0  0  0  0  0
   55.6651    4.9055    8.0588 H   0  0  0  0  0  0  0  0  0  0  0  0
   56.5801    2.6681    7.6094 H   0  0  0  0  0  0  0  0  0  0  0  0
   53.3888    7.3043   10.4773 H   0  0  0  0  0  0  0  0  0  0  0  0
   53.1151    5.5938   10.3657 H   0  0  0  0  0  0  0  0  0  0  0  0
   55.1095    6.1684   11.6191 H   0  0  0  0  0  0  0  0  0  0  0  0
   57.4674    0.4596   10.1858 H   0  0  0  0  0  0  0  0  0  0  0  0
   57.6491    2.1367   12.8293 H   0  0  0  0  0  0  0  0  0  0  0  0
   55.9784    1.5106   12.8054 H   0  0  0  0  0  0  0  0  0  0  0  0
   56.8549    6.6367    9.6763 H   0  0  0  0  0  0  0  0  0  0  0  0
   57.1911   -0.2310   12.5695 H   0  0  0  0  0  0  0  0  0  0  0  0
   52.8615    8.7804    6.1461 H   0  0  0  0  0  0  0  0  0  0  0  0
   51.7070    7.9981    7.2287 H   0  0  0  0  0  0  0  0  0  0  0  0
   52.6529    7.0321    6.0806 H   0  0  0  0  0  0  0  0  0  0  0  0
   55.3115    8.4541    6.4165 H   0  0  0  0  0  0  0  0  0  0  0  0
   55.1293    6.6991    6.4126 H   0  0  0  0  0  0  0  0  0  0  0  0
   55.9963    7.4988    7.7322 H   0  0  0  0  0  0  0  0  0  0  0  0
   53.9889    9.8891    8.0445 H   0  0  0  0  0  0  0  0  0  0  0  0
   54.6184    8.9977    9.4233 H   0  0  0  0  0  0  0  0  0  0  0  0
   52.8664    9.1518    9.1899 H   0  0  0  0  0  0  0  0  0  0  0  0
   56.9112    4.7032   11.4627 H   0  0  0  0  0  0  0  0  0  0  0  0
   55.6975    8.1783    8.9828 H   0  0  0  0  0  0  0  0  0  0  0  0
   55.9408    3.3151    7.5020 H   0  0  0  0  0  0  0  0  0  0  0  0
   55.8120    0.9973    8.3536 H   0  0  0  0  0  0  0  0  0  0  0  0
   54.6404    6.2500    9.9349 H   0  0  0  0  0  0  0  0  0  0  0  0
   54.4008    5.6163    8.2898 H   0  0  0  0  0  0  0  0  0  0  0  0
   57.1262    6.1979    9.5886 H   0  0  0  0  0  0  0  0  0  0  0  0
   56.2384    0.2438   11.7527 H   0  0  0  0  0  0  0  0  0  0  0  0
   56.2924    3.0528   13.3547 H   0  0  0  0  0  0  0  0  0  0  0  0
   57.9440    2.5077   12.9309 H   0  0  0  0  0  0  0  0  0  0  0  0
   56.6669    6.5044    7.2505 H   0  0  0  0  0  0  0  0  0  0  0  0
   56.7302    0.9910   14.1271 H   0  0  0  0  0  0  0  0  0  0  0  0
   52.6522    6.5937    7.3576 H   0  0  0  0  0  0  0  0  0  0  0  0
   53.6162    7.4386    6.1338 H   0  0  0  0  0  0  0  0  0  0  0  0
   52.1359    8.1728    6.7675 H   0  0  0  0  0  0  0  0  0  0  0  0
   52.1065    8.9916    9.2825 H   0  0  0  0  0  0  0  0  0  0  0  0
   52.6432    7.3849    9.7622 H   0  0  0  0  0  0  0  0  0  0  0  0
   53.5736    8.8138   10.2522 H   0  0  0  0  0  0  0  0  0  0  0  0
   54.7210    9.6974    6.7292 H   0  0  0  0  0  0  0  0  0  0  0  0
   54.7505   10.2523    8.4092 H   0  0  0  0  0  0  0  0  0  0  0  0
   53.2395   10.2818    7.4980 H   0  0  0  0  0  0  0  0  0  0  0  0
   56.9682    7.7141    9.5511 H   0  0  0  0  0  0  0  0  0  0  0  0
   56.1707    4.0947   12.0727 H   0  0  0  0  0  0  0  0  0  0  0  0
   54.7013    5.5828    6.7971 H   0  0  0  0  0  0  0  0  0  0  0  0
   52.7787    5.7015   10.0507 H   0  0  0  0  0  0  0  0  0  0  0  0
   56.3877    4.3641    8.6411 H   0  0  0  0  0  0  0  0  0  0  0  0
   53.9471    3.8452    9.2864 H   0  0  0  0  0  0  0  0  0  0  0  0
 10  3  1  0
 11  4  1  0
 12  1  1  0
 10 13  1  0
 14 12  1  0
 15  7  1  0
 16  7  1  0
 17  7  1  0
  6  8  1  0
  2  1  2  0
  3  2  1  0
  4  1  1  0
  5  9  1  0
  6  3  2  0
  7  5  1  0
  8  4  2  0
  9 10  1  0
 27 20  1  0
 28 21  1  0
 29 18  1  0
 27 30  1  0
 31 29  1  0
 32 24  1  0
 33 24  1  0
 34 24  1  0
 23 25  1  0
 19 18  2  0
 20 19  1  0
 21 18  1  0
 22 26  1  0
 23 20  2  0
 24 22  1  0
 25 21  2  0
 26 27  1  0
 41 36  2  0
 42 39  1  0
 43 40  1  0
 41 35  1  0
 43 44  1  0
 42 43  1  0
 44 37  1  0
 41 42  1  0
 44 38  2  0
  2 45  1  0
  5 46  1  0
  6 47  1  0
  8 48  1  0
  9 49  1  0
  9 50  1  0
 10 51  1  1
 11 52  1  0
 12 53  1  0
 12 54  1  0
 13 55  1  0
 14 56  1  0
 15 57  1  0
 15 58  1  0
 15 59  1  0
 16 60  1  0
 16 61  1  0
 16 62  1  0
 17 63  1  0
 17 64  1  0
 17 65  1  0
 19 66  1  0
 22 67  1  0
 23 68  1  0
 25 69  1  0
 26 70  1  0
 26 71  1  0
 27 72  1  1
 28 73  1  0
 29 74  1  0
 29 75  1  0
 30 76  1  0
 31 77  1  0
 32 78  1  0
 32 79  1  0
 32 80  1  0
 33 81  1  0
 33 82  1  0
 33 83  1  0
 34 84  1  0
 34 85  1  0
 34 86  1  0
 35 87  1  0
 37 88  1  0
 39 89  1  0
 40 90  1  0
 42 91  1  1
 43 92  1  6
M  END
> <Uni-Dock RESULT> 
ENERGY=   -4.882  LOWER_BOUND=    1.112  UPPER_BOUND=    2.884
INTER + INTRA:          -4.882
INTER:                  -4.882
INTRA:                   0.000
UNBOUND:                 0.000

$$$$
