
     RDKit          3D

 92 91  0  0  0  0  0  0  0  0999 V2000
   45.3924    4.4928   10.3822 C   0  0  0  0  0  0  0  0  0  0  0  0
   46.1623    5.4047   11.1249 C   0  0  0  0  0  0  0  0  0  0  0  0
   46.2583    5.3107   12.5253 C   0  0  0  0  0  0  0  0  0  0  0  0
   44.7474    3.4576   11.0705 C   0  0  0  0  0  0  0  0  0  0  0  0
   46.8023    8.6761   14.2620 N   0  0  0  0  0  0  0  0  0  0  0  0
   45.5924    4.2638   13.1786 C   0  0  0  0  0  0  0  0  0  0  0  0
   48.1452    9.0578   14.7441 C   0  0  0  0  0  0  0  0  0  0  0  0
   44.8454    3.3381   12.4522 C   0  0  0  0  0  0  0  0  0  0  0  0
   46.6894    7.7677   13.1042 C   0  0  0  0  0  0  0  0  0  0  0  0
   47.1000    6.2895   13.3255 C   0  0  2  0  0  0  0  0  0  0  0  0
   43.9965    2.5174   10.4222 O   0  0  0  0  0  0  0  0  0  0  0  0
   45.3546    4.6124    8.8836 C   0  0  0  0  0  0  0  0  0  0  0  0
   48.4616    6.0850   12.9324 O   0  0  0  0  0  0  0  0  0  0  0  0
   44.0708    4.2192    8.3970 O   0  0  0  0  0  0  0  0  0  0  0  0
   48.7555    7.9704   15.6407 C   0  0  0  0  0  0  0  0  0  0  0  0
   49.1228    9.4389   13.6219 C   0  0  0  0  0  0  0  0  0  0  0  0
   47.9304   10.3092   15.6280 C   0  0  0  0  0  0  0  0  0  0  0  0
   44.3914    4.5043   10.7477 C   0  0  0  0  0  0  0  0  0  0  0  0
   45.1676    5.6664   10.8929 C   0  0  0  0  0  0  0  0  0  0  0  0
   45.4432    6.2134   12.1568 C   0  0  0  0  0  0  0  0  0  0  0  0
   43.9069    3.8825   11.9042 C   0  0  0  0  0  0  0  0  0  0  0  0
   48.2923    8.5968   13.1461 N   0  0  0  0  0  0  0  0  0  0  0  0
   44.9199    5.5771   13.2898 C   0  0  0  0  0  0  0  0  0  0  0  0
   49.3154    8.7384   14.1969 C   0  0  0  0  0  0  0  0  0  0  0  0
   44.1620    4.4114   13.1684 C   0  0  0  0  0  0  0  0  0  0  0  0
   47.5150    7.3456   13.1590 C   0  0  0  0  0  0  0  0  0  0  0  0
   46.2518    7.4893   12.2716 C   0  0  2  0  0  0  0  0  0  0  0  0
   43.1648    2.7415   11.7783 O   0  0  0  0  0  0  0  0  0  0  0  0
   44.0877    3.9107    9.3919 C   0  0  0  0  0  0  0  0  0  0  0  0
   45.4113    8.5179   12.8128 O   0  0  0  0  0  0  0  0  0  0  0  0
   44.4982    4.7612    8.3270 O   0  0  0  0  0  0  0  0  0  0  0  0
   48.6633    9.0453   15.5554 C   0  0  0  0  0  0  0  0  0  0  0  0
   50.1824    9.9446   13.7866 C   0  0  0  0  0  0  0  0  0  0  0  0
   50.2248    7.5046   14.3139 C   0  0  0  0  0  0  0  0  0  0  0  0
   44.8467    5.4907   12.3553 O   0  0  0  0  0  0  0  0  0  0  0  0
   45.6588    5.1073   14.3961 O   0  0  0  0  0  0  0  0  0  0  0  0
   45.7871    8.3858   13.3631 O   0  0  0  0  0  0  0  0  0  0  0  0
   47.8634    9.1482   13.0824 O   0  0  0  0  0  0  0  0  0  0  0  0
   48.2572    5.8331   13.6193 O   0  0  0  0  0  0  0  0  0  0  0  0
   48.4267    7.2502   11.1439 O   0  0  0  0  0  0  0  0  0  0  0  0
   45.8568    5.4596   13.2431 C   0  0  0  0  0  0  0  0  0  0  0  0
   47.2143    5.8016   12.6388 C   0  0  1  0  0  0  0  0  0  0  0  0
   47.1916    7.1209   11.8699 C   0  0  1  0  0  0  0  0  0  0  0  0
   47.0171    8.3060   12.8154 C   0  0  0  0  0  0  0  0  0  0  0  0
   46.7064    6.1968   10.6090 H   0  0  0  0  0  0  0  0  0  0  0  0
   46.2929    9.5278   14.0222 H   0  0  0  0  0  0  0  0  0  0  0  0
   45.6570    4.1561   14.2596 H   0  0  0  0  0  0  0  0  0  0  0  0
   44.3409    2.5207   12.9605 H   0  0  0  0  0  0  0  0  0  0  0  0
   45.6217    7.7865   12.8468 H   0  0  0  0  0  0  0  0  0  0  0  0
   47.2104    8.1908   12.2377 H   0  0  0  0  0  0  0  0  0  0  0  0
   47.0201    6.0418   14.3905 H   0  0  0  0  0  0  0  0  0  0  0  0
   43.8748    2.8295    9.5014 H   0  0  0  0  0  0  0  0  0  0  0  0
   46.1098    3.9510    8.4402 H   0  0  0  0  0  0  0  0  0  0  0  0
   45.5425    5.6418    8.5509 H   0  0  0  0  0  0  0  0  0  0  0  0
   48.6126    5.1261   12.9802 H   0  0  0  0  0  0  0  0  0  0  0  0
   43.4746    4.9707    8.5747 H   0  0  0  0  0  0  0  0  0  0  0  0
   48.0510    7.6388   16.4104 H   0  0  0  0  0  0  0  0  0  0  0  0
   49.0784    7.0933   15.0809 H   0  0  0  0  0  0  0  0  0  0  0  0
   49.6417    8.3469   16.1617 H   0  0  0  0  0  0  0  0  0  0  0  0
   49.4114    8.5781   13.0143 H   0  0  0  0  0  0  0  0  0  0  0  0
   48.6921   10.1969   12.9595 H   0  0  0  0  0  0  0  0  0  0  0  0
   50.0480    9.8585   14.0365 H   0  0  0  0  0  0  0  0  0  0  0  0
   48.8712   10.6349   16.0926 H   0  0  0  0  0  0  0  0  0  0  0  0
   47.5479   11.1535   15.0375 H   0  0  0  0  0  0  0  0  0  0  0  0
   47.2147   10.1143   16.4378 H   0  0  0  0  0  0  0  0  0  0  0  0
   45.5548    6.1545    9.9992 H   0  0  0  0  0  0  0  0  0  0  0  0
   47.6209    9.3690   13.2121 H   0  0  0  0  0  0  0  0  0  0  0  0
   45.0914    5.9947   14.2805 H   0  0  0  0  0  0  0  0  0  0  0  0
   43.7701    3.9441   14.0658 H   0  0  0  0  0  0  0  0  0  0  0  0
   47.2015    7.1088   14.1813 H   0  0  0  0  0  0  0  0  0  0  0  0
   48.1335    6.5208   12.7837 H   0  0  0  0  0  0  0  0  0  0  0  0
   46.5568    7.8204   11.2725 H   0  0  0  0  0  0  0  0  0  0  0  0
   42.9750    2.3995   12.6684 H   0  0  0  0  0  0  0  0  0  0  0  0
   43.0068    3.7571    9.2879 H   0  0  0  0  0  0  0  0  0  0  0  0
   44.6046    2.9530    9.2835 H   0  0  0  0  0  0  0  0  0  0  0  0
   44.5474    8.4185   12.3771 H   0  0  0  0  0  0  0  0  0  0  0  0
   44.2227    4.3202    7.5053 H   0  0  0  0  0  0  0  0  0  0  0  0
   49.4255    9.2446   16.3166 H   0  0  0  0  0  0  0  0  0  0  0  0
   48.0247    9.9353   15.4980 H   0  0  0  0  0  0  0  0  0  0  0  0
   48.0509    8.2149   15.9223 H   0  0  0  0  0  0  0  0  0  0  0  0
   49.5813   10.8571   13.6927 H   0  0  0  0  0  0  0  0  0  0  0  0
   50.6764    9.7681   12.8226 H   0  0  0  0  0  0  0  0  0  0  0  0
   50.9610   10.1429   14.5346 H   0  0  0  0  0  0  0  0  0  0  0  0
   49.6810    6.6298   14.6864 H   0  0  0  0  0  0  0  0  0  0  0  0
   51.0506    7.6927   15.0099 H   0  0  0  0  0  0  0  0  0  0  0  0
   50.6632    7.2440   13.3435 H   0  0  0  0  0  0  0  0  0  0  0  0
   44.0512    5.2464   12.8747 H   0  0  0  0  0  0  0  0  0  0  0  0
   45.8402    9.1815   13.9352 H   0  0  0  0  0  0  0  0  0  0  0  0
   48.2036    4.9975   14.1162 H   0  0  0  0  0  0  0  0  0  0  0  0
   49.1108    7.4228   11.8236 H   0  0  0  0  0  0  0  0  0  0  0  0
   47.4737    4.9863   11.9525 H   0  0  0  0  0  0  0  0  0  0  0  0
   46.3875    7.1592   11.1272 H   0  0  0  0  0  0  0  0  0  0  0  0
 10  3  1  0
 11  4  1  0
 12  1  1  0
 10 13  1  0
 14 12  1  0
 15  7  1  0
 16  7  1  0
 17  7  1  0
  6  8  1  0
  2  1  2  0
  3  2  1  0
  4  1  1  0
  5  9  1  0
  6  3  2  0
  7  5  1  0
  8  4  2  0
  9 10  1  0
 27 20  1  0
 28 21  1  0
 29 18  1  0
 27 30  1  0
 31 29  1  0
 32 24  1  0
 33 24  1  0
 34 24  1  0
 23 25  1  0
 19 18  2  0
 20 19  1  0
 21 18  1  0
 22 26  1  0
 23 20  2  0
 24 22  1  0
 25 21  2  0
 26 27  1  0
 41 36  2  0
 42 39  1  0
 43 40  1  0
 41 35  1  0
 43 44  1  0
 42 43  1  0
 44 37  1  0
 41 42  1  0
 44 38  2  0
  2 45  1  0
  5 46  1  0
  6 47  1  0
  8 48  1  0
  9 49  1  0
  9 50  1  0
 10 51  1  6
 11 52  1  0
 12 53  1  0
 12 54  1  0
 13 55  1  0
 14 56  1  0
 15 57  1  0
 15 58  1  0
 15 59  1  0
 16 60  1  0
 16 61  1  0
 16 62  1  0
 17 63  1  0
 17 64  1  0
 17 65  1  0
 19 66  1  0
 22 67  1  0
 23 68  1  0
 25 69  1  0
 26 70  1  0
 26 71  1  0
 27 72  1  1
 28 73  1  0
 29 74  1  0
 29 75  1  0
 30 76  1  0
 31 77  1  0
 32 78  1  0
 32 79  1  0
 32 80  1  0
 33 81  1  0
 33 82  1  0
 33 83  1  0
 34 84  1  0
 34 85  1  0
 34 86  1  0
 35 87  1  0
 37 88  1  0
 39 89  1  0
 40 90  1  0
 42 91  1  1
 43 92  1  1
M  END
> <Uni-Dock RESULT> 
ENERGY=   -6.204  LOWER_BOUND=    0.000  UPPER_BOUND=    0.000
INTER + INTRA:          -6.204
INTER:                  -6.204
INTRA:                   0.000
UNBOUND:                 0.000

$$$$

     RDKit          3D

 92 91  0  0  0  0  0  0  0  0999 V2000
   45.6995    5.0784   13.1391 C   0  0  0  0  0  0  0  0  0  0  0  0
   46.6777    6.0730   13.3118 C   0  0  0  0  0  0  0  0  0  0  0  0
   46.3951    7.4282   13.0617 C   0  0  0  0  0  0  0  0  0  0  0  0
   44.4157    5.4752   12.7444 C   0  0  0  0  0  0  0  0  0  0  0  0
   49.4312    9.4472   11.9023 N   0  0  0  0  0  0  0  0  0  0  0  0
   45.0993    7.7847   12.6618 C   0  0  0  0  0  0  0  0  0  0  0  0
   50.1400   10.3358   12.8455 C   0  0  0  0  0  0  0  0  0  0  0  0
   44.1129    6.8118   12.5102 C   0  0  0  0  0  0  0  0  0  0  0  0
   48.7336    8.2572   12.4275 C   0  0  0  0  0  0  0  0  0  0  0  0
   47.4495    8.5033   13.2601 C   0  0  2  0  0  0  0  0  0  0  0  0
   43.4020    4.5744   12.5739 O   0  0  0  0  0  0  0  0  0  0  0  0
   46.0406    3.6489   13.4582 C   0  0  0  0  0  0  0  0  0  0  0  0
   47.7580    8.5300   14.6581 O   0  0  0  0  0  0  0  0  0  0  0  0
   45.3407    2.7732   12.5734 O   0  0  0  0  0  0  0  0  0  0  0  0
   49.1759   11.3082   13.5410 C   0  0  0  0  0  0  0  0  0  0  0  0
   50.9896    9.5879   13.8842 C   0  0  0  0  0  0  0  0  0  0  0  0
   51.0969   11.1864   11.9772 C   0  0  0  0  0  0  0  0  0  0  0  0
   45.3308    5.1232   12.1402 C   0  0  0  0  0  0  0  0  0  0  0  0
   46.6409    5.5664   12.3878 C   0  0  0  0  0  0  0  0  0  0  0  0
   47.0362    6.8849   12.1083 C   0  0  0  0  0  0  0  0  0  0  0  0
   44.4089    6.0387   11.6200 C   0  0  0  0  0  0  0  0  0  0  0  0
   50.0142    8.8329   13.5620 N   0  0  0  0  0  0  0  0  0  0  0  0
   46.0920    7.7656   11.5647 C   0  0  0  0  0  0  0  0  0  0  0  0
   50.3047   10.1511   14.1530 C   0  0  0  0  0  0  0  0  0  0  0  0
   44.7806    7.3502   11.3285 C   0  0  0  0  0  0  0  0  0  0  0  0
   48.5951    8.5343   13.3032 C   0  0  0  0  0  0  0  0  0  0  0  0
   48.4677    7.3160   12.3529 C   0  0  2  0  0  0  0  0  0  0  0  0
   43.1263    5.6254   11.3905 O   0  0  0  0  0  0  0  0  0  0  0  0
   44.8979    3.7060   12.4351 C   0  0  0  0  0  0  0  0  0  0  0  0
   49.0715    7.6377   11.0921 O   0  0  0  0  0  0  0  0  0  0  0  0
   45.9949    2.8688   12.7838 O   0  0  0  0  0  0  0  0  0  0  0  0
   50.1635   11.2637   13.1009 C   0  0  0  0  0  0  0  0  0  0  0  0
   51.7745   10.0962   14.6130 C   0  0  0  0  0  0  0  0  0  0  0  0
   49.4253   10.4638   15.3744 C   0  0  0  0  0  0  0  0  0  0  0  0
   46.1384    6.8494   11.7761 O   0  0  0  0  0  0  0  0  0  0  0  0
   45.7118    9.0134   12.1020 O   0  0  0  0  0  0  0  0  0  0  0  0
   48.9799    8.2670   11.3310 O   0  0  0  0  0  0  0  0  0  0  0  0
   50.4019    8.6754   12.9990 O   0  0  0  0  0  0  0  0  0  0  0  0
   47.3468    9.1062   14.3825 O   0  0  0  0  0  0  0  0  0  0  0  0
   49.1227    6.8886   14.6868 O   0  0  0  0  0  0  0  0  0  0  0  0
   46.2899    7.9981   12.4594 C   0  0  0  0  0  0  0  0  0  0  0  0
   47.1413    7.8556   13.7163 C   0  0  1  0  0  0  0  0  0  0  0  0
   48.4894    7.1968   13.4324 C   0  0  1  0  0  0  0  0  0  0  0  0
   49.3876    8.1143   12.6076 C   0  0  0  0  0  0  0  0  0  0  0  0
   47.6746    5.7949   13.6563 H   0  0  0  0  0  0  0  0  0  0  0  0
   50.1018    9.1158   11.2074 H   0  0  0  0  0  0  0  0  0  0  0  0
   44.8452    8.8259   12.4727 H   0  0  0  0  0  0  0  0  0  0  0  0
   43.1064    7.0930   12.2122 H   0  0  0  0  0  0  0  0  0  0  0  0
   48.4506    7.6898   11.5305 H   0  0  0  0  0  0  0  0  0  0  0  0
   49.4350    7.6166   12.9741 H   0  0  0  0  0  0  0  0  0  0  0  0
   47.0211    9.4770   12.9950 H   0  0  0  0  0  0  0  0  0  0  0  0
   43.8027    3.6806   12.5973 H   0  0  0  0  0  0  0  0  0  0  0  0
   45.7365    3.4165   14.4868 H   0  0  0  0  0  0  0  0  0  0  0  0
   47.1153    3.4514   13.3508 H   0  0  0  0  0  0  0  0  0  0  0  0
   46.9035    8.5636   15.1200 H   0  0  0  0  0  0  0  0  0  0  0  0
   45.8227    2.8067   11.7258 H   0  0  0  0  0  0  0  0  0  0  0  0
   48.5166   11.8066   12.8228 H   0  0  0  0  0  0  0  0  0  0  0  0
   48.5506   10.8210   14.2885 H   0  0  0  0  0  0  0  0  0  0  0  0
   49.7272   12.0950   14.0658 H   0  0  0  0  0  0  0  0  0  0  0  0
   50.3763    9.0458   14.6078 H   0  0  0  0  0  0  0  0  0  0  0  0
   51.6660    8.8729   13.4045 H   0  0  0  0  0  0  0  0  0  0  0  0
   51.6108   10.2880   14.4568 H   0  0  0  0  0  0  0  0  0  0  0  0
   51.6275   11.9332   12.5839 H   0  0  0  0  0  0  0  0  0  0  0  0
   51.8578   10.5596   11.4913 H   0  0  0  0  0  0  0  0  0  0  0  0
   50.5553   11.7279   11.1901 H   0  0  0  0  0  0  0  0  0  0  0  0
   47.3645    4.8633   12.7985 H   0  0  0  0  0  0  0  0  0  0  0  0
   50.5094    8.7386   12.6691 H   0  0  0  0  0  0  0  0  0  0  0  0
   46.3771    8.7848   11.3097 H   0  0  0  0  0  0  0  0  0  0  0  0
   44.0743    8.0567   10.9052 H   0  0  0  0  0  0  0  0  0  0  0  0
   48.1089    9.3972   12.8359 H   0  0  0  0  0  0  0  0  0  0  0  0
   48.0837    8.3154   14.2489 H   0  0  0  0  0  0  0  0  0  0  0  0
   49.0354    6.4782   12.7732 H   0  0  0  0  0  0  0  0  0  0  0  0
   42.6028    6.3938   11.1062 H   0  0  0  0  0  0  0  0  0  0  0  0
   44.4251    3.2701   11.5467 H   0  0  0  0  0  0  0  0  0  0  0  0
   44.1868    3.7021   13.2661 H   0  0  0  0  0  0  0  0  0  0  0  0
   48.7723    6.9553   10.4669 H   0  0  0  0  0  0  0  0  0  0  0  0
   45.6273    1.9773   12.9093 H   0  0  0  0  0  0  0  0  0  0  0  0
   50.4710   12.2307   13.5137 H   0  0  0  0  0  0  0  0  0  0  0  0
   50.7991   11.0690   12.2283 H   0  0  0  0  0  0  0  0  0  0  0  0
   49.1330   11.3770   12.7479 H   0  0  0  0  0  0  0  0  0  0  0  0
   52.4489    9.8795   13.7758 H   0  0  0  0  0  0  0  0  0  0  0  0
   51.9233    9.3186   15.3731 H   0  0  0  0  0  0  0  0  0  0  0  0
   52.0885   11.0557   15.0444 H   0  0  0  0  0  0  0  0  0  0  0  0
   48.3745   10.6006   15.0972 H   0  0  0  0  0  0  0  0  0  0  0  0
   49.7533   11.3875   15.8654 H   0  0  0  0  0  0  0  0  0  0  0  0
   49.4788    9.6582   16.1160 H   0  0  0  0  0  0  0  0  0  0  0  0
   45.5720    7.0874   11.0114 H   0  0  0  0  0  0  0  0  0  0  0  0
   49.6475    8.8750   10.9464 H   0  0  0  0  0  0  0  0  0  0  0  0
   46.4694    9.5123   14.4986 H   0  0  0  0  0  0  0  0  0  0  0  0
   49.3934    7.7528   15.0604 H   0  0  0  0  0  0  0  0  0  0  0  0
   46.5738    7.2326   14.4183 H   0  0  0  0  0  0  0  0  0  0  0  0
   48.3874    6.2489   12.8932 H   0  0  0  0  0  0  0  0  0  0  0  0
 10  3  1  0
 11  4  1  0
 12  1  1  0
 10 13  1  0
 14 12  1  0
 15  7  1  0
 16  7  1  0
 17  7  1  0
  6  8  1  0
  2  1  2  0
  3  2  1  0
  4  1  1  0
  5  9  1  0
  6  3  2  0
  7  5  1  0
  8  4  2  0
  9 10  1  0
 27 20  1  0
 28 21  1  0
 29 18  1  0
 27 30  1  0
 31 29  1  0
 32 24  1  0
 33 24  1  0
 34 24  1  0
 23 25  1  0
 19 18  2  0
 20 19  1  0
 21 18  1  0
 22 26  1  0
 23 20  2  0
 24 22  1  0
 25 21  2  0
 26 27  1  0
 41 36  2  0
 42 39  1  0
 43 40  1  0
 41 35  1  0
 43 44  1  0
 42 43  1  0
 44 37  1  0
 41 42  1  0
 44 38  2  0
  2 45  1  0
  5 46  1  0
  6 47  1  0
  8 48  1  0
  9 49  1  0
  9 50  1  0
 10 51  1  6
 11 52  1  0
 12 53  1  0
 12 54  1  0
 13 55  1  0
 14 56  1  0
 15 57  1  0
 15 58  1  0
 15 59  1  0
 16 60  1  0
 16 61  1  0
 16 62  1  0
 17 63  1  0
 17 64  1  0
 17 65  1  0
 19 66  1  0
 22 67  1  0
 23 68  1  0
 25 69  1  0
 26 70  1  0
 26 71  1  0
 27 72  1  1
 28 73  1  0
 29 74  1  0
 29 75  1  0
 30 76  1  0
 31 77  1  0
 32 78  1  0
 32 79  1  0
 32 80  1  0
 33 81  1  0
 33 82  1  0
 33 83  1  0
 34 84  1  0
 34 85  1  0
 34 86  1  0
 35 87  1  0
 37 88  1  0
 39 89  1  0
 40 90  1  0
 42 91  1  1
 43 92  1  1
M  END
> <Uni-Dock RESULT> 
ENERGY=   -5.907  LOWER_BOUND=    1.726  UPPER_BOUND=    3.092
INTER + INTRA:          -5.907
INTER:                  -5.907
INTRA:                   0.000
UNBOUND:                 0.000

$$$$

     RDKit          3D

 92 91  0  0  0  0  0  0  0  0999 V2000
   44.5056    6.1708   11.6961 C   0  0  0  0  0  0  0  0  0  0  0  0
   45.6442    6.9643   11.9188 C   0  0  0  0  0  0  0  0  0  0  0  0
   46.8384    6.4080   12.4124 C   0  0  0  0  0  0  0  0  0  0  0  0
   44.5992    4.7956   11.9439 C   0  0  0  0  0  0  0  0  0  0  0  0
   48.9290    8.8445   14.4935 N   0  0  0  0  0  0  0  0  0  0  0  0
   46.8904    5.0278   12.6542 C   0  0  0  0  0  0  0  0  0  0  0  0
   50.1179    9.4958   13.9072 C   0  0  0  0  0  0  0  0  0  0  0  0
   45.7765    4.2251   12.4146 C   0  0  0  0  0  0  0  0  0  0  0  0
   47.8176    8.4516   13.6052 C   0  0  0  0  0  0  0  0  0  0  0  0
   48.0716    7.2643   12.6415 C   0  0  2  0  0  0  0  0  0  0  0  0
   43.5457    3.9506   11.7337 O   0  0  0  0  0  0  0  0  0  0  0  0
   43.2660    6.8068   11.1297 C   0  0  0  0  0  0  0  0  0  0  0  0
   48.4896    7.7431   11.3583 O   0  0  0  0  0  0  0  0  0  0  0  0
   42.1052    6.1694   11.6644 O   0  0  0  0  0  0  0  0  0  0  0  0
   51.0803    8.4694   13.2914 C   0  0  0  0  0  0  0  0  0  0  0  0
   49.7842   10.5966   12.8888 C   0  0  0  0  0  0  0  0  0  0  0  0
   50.8572   10.1587   15.0935 C   0  0  0  0  0  0  0  0  0  0  0  0
   44.2464    5.6726   12.6017 C   0  0  0  0  0  0  0  0  0  0  0  0
   44.9244    6.9002   12.6866 C   0  0  0  0  0  0  0  0  0  0  0  0
   46.1754    7.0072   13.3160 C   0  0  0  0  0  0  0  0  0  0  0  0
   44.8587    4.5385   13.1474 C   0  0  0  0  0  0  0  0  0  0  0  0
   48.8383    9.7423   12.8633 N   0  0  0  0  0  0  0  0  0  0  0  0
   46.7453    5.8548   13.8725 C   0  0  0  0  0  0  0  0  0  0  0  0
   50.2898    9.8614   12.6392 C   0  0  0  0  0  0  0  0  0  0  0  0
   46.0966    4.6223   13.7827 C   0  0  0  0  0  0  0  0  0  0  0  0
   48.2801    8.3805   12.8027 C   0  0  0  0  0  0  0  0  0  0  0  0
   46.8588    8.3551   13.4219 C   0  0  2  0  0  0  0  0  0  0  0  0
   44.2178    3.3345   13.0565 O   0  0  0  0  0  0  0  0  0  0  0  0
   42.8991    5.5489   11.9291 C   0  0  0  0  0  0  0  0  0  0  0  0
   46.9425    8.7194   14.8067 O   0  0  0  0  0  0  0  0  0  0  0  0
   42.3449    6.8168   11.5954 O   0  0  0  0  0  0  0  0  0  0  0  0
   51.0733    9.3822   13.8727 C   0  0  0  0  0  0  0  0  0  0  0  0
   50.5670   11.3637   12.4366 C   0  0  0  0  0  0  0  0  0  0  0  0
   50.7636    9.1072   11.3864 C   0  0  0  0  0  0  0  0  0  0  0  0
   45.9273    6.0956   13.4736 O   0  0  0  0  0  0  0  0  0  0  0  0
   48.0178    5.3262   13.5698 O   0  0  0  0  0  0  0  0  0  0  0  0
   47.5909    8.5461   14.7020 O   0  0  0  0  0  0  0  0  0  0  0  0
   48.6046   10.0752   13.4348 O   0  0  0  0  0  0  0  0  0  0  0  0
   48.9125    7.2008   11.6809 O   0  0  0  0  0  0  0  0  0  0  0  0
   47.1250    9.3772   11.1985 O   0  0  0  0  0  0  0  0  0  0  0  0
   47.2191    6.1222   13.0994 C   0  0  0  0  0  0  0  0  0  0  0  0
   47.5196    7.1424   12.0068 C   0  0  1  0  0  0  0  0  0  0  0  0
   47.0159    8.5395   12.3628 C   0  0  1  0  0  0  0  0  0  0  0  0
   47.8214    9.1385   13.5123 C   0  0  0  0  0  0  0  0  0  0  0  0
   45.6097    8.0316   11.6966 H   0  0  0  0  0  0  0  0  0  0  0  0
   48.5375    9.4675   15.2013 H   0  0  0  0  0  0  0  0  0  0  0  0
   47.8032    4.5648   13.0242 H   0  0  0  0  0  0  0  0  0  0  0  0
   45.8242    3.1539   12.5913 H   0  0  0  0  0  0  0  0  0  0  0  0
   47.0102    8.1623   14.2915 H   0  0  0  0  0  0  0  0  0  0  0  0
   47.4428    9.3239   13.0578 H   0  0  0  0  0  0  0  0  0  0  0  0
   48.8754    6.6339   13.0396 H   0  0  0  0  0  0  0  0  0  0  0  0
   42.7545    4.5078   11.5807 H   0  0  0  0  0  0  0  0  0  0  0  0
   43.2542    6.6877   10.0387 H   0  0  0  0  0  0  0  0  0  0  0  0
   43.2078    7.8760   11.3724 H   0  0  0  0  0  0  0  0  0  0  0  0
   48.5111    6.9649   10.7766 H   0  0  0  0  0  0  0  0  0  0  0  0
   41.9975    6.5218   12.5676 H   0  0  0  0  0  0  0  0  0  0  0  0
   51.2826    7.6418   13.9791 H   0  0  0  0  0  0  0  0  0  0  0  0
   50.7077    8.0473   12.3587 H   0  0  0  0  0  0  0  0  0  0  0  0
   52.0449    8.9312   13.0571 H   0  0  0  0  0  0  0  0  0  0  0  0
   49.3549   10.1931   11.9689 H   0  0  0  0  0  0  0  0  0  0  0  0
   49.0797   11.3238   13.3056 H   0  0  0  0  0  0  0  0  0  0  0  0
   50.6879   11.1486   12.6012 H   0  0  0  0  0  0  0  0  0  0  0  0
   51.8008   10.6183   14.7681 H   0  0  0  0  0  0  0  0  0  0  0  0
   50.2480   10.9512   15.5503 H   0  0  0  0  0  0  0  0  0  0  0  0
   51.1009    9.4287   15.8769 H   0  0  0  0  0  0  0  0  0  0  0  0
   44.4592    7.7878   12.2595 H   0  0  0  0  0  0  0  0  0  0  0  0
   48.5989   10.1252   13.7839 H   0  0  0  0  0  0  0  0  0  0  0  0
   47.6998    5.9126   14.3930 H   0  0  0  0  0  0  0  0  0  0  0  0
   46.5645    3.7493   14.2256 H   0  0  0  0  0  0  0  0  0  0  0  0
   48.9190    7.6876   13.3604 H   0  0  0  0  0  0  0  0  0  0  0  0
   48.2302    8.0462   11.7590 H   0  0  0  0  0  0  0  0  0  0  0  0
   46.2442    9.1167   12.9289 H   0  0  0  0  0  0  0  0  0  0  0  0
   44.8062    2.6465   13.4110 H   0  0  0  0  0  0  0  0  0  0  0  0
   42.1918    5.0518   12.6040 H   0  0  0  0  0  0  0  0  0  0  0  0
   42.9974    4.9656   11.0092 H   0  0  0  0  0  0  0  0  0  0  0  0
   46.0900    8.4710   15.2037 H   0  0  0  0  0  0  0  0  0  0  0  0
   41.4685    6.6384   11.2137 H   0  0  0  0  0  0  0  0  0  0  0  0
   52.1468    9.5588   13.7444 H   0  0  0  0  0  0  0  0  0  0  0  0
   50.7634    9.9229   14.7755 H   0  0  0  0  0  0  0  0  0  0  0  0
   50.9431    8.3112   14.0607 H   0  0  0  0  0  0  0  0  0  0  0  0
   50.2505   11.9509   13.3072 H   0  0  0  0  0  0  0  0  0  0  0  0
   50.0329   11.7506   11.5594 H   0  0  0  0  0  0  0  0  0  0  0  0
   51.6389   11.5504   12.2899 H   0  0  0  0  0  0  0  0  0  0  0  0
   50.6716    8.0220   11.5033 H   0  0  0  0  0  0  0  0  0  0  0  0
   51.8180    9.3218   11.1768 H   0  0  0  0  0  0  0  0  0  0  0  0
   50.1841    9.4039   10.5043 H   0  0  0  0  0  0  0  0  0  0  0  0
   45.8823    5.3999   14.1638 H   0  0  0  0  0  0  0  0  0  0  0  0
   48.1755    9.0349   15.3205 H   0  0  0  0  0  0  0  0  0  0  0  0
   49.2015    6.2868   11.5100 H   0  0  0  0  0  0  0  0  0  0  0  0
   48.0850    9.5315   11.0786 H   0  0  0  0  0  0  0  0  0  0  0  0
   47.0140    6.7956   11.0973 H   0  0  0  0  0  0  0  0  0  0  0  0
   45.9595    8.5430   12.6519 H   0  0  0  0  0  0  0  0  0  0  0  0
 10  3  1  0
 11  4  1  0
 12  1  1  0
 10 13  1  0
 14 12  1  0
 15  7  1  0
 16  7  1  0
 17  7  1  0
  6  8  1  0
  2  1  2  0
  3  2  1  0
  4  1  1  0
  5  9  1  0
  6  3  2  0
  7  5  1  0
  8  4  2  0
  9 10  1  0
 27 20  1  0
 28 21  1  0
 29 18  1  0
 27 30  1  0
 31 29  1  0
 32 24  1  0
 33 24  1  0
 34 24  1  0
 23 25  1  0
 19 18  2  0
 20 19  1  0
 21 18  1  0
 22 26  1  0
 23 20  2  0
 24 22  1  0
 25 21  2  0
 26 27  1  0
 41 36  2  0
 42 39  1  0
 43 40  1  0
 41 35  1  0
 43 44  1  0
 42 43  1  0
 44 37  1  0
 41 42  1  0
 44 38  2  0
  2 45  1  0
  5 46  1  0
  6 47  1  0
  8 48  1  0
  9 49  1  0
  9 50  1  0
 10 51  1  6
 11 52  1  0
 12 53  1  0
 12 54  1  0
 13 55  1  0
 14 56  1  0
 15 57  1  0
 15 58  1  0
 15 59  1  0
 16 60  1  0
 16 61  1  0
 16 62  1  0
 17 63  1  0
 17 64  1  0
 17 65  1  0
 19 66  1  0
 22 67  1  0
 23 68  1  0
 25 69  1  0
 26 70  1  0
 26 71  1  0
 27 72  1  1
 28 73  1  0
 29 74  1  0
 29 75  1  0
 30 76  1  0
 31 77  1  0
 32 78  1  0
 32 79  1  0
 32 80  1  0
 33 81  1  0
 33 82  1  0
 33 83  1  0
 34 84  1  0
 34 85  1  0
 34 86  1  0
 35 87  1  0
 37 88  1  0
 39 89  1  0
 40 90  1  0
 42 91  1  1
 43 92  1  1
M  END
> <Uni-Dock RESULT> 
ENERGY=   -5.824  LOWER_BOUND=    1.626  UPPER_BOUND=    2.280
INTER + INTRA:          -5.824
INTER:                  -5.824
INTRA:                   0.000
UNBOUND:                 0.000

$$$$

     RDKit          3D

 92 91  0  0  0  0  0  0  0  0999 V2000
   48.2341    5.6626   18.3512 C   0  0  0  0  0  0  0  0  0  0  0  0
   48.2446    7.0670   18.4083 C   0  0  0  0  0  0  0  0  0  0  0  0
   48.9044    7.7521   19.4449 C   0  0  0  0  0  0  0  0  0  0  0  0
   48.9326    4.9555   19.3378 C   0  0  0  0  0  0  0  0  0  0  0  0
   47.3291   11.1306   20.3067 N   0  0  0  0  0  0  0  0  0  0  0  0
   49.5873    7.0081   20.4177 C   0  0  0  0  0  0  0  0  0  0  0  0
   47.9450   12.3844   19.8270 C   0  0  0  0  0  0  0  0  0  0  0  0
   49.6057    5.6157   20.3597 C   0  0  0  0  0  0  0  0  0  0  0  0
   47.5078    9.8974   19.5154 C   0  0  0  0  0  0  0  0  0  0  0  0
   48.9251    9.2698   19.4990 C   0  0  2  0  0  0  0  0  0  0  0  0
   48.9899    3.5899   19.3437 O   0  0  0  0  0  0  0  0  0  0  0  0
   47.5482    4.9790   17.2006 C   0  0  0  0  0  0  0  0  0  0  0  0
   49.6561    9.7167   18.3517 O   0  0  0  0  0  0  0  0  0  0  0  0
   46.9708    3.7490   17.6404 O   0  0  0  0  0  0  0  0  0  0  0  0
   49.4343   12.4609   20.1947 C   0  0  0  0  0  0  0  0  0  0  0  0
   47.7500   12.6368   18.3241 C   0  0  0  0  0  0  0  0  0  0  0  0
   47.2277   13.5207   20.5934 C   0  0  0  0  0  0  0  0  0  0  0  0
   47.8305    5.2806   19.2606 C   0  0  0  0  0  0  0  0  0  0  0  0
   47.4265    6.5577   18.8364 C   0  0  0  0  0  0  0  0  0  0  0  0
   47.6476    7.6986   19.6253 C   0  0  0  0  0  0  0  0  0  0  0  0
   48.4836    5.1678   20.4934 C   0  0  0  0  0  0  0  0  0  0  0  0
   47.7570   11.3756   18.5098 N   0  0  0  0  0  0  0  0  0  0  0  0
   48.2819    7.5426   20.8645 C   0  0  0  0  0  0  0  0  0  0  0  0
   48.6011   12.5707   18.6842 C   0  0  0  0  0  0  0  0  0  0  0  0
   48.7074    6.2853   21.2960 C   0  0  0  0  0  0  0  0  0  0  0  0
   48.2882   10.1175   19.0620 C   0  0  0  0  0  0  0  0  0  0  0  0
   47.1637    9.0538   19.1519 C   0  0  2  0  0  0  0  0  0  0  0  0
   48.8973    3.9335   20.9103 O   0  0  0  0  0  0  0  0  0  0  0  0
   47.5942    4.0478   18.4198 C   0  0  0  0  0  0  0  0  0  0  0  0
   46.1479    9.5181   20.0519 O   0  0  0  0  0  0  0  0  0  0  0  0
   46.7645    4.3139   17.2943 O   0  0  0  0  0  0  0  0  0  0  0  0
   48.5431   13.0722   20.1368 C   0  0  0  0  0  0  0  0  0  0  0  0
   47.9991   13.6539   17.7682 C   0  0  0  0  0  0  0  0  0  0  0  0
   50.0610   12.3361   18.2639 C   0  0  0  0  0  0  0  0  0  0  0  0
   47.9489    6.9823   20.1853 O   0  0  0  0  0  0  0  0  0  0  0  0
   49.4555    8.2016   21.2875 O   0  0  0  0  0  0  0  0  0  0  0  0
   46.6596    9.9174   20.2525 O   0  0  0  0  0  0  0  0  0  0  0  0
   47.0881   11.4620   18.7027 O   0  0  0  0  0  0  0  0  0  0  0  0
   50.0002    9.7744   19.0265 O   0  0  0  0  0  0  0  0  0  0  0  0
   48.0735    9.5782   16.9257 O   0  0  0  0  0  0  0  0  0  0  0  0
   48.8534    7.9759   20.2485 C   0  0  0  0  0  0  0  0  0  0  0  0
   49.0898    8.6751   18.9143 C   0  0  1  0  0  0  0  0  0  0  0  0
   47.7892    9.1486   18.2688 C   0  0  1  0  0  0  0  0  0  0  0  0
   47.1670   10.2949   19.0611 C   0  0  0  0  0  0  0  0  0  0  0  0
   47.7411    7.6422   17.6303 H   0  0  0  0  0  0  0  0  0  0  0  0
   46.3236   11.2812   20.3988 H   0  0  0  0  0  0  0  0  0  0  0  0
   50.1181    7.5084   21.2254 H   0  0  0  0  0  0  0  0  0  0  0  0
   50.1464    5.0427   21.1082 H   0  0  0  0  0  0  0  0  0  0  0  0
   46.8240    9.1744   19.9804 H   0  0  0  0  0  0  0  0  0  0  0  0
   47.1352   10.0438   18.4952 H   0  0  0  0  0  0  0  0  0  0  0  0
   49.4778    9.5879   20.3908 H   0  0  0  0  0  0  0  0  0  0  0  0
   48.3363    3.2705   18.6873 H   0  0  0  0  0  0  0  0  0  0  0  0
   48.2796    4.7556   16.4134 H   0  0  0  0  0  0  0  0  0  0  0  0
   46.7461    5.5977   16.7770 H   0  0  0  0  0  0  0  0  0  0  0  0
   50.4770    9.1966   18.3384 H   0  0  0  0  0  0  0  0  0  0  0  0
   46.1547    3.9909   18.1169 H   0  0  0  0  0  0  0  0  0  0  0  0
   49.6027   12.2222   21.2499 H   0  0  0  0  0  0  0  0  0  0  0  0
   50.0521   11.7921   19.5965 H   0  0  0  0  0  0  0  0  0  0  0  0
   49.8248   13.4704   20.0308 H   0  0  0  0  0  0  0  0  0  0  0  0
   48.3189   11.9356   17.7093 H   0  0  0  0  0  0  0  0  0  0  0  0
   46.6947   12.5619   18.0419 H   0  0  0  0  0  0  0  0  0  0  0  0
   48.0881   13.6443   18.0509 H   0  0  0  0  0  0  0  0  0  0  0  0
   47.6641   14.5001   20.3537 H   0  0  0  0  0  0  0  0  0  0  0  0
   46.1608   13.5655   20.3332 H   0  0  0  0  0  0  0  0  0  0  0  0
   47.3028   13.3853   21.6807 H   0  0  0  0  0  0  0  0  0  0  0  0
   46.9230    6.6571   17.8756 H   0  0  0  0  0  0  0  0  0  0  0  0
   46.8421   11.5330   18.9452 H   0  0  0  0  0  0  0  0  0  0  0  0
   48.4398    8.4041   21.5111 H   0  0  0  0  0  0  0  0  0  0  0  0
   49.1943    6.1987   22.2618 H   0  0  0  0  0  0  0  0  0  0  0  0
   48.6913   10.2886   20.0658 H   0  0  0  0  0  0  0  0  0  0  0  0
   49.0956    9.7426   18.4208 H   0  0  0  0  0  0  0  0  0  0  0  0
   46.6939    8.9512   18.1672 H   0  0  0  0  0  0  0  0  0  0  0  0
   49.3951    4.0407   21.7385 H   0  0  0  0  0  0  0  0  0  0  0  0
   47.0919    3.2798   19.0204 H   0  0  0  0  0  0  0  0  0  0  0  0
   48.5499    3.6596   18.0562 H   0  0  0  0  0  0  0  0  0  0  0  0
   45.5934    8.7455   20.2558 H   0  0  0  0  0  0  0  0  0  0  0  0
   46.6336    3.4612   16.8455 H   0  0  0  0  0  0  0  0  0  0  0  0
   49.0930   14.0134   20.2456 H   0  0  0  0  0  0  0  0  0  0  0  0
   47.5096   13.2646   20.4502 H   0  0  0  0  0  0  0  0  0  0  0  0
   48.9816   12.3593   20.8431 H   0  0  0  0  0  0  0  0  0  0  0  0
   46.9548   13.8644   18.0286 H   0  0  0  0  0  0  0  0  0  0  0  0
   48.0259   13.3429   16.7160 H   0  0  0  0  0  0  0  0  0  0  0  0
   48.5535   14.5973   17.8565 H   0  0  0  0  0  0  0  0  0  0  0  0
   50.5717   11.6359   18.9338 H   0  0  0  0  0  0  0  0  0  0  0  0
   50.6283   13.2740   18.2827 H   0  0  0  0  0  0  0  0  0  0  0  0
   50.1189   11.9350   17.2453 H   0  0  0  0  0  0  0  0  0  0  0  0
   47.9068    6.6254   21.0981 H   0  0  0  0  0  0  0  0  0  0  0  0
   46.3087   10.7529   20.6293 H   0  0  0  0  0  0  0  0  0  0  0  0
   50.7914    9.4406   19.4856 H   0  0  0  0  0  0  0  0  0  0  0  0
   48.5704   10.4171   17.0209 H   0  0  0  0  0  0  0  0  0  0  0  0
   49.5785    7.9482   18.2543 H   0  0  0  0  0  0  0  0  0  0  0  0
   47.0452    8.3488   18.1897 H   0  0  0  0  0  0  0  0  0  0  0  0
 10  3  1  0
 11  4  1  0
 12  1  1  0
 10 13  1  0
 14 12  1  0
 15  7  1  0
 16  7  1  0
 17  7  1  0
  6  8  1  0
  2  1  2  0
  3  2  1  0
  4  1  1  0
  5  9  1  0
  6  3  2  0
  7  5  1  0
  8  4  2  0
  9 10  1  0
 27 20  1  0
 28 21  1  0
 29 18  1  0
 27 30  1  0
 31 29  1  0
 32 24  1  0
 33 24  1  0
 34 24  1  0
 23 25  1  0
 19 18  2  0
 20 19  1  0
 21 18  1  0
 22 26  1  0
 23 20  2  0
 24 22  1  0
 25 21  2  0
 26 27  1  0
 41 36  2  0
 42 39  1  0
 43 40  1  0
 41 35  1  0
 43 44  1  0
 42 43  1  0
 44 37  1  0
 41 42  1  0
 44 38  2  0
  2 45  1  0
  5 46  1  0
  6 47  1  0
  8 48  1  0
  9 49  1  0
  9 50  1  0
 10 51  1  6
 11 52  1  0
 12 53  1  0
 12 54  1  0
 13 55  1  0
 14 56  1  0
 15 57  1  0
 15 58  1  0
 15 59  1  0
 16 60  1  0
 16 61  1  0
 16 62  1  0
 17 63  1  0
 17 64  1  0
 17 65  1  0
 19 66  1  0
 22 67  1  0
 23 68  1  0
 25 69  1  0
 26 70  1  0
 26 71  1  0
 27 72  1  1
 28 73  1  0
 29 74  1  0
 29 75  1  0
 30 76  1  0
 31 77  1  0
 32 78  1  0
 32 79  1  0
 32 80  1  0
 33 81  1  0
 33 82  1  0
 33 83  1  0
 34 84  1  0
 34 85  1  0
 34 86  1  0
 35 87  1  0
 37 88  1  0
 39 89  1  0
 40 90  1  0
 42 91  1  1
 43 92  1  1
M  END
> <Uni-Dock RESULT> 
ENERGY=   -5.451  LOWER_BOUND=    5.707  UPPER_BOUND=    7.805
INTER + INTRA:          -5.451
INTER:                  -5.451
INTRA:                   0.000
UNBOUND:                 0.000

$$$$

     RDKit          3D

 92 91  0  0  0  0  0  0  0  0999 V2000
   48.1648   11.9203   17.6274 C   0  0  0  0  0  0  0  0  0  0  0  0
   48.2936   10.5622   17.9663 C   0  0  0  0  0  0  0  0  0  0  0  0
   47.6595   10.0287   19.1031 C   0  0  0  0  0  0  0  0  0  0  0  0
   47.3537   12.7289   18.4335 C   0  0  0  0  0  0  0  0  0  0  0  0
   49.5270    7.0783   20.6673 N   0  0  0  0  0  0  0  0  0  0  0  0
   46.8610   10.8721   19.8887 C   0  0  0  0  0  0  0  0  0  0  0  0
   49.0636    5.6953   20.4353 C   0  0  0  0  0  0  0  0  0  0  0  0
   46.7047   12.2152   19.5505 C   0  0  0  0  0  0  0  0  0  0  0  0
   49.2610    8.1037   19.6395 C   0  0  0  0  0  0  0  0  0  0  0  0
   47.7899    8.5586   19.4618 C   0  0  2  0  0  0  0  0  0  0  0  0
   47.1586   14.0542   18.1623 O   0  0  0  0  0  0  0  0  0  0  0  0
   48.8301   12.4326   16.3798 C   0  0  0  0  0  0  0  0  0  0  0  0
   47.1612    7.8169   18.4105 O   0  0  0  0  0  0  0  0  0  0  0  0
   49.2594   13.7805   16.5766 O   0  0  0  0  0  0  0  0  0  0  0  0
   47.5744    5.5323   20.7741 C   0  0  0  0  0  0  0  0  0  0  0  0
   49.3520    5.1729   19.0196 C   0  0  0  0  0  0  0  0  0  0  0  0
   49.8562    4.8176   21.4328 C   0  0  0  0  0  0  0  0  0  0  0  0
   48.4855   12.5161   18.4507 C   0  0  0  0  0  0  0  0  0  0  0  0
   49.0355   11.2317   18.3029 C   0  0  0  0  0  0  0  0  0  0  0  0
   48.8949   10.2525   19.3000 C   0  0  0  0  0  0  0  0  0  0  0  0
   47.7684   12.7993   19.6189 C   0  0  0  0  0  0  0  0  0  0  0  0
   49.2090    6.4376   18.9468 N   0  0  0  0  0  0  0  0  0  0  0  0
   48.1918   10.5811   20.4662 C   0  0  0  0  0  0  0  0  0  0  0  0
   48.4829    5.2165   19.3378 C   0  0  0  0  0  0  0  0  0  0  0  0
   47.6221   11.8454   20.6246 C   0  0  0  0  0  0  0  0  0  0  0  0
   48.5286    7.7151   19.2206 C   0  0  0  0  0  0  0  0  0  0  0  0
   49.5345    8.8908   19.1219 C   0  0  2  0  0  0  0  0  0  0  0  0
   47.2134   14.0396   19.7679 O   0  0  0  0  0  0  0  0  0  0  0  0
   48.6343   13.5763   17.3846 C   0  0  0  0  0  0  0  0  0  0  0  0
   50.5496    8.7266   20.1219 O   0  0  0  0  0  0  0  0  0  0  0  0
   49.5375   13.1840   16.3568 O   0  0  0  0  0  0  0  0  0  0  0  0
   48.5245    5.0218   20.8626 C   0  0  0  0  0  0  0  0  0  0  0  0
   49.2326    4.0451   18.6742 C   0  0  0  0  0  0  0  0  0  0  0  0
   47.0276    5.2039   18.8429 C   0  0  0  0  0  0  0  0  0  0  0  0
   48.4973   11.0286   19.6965 O   0  0  0  0  0  0  0  0  0  0  0  0
   47.0727    9.8959   20.9843 O   0  0  0  0  0  0  0  0  0  0  0  0
   50.0722    8.3220   20.3861 O   0  0  0  0  0  0  0  0  0  0  0  0
   49.8736    6.4640   19.1697 O   0  0  0  0  0  0  0  0  0  0  0  0
   46.7941    7.8571   19.0743 O   0  0  0  0  0  0  0  0  0  0  0  0
   48.7855    7.8408   17.0254 O   0  0  0  0  0  0  0  0  0  0  0  0
   47.6959    9.9752   19.9364 C   0  0  0  0  0  0  0  0  0  0  0  0
   47.5930    9.0043   18.7652 C   0  0  1  0  0  0  0  0  0  0  0  0
   48.9629    8.5560   18.2608 C   0  0  1  0  0  0  0  0  0  0  0  0
   49.6608    7.6634   19.2832 C   0  0  0  0  0  0  0  0  0  0  0  0
   48.8879    9.9023   17.3330 H   0  0  0  0  0  0  0  0  0  0  0  0
   50.5373    7.0587   20.8128 H   0  0  0  0  0  0  0  0  0  0  0  0
   46.3469   10.4872   20.7673 H   0  0  0  0  0  0  0  0  0  0  0  0
   46.0750   12.8630   20.1545 H   0  0  0  0  0  0  0  0  0  0  0  0
   49.8463    8.9741   19.9657 H   0  0  0  0  0  0  0  0  0  0  0  0
   49.6930    7.7994   18.6793 H   0  0  0  0  0  0  0  0  0  0  0  0
   47.2318    8.3653   20.3854 H   0  0  0  0  0  0  0  0  0  0  0  0
   47.8060   14.3061   17.4714 H   0  0  0  0  0  0  0  0  0  0  0  0
   48.1168   12.4153   15.5459 H   0  0  0  0  0  0  0  0  0  0  0  0
   49.7092   11.8329   16.1097 H   0  0  0  0  0  0  0  0  0  0  0  0
   46.2934    8.2321   18.2722 H   0  0  0  0  0  0  0  0  0  0  0  0
   50.0731   13.7276   17.1122 H   0  0  0  0  0  0  0  0  0  0  0  0
   47.3344    5.9556   21.7549 H   0  0  0  0  0  0  0  0  0  0  0  0
   46.9202    5.9986   20.0381 H   0  0  0  0  0  0  0  0  0  0  0  0
   47.2959    4.4741   20.8075 H   0  0  0  0  0  0  0  0  0  0  0  0
   48.7439    5.6728   18.2621 H   0  0  0  0  0  0  0  0  0  0  0  0
   50.4061    5.3042   18.7542 H   0  0  0  0  0  0  0  0  0  0  0  0
   49.1303    4.1007   18.9470 H   0  0  0  0  0  0  0  0  0  0  0  0
   49.5325    3.7687   21.3848 H   0  0  0  0  0  0  0  0  0  0  0  0
   50.9329    4.8379   21.2134 H   0  0  0  0  0  0  0  0  0  0  0  0
   49.7180    5.1566   22.4681 H   0  0  0  0  0  0  0  0  0  0  0  0
   49.5901   10.9991   17.3946 H   0  0  0  0  0  0  0  0  0  0  0  0
   50.1141    6.4695   19.4275 H   0  0  0  0  0  0  0  0  0  0  0  0
   48.0924    9.8527   21.2692 H   0  0  0  0  0  0  0  0  0  0  0  0
   47.0851   12.0682   21.5407 H   0  0  0  0  0  0  0  0  0  0  0  0
   48.0991    7.7035   20.2280 H   0  0  0  0  0  0  0  0  0  0  0  0
   47.7177    7.8660   18.4972 H   0  0  0  0  0  0  0  0  0  0  0  0
   50.0363    8.8467   18.1486 H   0  0  0  0  0  0  0  0  0  0  0  0
   46.6915   14.0453   20.5881 H   0  0  0  0  0  0  0  0  0  0  0  0
   49.0283   14.4977   17.8302 H   0  0  0  0  0  0  0  0  0  0  0  0
   47.6620   13.7791   16.9267 H   0  0  0  0  0  0  0  0  0  0  0  0
   51.0133    9.5797   20.1794 H   0  0  0  0  0  0  0  0  0  0  0  0
   49.6020   13.9401   15.7486 H   0  0  0  0  0  0  0  0  0  0  0  0
   48.0682    4.0669   21.1455 H   0  0  0  0  0  0  0  0  0  0  0  0
   49.5567    5.0082   21.2339 H   0  0  0  0  0  0  0  0  0  0  0  0
   47.9843    5.8087   21.3996 H   0  0  0  0  0  0  0  0  0  0  0  0
   50.2799    4.0046   18.9975 H   0  0  0  0  0  0  0  0  0  0  0  0
   49.2229    4.1368   17.5806 H   0  0  0  0  0  0  0  0  0  0  0  0
   48.7730    3.0834   18.9373 H   0  0  0  0  0  0  0  0  0  0  0  0
   46.4185    5.9634   19.3449 H   0  0  0  0  0  0  0  0  0  0  0  0
   46.5578    4.2325   19.0364 H   0  0  0  0  0  0  0  0  0  0  0  0
   46.9763    5.3867   17.7632 H   0  0  0  0  0  0  0  0  0  0  0  0
   48.4612   11.5615   20.5192 H   0  0  0  0  0  0  0  0  0  0  0  0
   50.4881    7.6205   20.9323 H   0  0  0  0  0  0  0  0  0  0  0  0
   45.9530    8.1875   19.4370 H   0  0  0  0  0  0  0  0  0  0  0  0
   48.3721    6.9886   17.2755 H   0  0  0  0  0  0  0  0  0  0  0  0
   47.0641    9.5289   17.9603 H   0  0  0  0  0  0  0  0  0  0  0  0
   49.6252    9.4000   18.0404 H   0  0  0  0  0  0  0  0  0  0  0  0
 10  3  1  0
 11  4  1  0
 12  1  1  0
 10 13  1  0
 14 12  1  0
 15  7  1  0
 16  7  1  0
 17  7  1  0
  6  8  1  0
  2  1  2  0
  3  2  1  0
  4  1  1  0
  5  9  1  0
  6  3  2  0
  7  5  1  0
  8  4  2  0
  9 10  1  0
 27 20  1  0
 28 21  1  0
 29 18  1  0
 27 30  1  0
 31 29  1  0
 32 24  1  0
 33 24  1  0
 34 24  1  0
 23 25  1  0
 19 18  2  0
 20 19  1  0
 21 18  1  0
 22 26  1  0
 23 20  2  0
 24 22  1  0
 25 21  2  0
 26 27  1  0
 41 36  2  0
 42 39  1  0
 43 40  1  0
 41 35  1  0
 43 44  1  0
 42 43  1  0
 44 37  1  0
 41 42  1  0
 44 38  2  0
  2 45  1  0
  5 46  1  0
  6 47  1  0
  8 48  1  0
  9 49  1  0
  9 50  1  0
 10 51  1  6
 11 52  1  0
 12 53  1  0
 12 54  1  0
 13 55  1  0
 14 56  1  0
 15 57  1  0
 15 58  1  0
 15 59  1  0
 16 60  1  0
 16 61  1  0
 16 62  1  0
 17 63  1  0
 17 64  1  0
 17 65  1  0
 19 66  1  0
 22 67  1  0
 23 68  1  0
 25 69  1  0
 26 70  1  0
 26 71  1  0
 27 72  1  1
 28 73  1  0
 29 74  1  0
 29 75  1  0
 30 76  1  0
 31 77  1  0
 32 78  1  0
 32 79  1  0
 32 80  1  0
 33 81  1  0
 33 82  1  0
 33 83  1  0
 34 84  1  0
 34 85  1  0
 34 86  1  0
 35 87  1  0
 37 88  1  0
 39 89  1  0
 40 90  1  0
 42 91  1  1
 43 92  1  1
M  END
> <Uni-Dock RESULT> 
ENERGY=   -5.328  LOWER_BOUND=    6.600  UPPER_BOUND=    9.185
INTER + INTRA:          -5.328
INTER:                  -5.328
INTRA:                   0.000
UNBOUND:                 0.000

$$$$

     RDKit          3D

 92 91  0  0  0  0  0  0  0  0999 V2000
   47.4860   11.9625   19.6712 C   0  0  0  0  0  0  0  0  0  0  0  0
   47.7646   10.6079   19.9228 C   0  0  0  0  0  0  0  0  0  0  0  0
   48.2060   10.1744   21.1862 C   0  0  0  0  0  0  0  0  0  0  0  0
   47.6236   12.8729   20.7264 C   0  0  0  0  0  0  0  0  0  0  0  0
   50.4619    7.0870   21.0548 N   0  0  0  0  0  0  0  0  0  0  0  0
   48.3375   11.1176   22.2154 C   0  0  0  0  0  0  0  0  0  0  0  0
   49.9225    5.7545   21.3939 C   0  0  0  0  0  0  0  0  0  0  0  0
   48.0411   12.4602   21.9867 C   0  0  0  0  0  0  0  0  0  0  0  0
   49.5515    8.1069   20.4985 C   0  0  0  0  0  0  0  0  0  0  0  0
   48.4954    8.7088   21.4603 C   0  0  2  0  0  0  0  0  0  0  0  0
   47.3530   14.2037   20.5719 O   0  0  0  0  0  0  0  0  0  0  0  0
   46.9786   12.3687   18.3150 C   0  0  0  0  0  0  0  0  0  0  0  0
   47.2519    8.0095   21.3376 O   0  0  0  0  0  0  0  0  0  0  0  0
   47.4675   13.6688   17.9827 O   0  0  0  0  0  0  0  0  0  0  0  0
   49.2221    5.7579   22.7608 C   0  0  0  0  0  0  0  0  0  0  0  0
   48.9963    5.1672   20.3180 C   0  0  0  0  0  0  0  0  0  0  0  0
   51.1535    4.8254   21.5153 C   0  0  0  0  0  0  0  0  0  0  0  0
   48.3507   12.5431   19.8965 C   0  0  0  0  0  0  0  0  0  0  0  0
   48.5289   11.2045   19.5084 C   0  0  0  0  0  0  0  0  0  0  0  0
   49.1578   10.2724   20.3500 C   0  0  0  0  0  0  0  0  0  0  0  0
   48.8015   12.9310   21.1634 C   0  0  0  0  0  0  0  0  0  0  0  0
   48.9085    6.4376   20.2568 N   0  0  0  0  0  0  0  0  0  0  0  0
   49.6182   10.7040   21.6007 C   0  0  0  0  0  0  0  0  0  0  0  0
   48.6865    5.3103   21.1794 C   0  0  0  0  0  0  0  0  0  0  0  0
   49.4346   12.0249   22.0126 C   0  0  0  0  0  0  0  0  0  0  0  0
   48.7433    7.7863   20.8256 C   0  0  0  0  0  0  0  0  0  0  0  0
   49.3663    8.8469   19.8817 C   0  0  2  0  0  0  0  0  0  0  0  0
   48.6190   14.2263   21.5605 O   0  0  0  0  0  0  0  0  0  0  0  0
   47.6779   13.5530   18.9964 C   0  0  0  0  0  0  0  0  0  0  0  0
   50.7752    8.6036   19.7657 O   0  0  0  0  0  0  0  0  0  0  0  0
   47.4487   13.0408   17.6883 O   0  0  0  0  0  0  0  0  0  0  0  0
   49.8738    5.1530   22.1440 C   0  0  0  0  0  0  0  0  0  0  0  0
   48.6020    4.0494   20.2976 C   0  0  0  0  0  0  0  0  0  0  0  0
   47.3753    5.4374   21.9715 C   0  0  0  0  0  0  0  0  0  0  0  0
   49.2441   11.0962   20.8310 O   0  0  0  0  0  0  0  0  0  0  0  0
   49.2675   10.1541   22.8517 O   0  0  0  0  0  0  0  0  0  0  0  0
   50.6535    8.2586   20.3381 O   0  0  0  0  0  0  0  0  0  0  0  0
   49.5059    6.4000   19.8910 O   0  0  0  0  0  0  0  0  0  0  0  0
   47.5281    8.1056   22.0387 O   0  0  0  0  0  0  0  0  0  0  0  0
   47.2295    7.8258   19.2108 O   0  0  0  0  0  0  0  0  0  0  0  0
   48.8660   10.1396   21.6978 C   0  0  0  0  0  0  0  0  0  0  0  0
   47.8560    9.1540   21.1204 C   0  0  1  0  0  0  0  0  0  0  0  0
   48.3244    8.5510   19.7977 C   0  0  1  0  0  0  0  0  0  0  0  0
   49.5132    7.6177   20.0087 C   0  0  0  0  0  0  0  0  0  0  0  0
   47.6278    9.8726   19.1288 H   0  0  0  0  0  0  0  0  0  0  0  0
   51.2190    6.9652   20.3807 H   0  0  0  0  0  0  0  0  0  0  0  0
   48.6645   10.8123   23.2075 H   0  0  0  0  0  0  0  0  0  0  0  0
   48.1321   13.1864   22.7899 H   0  0  0  0  0  0  0  0  0  0  0  0
   50.2171    8.9194   20.1770 H   0  0  0  0  0  0  0  0  0  0  0  0
   49.0769    7.7334   19.5839 H   0  0  0  0  0  0  0  0  0  0  0  0
   48.8379    8.5999   22.4961 H   0  0  0  0  0  0  0  0  0  0  0  0
   47.2489   14.3678   19.6115 H   0  0  0  0  0  0  0  0  0  0  0  0
   45.8817   12.4042   18.3254 H   0  0  0  0  0  0  0  0  0  0  0  0
   47.3055   11.6730   17.5310 H   0  0  0  0  0  0  0  0  0  0  0  0
   46.6102    8.5097   21.8692 H   0  0  0  0  0  0  0  0  0  0  0  0
   48.3964   13.5450   17.7116 H   0  0  0  0  0  0  0  0  0  0  0  0
   49.8409    6.2300   23.5308 H   0  0  0  0  0  0  0  0  0  0  0  0
   48.2609    6.2706   22.7417 H   0  0  0  0  0  0  0  0  0  0  0  0
   49.0198    4.7361   23.0976 H   0  0  0  0  0  0  0  0  0  0  0  0
   48.0497    5.7078   20.2467 H   0  0  0  0  0  0  0  0  0  0  0  0
   49.4733    5.1800   19.3325 H   0  0  0  0  0  0  0  0  0  0  0  0
   48.7484    4.1227   20.5448 H   0  0  0  0  0  0  0  0  0  0  0  0
   50.8603    3.8154   21.8334 H   0  0  0  0  0  0  0  0  0  0  0  0
   51.6750    4.7266   20.5529 H   0  0  0  0  0  0  0  0  0  0  0  0
   51.8753    5.2045   22.2510 H   0  0  0  0  0  0  0  0  0  0  0  0
   48.1759   10.8909   18.5267 H   0  0  0  0  0  0  0  0  0  0  0  0
   49.8578    6.3870   19.8726 H   0  0  0  0  0  0  0  0  0  0  0  0
   50.1363   10.0117   22.2621 H   0  0  0  0  0  0  0  0  0  0  0  0
   49.8044   12.3272   22.9868 H   0  0  0  0  0  0  0  0  0  0  0  0
   49.2409    7.8467   21.7994 H   0  0  0  0  0  0  0  0  0  0  0  0
   47.6767    8.0022   20.9646 H   0  0  0  0  0  0  0  0  0  0  0  0
   48.9386    8.7244   18.8802 H   0  0  0  0  0  0  0  0  0  0  0  0
   48.9148   14.3085   22.4830 H   0  0  0  0  0  0  0  0  0  0  0  0
   48.3151   14.4395   18.8921 H   0  0  0  0  0  0  0  0  0  0  0  0
   46.7141   13.8444   19.4235 H   0  0  0  0  0  0  0  0  0  0  0  0
   51.1560    9.4046   19.3663 H   0  0  0  0  0  0  0  0  0  0  0  0
   47.0589   13.7694   17.1756 H   0  0  0  0  0  0  0  0  0  0  0  0
   49.7540    4.2592   22.7659 H   0  0  0  0  0  0  0  0  0  0  0  0
   50.8183    5.0410   21.5973 H   0  0  0  0  0  0  0  0  0  0  0  0
   49.9771    6.0063   22.8226 H   0  0  0  0  0  0  0  0  0  0  0  0
   49.5181    3.9078   19.7114 H   0  0  0  0  0  0  0  0  0  0  0  0
   47.7611    4.1125   19.5951 H   0  0  0  0  0  0  0  0  0  0  0  0
   48.4646    3.1487   20.9100 H   0  0  0  0  0  0  0  0  0  0  0  0
   47.4064    6.2697   22.6828 H   0  0  0  0  0  0  0  0  0  0  0  0
   47.1775    4.5262   22.5481 H   0  0  0  0  0  0  0  0  0  0  0  0
   46.5227    5.5957   21.3007 H   0  0  0  0  0  0  0  0  0  0  0  0
   49.8772   11.6517   21.3338 H   0  0  0  0  0  0  0  0  0  0  0  0
   51.3055    7.5322   20.4399 H   0  0  0  0  0  0  0  0  0  0  0  0
   47.2838    8.5321   22.8793 H   0  0  0  0  0  0  0  0  0  0  0  0
   47.1168    7.0287   19.7691 H   0  0  0  0  0  0  0  0  0  0  0  0
   46.9248    9.7096   20.9560 H   0  0  0  0  0  0  0  0  0  0  0  0
   48.6186    9.3147   19.0699 H   0  0  0  0  0  0  0  0  0  0  0  0
 10  3  1  0
 11  4  1  0
 12  1  1  0
 10 13  1  0
 14 12  1  0
 15  7  1  0
 16  7  1  0
 17  7  1  0
  6  8  1  0
  2  1  2  0
  3  2  1  0
  4  1  1  0
  5  9  1  0
  6  3  2  0
  7  5  1  0
  8  4  2  0
  9 10  1  0
 27 20  1  0
 28 21  1  0
 29 18  1  0
 27 30  1  0
 31 29  1  0
 32 24  1  0
 33 24  1  0
 34 24  1  0
 23 25  1  0
 19 18  2  0
 20 19  1  0
 21 18  1  0
 22 26  1  0
 23 20  2  0
 24 22  1  0
 25 21  2  0
 26 27  1  0
 41 36  2  0
 42 39  1  0
 43 40  1  0
 41 35  1  0
 43 44  1  0
 42 43  1  0
 44 37  1  0
 41 42  1  0
 44 38  2  0
  2 45  1  0
  5 46  1  0
  6 47  1  0
  8 48  1  0
  9 49  1  0
  9 50  1  0
 10 51  1  6
 11 52  1  0
 12 53  1  0
 12 54  1  0
 13 55  1  0
 14 56  1  0
 15 57  1  0
 15 58  1  0
 15 59  1  0
 16 60  1  0
 16 61  1  0
 16 62  1  0
 17 63  1  0
 17 64  1  0
 17 65  1  0
 19 66  1  0
 22 67  1  0
 23 68  1  0
 25 69  1  0
 26 70  1  0
 26 71  1  0
 27 72  1  1
 28 73  1  0
 29 74  1  0
 29 75  1  0
 30 76  1  0
 31 77  1  0
 32 78  1  0
 32 79  1  0
 32 80  1  0
 33 81  1  0
 33 82  1  0
 33 83  1  0
 34 84  1  0
 34 85  1  0
 34 86  1  0
 35 87  1  0
 37 88  1  0
 39 89  1  0
 40 90  1  0
 42 91  1  1
 43 92  1  1
M  END
> <Uni-Dock RESULT> 
ENERGY=   -5.093  LOWER_BOUND=    8.090  UPPER_BOUND=   10.455
INTER + INTRA:          -5.093
INTER:                  -5.093
INTRA:                   0.000
UNBOUND:                 0.000

$$$$

     RDKit          3D

 92 91  0  0  0  0  0  0  0  0999 V2000
   48.3301    4.8263   17.6867 C   0  0  0  0  0  0  0  0  0  0  0  0
   48.2111    6.0993   18.2710 C   0  0  0  0  0  0  0  0  0  0  0  0
   49.3306    6.7715   18.7944 C   0  0  0  0  0  0  0  0  0  0  0  0
   49.6055    4.2536   17.6036 C   0  0  0  0  0  0  0  0  0  0  0  0
   48.5014    9.1106   21.7063 N   0  0  0  0  0  0  0  0  0  0  0  0
   50.5897    6.1620   18.6978 C   0  0  0  0  0  0  0  0  0  0  0  0
   48.4133   10.5689   21.4893 C   0  0  0  0  0  0  0  0  0  0  0  0
   50.7260    4.9108   18.0990 C   0  0  0  0  0  0  0  0  0  0  0  0
   48.1894    8.2007   20.5868 C   0  0  0  0  0  0  0  0  0  0  0  0
   49.2026    8.1519   19.4148 C   0  0  2  0  0  0  0  0  0  0  0  0
   49.8113    3.0292   17.0322 O   0  0  0  0  0  0  0  0  0  0  0  0
   47.1095    4.1673   17.1060 C   0  0  0  0  0  0  0  0  0  0  0  0
   48.7994    9.0422   18.3683 O   0  0  0  0  0  0  0  0  0  0  0  0
   47.1914    2.7523   17.2813 O   0  0  0  0  0  0  0  0  0  0  0  0
   49.6720   11.1162   20.8001 C   0  0  0  0  0  0  0  0  0  0  0  0
   47.1519   11.0088   20.7305 C   0  0  0  0  0  0  0  0  0  0  0  0
   48.3577   11.1976   22.9017 C   0  0  0  0  0  0  0  0  0  0  0  0
   48.7710    4.1599   18.3919 C   0  0  0  0  0  0  0  0  0  0  0  0
   48.0369    5.2549   18.8780 C   0  0  0  0  0  0  0  0  0  0  0  0
   48.6263    6.2278   19.7018 C   0  0  0  0  0  0  0  0  0  0  0  0
   50.1250    4.0660   18.7336 C   0  0  0  0  0  0  0  0  0  0  0  0
   47.4434    9.8273   20.3504 N   0  0  0  0  0  0  0  0  0  0  0  0
   49.9777    6.0864   20.0428 C   0  0  0  0  0  0  0  0  0  0  0  0
   47.9942   11.1934   20.3914 C   0  0  0  0  0  0  0  0  0  0  0  0
   50.7292    5.0160   19.5554 C   0  0  0  0  0  0  0  0  0  0  0  0
   48.3543    8.7725   19.8735 C   0  0  0  0  0  0  0  0  0  0  0  0
   47.7933    7.3738   20.2381 C   0  0  2  0  0  0  0  0  0  0  0  0
   50.8553    3.0150   18.2532 O   0  0  0  0  0  0  0  0  0  0  0  0
   48.1443    3.1073   17.5076 C   0  0  0  0  0  0  0  0  0  0  0  0
   47.7156    7.2556   21.6655 O   0  0  0  0  0  0  0  0  0  0  0  0
   46.7321    3.2561   17.4105 O   0  0  0  0  0  0  0  0  0  0  0  0
   48.9590   11.3571   21.5777 C   0  0  0  0  0  0  0  0  0  0  0  0
   46.7904   12.1310   20.6067 C   0  0  0  0  0  0  0  0  0  0  0  0
   48.6934   11.5940   19.0824 C   0  0  0  0  0  0  0  0  0  0  0  0
   49.3241    5.5808   19.5919 O   0  0  0  0  0  0  0  0  0  0  0  0
   50.9955    7.0383   19.8229 O   0  0  0  0  0  0  0  0  0  0  0  0
   48.1579    7.7696   21.6243 O   0  0  0  0  0  0  0  0  0  0  0  0
   47.1258    9.6245   20.9420 O   0  0  0  0  0  0  0  0  0  0  0  0
   49.5173    9.0946   18.6111 O   0  0  0  0  0  0  0  0  0  0  0  0
   46.7106    8.6023   18.4003 O   0  0  0  0  0  0  0  0  0  0  0  0
   49.8581    6.8062   19.4418 C   0  0  0  0  0  0  0  0  0  0  0  0
   48.9560    7.7799   18.6913 C   0  0  1  0  0  0  0  0  0  0  0  0
   47.5548    7.8551   19.2938 C   0  0  1  0  0  0  0  0  0  0  0  0
   47.5806    8.5229   20.6658 C   0  0  0  0  0  0  0  0  0  0  0  0
   47.2350    6.5843   18.3129 H   0  0  0  0  0  0  0  0  0  0  0  0
   47.8766    8.8616   22.4744 H   0  0  0  0  0  0  0  0  0  0  0  0
   51.4772    6.6614   19.0817 H   0  0  0  0  0  0  0  0  0  0  0  0
   51.7051    4.4469   18.0147 H   0  0  0  0  0  0  0  0  0  0  0  0
   48.1577    7.2039   21.0472 H   0  0  0  0  0  0  0  0  0  0  0  0
   47.1750    8.3884   20.2167 H   0  0  0  0  0  0  0  0  0  0  0  0
   50.1882    8.4776   19.7678 H   0  0  0  0  0  0  0  0  0  0  0  0
   48.9307    2.6213   16.8979 H   0  0  0  0  0  0  0  0  0  0  0  0
   47.0502    4.3795   16.0308 H   0  0  0  0  0  0  0  0  0  0  0  0
   46.1875    4.5160   17.5897 H   0  0  0  0  0  0  0  0  0  0  0  0
   49.4022    8.8720   17.6252 H   0  0  0  0  0  0  0  0  0  0  0  0
   46.9642    2.5840   18.2150 H   0  0  0  0  0  0  0  0  0  0  0  0
   50.5861   10.7629   21.2884 H   0  0  0  0  0  0  0  0  0  0  0  0
   49.7282   10.8455   19.7463 H   0  0  0  0  0  0  0  0  0  0  0  0
   49.6931   12.2101   20.8389 H   0  0  0  0  0  0  0  0  0  0  0  0
   47.1671   10.6937   19.6846 H   0  0  0  0  0  0  0  0  0  0  0  0
   46.2466   10.6062   21.1966 H   0  0  0  0  0  0  0  0  0  0  0  0
   47.0582   12.1020   20.7307 H   0  0  0  0  0  0  0  0  0  0  0  0
   48.3576   12.2951   22.8495 H   0  0  0  0  0  0  0  0  0  0  0  0
   47.4464   10.8957   23.4369 H   0  0  0  0  0  0  0  0  0  0  0  0
   49.2202   10.8982   23.5119 H   0  0  0  0  0  0  0  0  0  0  0  0
   46.9839    5.3406   18.6127 H   0  0  0  0  0  0  0  0  0  0  0  0
   47.1299    9.5535   21.2874 H   0  0  0  0  0  0  0  0  0  0  0  0
   50.4539    6.8083   20.7041 H   0  0  0  0  0  0  0  0  0  0  0  0
   51.7732    4.9350   19.8397 H   0  0  0  0  0  0  0  0  0  0  0  0
   49.3391    8.8884   20.3383 H   0  0  0  0  0  0  0  0  0  0  0  0
   48.4710    8.8472   18.7852 H   0  0  0  0  0  0  0  0  0  0  0  0
   46.7695    7.2923   19.8558 H   0  0  0  0  0  0  0  0  0  0  0  0
   51.7827    3.1402   18.5169 H   0  0  0  0  0  0  0  0  0  0  0  0
   48.3391    2.1107   17.9221 H   0  0  0  0  0  0  0  0  0  0  0  0
   48.5653    3.1723   16.5002 H   0  0  0  0  0  0  0  0  0  0  0  0
   47.5855    6.3099   21.8520 H   0  0  0  0  0  0  0  0  0  0  0  0
   46.4177    2.5151   16.8648 H   0  0  0  0  0  0  0  0  0  0  0  0
   49.2948   12.3961   21.6655 H   0  0  0  0  0  0  0  0  0  0  0  0
   48.4724   11.0945   22.5252 H   0  0  0  0  0  0  0  0  0  0  0  0
   49.8553   10.7361   21.4765 H   0  0  0  0  0  0  0  0  0  0  0  0
   46.2556   11.8909   21.5336 H   0  0  0  0  0  0  0  0  0  0  0  0
   46.0751   12.0545   19.7778 H   0  0  0  0  0  0  0  0  0  0  0  0
   47.1140   13.1776   20.6790 H   0  0  0  0  0  0  0  0  0  0  0  0
   49.6100   11.0179   18.9157 H   0  0  0  0  0  0  0  0  0  0  0  0
   48.9754   12.6532   19.0986 H   0  0  0  0  0  0  0  0  0  0  0  0
   48.0343   11.4405   18.2199 H   0  0  0  0  0  0  0  0  0  0  0  0
   50.0068    5.0693   20.0761 H   0  0  0  0  0  0  0  0  0  0  0  0
   48.0986    8.3317   22.4267 H   0  0  0  0  0  0  0  0  0  0  0  0
   50.4239    8.9948   18.2700 H   0  0  0  0  0  0  0  0  0  0  0  0
   47.0132    9.5312   18.4730 H   0  0  0  0  0  0  0  0  0  0  0  0
   48.8874    7.4205   17.6574 H   0  0  0  0  0  0  0  0  0  0  0  0
   47.0936    6.8680   19.4064 H   0  0  0  0  0  0  0  0  0  0  0  0
 10  3  1  0
 11  4  1  0
 12  1  1  0
 10 13  1  0
 14 12  1  0
 15  7  1  0
 16  7  1  0
 17  7  1  0
  6  8  1  0
  2  1  2  0
  3  2  1  0
  4  1  1  0
  5  9  1  0
  6  3  2  0
  7  5  1  0
  8  4  2  0
  9 10  1  0
 27 20  1  0
 28 21  1  0
 29 18  1  0
 27 30  1  0
 31 29  1  0
 32 24  1  0
 33 24  1  0
 34 24  1  0
 23 25  1  0
 19 18  2  0
 20 19  1  0
 21 18  1  0
 22 26  1  0
 23 20  2  0
 24 22  1  0
 25 21  2  0
 26 27  1  0
 41 36  2  0
 42 39  1  0
 43 40  1  0
 41 35  1  0
 43 44  1  0
 42 43  1  0
 44 37  1  0
 41 42  1  0
 44 38  2  0
  2 45  1  0
  5 46  1  0
  6 47  1  0
  8 48  1  0
  9 49  1  0
  9 50  1  0
 10 51  1  6
 11 52  1  0
 12 53  1  0
 12 54  1  0
 13 55  1  0
 14 56  1  0
 15 57  1  0
 15 58  1  0
 15 59  1  0
 16 60  1  0
 16 61  1  0
 16 62  1  0
 17 63  1  0
 17 64  1  0
 17 65  1  0
 19 66  1  0
 22 67  1  0
 23 68  1  0
 25 69  1  0
 26 70  1  0
 26 71  1  0
 27 72  1  1
 28 73  1  0
 29 74  1  0
 29 75  1  0
 30 76  1  0
 31 77  1  0
 32 78  1  0
 32 79  1  0
 32 80  1  0
 33 81  1  0
 33 82  1  0
 33 83  1  0
 34 84  1  0
 34 85  1  0
 34 86  1  0
 35 87  1  0
 37 88  1  0
 39 89  1  0
 40 90  1  0
 42 91  1  1
 43 92  1  1
M  END
> <Uni-Dock RESULT> 
ENERGY=   -4.966  LOWER_BOUND=    5.902  UPPER_BOUND=    7.920
INTER + INTRA:          -4.966
INTER:                  -4.966
INTRA:                   0.000
UNBOUND:                 0.000

$$$$

     RDKit          3D

 92 91  0  0  0  0  0  0  0  0999 V2000
   48.2614   12.0481   18.4573 C   0  0  0  0  0  0  0  0  0  0  0  0
   48.2422   10.8138   19.1296 C   0  0  0  0  0  0  0  0  0  0  0  0
   49.3487    9.9457   19.0966 C   0  0  0  0  0  0  0  0  0  0  0  0
   49.4308   12.4134   17.7787 C   0  0  0  0  0  0  0  0  0  0  0  0
   48.4147    6.2467   19.3852 N   0  0  0  0  0  0  0  0  0  0  0  0
   50.4990   10.3447   18.4010 C   0  0  0  0  0  0  0  0  0  0  0  0
   48.5863    5.5322   20.6664 C   0  0  0  0  0  0  0  0  0  0  0  0
   50.5407   11.5765   17.7503 C   0  0  0  0  0  0  0  0  0  0  0  0
   48.1574    7.7000   19.4055 C   0  0  0  0  0  0  0  0  0  0  0  0
   49.3312    8.6176   19.8332 C   0  0  2  0  0  0  0  0  0  0  0  0
   49.5398   13.6045   17.1174 O   0  0  0  0  0  0  0  0  0  0  0  0
   47.0678   12.9576   18.5566 C   0  0  0  0  0  0  0  0  0  0  0  0
   49.2467    8.9183   21.2306 O   0  0  0  0  0  0  0  0  0  0  0  0
   46.9035   13.6789   17.3349 O   0  0  0  0  0  0  0  0  0  0  0  0
   50.0101    5.6944   21.2192 C   0  0  0  0  0  0  0  0  0  0  0  0
   47.5496    5.9137   21.7340 C   0  0  0  0  0  0  0  0  0  0  0  0
   48.3941    4.0331   20.3363 C   0  0  0  0  0  0  0  0  0  0  0  0
   48.4731   11.8794   17.4265 C   0  0  0  0  0  0  0  0  0  0  0  0
   47.8437   10.8555   18.1542 C   0  0  0  0  0  0  0  0  0  0  0  0
   48.4297    9.5869   18.2956 C   0  0  0  0  0  0  0  0  0  0  0  0
   49.7217   11.6133   16.8528 C   0  0  0  0  0  0  0  0  0  0  0  0
   47.7169    6.9239   20.9746 N   0  0  0  0  0  0  0  0  0  0  0  0
   49.6687    9.3504   17.6860 C   0  0  0  0  0  0  0  0  0  0  0  0
   48.4545    6.0364   21.8908 C   0  0  0  0  0  0  0  0  0  0  0  0
   50.3189   10.3597   16.9743 C   0  0  0  0  0  0  0  0  0  0  0  0
   48.5230    7.9091   20.2335 C   0  0  0  0  0  0  0  0  0  0  0  0
   47.7035    8.4959   19.0553 C   0  0  2  0  0  0  0  0  0  0  0  0
   50.3530   12.6060   16.1568 O   0  0  0  0  0  0  0  0  0  0  0  0
   47.8487   13.2459   17.2670 C   0  0  0  0  0  0  0  0  0  0  0  0
   47.3738    7.4414   18.1405 O   0  0  0  0  0  0  0  0  0  0  0  0
   46.5112   13.2873   17.7522 O   0  0  0  0  0  0  0  0  0  0  0  0
   49.2233    4.9600   21.1066 C   0  0  0  0  0  0  0  0  0  0  0  0
   47.3883    5.3412   22.7596 C   0  0  0  0  0  0  0  0  0  0  0  0
   49.4132    6.8006   22.8181 C   0  0  0  0  0  0  0  0  0  0  0  0
   49.0295   10.0412   17.7028 O   0  0  0  0  0  0  0  0  0  0  0  0
   50.8415    8.9038   18.3305 O   0  0  0  0  0  0  0  0  0  0  0  0
   47.8897    7.1432   18.4667 O   0  0  0  0  0  0  0  0  0  0  0  0
   47.2787    6.5919   20.5389 O   0  0  0  0  0  0  0  0  0  0  0  0
   49.9141    8.6661   20.9698 O   0  0  0  0  0  0  0  0  0  0  0  0
   47.1391    9.2432   21.3317 O   0  0  0  0  0  0  0  0  0  0  0  0
   49.7609    9.3915   18.6260 C   0  0  0  0  0  0  0  0  0  0  0  0
   49.1541    9.4267   20.0243 C   0  0  1  0  0  0  0  0  0  0  0  0
   47.7004    8.9589   20.0381 C   0  0  1  0  0  0  0  0  0  0  0  0
   47.6002    7.4648   19.7442 C   0  0  0  0  0  0  0  0  0  0  0  0
   47.3579   10.5230   19.6980 H   0  0  0  0  0  0  0  0  0  0  0  0
   47.6410    5.8152   18.8777 H   0  0  0  0  0  0  0  0  0  0  0  0
   51.3763    9.7015   18.3672 H   0  0  0  0  0  0  0  0  0  0  0  0
   51.4382   11.8879   17.2227 H   0  0  0  0  0  0  0  0  0  0  0  0
   47.8989    7.9450   18.3664 H   0  0  0  0  0  0  0  0  0  0  0  0
   47.2587    7.9180   19.9936 H   0  0  0  0  0  0  0  0  0  0  0  0
   50.2827    8.1009   19.6608 H   0  0  0  0  0  0  0  0  0  0  0  0
   48.6419   13.9942   17.0740 H   0  0  0  0  0  0  0  0  0  0  0  0
   47.2201   13.6813   19.3674 H   0  0  0  0  0  0  0  0  0  0  0  0
   46.1424   12.3982   18.7470 H   0  0  0  0  0  0  0  0  0  0  0  0
   49.9311    9.5866   21.4023 H   0  0  0  0  0  0  0  0  0  0  0  0
   46.5021   13.0516   16.7047 H   0  0  0  0  0  0  0  0  0  0  0  0
   50.7663    5.4878   20.4549 H   0  0  0  0  0  0  0  0  0  0  0  0
   50.1980    6.6913   21.6165 H   0  0  0  0  0  0  0  0  0  0  0  0
   50.1905    4.9955   22.0423 H   0  0  0  0  0  0  0  0  0  0  0  0
   47.6894    6.9330   22.1012 H   0  0  0  0  0  0  0  0  0  0  0  0
   46.5292    5.8259   21.3469 H   0  0  0  0  0  0  0  0  0  0  0  0
   47.6243    5.2502   22.6047 H   0  0  0  0  0  0  0  0  0  0  0  0
   48.5695    3.4048   21.2205 H   0  0  0  0  0  0  0  0  0  0  0  0
   47.3717    3.8294   19.9881 H   0  0  0  0  0  0  0  0  0  0  0  0
   49.0882    3.6991   19.5535 H   0  0  0  0  0  0  0  0  0  0  0  0
   46.8745   11.0544   18.6100 H   0  0  0  0  0  0  0  0  0  0  0  0
   47.2148    6.3617   20.2795 H   0  0  0  0  0  0  0  0  0  0  0  0
   50.1331    8.3680   17.7528 H   0  0  0  0  0  0  0  0  0  0  0  0
   51.2768   10.1432   16.5130 H   0  0  0  0  0  0  0  0  0  0  0  0
   49.4234    7.4321   19.8322 H   0  0  0  0  0  0  0  0  0  0  0  0
   48.8281    8.7203   20.9063 H   0  0  0  0  0  0  0  0  0  0  0  0
   46.7567    8.8883   19.4434 H   0  0  0  0  0  0  0  0  0  0  0  0
   51.2321   12.2847   15.8938 H   0  0  0  0  0  0  0  0  0  0  0  0
   47.8184   13.5183   16.2051 H   0  0  0  0  0  0  0  0  0  0  0  0
   48.4354   13.9870   17.8173 H   0  0  0  0  0  0  0  0  0  0  0  0
   47.0724    7.8759   17.3242 H   0  0  0  0  0  0  0  0  0  0  0  0
   46.1824   14.1835   17.5667 H   0  0  0  0  0  0  0  0  0  0  0  0
   49.6939    4.2435   21.7886 H   0  0  0  0  0  0  0  0  0  0  0  0
   48.5525    4.3894   20.4523 H   0  0  0  0  0  0  0  0  0  0  0  0
   50.0191    5.3838   20.4850 H   0  0  0  0  0  0  0  0  0  0  0  0
   46.6774    4.7751   22.1455 H   0  0  0  0  0  0  0  0  0  0  0  0
   46.8168    6.0718   23.3461 H   0  0  0  0  0  0  0  0  0  0  0  0
   47.8507    4.6328   23.4593 H   0  0  0  0  0  0  0  0  0  0  0  0
   50.2464    7.2481   22.2656 H   0  0  0  0  0  0  0  0  0  0  0  0
   49.8463    6.1304   23.5699 H   0  0  0  0  0  0  0  0  0  0  0  0
   48.8903    7.6025   23.3522 H   0  0  0  0  0  0  0  0  0  0  0  0
   49.5370    9.9434   16.8691 H   0  0  0  0  0  0  0  0  0  0  0  0
   47.7846    6.1676   18.4446 H   0  0  0  0  0  0  0  0  0  0  0  0
   50.8387    8.9615   20.8924 H   0  0  0  0  0  0  0  0  0  0  0  0
   47.5632    8.6071   21.9444 H   0  0  0  0  0  0  0  0  0  0  0  0
   49.2036   10.4669   20.3685 H   0  0  0  0  0  0  0  0  0  0  0  0
   47.0823    9.4900   19.3063 H   0  0  0  0  0  0  0  0  0  0  0  0
 10  3  1  0
 11  4  1  0
 12  1  1  0
 10 13  1  0
 14 12  1  0
 15  7  1  0
 16  7  1  0
 17  7  1  0
  6  8  1  0
  2  1  2  0
  3  2  1  0
  4  1  1  0
  5  9  1  0
  6  3  2  0
  7  5  1  0
  8  4  2  0
  9 10  1  0
 27 20  1  0
 28 21  1  0
 29 18  1  0
 27 30  1  0
 31 29  1  0
 32 24  1  0
 33 24  1  0
 34 24  1  0
 23 25  1  0
 19 18  2  0
 20 19  1  0
 21 18  1  0
 22 26  1  0
 23 20  2  0
 24 22  1  0
 25 21  2  0
 26 27  1  0
 41 36  2  0
 42 39  1  0
 43 40  1  0
 41 35  1  0
 43 44  1  0
 42 43  1  0
 44 37  1  0
 41 42  1  0
 44 38  2  0
  2 45  1  0
  5 46  1  0
  6 47  1  0
  8 48  1  0
  9 49  1  0
  9 50  1  0
 10 51  1  6
 11 52  1  0
 12 53  1  0
 12 54  1  0
 13 55  1  0
 14 56  1  0
 15 57  1  0
 15 58  1  0
 15 59  1  0
 16 60  1  0
 16 61  1  0
 16 62  1  0
 17 63  1  0
 17 64  1  0
 17 65  1  0
 19 66  1  0
 22 67  1  0
 23 68  1  0
 25 69  1  0
 26 70  1  0
 26 71  1  0
 27 72  1  1
 28 73  1  0
 29 74  1  0
 29 75  1  0
 30 76  1  0
 31 77  1  0
 32 78  1  0
 32 79  1  0
 32 80  1  0
 33 81  1  0
 33 82  1  0
 33 83  1  0
 34 84  1  0
 34 85  1  0
 34 86  1  0
 35 87  1  0
 37 88  1  0
 39 89  1  0
 40 90  1  0
 42 91  1  1
 43 92  1  1
M  END
> <Uni-Dock RESULT> 
ENERGY=   -4.939  LOWER_BOUND=    7.159  UPPER_BOUND=    9.295
INTER + INTRA:          -4.939
INTER:                  -4.939
INTRA:                   0.000
UNBOUND:                 0.000

$$$$

     RDKit          3D

 92 91  0  0  0  0  0  0  0  0999 V2000
   48.3551   10.0529   18.8830 C   0  0  0  0  0  0  0  0  0  0  0  0
   48.8323   11.2425   18.3059 C   0  0  0  0  0  0  0  0  0  0  0  0
   48.6003   12.4922   18.9087 C   0  0  0  0  0  0  0  0  0  0  0  0
   47.6694   10.1376   20.1012 C   0  0  0  0  0  0  0  0  0  0  0  0
   48.3811   15.3879   16.4176 N   0  0  0  0  0  0  0  0  0  0  0  0
   47.9040   12.5359   20.1251 C   0  0  0  0  0  0  0  0  0  0  0  0
   49.5261   16.3029   16.2355 C   0  0  0  0  0  0  0  0  0  0  0  0
   47.4464   11.3620   20.7209 C   0  0  0  0  0  0  0  0  0  0  0  0
   48.6374   13.9959   16.8361 C   0  0  0  0  0  0  0  0  0  0  0  0
   49.1265   13.7758   18.2904 C   0  0  2  0  0  0  0  0  0  0  0  0
   47.1910    9.0275   20.7392 O   0  0  0  0  0  0  0  0  0  0  0  0
   48.6642    8.7390   18.2199 C   0  0  0  0  0  0  0  0  0  0  0  0
   50.5559   13.7011   18.3309 O   0  0  0  0  0  0  0  0  0  0  0  0
   47.5785    7.8310   18.4109 O   0  0  0  0  0  0  0  0  0  0  0  0
   50.0088   16.8800   17.5745 C   0  0  0  0  0  0  0  0  0  0  0  0
   50.7009   15.6819   15.4644 C   0  0  0  0  0  0  0  0  0  0  0  0
   48.9849   17.4860   15.3984 C   0  0  0  0  0  0  0  0  0  0  0  0
   47.2997   10.1272   19.0105 C   0  0  0  0  0  0  0  0  0  0  0  0
   47.9009   10.8704   17.9807 C   0  0  0  0  0  0  0  0  0  0  0  0
   47.8119   12.2714   17.9367 C   0  0  0  0  0  0  0  0  0  0  0  0
   46.6168   10.8208   20.0163 C   0  0  0  0  0  0  0  0  0  0  0  0
   50.0946   14.7412   16.0750 N   0  0  0  0  0  0  0  0  0  0  0  0
   47.0987   12.9287   18.9475 C   0  0  0  0  0  0  0  0  0  0  0  0
   50.8187   15.9996   16.3267 C   0  0  0  0  0  0  0  0  0  0  0  0
   46.5099   12.2103   19.9892 C   0  0  0  0  0  0  0  0  0  0  0  0
   49.4635   14.1082   17.2458 C   0  0  0  0  0  0  0  0  0  0  0  0
   48.4405   13.0360   16.7899 C   0  0  2  0  0  0  0  0  0  0  0  0
   46.0420   10.1112   21.0334 O   0  0  0  0  0  0  0  0  0  0  0  0
   47.3879    8.6199   19.0641 C   0  0  0  0  0  0  0  0  0  0  0  0
   47.3983   13.6708   16.0360 O   0  0  0  0  0  0  0  0  0  0  0  0
   47.9549    8.0707   17.8796 O   0  0  0  0  0  0  0  0  0  0  0  0
   49.8345   17.1611   16.5441 C   0  0  0  0  0  0  0  0  0  0  0  0
   51.6356   16.2827   15.0511 C   0  0  0  0  0  0  0  0  0  0  0  0
   51.7906   15.9012   17.5136 C   0  0  0  0  0  0  0  0  0  0  0  0
   47.2593   12.0394   18.6839 O   0  0  0  0  0  0  0  0  0  0  0  0
   47.5949   13.9466   19.7891 O   0  0  0  0  0  0  0  0  0  0  0  0
   47.6432   14.2153   16.3602 O   0  0  0  0  0  0  0  0  0  0  0  0
   49.6413   14.7691   15.5404 O   0  0  0  0  0  0  0  0  0  0  0  0
   50.2194   14.1763   18.8188 O   0  0  0  0  0  0  0  0  0  0  0  0
   50.8342   12.4986   16.5890 O   0  0  0  0  0  0  0  0  0  0  0  0
   48.0266   13.0866   19.0362 C   0  0  0  0  0  0  0  0  0  0  0  0
   49.4487   13.0151   18.4907 C   0  0  1  0  0  0  0  0  0  0  0  0
   49.4805   12.7866   16.9811 C   0  0  1  0  0  0  0  0  0  0  0  0
   48.9700   14.0120   16.2281 C   0  0  0  0  0  0  0  0  0  0  0  0
   49.4032   11.2004   17.3775 H   0  0  0  0  0  0  0  0  0  0  0  0
   47.8625   15.3434   15.5394 H   0  0  0  0  0  0  0  0  0  0  0  0
   47.7192   13.4858   20.6232 H   0  0  0  0  0  0  0  0  0  0  0  0
   46.9181   11.3985   21.6698 H   0  0  0  0  0  0  0  0  0  0  0  0
   47.6654   13.4959   16.7278 H   0  0  0  0  0  0  0  0  0  0  0  0
   49.3058   13.5018   16.1218 H   0  0  0  0  0  0  0  0  0  0  0  0
   48.8197   14.6243   18.9133 H   0  0  0  0  0  0  0  0  0  0  0  0
   47.2623    8.2796   20.1104 H   0  0  0  0  0  0  0  0  0  0  0  0
   49.5646    8.3004   18.6687 H   0  0  0  0  0  0  0  0  0  0  0  0
   48.8240    8.8539   17.1397 H   0  0  0  0  0  0  0  0  0  0  0  0
   50.7846   13.4426   19.2394 H   0  0  0  0  0  0  0  0  0  0  0  0
   46.8863    8.1037   17.7799 H   0  0  0  0  0  0  0  0  0  0  0  0
   49.1771   17.2722   18.1688 H   0  0  0  0  0  0  0  0  0  0  0  0
   50.5404   16.1488   18.1826 H   0  0  0  0  0  0  0  0  0  0  0  0
   50.7038   17.7103   17.4131 H   0  0  0  0  0  0  0  0  0  0  0  0
   51.2091   14.9048   16.0398 H   0  0  0  0  0  0  0  0  0  0  0  0
   50.3682   15.2446   14.5172 H   0  0  0  0  0  0  0  0  0  0  0  0
   51.4546   16.4420   15.2236 H   0  0  0  0  0  0  0  0  0  0  0  0
   49.7511   18.2618   15.2633 H   0  0  0  0  0  0  0  0  0  0  0  0
   48.6732   17.1565   14.3973 H   0  0  0  0  0  0  0  0  0  0  0  0
   48.1195   17.9599   15.8805 H   0  0  0  0  0  0  0  0  0  0  0  0
   48.4401   10.3405   17.1965 H   0  0  0  0  0  0  0  0  0  0  0  0
   49.3544   14.9015   15.3838 H   0  0  0  0  0  0  0  0  0  0  0  0
   46.9871   14.0114   18.9235 H   0  0  0  0  0  0  0  0  0  0  0  0
   45.9632   12.7498   20.7557 H   0  0  0  0  0  0  0  0  0  0  0  0
   48.9401   14.8619   17.8436 H   0  0  0  0  0  0  0  0  0  0  0  0
   50.2316   13.6377   17.8722 H   0  0  0  0  0  0  0  0  0  0  0  0
   48.9410   12.3344   16.1130 H   0  0  0  0  0  0  0  0  0  0  0  0
   45.6799   10.7407   21.6798 H   0  0  0  0  0  0  0  0  0  0  0  0
   46.3834    8.1931   19.1725 H   0  0  0  0  0  0  0  0  0  0  0  0
   48.0072    8.3158   19.9127 H   0  0  0  0  0  0  0  0  0  0  0  0
   46.6773   13.0211   15.9710 H   0  0  0  0  0  0  0  0  0  0  0  0
   47.9280    7.1047   17.9880 H   0  0  0  0  0  0  0  0  0  0  0  0
   50.3698   18.1124   16.6364 H   0  0  0  0  0  0  0  0  0  0  0  0
   49.1437   17.2608   15.6978 H   0  0  0  0  0  0  0  0  0  0  0  0
   49.2368   17.0381   17.4534 H   0  0  0  0  0  0  0  0  0  0  0  0
   50.9876   16.3672   14.1703 H   0  0  0  0  0  0  0  0  0  0  0  0
   52.3601   15.4811   14.8583 H   0  0  0  0  0  0  0  0  0  0  0  0
   52.1901   17.2261   15.1394 H   0  0  0  0  0  0  0  0  0  0  0  0
   51.2623   15.7852   18.4660 H   0  0  0  0  0  0  0  0  0  0  0  0
   52.4040   16.8064   17.5921 H   0  0  0  0  0  0  0  0  0  0  0  0
   52.4712   15.0497   17.3969 H   0  0  0  0  0  0  0  0  0  0  0  0
   46.3908   12.2143   19.1052 H   0  0  0  0  0  0  0  0  0  0  0  0
   47.4799   15.0255   15.8309 H   0  0  0  0  0  0  0  0  0  0  0  0
   50.1311   14.3123   19.7789 H   0  0  0  0  0  0  0  0  0  0  0  0
   51.3161   13.3471   16.6764 H   0  0  0  0  0  0  0  0  0  0  0  0
   49.9430   12.1759   18.9950 H   0  0  0  0  0  0  0  0  0  0  0  0
   48.8770   11.9255   16.6748 H   0  0  0  0  0  0  0  0  0  0  0  0
 10  3  1  0
 11  4  1  0
 12  1  1  0
 10 13  1  0
 14 12  1  0
 15  7  1  0
 16  7  1  0
 17  7  1  0
  6  8  1  0
  2  1  2  0
  3  2  1  0
  4  1  1  0
  5  9  1  0
  6  3  2  0
  7  5  1  0
  8  4  2  0
  9 10  1  0
 27 20  1  0
 28 21  1  0
 29 18  1  0
 27 30  1  0
 31 29  1  0
 32 24  1  0
 33 24  1  0
 34 24  1  0
 23 25  1  0
 19 18  2  0
 20 19  1  0
 21 18  1  0
 22 26  1  0
 23 20  2  0
 24 22  1  0
 25 21  2  0
 26 27  1  0
 41 36  2  0
 42 39  1  0
 43 40  1  0
 41 35  1  0
 43 44  1  0
 42 43  1  0
 44 37  1  0
 41 42  1  0
 44 38  2  0
  2 45  1  0
  5 46  1  0
  6 47  1  0
  8 48  1  0
  9 49  1  0
  9 50  1  0
 10 51  1  6
 11 52  1  0
 12 53  1  0
 12 54  1  0
 13 55  1  0
 14 56  1  0
 15 57  1  0
 15 58  1  0
 15 59  1  0
 16 60  1  0
 16 61  1  0
 16 62  1  0
 17 63  1  0
 17 64  1  0
 17 65  1  0
 19 66  1  0
 22 67  1  0
 23 68  1  0
 25 69  1  0
 26 70  1  0
 26 71  1  0
 27 72  1  1
 28 73  1  0
 29 74  1  0
 29 75  1  0
 30 76  1  0
 31 77  1  0
 32 78  1  0
 32 79  1  0
 32 80  1  0
 33 81  1  0
 33 82  1  0
 33 83  1  0
 34 84  1  0
 34 85  1  0
 34 86  1  0
 35 87  1  0
 37 88  1  0
 39 89  1  0
 40 90  1  0
 42 91  1  1
 43 92  1  1
M  END
> <Uni-Dock RESULT> 
ENERGY=   -4.837  LOWER_BOUND=    7.189  UPPER_BOUND=    9.321
INTER + INTRA:          -4.837
INTER:                  -4.837
INTRA:                   0.000
UNBOUND:                 0.000

$$$$
