
     RDKit          3D

 92 91  0  0  0  0  0  0  0  0999 V2000
   46.3170   12.7626    9.4961 C   0  0  0  0  0  0  0  0  0  0  0  0
   44.9496   12.7442    9.8217 C   0  0  0  0  0  0  0  0  0  0  0  0
   44.4696   12.0183   10.9261 C   0  0  0  0  0  0  0  0  0  0  0  0
   47.2018   12.0395   10.3003 C   0  0  0  0  0  0  0  0  0  0  0  0
   40.9037   10.6666   10.4749 N   0  0  0  0  0  0  0  0  0  0  0  0
   45.3852   11.3133   11.7172 C   0  0  0  0  0  0  0  0  0  0  0  0
   39.7508   11.4423   10.9782 C   0  0  0  0  0  0  0  0  0  0  0  0
   46.7458   11.3216   11.4051 C   0  0  0  0  0  0  0  0  0  0  0  0
   42.1418   11.3862   10.1111 C   0  0  0  0  0  0  0  0  0  0  0  0
   42.9873   11.9954   11.2608 C   0  0  2  0  0  0  0  0  0  0  0  0
   48.5307   12.0355    9.9862 O   0  0  0  0  0  0  0  0  0  0  0  0
   46.7698   13.5340    8.2846 C   0  0  0  0  0  0  0  0  0  0  0  0
   42.5777   13.3402   11.5320 O   0  0  0  0  0  0  0  0  0  0  0  0
   46.2804   12.9112    7.1029 O   0  0  0  0  0  0  0  0  0  0  0  0
   39.5021   12.7630   10.2330 C   0  0  0  0  0  0  0  0  0  0  0  0
   39.8734   11.6860   12.4899 C   0  0  0  0  0  0  0  0  0  0  0  0
   38.5119   10.5420   10.7632 C   0  0  0  0  0  0  0  0  0  0  0  0
   46.3301   12.7009    9.8518 C   0  0  0  0  0  0  0  0  0  0  0  0
   45.1859   12.0645   10.3660 C   0  0  0  0  0  0  0  0  0  0  0  0
   44.2427   11.4525    9.5228 C   0  0  0  0  0  0  0  0  0  0  0  0
   46.5237   12.6988    8.4667 C   0  0  0  0  0  0  0  0  0  0  0  0
   41.1552   10.6981   11.7822 N   0  0  0  0  0  0  0  0  0  0  0  0
   44.4874   11.4510    8.1411 C   0  0  0  0  0  0  0  0  0  0  0  0
   39.8830   11.3536   11.4434 C   0  0  0  0  0  0  0  0  0  0  0  0
   45.6177   12.0753    7.6121 C   0  0  0  0  0  0  0  0  0  0  0  0
   42.3945   11.3649   11.3461 C   0  0  0  0  0  0  0  0  0  0  0  0
   42.9962   10.7617   10.0446 C   0  0  2  0  0  0  0  0  0  0  0  0
   47.6286   13.3214    7.9559 O   0  0  0  0  0  0  0  0  0  0  0  0
   47.3356   13.3810   10.7471 C   0  0  0  0  0  0  0  0  0  0  0  0
   43.2828    9.3717   10.2547 O   0  0  0  0  0  0  0  0  0  0  0  0
   46.9518   13.3386   12.1190 O   0  0  0  0  0  0  0  0  0  0  0  0
   39.7151   12.6533   12.2506 C   0  0  0  0  0  0  0  0  0  0  0  0
   38.7646   10.3803   11.8646 C   0  0  0  0  0  0  0  0  0  0  0  0
   39.7233   11.6434    9.9445 C   0  0  0  0  0  0  0  0  0  0  0  0
   45.2520   11.9810   11.0480 O   0  0  0  0  0  0  0  0  0  0  0  0
   43.9783   13.4635   12.1311 O   0  0  0  0  0  0  0  0  0  0  0  0
   42.6152   10.3082   11.7621 O   0  0  0  0  0  0  0  0  0  0  0  0
   40.9010   10.0806   10.3580 O   0  0  0  0  0  0  0  0  0  0  0  0
   41.9717   13.3450   10.2048 O   0  0  0  0  0  0  0  0  0  0  0  0
   42.2990   11.2057    8.2517 O   0  0  0  0  0  0  0  0  0  0  0  0
   44.1405   12.7319   11.1640 C   0  0  0  0  0  0  0  0  0  0  0  0
   43.2020   12.6457    9.9685 C   0  0  1  0  0  0  0  0  0  0  0  0
   42.9234   11.2047    9.5475 C   0  0  1  0  0  0  0  0  0  0  0  0
   42.0336   10.4930   10.5608 C   0  0  0  0  0  0  0  0  0  0  0  0
   44.2496   13.2994    9.1935 H   0  0  0  0  0  0  0  0  0  0  0  0
   40.6061   10.1555    9.6408 H   0  0  0  0  0  0  0  0  0  0  0  0
   45.0431   10.7463   12.5812 H   0  0  0  0  0  0  0  0  0  0  0  0
   47.4316   10.7588   12.0333 H   0  0  0  0  0  0  0  0  0  0  0  0
   42.7586   10.6239    9.6134 H   0  0  0  0  0  0  0  0  0  0  0  0
   41.9299   12.1392    9.3419 H   0  0  0  0  0  0  0  0  0  0  0  0
   42.8336   11.4126   12.1781 H   0  0  0  0  0  0  0  0  0  0  0  0
   49.0172   11.5335   10.6613 H   0  0  0  0  0  0  0  0  0  0  0  0
   46.3828   14.5585    8.3249 H   0  0  0  0  0  0  0  0  0  0  0  0
   47.8589   13.5981    8.2088 H   0  0  0  0  0  0  0  0  0  0  0  0
   43.3510   13.8127   11.8845 H   0  0  0  0  0  0  0  0  0  0  0  0
   46.3864   11.9533    7.2371 H   0  0  0  0  0  0  0  0  0  0  0  0
   38.5681   13.2283   10.5679 H   0  0  0  0  0  0  0  0  0  0  0  0
   40.2969   13.4940   10.4052 H   0  0  0  0  0  0  0  0  0  0  0  0
   39.4207   12.6014    9.1529 H   0  0  0  0  0  0  0  0  0  0  0  0
   40.6582   12.4015   12.7402 H   0  0  0  0  0  0  0  0  0  0  0  0
   40.0909   10.7524   13.0239 H   0  0  0  0  0  0  0  0  0  0  0  0
   38.9372   12.0868   12.8971 H   0  0  0  0  0  0  0  0  0  0  0  0
   38.6316    9.5702   11.2551 H   0  0  0  0  0  0  0  0  0  0  0  0
   38.3279   10.3571    9.6986 H   0  0  0  0  0  0  0  0  0  0  0  0
   37.6081   11.0066   11.1739 H   0  0  0  0  0  0  0  0  0  0  0  0
   45.0429   12.0561   11.4453 H   0  0  0  0  0  0  0  0  0  0  0  0
   41.1792    9.7376   11.4273 H   0  0  0  0  0  0  0  0  0  0  0  0
   43.7890   10.9579    7.4665 H   0  0  0  0  0  0  0  0  0  0  0  0
   45.7728   12.0594    6.5377 H   0  0  0  0  0  0  0  0  0  0  0  0
   43.1054   11.1974   12.1639 H   0  0  0  0  0  0  0  0  0  0  0  0
   42.2736   12.4491   11.2521 H   0  0  0  0  0  0  0  0  0  0  0  0
   42.2313   10.8048    9.2603 H   0  0  0  0  0  0  0  0  0  0  0  0
   47.5508   13.3457    6.9880 H   0  0  0  0  0  0  0  0  0  0  0  0
   47.4262   14.4343   10.4607 H   0  0  0  0  0  0  0  0  0  0  0  0
   48.3122   12.8932   10.6514 H   0  0  0  0  0  0  0  0  0  0  0  0
   44.2272    9.3069   10.4802 H   0  0  0  0  0  0  0  0  0  0  0  0
   47.6404   13.8178   12.6104 H   0  0  0  0  0  0  0  0  0  0  0  0
   40.4455   13.4171   11.9654 H   0  0  0  0  0  0  0  0  0  0  0  0
   38.7206   13.0824   12.0891 H   0  0  0  0  0  0  0  0  0  0  0  0
   39.8200   12.4674   13.3264 H   0  0  0  0  0  0  0  0  0  0  0  0
   37.7741   10.8065   11.6694 H   0  0  0  0  0  0  0  0  0  0  0  0
   38.8168   10.1500   12.9354 H   0  0  0  0  0  0  0  0  0  0  0  0
   38.8281    9.4335   11.3142 H   0  0  0  0  0  0  0  0  0  0  0  0
   40.4575   12.3724    9.5894 H   0  0  0  0  0  0  0  0  0  0  0  0
   38.7322   12.0564    9.7279 H   0  0  0  0  0  0  0  0  0  0  0  0
   39.8340   10.7318    9.3472 H   0  0  0  0  0  0  0  0  0  0  0  0
   45.7504   12.1525   11.8758 H   0  0  0  0  0  0  0  0  0  0  0  0
   41.9319    9.8348   12.2833 H   0  0  0  0  0  0  0  0  0  0  0  0
   42.1995   14.1154   10.7638 H   0  0  0  0  0  0  0  0  0  0  0  0
   41.3495   11.3921    8.4137 H   0  0  0  0  0  0  0  0  0  0  0  0
   43.6922   13.1804    9.1452 H   0  0  0  0  0  0  0  0  0  0  0  0
   43.8425   10.6210    9.4369 H   0  0  0  0  0  0  0  0  0  0  0  0
 10  3  1  0
 11  4  1  0
 12  1  1  0
 10 13  1  0
 14 12  1  0
 15  7  1  0
 16  7  1  0
 17  7  1  0
  6  8  1  0
  2  1  2  0
  3  2  1  0
  4  1  1  0
  5  9  1  0
  6  3  2  0
  7  5  1  0
  8  4  2  0
  9 10  1  0
 27 20  1  0
 28 21  1  0
 29 18  1  0
 27 30  1  0
 31 29  1  0
 32 24  1  0
 33 24  1  0
 34 24  1  0
 23 25  1  0
 19 18  2  0
 20 19  1  0
 21 18  1  0
 22 26  1  0
 23 20  2  0
 24 22  1  0
 25 21  2  0
 26 27  1  0
 41 36  2  0
 42 39  1  0
 43 40  1  0
 41 35  1  0
 43 44  1  0
 42 43  1  0
 44 37  1  0
 41 42  1  0
 44 38  2  0
  2 45  1  0
  5 46  1  0
  6 47  1  0
  8 48  1  0
  9 49  1  0
  9 50  1  0
 10 51  1  1
 11 52  1  0
 12 53  1  0
 12 54  1  0
 13 55  1  0
 14 56  1  0
 15 57  1  0
 15 58  1  0
 15 59  1  0
 16 60  1  0
 16 61  1  0
 16 62  1  0
 17 63  1  0
 17 64  1  0
 17 65  1  0
 19 66  1  0
 22 67  1  0
 23 68  1  0
 25 69  1  0
 26 70  1  0
 26 71  1  0
 27 72  1  1
 28 73  1  0
 29 74  1  0
 29 75  1  0
 30 76  1  0
 31 77  1  0
 32 78  1  0
 32 79  1  0
 32 80  1  0
 33 81  1  0
 33 82  1  0
 33 83  1  0
 34 84  1  0
 34 85  1  0
 34 86  1  0
 35 87  1  0
 37 88  1  0
 39 89  1  0
 40 90  1  0
 42 91  1  1
 43 92  1  1
M  END
> <Uni-Dock RESULT> 
ENERGY=   -5.682  LOWER_BOUND=    0.000  UPPER_BOUND=    0.000
INTER + INTRA:          -5.682
INTER:                  -5.682
INTRA:                   0.000
UNBOUND:                 0.000

$$$$

     RDKit          3D

 92 91  0  0  0  0  0  0  0  0999 V2000
   48.3740    6.2957   21.5777 C   0  0  0  0  0  0  0  0  0  0  0  0
   48.6649    7.5076   20.9274 C   0  0  0  0  0  0  0  0  0  0  0  0
   48.2543    8.7420   21.4610 C   0  0  0  0  0  0  0  0  0  0  0  0
   47.6625    6.3402   22.7795 C   0  0  0  0  0  0  0  0  0  0  0  0
   47.5146   11.4199   18.8101 N   0  0  0  0  0  0  0  0  0  0  0  0
   47.5523    8.7509   22.6728 C   0  0  0  0  0  0  0  0  0  0  0  0
   48.5662   12.3816   18.4184 C   0  0  0  0  0  0  0  0  0  0  0  0
   47.2553    7.5552   23.3290 C   0  0  0  0  0  0  0  0  0  0  0  0
   47.9174   10.0979   19.3326 C   0  0  0  0  0  0  0  0  0  0  0  0
   48.5636   10.0449   20.7423 C   0  0  2  0  0  0  0  0  0  0  0  0
   47.3590    5.1696   23.4137 O   0  0  0  0  0  0  0  0  0  0  0  0
   48.8137    5.0022   20.9444 C   0  0  0  0  0  0  0  0  0  0  0  0
   49.9870   10.1689   20.6512 O   0  0  0  0  0  0  0  0  0  0  0  0
   48.0837    4.7776   19.7442 O   0  0  0  0  0  0  0  0  0  0  0  0
   49.7501   11.7539   17.6661 C   0  0  0  0  0  0  0  0  0  0  0  0
   49.0575   13.1806   19.6349 C   0  0  0  0  0  0  0  0  0  0  0  0
   47.8825   13.3865   17.4622 C   0  0  0  0  0  0  0  0  0  0  0  0
   48.3774    6.5260   21.8560 C   0  0  0  0  0  0  0  0  0  0  0  0
   48.0655    7.8525   21.5069 C   0  0  0  0  0  0  0  0  0  0  0  0
   47.4909    8.1707   20.2645 C   0  0  0  0  0  0  0  0  0  0  0  0
   48.0853    5.5127   20.9375 C   0  0  0  0  0  0  0  0  0  0  0  0
   47.7398   12.0505   19.9610 N   0  0  0  0  0  0  0  0  0  0  0  0
   47.1906    7.1219   19.3821 C   0  0  0  0  0  0  0  0  0  0  0  0
   48.5421   12.6004   18.8580 C   0  0  0  0  0  0  0  0  0  0  0  0
   47.4906    5.7995   19.7110 C   0  0  0  0  0  0  0  0  0  0  0  0
   48.0781   10.6957   20.4309 C   0  0  0  0  0  0  0  0  0  0  0  0
   47.1464    9.5910   19.8552 C   0  0  2  0  0  0  0  0  0  0  0  0
   48.3916    4.2208   21.2636 O   0  0  0  0  0  0  0  0  0  0  0  0
   49.0161    6.1774   23.1772 C   0  0  0  0  0  0  0  0  0  0  0  0
   45.7903    9.8719   20.2298 O   0  0  0  0  0  0  0  0  0  0  0  0
   49.2975    7.3333   23.9621 O   0  0  0  0  0  0  0  0  0  0  0  0
   49.9766   12.8964   19.3308 C   0  0  0  0  0  0  0  0  0  0  0  0
   47.8830   13.9363   18.4625 C   0  0  0  0  0  0  0  0  0  0  0  0
   48.5752   11.6990   17.6160 C   0  0  0  0  0  0  0  0  0  0  0  0
   48.0984    8.2549   22.0668 O   0  0  0  0  0  0  0  0  0  0  0  0
   49.9615    9.4878   22.0192 O   0  0  0  0  0  0  0  0  0  0  0  0
   47.0938   11.0685   20.9110 O   0  0  0  0  0  0  0  0  0  0  0  0
   46.9275   11.4995   18.7320 O   0  0  0  0  0  0  0  0  0  0  0  0
   49.8577    9.7762   19.2520 O   0  0  0  0  0  0  0  0  0  0  0  0
   47.3723    8.8586   18.0357 O   0  0  0  0  0  0  0  0  0  0  0  0
   49.0473    8.9488   21.4104 C   0  0  0  0  0  0  0  0  0  0  0  0
   48.9148    8.9062   19.8945 C   0  0  1  0  0  0  0  0  0  0  0  0
   47.4962    9.2171   19.4232 C   0  0  1  0  0  0  0  0  0  0  0  0
   47.1570   10.6907   19.6192 C   0  0  0  0  0  0  0  0  0  0  0  0
   49.2130    7.4819   19.9830 H   0  0  0  0  0  0  0  0  0  0  0  0
   46.9215   11.2448   17.9957 H   0  0  0  0  0  0  0  0  0  0  0  0
   47.2259    9.6919   23.1121 H   0  0  0  0  0  0  0  0  0  0  0  0
   46.7025    7.5933   24.2642 H   0  0  0  0  0  0  0  0  0  0  0  0
   46.9772    9.5292   19.3767 H   0  0  0  0  0  0  0  0  0  0  0  0
   48.5417    9.5746   18.5977 H   0  0  0  0  0  0  0  0  0  0  0  0
   48.1974   10.8854   21.3458 H   0  0  0  0  0  0  0  0  0  0  0  0
   46.9098    5.3676   24.2524 H   0  0  0  0  0  0  0  0  0  0  0  0
   49.8811    5.0469   20.7003 H   0  0  0  0  0  0  0  0  0  0  0  0
   48.6635    4.1398   21.5999 H   0  0  0  0  0  0  0  0  0  0  0  0
   50.3675    9.7022   21.4147 H   0  0  0  0  0  0  0  0  0  0  0  0
   47.1639    5.0315   19.9344 H   0  0  0  0  0  0  0  0  0  0  0  0
   50.4311   12.5292   17.2970 H   0  0  0  0  0  0  0  0  0  0  0  0
   50.3432   11.0913   18.3022 H   0  0  0  0  0  0  0  0  0  0  0  0
   49.4100   11.1753   16.8006 H   0  0  0  0  0  0  0  0  0  0  0  0
   49.6519   12.5784   20.3239 H   0  0  0  0  0  0  0  0  0  0  0  0
   48.2144   13.5982   20.1995 H   0  0  0  0  0  0  0  0  0  0  0  0
   49.6899   14.0196   19.3203 H   0  0  0  0  0  0  0  0  0  0  0  0
   47.0126   13.8591   17.9316 H   0  0  0  0  0  0  0  0  0  0  0  0
   47.5414   12.8987   16.5417 H   0  0  0  0  0  0  0  0  0  0  0  0
   48.5713   14.1874   17.1702 H   0  0  0  0  0  0  0  0  0  0  0  0
   48.2820    8.6390   22.2280 H   0  0  0  0  0  0  0  0  0  0  0  0
   46.7423   12.0573   19.7285 H   0  0  0  0  0  0  0  0  0  0  0  0
   46.7173    7.3362   18.4250 H   0  0  0  0  0  0  0  0  0  0  0  0
   47.2493    5.0135   19.0021 H   0  0  0  0  0  0  0  0  0  0  0  0
   47.9374   10.7328   21.5176 H   0  0  0  0  0  0  0  0  0  0  0  0
   49.1300   10.4455   20.2587 H   0  0  0  0  0  0  0  0  0  0  0  0
   47.1829    9.6467   18.7608 H   0  0  0  0  0  0  0  0  0  0  0  0
   48.2512    3.6621   20.4815 H   0  0  0  0  0  0  0  0  0  0  0  0
   49.9643    5.6589   22.9991 H   0  0  0  0  0  0  0  0  0  0  0  0
   48.3497    5.5272   23.7552 H   0  0  0  0  0  0  0  0  0  0  0  0
   45.5973    9.3384   21.0205 H   0  0  0  0  0  0  0  0  0  0  0  0
   49.7254    7.0143   24.7747 H   0  0  0  0  0  0  0  0  0  0  0  0
   50.5290   11.9845   19.5789 H   0  0  0  0  0  0  0  0  0  0  0  0
   50.5424   13.4128   18.5483 H   0  0  0  0  0  0  0  0  0  0  0  0
   49.9759   13.5447   20.2154 H   0  0  0  0  0  0  0  0  0  0  0  0
   48.4390   14.4294   17.6571 H   0  0  0  0  0  0  0  0  0  0  0  0
   47.8481   14.6317   19.3096 H   0  0  0  0  0  0  0  0  0  0  0  0
   46.8556   13.7876   18.1078 H   0  0  0  0  0  0  0  0  0  0  0  0
   49.0805   10.7494   17.8145 H   0  0  0  0  0  0  0  0  0  0  0  0
   49.1148   12.1825   16.7944 H   0  0  0  0  0  0  0  0  0  0  0  0
   47.5646   11.4771   17.2562 H   0  0  0  0  0  0  0  0  0  0  0  0
   48.3257    8.3666   23.0149 H   0  0  0  0  0  0  0  0  0  0  0  0
   46.8568   12.0195   20.8660 H   0  0  0  0  0  0  0  0  0  0  0  0
   50.6632    9.7624   19.8076 H   0  0  0  0  0  0  0  0  0  0  0  0
   47.7550    9.6083   17.5318 H   0  0  0  0  0  0  0  0  0  0  0  0
   49.1906    7.8907   19.5835 H   0  0  0  0  0  0  0  0  0  0  0  0
   46.7448    8.6245   19.9541 H   0  0  0  0  0  0  0  0  0  0  0  0
 10  3  1  0
 11  4  1  0
 12  1  1  0
 10 13  1  0
 14 12  1  0
 15  7  1  0
 16  7  1  0
 17  7  1  0
  6  8  1  0
  2  1  2  0
  3  2  1  0
  4  1  1  0
  5  9  1  0
  6  3  2  0
  7  5  1  0
  8  4  2  0
  9 10  1  0
 27 20  1  0
 28 21  1  0
 29 18  1  0
 27 30  1  0
 31 29  1  0
 32 24  1  0
 33 24  1  0
 34 24  1  0
 23 25  1  0
 19 18  2  0
 20 19  1  0
 21 18  1  0
 22 26  1  0
 23 20  2  0
 24 22  1  0
 25 21  2  0
 26 27  1  0
 41 36  2  0
 42 39  1  0
 43 40  1  0
 41 35  1  0
 43 44  1  0
 42 43  1  0
 44 37  1  0
 41 42  1  0
 44 38  2  0
  2 45  1  0
  5 46  1  0
  6 47  1  0
  8 48  1  0
  9 49  1  0
  9 50  1  0
 10 51  1  1
 11 52  1  0
 12 53  1  0
 12 54  1  0
 13 55  1  0
 14 56  1  0
 15 57  1  0
 15 58  1  0
 15 59  1  0
 16 60  1  0
 16 61  1  0
 16 62  1  0
 17 63  1  0
 17 64  1  0
 17 65  1  0
 19 66  1  0
 22 67  1  0
 23 68  1  0
 25 69  1  0
 26 70  1  0
 26 71  1  0
 27 72  1  1
 28 73  1  0
 29 74  1  0
 29 75  1  0
 30 76  1  0
 31 77  1  0
 32 78  1  0
 32 79  1  0
 32 80  1  0
 33 81  1  0
 33 82  1  0
 33 83  1  0
 34 84  1  0
 34 85  1  0
 34 86  1  0
 35 87  1  0
 37 88  1  0
 39 89  1  0
 40 90  1  0
 42 91  1  1
 43 92  1  1
M  END
> <Uni-Dock RESULT> 
ENERGY=   -5.423  LOWER_BOUND=    9.956  UPPER_BOUND=   12.378
INTER + INTRA:          -5.423
INTER:                  -5.423
INTRA:                   0.000
UNBOUND:                 0.000

$$$$

     RDKit          3D

 92 91  0  0  0  0  0  0  0  0999 V2000
   49.8069    4.0343   17.9678 C   0  0  0  0  0  0  0  0  0  0  0  0
   49.4935    5.1756   18.7264 C   0  0  0  0  0  0  0  0  0  0  0  0
   48.2297    5.7862   18.6426 C   0  0  0  0  0  0  0  0  0  0  0  0
   48.8277    3.5100   17.1200 C   0  0  0  0  0  0  0  0  0  0  0  0
   48.2883    9.5816   19.2239 N   0  0  0  0  0  0  0  0  0  0  0  0
   47.2681    5.2283   17.7909 C   0  0  0  0  0  0  0  0  0  0  0  0
   48.0297   10.1260   20.5733 C   0  0  0  0  0  0  0  0  0  0  0  0
   47.5657    4.0960   17.0307 C   0  0  0  0  0  0  0  0  0  0  0  0
   48.8381    8.2157   19.1005 C   0  0  0  0  0  0  0  0  0  0  0  0
   47.9066    7.0274   19.4580 C   0  0  2  0  0  0  0  0  0  0  0  0
   49.1238    2.4112   16.3652 O   0  0  0  0  0  0  0  0  0  0  0  0
   51.1864    3.4403   18.0766 C   0  0  0  0  0  0  0  0  0  0  0  0
   48.0301    6.6870   20.8432 O   0  0  0  0  0  0  0  0  0  0  0  0
   52.1436    4.3330   17.5193 O   0  0  0  0  0  0  0  0  0  0  0  0
   49.1204    9.8028   21.6065 C   0  0  0  0  0  0  0  0  0  0  0  0
   46.6493    9.6874   21.0849 C   0  0  0  0  0  0  0  0  0  0  0  0
   47.9835   11.6627   20.4052 C   0  0  0  0  0  0  0  0  0  0  0  0
   49.4483    4.0027   17.9978 C   0  0  0  0  0  0  0  0  0  0  0  0
   48.7777    5.2259   18.1793 C   0  0  0  0  0  0  0  0  0  0  0  0
   49.4148    6.4563   17.9446 C   0  0  0  0  0  0  0  0  0  0  0  0
   50.7750    4.0334   17.5566 C   0  0  0  0  0  0  0  0  0  0  0  0
   47.0433    9.1642   19.4445 N   0  0  0  0  0  0  0  0  0  0  0  0
   50.7383    6.4420   17.4787 C   0  0  0  0  0  0  0  0  0  0  0  0
   47.5581    9.9893   20.5476 C   0  0  0  0  0  0  0  0  0  0  0  0
   51.4198    5.2390   17.2906 C   0  0  0  0  0  0  0  0  0  0  0  0
   47.6473    7.8332   19.2591 C   0  0  0  0  0  0  0  0  0  0  0  0
   48.7218    7.7930   18.1349 C   0  0  2  0  0  0  0  0  0  0  0  0
   51.4385    2.8504   17.3844 O   0  0  0  0  0  0  0  0  0  0  0  0
   48.7803    2.6780   18.2701 C   0  0  0  0  0  0  0  0  0  0  0  0
   48.1244    8.1932   16.8935 O   0  0  0  0  0  0  0  0  0  0  0  0
   47.4541    2.8348   18.7678 O   0  0  0  0  0  0  0  0  0  0  0  0
   47.1542    9.3866   21.9050 C   0  0  0  0  0  0  0  0  0  0  0  0
   46.8809   11.3674   20.4150 C   0  0  0  0  0  0  0  0  0  0  0  0
   49.0780   10.1983   20.4985 C   0  0  0  0  0  0  0  0  0  0  0  0
   48.0999    5.1128   18.2449 O   0  0  0  0  0  0  0  0  0  0  0  0
   47.4867    5.3349   20.3822 O   0  0  0  0  0  0  0  0  0  0  0  0
   46.9474    8.0986   18.3770 O   0  0  0  0  0  0  0  0  0  0  0  0
   48.2338    9.8859   18.7125 O   0  0  0  0  0  0  0  0  0  0  0  0
   49.3057    7.3951   20.8275 O   0  0  0  0  0  0  0  0  0  0  0  0
   50.5690    8.4318   18.4135 O   0  0  0  0  0  0  0  0  0  0  0  0
   48.2054    5.6885   19.4575 C   0  0  0  0  0  0  0  0  0  0  0  0
   49.3298    6.7088   19.5676 C   0  0  1  0  0  0  0  0  0  0  0  0
   49.3246    7.7104   18.4153 C   0  0  1  0  0  0  0  0  0  0  0  0
   48.1534    8.6802   18.5285 C   0  0  0  0  0  0  0  0  0  0  0  0
   50.2556    5.5976   19.3852 H   0  0  0  0  0  0  0  0  0  0  0  0
   48.9436   10.2053   18.7472 H   0  0  0  0  0  0  0  0  0  0  0  0
   46.2796    5.6768   17.7091 H   0  0  0  0  0  0  0  0  0  0  0  0
   46.8014    3.6900   16.3729 H   0  0  0  0  0  0  0  0  0  0  0  0
   49.0967    8.1260   18.0354 H   0  0  0  0  0  0  0  0  0  0  0  0
   49.7903    8.1407   19.6402 H   0  0  0  0  0  0  0  0  0  0  0  0
   46.8619    7.3135   19.2808 H   0  0  0  0  0  0  0  0  0  0  0  0
   48.3325    2.1407   15.8703 H   0  0  0  0  0  0  0  0  0  0  0  0
   51.4401    3.2692   19.1288 H   0  0  0  0  0  0  0  0  0  0  0  0
   51.2741    2.4812   17.5584 H   0  0  0  0  0  0  0  0  0  0  0  0
   47.8242    5.7405   20.9280 H   0  0  0  0  0  0  0  0  0  0  0  0
   51.7424    4.6891   16.7075 H   0  0  0  0  0  0  0  0  0  0  0  0
   48.9344   10.3337   22.5470 H   0  0  0  0  0  0  0  0  0  0  0  0
   49.1609    8.7375   21.8494 H   0  0  0  0  0  0  0  0  0  0  0  0
   50.1102   10.1049   21.2481 H   0  0  0  0  0  0  0  0  0  0  0  0
   46.6105    8.6270   21.3394 H   0  0  0  0  0  0  0  0  0  0  0  0
   45.8714    9.8789   20.3352 H   0  0  0  0  0  0  0  0  0  0  0  0
   46.3757   10.2412   21.9911 H   0  0  0  0  0  0  0  0  0  0  0  0
   47.2353   11.9631   19.6632 H   0  0  0  0  0  0  0  0  0  0  0  0
   48.9522   12.0622   20.0835 H   0  0  0  0  0  0  0  0  0  0  0  0
   47.7245   12.1571   21.3485 H   0  0  0  0  0  0  0  0  0  0  0  0
   47.7410    5.2002   18.5109 H   0  0  0  0  0  0  0  0  0  0  0  0
   47.1103    9.6615   18.5516 H   0  0  0  0  0  0  0  0  0  0  0  0
   51.2470    7.3797   17.2596 H   0  0  0  0  0  0  0  0  0  0  0  0
   52.4448    5.2654   16.9340 H   0  0  0  0  0  0  0  0  0  0  0  0
   46.8136    7.1862   18.9617 H   0  0  0  0  0  0  0  0  0  0  0  0
   48.0460    7.4227   20.1926 H   0  0  0  0  0  0  0  0  0  0  0  0
   49.4882    8.5424   18.3653 H   0  0  0  0  0  0  0  0  0  0  0  0
   52.3736    3.0428   17.2054 H   0  0  0  0  0  0  0  0  0  0  0  0
   49.3541    2.1276   19.0234 H   0  0  0  0  0  0  0  0  0  0  0  0
   48.7305    2.0875   17.3483 H   0  0  0  0  0  0  0  0  0  0  0  0
   47.8870    7.3789   16.4165 H   0  0  0  0  0  0  0  0  0  0  0  0
   47.1173    1.9384   18.9353 H   0  0  0  0  0  0  0  0  0  0  0  0
   47.6427    8.4256   22.0950 H   0  0  0  0  0  0  0  0  0  0  0  0
   47.4340   10.0575   22.7241 H   0  0  0  0  0  0  0  0  0  0  0  0
   46.0697    9.2342   21.9634 H   0  0  0  0  0  0  0  0  0  0  0  0
   47.1921   12.0412   21.2212 H   0  0  0  0  0  0  0  0  0  0  0  0
   45.7887   11.2829   20.4622 H   0  0  0  0  0  0  0  0  0  0  0  0
   47.1391   11.8519   19.4652 H   0  0  0  0  0  0  0  0  0  0  0  0
   49.6236    9.2610   20.6407 H   0  0  0  0  0  0  0  0  0  0  0  0
   49.4060   10.8821   21.2890 H   0  0  0  0  0  0  0  0  0  0  0  0
   49.3911   10.6316   19.5424 H   0  0  0  0  0  0  0  0  0  0  0  0
   47.3536    4.4824   18.3378 H   0  0  0  0  0  0  0  0  0  0  0  0
   46.3151    8.8442   18.4611 H   0  0  0  0  0  0  0  0  0  0  0  0
   48.9881    6.7443   21.4859 H   0  0  0  0  0  0  0  0  0  0  0  0
   50.4694    9.1363   19.0890 H   0  0  0  0  0  0  0  0  0  0  0  0
   50.2697    6.1427   19.5578 H   0  0  0  0  0  0  0  0  0  0  0  0
   49.2620    7.2183   17.4398 H   0  0  0  0  0  0  0  0  0  0  0  0
 10  3  1  0
 11  4  1  0
 12  1  1  0
 10 13  1  0
 14 12  1  0
 15  7  1  0
 16  7  1  0
 17  7  1  0
  6  8  1  0
  2  1  2  0
  3  2  1  0
  4  1  1  0
  5  9  1  0
  6  3  2  0
  7  5  1  0
  8  4  2  0
  9 10  1  0
 27 20  1  0
 28 21  1  0
 29 18  1  0
 27 30  1  0
 31 29  1  0
 32 24  1  0
 33 24  1  0
 34 24  1  0
 23 25  1  0
 19 18  2  0
 20 19  1  0
 21 18  1  0
 22 26  1  0
 23 20  2  0
 24 22  1  0
 25 21  2  0
 26 27  1  0
 41 36  2  0
 42 39  1  0
 43 40  1  0
 41 35  1  0
 43 44  1  0
 42 43  1  0
 44 37  1  0
 41 42  1  0
 44 38  2  0
  2 45  1  0
  5 46  1  0
  6 47  1  0
  8 48  1  0
  9 49  1  0
  9 50  1  0
 10 51  1  1
 11 52  1  0
 12 53  1  0
 12 54  1  0
 13 55  1  0
 14 56  1  0
 15 57  1  0
 15 58  1  0
 15 59  1  0
 16 60  1  0
 16 61  1  0
 16 62  1  0
 17 63  1  0
 17 64  1  0
 17 65  1  0
 19 66  1  0
 22 67  1  0
 23 68  1  0
 25 69  1  0
 26 70  1  0
 26 71  1  0
 27 72  1  1
 28 73  1  0
 29 74  1  0
 29 75  1  0
 30 76  1  0
 31 77  1  0
 32 78  1  0
 32 79  1  0
 32 80  1  0
 33 81  1  0
 33 82  1  0
 33 83  1  0
 34 84  1  0
 34 85  1  0
 34 86  1  0
 35 87  1  0
 37 88  1  0
 39 89  1  0
 40 90  1  0
 42 91  1  1
 43 92  1  1
M  END
> <Uni-Dock RESULT> 
ENERGY=   -5.073  LOWER_BOUND=   10.123  UPPER_BOUND=   12.008
INTER + INTRA:          -5.073
INTER:                  -5.073
INTRA:                   0.000
UNBOUND:                 0.000

$$$$

     RDKit          3D

 92 91  0  0  0  0  0  0  0  0999 V2000
   48.8641   10.7375   20.5009 C   0  0  0  0  0  0  0  0  0  0  0  0
   48.9157    9.5346   19.7753 C   0  0  0  0  0  0  0  0  0  0  0  0
   47.7445    8.8397   19.4252 C   0  0  0  0  0  0  0  0  0  0  0  0
   47.6129   11.2375   20.8711 C   0  0  0  0  0  0  0  0  0  0  0  0
   48.1919    5.0314   19.2185 N   0  0  0  0  0  0  0  0  0  0  0  0
   46.5066    9.3746   19.8030 C   0  0  0  0  0  0  0  0  0  0  0  0
   48.4926    4.3926   17.9202 C   0  0  0  0  0  0  0  0  0  0  0  0
   46.4402   10.5675   20.5248 C   0  0  0  0  0  0  0  0  0  0  0  0
   48.5907    6.4384   19.4292 C   0  0  0  0  0  0  0  0  0  0  0  0
   47.8135    7.5334   18.6516 C   0  0  2  0  0  0  0  0  0  0  0  0
   47.5487   12.3966   21.5901 O   0  0  0  0  0  0  0  0  0  0  0  0
   50.1524   11.4228   20.8729 C   0  0  0  0  0  0  0  0  0  0  0  0
   48.4406    7.8013   17.3927 O   0  0  0  0  0  0  0  0  0  0  0  0
   50.8638   10.6356   21.8205 O   0  0  0  0  0  0  0  0  0  0  0  0
   49.8791    4.7339   17.3524 C   0  0  0  0  0  0  0  0  0  0  0  0
   47.3935    4.6996   16.8919 C   0  0  0  0  0  0  0  0  0  0  0  0
   48.4552    2.8689   18.1823 C   0  0  0  0  0  0  0  0  0  0  0  0
   48.5430   10.7412   20.3353 C   0  0  0  0  0  0  0  0  0  0  0  0
   48.0485    9.4642   20.0140 C   0  0  0  0  0  0  0  0  0  0  0  0
   48.6027    8.2989   20.5706 C   0  0  0  0  0  0  0  0  0  0  0  0
   49.6010   10.8325   21.2455 C   0  0  0  0  0  0  0  0  0  0  0  0
   47.1077    5.3439   18.5115 N   0  0  0  0  0  0  0  0  0  0  0  0
   49.6462    8.4360   21.4986 C   0  0  0  0  0  0  0  0  0  0  0  0
   48.0412    4.4960   17.7549 C   0  0  0  0  0  0  0  0  0  0  0  0
   50.1492    9.6942   21.8318 C   0  0  0  0  0  0  0  0  0  0  0  0
   47.5346    6.7237   18.8026 C   0  0  0  0  0  0  0  0  0  0  0  0
   48.0959    6.9066   20.2418 C   0  0  2  0  0  0  0  0  0  0  0  0
   50.0945   12.0685   21.5588 O   0  0  0  0  0  0  0  0  0  0  0  0
   47.9704   11.9960   19.7248 C   0  0  0  0  0  0  0  0  0  0  0  0
   47.0887    6.5365   21.1941 O   0  0  0  0  0  0  0  0  0  0  0  0
   46.9430   11.7149   18.7780 O   0  0  0  0  0  0  0  0  0  0  0  0
   48.1590    4.9884   16.3014 C   0  0  0  0  0  0  0  0  0  0  0  0
   47.4276    3.0823   17.7334 C   0  0  0  0  0  0  0  0  0  0  0  0
   49.4352    4.4010   18.3906 C   0  0  0  0  0  0  0  0  0  0  0  0
   47.4426    9.5238   19.6885 O   0  0  0  0  0  0  0  0  0  0  0  0
   47.7020    9.1347   17.5035 O   0  0  0  0  0  0  0  0  0  0  0  0
   46.5638    6.4596   19.3738 O   0  0  0  0  0  0  0  0  0  0  0  0
   47.9602    4.7540   19.6944 O   0  0  0  0  0  0  0  0  0  0  0  0
   49.6443    7.1897   17.9459 O   0  0  0  0  0  0  0  0  0  0  0  0
   49.9364    6.3885   20.7335 O   0  0  0  0  0  0  0  0  0  0  0  0
   48.0287    8.8881   18.6564 C   0  0  0  0  0  0  0  0  0  0  0  0
   49.1548    7.9475   19.0616 C   0  0  1  0  0  0  0  0  0  0  0  0
   48.7556    7.0164   20.2039 C   0  0  1  0  0  0  0  0  0  0  0  0
   47.7613    5.9593   19.7361 C   0  0  0  0  0  0  0  0  0  0  0  0
   49.8898    9.1317   19.4892 H   0  0  0  0  0  0  0  0  0  0  0  0
   48.6432    4.4854   19.9561 H   0  0  0  0  0  0  0  0  0  0  0  0
   45.5830    8.8611   19.5417 H   0  0  0  0  0  0  0  0  0  0  0  0
   45.4653   10.9543   20.8104 H   0  0  0  0  0  0  0  0  0  0  0  0
   48.4191    6.6080   20.5020 H   0  0  0  0  0  0  0  0  0  0  0  0
   49.6724    6.5510   19.2844 H   0  0  0  0  0  0  0  0  0  0  0  0
   46.7943    7.1829   18.4442 H   0  0  0  0  0  0  0  0  0  0  0  0
   46.6170   12.6371   21.7263 H   0  0  0  0  0  0  0  0  0  0  0  0
   50.7804   11.5508   19.9840 H   0  0  0  0  0  0  0  0  0  0  0  0
   49.9924   12.4140   21.3063 H   0  0  0  0  0  0  0  0  0  0  0  0
   48.2401    8.7238   17.1601 H   0  0  0  0  0  0  0  0  0  0  0  0
   50.1997   10.2988   22.4469 H   0  0  0  0  0  0  0  0  0  0  0  0
   50.0903    4.1375   16.4575 H   0  0  0  0  0  0  0  0  0  0  0  0
   49.9611    5.7836   17.0572 H   0  0  0  0  0  0  0  0  0  0  0  0
   50.6699    4.5257   18.0809 H   0  0  0  0  0  0  0  0  0  0  0  0
   47.4069    5.7379   16.5566 H   0  0  0  0  0  0  0  0  0  0  0  0
   46.3979    4.4958   17.3055 H   0  0  0  0  0  0  0  0  0  0  0  0
   47.5117    4.0760   15.9975 H   0  0  0  0  0  0  0  0  0  0  0  0
   47.4949    2.5584   18.6089 H   0  0  0  0  0  0  0  0  0  0  0  0
   49.2448    2.5600   18.8770 H   0  0  0  0  0  0  0  0  0  0  0  0
   48.5983    2.3034   17.2544 H   0  0  0  0  0  0  0  0  0  0  0  0
   47.2167    9.3954   19.3148 H   0  0  0  0  0  0  0  0  0  0  0  0
   46.8514    4.9051   19.4007 H   0  0  0  0  0  0  0  0  0  0  0  0
   50.0745    7.5519   21.9687 H   0  0  0  0  0  0  0  0  0  0  0  0
   50.9607    9.7629   22.5496 H   0  0  0  0  0  0  0  0  0  0  0  0
   46.6221    7.3246   18.7100 H   0  0  0  0  0  0  0  0  0  0  0  0
   48.2403    7.1074   18.0586 H   0  0  0  0  0  0  0  0  0  0  0  0
   48.9252    6.2027   20.3792 H   0  0  0  0  0  0  0  0  0  0  0  0
   50.8982   11.9551   22.0923 H   0  0  0  0  0  0  0  0  0  0  0  0
   48.7627   12.5422   19.2018 H   0  0  0  0  0  0  0  0  0  0  0  0
   47.5461   12.6336   20.5086 H   0  0  0  0  0  0  0  0  0  0  0  0
   46.6508    7.3576   21.4787 H   0  0  0  0  0  0  0  0  0  0  0  0
   46.6554   12.5733   18.4237 H   0  0  0  0  0  0  0  0  0  0  0  0
   48.6391    5.9697   16.2325 H   0  0  0  0  0  0  0  0  0  0  0  0
   48.7601    4.2933   15.7057 H   0  0  0  0  0  0  0  0  0  0  0  0
   47.1731    5.0580   15.8260 H   0  0  0  0  0  0  0  0  0  0  0  0
   48.0529    2.3875   17.1616 H   0  0  0  0  0  0  0  0  0  0  0  0
   46.4334    3.0845   17.2709 H   0  0  0  0  0  0  0  0  0  0  0  0
   47.3255    2.6735   18.7462 H   0  0  0  0  0  0  0  0  0  0  0  0
   49.9507    5.3657   18.3893 H   0  0  0  0  0  0  0  0  0  0  0  0
   50.0705    3.6983   17.8404 H   0  0  0  0  0  0  0  0  0  0  0  0
   49.3790    4.0475   19.4259 H   0  0  0  0  0  0  0  0  0  0  0  0
   46.7605   10.0920   19.2702 H   0  0  0  0  0  0  0  0  0  0  0  0
   46.0458    5.6665   19.1180 H   0  0  0  0  0  0  0  0  0  0  0  0
   49.5729    7.7766   17.1659 H   0  0  0  0  0  0  0  0  0  0  0  0
   50.1340    5.6408   20.1299 H   0  0  0  0  0  0  0  0  0  0  0  0
   49.9933    8.5799   19.3795 H   0  0  0  0  0  0  0  0  0  0  0  0
   48.3034    7.5582   21.0404 H   0  0  0  0  0  0  0  0  0  0  0  0
 10  3  1  0
 11  4  1  0
 12  1  1  0
 10 13  1  0
 14 12  1  0
 15  7  1  0
 16  7  1  0
 17  7  1  0
  6  8  1  0
  2  1  2  0
  3  2  1  0
  4  1  1  0
  5  9  1  0
  6  3  2  0
  7  5  1  0
  8  4  2  0
  9 10  1  0
 27 20  1  0
 28 21  1  0
 29 18  1  0
 27 30  1  0
 31 29  1  0
 32 24  1  0
 33 24  1  0
 34 24  1  0
 23 25  1  0
 19 18  2  0
 20 19  1  0
 21 18  1  0
 22 26  1  0
 23 20  2  0
 24 22  1  0
 25 21  2  0
 26 27  1  0
 41 36  2  0
 42 39  1  0
 43 40  1  0
 41 35  1  0
 43 44  1  0
 42 43  1  0
 44 37  1  0
 41 42  1  0
 44 38  2  0
  2 45  1  0
  5 46  1  0
  6 47  1  0
  8 48  1  0
  9 49  1  0
  9 50  1  0
 10 51  1  1
 11 52  1  0
 12 53  1  0
 12 54  1  0
 13 55  1  0
 14 56  1  0
 15 57  1  0
 15 58  1  0
 15 59  1  0
 16 60  1  0
 16 61  1  0
 16 62  1  0
 17 63  1  0
 17 64  1  0
 17 65  1  0
 19 66  1  0
 22 67  1  0
 23 68  1  0
 25 69  1  0
 26 70  1  0
 26 71  1  0
 27 72  1  1
 28 73  1  0
 29 74  1  0
 29 75  1  0
 30 76  1  0
 31 77  1  0
 32 78  1  0
 32 79  1  0
 32 80  1  0
 33 81  1  0
 33 82  1  0
 33 83  1  0
 34 84  1  0
 34 85  1  0
 34 86  1  0
 35 87  1  0
 37 88  1  0
 39 89  1  0
 40 90  1  0
 42 91  1  1
 43 92  1  1
M  END
> <Uni-Dock RESULT> 
ENERGY=   -5.002  LOWER_BOUND=   10.027  UPPER_BOUND=   11.908
INTER + INTRA:          -5.002
INTER:                  -5.002
INTRA:                   0.000
UNBOUND:                 0.000

$$$$

     RDKit          3D

 92 91  0  0  0  0  0  0  0  0999 V2000
   47.4477    9.5560   20.7334 C   0  0  0  0  0  0  0  0  0  0  0  0
   47.4034    8.3077   20.0884 C   0  0  0  0  0  0  0  0  0  0  0  0
   48.2843    7.2698   20.4405 C   0  0  0  0  0  0  0  0  0  0  0  0
   48.3930    9.7489   21.7443 C   0  0  0  0  0  0  0  0  0  0  0  0
   49.1864    4.9334   17.5296 N   0  0  0  0  0  0  0  0  0  0  0  0
   49.2122    7.4936   21.4654 C   0  0  0  0  0  0  0  0  0  0  0  0
   48.4214    3.6865   17.3192 C   0  0  0  0  0  0  0  0  0  0  0  0
   49.2684    8.7285   22.1137 C   0  0  0  0  0  0  0  0  0  0  0  0
   48.5268    6.0673   18.2095 C   0  0  0  0  0  0  0  0  0  0  0  0
   48.2355    5.9287   19.7273 C   0  0  2  0  0  0  0  0  0  0  0  0
   48.4580   10.9617   22.3682 O   0  0  0  0  0  0  0  0  0  0  0  0
   46.4990   10.6398   20.2944 C   0  0  0  0  0  0  0  0  0  0  0  0
   46.9380    5.3634   19.9437 O   0  0  0  0  0  0  0  0  0  0  0  0
   46.8302   11.0704   18.9796 O   0  0  0  0  0  0  0  0  0  0  0  0
   46.9630    3.9035   16.8863 C   0  0  0  0  0  0  0  0  0  0  0  0
   48.4912    2.7856   18.5615 C   0  0  0  0  0  0  0  0  0  0  0  0
   49.1439    2.9376   16.1752 C   0  0  0  0  0  0  0  0  0  0  0  0
   47.5790    9.3390   20.9907 C   0  0  0  0  0  0  0  0  0  0  0  0
   48.1955    8.1741   20.4993 C   0  0  0  0  0  0  0  0  0  0  0  0
   48.5406    8.0400   19.1436 C   0  0  0  0  0  0  0  0  0  0  0  0
   47.3274   10.3837   20.0957 C   0  0  0  0  0  0  0  0  0  0  0  0
   49.4352    4.2753   18.6601 N   0  0  0  0  0  0  0  0  0  0  0  0
   48.2938    9.1213   18.2841 C   0  0  0  0  0  0  0  0  0  0  0  0
   48.6114    3.4906   17.7282 C   0  0  0  0  0  0  0  0  0  0  0  0
   47.6849   10.2860   18.7530 C   0  0  0  0  0  0  0  0  0  0  0  0
   48.8130    5.4601   19.2767 C   0  0  0  0  0  0  0  0  0  0  0  0
   49.2023    6.7957   18.5806 C   0  0  2  0  0  0  0  0  0  0  0  0
   46.7213   11.5174   20.5613 O   0  0  0  0  0  0  0  0  0  0  0  0
   47.1834    9.4825   22.4392 C   0  0  0  0  0  0  0  0  0  0  0  0
   50.6269    6.9582   18.6296 O   0  0  0  0  0  0  0  0  0  0  0  0
   47.4583    8.3045   23.1928 O   0  0  0  0  0  0  0  0  0  0  0  0
   47.4854    2.7641   18.4853 C   0  0  0  0  0  0  0  0  0  0  0  0
   49.5409    2.4252   17.1147 C   0  0  0  0  0  0  0  0  0  0  0  0
   48.0199    4.3238   16.5828 C   0  0  0  0  0  0  0  0  0  0  0  0
   48.4168    7.7871   21.0264 O   0  0  0  0  0  0  0  0  0  0  0  0
   47.0643    6.0315   21.3124 O   0  0  0  0  0  0  0  0  0  0  0  0
   49.9465    5.4198   19.5045 O   0  0  0  0  0  0  0  0  0  0  0  0
   49.7353    5.0413   17.3195 O   0  0  0  0  0  0  0  0  0  0  0  0
   46.6172    5.7631   18.5776 O   0  0  0  0  0  0  0  0  0  0  0  0
   48.3529    7.4022   16.9047 O   0  0  0  0  0  0  0  0  0  0  0  0
   47.6039    6.8241   20.5525 C   0  0  0  0  0  0  0  0  0  0  0  0
   47.3671    6.8913   19.0503 C   0  0  1  0  0  0  0  0  0  0  0  0
   48.6656    7.0367   18.2603 C   0  0  1  0  0  0  0  0  0  0  0  0
   49.4770    5.7459   18.2844 C   0  0  0  0  0  0  0  0  0  0  0  0
   46.6736    8.1508   19.2911 H   0  0  0  0  0  0  0  0  0  0  0  0
   49.4944    5.2778   16.6173 H   0  0  0  0  0  0  0  0  0  0  0  0
   49.9035    6.7069   21.7625 H   0  0  0  0  0  0  0  0  0  0  0  0
   50.0043    8.8750   22.9003 H   0  0  0  0  0  0  0  0  0  0  0  0
   49.2304    6.9027   18.0814 H   0  0  0  0  0  0  0  0  0  0  0  0
   47.6213    6.3609   17.6640 H   0  0  0  0  0  0  0  0  0  0  0  0
   48.9701    5.2516   20.1817 H   0  0  0  0  0  0  0  0  0  0  0  0
   49.1253   10.9230   23.0737 H   0  0  0  0  0  0  0  0  0  0  0  0
   45.4711   10.2600   20.2886 H   0  0  0  0  0  0  0  0  0  0  0  0
   46.5220   11.5123   20.9535 H   0  0  0  0  0  0  0  0  0  0  0  0
   46.6173    5.6945   20.7997 H   0  0  0  0  0  0  0  0  0  0  0  0
   47.8014   11.1198   18.9467 H   0  0  0  0  0  0  0  0  0  0  0  0
   46.4883    2.9500   16.6281 H   0  0  0  0  0  0  0  0  0  0  0  0
   46.3565    4.3527   17.6774 H   0  0  0  0  0  0  0  0  0  0  0  0
   46.9015    4.5510   16.0052 H   0  0  0  0  0  0  0  0  0  0  0  0
   47.9142    3.1776   19.4006 H   0  0  0  0  0  0  0  0  0  0  0  0
   49.5273    2.6593   18.8998 H   0  0  0  0  0  0  0  0  0  0  0  0
   48.0934    1.7875   18.3418 H   0  0  0  0  0  0  0  0  0  0  0  0
   50.2000    2.7664   16.4114 H   0  0  0  0  0  0  0  0  0  0  0  0
   49.0987    3.4987   15.2346 H   0  0  0  0  0  0  0  0  0  0  0  0
   48.6874    1.9581   15.9922 H   0  0  0  0  0  0  0  0  0  0  0  0
   48.4021    7.3665   21.1997 H   0  0  0  0  0  0  0  0  0  0  0  0
   50.3055    4.5796   18.2141 H   0  0  0  0  0  0  0  0  0  0  0  0
   48.5784    9.0570   17.2349 H   0  0  0  0  0  0  0  0  0  0  0  0
   47.5041   11.1010   18.0590 H   0  0  0  0  0  0  0  0  0  0  0  0
   49.2025    5.4797   20.3014 H   0  0  0  0  0  0  0  0  0  0  0  0
   47.7251    5.3658   19.3558 H   0  0  0  0  0  0  0  0  0  0  0  0
   48.9359    6.7205   17.5197 H   0  0  0  0  0  0  0  0  0  0  0  0
   46.5006   12.0842   19.8040 H   0  0  0  0  0  0  0  0  0  0  0  0
   46.1073    9.6755   22.5065 H   0  0  0  0  0  0  0  0  0  0  0  0
   47.7309   10.3147   22.8960 H   0  0  0  0  0  0  0  0  0  0  0  0
   50.8215    7.5330   19.3904 H   0  0  0  0  0  0  0  0  0  0  0  0
   47.1503    8.4811   24.0979 H   0  0  0  0  0  0  0  0  0  0  0  0
   46.7512    3.4589   18.9053 H   0  0  0  0  0  0  0  0  0  0  0  0
   46.9430    2.0885   17.8155 H   0  0  0  0  0  0  0  0  0  0  0  0
   47.8875    2.1574   19.3058 H   0  0  0  0  0  0  0  0  0  0  0  0
   48.9952    1.7747   16.4220 H   0  0  0  0  0  0  0  0  0  0  0  0
   49.9805    1.7843   17.8883 H   0  0  0  0  0  0  0  0  0  0  0  0
   50.3632    2.8853   16.5530 H   0  0  0  0  0  0  0  0  0  0  0  0
   47.3064    5.0688   16.9464 H   0  0  0  0  0  0  0  0  0  0  0  0
   47.4827    3.6874   15.8712 H   0  0  0  0  0  0  0  0  0  0  0  0
   48.8030    4.8481   16.0243 H   0  0  0  0  0  0  0  0  0  0  0  0
   48.4576    7.6191   21.9924 H   0  0  0  0  0  0  0  0  0  0  0  0
   50.4478    4.5907   19.3491 H   0  0  0  0  0  0  0  0  0  0  0  0
   45.9957    5.5288   19.2965 H   0  0  0  0  0  0  0  0  0  0  0  0
   48.1151    6.5654   16.4513 H   0  0  0  0  0  0  0  0  0  0  0  0
   46.7289    7.7658   18.8717 H   0  0  0  0  0  0  0  0  0  0  0  0
   49.2985    7.8403   18.6491 H   0  0  0  0  0  0  0  0  0  0  0  0
 10  3  1  0
 11  4  1  0
 12  1  1  0
 10 13  1  0
 14 12  1  0
 15  7  1  0
 16  7  1  0
 17  7  1  0
  6  8  1  0
  2  1  2  0
  3  2  1  0
  4  1  1  0
  5  9  1  0
  6  3  2  0
  7  5  1  0
  8  4  2  0
  9 10  1  0
 27 20  1  0
 28 21  1  0
 29 18  1  0
 27 30  1  0
 31 29  1  0
 32 24  1  0
 33 24  1  0
 34 24  1  0
 23 25  1  0
 19 18  2  0
 20 19  1  0
 21 18  1  0
 22 26  1  0
 23 20  2  0
 24 22  1  0
 25 21  2  0
 26 27  1  0
 41 36  2  0
 42 39  1  0
 43 40  1  0
 41 35  1  0
 43 44  1  0
 42 43  1  0
 44 37  1  0
 41 42  1  0
 44 38  2  0
  2 45  1  0
  5 46  1  0
  6 47  1  0
  8 48  1  0
  9 49  1  0
  9 50  1  0
 10 51  1  1
 11 52  1  0
 12 53  1  0
 12 54  1  0
 13 55  1  0
 14 56  1  0
 15 57  1  0
 15 58  1  0
 15 59  1  0
 16 60  1  0
 16 61  1  0
 16 62  1  0
 17 63  1  0
 17 64  1  0
 17 65  1  0
 19 66  1  0
 22 67  1  0
 23 68  1  0
 25 69  1  0
 26 70  1  0
 26 71  1  0
 27 72  1  1
 28 73  1  0
 29 74  1  0
 29 75  1  0
 30 76  1  0
 31 77  1  0
 32 78  1  0
 32 79  1  0
 32 80  1  0
 33 81  1  0
 33 82  1  0
 33 83  1  0
 34 84  1  0
 34 85  1  0
 34 86  1  0
 35 87  1  0
 37 88  1  0
 39 89  1  0
 40 90  1  0
 42 91  1  1
 43 92  1  1
M  END
> <Uni-Dock RESULT> 
ENERGY=   -4.955  LOWER_BOUND=    9.974  UPPER_BOUND=   12.133
INTER + INTRA:          -4.955
INTER:                  -4.955
INTRA:                   0.000
UNBOUND:                 0.000

$$$$

     RDKit          3D

 92 91  0  0  0  0  0  0  0  0999 V2000
   47.8260   12.5648   19.0401 C   0  0  0  0  0  0  0  0  0  0  0  0
   47.6980   11.1731   19.1911 C   0  0  0  0  0  0  0  0  0  0  0  0
   48.3141   10.4923   20.2560 C   0  0  0  0  0  0  0  0  0  0  0  0
   48.5840   13.2686   19.9796 C   0  0  0  0  0  0  0  0  0  0  0  0
   49.3472    6.8903   19.4163 N   0  0  0  0  0  0  0  0  0  0  0  0
   49.0578   11.2299   21.1856 C   0  0  0  0  0  0  0  0  0  0  0  0
   48.4403    5.7683   19.7366 C   0  0  0  0  0  0  0  0  0  0  0  0
   49.1945   12.6122   21.0475 C   0  0  0  0  0  0  0  0  0  0  0  0
   48.7682    8.2292   19.1814 C   0  0  0  0  0  0  0  0  0  0  0  0
   48.1792    8.9855   20.4016 C   0  0  2  0  0  0  0  0  0  0  0  0
   48.7301   14.6187   19.8362 O   0  0  0  0  0  0  0  0  0  0  0  0
   47.1679   13.2362   17.8638 C   0  0  0  0  0  0  0  0  0  0  0  0
   46.7891    8.6826   20.5615 O   0  0  0  0  0  0  0  0  0  0  0  0
   47.8057   12.8341   16.6574 O   0  0  0  0  0  0  0  0  0  0  0  0
   47.1447    5.7453   18.9105 C   0  0  0  0  0  0  0  0  0  0  0  0
   48.1270    5.7301   21.2400 C   0  0  0  0  0  0  0  0  0  0  0  0
   49.2306    4.4808   19.4056 C   0  0  0  0  0  0  0  0  0  0  0  0
   47.8691   12.5284   19.3970 C   0  0  0  0  0  0  0  0  0  0  0  0
   48.3661   11.2723   19.7892 C   0  0  0  0  0  0  0  0  0  0  0  0
   48.9318   10.3820   18.8606 C   0  0  0  0  0  0  0  0  0  0  0  0
   47.9651   12.8875   18.0488 C   0  0  0  0  0  0  0  0  0  0  0  0
   49.2682    6.9830   20.7423 N   0  0  0  0  0  0  0  0  0  0  0  0
   49.0319   10.7913   17.5222 C   0  0  0  0  0  0  0  0  0  0  0  0
   48.5154    5.8335   20.2182 C   0  0  0  0  0  0  0  0  0  0  0  0
   48.5465   12.0342   17.1139 C   0  0  0  0  0  0  0  0  0  0  0  0
   48.7456    8.3267   20.4381 C   0  0  0  0  0  0  0  0  0  0  0  0
   49.4729    9.0186   19.2498 C   0  0  2  0  0  0  0  0  0  0  0  0
   47.4780   14.1030   17.6554 O   0  0  0  0  0  0  0  0  0  0  0  0
   47.2387   13.4806   20.3823 C   0  0  0  0  0  0  0  0  0  0  0  0
   50.8702    9.1369   19.5533 O   0  0  0  0  0  0  0  0  0  0  0  0
   47.1698   12.9308   21.6954 O   0  0  0  0  0  0  0  0  0  0  0  0
   47.1636    5.6997   20.9417 C   0  0  0  0  0  0  0  0  0  0  0  0
   49.3548    4.5805   20.5358 C   0  0  0  0  0  0  0  0  0  0  0  0
   48.2943    5.8868   18.7001 C   0  0  0  0  0  0  0  0  0  0  0  0
   48.4181   11.2464   20.4771 O   0  0  0  0  0  0  0  0  0  0  0  0
   46.7654   10.0054   21.3267 O   0  0  0  0  0  0  0  0  0  0  0  0
   49.7940    8.3884   20.9233 O   0  0  0  0  0  0  0  0  0  0  0  0
   49.9359    6.8432   19.3251 O   0  0  0  0  0  0  0  0  0  0  0  0
   46.7998    8.2458   19.1694 O   0  0  0  0  0  0  0  0  0  0  0  0
   49.0639    8.5922   17.3661 O   0  0  0  0  0  0  0  0  0  0  0  0
   47.5608   10.2098   20.4199 C   0  0  0  0  0  0  0  0  0  0  0  0
   47.6236    9.4196   19.1203 C   0  0  1  0  0  0  0  0  0  0  0  0
   49.0528    9.0514   18.7291 C   0  0  1  0  0  0  0  0  0  0  0  0
   49.6213    7.9784   19.6514 C   0  0  0  0  0  0  0  0  0  0  0  0
   47.1145   10.6136   18.4566 H   0  0  0  0  0  0  0  0  0  0  0  0
   49.8729    6.6466   18.5738 H   0  0  0  0  0  0  0  0  0  0  0  0
   49.5420   10.7303   22.0228 H   0  0  0  0  0  0  0  0  0  0  0  0
   49.7841   13.1568   21.7806 H   0  0  0  0  0  0  0  0  0  0  0  0
   49.6111    8.8225   18.7984 H   0  0  0  0  0  0  0  0  0  0  0  0
   48.0418    8.1887   18.3602 H   0  0  0  0  0  0  0  0  0  0  0  0
   48.6940    8.6640   21.3161 H   0  0  0  0  0  0  0  0  0  0  0  0
   49.2380   14.9669   20.5880 H   0  0  0  0  0  0  0  0  0  0  0  0
   46.1110   12.9517   17.8113 H   0  0  0  0  0  0  0  0  0  0  0  0
   47.2107   14.3274   17.9233 H   0  0  0  0  0  0  0  0  0  0  0  0
   46.3729    9.4507   20.9884 H   0  0  0  0  0  0  0  0  0  0  0  0
   48.7605   12.8267   16.8444 H   0  0  0  0  0  0  0  0  0  0  0  0
   46.5761    4.8288   19.1047 H   0  0  0  0  0  0  0  0  0  0  0  0
   46.4834    6.5824   19.1503 H   0  0  0  0  0  0  0  0  0  0  0  0
   47.3567    5.7799   17.8366 H   0  0  0  0  0  0  0  0  0  0  0  0
   47.4758    6.5464   21.5567 H   0  0  0  0  0  0  0  0  0  0  0  0
   49.0462    5.7867   21.8363 H   0  0  0  0  0  0  0  0  0  0  0  0
   47.6183    4.7963   21.5083 H   0  0  0  0  0  0  0  0  0  0  0  0
   50.1809    4.4420   19.9495 H   0  0  0  0  0  0  0  0  0  0  0  0
   49.4552    4.4100   18.3350 H   0  0  0  0  0  0  0  0  0  0  0  0
   48.6613    3.5849   19.6787 H   0  0  0  0  0  0  0  0  0  0  0  0
   48.3021   10.9991   20.8413 H   0  0  0  0  0  0  0  0  0  0  0  0
   50.2446    6.9538   20.4345 H   0  0  0  0  0  0  0  0  0  0  0  0
   49.4932   10.1342   16.7864 H   0  0  0  0  0  0  0  0  0  0  0  0
   48.6356   12.3163   16.0694 H   0  0  0  0  0  0  0  0  0  0  0  0
   48.9343    8.9126   21.3455 H   0  0  0  0  0  0  0  0  0  0  0  0
   47.6617    8.3271   20.2836 H   0  0  0  0  0  0  0  0  0  0  0  0
   49.4010    8.3627   18.3742 H   0  0  0  0  0  0  0  0  0  0  0  0
   47.4993   14.1462   16.6853 H   0  0  0  0  0  0  0  0  0  0  0  0
   46.2158   13.7103   20.0650 H   0  0  0  0  0  0  0  0  0  0  0  0
   47.8206   14.4079   20.4314 H   0  0  0  0  0  0  0  0  0  0  0  0
   51.0111   10.0357   19.8988 H   0  0  0  0  0  0  0  0  0  0  0  0
   46.7313   13.5991   22.2488 H   0  0  0  0  0  0  0  0  0  0  0  0
   46.4885    6.5320   20.7187 H   0  0  0  0  0  0  0  0  0  0  0  0
   46.6523    4.7801   20.6379 H   0  0  0  0  0  0  0  0  0  0  0  0
   47.2995    5.6540   22.0290 H   0  0  0  0  0  0  0  0  0  0  0  0
   48.8487    3.6687   20.1993 H   0  0  0  0  0  0  0  0  0  0  0  0
   49.5302    4.4789   21.6135 H   0  0  0  0  0  0  0  0  0  0  0  0
   50.3321    4.6152   20.0387 H   0  0  0  0  0  0  0  0  0  0  0  0
   47.6580    6.7278   18.4098 H   0  0  0  0  0  0  0  0  0  0  0  0
   47.8023    4.9756   18.3428 H   0  0  0  0  0  0  0  0  0  0  0  0
   49.2435    5.9774   18.1609 H   0  0  0  0  0  0  0  0  0  0  0  0
   48.2492   11.6552   21.3531 H   0  0  0  0  0  0  0  0  0  0  0  0
   50.1719    7.6028   21.3737 H   0  0  0  0  0  0  0  0  0  0  0  0
   46.0249    8.4800   19.7194 H   0  0  0  0  0  0  0  0  0  0  0  0
   48.7805    7.6535   17.3989 H   0  0  0  0  0  0  0  0  0  0  0  0
   47.1831   10.0571   18.3434 H   0  0  0  0  0  0  0  0  0  0  0  0
   49.7255    9.9140   18.7603 H   0  0  0  0  0  0  0  0  0  0  0  0
 10  3  1  0
 11  4  1  0
 12  1  1  0
 10 13  1  0
 14 12  1  0
 15  7  1  0
 16  7  1  0
 17  7  1  0
  6  8  1  0
  2  1  2  0
  3  2  1  0
  4  1  1  0
  5  9  1  0
  6  3  2  0
  7  5  1  0
  8  4  2  0
  9 10  1  0
 27 20  1  0
 28 21  1  0
 29 18  1  0
 27 30  1  0
 31 29  1  0
 32 24  1  0
 33 24  1  0
 34 24  1  0
 23 25  1  0
 19 18  2  0
 20 19  1  0
 21 18  1  0
 22 26  1  0
 23 20  2  0
 24 22  1  0
 25 21  2  0
 26 27  1  0
 41 36  2  0
 42 39  1  0
 43 40  1  0
 41 35  1  0
 43 44  1  0
 42 43  1  0
 44 37  1  0
 41 42  1  0
 44 38  2  0
  2 45  1  0
  5 46  1  0
  6 47  1  0
  8 48  1  0
  9 49  1  0
  9 50  1  0
 10 51  1  1
 11 52  1  0
 12 53  1  0
 12 54  1  0
 13 55  1  0
 14 56  1  0
 15 57  1  0
 15 58  1  0
 15 59  1  0
 16 60  1  0
 16 61  1  0
 16 62  1  0
 17 63  1  0
 17 64  1  0
 17 65  1  0
 19 66  1  0
 22 67  1  0
 23 68  1  0
 25 69  1  0
 26 70  1  0
 26 71  1  0
 27 72  1  1
 28 73  1  0
 29 74  1  0
 29 75  1  0
 30 76  1  0
 31 77  1  0
 32 78  1  0
 32 79  1  0
 32 80  1  0
 33 81  1  0
 33 82  1  0
 33 83  1  0
 34 84  1  0
 34 85  1  0
 34 86  1  0
 35 87  1  0
 37 88  1  0
 39 89  1  0
 40 90  1  0
 42 91  1  1
 43 92  1  1
M  END
> <Uni-Dock RESULT> 
ENERGY=   -4.952  LOWER_BOUND=    9.124  UPPER_BOUND=   11.371
INTER + INTRA:          -4.952
INTER:                  -4.952
INTRA:                   0.000
UNBOUND:                 0.000

$$$$

     RDKit          3D

 92 91  0  0  0  0  0  0  0  0999 V2000
   48.3656   12.6100   19.2917 C   0  0  0  0  0  0  0  0  0  0  0  0
   48.6830   11.3439   19.8136 C   0  0  0  0  0  0  0  0  0  0  0  0
   48.9358   10.2469   18.9711 C   0  0  0  0  0  0  0  0  0  0  0  0
   48.3070   12.7615   17.9038 C   0  0  0  0  0  0  0  0  0  0  0  0
   47.9297    6.8596   20.4744 N   0  0  0  0  0  0  0  0  0  0  0  0
   48.8791   10.4364   17.5846 C   0  0  0  0  0  0  0  0  0  0  0  0
   48.9317    6.0427   21.1905 C   0  0  0  0  0  0  0  0  0  0  0  0
   48.5640   11.6877   17.0523 C   0  0  0  0  0  0  0  0  0  0  0  0
   48.1109    8.3251   20.4231 C   0  0  0  0  0  0  0  0  0  0  0  0
   49.2654    8.8797   19.5471 C   0  0  2  0  0  0  0  0  0  0  0  0
   47.9841   13.9819   17.3833 O   0  0  0  0  0  0  0  0  0  0  0  0
   48.0760   13.7411   20.2426 C   0  0  0  0  0  0  0  0  0  0  0  0
   50.4675    9.0048   20.3146 O   0  0  0  0  0  0  0  0  0  0  0  0
   46.8611   13.4898   20.9387 O   0  0  0  0  0  0  0  0  0  0  0  0
   49.4166    6.6525   22.5150 C   0  0  0  0  0  0  0  0  0  0  0  0
   50.1214    5.7115   20.2769 C   0  0  0  0  0  0  0  0  0  0  0  0
   48.2271    4.7059   21.5197 C   0  0  0  0  0  0  0  0  0  0  0  0
   48.5596   12.4690   19.0215 C   0  0  0  0  0  0  0  0  0  0  0  0
   48.5332   11.0636   18.9691 C   0  0  0  0  0  0  0  0  0  0  0  0
   47.5918   10.3175   19.6985 C   0  0  0  0  0  0  0  0  0  0  0  0
   47.6068   13.1208   19.8109 C   0  0  0  0  0  0  0  0  0  0  0  0
   48.8153    6.6197   19.5094 N   0  0  0  0  0  0  0  0  0  0  0  0
   46.6376   11.0112   20.4583 C   0  0  0  0  0  0  0  0  0  0  0  0
   49.1702    5.9511   20.7704 C   0  0  0  0  0  0  0  0  0  0  0  0
   46.6461   12.4051   20.5214 C   0  0  0  0  0  0  0  0  0  0  0  0
   48.9090    8.0897   19.4759 C   0  0  0  0  0  0  0  0  0  0  0  0
   47.5389    8.8011   19.6677 C   0  0  2  0  0  0  0  0  0  0  0  0
   47.6285   14.4864   19.8751 O   0  0  0  0  0  0  0  0  0  0  0  0
   49.5812   13.2771   18.2610 C   0  0  0  0  0  0  0  0  0  0  0  0
   46.6387    8.3835   18.6315 O   0  0  0  0  0  0  0  0  0  0  0  0
   50.5079   12.4524   17.5595 O   0  0  0  0  0  0  0  0  0  0  0  0
   50.6816    6.0694   21.0359 C   0  0  0  0  0  0  0  0  0  0  0  0
   48.8320    4.4591   20.5837 C   0  0  0  0  0  0  0  0  0  0  0  0
   48.3831    6.4704   21.9816 C   0  0  0  0  0  0  0  0  0  0  0  0
   48.9273   10.8421   18.4475 O   0  0  0  0  0  0  0  0  0  0  0  0
   50.8489   10.0150   19.2329 O   0  0  0  0  0  0  0  0  0  0  0  0
   48.3975    7.6838   18.5209 O   0  0  0  0  0  0  0  0  0  0  0  0
   47.4214    6.6532   20.2375 O   0  0  0  0  0  0  0  0  0  0  0  0
   49.6237    8.9707   21.5045 O   0  0  0  0  0  0  0  0  0  0  0  0
   46.7100    9.0399   21.4435 O   0  0  0  0  0  0  0  0  0  0  0  0
   49.6463   10.1866   19.3782 C   0  0  0  0  0  0  0  0  0  0  0  0
   48.8517    9.7898   20.6146 C   0  0  1  0  0  0  0  0  0  0  0  0
   47.5338    9.1021   20.2661 C   0  0  1  0  0  0  0  0  0  0  0  0
   47.7687    7.7009   19.7125 C   0  0  0  0  0  0  0  0  0  0  0  0
   48.7225   11.2141   20.8974 H   0  0  0  0  0  0  0  0  0  0  0  0
   47.0158    6.6923   20.9016 H   0  0  0  0  0  0  0  0  0  0  0  0
   49.0749    9.6065   16.9079 H   0  0  0  0  0  0  0  0  0  0  0  0
   48.5201   11.8024   15.9722 H   0  0  0  0  0  0  0  0  0  0  0  0
   47.1660    8.6975   20.0016 H   0  0  0  0  0  0  0  0  0  0  0  0
   48.1605    8.7362   21.4391 H   0  0  0  0  0  0  0  0  0  0  0  0
   49.4703    8.1819   18.7251 H   0  0  0  0  0  0  0  0  0  0  0  0
   48.0327   13.9389   16.4137 H   0  0  0  0  0  0  0  0  0  0  0  0
   48.8855   13.8328   20.9756 H   0  0  0  0  0  0  0  0  0  0  0  0
   47.9834   14.7053   19.7348 H   0  0  0  0  0  0  0  0  0  0  0  0
   50.9891    9.7243   19.9200 H   0  0  0  0  0  0  0  0  0  0  0  0
   46.2410   13.1294   20.2812 H   0  0  0  0  0  0  0  0  0  0  0  0
   50.0596    5.9481   23.0549 H   0  0  0  0  0  0  0  0  0  0  0  0
   50.0041    7.5622   22.3640 H   0  0  0  0  0  0  0  0  0  0  0  0
   48.5752    6.8995   23.1711 H   0  0  0  0  0  0  0  0  0  0  0  0
   50.7512    6.5787   20.0724 H   0  0  0  0  0  0  0  0  0  0  0  0
   49.7801    5.3127   19.3134 H   0  0  0  0  0  0  0  0  0  0  0  0
   50.7661    4.9526   20.7366 H   0  0  0  0  0  0  0  0  0  0  0  0
   47.8374    4.2243   20.6160 H   0  0  0  0  0  0  0  0  0  0  0  0
   47.3874    4.8520   22.2090 H   0  0  0  0  0  0  0  0  0  0  0  0
   48.9183    3.9997   21.9937 H   0  0  0  0  0  0  0  0  0  0  0  0
   49.2677   10.5579   18.3443 H   0  0  0  0  0  0  0  0  0  0  0  0
   47.8697    6.3630   19.2112 H   0  0  0  0  0  0  0  0  0  0  0  0
   45.8772   10.4598   21.0096 H   0  0  0  0  0  0  0  0  0  0  0  0
   45.8962   12.9089   21.1234 H   0  0  0  0  0  0  0  0  0  0  0  0
   49.2808    8.3238   18.4714 H   0  0  0  0  0  0  0  0  0  0  0  0
   49.6499    8.4763   20.1832 H   0  0  0  0  0  0  0  0  0  0  0  0
   47.1029    8.4577   20.6132 H   0  0  0  0  0  0  0  0  0  0  0  0
   46.9989   14.7746   20.5562 H   0  0  0  0  0  0  0  0  0  0  0  0
   50.1524   13.8959   18.9614 H   0  0  0  0  0  0  0  0  0  0  0  0
   49.0798   13.9230   17.5314 H   0  0  0  0  0  0  0  0  0  0  0  0
   46.6669    9.0659   17.9382 H   0  0  0  0  0  0  0  0  0  0  0  0
   51.1351   13.0547   17.1247 H   0  0  0  0  0  0  0  0  0  0  0  0
   50.9895    7.1012   21.2331 H   0  0  0  0  0  0  0  0  0  0  0  0
   50.9678    5.4753   21.9102 H   0  0  0  0  0  0  0  0  0  0  0  0
   51.2634    5.6979   20.1837 H   0  0  0  0  0  0  0  0  0  0  0  0
   49.0929    3.8790   21.4759 H   0  0  0  0  0  0  0  0  0  0  0  0
   49.3822    4.0266   19.7395 H   0  0  0  0  0  0  0  0  0  0  0  0
   47.7611    4.3103   20.3978 H   0  0  0  0  0  0  0  0  0  0  0  0
   48.6180    7.5154   22.2033 H   0  0  0  0  0  0  0  0  0  0  0  0
   48.6200    5.8918   22.8811 H   0  0  0  0  0  0  0  0  0  0  0  0
   47.3025    6.3925   21.8193 H   0  0  0  0  0  0  0  0  0  0  0  0
   49.5717   11.0372   17.7335 H   0  0  0  0  0  0  0  0  0  0  0  0
   48.4580    6.7295   18.3012 H   0  0  0  0  0  0  0  0  0  0  0  0
   50.5474    9.2859   21.4321 H   0  0  0  0  0  0  0  0  0  0  0  0
   47.0331    8.2670   21.9541 H   0  0  0  0  0  0  0  0  0  0  0  0
   48.6479   10.7154   21.1675 H   0  0  0  0  0  0  0  0  0  0  0  0
   46.9567    9.6649   19.5259 H   0  0  0  0  0  0  0  0  0  0  0  0
 10  3  1  0
 11  4  1  0
 12  1  1  0
 10 13  1  0
 14 12  1  0
 15  7  1  0
 16  7  1  0
 17  7  1  0
  6  8  1  0
  2  1  2  0
  3  2  1  0
  4  1  1  0
  5  9  1  0
  6  3  2  0
  7  5  1  0
  8  4  2  0
  9 10  1  0
 27 20  1  0
 28 21  1  0
 29 18  1  0
 27 30  1  0
 31 29  1  0
 32 24  1  0
 33 24  1  0
 34 24  1  0
 23 25  1  0
 19 18  2  0
 20 19  1  0
 21 18  1  0
 22 26  1  0
 23 20  2  0
 24 22  1  0
 25 21  2  0
 26 27  1  0
 41 36  2  0
 42 39  1  0
 43 40  1  0
 41 35  1  0
 43 44  1  0
 42 43  1  0
 44 37  1  0
 41 42  1  0
 44 38  2  0
  2 45  1  0
  5 46  1  0
  6 47  1  0
  8 48  1  0
  9 49  1  0
  9 50  1  0
 10 51  1  1
 11 52  1  0
 12 53  1  0
 12 54  1  0
 13 55  1  0
 14 56  1  0
 15 57  1  0
 15 58  1  0
 15 59  1  0
 16 60  1  0
 16 61  1  0
 16 62  1  0
 17 63  1  0
 17 64  1  0
 17 65  1  0
 19 66  1  0
 22 67  1  0
 23 68  1  0
 25 69  1  0
 26 70  1  0
 26 71  1  0
 27 72  1  1
 28 73  1  0
 29 74  1  0
 29 75  1  0
 30 76  1  0
 31 77  1  0
 32 78  1  0
 32 79  1  0
 32 80  1  0
 33 81  1  0
 33 82  1  0
 33 83  1  0
 34 84  1  0
 34 85  1  0
 34 86  1  0
 35 87  1  0
 37 88  1  0
 39 89  1  0
 40 90  1  0
 42 91  1  1
 43 92  1  1
M  END
> <Uni-Dock RESULT> 
ENERGY=   -4.938  LOWER_BOUND=    9.311  UPPER_BOUND=   11.751
INTER + INTRA:          -4.938
INTER:                  -4.938
INTRA:                   0.000
UNBOUND:                 0.000

$$$$

     RDKit          3D

 92 91  0  0  0  0  0  0  0  0999 V2000
   48.2829    6.2545   18.0092 C   0  0  0  0  0  0  0  0  0  0  0  0
   48.0318    7.6106   18.2818 C   0  0  0  0  0  0  0  0  0  0  0  0
   48.9292    8.6163   17.8814 C   0  0  0  0  0  0  0  0  0  0  0  0
   49.4533    5.9198   17.3232 C   0  0  0  0  0  0  0  0  0  0  0  0
   48.9978   11.6660   20.2140 N   0  0  0  0  0  0  0  0  0  0  0  0
   50.0874    8.2467   17.1863 C   0  0  0  0  0  0  0  0  0  0  0  0
   48.1547   12.8426   19.9161 C   0  0  0  0  0  0  0  0  0  0  0  0
   50.3503    6.9039   16.9098 C   0  0  0  0  0  0  0  0  0  0  0  0
   48.5707   10.3405   19.7201 C   0  0  0  0  0  0  0  0  0  0  0  0
   48.6533   10.0780   18.1930 C   0  0  2  0  0  0  0  0  0  0  0  0
   49.7178    4.6051   17.0659 O   0  0  0  0  0  0  0  0  0  0  0  0
   47.3004    5.2185   18.4879 C   0  0  0  0  0  0  0  0  0  0  0  0
   47.4261   10.4398   17.5505 O   0  0  0  0  0  0  0  0  0  0  0  0
   47.3178    5.1543   19.9089 O   0  0  0  0  0  0  0  0  0  0  0  0
   46.6448   12.5901   20.0496 C   0  0  0  0  0  0  0  0  0  0  0  0
   48.4890   13.4188   18.5319 C   0  0  0  0  0  0  0  0  0  0  0  0
   48.5450   13.9150   20.9598 C   0  0  0  0  0  0  0  0  0  0  0  0
   48.4640    6.4150   17.7410 C   0  0  0  0  0  0  0  0  0  0  0  0
   48.8942    7.7204   18.0402 C   0  0  0  0  0  0  0  0  0  0  0  0
   48.8921    8.2124   19.3566 C   0  0  0  0  0  0  0  0  0  0  0  0
   48.0441    5.5977   18.7953 C   0  0  0  0  0  0  0  0  0  0  0  0
   49.4881   12.0530   19.0381 N   0  0  0  0  0  0  0  0  0  0  0  0
   48.4870    7.3516   20.3880 C   0  0  0  0  0  0  0  0  0  0  0  0
   48.4306   12.9521   19.5241 C   0  0  0  0  0  0  0  0  0  0  0  0
   48.0588    6.0526   20.1117 C   0  0  0  0  0  0  0  0  0  0  0  0
   49.0839   10.6976   18.6253 C   0  0  0  0  0  0  0  0  0  0  0  0
   49.3453    9.6163   19.7127 C   0  0  2  0  0  0  0  0  0  0  0  0
   47.6166    4.3296   18.5146 O   0  0  0  0  0  0  0  0  0  0  0  0
   48.4401    5.8864   16.3286 C   0  0  0  0  0  0  0  0  0  0  0  0
   50.7442    9.5919   20.0303 O   0  0  0  0  0  0  0  0  0  0  0  0
   48.8427    6.8690   15.3779 O   0  0  0  0  0  0  0  0  0  0  0  0
   47.4950   13.3562   18.3708 C   0  0  0  0  0  0  0  0  0  0  0  0
   49.1383   14.2226   20.0344 C   0  0  0  0  0  0  0  0  0  0  0  0
   47.6117   12.3649   20.6820 C   0  0  0  0  0  0  0  0  0  0  0  0
   49.2216    7.9889   17.4950 O   0  0  0  0  0  0  0  0  0  0  0  0
   47.9097    9.4771   16.4665 O   0  0  0  0  0  0  0  0  0  0  0  0
   50.2361   10.7963   18.6568 O   0  0  0  0  0  0  0  0  0  0  0  0
   49.4828   11.6681   20.5632 O   0  0  0  0  0  0  0  0  0  0  0  0
   46.7980   10.3517   18.8644 O   0  0  0  0  0  0  0  0  0  0  0  0
   48.1379    9.3500   21.2518 O   0  0  0  0  0  0  0  0  0  0  0  0
   48.2792    8.9505   17.5071 C   0  0  0  0  0  0  0  0  0  0  0  0
   47.6858    9.2247   18.8819 C   0  0  1  0  0  0  0  0  0  0  0  0
   48.7569    9.4068   19.9547 C   0  0  1  0  0  0  0  0  0  0  0  0
   49.4965   10.7289   19.7811 C   0  0  0  0  0  0  0  0  0  0  0  0
   47.1237    7.8807   18.8252 H   0  0  0  0  0  0  0  0  0  0  0  0
   49.0875   11.5852   21.2295 H   0  0  0  0  0  0  0  0  0  0  0  0
   50.7979    9.0041   16.8597 H   0  0  0  0  0  0  0  0  0  0  0  0
   51.2613    6.6470   16.3751 H   0  0  0  0  0  0  0  0  0  0  0  0
   49.2550    9.6365   20.2155 H   0  0  0  0  0  0  0  0  0  0  0  0
   47.5722   10.0972   20.1040 H   0  0  0  0  0  0  0  0  0  0  0  0
   49.4485   10.6960   17.7568 H   0  0  0  0  0  0  0  0  0  0  0  0
   50.5350    4.5396   16.5440 H   0  0  0  0  0  0  0  0  0  0  0  0
   46.2876    5.4823   18.1629 H   0  0  0  0  0  0  0  0  0  0  0  0
   47.5190    4.2196   18.0999 H   0  0  0  0  0  0  0  0  0  0  0  0
   47.3378    9.8809   16.7598 H   0  0  0  0  0  0  0  0  0  0  0  0
   48.2528    5.2129   20.1719 H   0  0  0  0  0  0  0  0  0  0  0  0
   46.0830   13.5245   19.9380 H   0  0  0  0  0  0  0  0  0  0  0  0
   46.2684   11.9039   19.2860 H   0  0  0  0  0  0  0  0  0  0  0  0
   46.3963   12.1718   21.0308 H   0  0  0  0  0  0  0  0  0  0  0  0
   48.1507   12.7793   17.7151 H   0  0  0  0  0  0  0  0  0  0  0  0
   49.5703   13.5640   18.4155 H   0  0  0  0  0  0  0  0  0  0  0  0
   48.0094   14.3949   18.3901 H   0  0  0  0  0  0  0  0  0  0  0  0
   49.6190   14.1301   20.9321 H   0  0  0  0  0  0  0  0  0  0  0  0
   48.2943   13.5962   21.9782 H   0  0  0  0  0  0  0  0  0  0  0  0
   48.0183   14.8583   20.7750 H   0  0  0  0  0  0  0  0  0  0  0  0
   49.2326    8.3515   17.2200 H   0  0  0  0  0  0  0  0  0  0  0  0
   50.2348   11.9553   19.7323 H   0  0  0  0  0  0  0  0  0  0  0  0
   48.5041    7.6960   21.4210 H   0  0  0  0  0  0  0  0  0  0  0  0
   47.7472    5.4155   20.9336 H   0  0  0  0  0  0  0  0  0  0  0  0
   49.7122   10.4705   17.7559 H   0  0  0  0  0  0  0  0  0  0  0  0
   48.0453   10.6592   18.2809 H   0  0  0  0  0  0  0  0  0  0  0  0
   48.8251    9.9183   20.6294 H   0  0  0  0  0  0  0  0  0  0  0  0
   47.2409    3.9433   19.3227 H   0  0  0  0  0  0  0  0  0  0  0  0
   47.4218    5.5749   16.0723 H   0  0  0  0  0  0  0  0  0  0  0  0
   49.1159    5.0284   16.2385 H   0  0  0  0  0  0  0  0  0  0  0  0
   51.1418    8.8731   19.5086 H   0  0  0  0  0  0  0  0  0  0  0  0
   48.7725    6.4487   14.5041 H   0  0  0  0  0  0  0  0  0  0  0  0
   46.9143   12.5097   17.9905 H   0  0  0  0  0  0  0  0  0  0  0  0
   46.7785   14.1151   18.7025 H   0  0  0  0  0  0  0  0  0  0  0  0
   48.0602   13.7841   17.5340 H   0  0  0  0  0  0  0  0  0  0  0  0
   48.4141   14.9626   20.3933 H   0  0  0  0  0  0  0  0  0  0  0  0
   49.7270   14.6988   19.2413 H   0  0  0  0  0  0  0  0  0  0  0  0
   49.8165   13.9977   20.8667 H   0  0  0  0  0  0  0  0  0  0  0  0
   47.0394   11.4857   20.3723 H   0  0  0  0  0  0  0  0  0  0  0  0
   46.8917   13.0966   21.0643 H   0  0  0  0  0  0  0  0  0  0  0  0
   48.2554   12.0731   21.5191 H   0  0  0  0  0  0  0  0  0  0  0  0
   49.4901    7.9217   16.5535 H   0  0  0  0  0  0  0  0  0  0  0  0
   50.6502   11.6847   18.7013 H   0  0  0  0  0  0  0  0  0  0  0  0
   46.3619   10.3412   17.9884 H   0  0  0  0  0  0  0  0  0  0  0  0
   47.7628   10.2430   21.4073 H   0  0  0  0  0  0  0  0  0  0  0  0
   47.0592    8.3592   19.1319 H   0  0  0  0  0  0  0  0  0  0  0  0
   49.4977    8.6014   19.9405 H   0  0  0  0  0  0  0  0  0  0  0  0
 10  3  1  0
 11  4  1  0
 12  1  1  0
 10 13  1  0
 14 12  1  0
 15  7  1  0
 16  7  1  0
 17  7  1  0
  6  8  1  0
  2  1  2  0
  3  2  1  0
  4  1  1  0
  5  9  1  0
  6  3  2  0
  7  5  1  0
  8  4  2  0
  9 10  1  0
 27 20  1  0
 28 21  1  0
 29 18  1  0
 27 30  1  0
 31 29  1  0
 32 24  1  0
 33 24  1  0
 34 24  1  0
 23 25  1  0
 19 18  2  0
 20 19  1  0
 21 18  1  0
 22 26  1  0
 23 20  2  0
 24 22  1  0
 25 21  2  0
 26 27  1  0
 41 36  2  0
 42 39  1  0
 43 40  1  0
 41 35  1  0
 43 44  1  0
 42 43  1  0
 44 37  1  0
 41 42  1  0
 44 38  2  0
  2 45  1  0
  5 46  1  0
  6 47  1  0
  8 48  1  0
  9 49  1  0
  9 50  1  0
 10 51  1  1
 11 52  1  0
 12 53  1  0
 12 54  1  0
 13 55  1  0
 14 56  1  0
 15 57  1  0
 15 58  1  0
 15 59  1  0
 16 60  1  0
 16 61  1  0
 16 62  1  0
 17 63  1  0
 17 64  1  0
 17 65  1  0
 19 66  1  0
 22 67  1  0
 23 68  1  0
 25 69  1  0
 26 70  1  0
 26 71  1  0
 27 72  1  1
 28 73  1  0
 29 74  1  0
 29 75  1  0
 30 76  1  0
 31 77  1  0
 32 78  1  0
 32 79  1  0
 32 80  1  0
 33 81  1  0
 33 82  1  0
 33 83  1  0
 34 84  1  0
 34 85  1  0
 34 86  1  0
 35 87  1  0
 37 88  1  0
 39 89  1  0
 40 90  1  0
 42 91  1  1
 43 92  1  1
M  END
> <Uni-Dock RESULT> 
ENERGY=   -4.714  LOWER_BOUND=    9.320  UPPER_BOUND=   11.299
INTER + INTRA:          -4.714
INTER:                  -4.714
INTRA:                   0.000
UNBOUND:                 0.000

$$$$

     RDKit          3D

 92 91  0  0  0  0  0  0  0  0999 V2000
   47.7665    9.6905   19.3148 C   0  0  0  0  0  0  0  0  0  0  0  0
   47.9134    9.4470   17.9381 C   0  0  0  0  0  0  0  0  0  0  0  0
   49.0549    8.8054   17.4257 C   0  0  0  0  0  0  0  0  0  0  0  0
   48.7865    9.2770   20.1758 C   0  0  0  0  0  0  0  0  0  0  0  0
   50.0108    9.9196   13.8773 N   0  0  0  0  0  0  0  0  0  0  0  0
   50.0532    8.3944   18.3178 C   0  0  0  0  0  0  0  0  0  0  0  0
   49.5330    9.1519   12.7084 C   0  0  0  0  0  0  0  0  0  0  0  0
   49.9213    8.6308   19.6872 C   0  0  0  0  0  0  0  0  0  0  0  0
   49.2201    9.8830   15.1249 C   0  0  0  0  0  0  0  0  0  0  0  0
   49.2084    8.5589   15.9339 C   0  0  2  0  0  0  0  0  0  0  0  0
   48.6644    9.5215   21.5136 O   0  0  0  0  0  0  0  0  0  0  0  0
   46.5358   10.4077   19.8032 C   0  0  0  0  0  0  0  0  0  0  0  0
   48.1274    7.7193   15.5141 O   0  0  0  0  0  0  0  0  0  0  0  0
   46.5495   11.7565   19.3511 O   0  0  0  0  0  0  0  0  0  0  0  0
   48.0150    9.2241   12.4806 C   0  0  0  0  0  0  0  0  0  0  0  0
   50.0022    7.6911   12.7843 C   0  0  0  0  0  0  0  0  0  0  0  0
   50.2227    9.7860   11.4780 C   0  0  0  0  0  0  0  0  0  0  0  0
   47.9829    9.4012   19.3171 C   0  0  0  0  0  0  0  0  0  0  0  0
   48.7689    9.2635   18.1587 C   0  0  0  0  0  0  0  0  0  0  0  0
   48.9206   10.3184   17.2427 C   0  0  0  0  0  0  0  0  0  0  0  0
   47.3597   10.6308   19.5529 C   0  0  0  0  0  0  0  0  0  0  0  0
   50.5782    8.7336   14.0887 N   0  0  0  0  0  0  0  0  0  0  0  0
   48.2991   11.5433   17.5295 C   0  0  0  0  0  0  0  0  0  0  0  0
   49.8245    8.7738   12.8265 C   0  0  0  0  0  0  0  0  0  0  0  0
   47.5170   11.7002   18.6744 C   0  0  0  0  0  0  0  0  0  0  0  0
   49.8016    8.7853   15.3398 C   0  0  0  0  0  0  0  0  0  0  0  0
   49.7573   10.2014   15.9819 C   0  0  2  0  0  0  0  0  0  0  0  0
   46.5871   10.7729   20.6719 O   0  0  0  0  0  0  0  0  0  0  0  0
   47.7948    8.2672   20.2937 C   0  0  0  0  0  0  0  0  0  0  0  0
   51.0951   10.6362   16.2640 O   0  0  0  0  0  0  0  0  0  0  0  0
   48.4493    7.0748   19.8683 O   0  0  0  0  0  0  0  0  0  0  0  0
   49.0295    7.4704   12.6320 C   0  0  0  0  0  0  0  0  0  0  0  0
   50.8689    8.8709   11.6972 C   0  0  0  0  0  0  0  0  0  0  0  0
   48.8851    9.9825   12.7122 C   0  0  0  0  0  0  0  0  0  0  0  0
   49.1531    8.6918   18.2041 O   0  0  0  0  0  0  0  0  0  0  0  0
   48.3063    7.0905   16.8956 O   0  0  0  0  0  0  0  0  0  0  0  0
   50.9348    8.8873   15.5493 O   0  0  0  0  0  0  0  0  0  0  0  0
   50.4803   10.2894   13.8791 O   0  0  0  0  0  0  0  0  0  0  0  0
   47.5142    8.9165   14.9490 O   0  0  0  0  0  0  0  0  0  0  0  0
   48.5405   11.6171   15.3391 O   0  0  0  0  0  0  0  0  0  0  0  0
   48.5224    8.2792   17.0884 C   0  0  0  0  0  0  0  0  0  0  0  0
   48.0460    9.4096   16.1870 C   0  0  1  0  0  0  0  0  0  0  0  0
   49.1362   10.4456   15.9236 C   0  0  1  0  0  0  0  0  0  0  0  0
   50.2186    9.8902   15.0044 C   0  0  0  0  0  0  0  0  0  0  0  0
   47.1252    9.7746   17.2568 H   0  0  0  0  0  0  0  0  0  0  0  0
   50.0849   10.9027   13.6061 H   0  0  0  0  0  0  0  0  0  0  0  0
   50.9457    7.8911   17.9503 H   0  0  0  0  0  0  0  0  0  0  0  0
   50.7162    8.3070   20.3544 H   0  0  0  0  0  0  0  0  0  0  0  0
   49.6818   10.6547   15.7578 H   0  0  0  0  0  0  0  0  0  0  0  0
   48.1977   10.2330   14.9354 H   0  0  0  0  0  0  0  0  0  0  0  0
   50.1415    8.0101   15.7532 H   0  0  0  0  0  0  0  0  0  0  0  0
   49.4238    9.1340   21.9801 H   0  0  0  0  0  0  0  0  0  0  0  0
   45.6360    9.9183   19.4136 H   0  0  0  0  0  0  0  0  0  0  0  0
   46.4578   10.4158   20.8940 H   0  0  0  0  0  0  0  0  0  0  0  0
   47.8756    7.1695   16.2755 H   0  0  0  0  0  0  0  0  0  0  0  0
   47.4655   12.0681   19.4544 H   0  0  0  0  0  0  0  0  0  0  0  0
   47.7403    8.7411   11.5360 H   0  0  0  0  0  0  0  0  0  0  0  0
   47.4513    8.7173   13.2686 H   0  0  0  0  0  0  0  0  0  0  0  0
   47.6687   10.2620   12.4324 H   0  0  0  0  0  0  0  0  0  0  0  0
   49.4875    7.1218   13.5601 H   0  0  0  0  0  0  0  0  0  0  0  0
   51.0789    7.6323   12.9869 H   0  0  0  0  0  0  0  0  0  0  0  0
   49.8177    7.1728   11.8356 H   0  0  0  0  0  0  0  0  0  0  0  0
   51.3133    9.7848   11.5841 H   0  0  0  0  0  0  0  0  0  0  0  0
   49.9029   10.8235   11.3270 H   0  0  0  0  0  0  0  0  0  0  0  0
   49.9833    9.2348   10.5614 H   0  0  0  0  0  0  0  0  0  0  0  0
   49.2635    8.3097   17.9828 H   0  0  0  0  0  0  0  0  0  0  0  0
   51.2739    9.4843   14.1251 H   0  0  0  0  0  0  0  0  0  0  0  0
   48.4243   12.3873   16.8528 H   0  0  0  0  0  0  0  0  0  0  0  0
   47.0464   12.6603   18.8624 H   0  0  0  0  0  0  0  0  0  0  0  0
   50.3303    8.1127   16.0256 H   0  0  0  0  0  0  0  0  0  0  0  0
   48.7911    8.3810   15.2201 H   0  0  0  0  0  0  0  0  0  0  0  0
   49.3540   10.9020   15.2412 H   0  0  0  0  0  0  0  0  0  0  0  0
   46.1259   11.6264   20.6238 H   0  0  0  0  0  0  0  0  0  0  0  0
   46.7273    8.0425   20.3914 H   0  0  0  0  0  0  0  0  0  0  0  0
   48.1984    8.5462   21.2736 H   0  0  0  0  0  0  0  0  0  0  0  0
   51.2668   10.4383   17.2012 H   0  0  0  0  0  0  0  0  0  0  0  0
   48.2534    6.4006   20.5408 H   0  0  0  0  0  0  0  0  0  0  0  0
   48.2285    7.3579   13.3696 H   0  0  0  0  0  0  0  0  0  0  0  0
   48.5614    7.4475   11.6422 H   0  0  0  0  0  0  0  0  0  0  0  0
   49.6839    6.5932   12.7042 H   0  0  0  0  0  0  0  0  0  0  0  0
   50.3882    8.8793   10.7125 H   0  0  0  0  0  0  0  0  0  0  0  0
   51.5600    8.0198   11.7170 H   0  0  0  0  0  0  0  0  0  0  0  0
   51.4644    9.7886   11.7789 H   0  0  0  0  0  0  0  0  0  0  0  0
   48.0836    9.9479   13.4557 H   0  0  0  0  0  0  0  0  0  0  0  0
   48.4064   10.0159   11.7275 H   0  0  0  0  0  0  0  0  0  0  0  0
   49.4285   10.9247   12.8425 H   0  0  0  0  0  0  0  0  0  0  0  0
   49.3814    7.8626   18.6767 H   0  0  0  0  0  0  0  0  0  0  0  0
   51.5844    8.6566   14.8510 H   0  0  0  0  0  0  0  0  0  0  0  0
   47.0836    8.0630   15.1584 H   0  0  0  0  0  0  0  0  0  0  0  0
   48.4359   11.4148   14.3849 H   0  0  0  0  0  0  0  0  0  0  0  0
   47.2024    9.8871   16.7013 H   0  0  0  0  0  0  0  0  0  0  0  0
   49.6179   10.7830   16.8465 H   0  0  0  0  0  0  0  0  0  0  0  0
 10  3  1  0
 11  4  1  0
 12  1  1  0
 10 13  1  0
 14 12  1  0
 15  7  1  0
 16  7  1  0
 17  7  1  0
  6  8  1  0
  2  1  2  0
  3  2  1  0
  4  1  1  0
  5  9  1  0
  6  3  2  0
  7  5  1  0
  8  4  2  0
  9 10  1  0
 27 20  1  0
 28 21  1  0
 29 18  1  0
 27 30  1  0
 31 29  1  0
 32 24  1  0
 33 24  1  0
 34 24  1  0
 23 25  1  0
 19 18  2  0
 20 19  1  0
 21 18  1  0
 22 26  1  0
 23 20  2  0
 24 22  1  0
 25 21  2  0
 26 27  1  0
 41 36  2  0
 42 39  1  0
 43 40  1  0
 41 35  1  0
 43 44  1  0
 42 43  1  0
 44 37  1  0
 41 42  1  0
 44 38  2  0
  2 45  1  0
  5 46  1  0
  6 47  1  0
  8 48  1  0
  9 49  1  0
  9 50  1  0
 10 51  1  1
 11 52  1  0
 12 53  1  0
 12 54  1  0
 13 55  1  0
 14 56  1  0
 15 57  1  0
 15 58  1  0
 15 59  1  0
 16 60  1  0
 16 61  1  0
 16 62  1  0
 17 63  1  0
 17 64  1  0
 17 65  1  0
 19 66  1  0
 22 67  1  0
 23 68  1  0
 25 69  1  0
 26 70  1  0
 26 71  1  0
 27 72  1  1
 28 73  1  0
 29 74  1  0
 29 75  1  0
 30 76  1  0
 31 77  1  0
 32 78  1  0
 32 79  1  0
 32 80  1  0
 33 81  1  0
 33 82  1  0
 33 83  1  0
 34 84  1  0
 34 85  1  0
 34 86  1  0
 35 87  1  0
 37 88  1  0
 39 89  1  0
 40 90  1  0
 42 91  1  1
 43 92  1  1
M  END
> <Uni-Dock RESULT> 
ENERGY=   -4.515  LOWER_BOUND=    6.914  UPPER_BOUND=    9.999
INTER + INTRA:          -4.515
INTER:                  -4.515
INTRA:                   0.000
UNBOUND:                 0.000

$$$$
