
     RDKit          3D

 92 91  0  0  0  0  0  0  0  0999 V2000
   44.7672    4.9039   10.3771 C   0  0  0  0  0  0  0  0  0  0  0  0
   45.3554    6.1110   10.8066 C   0  0  0  0  0  0  0  0  0  0  0  0
   45.2397    6.5593   12.1326 C   0  0  0  0  0  0  0  0  0  0  0  0
   44.0152    4.1758   11.3056 C   0  0  0  0  0  0  0  0  0  0  0  0
   47.7249    8.8405   14.0133 N   0  0  0  0  0  0  0  0  0  0  0  0
   44.5153    5.7807   13.0434 C   0  0  0  0  0  0  0  0  0  0  0  0
   48.8871    9.4180   13.3233 C   0  0  0  0  0  0  0  0  0  0  0  0
   43.9049    4.5981   12.6295 C   0  0  0  0  0  0  0  0  0  0  0  0
   47.1457    7.6057   13.4592 C   0  0  0  0  0  0  0  0  0  0  0  0
   45.9038    7.8519   12.5626 C   0  0  2  0  0  0  0  0  0  0  0  0
   43.3496    3.0231   11.0004 O   0  0  0  0  0  0  0  0  0  0  0  0
   44.9397    4.4751    8.9433 C   0  0  0  0  0  0  0  0  0  0  0  0
   44.9643    8.6837   13.2571 O   0  0  0  0  0  0  0  0  0  0  0  0
   46.2604    4.7334    8.4785 O   0  0  0  0  0  0  0  0  0  0  0  0
   48.6403    9.6832   11.8311 C   0  0  0  0  0  0  0  0  0  0  0  0
   49.1775   10.7651   14.0147 C   0  0  0  0  0  0  0  0  0  0  0  0
   50.1203    8.5148   13.4983 C   0  0  0  0  0  0  0  0  0  0  0  0
   48.8323   10.1341   12.7796 C   0  0  0  0  0  0  0  0  0  0  0  0
   47.9849    9.0517   13.0700 C   0  0  0  0  0  0  0  0  0  0  0  0
   48.2660    7.7543   12.6070 C   0  0  0  0  0  0  0  0  0  0  0  0
   49.9613    9.8949   11.9873 C   0  0  0  0  0  0  0  0  0  0  0  0
   45.3560    5.3175   12.1766 N   0  0  0  0  0  0  0  0  0  0  0  0
   49.4098    7.5539   11.8204 C   0  0  0  0  0  0  0  0  0  0  0  0
   44.2193    5.0928   11.2600 C   0  0  0  0  0  0  0  0  0  0  0  0
   50.2526    8.6211   11.5107 C   0  0  0  0  0  0  0  0  0  0  0  0
   46.2890    6.3945   11.7846 C   0  0  0  0  0  0  0  0  0  0  0  0
   47.3437    6.5920   12.9027 C   0  0  2  0  0  0  0  0  0  0  0  0
   50.8335   10.8928   11.6497 O   0  0  0  0  0  0  0  0  0  0  0  0
   48.4622   11.5075   13.2665 C   0  0  0  0  0  0  0  0  0  0  0  0
   46.6620    6.7921   14.1478 O   0  0  0  0  0  0  0  0  0  0  0  0
   49.6408   12.2380   13.6051 O   0  0  0  0  0  0  0  0  0  0  0  0
   44.6843    4.6830    9.8529 C   0  0  0  0  0  0  0  0  0  0  0  0
   43.4085    3.9297   11.8646 C   0  0  0  0  0  0  0  0  0  0  0  0
   43.3029    6.3245   11.1740 C   0  0  0  0  0  0  0  0  0  0  0  0
   46.7008    4.8920   12.8944 O   0  0  0  0  0  0  0  0  0  0  0  0
   45.4027    4.9879   11.0900 O   0  0  0  0  0  0  0  0  0  0  0  0
   48.4816    8.9533   11.4766 O   0  0  0  0  0  0  0  0  0  0  0  0
   48.2346    6.7970   10.9557 O   0  0  0  0  0  0  0  0  0  0  0  0
   44.8518    7.7772   11.5867 O   0  0  0  0  0  0  0  0  0  0  0  0
   46.5713    9.0927   13.2046 O   0  0  0  0  0  0  0  0  0  0  0  0
   45.8844    5.5635   12.0517 C   0  0  0  0  0  0  0  0  0  0  0  0
   45.6299    7.0011   12.5032 C   0  0  1  0  0  0  0  0  0  0  0  0
   46.9258    7.7450   12.8300 C   0  0  1  0  0  0  0  0  0  0  0  0
   47.9056    7.7384   11.6545 C   0  0  0  0  0  0  0  0  0  0  0  0
   45.9195    6.7075   10.0881 H   0  0  0  0  0  0  0  0  0  0  0  0
   46.9645    9.5246   14.0818 H   0  0  0  0  0  0  0  0  0  0  0  0
   44.4164    6.0960   14.0809 H   0  0  0  0  0  0  0  0  0  0  0  0
   43.3321    4.0073   13.3400 H   0  0  0  0  0  0  0  0  0  0  0  0
   47.8830    6.9887   12.9350 H   0  0  0  0  0  0  0  0  0  0  0  0
   46.8289    7.0198   14.3311 H   0  0  0  0  0  0  0  0  0  0  0  0
   46.1947    8.4156   11.6708 H   0  0  0  0  0  0  0  0  0  0  0  0
   43.1746    2.9822   10.0483 H   0  0  0  0  0  0  0  0  0  0  0  0
   44.7700    3.4024    8.8180 H   0  0  0  0  0  0  0  0  0  0  0  0
   44.2328    5.0144    8.3052 H   0  0  0  0  0  0  0  0  0  0  0  0
   44.0872    8.4993   12.8784 H   0  0  0  0  0  0  0  0  0  0  0  0
   46.8685    4.3924    9.1584 H   0  0  0  0  0  0  0  0  0  0  0  0
   49.4914   10.2078   11.3815 H   0  0  0  0  0  0  0  0  0  0  0  0
   47.7540   10.3097   11.6788 H   0  0  0  0  0  0  0  0  0  0  0  0
   48.5049    8.7537   11.2682 H   0  0  0  0  0  0  0  0  0  0  0  0
   50.0574   11.2516   13.5778 H   0  0  0  0  0  0  0  0  0  0  0  0
   49.3736   10.6324   15.0855 H   0  0  0  0  0  0  0  0  0  0  0  0
   48.3345   11.4588   13.9123 H   0  0  0  0  0  0  0  0  0  0  0  0
   50.3072    8.2964   14.5563 H   0  0  0  0  0  0  0  0  0  0  0  0
   50.0128    7.5603   12.9733 H   0  0  0  0  0  0  0  0  0  0  0  0
   51.0194    9.0000   13.1011 H   0  0  0  0  0  0  0  0  0  0  0  0
   47.0900    9.2136   13.6706 H   0  0  0  0  0  0  0  0  0  0  0  0
   45.8854    4.4466   12.2609 H   0  0  0  0  0  0  0  0  0  0  0  0
   49.6544    6.5640   11.4419 H   0  0  0  0  0  0  0  0  0  0  0  0
   51.1380    8.4616   10.9015 H   0  0  0  0  0  0  0  0  0  0  0  0
   45.7383    7.3331   11.6616 H   0  0  0  0  0  0  0  0  0  0  0  0
   46.7921    6.1598   10.8404 H   0  0  0  0  0  0  0  0  0  0  0  0
   47.9395    5.6784   13.0218 H   0  0  0  0  0  0  0  0  0  0  0  0
   50.5846   11.6871   12.1686 H   0  0  0  0  0  0  0  0  0  0  0  0
   47.9351   12.0508   12.4759 H   0  0  0  0  0  0  0  0  0  0  0  0
   47.8209   11.4684   14.1531 H   0  0  0  0  0  0  0  0  0  0  0  0
   45.8527    6.2469   14.0658 H   0  0  0  0  0  0  0  0  0  0  0  0
   49.9873   11.8171   14.4148 H   0  0  0  0  0  0  0  0  0  0  0  0
   45.3640    3.8237    9.8918 H   0  0  0  0  0  0  0  0  0  0  0  0
   43.8304    4.3986    9.2268 H   0  0  0  0  0  0  0  0  0  0  0  0
   45.2016    5.5000    9.3386 H   0  0  0  0  0  0  0  0  0  0  0  0
   44.0066    3.0131   11.9291 H   0  0  0  0  0  0  0  0  0  0  0  0
   42.5274    3.7024   11.2534 H   0  0  0  0  0  0  0  0  0  0  0  0
   43.0549    4.1705   12.8743 H   0  0  0  0  0  0  0  0  0  0  0  0
   43.0087    6.6719   12.1712 H   0  0  0  0  0  0  0  0  0  0  0  0
   43.7826    7.1592   10.6521 H   0  0  0  0  0  0  0  0  0  0  0  0
   42.3839    6.0903   10.6240 H   0  0  0  0  0  0  0  0  0  0  0  0
   46.7760    4.0100   12.4681 H   0  0  0  0  0  0  0  0  0  0  0  0
   49.0676    8.8201   10.6992 H   0  0  0  0  0  0  0  0  0  0  0  0
   44.8636    8.6873   11.9436 H   0  0  0  0  0  0  0  0  0  0  0  0
   47.3654    9.6322   13.0102 H   0  0  0  0  0  0  0  0  0  0  0  0
   45.0176    6.9348   13.4110 H   0  0  0  0  0  0  0  0  0  0  0  0
   47.4450    7.2956   13.6835 H   0  0  0  0  0  0  0  0  0  0  0  0
 10  3  1  0
 11  4  1  0
 12  1  1  0
 10 13  1  0
 14 12  1  0
 15  7  1  0
 16  7  1  0
 17  7  1  0
  6  8  1  0
  2  1  2  0
  3  2  1  0
  4  1  1  0
  5  9  1  0
  6  3  2  0
  7  5  1  0
  8  4  2  0
  9 10  1  0
 27 20  1  0
 28 21  1  0
 29 18  1  0
 27 30  1  0
 31 29  1  0
 32 24  1  0
 33 24  1  0
 34 24  1  0
 23 25  1  0
 19 18  2  0
 20 19  1  0
 21 18  1  0
 22 26  1  0
 23 20  2  0
 24 22  1  0
 25 21  2  0
 26 27  1  0
 41 36  2  0
 42 39  1  0
 43 40  1  0
 41 35  1  0
 43 44  1  0
 42 43  1  0
 44 37  1  0
 41 42  1  0
 44 38  2  0
  2 45  1  0
  5 46  1  0
  6 47  1  0
  8 48  1  0
  9 49  1  0
  9 50  1  0
 10 51  1  1
 11 52  1  0
 12 53  1  0
 12 54  1  0
 13 55  1  0
 14 56  1  0
 15 57  1  0
 15 58  1  0
 15 59  1  0
 16 60  1  0
 16 61  1  0
 16 62  1  0
 17 63  1  0
 17 64  1  0
 17 65  1  0
 19 66  1  0
 22 67  1  0
 23 68  1  0
 25 69  1  0
 26 70  1  0
 26 71  1  0
 27 72  1  6
 28 73  1  0
 29 74  1  0
 29 75  1  0
 30 76  1  0
 31 77  1  0
 32 78  1  0
 32 79  1  0
 32 80  1  0
 33 81  1  0
 33 82  1  0
 33 83  1  0
 34 84  1  0
 34 85  1  0
 34 86  1  0
 35 87  1  0
 37 88  1  0
 39 89  1  0
 40 90  1  0
 42 91  1  6
 43 92  1  6
M  END
> <Uni-Dock RESULT> 
ENERGY=   -7.114  LOWER_BOUND=    0.000  UPPER_BOUND=    0.000
INTER + INTRA:          -7.114
INTER:                  -7.114
INTRA:                   0.000
UNBOUND:                 0.000

$$$$

     RDKit          3D

 92 91  0  0  0  0  0  0  0  0999 V2000
   50.1018    3.5934   17.7919 C   0  0  0  0  0  0  0  0  0  0  0  0
   49.8108    4.7713   18.5099 C   0  0  0  0  0  0  0  0  0  0  0  0
   48.4909    5.2057   18.7144 C   0  0  0  0  0  0  0  0  0  0  0  0
   49.0308    2.8821   17.2399 C   0  0  0  0  0  0  0  0  0  0  0  0
   47.2098    7.3645   21.6496 N   0  0  0  0  0  0  0  0  0  0  0  0
   47.4435    4.4430   18.1833 C   0  0  0  0  0  0  0  0  0  0  0  0
   48.1419    7.9065   22.6485 C   0  0  0  0  0  0  0  0  0  0  0  0
   47.7142    3.2903   17.4482 C   0  0  0  0  0  0  0  0  0  0  0  0
   47.6244    6.1604   20.9111 C   0  0  0  0  0  0  0  0  0  0  0  0
   48.2161    6.4660   19.5099 C   0  0  2  0  0  0  0  0  0  0  0  0
   49.1830    1.7599   16.4768 O   0  0  0  0  0  0  0  0  0  0  0  0
   51.5395    3.1778   17.6191 C   0  0  0  0  0  0  0  0  0  0  0  0
   47.3235    7.3236   18.7855 O   0  0  0  0  0  0  0  0  0  0  0  0
   52.2894    3.3918   18.8103 O   0  0  0  0  0  0  0  0  0  0  0  0
   49.5385    8.2012   22.0824 C   0  0  0  0  0  0  0  0  0  0  0  0
   47.5278    9.2320   23.1414 C   0  0  0  0  0  0  0  0  0  0  0  0
   48.2541    6.9546   23.8520 C   0  0  0  0  0  0  0  0  0  0  0  0
   48.6559    8.6315   22.5013 C   0  0  0  0  0  0  0  0  0  0  0  0
   48.1865    7.5784   21.6984 C   0  0  0  0  0  0  0  0  0  0  0  0
   48.7069    6.2776   21.8154 C   0  0  0  0  0  0  0  0  0  0  0  0
   49.6838    8.3601   23.4120 C   0  0  0  0  0  0  0  0  0  0  0  0
   48.4800    3.9599   18.7875 N   0  0  0  0  0  0  0  0  0  0  0  0
   49.7326    6.0443   22.7432 C   0  0  0  0  0  0  0  0  0  0  0  0
   49.1170    3.7912   17.4653 C   0  0  0  0  0  0  0  0  0  0  0  0
   50.2197    7.0826   23.5367 C   0  0  0  0  0  0  0  0  0  0  0  0
   49.0677    5.0056   19.6507 C   0  0  0  0  0  0  0  0  0  0  0  0
   48.2158    5.1475   20.9374 C   0  0  2  0  0  0  0  0  0  0  0  0
   50.2052    9.3285   24.2250 O   0  0  0  0  0  0  0  0  0  0  0  0
   48.0916   10.0113   22.3062 C   0  0  0  0  0  0  0  0  0  0  0  0
   46.8480    5.3566   20.5628 O   0  0  0  0  0  0  0  0  0  0  0  0
   48.0247   10.6916   23.5593 O   0  0  0  0  0  0  0  0  0  0  0  0
   50.5947    3.3830   17.5840 C   0  0  0  0  0  0  0  0  0  0  0  0
   48.3502    2.6518   16.7656 C   0  0  0  0  0  0  0  0  0  0  0  0
   48.9882    5.0580   16.6035 C   0  0  0  0  0  0  0  0  0  0  0  0
   48.0864    3.4736   20.2413 O   0  0  0  0  0  0  0  0  0  0  0  0
   49.5505    3.6434   18.5747 O   0  0  0  0  0  0  0  0  0  0  0  0
   49.8513    7.4827   21.8186 O   0  0  0  0  0  0  0  0  0  0  0  0
   50.3128    5.3447   21.3737 O   0  0  0  0  0  0  0  0  0  0  0  0
   48.9294    6.4447   18.2627 O   0  0  0  0  0  0  0  0  0  0  0  0
   47.7358    7.6715   20.3544 O   0  0  0  0  0  0  0  0  0  0  0  0
   48.7198    4.1871   19.2836 C   0  0  0  0  0  0  0  0  0  0  0  0
   48.2159    5.6271   19.1956 C   0  0  1  0  0  0  0  0  0  0  0  0
   48.1870    6.3165   20.5607 C   0  0  1  0  0  0  0  0  0  0  0  0
   49.5535    6.2884   21.2490 C   0  0  0  0  0  0  0  0  0  0  0  0
   50.6354    5.3554   18.9210 H   0  0  0  0  0  0  0  0  0  0  0  0
   46.9681    8.0762   20.9524 H   0  0  0  0  0  0  0  0  0  0  0  0
   46.4091    4.7478   18.3338 H   0  0  0  0  0  0  0  0  0  0  0  0
   46.8955    2.7123   17.0271 H   0  0  0  0  0  0  0  0  0  0  0  0
   48.3044    5.5228   21.4857 H   0  0  0  0  0  0  0  0  0  0  0  0
   46.7062    5.5753   20.7757 H   0  0  0  0  0  0  0  0  0  0  0  0
   49.1480    7.0302   19.6147 H   0  0  0  0  0  0  0  0  0  0  0  0
   50.0711    1.7386   16.0901 H   0  0  0  0  0  0  0  0  0  0  0  0
   51.6281    2.1142   17.3825 H   0  0  0  0  0  0  0  0  0  0  0  0
   51.9989    3.7523   16.8088 H   0  0  0  0  0  0  0  0  0  0  0  0
   47.4951    7.1780   17.8389 H   0  0  0  0  0  0  0  0  0  0  0  0
   51.7660    3.0186   19.5418 H   0  0  0  0  0  0  0  0  0  0  0  0
   50.1664    8.6989   22.8305 H   0  0  0  0  0  0  0  0  0  0  0  0
   49.4838    8.8630   21.2106 H   0  0  0  0  0  0  0  0  0  0  0  0
   50.0605    7.2852   21.7862 H   0  0  0  0  0  0  0  0  0  0  0  0
   48.1499    9.6905   23.9189 H   0  0  0  0  0  0  0  0  0  0  0  0
   46.5296    9.0774   23.5685 H   0  0  0  0  0  0  0  0  0  0  0  0
   47.4339    9.9588   22.3256 H   0  0  0  0  0  0  0  0  0  0  0  0
   47.2667    6.7149   24.2638 H   0  0  0  0  0  0  0  0  0  0  0  0
   48.7456    6.0120   23.5905 H   0  0  0  0  0  0  0  0  0  0  0  0
   48.8419    7.4104   24.6572 H   0  0  0  0  0  0  0  0  0  0  0  0
   47.3985    7.7663   20.9693 H   0  0  0  0  0  0  0  0  0  0  0  0
   48.5214    3.0682   19.2868 H   0  0  0  0  0  0  0  0  0  0  0  0
   50.1610    5.0510   22.8561 H   0  0  0  0  0  0  0  0  0  0  0  0
   51.0139    6.8977   24.2548 H   0  0  0  0  0  0  0  0  0  0  0  0
   49.0588    5.9661   19.1247 H   0  0  0  0  0  0  0  0  0  0  0  0
   50.1022    4.7646   19.9180 H   0  0  0  0  0  0  0  0  0  0  0  0
   48.2386    4.2103   21.5074 H   0  0  0  0  0  0  0  0  0  0  0  0
   49.6398   10.1245   24.1318 H   0  0  0  0  0  0  0  0  0  0  0  0
   48.7402   10.5850   21.6368 H   0  0  0  0  0  0  0  0  0  0  0  0
   47.0833    9.9847   21.8804 H   0  0  0  0  0  0  0  0  0  0  0  0
   46.7475    4.8439   19.7345 H   0  0  0  0  0  0  0  0  0  0  0  0
   47.3162   10.2468   24.0622 H   0  0  0  0  0  0  0  0  0  0  0  0
   50.7143    2.4979   18.2198 H   0  0  0  0  0  0  0  0  0  0  0  0
   51.0131    3.1399   16.6002 H   0  0  0  0  0  0  0  0  0  0  0  0
   51.2088    4.1865   18.0044 H   0  0  0  0  0  0  0  0  0  0  0  0
   48.4268    1.7122   17.3254 H   0  0  0  0  0  0  0  0  0  0  0  0
   48.7477    2.4667   15.7608 H   0  0  0  0  0  0  0  0  0  0  0  0
   47.2857    2.8922   16.6588 H   0  0  0  0  0  0  0  0  0  0  0  0
   47.9488    5.4029   16.5560 H   0  0  0  0  0  0  0  0  0  0  0  0
   49.6012    5.8808   16.9863 H   0  0  0  0  0  0  0  0  0  0  0  0
   49.3174    4.8666   15.5754 H   0  0  0  0  0  0  0  0  0  0  0  0
   48.5227    2.5953   20.1828 H   0  0  0  0  0  0  0  0  0  0  0  0
   50.7417    7.3378   22.2082 H   0  0  0  0  0  0  0  0  0  0  0  0
   48.5803    7.3488   18.3914 H   0  0  0  0  0  0  0  0  0  0  0  0
   48.1021    8.1829   21.1053 H   0  0  0  0  0  0  0  0  0  0  0  0
   47.1937    5.5720   18.8017 H   0  0  0  0  0  0  0  0  0  0  0  0
   47.4749    5.8361   21.2405 H   0  0  0  0  0  0  0  0  0  0  0  0
 10  3  1  0
 11  4  1  0
 12  1  1  0
 10 13  1  0
 14 12  1  0
 15  7  1  0
 16  7  1  0
 17  7  1  0
  6  8  1  0
  2  1  2  0
  3  2  1  0
  4  1  1  0
  5  9  1  0
  6  3  2  0
  7  5  1  0
  8  4  2  0
  9 10  1  0
 27 20  1  0
 28 21  1  0
 29 18  1  0
 27 30  1  0
 31 29  1  0
 32 24  1  0
 33 24  1  0
 34 24  1  0
 23 25  1  0
 19 18  2  0
 20 19  1  0
 21 18  1  0
 22 26  1  0
 23 20  2  0
 24 22  1  0
 25 21  2  0
 26 27  1  0
 41 36  2  0
 42 39  1  0
 43 40  1  0
 41 35  1  0
 43 44  1  0
 42 43  1  0
 44 37  1  0
 41 42  1  0
 44 38  2  0
  2 45  1  0
  5 46  1  0
  6 47  1  0
  8 48  1  0
  9 49  1  0
  9 50  1  0
 10 51  1  1
 11 52  1  0
 12 53  1  0
 12 54  1  0
 13 55  1  0
 14 56  1  0
 15 57  1  0
 15 58  1  0
 15 59  1  0
 16 60  1  0
 16 61  1  0
 16 62  1  0
 17 63  1  0
 17 64  1  0
 17 65  1  0
 19 66  1  0
 22 67  1  0
 23 68  1  0
 25 69  1  0
 26 70  1  0
 26 71  1  0
 27 72  1  6
 28 73  1  0
 29 74  1  0
 29 75  1  0
 30 76  1  0
 31 77  1  0
 32 78  1  0
 32 79  1  0
 32 80  1  0
 33 81  1  0
 33 82  1  0
 33 83  1  0
 34 84  1  0
 34 85  1  0
 34 86  1  0
 35 87  1  0
 37 88  1  0
 39 89  1  0
 40 90  1  0
 42 91  1  6
 43 92  1  6
M  END
> <Uni-Dock RESULT> 
ENERGY=   -6.212  LOWER_BOUND=    7.557  UPPER_BOUND=    9.017
INTER + INTRA:          -6.212
INTER:                  -6.212
INTRA:                   0.000
UNBOUND:                 0.000

$$$$

     RDKit          3D

 92 91  0  0  0  0  0  0  0  0999 V2000
   47.8680    3.9129   16.0851 C   0  0  0  0  0  0  0  0  0  0  0  0
   47.6097    4.9808   16.9687 C   0  0  0  0  0  0  0  0  0  0  0  0
   48.2224    5.0617   18.2299 C   0  0  0  0  0  0  0  0  0  0  0  0
   48.7262    2.8969   16.5198 C   0  0  0  0  0  0  0  0  0  0  0  0
   48.9457    8.2847   20.2317 N   0  0  0  0  0  0  0  0  0  0  0  0
   49.1091    4.0475   18.6116 C   0  0  0  0  0  0  0  0  0  0  0  0
   48.4869    9.5930   19.7437 C   0  0  0  0  0  0  0  0  0  0  0  0
   49.3555    2.9709   17.7615 C   0  0  0  0  0  0  0  0  0  0  0  0
   49.1368    7.2142   19.2392 C   0  0  0  0  0  0  0  0  0  0  0  0
   47.9363    6.2361   19.1441 C   0  0  2  0  0  0  0  0  0  0  0  0
   49.0119    1.7832   15.7831 O   0  0  0  0  0  0  0  0  0  0  0  0
   47.1862    3.8930   14.7419 C   0  0  0  0  0  0  0  0  0  0  0  0
   47.5887    5.7695   20.4550 O   0  0  0  0  0  0  0  0  0  0  0  0
   47.1391    5.1930   14.1632 O   0  0  0  0  0  0  0  0  0  0  0  0
   47.1885    9.5180   18.9274 C   0  0  0  0  0  0  0  0  0  0  0  0
   48.2255   10.4557   20.9944 C   0  0  0  0  0  0  0  0  0  0  0  0
   49.5891   10.2746   18.9143 C   0  0  0  0  0  0  0  0  0  0  0  0
   47.6370    9.8799   19.8260 C   0  0  0  0  0  0  0  0  0  0  0  0
   48.2368    8.6272   19.6135 C   0  0  0  0  0  0  0  0  0  0  0  0
   48.8189    8.2919   18.3785 C   0  0  0  0  0  0  0  0  0  0  0  0
   47.6075   10.7873   18.7605 C   0  0  0  0  0  0  0  0  0  0  0  0
   49.0712    4.5973   17.4416 N   0  0  0  0  0  0  0  0  0  0  0  0
   48.7740    9.2301   17.3368 C   0  0  0  0  0  0  0  0  0  0  0  0
   48.1872    3.4981   17.0024 C   0  0  0  0  0  0  0  0  0  0  0  0
   48.1687   10.4720   17.5275 C   0  0  0  0  0  0  0  0  0  0  0  0
   48.4321    5.9253   17.5518 C   0  0  0  0  0  0  0  0  0  0  0  0
   49.4474    6.9360   18.1426 C   0  0  2  0  0  0  0  0  0  0  0  0
   47.0359   12.0241   18.8785 O   0  0  0  0  0  0  0  0  0  0  0  0
   46.9943   10.1704   21.1538 C   0  0  0  0  0  0  0  0  0  0  0  0
   49.9695    6.4015   19.3660 O   0  0  0  0  0  0  0  0  0  0  0  0
   47.1685   11.5470   21.4881 O   0  0  0  0  0  0  0  0  0  0  0  0
   47.6102    3.7466   15.5991 C   0  0  0  0  0  0  0  0  0  0  0  0
   49.0708    2.2361   16.9509 C   0  0  0  0  0  0  0  0  0  0  0  0
   47.0476    3.2469   18.0036 C   0  0  0  0  0  0  0  0  0  0  0  0
   50.2928    5.5878   17.2646 O   0  0  0  0  0  0  0  0  0  0  0  0
   48.5294    4.5054   16.4469 O   0  0  0  0  0  0  0  0  0  0  0  0
   47.3440    9.0491   18.2644 O   0  0  0  0  0  0  0  0  0  0  0  0
   48.2474    7.8526   16.6108 O   0  0  0  0  0  0  0  0  0  0  0  0
   46.9449    5.2816   18.7310 O   0  0  0  0  0  0  0  0  0  0  0  0
   47.8329    7.3864   20.1753 O   0  0  0  0  0  0  0  0  0  0  0  0
   49.0058    5.1816   17.3435 C   0  0  0  0  0  0  0  0  0  0  0  0
   48.3365    5.6048   18.6505 C   0  0  1  0  0  0  0  0  0  0  0  0
   48.5333    7.0921   18.9485 C   0  0  1  0  0  0  0  0  0  0  0  0
   48.0384    7.9790   17.8037 C   0  0  0  0  0  0  0  0  0  0  0  0
   46.9189    5.7662   16.6586 H   0  0  0  0  0  0  0  0  0  0  0  0
   48.3104    7.9197   20.9487 H   0  0  0  0  0  0  0  0  0  0  0  0
   49.6079    4.0873   19.5786 H   0  0  0  0  0  0  0  0  0  0  0  0
   50.0342    2.1805   18.0721 H   0  0  0  0  0  0  0  0  0  0  0  0
   49.4017    7.5964   18.2479 H   0  0  0  0  0  0  0  0  0  0  0  0
   50.0115    6.6511   19.5879 H   0  0  0  0  0  0  0  0  0  0  0  0
   47.0528    6.7664   18.7753 H   0  0  0  0  0  0  0  0  0  0  0  0
   48.3094    1.6238   15.1352 H   0  0  0  0  0  0  0  0  0  0  0  0
   47.7142    3.2541   14.0290 H   0  0  0  0  0  0  0  0  0  0  0  0
   46.1627    3.5206   14.8488 H   0  0  0  0  0  0  0  0  0  0  0  0
   47.1446    4.9111   20.3426 H   0  0  0  0  0  0  0  0  0  0  0  0
   48.0346    5.5675   14.2420 H   0  0  0  0  0  0  0  0  0  0  0  0
   46.8279   10.5217   18.6737 H   0  0  0  0  0  0  0  0  0  0  0  0
   46.3920    9.0183   19.4903 H   0  0  0  0  0  0  0  0  0  0  0  0
   47.3303    8.9820   17.9831 H   0  0  0  0  0  0  0  0  0  0  0  0
   47.9074   11.4675   20.7168 H   0  0  0  0  0  0  0  0  0  0  0  0
   49.1274   10.5528   21.6106 H   0  0  0  0  0  0  0  0  0  0  0  0
   47.4363   10.0244   21.6218 H   0  0  0  0  0  0  0  0  0  0  0  0
   50.5327   10.3245   19.4702 H   0  0  0  0  0  0  0  0  0  0  0  0
   49.7826    9.7512   17.9724 H   0  0  0  0  0  0  0  0  0  0  0  0
   49.3062   11.3022   18.6580 H   0  0  0  0  0  0  0  0  0  0  0  0
   48.2582    7.8958   20.4212 H   0  0  0  0  0  0  0  0  0  0  0  0
   49.8538    4.6691   16.7872 H   0  0  0  0  0  0  0  0  0  0  0  0
   49.2105    9.0014   16.3672 H   0  0  0  0  0  0  0  0  0  0  0  0
   48.1365   11.1962   16.7182 H   0  0  0  0  0  0  0  0  0  0  0  0
   47.5726    5.8661   18.2280 H   0  0  0  0  0  0  0  0  0  0  0  0
   48.0835    6.2804   16.5761 H   0  0  0  0  0  0  0  0  0  0  0  0
   50.3035    7.0468   17.4655 H   0  0  0  0  0  0  0  0  0  0  0  0
   46.8194   12.1574   19.8258 H   0  0  0  0  0  0  0  0  0  0  0  0
   45.9211    9.9621   21.0987 H   0  0  0  0  0  0  0  0  0  0  0  0
   47.4278    9.5682   21.9589 H   0  0  0  0  0  0  0  0  0  0  0  0
   49.9831    5.4339   19.2159 H   0  0  0  0  0  0  0  0  0  0  0  0
   48.1178   11.6502   21.6902 H   0  0  0  0  0  0  0  0  0  0  0  0
   48.4039    3.9580   14.8730 H   0  0  0  0  0  0  0  0  0  0  0  0
   47.0625    2.8670   15.2405 H   0  0  0  0  0  0  0  0  0  0  0  0
   46.9090    4.5879   15.5879 H   0  0  0  0  0  0  0  0  0  0  0  0
   49.8911    2.3484   16.2322 H   0  0  0  0  0  0  0  0  0  0  0  0
   48.4886    1.3582   16.6475 H   0  0  0  0  0  0  0  0  0  0  0  0
   49.5116    2.0157   17.9304 H   0  0  0  0  0  0  0  0  0  0  0  0
   47.4326    3.1282   19.0231 H   0  0  0  0  0  0  0  0  0  0  0  0
   46.3174    4.0630   18.0099 H   0  0  0  0  0  0  0  0  0  0  0  0
   46.5002    2.3311   17.7512 H   0  0  0  0  0  0  0  0  0  0  0  0
   50.5713    5.2586   16.3818 H   0  0  0  0  0  0  0  0  0  0  0  0
   47.0767    9.5217   17.4453 H   0  0  0  0  0  0  0  0  0  0  0  0
   46.6290    5.7022   19.5551 H   0  0  0  0  0  0  0  0  0  0  0  0
   47.6234    8.3423   20.1301 H   0  0  0  0  0  0  0  0  0  0  0  0
   48.8117    5.0157   19.4445 H   0  0  0  0  0  0  0  0  0  0  0  0
   49.5891    7.3352   19.1099 H   0  0  0  0  0  0  0  0  0  0  0  0
 10  3  1  0
 11  4  1  0
 12  1  1  0
 10 13  1  0
 14 12  1  0
 15  7  1  0
 16  7  1  0
 17  7  1  0
  6  8  1  0
  2  1  2  0
  3  2  1  0
  4  1  1  0
  5  9  1  0
  6  3  2  0
  7  5  1  0
  8  4  2  0
  9 10  1  0
 27 20  1  0
 28 21  1  0
 29 18  1  0
 27 30  1  0
 31 29  1  0
 32 24  1  0
 33 24  1  0
 34 24  1  0
 23 25  1  0
 19 18  2  0
 20 19  1  0
 21 18  1  0
 22 26  1  0
 23 20  2  0
 24 22  1  0
 25 21  2  0
 26 27  1  0
 41 36  2  0
 42 39  1  0
 43 40  1  0
 41 35  1  0
 43 44  1  0
 42 43  1  0
 44 37  1  0
 41 42  1  0
 44 38  2  0
  2 45  1  0
  5 46  1  0
  6 47  1  0
  8 48  1  0
  9 49  1  0
  9 50  1  0
 10 51  1  1
 11 52  1  0
 12 53  1  0
 12 54  1  0
 13 55  1  0
 14 56  1  0
 15 57  1  0
 15 58  1  0
 15 59  1  0
 16 60  1  0
 16 61  1  0
 16 62  1  0
 17 63  1  0
 17 64  1  0
 17 65  1  0
 19 66  1  0
 22 67  1  0
 23 68  1  0
 25 69  1  0
 26 70  1  0
 26 71  1  0
 27 72  1  6
 28 73  1  0
 29 74  1  0
 29 75  1  0
 30 76  1  0
 31 77  1  0
 32 78  1  0
 32 79  1  0
 32 80  1  0
 33 81  1  0
 33 82  1  0
 33 83  1  0
 34 84  1  0
 34 85  1  0
 34 86  1  0
 35 87  1  0
 37 88  1  0
 39 89  1  0
 40 90  1  0
 42 91  1  6
 43 92  1  6
M  END
> <Uni-Dock RESULT> 
ENERGY=   -6.042  LOWER_BOUND=    5.417  UPPER_BOUND=    6.853
INTER + INTRA:          -6.042
INTER:                  -6.042
INTRA:                   0.000
UNBOUND:                 0.000

$$$$

     RDKit          3D

 92 91  0  0  0  0  0  0  0  0999 V2000
   50.0042    7.6893   15.4853 C   0  0  0  0  0  0  0  0  0  0  0  0
   48.6975    7.4703   15.0035 C   0  0  0  0  0  0  0  0  0  0  0  0
   48.2085    8.1315   13.8649 C   0  0  0  0  0  0  0  0  0  0  0  0
   50.7980    8.6298   14.8195 C   0  0  0  0  0  0  0  0  0  0  0  0
   45.4620    6.8557   11.4677 N   0  0  0  0  0  0  0  0  0  0  0  0
   49.0484    9.0332   13.2001 C   0  0  0  0  0  0  0  0  0  0  0  0
   44.7380    5.6078   11.7483 C   0  0  0  0  0  0  0  0  0  0  0  0
   50.3338    9.2818   13.6781 C   0  0  0  0  0  0  0  0  0  0  0  0
   46.8008    7.0163   12.0587 C   0  0  0  0  0  0  0  0  0  0  0  0
   46.8052    7.8542   13.3644 C   0  0  2  0  0  0  0  0  0  0  0  0
   52.0575    8.9736   15.2198 O   0  0  0  0  0  0  0  0  0  0  0  0
   50.4701    6.9384   16.7053 C   0  0  0  0  0  0  0  0  0  0  0  0
   46.1041    9.0867   13.1494 O   0  0  0  0  0  0  0  0  0  0  0  0
   50.0235    5.5866   16.6859 O   0  0  0  0  0  0  0  0  0  0  0  0
   44.5912    5.3122   13.2480 C   0  0  0  0  0  0  0  0  0  0  0  0
   43.3288    5.7785   11.1465 C   0  0  0  0  0  0  0  0  0  0  0  0
   45.4183    4.4210   11.0442 C   0  0  0  0  0  0  0  0  0  0  0  0
   44.0683    5.5502   12.3482 C   0  0  0  0  0  0  0  0  0  0  0  0
   45.2586    6.2927   12.2700 C   0  0  0  0  0  0  0  0  0  0  0  0
   46.5142    5.6892   12.4589 C   0  0  0  0  0  0  0  0  0  0  0  0
   44.1596    4.1859   12.6484 C   0  0  0  0  0  0  0  0  0  0  0  0
   49.4110    7.8760   13.6497 N   0  0  0  0  0  0  0  0  0  0  0  0
   46.5645    4.3187   12.7528 C   0  0  0  0  0  0  0  0  0  0  0  0
   49.8633    8.5473   14.8856 C   0  0  0  0  0  0  0  0  0  0  0  0
   45.3911    3.5712   12.8487 C   0  0  0  0  0  0  0  0  0  0  0  0
   48.2173    7.0162   13.7904 C   0  0  0  0  0  0  0  0  0  0  0  0
   47.7951    6.4920   12.3945 C   0  0  2  0  0  0  0  0  0  0  0  0
   43.0509    3.3918   12.7523 O   0  0  0  0  0  0  0  0  0  0  0  0
   42.7511    6.2544   12.1773 C   0  0  0  0  0  0  0  0  0  0  0  0
   47.6470    7.6095   11.5090 O   0  0  0  0  0  0  0  0  0  0  0  0
   41.8224    5.3959   11.5156 O   0  0  0  0  0  0  0  0  0  0  0  0
   50.2615    7.5403   15.9772 C   0  0  0  0  0  0  0  0  0  0  0  0
   51.1115    9.3629   14.4947 C   0  0  0  0  0  0  0  0  0  0  0  0
   48.8033    9.5201   15.4279 C   0  0  0  0  0  0  0  0  0  0  0  0
   49.5754    6.8531   12.4533 O   0  0  0  0  0  0  0  0  0  0  0  0
   49.7824    7.3834   14.6041 O   0  0  0  0  0  0  0  0  0  0  0  0
   45.3540    5.2284   13.5559 O   0  0  0  0  0  0  0  0  0  0  0  0
   47.5449    4.9740   13.8978 O   0  0  0  0  0  0  0  0  0  0  0  0
   47.0989    8.4455   14.6406 O   0  0  0  0  0  0  0  0  0  0  0  0
   45.4418    7.6462   12.6607 O   0  0  0  0  0  0  0  0  0  0  0  0
   49.0888    7.3770   13.6006 C   0  0  0  0  0  0  0  0  0  0  0  0
   47.6912    7.9704   13.4277 C   0  0  1  0  0  0  0  0  0  0  0  0
   46.7307    7.0017   12.7359 C   0  0  1  0  0  0  0  0  0  0  0  0
   46.6361    5.6622   13.4698 C   0  0  0  0  0  0  0  0  0  0  0  0
   48.0537    6.7632   15.5287 H   0  0  0  0  0  0  0  0  0  0  0  0
   44.9085    7.6703   11.7521 H   0  0  0  0  0  0  0  0  0  0  0  0
   48.7022    9.5535   12.3085 H   0  0  0  0  0  0  0  0  0  0  0  0
   50.9739    9.9944   13.1640 H   0  0  0  0  0  0  0  0  0  0  0  0
   47.3148    6.0616   12.2119 H   0  0  0  0  0  0  0  0  0  0  0  0
   47.3863    7.5550   11.3032 H   0  0  0  0  0  0  0  0  0  0  0  0
   46.2468    7.3289   14.1453 H   0  0  0  0  0  0  0  0  0  0  0  0
   52.1737    8.7731   16.1606 H   0  0  0  0  0  0  0  0  0  0  0  0
   51.5610    6.9048   16.7683 H   0  0  0  0  0  0  0  0  0  0  0  0
   50.0857    7.4207   17.6093 H   0  0  0  0  0  0  0  0  0  0  0  0
   46.4476    9.7259   13.7975 H   0  0  0  0  0  0  0  0  0  0  0  0
   50.2265    5.2371   15.8000 H   0  0  0  0  0  0  0  0  0  0  0  0
   43.9580    4.4326   13.4128 H   0  0  0  0  0  0  0  0  0  0  0  0
   44.1259    6.1522   13.7762 H   0  0  0  0  0  0  0  0  0  0  0  0
   45.5572    5.1026   13.7192 H   0  0  0  0  0  0  0  0  0  0  0  0
   42.7278    4.8722   11.2850 H   0  0  0  0  0  0  0  0  0  0  0  0
   43.3742    5.9809   10.0697 H   0  0  0  0  0  0  0  0  0  0  0  0
   42.7877    6.6064   11.6201 H   0  0  0  0  0  0  0  0  0  0  0  0
   45.5503    4.6156    9.9733 H   0  0  0  0  0  0  0  0  0  0  0  0
   46.4025    4.1966   11.4675 H   0  0  0  0  0  0  0  0  0  0  0  0
   44.8135    3.5117   11.1388 H   0  0  0  0  0  0  0  0  0  0  0  0
   45.2149    7.3602   12.0545 H   0  0  0  0  0  0  0  0  0  0  0  0
   50.1788    7.3057   13.2874 H   0  0  0  0  0  0  0  0  0  0  0  0
   47.5190    3.8212   12.9094 H   0  0  0  0  0  0  0  0  0  0  0  0
   45.4343    2.5095   13.0759 H   0  0  0  0  0  0  0  0  0  0  0  0
   47.3883    7.6006   14.2034 H   0  0  0  0  0  0  0  0  0  0  0  0
   48.4137    6.1704   14.4581 H   0  0  0  0  0  0  0  0  0  0  0  0
   48.5923    5.8680   11.9714 H   0  0  0  0  0  0  0  0  0  0  0  0
   42.2830    3.9197   12.4462 H   0  0  0  0  0  0  0  0  0  0  0  0
   42.3411    6.5151   13.1581 H   0  0  0  0  0  0  0  0  0  0  0  0
   42.8499    7.1691   11.5837 H   0  0  0  0  0  0  0  0  0  0  0  0
   48.3202    8.2494   11.8193 H   0  0  0  0  0  0  0  0  0  0  0  0
   42.1403    5.3244   10.5955 H   0  0  0  0  0  0  0  0  0  0  0  0
   50.9955    6.8166   15.6038 H   0  0  0  0  0  0  0  0  0  0  0  0
   50.7121    8.0524   16.8355 H   0  0  0  0  0  0  0  0  0  0  0  0
   49.3978    6.9819   16.3537 H   0  0  0  0  0  0  0  0  0  0  0  0
   51.9140    8.7160   14.1210 H   0  0  0  0  0  0  0  0  0  0  0  0
   51.5094    9.9132   15.3552 H   0  0  0  0  0  0  0  0  0  0  0  0
   50.8815   10.0967   13.7129 H   0  0  0  0  0  0  0  0  0  0  0  0
   48.4592   10.2089   14.6476 H   0  0  0  0  0  0  0  0  0  0  0  0
   47.9287    8.9958   15.8270 H   0  0  0  0  0  0  0  0  0  0  0  0
   49.2112   10.1272   16.2446 H   0  0  0  0  0  0  0  0  0  0  0  0
   50.4535    6.5075   12.7270 H   0  0  0  0  0  0  0  0  0  0  0  0
   45.4285    4.3823   14.0500 H   0  0  0  0  0  0  0  0  0  0  0  0
   46.1824    8.6889   14.4028 H   0  0  0  0  0  0  0  0  0  0  0  0
   44.7905    6.9163   12.6112 H   0  0  0  0  0  0  0  0  0  0  0  0
   47.8110    8.8628   12.8011 H   0  0  0  0  0  0  0  0  0  0  0  0
   47.0464    6.7842   11.7097 H   0  0  0  0  0  0  0  0  0  0  0  0
 10  3  1  0
 11  4  1  0
 12  1  1  0
 10 13  1  0
 14 12  1  0
 15  7  1  0
 16  7  1  0
 17  7  1  0
  6  8  1  0
  2  1  2  0
  3  2  1  0
  4  1  1  0
  5  9  1  0
  6  3  2  0
  7  5  1  0
  8  4  2  0
  9 10  1  0
 27 20  1  0
 28 21  1  0
 29 18  1  0
 27 30  1  0
 31 29  1  0
 32 24  1  0
 33 24  1  0
 34 24  1  0
 23 25  1  0
 19 18  2  0
 20 19  1  0
 21 18  1  0
 22 26  1  0
 23 20  2  0
 24 22  1  0
 25 21  2  0
 26 27  1  0
 41 36  2  0
 42 39  1  0
 43 40  1  0
 41 35  1  0
 43 44  1  0
 42 43  1  0
 44 37  1  0
 41 42  1  0
 44 38  2  0
  2 45  1  0
  5 46  1  0
  6 47  1  0
  8 48  1  0
  9 49  1  0
  9 50  1  0
 10 51  1  1
 11 52  1  0
 12 53  1  0
 12 54  1  0
 13 55  1  0
 14 56  1  0
 15 57  1  0
 15 58  1  0
 15 59  1  0
 16 60  1  0
 16 61  1  0
 16 62  1  0
 17 63  1  0
 17 64  1  0
 17 65  1  0
 19 66  1  0
 22 67  1  0
 23 68  1  0
 25 69  1  0
 26 70  1  0
 26 71  1  0
 27 72  1  6
 28 73  1  0
 29 74  1  0
 29 75  1  0
 30 76  1  0
 31 77  1  0
 32 78  1  0
 32 79  1  0
 32 80  1  0
 33 81  1  0
 33 82  1  0
 33 83  1  0
 34 84  1  0
 34 85  1  0
 34 86  1  0
 35 87  1  0
 37 88  1  0
 39 89  1  0
 40 90  1  0
 42 91  1  6
 43 92  1  6
M  END
> <Uni-Dock RESULT> 
ENERGY=   -5.772  LOWER_BOUND=    1.789  UPPER_BOUND=    6.323
INTER + INTRA:          -5.772
INTER:                  -5.772
INTRA:                   0.000
UNBOUND:                 0.000

$$$$

     RDKit          3D

 92 91  0  0  0  0  0  0  0  0999 V2000
   46.7702    7.4208   13.0212 C   0  0  0  0  0  0  0  0  0  0  0  0
   47.9456    7.0352   13.6975 C   0  0  0  0  0  0  0  0  0  0  0  0
   48.9522    7.9609   14.0174 C   0  0  0  0  0  0  0  0  0  0  0  0
   46.6497    8.7586   12.6295 C   0  0  0  0  0  0  0  0  0  0  0  0
   51.4597    7.7105   16.9444 N   0  0  0  0  0  0  0  0  0  0  0  0
   48.7753    9.2995   13.6468 C   0  0  0  0  0  0  0  0  0  0  0  0
   51.4965    6.5191   17.8045 C   0  0  0  0  0  0  0  0  0  0  0  0
   47.6317    9.6932   12.9543 C   0  0  0  0  0  0  0  0  0  0  0  0
   50.2027    8.0029   16.2361 C   0  0  0  0  0  0  0  0  0  0  0  0
   50.1925    7.5128   14.7641 C   0  0  2  0  0  0  0  0  0  0  0  0
   45.5890    9.2451   11.9201 O   0  0  0  0  0  0  0  0  0  0  0  0
   45.7244    6.3795   12.7189 C   0  0  0  0  0  0  0  0  0  0  0  0
   51.3704    7.9795   14.0918 O   0  0  0  0  0  0  0  0  0  0  0  0
   45.5582    5.4779   13.8083 O   0  0  0  0  0  0  0  0  0  0  0  0
   51.0961    5.2284   17.0754 C   0  0  0  0  0  0  0  0  0  0  0  0
   52.9548    6.3742   18.2835 C   0  0  0  0  0  0  0  0  0  0  0  0
   50.6044    6.7208   19.0416 C   0  0  0  0  0  0  0  0  0  0  0  0
   51.8924    5.7473   17.5614 C   0  0  0  0  0  0  0  0  0  0  0  0
   51.1864    6.7499   16.8755 C   0  0  0  0  0  0  0  0  0  0  0  0
   49.7942    6.8908   17.0104 C   0  0  0  0  0  0  0  0  0  0  0  0
   51.1672    4.8645   18.3703 C   0  0  0  0  0  0  0  0  0  0  0  0
   47.8595    8.5460   14.1628 N   0  0  0  0  0  0  0  0  0  0  0  0
   49.1036    5.9900   17.8344 C   0  0  0  0  0  0  0  0  0  0  0  0
   47.4100    8.2292   12.7916 C   0  0  0  0  0  0  0  0  0  0  0  0
   49.7881    4.9800   18.5099 C   0  0  0  0  0  0  0  0  0  0  0  0
   48.5030    7.4360   14.8962 C   0  0  0  0  0  0  0  0  0  0  0  0
   49.0305    7.9576   16.2568 C   0  0  2  0  0  0  0  0  0  0  0  0
   51.7739    3.8550   19.0655 O   0  0  0  0  0  0  0  0  0  0  0  0
   53.3751    5.6172   17.3492 C   0  0  0  0  0  0  0  0  0  0  0  0
   49.8614    9.1015   16.0200 O   0  0  0  0  0  0  0  0  0  0  0  0
   54.0059    5.2037   18.5610 O   0  0  0  0  0  0  0  0  0  0  0  0
   46.3518    7.1138   12.7740 C   0  0  0  0  0  0  0  0  0  0  0  0
   46.7685    9.5198   12.2451 C   0  0  0  0  0  0  0  0  0  0  0  0
   48.5874    7.8526   11.8773 C   0  0  0  0  0  0  0  0  0  0  0  0
   47.6168    8.9410   15.6760 O   0  0  0  0  0  0  0  0  0  0  0  0
   47.0747    7.7841   13.8546 O   0  0  0  0  0  0  0  0  0  0  0  0
   50.3151    5.3240   16.8212 O   0  0  0  0  0  0  0  0  0  0  0  0
   48.2130    5.9778   16.4530 O   0  0  0  0  0  0  0  0  0  0  0  0
   49.8369    7.0510   13.4508 O   0  0  0  0  0  0  0  0  0  0  0  0
   51.4818    7.2643   15.5847 O   0  0  0  0  0  0  0  0  0  0  0  0
   47.9463    8.1691   14.6163 C   0  0  0  0  0  0  0  0  0  0  0  0
   49.4535    7.9449   14.5004 C   0  0  1  0  0  0  0  0  0  0  0  0
   50.0744    7.4803   15.8188 C   0  0  1  0  0  0  0  0  0  0  0  0
   49.4036    6.2143   16.3566 C   0  0  0  0  0  0  0  0  0  0  0  0
   48.0704    5.9897   13.9832 H   0  0  0  0  0  0  0  0  0  0  0  0
   52.2011    7.6729   16.2375 H   0  0  0  0  0  0  0  0  0  0  0  0
   49.5328   10.0429   13.8899 H   0  0  0  0  0  0  0  0  0  0  0  0
   47.5095   10.7319   12.6577 H   0  0  0  0  0  0  0  0  0  0  0  0
   49.3193    7.6372   16.7699 H   0  0  0  0  0  0  0  0  0  0  0  0
   50.1211    9.0970   16.2341 H   0  0  0  0  0  0  0  0  0  0  0  0
   50.2492    6.4203   14.7354 H   0  0  0  0  0  0  0  0  0  0  0  0
   45.1505    8.5255   11.4420 H   0  0  0  0  0  0  0  0  0  0  0  0
   44.7452    6.8299   12.5357 H   0  0  0  0  0  0  0  0  0  0  0  0
   46.0136    5.8069   11.8323 H   0  0  0  0  0  0  0  0  0  0  0  0
   51.1611    8.0132   13.1422 H   0  0  0  0  0  0  0  0  0  0  0  0
   45.4766    6.0215   14.6121 H   0  0  0  0  0  0  0  0  0  0  0  0
   51.2378    4.3544   17.7218 H   0  0  0  0  0  0  0  0  0  0  0  0
   51.7054    5.0720   16.1779 H   0  0  0  0  0  0  0  0  0  0  0  0
   50.0422    5.2376   16.7780 H   0  0  0  0  0  0  0  0  0  0  0  0
   53.0645    5.5201   18.9620 H   0  0  0  0  0  0  0  0  0  0  0  0
   53.2903    7.2677   18.8237 H   0  0  0  0  0  0  0  0  0  0  0  0
   53.6398    6.2148   17.4422 H   0  0  0  0  0  0  0  0  0  0  0  0
   50.8598    7.6466   19.5703 H   0  0  0  0  0  0  0  0  0  0  0  0
   49.5415    6.7650   18.7834 H   0  0  0  0  0  0  0  0  0  0  0  0
   50.7280    5.8946   19.7514 H   0  0  0  0  0  0  0  0  0  0  0  0
   51.7246    7.4399   16.2258 H   0  0  0  0  0  0  0  0  0  0  0  0
   47.0541    8.8672   14.7051 H   0  0  0  0  0  0  0  0  0  0  0  0
   48.0257    6.0675   17.9574 H   0  0  0  0  0  0  0  0  0  0  0  0
   49.2496    4.2845   19.1478 H   0  0  0  0  0  0  0  0  0  0  0  0
   49.3538    7.0573   14.3199 H   0  0  0  0  0  0  0  0  0  0  0  0
   47.8017    6.6117   15.0641 H   0  0  0  0  0  0  0  0  0  0  0  0
   48.1938    8.3079   16.8740 H   0  0  0  0  0  0  0  0  0  0  0  0
   52.7427    3.9874   18.9880 H   0  0  0  0  0  0  0  0  0  0  0  0
   53.5742    4.8625   16.5819 H   0  0  0  0  0  0  0  0  0  0  0  0
   53.8284    6.5636   17.0365 H   0  0  0  0  0  0  0  0  0  0  0  0
   49.4573    9.5310   15.2383 H   0  0  0  0  0  0  0  0  0  0  0  0
   53.9489    5.9708   19.1619 H   0  0  0  0  0  0  0  0  0  0  0  0
   45.5152    7.3469   13.4431 H   0  0  0  0  0  0  0  0  0  0  0  0
   45.9400    6.9819   11.7665 H   0  0  0  0  0  0  0  0  0  0  0  0
   46.7695    6.1484   13.0790 H   0  0  0  0  0  0  0  0  0  0  0  0
   45.9043    9.8254   12.8465 H   0  0  0  0  0  0  0  0  0  0  0  0
   46.4177    9.3815   11.2157 H   0  0  0  0  0  0  0  0  0  0  0  0
   47.4836   10.3511   12.2398 H   0  0  0  0  0  0  0  0  0  0  0  0
   49.3826    8.6057   11.9221 H   0  0  0  0  0  0  0  0  0  0  0  0
   49.0226    6.8837   12.1440 H   0  0  0  0  0  0  0  0  0  0  0  0
   48.2633    7.7798   10.8325 H   0  0  0  0  0  0  0  0  0  0  0  0
   46.6365    8.9787   15.6215 H   0  0  0  0  0  0  0  0  0  0  0  0
   49.7665    4.5658   17.1205 H   0  0  0  0  0  0  0  0  0  0  0  0
   50.7986    6.9165   13.5641 H   0  0  0  0  0  0  0  0  0  0  0  0
   51.7592    6.6124   16.2612 H   0  0  0  0  0  0  0  0  0  0  0  0
   49.8882    8.9129   14.2226 H   0  0  0  0  0  0  0  0  0  0  0  0
   49.9875    8.2456   16.5977 H   0  0  0  0  0  0  0  0  0  0  0  0
 10  3  1  0
 11  4  1  0
 12  1  1  0
 10 13  1  0
 14 12  1  0
 15  7  1  0
 16  7  1  0
 17  7  1  0
  6  8  1  0
  2  1  2  0
  3  2  1  0
  4  1  1  0
  5  9  1  0
  6  3  2  0
  7  5  1  0
  8  4  2  0
  9 10  1  0
 27 20  1  0
 28 21  1  0
 29 18  1  0
 27 30  1  0
 31 29  1  0
 32 24  1  0
 33 24  1  0
 34 24  1  0
 23 25  1  0
 19 18  2  0
 20 19  1  0
 21 18  1  0
 22 26  1  0
 23 20  2  0
 24 22  1  0
 25 21  2  0
 26 27  1  0
 41 36  2  0
 42 39  1  0
 43 40  1  0
 41 35  1  0
 43 44  1  0
 42 43  1  0
 44 37  1  0
 41 42  1  0
 44 38  2  0
  2 45  1  0
  5 46  1  0
  6 47  1  0
  8 48  1  0
  9 49  1  0
  9 50  1  0
 10 51  1  1
 11 52  1  0
 12 53  1  0
 12 54  1  0
 13 55  1  0
 14 56  1  0
 15 57  1  0
 15 58  1  0
 15 59  1  0
 16 60  1  0
 16 61  1  0
 16 62  1  0
 17 63  1  0
 17 64  1  0
 17 65  1  0
 19 66  1  0
 22 67  1  0
 23 68  1  0
 25 69  1  0
 26 70  1  0
 26 71  1  0
 27 72  1  6
 28 73  1  0
 29 74  1  0
 29 75  1  0
 30 76  1  0
 31 77  1  0
 32 78  1  0
 32 79  1  0
 32 80  1  0
 33 81  1  0
 33 82  1  0
 33 83  1  0
 34 84  1  0
 34 85  1  0
 34 86  1  0
 35 87  1  0
 37 88  1  0
 39 89  1  0
 40 90  1  0
 42 91  1  6
 43 92  1  6
M  END
> <Uni-Dock RESULT> 
ENERGY=   -5.289  LOWER_BOUND=    3.806  UPPER_BOUND=    5.881
INTER + INTRA:          -5.289
INTER:                  -5.289
INTRA:                   0.000
UNBOUND:                 0.000

$$$$

     RDKit          3D

 92 91  0  0  0  0  0  0  0  0999 V2000
   48.3657    5.6414   21.2190 C   0  0  0  0  0  0  0  0  0  0  0  0
   48.7137    6.9710   20.9048 C   0  0  0  0  0  0  0  0  0  0  0  0
   49.0891    7.3499   19.6055 C   0  0  0  0  0  0  0  0  0  0  0  0
   48.4494    4.6852   20.2010 C   0  0  0  0  0  0  0  0  0  0  0  0
   48.7063   10.8565   18.0323 N   0  0  0  0  0  0  0  0  0  0  0  0
   49.1189    6.3722   18.6036 C   0  0  0  0  0  0  0  0  0  0  0  0
   48.2134   11.9892   18.8287 C   0  0  0  0  0  0  0  0  0  0  0  0
   48.8037    5.0479   18.9024 C   0  0  0  0  0  0  0  0  0  0  0  0
   48.3339    9.5009   18.4694 C   0  0  0  0  0  0  0  0  0  0  0  0
   49.4360    8.7934   19.3010 C   0  0  2  0  0  0  0  0  0  0  0  0
   48.1948    3.3569   20.3900 O   0  0  0  0  0  0  0  0  0  0  0  0
   47.9608    5.3048   22.6304 C   0  0  0  0  0  0  0  0  0  0  0  0
   50.6875    8.8650   18.6040 O   0  0  0  0  0  0  0  0  0  0  0  0
   47.1375    6.3216   23.1919 O   0  0  0  0  0  0  0  0  0  0  0  0
   48.5810   11.8941   20.3165 C   0  0  0  0  0  0  0  0  0  0  0  0
   48.8765   13.2523   18.2440 C   0  0  0  0  0  0  0  0  0  0  0  0
   46.6895   12.1334   18.6733 C   0  0  0  0  0  0  0  0  0  0  0  0
   48.7280   12.4427   19.4126 C   0  0  0  0  0  0  0  0  0  0  0  0
   48.6537   11.1012   19.0015 C   0  0  0  0  0  0  0  0  0  0  0  0
   47.5914   10.2698   19.3973 C   0  0  0  0  0  0  0  0  0  0  0  0
   47.7238   12.9314   20.2565 C   0  0  0  0  0  0  0  0  0  0  0  0
   48.1851    6.4974   19.4896 N   0  0  0  0  0  0  0  0  0  0  0  0
   46.6015   10.7977   20.2391 C   0  0  0  0  0  0  0  0  0  0  0  0
   48.8985    5.5034   20.3175 C   0  0  0  0  0  0  0  0  0  0  0  0
   46.6693   12.1230   20.6680 C   0  0  0  0  0  0  0  0  0  0  0  0
   48.1916    7.8818   20.0068 C   0  0  0  0  0  0  0  0  0  0  0  0
   47.5212    8.8196   18.9712 C   0  0  2  0  0  0  0  0  0  0  0  0
   47.7240   14.2214   20.7107 O   0  0  0  0  0  0  0  0  0  0  0  0
   49.9073   13.2752   18.9923 C   0  0  0  0  0  0  0  0  0  0  0  0
   48.1604    8.6346   17.7016 O   0  0  0  0  0  0  0  0  0  0  0  0
   49.4974   14.6251   18.7749 O   0  0  0  0  0  0  0  0  0  0  0  0
   48.2855    5.3747   21.7218 C   0  0  0  0  0  0  0  0  0  0  0  0
   48.7421    4.1531   19.5907 C   0  0  0  0  0  0  0  0  0  0  0  0
   50.3990    5.8210   20.4250 C   0  0  0  0  0  0  0  0  0  0  0  0
   46.8884    7.1217   18.8310 O   0  0  0  0  0  0  0  0  0  0  0  0
   47.9385    6.1838   20.5537 O   0  0  0  0  0  0  0  0  0  0  0  0
   48.2225   11.2106   20.6131 O   0  0  0  0  0  0  0  0  0  0  0  0
   46.9940    9.3834   20.9789 O   0  0  0  0  0  0  0  0  0  0  0  0
   50.1846    7.9621   20.2029 O   0  0  0  0  0  0  0  0  0  0  0  0
   49.7454   10.2190   18.7822 O   0  0  0  0  0  0  0  0  0  0  0  0
   47.9491    7.0167   19.6625 C   0  0  0  0  0  0  0  0  0  0  0  0
   49.0836    7.9699   19.2888 C   0  0  1  0  0  0  0  0  0  0  0  0
   48.5943    9.4056   19.0913 C   0  0  1  0  0  0  0  0  0  0  0  0
   47.8573    9.9372   20.3226 C   0  0  0  0  0  0  0  0  0  0  0  0
   48.6841    7.7241   21.6936 H   0  0  0  0  0  0  0  0  0  0  0  0
   49.7287   10.8786   17.9606 H   0  0  0  0  0  0  0  0  0  0  0  0
   49.3956    6.6366   17.5842 H   0  0  0  0  0  0  0  0  0  0  0  0
   48.8435    4.2927   18.1215 H   0  0  0  0  0  0  0  0  0  0  0  0
   47.3753    9.4733   18.9979 H   0  0  0  0  0  0  0  0  0  0  0  0
   48.1834    8.9311   17.5439 H   0  0  0  0  0  0  0  0  0  0  0  0
   49.5916    9.3277   20.2433 H   0  0  0  0  0  0  0  0  0  0  0  0
   48.3045    3.1270   21.3247 H   0  0  0  0  0  0  0  0  0  0  0  0
   47.3842    4.3770   22.6761 H   0  0  0  0  0  0  0  0  0  0  0  0
   48.8511    5.1904   23.2565 H   0  0  0  0  0  0  0  0  0  0  0  0
   51.2291    8.1190   18.9149 H   0  0  0  0  0  0  0  0  0  0  0  0
   46.4518    6.5239   22.5307 H   0  0  0  0  0  0  0  0  0  0  0  0
   48.2865   12.8050   20.8508 H   0  0  0  0  0  0  0  0  0  0  0  0
   49.6614   11.7711   20.4532 H   0  0  0  0  0  0  0  0  0  0  0  0
   48.0748   11.0575   20.8095 H   0  0  0  0  0  0  0  0  0  0  0  0
   48.5353   14.1546   18.7649 H   0  0  0  0  0  0  0  0  0  0  0  0
   48.6363   13.3763   17.1812 H   0  0  0  0  0  0  0  0  0  0  0  0
   49.9684   13.2126   18.3380 H   0  0  0  0  0  0  0  0  0  0  0  0
   46.3999   12.1859   17.6172 H   0  0  0  0  0  0  0  0  0  0  0  0
   46.1456   11.2996   19.1286 H   0  0  0  0  0  0  0  0  0  0  0  0
   46.3327   13.0508   19.1557 H   0  0  0  0  0  0  0  0  0  0  0  0
   49.4317   10.6907   18.3580 H   0  0  0  0  0  0  0  0  0  0  0  0
   47.2132    6.1973   19.3829 H   0  0  0  0  0  0  0  0  0  0  0  0
   45.7684   10.1807   20.5680 H   0  0  0  0  0  0  0  0  0  0  0  0
   45.9001   12.5284   21.3196 H   0  0  0  0  0  0  0  0  0  0  0  0
   49.2242    8.2153   20.1550 H   0  0  0  0  0  0  0  0  0  0  0  0
   47.6628    7.9507   20.9635 H   0  0  0  0  0  0  0  0  0  0  0  0
   46.4711    8.5341   18.8313 H   0  0  0  0  0  0  0  0  0  0  0  0
   48.4311   14.7012   20.2291 H   0  0  0  0  0  0  0  0  0  0  0  0
   50.6654   13.2680   19.7817 H   0  0  0  0  0  0  0  0  0  0  0  0
   50.3605   12.9051   18.0669 H   0  0  0  0  0  0  0  0  0  0  0  0
   48.4124    7.6884   17.6981 H   0  0  0  0  0  0  0  0  0  0  0  0
   48.9558   14.6078   17.9631 H   0  0  0  0  0  0  0  0  0  0  0  0
   47.2083    5.1776   21.6704 H   0  0  0  0  0  0  0  0  0  0  0  0
   48.7451    4.5467   22.2742 H   0  0  0  0  0  0  0  0  0  0  0  0
   48.4352    6.2809   22.3183 H   0  0  0  0  0  0  0  0  0  0  0  0
   47.6886    3.8619   19.5051 H   0  0  0  0  0  0  0  0  0  0  0  0
   49.2598    3.3515   20.1303 H   0  0  0  0  0  0  0  0  0  0  0  0
   49.1619    4.1924   18.5784 H   0  0  0  0  0  0  0  0  0  0  0  0
   50.8443    5.9781   19.4357 H   0  0  0  0  0  0  0  0  0  0  0  0
   50.5887    6.7152   21.0279 H   0  0  0  0  0  0  0  0  0  0  0  0
   50.9404    4.9949   20.9007 H   0  0  0  0  0  0  0  0  0  0  0  0
   46.2541    6.4706   19.2039 H   0  0  0  0  0  0  0  0  0  0  0  0
   47.6971   11.4249   21.4154 H   0  0  0  0  0  0  0  0  0  0  0  0
   50.7721    8.6850   19.9063 H   0  0  0  0  0  0  0  0  0  0  0  0
   49.5025   11.1265   19.0596 H   0  0  0  0  0  0  0  0  0  0  0  0
   49.4971    7.6003   18.3424 H   0  0  0  0  0  0  0  0  0  0  0  0
   47.9035    9.4838   18.2447 H   0  0  0  0  0  0  0  0  0  0  0  0
 10  3  1  0
 11  4  1  0
 12  1  1  0
 10 13  1  0
 14 12  1  0
 15  7  1  0
 16  7  1  0
 17  7  1  0
  6  8  1  0
  2  1  2  0
  3  2  1  0
  4  1  1  0
  5  9  1  0
  6  3  2  0
  7  5  1  0
  8  4  2  0
  9 10  1  0
 27 20  1  0
 28 21  1  0
 29 18  1  0
 27 30  1  0
 31 29  1  0
 32 24  1  0
 33 24  1  0
 34 24  1  0
 23 25  1  0
 19 18  2  0
 20 19  1  0
 21 18  1  0
 22 26  1  0
 23 20  2  0
 24 22  1  0
 25 21  2  0
 26 27  1  0
 41 36  2  0
 42 39  1  0
 43 40  1  0
 41 35  1  0
 43 44  1  0
 42 43  1  0
 44 37  1  0
 41 42  1  0
 44 38  2  0
  2 45  1  0
  5 46  1  0
  6 47  1  0
  8 48  1  0
  9 49  1  0
  9 50  1  0
 10 51  1  1
 11 52  1  0
 12 53  1  0
 12 54  1  0
 13 55  1  0
 14 56  1  0
 15 57  1  0
 15 58  1  0
 15 59  1  0
 16 60  1  0
 16 61  1  0
 16 62  1  0
 17 63  1  0
 17 64  1  0
 17 65  1  0
 19 66  1  0
 22 67  1  0
 23 68  1  0
 25 69  1  0
 26 70  1  0
 26 71  1  0
 27 72  1  6
 28 73  1  0
 29 74  1  0
 29 75  1  0
 30 76  1  0
 31 77  1  0
 32 78  1  0
 32 79  1  0
 32 80  1  0
 33 81  1  0
 33 82  1  0
 33 83  1  0
 34 84  1  0
 34 85  1  0
 34 86  1  0
 35 87  1  0
 37 88  1  0
 39 89  1  0
 40 90  1  0
 42 91  1  6
 43 92  1  6
M  END
> <Uni-Dock RESULT> 
ENERGY=   -5.131  LOWER_BOUND=    7.221  UPPER_BOUND=    8.823
INTER + INTRA:          -5.131
INTER:                  -5.131
INTRA:                   0.000
UNBOUND:                 0.000

$$$$

     RDKit          3D

 92 91  0  0  0  0  0  0  0  0999 V2000
   46.9900    6.5829   13.4010 C   0  0  0  0  0  0  0  0  0  0  0  0
   48.3538    6.7234   13.7299 C   0  0  0  0  0  0  0  0  0  0  0  0
   48.9989    7.9704   13.6922 C   0  0  0  0  0  0  0  0  0  0  0  0
   46.2962    7.7246   12.9853 C   0  0  0  0  0  0  0  0  0  0  0  0
   52.0695    9.0341   15.7797 N   0  0  0  0  0  0  0  0  0  0  0  0
   48.2595    9.0973   13.3129 C   0  0  0  0  0  0  0  0  0  0  0  0
   52.7515    8.0738   16.6589 C   0  0  0  0  0  0  0  0  0  0  0  0
   46.9173    8.9724   12.9589 C   0  0  0  0  0  0  0  0  0  0  0  0
   50.6585    8.7747   15.4491 C   0  0  0  0  0  0  0  0  0  0  0  0
   50.4612    8.0856   14.0732 C   0  0  2  0  0  0  0  0  0  0  0  0
   44.9904    7.7110   12.5860 O   0  0  0  0  0  0  0  0  0  0  0  0
   46.3564    5.2181   13.4735 C   0  0  0  0  0  0  0  0  0  0  0  0
   51.1800    8.8080   13.0640 O   0  0  0  0  0  0  0  0  0  0  0  0
   46.8078    4.4950   14.6139 O   0  0  0  0  0  0  0  0  0  0  0  0
   52.6814    6.6263   16.1513 C   0  0  0  0  0  0  0  0  0  0  0  0
   54.2320    8.5018   16.7039 C   0  0  0  0  0  0  0  0  0  0  0  0
   52.1860    8.1565   18.0874 C   0  0  0  0  0  0  0  0  0  0  0  0
   53.3276    7.4509   16.3562 C   0  0  0  0  0  0  0  0  0  0  0  0
   52.1575    8.0393   15.8475 C   0  0  0  0  0  0  0  0  0  0  0  0
   50.8908    7.7257   16.3705 C   0  0  0  0  0  0  0  0  0  0  0  0
   53.2008    6.5145   17.3890 C   0  0  0  0  0  0  0  0  0  0  0  0
   47.8415    8.1715   14.1134 N   0  0  0  0  0  0  0  0  0  0  0  0
   50.8053    6.7865   17.4087 C   0  0  0  0  0  0  0  0  0  0  0  0
   47.2119    7.5122   12.9508 C   0  0  0  0  0  0  0  0  0  0  0  0
   51.9563    6.1824   17.9141 C   0  0  0  0  0  0  0  0  0  0  0  0
   49.0065    7.4699   14.6917 C   0  0  0  0  0  0  0  0  0  0  0  0
   49.6287    8.3439   15.8100 C   0  0  2  0  0  0  0  0  0  0  0  0
   54.2866    5.8880   17.9357 O   0  0  0  0  0  0  0  0  0  0  0  0
   54.6523    7.7927   15.7326 C   0  0  0  0  0  0  0  0  0  0  0  0
   49.8978    9.6478   15.2786 O   0  0  0  0  0  0  0  0  0  0  0  0
   55.6711    7.8089   16.7321 O   0  0  0  0  0  0  0  0  0  0  0  0
   46.6651    6.1190   13.3031 C   0  0  0  0  0  0  0  0  0  0  0  0
   46.0294    8.4116   12.5402 C   0  0  0  0  0  0  0  0  0  0  0  0
   48.1775    7.4129   11.7584 C   0  0  0  0  0  0  0  0  0  0  0  0
   47.8569    8.6942   15.6071 O   0  0  0  0  0  0  0  0  0  0  0  0
   47.3385    7.1527   14.0889 O   0  0  0  0  0  0  0  0  0  0  0  0
   51.8825    6.4143   16.1284 O   0  0  0  0  0  0  0  0  0  0  0  0
   49.6664    6.2612   16.3463 O   0  0  0  0  0  0  0  0  0  0  0  0
   49.9832    7.3320   12.9470 O   0  0  0  0  0  0  0  0  0  0  0  0
   51.9130    8.4142   14.4992 O   0  0  0  0  0  0  0  0  0  0  0  0
   48.1699    7.9212   14.5432 C   0  0  0  0  0  0  0  0  0  0  0  0
   49.5748    8.1987   14.0100 C   0  0  1  0  0  0  0  0  0  0  0  0
   50.6301    8.1809   15.1171 C   0  0  1  0  0  0  0  0  0  0  0  0
   50.6242    6.8641   15.8969 C   0  0  0  0  0  0  0  0  0  0  0  0
   48.9184    5.8382   14.0265 H   0  0  0  0  0  0  0  0  0  0  0  0
   52.5720    9.1366   14.8921 H   0  0  0  0  0  0  0  0  0  0  0  0
   48.7285   10.0796   13.2841 H   0  0  0  0  0  0  0  0  0  0  0  0
   46.3548    9.8504   12.6515 H   0  0  0  0  0  0  0  0  0  0  0  0
   50.1326    8.2229   16.2352 H   0  0  0  0  0  0  0  0  0  0  0  0
   50.1858    9.7639   15.4084 H   0  0  0  0  0  0  0  0  0  0  0  0
   50.9034    7.0847   14.0916 H   0  0  0  0  0  0  0  0  0  0  0  0
   44.7403    6.8208   12.2966 H   0  0  0  0  0  0  0  0  0  0  0  0
   45.2680    5.2805   13.5555 H   0  0  0  0  0  0  0  0  0  0  0  0
   46.6037    4.6440   12.5752 H   0  0  0  0  0  0  0  0  0  0  0  0
   50.7432    8.6208   12.2150 H   0  0  0  0  0  0  0  0  0  0  0  0
   46.7367    5.0988   15.3747 H   0  0  0  0  0  0  0  0  0  0  0  0
   53.2884    5.9626   16.7779 H   0  0  0  0  0  0  0  0  0  0  0  0
   53.0612    6.5443   15.1266 H   0  0  0  0  0  0  0  0  0  0  0  0
   51.6584    6.2359   16.1708 H   0  0  0  0  0  0  0  0  0  0  0  0
   54.8112    7.8509   17.3692 H   0  0  0  0  0  0  0  0  0  0  0  0
   54.3417    9.5288   17.0723 H   0  0  0  0  0  0  0  0  0  0  0  0
   54.6949    8.4511   15.7111 H   0  0  0  0  0  0  0  0  0  0  0  0
   52.2093    9.1850   18.4661 H   0  0  0  0  0  0  0  0  0  0  0  0
   51.1520    7.8017   18.1450 H   0  0  0  0  0  0  0  0  0  0  0  0
   52.7753    7.5410   18.7770 H   0  0  0  0  0  0  0  0  0  0  0  0
   52.2267    8.7588   15.0319 H   0  0  0  0  0  0  0  0  0  0  0  0
   47.1370    8.2854   14.8460 H   0  0  0  0  0  0  0  0  0  0  0  0
   49.8408    6.5173   17.8331 H   0  0  0  0  0  0  0  0  0  0  0  0
   51.8859    5.4558   18.7189 H   0  0  0  0  0  0  0  0  0  0  0  0
   49.7642    7.3123   13.9168 H   0  0  0  0  0  0  0  0  0  0  0  0
   48.7199    6.4955   15.1016 H   0  0  0  0  0  0  0  0  0  0  0  0
   48.9042    8.4861   16.6215 H   0  0  0  0  0  0  0  0  0  0  0  0
   55.0881    6.3229   17.5744 H   0  0  0  0  0  0  0  0  0  0  0  0
   54.9149    7.0378   14.9849 H   0  0  0  0  0  0  0  0  0  0  0  0
   54.6357    8.7749   15.2490 H   0  0  0  0  0  0  0  0  0  0  0  0
   49.1836    9.7895   14.6237 H   0  0  0  0  0  0  0  0  0  0  0  0
   55.4899    8.5967   17.2792 H   0  0  0  0  0  0  0  0  0  0  0  0
   45.9963    6.1605   14.1709 H   0  0  0  0  0  0  0  0  0  0  0  0
   46.0926    5.7011   12.4666 H   0  0  0  0  0  0  0  0  0  0  0  0
   47.4680    5.4092   13.5290 H   0  0  0  0  0  0  0  0  0  0  0  0
   45.2925    8.5007   13.3472 H   0  0  0  0  0  0  0  0  0  0  0  0
   45.5085    8.0048   11.6657 H   0  0  0  0  0  0  0  0  0  0  0  0
   46.3663    9.4225   12.2813 H   0  0  0  0  0  0  0  0  0  0  0  0
   48.6274    8.3858   11.5287 H   0  0  0  0  0  0  0  0  0  0  0  0
   48.9879    6.6998   11.9428 H   0  0  0  0  0  0  0  0  0  0  0  0
   47.6528    7.0735   10.8577 H   0  0  0  0  0  0  0  0  0  0  0  0
   46.9502    8.3928   15.8360 H   0  0  0  0  0  0  0  0  0  0  0  0
   51.7416    5.5729   16.6161 H   0  0  0  0  0  0  0  0  0  0  0  0
   50.9232    7.5464   12.7853 H   0  0  0  0  0  0  0  0  0  0  0  0
   52.5683    8.0069   15.1028 H   0  0  0  0  0  0  0  0  0  0  0  0
   49.5425    9.2003   13.5638 H   0  0  0  0  0  0  0  0  0  0  0  0
   50.4672    8.9849   15.8430 H   0  0  0  0  0  0  0  0  0  0  0  0
 10  3  1  0
 11  4  1  0
 12  1  1  0
 10 13  1  0
 14 12  1  0
 15  7  1  0
 16  7  1  0
 17  7  1  0
  6  8  1  0
  2  1  2  0
  3  2  1  0
  4  1  1  0
  5  9  1  0
  6  3  2  0
  7  5  1  0
  8  4  2  0
  9 10  1  0
 27 20  1  0
 28 21  1  0
 29 18  1  0
 27 30  1  0
 31 29  1  0
 32 24  1  0
 33 24  1  0
 34 24  1  0
 23 25  1  0
 19 18  2  0
 20 19  1  0
 21 18  1  0
 22 26  1  0
 23 20  2  0
 24 22  1  0
 25 21  2  0
 26 27  1  0
 41 36  2  0
 42 39  1  0
 43 40  1  0
 41 35  1  0
 43 44  1  0
 42 43  1  0
 44 37  1  0
 41 42  1  0
 44 38  2  0
  2 45  1  0
  5 46  1  0
  6 47  1  0
  8 48  1  0
  9 49  1  0
  9 50  1  0
 10 51  1  1
 11 52  1  0
 12 53  1  0
 12 54  1  0
 13 55  1  0
 14 56  1  0
 15 57  1  0
 15 58  1  0
 15 59  1  0
 16 60  1  0
 16 61  1  0
 16 62  1  0
 17 63  1  0
 17 64  1  0
 17 65  1  0
 19 66  1  0
 22 67  1  0
 23 68  1  0
 25 69  1  0
 26 70  1  0
 26 71  1  0
 27 72  1  6
 28 73  1  0
 29 74  1  0
 29 75  1  0
 30 76  1  0
 31 77  1  0
 32 78  1  0
 32 79  1  0
 32 80  1  0
 33 81  1  0
 33 82  1  0
 33 83  1  0
 34 84  1  0
 34 85  1  0
 34 86  1  0
 35 87  1  0
 37 88  1  0
 39 89  1  0
 40 90  1  0
 42 91  1  6
 43 92  1  6
M  END
> <Uni-Dock RESULT> 
ENERGY=   -5.061  LOWER_BOUND=    3.425  UPPER_BOUND=    5.409
INTER + INTRA:          -5.061
INTER:                  -5.061
INTRA:                   0.000
UNBOUND:                 0.000

$$$$

     RDKit          3D

 92 91  0  0  0  0  0  0  0  0999 V2000
   51.1573    4.5566   18.8424 C   0  0  0  0  0  0  0  0  0  0  0  0
   50.5861    5.8429   18.9257 C   0  0  0  0  0  0  0  0  0  0  0  0
   49.3615    6.1495   18.3102 C   0  0  0  0  0  0  0  0  0  0  0  0
   50.4882    3.5916   18.0817 C   0  0  0  0  0  0  0  0  0  0  0  0
   46.8503    8.8682   19.4148 N   0  0  0  0  0  0  0  0  0  0  0  0
   48.7003    5.1445   17.5938 C   0  0  0  0  0  0  0  0  0  0  0  0
   47.1671    9.7801   20.5231 C   0  0  0  0  0  0  0  0  0  0  0  0
   49.2636    3.8749   17.4788 C   0  0  0  0  0  0  0  0  0  0  0  0
   47.5373    7.5665   19.3837 C   0  0  0  0  0  0  0  0  0  0  0  0
   48.7681    7.5380   18.4396 C   0  0  2  0  0  0  0  0  0  0  0  0
   50.9647    2.3284   17.8762 O   0  0  0  0  0  0  0  0  0  0  0  0
   52.4680    4.2915   19.5360 C   0  0  0  0  0  0  0  0  0  0  0  0
   48.3976    8.0401   17.1482 O   0  0  0  0  0  0  0  0  0  0  0  0
   52.5185    4.9224   20.8114 O   0  0  0  0  0  0  0  0  0  0  0  0
   48.6678   10.0755   20.6596 C   0  0  0  0  0  0  0  0  0  0  0  0
   46.4371   11.1036   20.2189 C   0  0  0  0  0  0  0  0  0  0  0  0
   46.6192    9.2256   21.8496 C   0  0  0  0  0  0  0  0  0  0  0  0
   47.7111   10.4928   20.4354 C   0  0  0  0  0  0  0  0  0  0  0  0
   47.6748    9.2069   19.8705 C   0  0  0  0  0  0  0  0  0  0  0  0
   48.0161    8.0664   20.6183 C   0  0  0  0  0  0  0  0  0  0  0  0
   48.1253   10.6177   21.7668 C   0  0  0  0  0  0  0  0  0  0  0  0
   49.2693    4.9830   18.7439 N   0  0  0  0  0  0  0  0  0  0  0  0
   48.4210    8.2321   21.9509 C   0  0  0  0  0  0  0  0  0  0  0  0
   50.4817    4.5308   18.0310 C   0  0  0  0  0  0  0  0  0  0  0  0
   48.4768    9.5035   22.5215 C   0  0  0  0  0  0  0  0  0  0  0  0
   49.3767    6.2934   19.4186 C   0  0  0  0  0  0  0  0  0  0  0  0
   47.9963    6.6834   20.0049 C   0  0  2  0  0  0  0  0  0  0  0  0
   48.1981   11.8323   22.3914 O   0  0  0  0  0  0  0  0  0  0  0  0
   47.3745   11.6812   19.5782 C   0  0  0  0  0  0  0  0  0  0  0  0
   47.0155    6.6073   18.9622 O   0  0  0  0  0  0  0  0  0  0  0  0
   46.7071   12.6717   20.3598 O   0  0  0  0  0  0  0  0  0  0  0  0
   51.6794    4.3594   18.9798 C   0  0  0  0  0  0  0  0  0  0  0  0
   50.1337    3.1547   17.4299 C   0  0  0  0  0  0  0  0  0  0  0  0
   50.8538    5.4788   16.8790 C   0  0  0  0  0  0  0  0  0  0  0  0
   48.1760    4.8790   19.8835 O   0  0  0  0  0  0  0  0  0  0  0  0
   50.2877    4.7552   19.1939 O   0  0  0  0  0  0  0  0  0  0  0  0
   49.0445    9.3566   20.8174 O   0  0  0  0  0  0  0  0  0  0  0  0
   49.5889    7.2543   21.3332 O   0  0  0  0  0  0  0  0  0  0  0  0
   50.0135    7.2567   17.7805 O   0  0  0  0  0  0  0  0  0  0  0  0
   47.9708    8.8625   18.5244 O   0  0  0  0  0  0  0  0  0  0  0  0
   49.2330    5.3682   19.1972 C   0  0  0  0  0  0  0  0  0  0  0  0
   48.8963    6.6514   18.4388 C   0  0  1  0  0  0  0  0  0  0  0  0
   48.2052    7.6868   19.3275 C   0  0  1  0  0  0  0  0  0  0  0  0
   49.0326    8.0231   20.5701 C   0  0  0  0  0  0  0  0  0  0  0  0
   51.1097    6.6167   19.4890 H   0  0  0  0  0  0  0  0  0  0  0  0
   47.0215    9.3199   18.5106 H   0  0  0  0  0  0  0  0  0  0  0  0
   47.7441    5.3481   17.1142 H   0  0  0  0  0  0  0  0  0  0  0  0
   48.7503    3.1048   16.9084 H   0  0  0  0  0  0  0  0  0  0  0  0
   47.8086    7.2054   20.3812 H   0  0  0  0  0  0  0  0  0  0  0  0
   46.7935    6.8575   18.9994 H   0  0  0  0  0  0  0  0  0  0  0  0
   49.5384    8.2203   18.8120 H   0  0  0  0  0  0  0  0  0  0  0  0
   51.9248    2.3102   18.0047 H   0  0  0  0  0  0  0  0  0  0  0  0
   52.6251    3.2237   19.7107 H   0  0  0  0  0  0  0  0  0  0  0  0
   53.2953    4.6681   18.9266 H   0  0  0  0  0  0  0  0  0  0  0  0
   49.0196    7.6574   16.5053 H   0  0  0  0  0  0  0  0  0  0  0  0
   51.6833    4.7073   21.2637 H   0  0  0  0  0  0  0  0  0  0  0  0
   48.8480   10.8371   21.4271 H   0  0  0  0  0  0  0  0  0  0  0  0
   49.0866   10.4541   19.7202 H   0  0  0  0  0  0  0  0  0  0  0  0
   49.2339    9.1856   20.9542 H   0  0  0  0  0  0  0  0  0  0  0  0
   46.5960   11.8353   21.0195 H   0  0  0  0  0  0  0  0  0  0  0  0
   45.3552   10.9521   20.1226 H   0  0  0  0  0  0  0  0  0  0  0  0
   46.7961   11.5548   19.2862 H   0  0  0  0  0  0  0  0  0  0  0  0
   45.5513    8.9902   21.7721 H   0  0  0  0  0  0  0  0  0  0  0  0
   47.1405    8.3163   22.1656 H   0  0  0  0  0  0  0  0  0  0  0  0
   46.7344    9.9583   22.6567 H   0  0  0  0  0  0  0  0  0  0  0  0
   47.3722    9.0832   18.8307 H   0  0  0  0  0  0  0  0  0  0  0  0
   49.0194    4.2795   19.4430 H   0  0  0  0  0  0  0  0  0  0  0  0
   48.6965    7.3717   22.5565 H   0  0  0  0  0  0  0  0  0  0  0  0
   48.7904    9.6276   23.5543 H   0  0  0  0  0  0  0  0  0  0  0  0
   49.6708    7.0590   18.6927 H   0  0  0  0  0  0  0  0  0  0  0  0
   50.1236    6.2677   20.2193 H   0  0  0  0  0  0  0  0  0  0  0  0
   47.6927    5.9542   20.7663 H   0  0  0  0  0  0  0  0  0  0  0  0
   47.7875   12.4934   21.7945 H   0  0  0  0  0  0  0  0  0  0  0  0
   48.2934   12.1201   19.1771 H   0  0  0  0  0  0  0  0  0  0  0  0
   46.7206   11.4110   18.7426 H   0  0  0  0  0  0  0  0  0  0  0  0
   47.3297    5.8745   18.3936 H   0  0  0  0  0  0  0  0  0  0  0  0
   45.8257   12.3014   20.5563 H   0  0  0  0  0  0  0  0  0  0  0  0
   51.4279    3.7102   19.8266 H   0  0  0  0  0  0  0  0  0  0  0  0
   52.5293    3.9041   18.4577 H   0  0  0  0  0  0  0  0  0  0  0  0
   52.0249    5.3185   19.3801 H   0  0  0  0  0  0  0  0  0  0  0  0
   49.8816    2.4270   18.2103 H   0  0  0  0  0  0  0  0  0  0  0  0
   50.9783    2.7462   16.8629 H   0  0  0  0  0  0  0  0  0  0  0  0
   49.2796    3.2212   16.7454 H   0  0  0  0  0  0  0  0  0  0  0  0
   49.9951    5.6644   16.2234 H   0  0  0  0  0  0  0  0  0  0  0  0
   51.2181    6.4455   17.2423 H   0  0  0  0  0  0  0  0  0  0  0  0
   51.6511    5.0492   16.2612 H   0  0  0  0  0  0  0  0  0  0  0  0
   48.5492    4.0808   20.3182 H   0  0  0  0  0  0  0  0  0  0  0  0
   49.6088    9.4386   21.6177 H   0  0  0  0  0  0  0  0  0  0  0  0
   49.6807    8.1099   17.4381 H   0  0  0  0  0  0  0  0  0  0  0  0
   47.9247    9.6054   19.1612 H   0  0  0  0  0  0  0  0  0  0  0  0
   48.2132    6.3614   17.6310 H   0  0  0  0  0  0  0  0  0  0  0  0
   47.2298    7.3317   19.6774 H   0  0  0  0  0  0  0  0  0  0  0  0
 10  3  1  0
 11  4  1  0
 12  1  1  0
 10 13  1  0
 14 12  1  0
 15  7  1  0
 16  7  1  0
 17  7  1  0
  6  8  1  0
  2  1  2  0
  3  2  1  0
  4  1  1  0
  5  9  1  0
  6  3  2  0
  7  5  1  0
  8  4  2  0
  9 10  1  0
 27 20  1  0
 28 21  1  0
 29 18  1  0
 27 30  1  0
 31 29  1  0
 32 24  1  0
 33 24  1  0
 34 24  1  0
 23 25  1  0
 19 18  2  0
 20 19  1  0
 21 18  1  0
 22 26  1  0
 23 20  2  0
 24 22  1  0
 25 21  2  0
 26 27  1  0
 41 36  2  0
 42 39  1  0
 43 40  1  0
 41 35  1  0
 43 44  1  0
 42 43  1  0
 44 37  1  0
 41 42  1  0
 44 38  2  0
  2 45  1  0
  5 46  1  0
  6 47  1  0
  8 48  1  0
  9 49  1  0
  9 50  1  0
 10 51  1  1
 11 52  1  0
 12 53  1  0
 12 54  1  0
 13 55  1  0
 14 56  1  0
 15 57  1  0
 15 58  1  0
 15 59  1  0
 16 60  1  0
 16 61  1  0
 16 62  1  0
 17 63  1  0
 17 64  1  0
 17 65  1  0
 19 66  1  0
 22 67  1  0
 23 68  1  0
 25 69  1  0
 26 70  1  0
 26 71  1  0
 27 72  1  6
 28 73  1  0
 29 74  1  0
 29 75  1  0
 30 76  1  0
 31 77  1  0
 32 78  1  0
 32 79  1  0
 32 80  1  0
 33 81  1  0
 33 82  1  0
 33 83  1  0
 34 84  1  0
 34 85  1  0
 34 86  1  0
 35 87  1  0
 37 88  1  0
 39 89  1  0
 40 90  1  0
 42 91  1  6
 43 92  1  6
M  END
> <Uni-Dock RESULT> 
ENERGY=   -5.010  LOWER_BOUND=    6.667  UPPER_BOUND=    8.626
INTER + INTRA:          -5.010
INTER:                  -5.010
INTRA:                   0.000
UNBOUND:                 0.000

$$$$

     RDKit          3D

 92 91  0  0  0  0  0  0  0  0999 V2000
   47.2956   12.2536   19.3948 C   0  0  0  0  0  0  0  0  0  0  0  0
   47.5465   11.6558   18.1428 C   0  0  0  0  0  0  0  0  0  0  0  0
   48.6953   11.9607   17.3946 C   0  0  0  0  0  0  0  0  0  0  0  0
   48.2086   13.2067   19.8594 C   0  0  0  0  0  0  0  0  0  0  0  0
   50.4451    9.6634   14.8298 N   0  0  0  0  0  0  0  0  0  0  0  0
   49.6077   12.8875   17.9135 C   0  0  0  0  0  0  0  0  0  0  0  0
   49.8691    8.3597   14.4708 C   0  0  0  0  0  0  0  0  0  0  0  0
   49.3622   13.5079   19.1371 C   0  0  0  0  0  0  0  0  0  0  0  0
   50.0827   10.2333   16.1379 C   0  0  0  0  0  0  0  0  0  0  0  0
   48.9416   11.2817   16.0623 C   0  0  2  0  0  0  0  0  0  0  0  0
   48.0505   13.8975   21.0267 O   0  0  0  0  0  0  0  0  0  0  0  0
   46.0496   11.8732   20.1511 C   0  0  0  0  0  0  0  0  0  0  0  0
   49.2494   12.2587   15.0585 O   0  0  0  0  0  0  0  0  0  0  0  0
   45.7894   10.4766   20.0558 O   0  0  0  0  0  0  0  0  0  0  0  0
   48.3360    8.3276   14.5512 C   0  0  0  0  0  0  0  0  0  0  0  0
   50.2850    8.0881   13.0113 C   0  0  0  0  0  0  0  0  0  0  0  0
   50.4637    7.2477   15.3524 C   0  0  0  0  0  0  0  0  0  0  0  0
   49.1792    8.2657   13.8993 C   0  0  0  0  0  0  0  0  0  0  0  0
   49.5425    9.2311   14.8533 C   0  0  0  0  0  0  0  0  0  0  0  0
   49.4392    8.9762   16.2320 C   0  0  0  0  0  0  0  0  0  0  0  0
   48.6808    7.0401   14.3567 C   0  0  0  0  0  0  0  0  0  0  0  0
   49.0348   11.9497   18.5955 N   0  0  0  0  0  0  0  0  0  0  0  0
   48.9402    7.7341   16.6509 C   0  0  0  0  0  0  0  0  0  0  0  0
   47.9986   12.9276   18.9861 C   0  0  0  0  0  0  0  0  0  0  0  0
   48.5611    6.7711   15.7161 C   0  0  0  0  0  0  0  0  0  0  0  0
   48.5912   10.8832   17.6736 C   0  0  0  0  0  0  0  0  0  0  0  0
   49.8114   10.0224   17.2597 C   0  0  2  0  0  0  0  0  0  0  0  0
   48.2957    6.0488   13.4968 O   0  0  0  0  0  0  0  0  0  0  0  0
   49.2723    8.6062   12.4379 C   0  0  0  0  0  0  0  0  0  0  0  0
   50.8342   10.8886   16.7511 O   0  0  0  0  0  0  0  0  0  0  0  0
   49.6503    7.4496   11.6917 O   0  0  0  0  0  0  0  0  0  0  0  0
   46.8276   12.2629   19.7284 C   0  0  0  0  0  0  0  0  0  0  0  0
   48.6874   13.9169   19.9468 C   0  0  0  0  0  0  0  0  0  0  0  0
   47.4743   13.7182   17.7760 C   0  0  0  0  0  0  0  0  0  0  0  0
   50.0635   10.7837   18.8906 O   0  0  0  0  0  0  0  0  0  0  0  0
   48.0762   11.7442   19.1703 O   0  0  0  0  0  0  0  0  0  0  0  0
   48.1297    8.4794   15.3373 O   0  0  0  0  0  0  0  0  0  0  0  0
   48.0649    8.7998   17.5453 O   0  0  0  0  0  0  0  0  0  0  0  0
   47.8308   12.1548   16.3240 O   0  0  0  0  0  0  0  0  0  0  0  0
   49.4030   10.6396   14.7312 O   0  0  0  0  0  0  0  0  0  0  0  0
   48.9575   11.3904   18.4046 C   0  0  0  0  0  0  0  0  0  0  0  0
   49.0236   11.6063   16.8932 C   0  0  1  0  0  0  0  0  0  0  0  0
   49.4089   10.3315   16.1409 C   0  0  1  0  0  0  0  0  0  0  0  0
   48.4644    9.1694   16.4560 C   0  0  0  0  0  0  0  0  0  0  0  0
   46.8293   10.9332   17.7506 H   0  0  0  0  0  0  0  0  0  0  0  0
   50.2191   10.3693   14.1216 H   0  0  0  0  0  0  0  0  0  0  0  0
   50.5130   13.1369   17.3623 H   0  0  0  0  0  0  0  0  0  0  0  0
   50.0688   14.2371   19.5255 H   0  0  0  0  0  0  0  0  0  0  0  0
   49.8531    9.4674   16.8861 H   0  0  0  0  0  0  0  0  0  0  0  0
   50.9897   10.7383   16.4932 H   0  0  0  0  0  0  0  0  0  0  0  0
   48.0157   10.8005   15.7323 H   0  0  0  0  0  0  0  0  0  0  0  0
   47.1159   13.9105   21.2815 H   0  0  0  0  0  0  0  0  0  0  0  0
   46.1370   12.1013   21.2168 H   0  0  0  0  0  0  0  0  0  0  0  0
   45.1891   12.4173   19.7499 H   0  0  0  0  0  0  0  0  0  0  0  0
   48.7669   13.0701   15.2942 H   0  0  0  0  0  0  0  0  0  0  0  0
   46.6278   10.0214   20.2510 H   0  0  0  0  0  0  0  0  0  0  0  0
   47.9449    7.3745   14.1765 H   0  0  0  0  0  0  0  0  0  0  0  0
   47.8884    9.1239   13.9458 H   0  0  0  0  0  0  0  0  0  0  0  0
   47.9788    8.4364   15.5806 H   0  0  0  0  0  0  0  0  0  0  0  0
   49.9199    7.1118   12.6717 H   0  0  0  0  0  0  0  0  0  0  0  0
   51.3759    8.0880   12.8983 H   0  0  0  0  0  0  0  0  0  0  0  0
   49.8781    8.8453   12.3304 H   0  0  0  0  0  0  0  0  0  0  0  0
   51.5596    7.2611   15.3254 H   0  0  0  0  0  0  0  0  0  0  0  0
   50.1534    7.3375   16.3984 H   0  0  0  0  0  0  0  0  0  0  0  0
   50.1405    6.2593   15.0057 H   0  0  0  0  0  0  0  0  0  0  0  0
   49.9175   10.2000   14.5239 H   0  0  0  0  0  0  0  0  0  0  0  0
   49.4063   11.5112   19.4415 H   0  0  0  0  0  0  0  0  0  0  0  0
   48.8427    7.5058   17.7099 H   0  0  0  0  0  0  0  0  0  0  0  0
   48.1756    5.8099   16.0447 H   0  0  0  0  0  0  0  0  0  0  0  0
   48.1638   11.3309   16.7701 H   0  0  0  0  0  0  0  0  0  0  0  0
   47.8316   10.2464   18.1394 H   0  0  0  0  0  0  0  0  0  0  0  0
   50.2379    9.5278   18.1414 H   0  0  0  0  0  0  0  0  0  0  0  0
   48.5704    6.3204   12.5952 H   0  0  0  0  0  0  0  0  0  0  0  0
   48.2978    8.9474   12.0747 H   0  0  0  0  0  0  0  0  0  0  0  0
   50.0124    9.3901   12.2466 H   0  0  0  0  0  0  0  0  0  0  0  0
   50.7284   11.7118   17.2709 H   0  0  0  0  0  0  0  0  0  0  0  0
   50.5828    7.2796   11.9250 H   0  0  0  0  0  0  0  0  0  0  0  0
   47.1806   11.6681   20.5790 H   0  0  0  0  0  0  0  0  0  0  0  0
   46.1346   13.0170   20.1196 H   0  0  0  0  0  0  0  0  0  0  0  0
   46.2484   11.6041   19.0725 H   0  0  0  0  0  0  0  0  0  0  0  0
   49.0626   13.4110   20.8442 H   0  0  0  0  0  0  0  0  0  0  0  0
   47.9909   14.6959   20.2780 H   0  0  0  0  0  0  0  0  0  0  0  0
   49.5359   14.4176   19.4652 H   0  0  0  0  0  0  0  0  0  0  0  0
   48.2980   14.1502   17.1959 H   0  0  0  0  0  0  0  0  0  0  0  0
   46.8770   13.0937   17.1034 H   0  0  0  0  0  0  0  0  0  0  0  0
   46.8312   14.5454   18.0983 H   0  0  0  0  0  0  0  0  0  0  0  0
   49.8651   10.7053   19.8497 H   0  0  0  0  0  0  0  0  0  0  0  0
   47.5223    7.7817   15.6687 H   0  0  0  0  0  0  0  0  0  0  0  0
   47.9724   12.1337   15.3568 H   0  0  0  0  0  0  0  0  0  0  0  0
   49.2426    9.7847   14.2806 H   0  0  0  0  0  0  0  0  0  0  0  0
   49.7953   12.3675   16.7244 H   0  0  0  0  0  0  0  0  0  0  0  0
   50.4213   10.0015   16.3979 H   0  0  0  0  0  0  0  0  0  0  0  0
 10  3  1  0
 11  4  1  0
 12  1  1  0
 10 13  1  0
 14 12  1  0
 15  7  1  0
 16  7  1  0
 17  7  1  0
  6  8  1  0
  2  1  2  0
  3  2  1  0
  4  1  1  0
  5  9  1  0
  6  3  2  0
  7  5  1  0
  8  4  2  0
  9 10  1  0
 27 20  1  0
 28 21  1  0
 29 18  1  0
 27 30  1  0
 31 29  1  0
 32 24  1  0
 33 24  1  0
 34 24  1  0
 23 25  1  0
 19 18  2  0
 20 19  1  0
 21 18  1  0
 22 26  1  0
 23 20  2  0
 24 22  1  0
 25 21  2  0
 26 27  1  0
 41 36  2  0
 42 39  1  0
 43 40  1  0
 41 35  1  0
 43 44  1  0
 42 43  1  0
 44 37  1  0
 41 42  1  0
 44 38  2  0
  2 45  1  0
  5 46  1  0
  6 47  1  0
  8 48  1  0
  9 49  1  0
  9 50  1  0
 10 51  1  1
 11 52  1  0
 12 53  1  0
 12 54  1  0
 13 55  1  0
 14 56  1  0
 15 57  1  0
 15 58  1  0
 15 59  1  0
 16 60  1  0
 16 61  1  0
 16 62  1  0
 17 63  1  0
 17 64  1  0
 17 65  1  0
 19 66  1  0
 22 67  1  0
 23 68  1  0
 25 69  1  0
 26 70  1  0
 26 71  1  0
 27 72  1  6
 28 73  1  0
 29 74  1  0
 29 75  1  0
 30 76  1  0
 31 77  1  0
 32 78  1  0
 32 79  1  0
 32 80  1  0
 33 81  1  0
 33 82  1  0
 33 83  1  0
 34 84  1  0
 34 85  1  0
 34 86  1  0
 35 87  1  0
 37 88  1  0
 39 89  1  0
 40 90  1  0
 42 91  1  6
 43 92  1  6
M  END
> <Uni-Dock RESULT> 
ENERGY=   -4.831  LOWER_BOUND=    4.137  UPPER_BOUND=    8.188
INTER + INTRA:          -4.831
INTER:                  -4.831
INTRA:                   0.000
UNBOUND:                 0.000

$$$$
