
     RDKit          3D

 92 91  0  0  0  0  0  0  0  0999 V2000
   55.3295    7.6921    6.1948 C   0  0  0  0  0  0  0  0  0  0  0  0
   55.5112    7.1038    7.4584 C   0  0  0  0  0  0  0  0  0  0  0  0
   54.4559    6.9942    8.3841 C   0  0  0  0  0  0  0  0  0  0  0  0
   54.0677    8.2075    5.8820 C   0  0  0  0  0  0  0  0  0  0  0  0
   55.2193    4.1154   10.8755 N   0  0  0  0  0  0  0  0  0  0  0  0
   53.2081    7.5286    8.0304 C   0  0  0  0  0  0  0  0  0  0  0  0
   56.2355    4.4268   11.9066 C   0  0  0  0  0  0  0  0  0  0  0  0
   53.0119    8.1319    6.7874 C   0  0  0  0  0  0  0  0  0  0  0  0
   55.2413    4.8935    9.6151 C   0  0  0  0  0  0  0  0  0  0  0  0
   54.6927    6.3385    9.7341 C   0  0  2  0  0  0  0  0  0  0  0  0
   53.8821    8.7965    4.6612 O   0  0  0  0  0  0  0  0  0  0  0  0
   56.4476    7.7926    5.1895 C   0  0  0  0  0  0  0  0  0  0  0  0
   53.4776    6.2812   10.4948 O   0  0  0  0  0  0  0  0  0  0  0  0
   57.6312    7.1287    5.6273 O   0  0  0  0  0  0  0  0  0  0  0  0
   56.4578    3.1227   12.7061 C   0  0  0  0  0  0  0  0  0  0  0  0
   55.6900    5.4800   12.8857 C   0  0  0  0  0  0  0  0  0  0  0  0
   57.5972    4.8824   11.3563 C   0  0  0  0  0  0  0  0  0  0  0  0
   54.7247    7.4894    6.6358 C   0  0  0  0  0  0  0  0  0  0  0  0
   55.3272    6.3392    7.1769 C   0  0  0  0  0  0  0  0  0  0  0  0
   54.5621    5.2931    7.7186 C   0  0  0  0  0  0  0  0  0  0  0  0
   53.3318    7.5890    6.6763 C   0  0  0  0  0  0  0  0  0  0  0  0
   56.4238    5.0290   10.2701 N   0  0  0  0  0  0  0  0  0  0  0  0
   53.1651    5.4199    7.7230 C   0  0  0  0  0  0  0  0  0  0  0  0
   56.6106    5.2122   11.7223 C   0  0  0  0  0  0  0  0  0  0  0  0
   52.5519    6.5629    7.2071 C   0  0  0  0  0  0  0  0  0  0  0  0
   55.3177    4.1350    9.8723 C   0  0  0  0  0  0  0  0  0  0  0  0
   55.2060    4.0601    8.3247 C   0  0  2  0  0  0  0  0  0  0  0  0
   52.7321    8.7152    6.1860 O   0  0  0  0  0  0  0  0  0  0  0  0
   55.5780    8.6056    6.0904 C   0  0  0  0  0  0  0  0  0  0  0  0
   56.5064    3.8385    7.7677 O   0  0  0  0  0  0  0  0  0  0  0  0
   56.6690    8.0998    5.3237 O   0  0  0  0  0  0  0  0  0  0  0  0
   56.8729    3.8822   12.4468 C   0  0  0  0  0  0  0  0  0  0  0  0
   57.8568    6.1061   11.8787 C   0  0  0  0  0  0  0  0  0  0  0  0
   55.4125    5.9322   12.3640 C   0  0  0  0  0  0  0  0  0  0  0  0
   55.9242    5.7666    7.2396 O   0  0  0  0  0  0  0  0  0  0  0  0
   53.9526    6.7938    7.1804 O   0  0  0  0  0  0  0  0  0  0  0  0
   57.2135    4.5765    9.8664 O   0  0  0  0  0  0  0  0  0  0  0  0
   57.7685    6.7390    9.9199 O   0  0  0  0  0  0  0  0  0  0  0  0
   53.1561    5.6321    9.5833 O   0  0  0  0  0  0  0  0  0  0  0  0
   55.1242    7.5488   10.2790 O   0  0  0  0  0  0  0  0  0  0  0  0
   54.7382    6.0897    7.7937 C   0  0  0  0  0  0  0  0  0  0  0  0
   54.5254    5.4772    9.1763 C   0  0  1  0  0  0  0  0  0  0  0  0
   55.4224    6.1462   10.2168 C   0  0  1  0  0  0  0  0  0  0  0  0
   56.8995    5.8805    9.9637 C   0  0  0  0  0  0  0  0  0  0  0  0
   56.4972    6.7243    7.7216 H   0  0  0  0  0  0  0  0  0  0  0  0
   55.3290    3.1350   10.6047 H   0  0  0  0  0  0  0  0  0  0  0  0
   52.3743    7.4798    8.7299 H   0  0  0  0  0  0  0  0  0  0  0  0
   52.0320    8.5339    6.5482 H   0  0  0  0  0  0  0  0  0  0  0  0
   56.2289    4.8644    9.1416 H   0  0  0  0  0  0  0  0  0  0  0  0
   54.5746    4.3496    8.9303 H   0  0  0  0  0  0  0  0  0  0  0  0
   55.3908    6.9711   10.2909 H   0  0  0  0  0  0  0  0  0  0  0  0
   52.9683    9.1271    4.6185 H   0  0  0  0  0  0  0  0  0  0  0  0
   56.6967    8.8451    5.0176 H   0  0  0  0  0  0  0  0  0  0  0  0
   56.1392    7.3288    4.2459 H   0  0  0  0  0  0  0  0  0  0  0  0
   53.6199    5.5375   11.1150 H   0  0  0  0  0  0  0  0  0  0  0  0
   58.2702    7.2195    4.8997 H   0  0  0  0  0  0  0  0  0  0  0  0
   55.5187    2.7497   13.1345 H   0  0  0  0  0  0  0  0  0  0  0  0
   56.8744    2.3299   12.0716 H   0  0  0  0  0  0  0  0  0  0  0  0
   57.1579    3.2808   13.5354 H   0  0  0  0  0  0  0  0  0  0  0  0
   54.7074    5.1887   13.2783 H   0  0  0  0  0  0  0  0  0  0  0  0
   56.3594    5.5983   13.7470 H   0  0  0  0  0  0  0  0  0  0  0  0
   55.5899    6.4655   12.4237 H   0  0  0  0  0  0  0  0  0  0  0  0
   58.0135    4.1480   10.6562 H   0  0  0  0  0  0  0  0  0  0  0  0
   58.3241    5.0053   12.1689 H   0  0  0  0  0  0  0  0  0  0  0  0
   57.5304    5.8458   10.8415 H   0  0  0  0  0  0  0  0  0  0  0  0
   56.4148    6.2599    7.1703 H   0  0  0  0  0  0  0  0  0  0  0  0
   56.2611    5.9473    9.8459 H   0  0  0  0  0  0  0  0  0  0  0  0
   52.5424    4.6281    8.1345 H   0  0  0  0  0  0  0  0  0  0  0  0
   51.4683    6.6359    7.2309 H   0  0  0  0  0  0  0  0  0  0  0  0
   54.3615    4.4495   10.3019 H   0  0  0  0  0  0  0  0  0  0  0  0
   55.5451    3.1233   10.2272 H   0  0  0  0  0  0  0  0  0  0  0  0
   54.6035    3.1857    8.0505 H   0  0  0  0  0  0  0  0  0  0  0  0
   51.7716    8.6363    6.3034 H   0  0  0  0  0  0  0  0  0  0  0  0
   55.0095    9.2699    5.4324 H   0  0  0  0  0  0  0  0  0  0  0  0
   55.9797    9.2020    6.9157 H   0  0  0  0  0  0  0  0  0  0  0  0
   57.1272    4.1068    8.4773 H   0  0  0  0  0  0  0  0  0  0  0  0
   56.3166    7.3581    4.8021 H   0  0  0  0  0  0  0  0  0  0  0  0
   57.6933    3.3276   11.9759 H   0  0  0  0  0  0  0  0  0  0  0  0
   57.1521    4.0562   13.4935 H   0  0  0  0  0  0  0  0  0  0  0  0
   55.9872    3.2375   12.4536 H   0  0  0  0  0  0  0  0  0  0  0  0
   58.0770    6.2967   12.9362 H   0  0  0  0  0  0  0  0  0  0  0  0
   57.7176    7.0795   11.3912 H   0  0  0  0  0  0  0  0  0  0  0  0
   58.7440    5.6347   11.4384 H   0  0  0  0  0  0  0  0  0  0  0  0
   54.5154    5.3049   12.3774 H   0  0  0  0  0  0  0  0  0  0  0  0
   55.1679    6.8562   11.8278 H   0  0  0  0  0  0  0  0  0  0  0  0
   55.6292    6.2044   13.4036 H   0  0  0  0  0  0  0  0  0  0  0  0
   55.9044    6.2205    6.3688 H   0  0  0  0  0  0  0  0  0  0  0  0
   58.1828    4.5667    9.7099 H   0  0  0  0  0  0  0  0  0  0  0  0
   52.9930    6.5974    9.5704 H   0  0  0  0  0  0  0  0  0  0  0  0
   55.9088    7.9848   10.6658 H   0  0  0  0  0  0  0  0  0  0  0  0
   54.7097    4.4003    9.1033 H   0  0  0  0  0  0  0  0  0  0  0  0
   55.1912    5.7519   11.2130 H   0  0  0  0  0  0  0  0  0  0  0  0
 10  3  1  0
 11  4  1  0
 12  1  1  0
 10 13  1  0
 14 12  1  0
 15  7  1  0
 16  7  1  0
 17  7  1  0
  6  8  1  0
  2  1  2  0
  3  2  1  0
  4  1  1  0
  5  9  1  0
  6  3  2  0
  7  5  1  0
  8  4  2  0
  9 10  1  0
 27 20  1  0
 28 21  1  0
 29 18  1  0
 27 30  1  0
 31 29  1  0
 32 24  1  0
 33 24  1  0
 34 24  1  0
 23 25  1  0
 19 18  2  0
 20 19  1  0
 21 18  1  0
 22 26  1  0
 23 20  2  0
 24 22  1  0
 25 21  2  0
 26 27  1  0
 41 36  2  0
 42 39  1  0
 43 40  1  0
 41 35  1  0
 43 44  1  0
 42 43  1  0
 44 37  1  0
 41 42  1  0
 44 38  2  0
  2 45  1  0
  5 46  1  0
  6 47  1  0
  8 48  1  0
  9 49  1  0
  9 50  1  0
 10 51  1  6
 11 52  1  0
 12 53  1  0
 12 54  1  0
 13 55  1  0
 14 56  1  0
 15 57  1  0
 15 58  1  0
 15 59  1  0
 16 60  1  0
 16 61  1  0
 16 62  1  0
 17 63  1  0
 17 64  1  0
 17 65  1  0
 19 66  1  0
 22 67  1  0
 23 68  1  0
 25 69  1  0
 26 70  1  0
 26 71  1  0
 27 72  1  1
 28 73  1  0
 29 74  1  0
 29 75  1  0
 30 76  1  0
 31 77  1  0
 32 78  1  0
 32 79  1  0
 32 80  1  0
 33 81  1  0
 33 82  1  0
 33 83  1  0
 34 84  1  0
 34 85  1  0
 34 86  1  0
 35 87  1  0
 37 88  1  0
 39 89  1  0
 40 90  1  0
 42 91  1  1
 43 92  1  1
M  END
> <Uni-Dock RESULT> 
ENERGY=   -5.757  LOWER_BOUND=    0.000  UPPER_BOUND=    0.000
INTER + INTRA:          -5.757
INTER:                  -5.757
INTRA:                   0.000
UNBOUND:                 0.000

$$$$

     RDKit          3D

 92 91  0  0  0  0  0  0  0  0999 V2000
   51.2002    3.5056   18.2605 C   0  0  0  0  0  0  0  0  0  0  0  0
   50.4757    4.6390   18.6684 C   0  0  0  0  0  0  0  0  0  0  0  0
   49.1534    4.8671   18.2418 C   0  0  0  0  0  0  0  0  0  0  0  0
   50.5846    2.6107   17.3796 C   0  0  0  0  0  0  0  0  0  0  0  0
   47.3679    7.2098   20.7719 N   0  0  0  0  0  0  0  0  0  0  0  0
   48.5767    3.9460   17.3548 C   0  0  0  0  0  0  0  0  0  0  0  0
   47.7550    8.6368   20.6914 C   0  0  0  0  0  0  0  0  0  0  0  0
   49.2853    2.8234   16.9248 C   0  0  0  0  0  0  0  0  0  0  0  0
   48.3218    6.1970   20.2629 C   0  0  0  0  0  0  0  0  0  0  0  0
   48.4019    6.0988   18.7179 C   0  0  2  0  0  0  0  0  0  0  0  0
   51.2847    1.5116   16.9630 O   0  0  0  0  0  0  0  0  0  0  0  0
   52.6074    3.2421   18.7307 C   0  0  0  0  0  0  0  0  0  0  0  0
   47.0596    6.1062   18.2114 O   0  0  0  0  0  0  0  0  0  0  0  0
   53.0418    4.1932   19.7002 O   0  0  0  0  0  0  0  0  0  0  0  0
   47.0164    9.3536   21.8446 C   0  0  0  0  0  0  0  0  0  0  0  0
   47.2524    9.2475   19.3724 C   0  0  0  0  0  0  0  0  0  0  0  0
   49.2599    8.9091   20.8519 C   0  0  0  0  0  0  0  0  0  0  0  0
   50.4328    3.5517   18.1587 C   0  0  0  0  0  0  0  0  0  0  0  0
   50.1773    4.2571   19.3487 C   0  0  0  0  0  0  0  0  0  0  0  0
   48.9069    4.2539   19.9480 C   0  0  0  0  0  0  0  0  0  0  0  0
   49.3765    2.8633   17.5569 C   0  0  0  0  0  0  0  0  0  0  0  0
   48.9577    7.3807   20.4633 N   0  0  0  0  0  0  0  0  0  0  0  0
   47.8763    3.5343   19.3254 C   0  0  0  0  0  0  0  0  0  0  0  0
   48.4432    8.7241   20.1344 C   0  0  0  0  0  0  0  0  0  0  0  0
   48.1079    2.8443   18.1342 C   0  0  0  0  0  0  0  0  0  0  0  0
   47.9558    6.4096   20.9472 C   0  0  0  0  0  0  0  0  0  0  0  0
   48.6185    5.0311   21.2188 C   0  0  2  0  0  0  0  0  0  0  0  0
   49.5992    2.2011   16.3821 O   0  0  0  0  0  0  0  0  0  0  0  0
   51.8004    3.6022   17.5274 C   0  0  0  0  0  0  0  0  0  0  0  0
   49.8155    5.2247   21.9804 O   0  0  0  0  0  0  0  0  0  0  0  0
   52.8305    3.4906   18.5074 O   0  0  0  0  0  0  0  0  0  0  0  0
   47.7630    9.3965   21.3376 C   0  0  0  0  0  0  0  0  0  0  0  0
   49.6745    9.5632   19.7392 C   0  0  0  0  0  0  0  0  0  0  0  0
   47.4768    8.6863   18.9384 C   0  0  0  0  0  0  0  0  0  0  0  0
   50.3832    4.5880   20.0810 O   0  0  0  0  0  0  0  0  0  0  0  0
   49.2921    3.5684   18.4330 O   0  0  0  0  0  0  0  0  0  0  0  0
   49.5937    7.4233   21.2283 O   0  0  0  0  0  0  0  0  0  0  0  0
   50.8378    7.8904   19.4335 O   0  0  0  0  0  0  0  0  0  0  0  0
   47.0168    5.1238   18.8348 O   0  0  0  0  0  0  0  0  0  0  0  0
   48.9326    6.8612   17.6762 O   0  0  0  0  0  0  0  0  0  0  0  0
   49.3155    4.4581   19.2679 C   0  0  0  0  0  0  0  0  0  0  0  0
   48.2176    5.4849   19.5365 C   0  0  1  0  0  0  0  0  0  0  0  0
   48.6473    6.8792   19.0828 C   0  0  1  0  0  0  0  0  0  0  0  0
   49.8107    7.4208   19.9012 C   0  0  0  0  0  0  0  0  0  0  0  0
   50.9563    5.3556   19.3325 H   0  0  0  0  0  0  0  0  0  0  0  0
   47.2066    6.9775   21.7551 H   0  0  0  0  0  0  0  0  0  0  0  0
   47.5626    4.1014   16.9881 H   0  0  0  0  0  0  0  0  0  0  0  0
   48.8062    2.1317   16.2385 H   0  0  0  0  0  0  0  0  0  0  0  0
   49.3105    6.3096   20.7214 H   0  0  0  0  0  0  0  0  0  0  0  0
   47.9397    5.2332   20.6291 H   0  0  0  0  0  0  0  0  0  0  0  0
   48.9071    6.9758   18.3017 H   0  0  0  0  0  0  0  0  0  0  0  0
   50.7300    1.0172   16.3354 H   0  0  0  0  0  0  0  0  0  0  0  0
   53.2963    3.2901   17.8807 H   0  0  0  0  0  0  0  0  0  0  0  0
   52.6630    2.2505   19.1936 H   0  0  0  0  0  0  0  0  0  0  0  0
   46.5677    6.6628   18.8489 H   0  0  0  0  0  0  0  0  0  0  0  0
   53.9360    3.9145   19.9623 H   0  0  0  0  0  0  0  0  0  0  0  0
   45.9310    9.2038   21.7802 H   0  0  0  0  0  0  0  0  0  0  0  0
   47.3477    8.9842   22.8235 H   0  0  0  0  0  0  0  0  0  0  0  0
   47.2012   10.4345   21.8222 H   0  0  0  0  0  0  0  0  0  0  0  0
   46.1834    9.0495   19.2229 H   0  0  0  0  0  0  0  0  0  0  0  0
   47.3820   10.3371   19.3706 H   0  0  0  0  0  0  0  0  0  0  0  0
   47.7915    8.8622   18.5032 H   0  0  0  0  0  0  0  0  0  0  0  0
   49.6469    8.4872   21.7873 H   0  0  0  0  0  0  0  0  0  0  0  0
   49.4602    9.9876   20.8743 H   0  0  0  0  0  0  0  0  0  0  0  0
   49.8427    8.4950   20.0233 H   0  0  0  0  0  0  0  0  0  0  0  0
   50.9889    4.8157   19.8160 H   0  0  0  0  0  0  0  0  0  0  0  0
   49.4034    6.9907   19.6272 H   0  0  0  0  0  0  0  0  0  0  0  0
   46.8803    3.5103   19.7629 H   0  0  0  0  0  0  0  0  0  0  0  0
   47.2883    2.3020   17.6713 H   0  0  0  0  0  0  0  0  0  0  0  0
   47.1247    6.2937   20.2447 H   0  0  0  0  0  0  0  0  0  0  0  0
   47.5586    6.7690   21.9033 H   0  0  0  0  0  0  0  0  0  0  0  0
   47.9507    4.4298   21.8473 H   0  0  0  0  0  0  0  0  0  0  0  0
   48.7683    1.7935   16.0886 H   0  0  0  0  0  0  0  0  0  0  0  0
   51.9515    2.7858   16.8147 H   0  0  0  0  0  0  0  0  0  0  0  0
   51.9279    4.5500   16.9950 H   0  0  0  0  0  0  0  0  0  0  0  0
   50.0424    6.1689   21.8469 H   0  0  0  0  0  0  0  0  0  0  0  0
   52.5317    2.8179   19.1434 H   0  0  0  0  0  0  0  0  0  0  0  0
   48.4166    9.3918   22.2181 H   0  0  0  0  0  0  0  0  0  0  0  0
   47.5201   10.4428   21.1142 H   0  0  0  0  0  0  0  0  0  0  0  0
   46.8249    8.8997   21.6085 H   0  0  0  0  0  0  0  0  0  0  0  0
   49.3871   10.5888   19.4776 H   0  0  0  0  0  0  0  0  0  0  0  0
   50.1916    9.1350   18.8710 H   0  0  0  0  0  0  0  0  0  0  0  0
   50.3967    9.6245   20.5625 H   0  0  0  0  0  0  0  0  0  0  0  0
   46.5334    8.1903   19.1882 H   0  0  0  0  0  0  0  0  0  0  0  0
   47.9178    8.1586   18.0851 H   0  0  0  0  0  0  0  0  0  0  0  0
   47.2274    9.6999   18.6034 H   0  0  0  0  0  0  0  0  0  0  0  0
   50.9826    3.8649   19.7935 H   0  0  0  0  0  0  0  0  0  0  0  0
   50.4164    7.7969   21.6126 H   0  0  0  0  0  0  0  0  0  0  0  0
   47.2736    5.0860   17.8907 H   0  0  0  0  0  0  0  0  0  0  0  0
   49.5135    7.6269   17.4986 H   0  0  0  0  0  0  0  0  0  0  0  0
   47.9767    5.4539   20.6042 H   0  0  0  0  0  0  0  0  0  0  0  0
   47.8144    7.5812   19.2050 H   0  0  0  0  0  0  0  0  0  0  0  0
 10  3  1  0
 11  4  1  0
 12  1  1  0
 10 13  1  0
 14 12  1  0
 15  7  1  0
 16  7  1  0
 17  7  1  0
  6  8  1  0
  2  1  2  0
  3  2  1  0
  4  1  1  0
  5  9  1  0
  6  3  2  0
  7  5  1  0
  8  4  2  0
  9 10  1  0
 27 20  1  0
 28 21  1  0
 29 18  1  0
 27 30  1  0
 31 29  1  0
 32 24  1  0
 33 24  1  0
 34 24  1  0
 23 25  1  0
 19 18  2  0
 20 19  1  0
 21 18  1  0
 22 26  1  0
 23 20  2  0
 24 22  1  0
 25 21  2  0
 26 27  1  0
 41 36  2  0
 42 39  1  0
 43 40  1  0
 41 35  1  0
 43 44  1  0
 42 43  1  0
 44 37  1  0
 41 42  1  0
 44 38  2  0
  2 45  1  0
  5 46  1  0
  6 47  1  0
  8 48  1  0
  9 49  1  0
  9 50  1  0
 10 51  1  6
 11 52  1  0
 12 53  1  0
 12 54  1  0
 13 55  1  0
 14 56  1  0
 15 57  1  0
 15 58  1  0
 15 59  1  0
 16 60  1  0
 16 61  1  0
 16 62  1  0
 17 63  1  0
 17 64  1  0
 17 65  1  0
 19 66  1  0
 22 67  1  0
 23 68  1  0
 25 69  1  0
 26 70  1  0
 26 71  1  0
 27 72  1  1
 28 73  1  0
 29 74  1  0
 29 75  1  0
 30 76  1  0
 31 77  1  0
 32 78  1  0
 32 79  1  0
 32 80  1  0
 33 81  1  0
 33 82  1  0
 33 83  1  0
 34 84  1  0
 34 85  1  0
 34 86  1  0
 35 87  1  0
 37 88  1  0
 39 89  1  0
 40 90  1  0
 42 91  1  1
 43 92  1  1
M  END
> <Uni-Dock RESULT> 
ENERGY=   -5.393  LOWER_BOUND=   10.517  UPPER_BOUND=   12.827
INTER + INTRA:          -5.393
INTER:                  -5.393
INTRA:                   0.000
UNBOUND:                 0.000

$$$$

     RDKit          3D

 92 91  0  0  0  0  0  0  0  0999 V2000
   48.6233    6.0365   15.8675 C   0  0  0  0  0  0  0  0  0  0  0  0
   48.7939    5.9993   17.2622 C   0  0  0  0  0  0  0  0  0  0  0  0
   48.2162    4.9880   18.0534 C   0  0  0  0  0  0  0  0  0  0  0  0
   47.8259    5.0530   15.2738 C   0  0  0  0  0  0  0  0  0  0  0  0
   50.2039    4.6532   21.3723 N   0  0  0  0  0  0  0  0  0  0  0  0
   47.4204    4.0241   17.4167 C   0  0  0  0  0  0  0  0  0  0  0  0
   49.9561    5.7226   22.3662 C   0  0  0  0  0  0  0  0  0  0  0  0
   47.2248    4.0535   16.0353 C   0  0  0  0  0  0  0  0  0  0  0  0
   49.9378    4.9499   19.9454 C   0  0  0  0  0  0  0  0  0  0  0  0
   48.4374    4.9779   19.5566 C   0  0  2  0  0  0  0  0  0  0  0  0
   47.6394    5.0871   13.9188 O   0  0  0  0  0  0  0  0  0  0  0  0
   49.2570    7.1020   15.0108 C   0  0  0  0  0  0  0  0  0  0  0  0
   47.8109    3.8359   20.1579 O   0  0  0  0  0  0  0  0  0  0  0  0
   50.1164    7.9590   15.7593 O   0  0  0  0  0  0  0  0  0  0  0  0
   50.9195    5.4530   23.5444 C   0  0  0  0  0  0  0  0  0  0  0  0
   48.5217    5.6166   22.9106 C   0  0  0  0  0  0  0  0  0  0  0  0
   50.2170    7.1505   21.8589 C   0  0  0  0  0  0  0  0  0  0  0  0
   48.4440    5.4041   16.2789 C   0  0  0  0  0  0  0  0  0  0  0  0
   49.4908    5.5420   17.2083 C   0  0  0  0  0  0  0  0  0  0  0  0
   49.9619    4.4487   17.9540 C   0  0  0  0  0  0  0  0  0  0  0  0
   47.8504    4.1480   16.1313 C   0  0  0  0  0  0  0  0  0  0  0  0
   50.0252    6.1046   20.6557 N   0  0  0  0  0  0  0  0  0  0  0  0
   49.3547    3.1987   17.7635 C   0  0  0  0  0  0  0  0  0  0  0  0
   49.4597    6.3605   21.9945 C   0  0  0  0  0  0  0  0  0  0  0  0
   48.3021    3.0483   16.8589 C   0  0  0  0  0  0  0  0  0  0  0  0
   50.5469    4.7419   20.4283 C   0  0  0  0  0  0  0  0  0  0  0  0
   51.0749    4.5950   18.9747 C   0  0  2  0  0  0  0  0  0  0  0  0
   46.8091    4.0042   15.2575 O   0  0  0  0  0  0  0  0  0  0  0  0
   47.9438    6.6052   15.5183 C   0  0  0  0  0  0  0  0  0  0  0  0
   51.9103    5.7148   18.6607 O   0  0  0  0  0  0  0  0  0  0  0  0
   49.0224    7.4229   15.0689 O   0  0  0  0  0  0  0  0  0  0  0  0
   50.4843    6.1177   23.1142 C   0  0  0  0  0  0  0  0  0  0  0  0
   49.0661    7.8509   22.0093 C   0  0  0  0  0  0  0  0  0  0  0  0
   48.1959    5.5216   22.2483 C   0  0  0  0  0  0  0  0  0  0  0  0
   50.1841    5.8845   17.5087 O   0  0  0  0  0  0  0  0  0  0  0  0
   48.6042    4.4344   16.9197 O   0  0  0  0  0  0  0  0  0  0  0  0
   50.8327    6.6661   20.4999 O   0  0  0  0  0  0  0  0  0  0  0  0
   49.1149    7.9844   19.9538 O   0  0  0  0  0  0  0  0  0  0  0  0
   48.5621    3.2875   19.4575 O   0  0  0  0  0  0  0  0  0  0  0  0
   47.3518    5.8331   19.7515 O   0  0  0  0  0  0  0  0  0  0  0  0
   49.3010    4.9086   17.8020 C   0  0  0  0  0  0  0  0  0  0  0  0
   49.3147    4.4975   19.2726 C   0  0  1  0  0  0  0  0  0  0  0  0
   48.7080    5.5889   20.1532 C   0  0  1  0  0  0  0  0  0  0  0  0
   49.5461    6.8594   20.1597 C   0  0  0  0  0  0  0  0  0  0  0  0
   49.3906    6.7766   17.7369 H   0  0  0  0  0  0  0  0  0  0  0  0
   51.1906    4.3886   21.4270 H   0  0  0  0  0  0  0  0  0  0  0  0
   46.9412    3.2387   18.0002 H   0  0  0  0  0  0  0  0  0  0  0  0
   46.6028    3.2905   15.5772 H   0  0  0  0  0  0  0  0  0  0  0  0
   50.4666    5.8514   19.6167 H   0  0  0  0  0  0  0  0  0  0  0  0
   50.4010    4.1223   19.3889 H   0  0  0  0  0  0  0  0  0  0  0  0
   47.9491    5.8664   19.9685 H   0  0  0  0  0  0  0  0  0  0  0  0
   47.0398    4.3609   13.6757 H   0  0  0  0  0  0  0  0  0  0  0  0
   48.4777    7.7222   14.5554 H   0  0  0  0  0  0  0  0  0  0  0  0
   49.8607    6.6342   14.2252 H   0  0  0  0  0  0  0  0  0  0  0  0
   48.3125    3.6982   20.9870 H   0  0  0  0  0  0  0  0  0  0  0  0
   50.4989    8.5788   15.1147 H   0  0  0  0  0  0  0  0  0  0  0  0
   50.7753    4.4468   23.9585 H   0  0  0  0  0  0  0  0  0  0  0  0
   51.9682    5.5393   23.2323 H   0  0  0  0  0  0  0  0  0  0  0  0
   50.7597    6.1699   24.3589 H   0  0  0  0  0  0  0  0  0  0  0  0
   48.3020    4.6000   23.2609 H   0  0  0  0  0  0  0  0  0  0  0  0
   48.3756    6.2906   23.7640 H   0  0  0  0  0  0  0  0  0  0  0  0
   47.7715    5.8848   22.1622 H   0  0  0  0  0  0  0  0  0  0  0  0
   51.2356    7.2577   21.4668 H   0  0  0  0  0  0  0  0  0  0  0  0
   50.1031    7.8792   22.6712 H   0  0  0  0  0  0  0  0  0  0  0  0
   49.5152    7.4410   21.0710 H   0  0  0  0  0  0  0  0  0  0  0  0
   49.9475    6.5223   17.3477 H   0  0  0  0  0  0  0  0  0  0  0  0
   49.2996    6.2901   19.9566 H   0  0  0  0  0  0  0  0  0  0  0  0
   49.6952    2.3307   18.3245 H   0  0  0  0  0  0  0  0  0  0  0  0
   47.8468    2.0695   16.7382 H   0  0  0  0  0  0  0  0  0  0  0  0
   49.7931    3.9751   20.6321 H   0  0  0  0  0  0  0  0  0  0  0  0
   51.3997    4.5812   21.0976 H   0  0  0  0  0  0  0  0  0  0  0  0
   51.7175    3.7085   18.9145 H   0  0  0  0  0  0  0  0  0  0  0  0
   46.5002    3.0843   15.2853 H   0  0  0  0  0  0  0  0  0  0  0  0
   47.3732    6.3173   14.6300 H   0  0  0  0  0  0  0  0  0  0  0  0
   47.2952    7.2076   16.1620 H   0  0  0  0  0  0  0  0  0  0  0  0
   51.6646    6.3979   19.3194 H   0  0  0  0  0  0  0  0  0  0  0  0
   49.7173    6.8152   14.7621 H   0  0  0  0  0  0  0  0  0  0  0  0
   51.4140    6.6690   22.9293 H   0  0  0  0  0  0  0  0  0  0  0  0
   50.0911    6.4519   24.0824 H   0  0  0  0  0  0  0  0  0  0  0  0
   50.7341    5.0561   23.2181 H   0  0  0  0  0  0  0  0  0  0  0  0
   48.6339    8.1366   22.9760 H   0  0  0  0  0  0  0  0  0  0  0  0
   48.3210    8.0780   21.2360 H   0  0  0  0  0  0  0  0  0  0  0  0
   49.9364    8.4954   21.8354 H   0  0  0  0  0  0  0  0  0  0  0  0
   48.4242    4.4559   22.3519 H   0  0  0  0  0  0  0  0  0  0  0  0
   47.4726    5.6320   21.4324 H   0  0  0  0  0  0  0  0  0  0  0  0
   47.6967    5.8340   23.1730 H   0  0  0  0  0  0  0  0  0  0  0  0
   50.0613    6.0259   16.5445 H   0  0  0  0  0  0  0  0  0  0  0  0
   51.2352    7.5609   20.4631 H   0  0  0  0  0  0  0  0  0  0  0  0
   47.6616    3.4941   19.1331 H   0  0  0  0  0  0  0  0  0  0  0  0
   47.1217    6.7273   20.0722 H   0  0  0  0  0  0  0  0  0  0  0  0
   50.3483    4.2682   19.5522 H   0  0  0  0  0  0  0  0  0  0  0  0
   48.6490    5.2378   21.1898 H   0  0  0  0  0  0  0  0  0  0  0  0
 10  3  1  0
 11  4  1  0
 12  1  1  0
 10 13  1  0
 14 12  1  0
 15  7  1  0
 16  7  1  0
 17  7  1  0
  6  8  1  0
  2  1  2  0
  3  2  1  0
  4  1  1  0
  5  9  1  0
  6  3  2  0
  7  5  1  0
  8  4  2  0
  9 10  1  0
 27 20  1  0
 28 21  1  0
 29 18  1  0
 27 30  1  0
 31 29  1  0
 32 24  1  0
 33 24  1  0
 34 24  1  0
 23 25  1  0
 19 18  2  0
 20 19  1  0
 21 18  1  0
 22 26  1  0
 23 20  2  0
 24 22  1  0
 25 21  2  0
 26 27  1  0
 41 36  2  0
 42 39  1  0
 43 40  1  0
 41 35  1  0
 43 44  1  0
 42 43  1  0
 44 37  1  0
 41 42  1  0
 44 38  2  0
  2 45  1  0
  5 46  1  0
  6 47  1  0
  8 48  1  0
  9 49  1  0
  9 50  1  0
 10 51  1  6
 11 52  1  0
 12 53  1  0
 12 54  1  0
 13 55  1  0
 14 56  1  0
 15 57  1  0
 15 58  1  0
 15 59  1  0
 16 60  1  0
 16 61  1  0
 16 62  1  0
 17 63  1  0
 17 64  1  0
 17 65  1  0
 19 66  1  0
 22 67  1  0
 23 68  1  0
 25 69  1  0
 26 70  1  0
 26 71  1  0
 27 72  1  1
 28 73  1  0
 29 74  1  0
 29 75  1  0
 30 76  1  0
 31 77  1  0
 32 78  1  0
 32 79  1  0
 32 80  1  0
 33 81  1  0
 33 82  1  0
 33 83  1  0
 34 84  1  0
 34 85  1  0
 34 86  1  0
 35 87  1  0
 37 88  1  0
 39 89  1  0
 40 90  1  0
 42 91  1  1
 43 92  1  1
M  END
> <Uni-Dock RESULT> 
ENERGY=   -5.013  LOWER_BOUND=    9.455  UPPER_BOUND=   11.976
INTER + INTRA:          -5.013
INTER:                  -5.013
INTRA:                   0.000
UNBOUND:                 0.000

$$$$

     RDKit          3D

 92 91  0  0  0  0  0  0  0  0999 V2000
   49.2728    3.8671   17.4098 C   0  0  0  0  0  0  0  0  0  0  0  0
   49.1921    5.2202   17.7816 C   0  0  0  0  0  0  0  0  0  0  0  0
   50.2879    5.9008   18.3461 C   0  0  0  0  0  0  0  0  0  0  0  0
   50.4719    3.1878   17.6474 C   0  0  0  0  0  0  0  0  0  0  0  0
   49.8754    9.7175   17.7622 N   0  0  0  0  0  0  0  0  0  0  0  0
   51.4697    5.1794   18.5709 C   0  0  0  0  0  0  0  0  0  0  0  0
   48.8764   10.3835   18.6289 C   0  0  0  0  0  0  0  0  0  0  0  0
   51.5644    3.8309   18.2244 C   0  0  0  0  0  0  0  0  0  0  0  0
   49.7370    8.2613   17.5276 C   0  0  0  0  0  0  0  0  0  0  0  0
   50.1615    7.3678   18.7211 C   0  0  2  0  0  0  0  0  0  0  0  0
   50.5581    1.8662   17.3041 O   0  0  0  0  0  0  0  0  0  0  0  0
   48.1123    3.1375   16.7839 C   0  0  0  0  0  0  0  0  0  0  0  0
   51.4054    7.8759   19.2240 O   0  0  0  0  0  0  0  0  0  0  0  0
   47.0090    4.0010   16.5185 O   0  0  0  0  0  0  0  0  0  0  0  0
   48.7998   11.8527   18.1546 C   0  0  0  0  0  0  0  0  0  0  0  0
   49.3652   10.3951   20.0870 C   0  0  0  0  0  0  0  0  0  0  0  0
   47.4600    9.7892   18.5585 C   0  0  0  0  0  0  0  0  0  0  0  0
   49.9096    4.2801   17.5689 C   0  0  0  0  0  0  0  0  0  0  0  0
   49.4311    5.4867   17.0269 C   0  0  0  0  0  0  0  0  0  0  0  0
   50.3050    6.5087   16.6203 C   0  0  0  0  0  0  0  0  0  0  0  0
   51.2890    4.1262   17.7279 C   0  0  0  0  0  0  0  0  0  0  0  0
   48.5733    8.7710   18.0089 N   0  0  0  0  0  0  0  0  0  0  0  0
   51.6847    6.3094   16.7765 C   0  0  0  0  0  0  0  0  0  0  0  0
   48.4274    9.7675   19.0875 C   0  0  0  0  0  0  0  0  0  0  0  0
   52.1754    5.1255   17.3300 C   0  0  0  0  0  0  0  0  0  0  0  0
   49.7371    8.9540   17.1183 C   0  0  0  0  0  0  0  0  0  0  0  0
   49.7951    7.8217   16.0564 C   0  0  2  0  0  0  0  0  0  0  0  0
   51.7688    2.9737   18.2848 O   0  0  0  0  0  0  0  0  0  0  0  0
   48.9417    3.2176   18.0226 C   0  0  0  0  0  0  0  0  0  0  0  0
   48.4984    7.6558   15.4719 O   0  0  0  0  0  0  0  0  0  0  0  0
   47.8703    3.0591   17.0948 O   0  0  0  0  0  0  0  0  0  0  0  0
   48.3103   11.2001   18.5431 C   0  0  0  0  0  0  0  0  0  0  0  0
   47.1149    9.4140   19.8147 C   0  0  0  0  0  0  0  0  0  0  0  0
   49.5819    9.6833   20.1002 C   0  0  0  0  0  0  0  0  0  0  0  0
   48.8893    5.9567   16.6101 O   0  0  0  0  0  0  0  0  0  0  0  0
   50.7599    5.0764   17.4297 O   0  0  0  0  0  0  0  0  0  0  0  0
   47.8111    8.8268   17.3707 O   0  0  0  0  0  0  0  0  0  0  0  0
   47.0719    7.5139   19.0191 O   0  0  0  0  0  0  0  0  0  0  0  0
   51.7469    7.5790   18.1513 O   0  0  0  0  0  0  0  0  0  0  0  0
   49.6473    7.0331   19.9748 O   0  0  0  0  0  0  0  0  0  0  0  0
   50.0630    6.0645   17.2649 C   0  0  0  0  0  0  0  0  0  0  0  0
   50.3817    7.4893   17.7123 C   0  0  1  0  0  0  0  0  0  0  0  0
   49.4705    7.9206   18.8606 C   0  0  1  0  0  0  0  0  0  0  0  0
   48.0135    8.0285   18.4337 C   0  0  0  0  0  0  0  0  0  0  0  0
   48.2539    5.7503   17.6257 H   0  0  0  0  0  0  0  0  0  0  0  0
   49.8413   10.1572   16.8391 H   0  0  0  0  0  0  0  0  0  0  0  0
   52.3309    5.6686   19.0247 H   0  0  0  0  0  0  0  0  0  0  0  0
   52.4955    3.3050   18.4127 H   0  0  0  0  0  0  0  0  0  0  0  0
   48.7381    8.0069   17.1560 H   0  0  0  0  0  0  0  0  0  0  0  0
   50.4216    8.0380   16.6966 H   0  0  0  0  0  0  0  0  0  0  0  0
   49.4328    7.4395   19.5345 H   0  0  0  0  0  0  0  0  0  0  0  0
   51.4372    1.5409   17.5639 H   0  0  0  0  0  0  0  0  0  0  0  0
   47.7658    2.3469   17.4578 H   0  0  0  0  0  0  0  0  0  0  0  0
   48.4234    2.6974   15.8299 H   0  0  0  0  0  0  0  0  0  0  0  0
   51.3526    8.8395   19.0602 H   0  0  0  0  0  0  0  0  0  0  0  0
   46.3369    3.4465   16.0863 H   0  0  0  0  0  0  0  0  0  0  0  0
   49.7838   12.3377   18.1905 H   0  0  0  0  0  0  0  0  0  0  0  0
   48.4299   11.9222   17.1237 H   0  0  0  0  0  0  0  0  0  0  0  0
   48.1212   12.4382   18.7867 H   0  0  0  0  0  0  0  0  0  0  0  0
   50.3839   10.7963   20.1631 H   0  0  0  0  0  0  0  0  0  0  0  0
   48.7218   11.0279   20.7110 H   0  0  0  0  0  0  0  0  0  0  0  0
   49.3610    9.3983   20.5354 H   0  0  0  0  0  0  0  0  0  0  0  0
   47.0826    9.7710   17.5289 H   0  0  0  0  0  0  0  0  0  0  0  0
   46.7570   10.3871   19.1519 H   0  0  0  0  0  0  0  0  0  0  0  0
   47.4224    8.7696   18.9544 H   0  0  0  0  0  0  0  0  0  0  0  0
   48.3552    5.6269   16.9180 H   0  0  0  0  0  0  0  0  0  0  0  0
   48.6387    7.8410   18.4336 H   0  0  0  0  0  0  0  0  0  0  0  0
   52.3896    7.0802   16.4715 H   0  0  0  0  0  0  0  0  0  0  0  0
   53.2486    5.0029   17.4452 H   0  0  0  0  0  0  0  0  0  0  0  0
   50.6779    8.9929   17.6759 H   0  0  0  0  0  0  0  0  0  0  0  0
   49.6127    9.8977   16.5751 H   0  0  0  0  0  0  0  0  0  0  0  0
   50.4605    8.1289   15.2406 H   0  0  0  0  0  0  0  0  0  0  0  0
   52.7363    3.0309   18.3411 H   0  0  0  0  0  0  0  0  0  0  0  0
   49.4242    2.2402   18.1193 H   0  0  0  0  0  0  0  0  0  0  0  0
   48.5217    3.4903   18.9959 H   0  0  0  0  0  0  0  0  0  0  0  0
   47.8844    8.0725   16.1124 H   0  0  0  0  0  0  0  0  0  0  0  0
   48.2658    3.1145   16.2077 H   0  0  0  0  0  0  0  0  0  0  0  0
   47.5239   11.2738   17.7824 H   0  0  0  0  0  0  0  0  0  0  0  0
   48.0575   11.9036   19.3463 H   0  0  0  0  0  0  0  0  0  0  0  0
   49.2485   11.5467   18.0960 H   0  0  0  0  0  0  0  0  0  0  0  0
   46.9198   10.1097   20.6399 H   0  0  0  0  0  0  0  0  0  0  0  0
   47.1496    8.4023   20.2388 H   0  0  0  0  0  0  0  0  0  0  0  0
   46.2559    9.4626   19.1343 H   0  0  0  0  0  0  0  0  0  0  0  0
   50.5302   10.0226   19.6711 H   0  0  0  0  0  0  0  0  0  0  0  0
   49.7240    8.6578   20.4595 H   0  0  0  0  0  0  0  0  0  0  0  0
   49.3826   10.3124   20.9756 H   0  0  0  0  0  0  0  0  0  0  0  0
   48.8358    5.0018   16.3861 H   0  0  0  0  0  0  0  0  0  0  0  0
   46.8410    8.7983   17.2213 H   0  0  0  0  0  0  0  0  0  0  0  0
   51.8245    6.9297   18.8800 H   0  0  0  0  0  0  0  0  0  0  0  0
   48.8432    7.1109   20.5248 H   0  0  0  0  0  0  0  0  0  0  0  0
   50.2894    8.1477   16.8422 H   0  0  0  0  0  0  0  0  0  0  0  0
   49.7735    8.9101   19.2217 H   0  0  0  0  0  0  0  0  0  0  0  0
 10  3  1  0
 11  4  1  0
 12  1  1  0
 10 13  1  0
 14 12  1  0
 15  7  1  0
 16  7  1  0
 17  7  1  0
  6  8  1  0
  2  1  2  0
  3  2  1  0
  4  1  1  0
  5  9  1  0
  6  3  2  0
  7  5  1  0
  8  4  2  0
  9 10  1  0
 27 20  1  0
 28 21  1  0
 29 18  1  0
 27 30  1  0
 31 29  1  0
 32 24  1  0
 33 24  1  0
 34 24  1  0
 23 25  1  0
 19 18  2  0
 20 19  1  0
 21 18  1  0
 22 26  1  0
 23 20  2  0
 24 22  1  0
 25 21  2  0
 26 27  1  0
 41 36  2  0
 42 39  1  0
 43 40  1  0
 41 35  1  0
 43 44  1  0
 42 43  1  0
 44 37  1  0
 41 42  1  0
 44 38  2  0
  2 45  1  0
  5 46  1  0
  6 47  1  0
  8 48  1  0
  9 49  1  0
  9 50  1  0
 10 51  1  6
 11 52  1  0
 12 53  1  0
 12 54  1  0
 13 55  1  0
 14 56  1  0
 15 57  1  0
 15 58  1  0
 15 59  1  0
 16 60  1  0
 16 61  1  0
 16 62  1  0
 17 63  1  0
 17 64  1  0
 17 65  1  0
 19 66  1  0
 22 67  1  0
 23 68  1  0
 25 69  1  0
 26 70  1  0
 26 71  1  0
 27 72  1  1
 28 73  1  0
 29 74  1  0
 29 75  1  0
 30 76  1  0
 31 77  1  0
 32 78  1  0
 32 79  1  0
 32 80  1  0
 33 81  1  0
 33 82  1  0
 33 83  1  0
 34 84  1  0
 34 85  1  0
 34 86  1  0
 35 87  1  0
 37 88  1  0
 39 89  1  0
 40 90  1  0
 42 91  1  1
 43 92  1  1
M  END
> <Uni-Dock RESULT> 
ENERGY=   -4.854  LOWER_BOUND=    9.531  UPPER_BOUND=   11.965
INTER + INTRA:          -4.854
INTER:                  -4.854
INTRA:                   0.000
UNBOUND:                 0.000

$$$$

     RDKit          3D

 92 91  0  0  0  0  0  0  0  0999 V2000
   45.6405    9.4680   12.0637 C   0  0  0  0  0  0  0  0  0  0  0  0
   46.7801    9.2232   12.8492 C   0  0  0  0  0  0  0  0  0  0  0  0
   47.0849    7.9366   13.3332 C   0  0  0  0  0  0  0  0  0  0  0  0
   44.7808    8.3978   11.7965 C   0  0  0  0  0  0  0  0  0  0  0  0
   50.8874    7.7089   14.0859 N   0  0  0  0  0  0  0  0  0  0  0  0
   46.1926    6.8933   13.0449 C   0  0  0  0  0  0  0  0  0  0  0  0
   51.3279    8.3961   15.3213 C   0  0  0  0  0  0  0  0  0  0  0  0
   45.0468    7.1193   12.2811 C   0  0  0  0  0  0  0  0  0  0  0  0
   49.6309    8.1611   13.4445 C   0  0  0  0  0  0  0  0  0  0  0  0
   48.3348    7.7137   14.1679 C   0  0  2  0  0  0  0  0  0  0  0  0
   43.6600    8.6262   11.0459 O   0  0  0  0  0  0  0  0  0  0  0  0
   45.3193   10.8372   11.5224 C   0  0  0  0  0  0  0  0  0  0  0  0
   48.4824    6.3276   14.5073 O   0  0  0  0  0  0  0  0  0  0  0  0
   46.3482   11.7846   11.8000 O   0  0  0  0  0  0  0  0  0  0  0  0
   52.8681    8.2725   15.3624 C   0  0  0  0  0  0  0  0  0  0  0  0
   50.7742    7.6680   16.5577 C   0  0  0  0  0  0  0  0  0  0  0  0
   50.9711    9.8902   15.3929 C   0  0  0  0  0  0  0  0  0  0  0  0
   45.8923    8.7464   12.1948 C   0  0  0  0  0  0  0  0  0  0  0  0
   47.2605    9.0727   12.1826 C   0  0  0  0  0  0  0  0  0  0  0  0
   48.2460    8.1043   11.9292 C   0  0  0  0  0  0  0  0  0  0  0  0
   45.5268    7.4154   11.9788 C   0  0  0  0  0  0  0  0  0  0  0  0
   50.0794    9.1043   14.3133 N   0  0  0  0  0  0  0  0  0  0  0  0
   47.8393    6.7823   11.6962 C   0  0  0  0  0  0  0  0  0  0  0  0
   50.6504    8.8677   15.6532 C   0  0  0  0  0  0  0  0  0  0  0  0
   46.4868    6.4376   11.7233 C   0  0  0  0  0  0  0  0  0  0  0  0
   50.4171    8.1001   13.2845 C   0  0  0  0  0  0  0  0  0  0  0  0
   49.7246    8.4447   11.9372 C   0  0  2  0  0  0  0  0  0  0  0  0
   44.2037    7.0748   12.0214 O   0  0  0  0  0  0  0  0  0  0  0  0
   44.8641    9.8051   12.5004 C   0  0  0  0  0  0  0  0  0  0  0  0
   49.9300    9.8307   11.6419 O   0  0  0  0  0  0  0  0  0  0  0  0
   45.1680   11.0319   11.8395 O   0  0  0  0  0  0  0  0  0  0  0  0
   52.1858    8.8023   15.6273 C   0  0  0  0  0  0  0  0  0  0  0  0
   50.2288   10.0766   16.5118 C   0  0  0  0  0  0  0  0  0  0  0  0
   50.0813    7.5922   16.2972 C   0  0  0  0  0  0  0  0  0  0  0  0
   47.9078    9.5791   12.0692 O   0  0  0  0  0  0  0  0  0  0  0  0
   46.5782    7.7972   12.1224 O   0  0  0  0  0  0  0  0  0  0  0  0
   50.4448    9.9411   13.9161 O   0  0  0  0  0  0  0  0  0  0  0  0
   48.7422   10.6189   15.1924 O   0  0  0  0  0  0  0  0  0  0  0  0
   48.5365    6.2409   13.3475 O   0  0  0  0  0  0  0  0  0  0  0  0
   47.6516    8.0562   15.3356 O   0  0  0  0  0  0  0  0  0  0  0  0
   47.6389    8.3107   12.4392 C   0  0  0  0  0  0  0  0  0  0  0  0
   48.7707    7.6533   13.2258 C   0  0  1  0  0  0  0  0  0  0  0  0
   48.8845    8.2516   14.6272 C   0  0  1  0  0  0  0  0  0  0  0  0
   49.3094    9.7129   14.5995 C   0  0  0  0  0  0  0  0  0  0  0  0
   47.4410   10.0557   13.0855 H   0  0  0  0  0  0  0  0  0  0  0  0
   51.6204    7.8185   13.3807 H   0  0  0  0  0  0  0  0  0  0  0  0
   46.3861    5.8890   13.4204 H   0  0  0  0  0  0  0  0  0  0  0  0
   44.3794    6.2873   12.0776 H   0  0  0  0  0  0  0  0  0  0  0  0
   49.6441    9.2392   13.2499 H   0  0  0  0  0  0  0  0  0  0  0  0
   49.6281    7.6868   12.4525 H   0  0  0  0  0  0  0  0  0  0  0  0
   48.2081    8.2625   15.1061 H   0  0  0  0  0  0  0  0  0  0  0  0
   43.1608    7.7938   10.9831 H   0  0  0  0  0  0  0  0  0  0  0  0
   44.3924   11.2055   11.9747 H   0  0  0  0  0  0  0  0  0  0  0  0
   45.2027   10.7865   10.4341 H   0  0  0  0  0  0  0  0  0  0  0  0
   49.4419    6.2234   14.6704 H   0  0  0  0  0  0  0  0  0  0  0  0
   46.0637   12.6148   11.3808 H   0  0  0  0  0  0  0  0  0  0  0  0
   53.1875    7.2231   15.3233 H   0  0  0  0  0  0  0  0  0  0  0  0
   53.3347    8.7959   14.5181 H   0  0  0  0  0  0  0  0  0  0  0  0
   53.2761    8.7065   16.2833 H   0  0  0  0  0  0  0  0  0  0  0  0
   50.9975    6.5941   16.5215 H   0  0  0  0  0  0  0  0  0  0  0  0
   51.2247    8.0605   17.4780 H   0  0  0  0  0  0  0  0  0  0  0  0
   49.6921    7.7842   16.6594 H   0  0  0  0  0  0  0  0  0  0  0  0
   51.3566   10.4373   14.5241 H   0  0  0  0  0  0  0  0  0  0  0  0
   51.4070   10.3521   16.2876 H   0  0  0  0  0  0  0  0  0  0  0  0
   49.8901   10.0520   15.4466 H   0  0  0  0  0  0  0  0  0  0  0  0
   47.5591   10.1044   12.3713 H   0  0  0  0  0  0  0  0  0  0  0  0
   49.0592    9.1446   14.3982 H   0  0  0  0  0  0  0  0  0  0  0  0
   48.5765    6.0073   11.4962 H   0  0  0  0  0  0  0  0  0  0  0  0
   46.2027    5.4042   11.5466 H   0  0  0  0  0  0  0  0  0  0  0  0
   50.1460    7.0866   13.5963 H   0  0  0  0  0  0  0  0  0  0  0  0
   51.4982    8.1348   13.1080 H   0  0  0  0  0  0  0  0  0  0  0  0
   50.2122    7.8851   11.1300 H   0  0  0  0  0  0  0  0  0  0  0  0
   44.1201    6.1193   11.8708 H   0  0  0  0  0  0  0  0  0  0  0  0
   43.8630    9.5086   12.1731 H   0  0  0  0  0  0  0  0  0  0  0  0
   44.8316    9.9897   13.5788 H   0  0  0  0  0  0  0  0  0  0  0  0
   50.1701   10.2330   12.5030 H   0  0  0  0  0  0  0  0  0  0  0  0
   45.4790   10.7935   10.9491 H   0  0  0  0  0  0  0  0  0  0  0  0
   52.6132    9.6803   15.1285 H   0  0  0  0  0  0  0  0  0  0  0  0
   52.5926    8.7726   16.6459 H   0  0  0  0  0  0  0  0  0  0  0  0
   52.5493    7.9075   15.1101 H   0  0  0  0  0  0  0  0  0  0  0  0
   50.6137    9.9888   17.5351 H   0  0  0  0  0  0  0  0  0  0  0  0
   49.1366   10.1622   16.5776 H   0  0  0  0  0  0  0  0  0  0  0  0
   50.6139   11.0156   16.0956 H   0  0  0  0  0  0  0  0  0  0  0  0
   50.4306    6.6859   15.7921 H   0  0  0  0  0  0  0  0  0  0  0  0
   48.9856    7.5880   16.2745 H   0  0  0  0  0  0  0  0  0  0  0  0
   50.3874    7.5125   17.3469 H   0  0  0  0  0  0  0  0  0  0  0  0
   47.1036    9.8518   11.5755 H   0  0  0  0  0  0  0  0  0  0  0  0
   50.5876   10.9097   13.9905 H   0  0  0  0  0  0  0  0  0  0  0  0
   47.6706    6.1629   13.7979 H   0  0  0  0  0  0  0  0  0  0  0  0
   47.6309    8.7226   16.0504 H   0  0  0  0  0  0  0  0  0  0  0  0
   49.6957    7.7682   12.6513 H   0  0  0  0  0  0  0  0  0  0  0  0
   49.6431    7.7074   15.2014 H   0  0  0  0  0  0  0  0  0  0  0  0
 10  3  1  0
 11  4  1  0
 12  1  1  0
 10 13  1  0
 14 12  1  0
 15  7  1  0
 16  7  1  0
 17  7  1  0
  6  8  1  0
  2  1  2  0
  3  2  1  0
  4  1  1  0
  5  9  1  0
  6  3  2  0
  7  5  1  0
  8  4  2  0
  9 10  1  0
 27 20  1  0
 28 21  1  0
 29 18  1  0
 27 30  1  0
 31 29  1  0
 32 24  1  0
 33 24  1  0
 34 24  1  0
 23 25  1  0
 19 18  2  0
 20 19  1  0
 21 18  1  0
 22 26  1  0
 23 20  2  0
 24 22  1  0
 25 21  2  0
 26 27  1  0
 41 36  2  0
 42 39  1  0
 43 40  1  0
 41 35  1  0
 43 44  1  0
 42 43  1  0
 44 37  1  0
 41 42  1  0
 44 38  2  0
  2 45  1  0
  5 46  1  0
  6 47  1  0
  8 48  1  0
  9 49  1  0
  9 50  1  0
 10 51  1  6
 11 52  1  0
 12 53  1  0
 12 54  1  0
 13 55  1  0
 14 56  1  0
 15 57  1  0
 15 58  1  0
 15 59  1  0
 16 60  1  0
 16 61  1  0
 16 62  1  0
 17 63  1  0
 17 64  1  0
 17 65  1  0
 19 66  1  0
 22 67  1  0
 23 68  1  0
 25 69  1  0
 26 70  1  0
 26 71  1  0
 27 72  1  1
 28 73  1  0
 29 74  1  0
 29 75  1  0
 30 76  1  0
 31 77  1  0
 32 78  1  0
 32 79  1  0
 32 80  1  0
 33 81  1  0
 33 82  1  0
 33 83  1  0
 34 84  1  0
 34 85  1  0
 34 86  1  0
 35 87  1  0
 37 88  1  0
 39 89  1  0
 40 90  1  0
 42 91  1  1
 43 92  1  1
M  END
> <Uni-Dock RESULT> 
ENERGY=   -4.842  LOWER_BOUND=    7.504  UPPER_BOUND=    9.307
INTER + INTRA:          -4.842
INTER:                  -4.842
INTRA:                   0.000
UNBOUND:                 0.000

$$$$

     RDKit          3D

 92 91  0  0  0  0  0  0  0  0999 V2000
   47.1197    5.3528   14.0968 C   0  0  0  0  0  0  0  0  0  0  0  0
   48.0505    6.3783   13.8563 C   0  0  0  0  0  0  0  0  0  0  0  0
   47.9821    7.1872   12.7059 C   0  0  0  0  0  0  0  0  0  0  0  0
   46.1278    5.1238   13.1380 C   0  0  0  0  0  0  0  0  0  0  0  0
   49.8044   10.5486   13.3824 N   0  0  0  0  0  0  0  0  0  0  0  0
   46.9735    6.9194   11.7684 C   0  0  0  0  0  0  0  0  0  0  0  0
   51.2834   10.4765   13.3758 C   0  0  0  0  0  0  0  0  0  0  0  0
   46.0502    5.8948   11.9805 C   0  0  0  0  0  0  0  0  0  0  0  0
   49.0453    9.3079   13.6636 C   0  0  0  0  0  0  0  0  0  0  0  0
   49.0010    8.2939   12.4919 C   0  0  2  0  0  0  0  0  0  0  0  0
   45.2251    4.1184   13.3529 O   0  0  0  0  0  0  0  0  0  0  0  0
   47.1720    4.4978   15.3365 C   0  0  0  0  0  0  0  0  0  0  0  0
   48.7149    9.0273   11.2925 O   0  0  0  0  0  0  0  0  0  0  0  0
   48.1757    4.9313   16.2518 O   0  0  0  0  0  0  0  0  0  0  0  0
   51.7892   11.8826   13.7709 C   0  0  0  0  0  0  0  0  0  0  0  0
   51.7925   10.1865   11.9539 C   0  0  0  0  0  0  0  0  0  0  0  0
   51.8861    9.4625   14.3623 C   0  0  0  0  0  0  0  0  0  0  0  0
   46.9929    5.8936   13.5556 C   0  0  0  0  0  0  0  0  0  0  0  0
   47.5964    6.9461   14.2675 C   0  0  0  0  0  0  0  0  0  0  0  0
   47.2925    8.2898   13.9929 C   0  0  0  0  0  0  0  0  0  0  0  0
   46.0962    6.2138   12.5333 C   0  0  0  0  0  0  0  0  0  0  0  0
   50.3377    9.1660   14.0575 N   0  0  0  0  0  0  0  0  0  0  0  0
   46.3716    8.5716   12.9730 C   0  0  0  0  0  0  0  0  0  0  0  0
   51.5362    9.6248   13.3291 C   0  0  0  0  0  0  0  0  0  0  0  0
   45.7778    7.5397   12.2442 C   0  0  0  0  0  0  0  0  0  0  0  0
   49.1547   10.0453   13.9664 C   0  0  0  0  0  0  0  0  0  0  0  0
   47.9567    9.4305   14.7410 C   0  0  2  0  0  0  0  0  0  0  0  0
   45.5270    5.2041   11.8088 O   0  0  0  0  0  0  0  0  0  0  0  0
   47.3656    4.4646   13.8565 C   0  0  0  0  0  0  0  0  0  0  0  0
   48.4001    9.0024   16.0335 O   0  0  0  0  0  0  0  0  0  0  0  0
   47.4693    4.2384   15.2609 O   0  0  0  0  0  0  0  0  0  0  0  0
   52.0110   11.0074   13.8040 C   0  0  0  0  0  0  0  0  0  0  0  0
   52.6409    8.5963   13.6427 C   0  0  0  0  0  0  0  0  0  0  0  0
   51.3061    9.6424   11.8085 C   0  0  0  0  0  0  0  0  0  0  0  0
   47.9496    7.2932   14.9331 O   0  0  0  0  0  0  0  0  0  0  0  0
   46.7449    6.9445   13.0965 O   0  0  0  0  0  0  0  0  0  0  0  0
   50.5069    9.1445   15.0385 O   0  0  0  0  0  0  0  0  0  0  0  0
   51.2822    7.1888   14.2893 O   0  0  0  0  0  0  0  0  0  0  0  0
   47.7352    9.2471   11.8819 O   0  0  0  0  0  0  0  0  0  0  0  0
   49.8859    7.4017   11.8846 O   0  0  0  0  0  0  0  0  0  0  0  0
   47.5986    7.6025   13.6685 C   0  0  0  0  0  0  0  0  0  0  0  0
   48.3438    8.8122   13.1087 C   0  0  1  0  0  0  0  0  0  0  0  0
   49.8087    8.4753   12.8341 C   0  0  1  0  0  0  0  0  0  0  0  0
   50.5821    8.1747   14.1100 C   0  0  0  0  0  0  0  0  0  0  0  0
   48.8429    6.5464   14.5839 H   0  0  0  0  0  0  0  0  0  0  0  0
   49.5206   11.2223   14.0980 H   0  0  0  0  0  0  0  0  0  0  0  0
   46.9030    7.5120   10.8570 H   0  0  0  0  0  0  0  0  0  0  0  0
   45.2829    5.7170   11.2331 H   0  0  0  0  0  0  0  0  0  0  0  0
   49.3691    8.8421   14.6009 H   0  0  0  0  0  0  0  0  0  0  0  0
   48.0123    9.6383   13.8449 H   0  0  0  0  0  0  0  0  0  0  0  0
   49.9783    7.8213   12.3541 H   0  0  0  0  0  0  0  0  0  0  0  0
   44.6315    4.0727   12.5838 H   0  0  0  0  0  0  0  0  0  0  0  0
   47.3931    3.4610   15.0615 H   0  0  0  0  0  0  0  0  0  0  0  0
   46.2091    4.5427   15.8575 H   0  0  0  0  0  0  0  0  0  0  0  0
   49.1317    9.9002   11.4421 H   0  0  0  0  0  0  0  0  0  0  0  0
   48.1014    4.3443   17.0237 H   0  0  0  0  0  0  0  0  0  0  0  0
   51.3988   12.6541   13.0948 H   0  0  0  0  0  0  0  0  0  0  0  0
   51.4836   12.1463   14.7915 H   0  0  0  0  0  0  0  0  0  0  0  0
   52.8841   11.9351   13.7326 H   0  0  0  0  0  0  0  0  0  0  0  0
   51.3606   10.8845   11.2254 H   0  0  0  0  0  0  0  0  0  0  0  0
   52.8829   10.2957   11.8981 H   0  0  0  0  0  0  0  0  0  0  0  0
   51.5581    9.1702   11.6270 H   0  0  0  0  0  0  0  0  0  0  0  0
   51.5429    9.6467   15.3875 H   0  0  0  0  0  0  0  0  0  0  0  0
   52.9812    9.5295   14.3690 H   0  0  0  0  0  0  0  0  0  0  0  0
   51.6328    8.4313   14.0971 H   0  0  0  0  0  0  0  0  0  0  0  0
   48.3142    6.7089   15.0533 H   0  0  0  0  0  0  0  0  0  0  0  0
   50.0769    8.2411   13.7023 H   0  0  0  0  0  0  0  0  0  0  0  0
   46.1132    9.6014   12.7346 H   0  0  0  0  0  0  0  0  0  0  0  0
   45.0740    7.7890   11.4552 H   0  0  0  0  0  0  0  0  0  0  0  0
   48.8685   10.2412   12.9284 H   0  0  0  0  0  0  0  0  0  0  0  0
   49.3941   10.9994   14.4497 H   0  0  0  0  0  0  0  0  0  0  0  0
   47.2064   10.2104   14.9186 H   0  0  0  0  0  0  0  0  0  0  0  0
   44.9482    5.5905   11.1319 H   0  0  0  0  0  0  0  0  0  0  0  0
   46.6201    3.7595   13.4764 H   0  0  0  0  0  0  0  0  0  0  0  0
   48.3288    4.2276   13.3939 H   0  0  0  0  0  0  0  0  0  0  0  0
   49.3738    8.9289   15.9480 H   0  0  0  0  0  0  0  0  0  0  0  0
   46.7328    4.7236   15.6715 H   0  0  0  0  0  0  0  0  0  0  0  0
   52.1357   11.0329   14.8932 H   0  0  0  0  0  0  0  0  0  0  0  0
   52.9797   11.2625   13.3563 H   0  0  0  0  0  0  0  0  0  0  0  0
   51.3089   11.8004   13.5240 H   0  0  0  0  0  0  0  0  0  0  0  0
   53.5801    8.8587   13.1407 H   0  0  0  0  0  0  0  0  0  0  0  0
   52.3597    7.5893   13.3087 H   0  0  0  0  0  0  0  0  0  0  0  0
   52.8466    8.5470   14.7190 H   0  0  0  0  0  0  0  0  0  0  0  0
   50.6040   10.4269   11.5084 H   0  0  0  0  0  0  0  0  0  0  0  0
   50.9105    8.6841   11.4533 H   0  0  0  0  0  0  0  0  0  0  0  0
   52.2438    9.8287   11.2719 H   0  0  0  0  0  0  0  0  0  0  0  0
   47.3874    6.5164   15.1461 H   0  0  0  0  0  0  0  0  0  0  0  0
   51.0488    8.8127   15.7871 H   0  0  0  0  0  0  0  0  0  0  0  0
   47.7769    8.4710   11.2864 H   0  0  0  0  0  0  0  0  0  0  0  0
   50.7670    6.9933   11.9951 H   0  0  0  0  0  0  0  0  0  0  0  0
   48.2362    9.6373   13.8205 H   0  0  0  0  0  0  0  0  0  0  0  0
   50.3008    9.3288   12.3537 H   0  0  0  0  0  0  0  0  0  0  0  0
 10  3  1  0
 11  4  1  0
 12  1  1  0
 10 13  1  0
 14 12  1  0
 15  7  1  0
 16  7  1  0
 17  7  1  0
  6  8  1  0
  2  1  2  0
  3  2  1  0
  4  1  1  0
  5  9  1  0
  6  3  2  0
  7  5  1  0
  8  4  2  0
  9 10  1  0
 27 20  1  0
 28 21  1  0
 29 18  1  0
 27 30  1  0
 31 29  1  0
 32 24  1  0
 33 24  1  0
 34 24  1  0
 23 25  1  0
 19 18  2  0
 20 19  1  0
 21 18  1  0
 22 26  1  0
 23 20  2  0
 24 22  1  0
 25 21  2  0
 26 27  1  0
 41 36  2  0
 42 39  1  0
 43 40  1  0
 41 35  1  0
 43 44  1  0
 42 43  1  0
 44 37  1  0
 41 42  1  0
 44 38  2  0
  2 45  1  0
  5 46  1  0
  6 47  1  0
  8 48  1  0
  9 49  1  0
  9 50  1  0
 10 51  1  6
 11 52  1  0
 12 53  1  0
 12 54  1  0
 13 55  1  0
 14 56  1  0
 15 57  1  0
 15 58  1  0
 15 59  1  0
 16 60  1  0
 16 61  1  0
 16 62  1  0
 17 63  1  0
 17 64  1  0
 17 65  1  0
 19 66  1  0
 22 67  1  0
 23 68  1  0
 25 69  1  0
 26 70  1  0
 26 71  1  0
 27 72  1  1
 28 73  1  0
 29 74  1  0
 29 75  1  0
 30 76  1  0
 31 77  1  0
 32 78  1  0
 32 79  1  0
 32 80  1  0
 33 81  1  0
 33 82  1  0
 33 83  1  0
 34 84  1  0
 34 85  1  0
 34 86  1  0
 35 87  1  0
 37 88  1  0
 39 89  1  0
 40 90  1  0
 42 91  1  1
 43 92  1  1
M  END
> <Uni-Dock RESULT> 
ENERGY=   -4.693  LOWER_BOUND=    7.261  UPPER_BOUND=    9.489
INTER + INTRA:          -4.693
INTER:                  -4.693
INTRA:                   0.000
UNBOUND:                 0.000

$$$$

     RDKit          3D

 92 91  0  0  0  0  0  0  0  0999 V2000
   46.0255   12.9722   10.0329 C   0  0  0  0  0  0  0  0  0  0  0  0
   44.6602   12.7307   10.2643 C   0  0  0  0  0  0  0  0  0  0  0  0
   43.7237   12.7020    9.2133 C   0  0  0  0  0  0  0  0  0  0  0  0
   46.4382   13.2227    8.7205 C   0  0  0  0  0  0  0  0  0  0  0  0
   40.6269   10.6275   10.3016 N   0  0  0  0  0  0  0  0  0  0  0  0
   44.1808   12.9632    7.9131 C   0  0  0  0  0  0  0  0  0  0  0  0
   39.7107   11.3094   11.2441 C   0  0  0  0  0  0  0  0  0  0  0  0
   45.5294   13.2219    7.6649 C   0  0  0  0  0  0  0  0  0  0  0  0
   42.0365   11.0798   10.2464 C   0  0  0  0  0  0  0  0  0  0  0  0
   42.2589   12.4238    9.5065 C   0  0  2  0  0  0  0  0  0  0  0  0
   47.7621   13.4745    8.4842 O   0  0  0  0  0  0  0  0  0  0  0  0
   47.0379   12.9817   11.1491 C   0  0  0  0  0  0  0  0  0  0  0  0
   41.4934   12.3846    8.2938 O   0  0  0  0  0  0  0  0  0  0  0  0
   46.4676   12.6072   12.4012 O   0  0  0  0  0  0  0  0  0  0  0  0
   38.6263   10.2748   11.6219 C   0  0  0  0  0  0  0  0  0  0  0  0
   39.0047   12.4809   10.5411 C   0  0  0  0  0  0  0  0  0  0  0  0
   40.3685   11.8014   12.5440 C   0  0  0  0  0  0  0  0  0  0  0  0
   45.5423   12.7999    9.4513 C   0  0  0  0  0  0  0  0  0  0  0  0
   44.7496   11.9035   10.1907 C   0  0  0  0  0  0  0  0  0  0  0  0
   43.9660   10.9221    9.5612 C   0  0  0  0  0  0  0  0  0  0  0  0
   45.5116   12.7166    8.0571 C   0  0  0  0  0  0  0  0  0  0  0  0
   41.4455   11.5258   11.3855 N   0  0  0  0  0  0  0  0  0  0  0  0
   43.9769   10.8559    8.1601 C   0  0  0  0  0  0  0  0  0  0  0  0
   40.0808   12.0719   11.5144 C   0  0  0  0  0  0  0  0  0  0  0  0
   44.7433   11.7500    7.4105 C   0  0  0  0  0  0  0  0  0  0  0  0
   41.6070   10.4215   10.4182 C   0  0  0  0  0  0  0  0  0  0  0  0
   43.0910    9.9671   10.3513 C   0  0  2  0  0  0  0  0  0  0  0  0
   46.2493   13.6024    7.3226 O   0  0  0  0  0  0  0  0  0  0  0  0
   46.3470   13.8598   10.1589 C   0  0  0  0  0  0  0  0  0  0  0  0
   43.5932    9.7979   11.6815 O   0  0  0  0  0  0  0  0  0  0  0  0
   46.9832   13.3390   11.3243 O   0  0  0  0  0  0  0  0  0  0  0  0
   39.0634   11.0000   11.9369 C   0  0  0  0  0  0  0  0  0  0  0  0
   40.1553   13.1377   12.6257 C   0  0  0  0  0  0  0  0  0  0  0  0
   39.6160   12.7545   10.2169 C   0  0  0  0  0  0  0  0  0  0  0  0
   44.5589   11.4484   10.8576 O   0  0  0  0  0  0  0  0  0  0  0  0
   44.8395   12.1554    8.7678 O   0  0  0  0  0  0  0  0  0  0  0  0
   41.7385   11.1016   12.2374 O   0  0  0  0  0  0  0  0  0  0  0  0
   42.2073   13.2697   12.4961 O   0  0  0  0  0  0  0  0  0  0  0  0
   42.2206   11.5003    8.0822 O   0  0  0  0  0  0  0  0  0  0  0  0
   42.0226   13.7758    9.7598 O   0  0  0  0  0  0  0  0  0  0  0  0
   44.0847   11.7301    9.6272 C   0  0  0  0  0  0  0  0  0  0  0  0
   42.5938   11.4402    9.4684 C   0  0  1  0  0  0  0  0  0  0  0  0
   41.7524   12.4521   10.2447 C   0  0  1  0  0  0  0  0  0  0  0  0
   41.9510   12.3365   11.7493 C   0  0  0  0  0  0  0  0  0  0  0  0
   44.3250   12.5616   11.2863 H   0  0  0  0  0  0  0  0  0  0  0  0
   40.6577    9.6350   10.5477 H   0  0  0  0  0  0  0  0  0  0  0  0
   43.4807   12.9693    7.0784 H   0  0  0  0  0  0  0  0  0  0  0  0
   45.8468   13.4192    6.6454 H   0  0  0  0  0  0  0  0  0  0  0  0
   42.5001   11.0732   11.2391 H   0  0  0  0  0  0  0  0  0  0  0  0
   42.5649   10.3038    9.6738 H   0  0  0  0  0  0  0  0  0  0  0  0
   41.8764   13.2590   10.1012 H   0  0  0  0  0  0  0  0  0  0  0  0
   47.8723   13.6586    7.5355 H   0  0  0  0  0  0  0  0  0  0  0  0
   47.4582   13.9870   11.2585 H   0  0  0  0  0  0  0  0  0  0  0  0
   47.8405   12.2698   10.9263 H   0  0  0  0  0  0  0  0  0  0  0  0
   40.7155   11.8356    8.5210 H   0  0  0  0  0  0  0  0  0  0  0  0
   47.2028   12.6085   13.0379 H   0  0  0  0  0  0  0  0  0  0  0  0
   38.1112    9.8904   10.7321 H   0  0  0  0  0  0  0  0  0  0  0  0
   39.0582    9.4180   12.1547 H   0  0  0  0  0  0  0  0  0  0  0  0
   37.8661   10.7185   12.2761 H   0  0  0  0  0  0  0  0  0  0  0  0
   38.5434   12.1608    9.5981 H   0  0  0  0  0  0  0  0  0  0  0  0
   38.2036   12.8898   11.1697 H   0  0  0  0  0  0  0  0  0  0  0  0
   39.6869   13.3058   10.3198 H   0  0  0  0  0  0  0  0  0  0  0  0
   40.8782   10.9853   13.0702 H   0  0  0  0  0  0  0  0  0  0  0  0
   39.6165   12.2109   13.2300 H   0  0  0  0  0  0  0  0  0  0  0  0
   41.0971   12.5970   12.3599 H   0  0  0  0  0  0  0  0  0  0  0  0
   44.7489   11.9729   11.2790 H   0  0  0  0  0  0  0  0  0  0  0  0
   42.0744   12.2864   11.1104 H   0  0  0  0  0  0  0  0  0  0  0  0
   43.3819   10.1076    7.6404 H   0  0  0  0  0  0  0  0  0  0  0  0
   44.7257   11.6791    6.3267 H   0  0  0  0  0  0  0  0  0  0  0  0
   41.2542   10.6966    9.4194 H   0  0  0  0  0  0  0  0  0  0  0  0
   41.0239    9.5634   10.7715 H   0  0  0  0  0  0  0  0  0  0  0  0
   43.1425    8.9793    9.8777 H   0  0  0  0  0  0  0  0  0  0  0  0
   46.1061   13.4243    6.3790 H   0  0  0  0  0  0  0  0  0  0  0  0
   47.1380   14.2656    9.5209 H   0  0  0  0  0  0  0  0  0  0  0  0
   45.6920   14.6837   10.4588 H   0  0  0  0  0  0  0  0  0  0  0  0
   42.9748   10.3085   12.2451 H   0  0  0  0  0  0  0  0  0  0  0  0
   47.3093   12.4540   11.0859 H   0  0  0  0  0  0  0  0  0  0  0  0
   39.3977   10.4658   12.8343 H   0  0  0  0  0  0  0  0  0  0  0  0
   38.0914   11.4537   12.1674 H   0  0  0  0  0  0  0  0  0  0  0  0
   38.8937   10.2615   11.1457 H   0  0  0  0  0  0  0  0  0  0  0  0
   39.1761   13.6018   12.7953 H   0  0  0  0  0  0  0  0  0  0  0  0
   40.8590   13.9395   12.3679 H   0  0  0  0  0  0  0  0  0  0  0  0
   40.4803   12.7000   13.5775 H   0  0  0  0  0  0  0  0  0  0  0  0
   39.4439   12.0328    9.4119 H   0  0  0  0  0  0  0  0  0  0  0  0
   40.3540   13.4830    9.8623 H   0  0  0  0  0  0  0  0  0  0  0  0
   38.6735   13.2924   10.3724 H   0  0  0  0  0  0  0  0  0  0  0  0
   45.5125   11.6756   10.7960 H   0  0  0  0  0  0  0  0  0  0  0  0
   41.8986   11.1863   13.2024 H   0  0  0  0  0  0  0  0  0  0  0  0
   42.4611   12.4038    7.7914 H   0  0  0  0  0  0  0  0  0  0  0  0
   41.7593   14.3932   10.4702 H   0  0  0  0  0  0  0  0  0  0  0  0
   42.4104   10.4119    9.7971 H   0  0  0  0  0  0  0  0  0  0  0  0
   40.6885   12.2779   10.0469 H   0  0  0  0  0  0  0  0  0  0  0  0
 10  3  1  0
 11  4  1  0
 12  1  1  0
 10 13  1  0
 14 12  1  0
 15  7  1  0
 16  7  1  0
 17  7  1  0
  6  8  1  0
  2  1  2  0
  3  2  1  0
  4  1  1  0
  5  9  1  0
  6  3  2  0
  7  5  1  0
  8  4  2  0
  9 10  1  0
 27 20  1  0
 28 21  1  0
 29 18  1  0
 27 30  1  0
 31 29  1  0
 32 24  1  0
 33 24  1  0
 34 24  1  0
 23 25  1  0
 19 18  2  0
 20 19  1  0
 21 18  1  0
 22 26  1  0
 23 20  2  0
 24 22  1  0
 25 21  2  0
 26 27  1  0
 41 36  2  0
 42 39  1  0
 43 40  1  0
 41 35  1  0
 43 44  1  0
 42 43  1  0
 44 37  1  0
 41 42  1  0
 44 38  2  0
  2 45  1  0
  5 46  1  0
  6 47  1  0
  8 48  1  0
  9 49  1  0
  9 50  1  0
 10 51  1  6
 11 52  1  0
 12 53  1  0
 12 54  1  0
 13 55  1  0
 14 56  1  0
 15 57  1  0
 15 58  1  0
 15 59  1  0
 16 60  1  0
 16 61  1  0
 16 62  1  0
 17 63  1  0
 17 64  1  0
 17 65  1  0
 19 66  1  0
 22 67  1  0
 23 68  1  0
 25 69  1  0
 26 70  1  0
 26 71  1  0
 27 72  1  1
 28 73  1  0
 29 74  1  0
 29 75  1  0
 30 76  1  0
 31 77  1  0
 32 78  1  0
 32 79  1  0
 32 80  1  0
 33 81  1  0
 33 82  1  0
 33 83  1  0
 34 84  1  0
 34 85  1  0
 34 86  1  0
 35 87  1  0
 37 88  1  0
 39 89  1  0
 40 90  1  0
 42 91  1  1
 43 92  1  1
M  END
> <Uni-Dock RESULT> 
ENERGY=   -4.581  LOWER_BOUND=   11.580  UPPER_BOUND=   14.090
INTER + INTRA:          -4.581
INTER:                  -4.581
INTRA:                   0.000
UNBOUND:                 0.000

$$$$

     RDKit          3D

 92 91  0  0  0  0  0  0  0  0999 V2000
   48.1644   12.0245   20.8544 C   0  0  0  0  0  0  0  0  0  0  0  0
   48.1780   10.6536   20.5442 C   0  0  0  0  0  0  0  0  0  0  0  0
   47.8871   10.1833   19.2493 C   0  0  0  0  0  0  0  0  0  0  0  0
   47.8160   12.9263   19.8439 C   0  0  0  0  0  0  0  0  0  0  0  0
   49.4813    6.6762   18.7624 N   0  0  0  0  0  0  0  0  0  0  0  0
   47.5384   11.1226   18.2676 C   0  0  0  0  0  0  0  0  0  0  0  0
   48.7781    5.5642   19.4417 C   0  0  0  0  0  0  0  0  0  0  0  0
   47.5025   12.4866   18.5599 C   0  0  0  0  0  0  0  0  0  0  0  0
   49.2951    8.0476   19.2910 C   0  0  0  0  0  0  0  0  0  0  0  0
   47.9266    8.6933   18.9540 C   0  0  2  0  0  0  0  0  0  0  0  0
   47.7840   14.2622   20.1372 O   0  0  0  0  0  0  0  0  0  0  0  0
   48.4970   12.5378   22.2316 C   0  0  0  0  0  0  0  0  0  0  0  0
   47.6554    8.4395   17.5682 O   0  0  0  0  0  0  0  0  0  0  0  0
   48.9283   11.4986   23.1076 O   0  0  0  0  0  0  0  0  0  0  0  0
   49.6357    4.2997   19.2077 C   0  0  0  0  0  0  0  0  0  0  0  0
   47.4103    5.3217   18.7818 C   0  0  0  0  0  0  0  0  0  0  0  0
   48.6008    5.7414   20.9589 C   0  0  0  0  0  0  0  0  0  0  0  0
   48.1621   11.7774   20.1193 C   0  0  0  0  0  0  0  0  0  0  0  0
   48.9893   10.6623   20.3454 C   0  0  0  0  0  0  0  0  0  0  0  0
   49.7118   10.0584   19.3030 C   0  0  0  0  0  0  0  0  0  0  0  0
   48.0449   12.2616   18.8141 C   0  0  0  0  0  0  0  0  0  0  0  0
   48.9088    7.1319   20.2173 N   0  0  0  0  0  0  0  0  0  0  0  0
   49.5848   10.5855   18.0093 C   0  0  0  0  0  0  0  0  0  0  0  0
   48.1422    5.8959   19.9680 C   0  0  0  0  0  0  0  0  0  0  0  0
   48.7536   11.6799   17.7642 C   0  0  0  0  0  0  0  0  0  0  0  0
   49.8796    7.5081   19.1698 C   0  0  0  0  0  0  0  0  0  0  0  0
   50.5877    8.8416   19.5354 C   0  0  2  0  0  0  0  0  0  0  0  0
   47.2186   13.3230   18.5712 O   0  0  0  0  0  0  0  0  0  0  0  0
   47.3778   12.3811   21.2560 C   0  0  0  0  0  0  0  0  0  0  0  0
   51.0291    8.7839   20.8964 O   0  0  0  0  0  0  0  0  0  0  0  0
   48.1634   12.4654   22.4433 O   0  0  0  0  0  0  0  0  0  0  0  0
   49.0546    4.6718   19.7910 C   0  0  0  0  0  0  0  0  0  0  0  0
   47.2724    5.6779   21.2220 C   0  0  0  0  0  0  0  0  0  0  0  0
   47.2127    6.0385   18.7509 C   0  0  0  0  0  0  0  0  0  0  0  0
   49.4887   10.1816   20.8010 O   0  0  0  0  0  0  0  0  0  0  0  0
   48.5644   11.3090   19.1216 O   0  0  0  0  0  0  0  0  0  0  0  0
   49.4934    7.0301   21.0169 O   0  0  0  0  0  0  0  0  0  0  0  0
   47.5067    7.6285   21.8428 O   0  0  0  0  0  0  0  0  0  0  0  0
   48.6214    9.0792   17.4535 O   0  0  0  0  0  0  0  0  0  0  0  0
   46.6024    8.5462   19.3695 O   0  0  0  0  0  0  0  0  0  0  0  0
   48.9568   10.2414   19.5634 C   0  0  0  0  0  0  0  0  0  0  0  0
   48.9404    8.8953   18.8424 C   0  0  1  0  0  0  0  0  0  0  0  0
   47.9070    7.9545   19.4601 C   0  0  1  0  0  0  0  0  0  0  0  0
   48.2640    7.5590   20.8859 C   0  0  0  0  0  0  0  0  0  0  0  0
   48.4214    9.9418   21.3313 H   0  0  0  0  0  0  0  0  0  0  0  0
   50.4866    6.4912   18.8038 H   0  0  0  0  0  0  0  0  0  0  0  0
   47.2874   10.7928   17.2600 H   0  0  0  0  0  0  0  0  0  0  0  0
   47.2287   13.1845   17.7744 H   0  0  0  0  0  0  0  0  0  0  0  0
   49.5245    8.1008   20.3610 H   0  0  0  0  0  0  0  0  0  0  0  0
   50.0690    8.6531   18.7974 H   0  0  0  0  0  0  0  0  0  0  0  0
   47.1252    8.2208   19.5301 H   0  0  0  0  0  0  0  0  0  0  0  0
   47.4943   14.7416   19.3419 H   0  0  0  0  0  0  0  0  0  0  0  0
   47.6119   13.0057   22.6755 H   0  0  0  0  0  0  0  0  0  0  0  0
   49.3077   13.2720   22.1667 H   0  0  0  0  0  0  0  0  0  0  0  0
   48.0765    7.5724   17.3982 H   0  0  0  0  0  0  0  0  0  0  0  0
   49.1514   11.9358   23.9472 H   0  0  0  0  0  0  0  0  0  0  0  0
   49.7912    4.1129   18.1374 H   0  0  0  0  0  0  0  0  0  0  0  0
   50.6229    4.3924   19.6782 H   0  0  0  0  0  0  0  0  0  0  0  0
   49.1533    3.4099   19.6303 H   0  0  0  0  0  0  0  0  0  0  0  0
   47.5060    5.2121   17.6940 H   0  0  0  0  0  0  0  0  0  0  0  0
   46.9507    4.3998   19.1597 H   0  0  0  0  0  0  0  0  0  0  0  0
   46.7038    6.1323   18.9782 H   0  0  0  0  0  0  0  0  0  0  0  0
   49.5620    5.9130   21.4583 H   0  0  0  0  0  0  0  0  0  0  0  0
   48.1576    4.8432   21.4066 H   0  0  0  0  0  0  0  0  0  0  0  0
   47.9365    6.5771   21.1997 H   0  0  0  0  0  0  0  0  0  0  0  0
   49.0718   10.2623   21.3564 H   0  0  0  0  0  0  0  0  0  0  0  0
   48.2474    7.9058   20.3331 H   0  0  0  0  0  0  0  0  0  0  0  0
   50.1307   10.1422   17.1789 H   0  0  0  0  0  0  0  0  0  0  0  0
   48.6697   12.0614   16.7506 H   0  0  0  0  0  0  0  0  0  0  0  0
   49.4087    7.5918   18.1855 H   0  0  0  0  0  0  0  0  0  0  0  0
   50.6551    6.7351   19.1224 H   0  0  0  0  0  0  0  0  0  0  0  0
   51.4929    8.9459   18.9251 H   0  0  0  0  0  0  0  0  0  0  0  0
   47.2351   13.5233   17.6214 H   0  0  0  0  0  0  0  0  0  0  0  0
   47.0416   13.3967   21.0259 H   0  0  0  0  0  0  0  0  0  0  0  0
   46.4961   11.7672   21.4649 H   0  0  0  0  0  0  0  0  0  0  0  0
   50.4954    8.0666   21.2982 H   0  0  0  0  0  0  0  0  0  0  0  0
   49.0519   12.7464   22.1645 H   0  0  0  0  0  0  0  0  0  0  0  0
   49.7602    4.5775   20.6251 H   0  0  0  0  0  0  0  0  0  0  0  0
   48.4648    3.7474   19.7533 H   0  0  0  0  0  0  0  0  0  0  0  0
   49.6325    4.7223   18.8616 H   0  0  0  0  0  0  0  0  0  0  0  0
   46.6627    4.7711   21.1281 H   0  0  0  0  0  0  0  0  0  0  0  0
   46.5873    6.5192   21.3879 H   0  0  0  0  0  0  0  0  0  0  0  0
   47.8900    5.5665   22.1217 H   0  0  0  0  0  0  0  0  0  0  0  0
   47.7718    6.0939   17.8113 H   0  0  0  0  0  0  0  0  0  0  0  0
   46.5919    6.9385   18.8256 H   0  0  0  0  0  0  0  0  0  0  0  0
   46.5360    5.1796   18.6713 H   0  0  0  0  0  0  0  0  0  0  0  0
   49.4359   11.1088   21.1209 H   0  0  0  0  0  0  0  0  0  0  0  0
   49.5739    6.8259   21.9739 H   0  0  0  0  0  0  0  0  0  0  0  0
   47.7468    9.5195   17.4480 H   0  0  0  0  0  0  0  0  0  0  0  0
   46.0509    8.1132   20.0504 H   0  0  0  0  0  0  0  0  0  0  0  0
   49.9522    8.4781   18.8779 H   0  0  0  0  0  0  0  0  0  0  0  0
   47.8518    7.0297   18.8745 H   0  0  0  0  0  0  0  0  0  0  0  0
 10  3  1  0
 11  4  1  0
 12  1  1  0
 10 13  1  0
 14 12  1  0
 15  7  1  0
 16  7  1  0
 17  7  1  0
  6  8  1  0
  2  1  2  0
  3  2  1  0
  4  1  1  0
  5  9  1  0
  6  3  2  0
  7  5  1  0
  8  4  2  0
  9 10  1  0
 27 20  1  0
 28 21  1  0
 29 18  1  0
 27 30  1  0
 31 29  1  0
 32 24  1  0
 33 24  1  0
 34 24  1  0
 23 25  1  0
 19 18  2  0
 20 19  1  0
 21 18  1  0
 22 26  1  0
 23 20  2  0
 24 22  1  0
 25 21  2  0
 26 27  1  0
 41 36  2  0
 42 39  1  0
 43 40  1  0
 41 35  1  0
 43 44  1  0
 42 43  1  0
 44 37  1  0
 41 42  1  0
 44 38  2  0
  2 45  1  0
  5 46  1  0
  6 47  1  0
  8 48  1  0
  9 49  1  0
  9 50  1  0
 10 51  1  6
 11 52  1  0
 12 53  1  0
 12 54  1  0
 13 55  1  0
 14 56  1  0
 15 57  1  0
 15 58  1  0
 15 59  1  0
 16 60  1  0
 16 61  1  0
 16 62  1  0
 17 63  1  0
 17 64  1  0
 17 65  1  0
 19 66  1  0
 22 67  1  0
 23 68  1  0
 25 69  1  0
 26 70  1  0
 26 71  1  0
 27 72  1  1
 28 73  1  0
 29 74  1  0
 29 75  1  0
 30 76  1  0
 31 77  1  0
 32 78  1  0
 32 79  1  0
 32 80  1  0
 33 81  1  0
 33 82  1  0
 33 83  1  0
 34 84  1  0
 34 85  1  0
 34 86  1  0
 35 87  1  0
 37 88  1  0
 39 89  1  0
 40 90  1  0
 42 91  1  1
 43 92  1  1
M  END
> <Uni-Dock RESULT> 
ENERGY=   -4.493  LOWER_BOUND=   11.792  UPPER_BOUND=   13.825
INTER + INTRA:          -4.493
INTER:                  -4.493
INTRA:                   0.000
UNBOUND:                 0.000

$$$$

     RDKit          3D

 92 91  0  0  0  0  0  0  0  0999 V2000
   50.2301   12.6983   19.8208 C   0  0  0  0  0  0  0  0  0  0  0  0
   49.7296   11.3858   19.8711 C   0  0  0  0  0  0  0  0  0  0  0  0
   48.4912   11.0868   20.4706 C   0  0  0  0  0  0  0  0  0  0  0  0
   49.4785   13.7146   20.4189 C   0  0  0  0  0  0  0  0  0  0  0  0
   47.1226    7.7582   19.0128 N   0  0  0  0  0  0  0  0  0  0  0  0
   47.7726   12.1363   21.0623 C   0  0  0  0  0  0  0  0  0  0  0  0
   47.7839    6.5315   19.5135 C   0  0  0  0  0  0  0  0  0  0  0  0
   48.2605   13.4434   21.0379 C   0  0  0  0  0  0  0  0  0  0  0  0
   47.8748    9.0329   19.0753 C   0  0  0  0  0  0  0  0  0  0  0  0
   47.9812    9.6557   20.4909 C   0  0  2  0  0  0  0  0  0  0  0  0
   49.9622   14.9941   20.3902 O   0  0  0  0  0  0  0  0  0  0  0  0
   51.5435   13.0303   19.1607 C   0  0  0  0  0  0  0  0  0  0  0  0
   46.6825    9.5843   21.0963 O   0  0  0  0  0  0  0  0  0  0  0  0
   52.1259   11.9006   18.5144 O   0  0  0  0  0  0  0  0  0  0  0  0
   47.1651    5.3525   18.7286 C   0  0  0  0  0  0  0  0  0  0  0  0
   47.4511    6.3204   21.0001 C   0  0  0  0  0  0  0  0  0  0  0  0
   49.3074    6.4883   19.3091 C   0  0  0  0  0  0  0  0  0  0  0  0
   49.4901   12.5558   20.0036 C   0  0  0  0  0  0  0  0  0  0  0  0
   49.3416   11.4593   19.1350 C   0  0  0  0  0  0  0  0  0  0  0  0
   48.0774   11.0397   18.6889 C   0  0  0  0  0  0  0  0  0  0  0  0
   48.3384   13.2105   20.4470 C   0  0  0  0  0  0  0  0  0  0  0  0
   48.7238    7.9809   19.2095 N   0  0  0  0  0  0  0  0  0  0  0  0
   46.9453   11.7347   19.1394 C   0  0  0  0  0  0  0  0  0  0  0  0
   48.4925    6.7575   20.0016 C   0  0  0  0  0  0  0  0  0  0  0  0
   47.0736   12.8132   20.0164 C   0  0  0  0  0  0  0  0  0  0  0  0
   47.5368    8.5429   18.5340 C   0  0  0  0  0  0  0  0  0  0  0  0
   47.9081    9.8439   17.7705 C   0  0  2  0  0  0  0  0  0  0  0  0
   48.4628   14.2562   21.3184 O   0  0  0  0  0  0  0  0  0  0  0  0
   50.8598   12.9593   20.4860 C   0  0  0  0  0  0  0  0  0  0  0  0
   49.0960    9.6183   17.0035 O   0  0  0  0  0  0  0  0  0  0  0  0
   51.8177   12.9140   19.4303 O   0  0  0  0  0  0  0  0  0  0  0  0
   47.9208    5.6130   19.1498 C   0  0  0  0  0  0  0  0  0  0  0  0
   49.8758    6.3280   20.5293 C   0  0  0  0  0  0  0  0  0  0  0  0
   47.5744    7.0247   21.2063 C   0  0  0  0  0  0  0  0  0  0  0  0
   49.5858   10.9434   18.5331 O   0  0  0  0  0  0  0  0  0  0  0  0
   48.3670   12.2493   19.8578 O   0  0  0  0  0  0  0  0  0  0  0  0
   49.3321    7.7960   18.4431 O   0  0  0  0  0  0  0  0  0  0  0  0
   50.6978    8.1823   20.1673 O   0  0  0  0  0  0  0  0  0  0  0  0
   46.4291   10.2775   20.1958 O   0  0  0  0  0  0  0  0  0  0  0  0
   48.6825    9.3916   21.6684 O   0  0  0  0  0  0  0  0  0  0  0  0
   48.5387   11.1498   19.3570 C   0  0  0  0  0  0  0  0  0  0  0  0
   47.6553    9.9175   19.5390 C   0  0  1  0  0  0  0  0  0  0  0  0
   48.3635    8.8537   20.3765 C   0  0  1  0  0  0  0  0  0  0  0  0
   49.5849    8.2810   19.6716 C   0  0  0  0  0  0  0  0  0  0  0  0
   50.3207   10.5836   19.4321 H   0  0  0  0  0  0  0  0  0  0  0  0
   46.8890    7.6155   18.0271 H   0  0  0  0  0  0  0  0  0  0  0  0
   46.8203   11.9382   21.5531 H   0  0  0  0  0  0  0  0  0  0  0  0
   47.6764   14.2302   21.5057 H   0  0  0  0  0  0  0  0  0  0  0  0
   48.8519    8.9477   18.5871 H   0  0  0  0  0  0  0  0  0  0  0  0
   47.3004    9.7359   18.4548 H   0  0  0  0  0  0  0  0  0  0  0  0
   48.6609    9.0714   21.1189 H   0  0  0  0  0  0  0  0  0  0  0  0
   49.3408   15.5653   20.8736 H   0  0  0  0  0  0  0  0  0  0  0  0
   52.2541   13.3910   19.9120 H   0  0  0  0  0  0  0  0  0  0  0  0
   51.3897   13.8029   18.3991 H   0  0  0  0  0  0  0  0  0  0  0  0
   46.2899    8.7695   20.7221 H   0  0  0  0  0  0  0  0  0  0  0  0
   52.9399   12.2268   18.0936 H   0  0  0  0  0  0  0  0  0  0  0  0
   46.0738    5.3233   18.8427 H   0  0  0  0  0  0  0  0  0  0  0  0
   47.3876    5.4243   17.6563 H   0  0  0  0  0  0  0  0  0  0  0  0
   47.5586    4.3915   19.0816 H   0  0  0  0  0  0  0  0  0  0  0  0
   46.3691    6.3673   21.1773 H   0  0  0  0  0  0  0  0  0  0  0  0
   47.7916    5.3349   21.3418 H   0  0  0  0  0  0  0  0  0  0  0  0
   47.9307    7.0626   21.6435 H   0  0  0  0  0  0  0  0  0  0  0  0
   49.5755    6.6329   18.2555 H   0  0  0  0  0  0  0  0  0  0  0  0
   49.7142    5.5172   19.6177 H   0  0  0  0  0  0  0  0  0  0  0  0
   49.8228    7.2511   19.9008 H   0  0  0  0  0  0  0  0  0  0  0  0
   50.2321   10.9271   18.7993 H   0  0  0  0  0  0  0  0  0  0  0  0
   49.1097    8.7000   19.8288 H   0  0  0  0  0  0  0  0  0  0  0  0
   45.9510   11.4364   18.8132 H   0  0  0  0  0  0  0  0  0  0  0  0
   46.1782   13.3274   20.3540 H   0  0  0  0  0  0  0  0  0  0  0  0
   46.7209    8.7407   19.2361 H   0  0  0  0  0  0  0  0  0  0  0  0
   47.1886    7.8204   17.7871 H   0  0  0  0  0  0  0  0  0  0  0  0
   47.1166   10.0733   17.0470 H   0  0  0  0  0  0  0  0  0  0  0  0
   47.5776   14.5869   21.5410 H   0  0  0  0  0  0  0  0  0  0  0  0
   50.8697   13.9805   20.8791 H   0  0  0  0  0  0  0  0  0  0  0  0
   51.1866   12.2825   21.2817 H   0  0  0  0  0  0  0  0  0  0  0  0
   49.5074    8.8284   17.4130 H   0  0  0  0  0  0  0  0  0  0  0  0
   51.3737   13.2715   18.6421 H   0  0  0  0  0  0  0  0  0  0  0  0
   48.5336    5.4364   18.2577 H   0  0  0  0  0  0  0  0  0  0  0  0
   47.8944    4.6767   19.7211 H   0  0  0  0  0  0  0  0  0  0  0  0
   46.8957    5.8184   18.8222 H   0  0  0  0  0  0  0  0  0  0  0  0
   49.8029    5.4159   21.1341 H   0  0  0  0  0  0  0  0  0  0  0  0
   50.3253    7.1057   21.1599 H   0  0  0  0  0  0  0  0  0  0  0  0
   50.5706    6.1213   19.7060 H   0  0  0  0  0  0  0  0  0  0  0  0
   46.5450    7.2356   20.8994 H   0  0  0  0  0  0  0  0  0  0  0  0
   47.9294    7.8762   21.7979 H   0  0  0  0  0  0  0  0  0  0  0  0
   47.5387    6.1550   21.8728 H   0  0  0  0  0  0  0  0  0  0  0  0
   50.0405   11.8139   18.5137 H   0  0  0  0  0  0  0  0  0  0  0  0
   50.1999    7.4649   18.1247 H   0  0  0  0  0  0  0  0  0  0  0  0
   46.7023   10.6737   21.0485 H   0  0  0  0  0  0  0  0  0  0  0  0
   49.4072    8.8435   22.0285 H   0  0  0  0  0  0  0  0  0  0  0  0
   47.3806    9.5463   18.5461 H   0  0  0  0  0  0  0  0  0  0  0  0
   47.6808    8.0174   20.5665 H   0  0  0  0  0  0  0  0  0  0  0  0
 10  3  1  0
 11  4  1  0
 12  1  1  0
 10 13  1  0
 14 12  1  0
 15  7  1  0
 16  7  1  0
 17  7  1  0
  6  8  1  0
  2  1  2  0
  3  2  1  0
  4  1  1  0
  5  9  1  0
  6  3  2  0
  7  5  1  0
  8  4  2  0
  9 10  1  0
 27 20  1  0
 28 21  1  0
 29 18  1  0
 27 30  1  0
 31 29  1  0
 32 24  1  0
 33 24  1  0
 34 24  1  0
 23 25  1  0
 19 18  2  0
 20 19  1  0
 21 18  1  0
 22 26  1  0
 23 20  2  0
 24 22  1  0
 25 21  2  0
 26 27  1  0
 41 36  2  0
 42 39  1  0
 43 40  1  0
 41 35  1  0
 43 44  1  0
 42 43  1  0
 44 37  1  0
 41 42  1  0
 44 38  2  0
  2 45  1  0
  5 46  1  0
  6 47  1  0
  8 48  1  0
  9 49  1  0
  9 50  1  0
 10 51  1  6
 11 52  1  0
 12 53  1  0
 12 54  1  0
 13 55  1  0
 14 56  1  0
 15 57  1  0
 15 58  1  0
 15 59  1  0
 16 60  1  0
 16 61  1  0
 16 62  1  0
 17 63  1  0
 17 64  1  0
 17 65  1  0
 19 66  1  0
 22 67  1  0
 23 68  1  0
 25 69  1  0
 26 70  1  0
 26 71  1  0
 27 72  1  1
 28 73  1  0
 29 74  1  0
 29 75  1  0
 30 76  1  0
 31 77  1  0
 32 78  1  0
 32 79  1  0
 32 80  1  0
 33 81  1  0
 33 82  1  0
 33 83  1  0
 34 84  1  0
 34 85  1  0
 34 86  1  0
 35 87  1  0
 37 88  1  0
 39 89  1  0
 40 90  1  0
 42 91  1  1
 43 92  1  1
M  END
> <Uni-Dock RESULT> 
ENERGY=   -4.483  LOWER_BOUND=   11.966  UPPER_BOUND=   13.793
INTER + INTRA:          -4.483
INTER:                  -4.483
INTRA:                   0.000
UNBOUND:                 0.000

$$$$
