
     RDKit          3D

 92 91  0  0  0  0  0  0  0  0999 V2000
   48.5476   10.0351   21.3232 C   0  0  0  0  0  0  0  0  0  0  0  0
   49.3519    8.9190   21.0245 C   0  0  0  0  0  0  0  0  0  0  0  0
   48.9179    7.8958   20.1605 C   0  0  0  0  0  0  0  0  0  0  0  0
   47.2877   10.1156   20.7280 C   0  0  0  0  0  0  0  0  0  0  0  0
   48.4830    4.9219   18.7829 N   0  0  0  0  0  0  0  0  0  0  0  0
   47.6399    8.0061   19.5995 C   0  0  0  0  0  0  0  0  0  0  0  0
   48.2873    3.9765   17.6720 C   0  0  0  0  0  0  0  0  0  0  0  0
   46.8294    9.1096   19.8768 C   0  0  0  0  0  0  0  0  0  0  0  0
   49.6090    5.8656   18.6383 C   0  0  0  0  0  0  0  0  0  0  0  0
   49.8357    6.7077   19.9284 C   0  0  2  0  0  0  0  0  0  0  0  0
   46.4932   11.1920   21.0000 O   0  0  0  0  0  0  0  0  0  0  0  0
   49.0767   11.1145   22.2336 C   0  0  0  0  0  0  0  0  0  0  0  0
   49.7657    5.8378   21.0665 O   0  0  0  0  0  0  0  0  0  0  0  0
   49.5604   10.5538   23.4543 O   0  0  0  0  0  0  0  0  0  0  0  0
   47.0535    3.1314   18.0431 C   0  0  0  0  0  0  0  0  0  0  0  0
   47.9951    4.7078   16.3517 C   0  0  0  0  0  0  0  0  0  0  0  0
   49.4850    3.0282   17.4927 C   0  0  0  0  0  0  0  0  0  0  0  0
   48.6526    4.3707   17.6921 C   0  0  0  0  0  0  0  0  0  0  0  0
   47.9125    5.0301   18.6847 C   0  0  0  0  0  0  0  0  0  0  0  0
   48.4440    5.2550   19.9665 C   0  0  0  0  0  0  0  0  0  0  0  0
   49.9484    3.9442   17.9990 C   0  0  0  0  0  0  0  0  0  0  0  0
   48.9465    8.2090   20.7113 N   0  0  0  0  0  0  0  0  0  0  0  0
   49.7296    4.7758   20.2515 C   0  0  0  0  0  0  0  0  0  0  0  0
   48.1005    9.2584   20.1232 C   0  0  0  0  0  0  0  0  0  0  0  0
   50.4835    4.1304   19.2710 C   0  0  0  0  0  0  0  0  0  0  0  0
   48.3432    7.2317   21.6237 C   0  0  0  0  0  0  0  0  0  0  0  0
   47.6304    5.9967   21.0087 C   0  0  2  0  0  0  0  0  0  0  0  0
   50.6928    3.3506   17.0211 O   0  0  0  0  0  0  0  0  0  0  0  0
   48.0657    4.1782   16.3200 C   0  0  0  0  0  0  0  0  0  0  0  0
   47.2861    5.0866   22.0603 O   0  0  0  0  0  0  0  0  0  0  0  0
   48.5026    5.2155   15.4554 O   0  0  0  0  0  0  0  0  0  0  0  0
   47.2063    9.9648   21.1558 C   0  0  0  0  0  0  0  0  0  0  0  0
   47.2406    8.7330   18.9616 C   0  0  0  0  0  0  0  0  0  0  0  0
   49.0869   10.3003   19.5530 C   0  0  0  0  0  0  0  0  0  0  0  0
   48.7110    4.4396   17.8609 O   0  0  0  0  0  0  0  0  0  0  0  0
   46.6210    5.2265   17.9058 O   0  0  0  0  0  0  0  0  0  0  0  0
   48.2365    8.5281   21.2033 O   0  0  0  0  0  0  0  0  0  0  0  0
   50.3298    8.5720   20.4065 O   0  0  0  0  0  0  0  0  0  0  0  0
   47.1856    6.0175   20.6038 O   0  0  0  0  0  0  0  0  0  0  0  0
   49.5774    7.3667   18.0674 O   0  0  0  0  0  0  0  0  0  0  0  0
   47.7401    5.2141   18.3999 C   0  0  0  0  0  0  0  0  0  0  0  0
   48.2237    6.0067   19.6091 C   0  0  1  0  0  0  0  0  0  0  0  0
   48.6033    7.4093   19.1176 C   0  0  1  0  0  0  0  0  0  0  0  0
   49.1685    8.2146   20.2797 C   0  0  0  0  0  0  0  0  0  0  0  0
   50.3400    8.8498   21.4825 H   0  0  0  0  0  0  0  0  0  0  0  0
   48.6546    4.3963   19.6475 H   0  0  0  0  0  0  0  0  0  0  0  0
   47.2473    7.2307   18.9435 H   0  0  0  0  0  0  0  0  0  0  0  0
   45.8422    9.1611   19.4251 H   0  0  0  0  0  0  0  0  0  0  0  0
   49.4629    6.5341   17.7823 H   0  0  0  0  0  0  0  0  0  0  0  0
   50.5302    5.2941   18.4747 H   0  0  0  0  0  0  0  0  0  0  0  0
   50.8645    7.0832   19.8777 H   0  0  0  0  0  0  0  0  0  0  0  0
   45.6899   11.1361   20.4558 H   0  0  0  0  0  0  0  0  0  0  0  0
   48.3120   11.8524   22.4982 H   0  0  0  0  0  0  0  0  0  0  0  0
   49.9013   11.6477   21.7453 H   0  0  0  0  0  0  0  0  0  0  0  0
   48.8881    5.9835   21.4596 H   0  0  0  0  0  0  0  0  0  0  0  0
   48.9766    9.8041   23.6659 H   0  0  0  0  0  0  0  0  0  0  0  0
   47.2159    2.5660   18.9687 H   0  0  0  0  0  0  0  0  0  0  0  0
   46.8224    2.4041   17.2593 H   0  0  0  0  0  0  0  0  0  0  0  0
   46.1636    3.7581   18.1816 H   0  0  0  0  0  0  0  0  0  0  0  0
   47.1671    5.4160   16.4629 H   0  0  0  0  0  0  0  0  0  0  0  0
   47.7194    3.9993   15.5617 H   0  0  0  0  0  0  0  0  0  0  0  0
   48.8673    5.2621   15.9889 H   0  0  0  0  0  0  0  0  0  0  0  0
   50.3652    3.5476   17.0996 H   0  0  0  0  0  0  0  0  0  0  0  0
   49.7653    2.5503   18.4400 H   0  0  0  0  0  0  0  0  0  0  0  0
   49.2478    2.2311   16.7773 H   0  0  0  0  0  0  0  0  0  0  0  0
   46.9136    5.3935   18.4422 H   0  0  0  0  0  0  0  0  0  0  0  0
   49.4647    7.7241   19.9763 H   0  0  0  0  0  0  0  0  0  0  0  0
   50.1568    4.9159   21.2414 H   0  0  0  0  0  0  0  0  0  0  0  0
   51.4842    3.7875   19.5172 H   0  0  0  0  0  0  0  0  0  0  0  0
   49.1655    6.8583   22.2478 H   0  0  0  0  0  0  0  0  0  0  0  0
   47.6789    7.7070   22.3547 H   0  0  0  0  0  0  0  0  0  0  0  0
   46.6806    6.3203   20.5725 H   0  0  0  0  0  0  0  0  0  0  0  0
   51.5822    3.1695   17.3675 H   0  0  0  0  0  0  0  0  0  0  0  0
   48.3577    3.2105   15.8989 H   0  0  0  0  0  0  0  0  0  0  0  0
   46.9716    4.1912   16.3526 H   0  0  0  0  0  0  0  0  0  0  0  0
   47.3269    4.1876   21.6909 H   0  0  0  0  0  0  0  0  0  0  0  0
   49.4652    5.2820   15.5896 H   0  0  0  0  0  0  0  0  0  0  0  0
   46.3919    9.3187   21.5018 H   0  0  0  0  0  0  0  0  0  0  0  0
   47.7843   10.2902   22.0313 H   0  0  0  0  0  0  0  0  0  0  0  0
   46.7344   10.8573   20.7210 H   0  0  0  0  0  0  0  0  0  0  0  0
   47.8475    8.2051   18.2151 H   0  0  0  0  0  0  0  0  0  0  0  0
   46.7449    9.5617   18.4404 H   0  0  0  0  0  0  0  0  0  0  0  0
   46.4519    8.0570   19.3046 H   0  0  0  0  0  0  0  0  0  0  0  0
   49.7264    9.8691   18.7746 H   0  0  0  0  0  0  0  0  0  0  0  0
   48.5578   11.1480   19.0992 H   0  0  0  0  0  0  0  0  0  0  0  0
   49.7422   10.7063   20.3354 H   0  0  0  0  0  0  0  0  0  0  0  0
   48.2694    4.0191   17.0922 H   0  0  0  0  0  0  0  0  0  0  0  0
   48.7057    9.1241   21.8348 H   0  0  0  0  0  0  0  0  0  0  0  0
   47.0494    6.9364   20.9177 H   0  0  0  0  0  0  0  0  0  0  0  0
   50.4515    7.2059   18.4795 H   0  0  0  0  0  0  0  0  0  0  0  0
   49.0853    5.4891   20.0497 H   0  0  0  0  0  0  0  0  0  0  0  0
   47.7314    7.9465   18.7296 H   0  0  0  0  0  0  0  0  0  0  0  0
 10  3  1  0
 11  4  1  0
 12  1  1  0
 10 13  1  0
 14 12  1  0
 15  7  1  0
 16  7  1  0
 17  7  1  0
  6  8  1  0
  2  1  2  0
  3  2  1  0
  4  1  1  0
  5  9  1  0
  6  3  2  0
  7  5  1  0
  8  4  2  0
  9 10  1  0
 27 20  1  0
 28 21  1  0
 29 18  1  0
 27 30  1  0
 31 29  1  0
 32 24  1  0
 33 24  1  0
 34 24  1  0
 23 25  1  0
 19 18  2  0
 20 19  1  0
 21 18  1  0
 22 26  1  0
 23 20  2  0
 24 22  1  0
 25 21  2  0
 26 27  1  0
 41 36  2  0
 42 39  1  0
 43 40  1  0
 41 35  1  0
 43 44  1  0
 42 43  1  0
 44 37  1  0
 41 42  1  0
 44 38  2  0
  2 45  1  0
  5 46  1  0
  6 47  1  0
  8 48  1  0
  9 49  1  0
  9 50  1  0
 10 51  1  1
 11 52  1  0
 12 53  1  0
 12 54  1  0
 13 55  1  0
 14 56  1  0
 15 57  1  0
 15 58  1  0
 15 59  1  0
 16 60  1  0
 16 61  1  0
 16 62  1  0
 17 63  1  0
 17 64  1  0
 17 65  1  0
 19 66  1  0
 22 67  1  0
 23 68  1  0
 25 69  1  0
 26 70  1  0
 26 71  1  0
 27 72  1  6
 28 73  1  0
 29 74  1  0
 29 75  1  0
 30 76  1  0
 31 77  1  0
 32 78  1  0
 32 79  1  0
 32 80  1  0
 33 81  1  0
 33 82  1  0
 33 83  1  0
 34 84  1  0
 34 85  1  0
 34 86  1  0
 35 87  1  0
 37 88  1  0
 39 89  1  0
 40 90  1  0
 42 91  1  1
 43 92  1  6
M  END
> <Uni-Dock RESULT> 
ENERGY=   -5.068  LOWER_BOUND=    0.000  UPPER_BOUND=    0.000
INTER + INTRA:          -5.068
INTER:                  -5.068
INTRA:                   0.000
UNBOUND:                 0.000

$$$$

     RDKit          3D

 92 91  0  0  0  0  0  0  0  0999 V2000
   49.0126    3.7072   17.9704 C   0  0  0  0  0  0  0  0  0  0  0  0
   49.7747    4.8065   18.4095 C   0  0  0  0  0  0  0  0  0  0  0  0
   49.1838    6.0415   18.7371 C   0  0  0  0  0  0  0  0  0  0  0  0
   47.6293    3.8641   17.8714 C   0  0  0  0  0  0  0  0  0  0  0  0
   48.7079    9.2892   19.1325 N   0  0  0  0  0  0  0  0  0  0  0  0
   47.7951    6.1621   18.6057 C   0  0  0  0  0  0  0  0  0  0  0  0
   48.1955   10.4958   19.8019 C   0  0  0  0  0  0  0  0  0  0  0  0
   47.0200    5.0809   18.1794 C   0  0  0  0  0  0  0  0  0  0  0  0
   49.4474    8.3399   19.9876 C   0  0  0  0  0  0  0  0  0  0  0  0
   50.0883    7.1857   19.1617 C   0  0  2  0  0  0  0  0  0  0  0  0
   46.8704    2.8093   17.4524 O   0  0  0  0  0  0  0  0  0  0  0  0
   49.6974    2.3999   17.6608 C   0  0  0  0  0  0  0  0  0  0  0  0
   50.7114    7.7421   17.9960 O   0  0  0  0  0  0  0  0  0  0  0  0
   50.7832    2.6001   16.7556 O   0  0  0  0  0  0  0  0  0  0  0  0
   47.4493   11.2998   18.7198 C   0  0  0  0  0  0  0  0  0  0  0  0
   47.1990   10.1434   20.9181 C   0  0  0  0  0  0  0  0  0  0  0  0
   49.3240   11.3766   20.3647 C   0  0  0  0  0  0  0  0  0  0  0  0
   48.4505   10.0859   20.0389 C   0  0  0  0  0  0  0  0  0  0  0  0
   48.1477    9.2477   18.9556 C   0  0  0  0  0  0  0  0  0  0  0  0
   49.1610    8.6710   18.1703 C   0  0  0  0  0  0  0  0  0  0  0  0
   49.7944   10.3336   20.3354 C   0  0  0  0  0  0  0  0  0  0  0  0
   49.4066    5.5980   18.3421 N   0  0  0  0  0  0  0  0  0  0  0  0
   50.4955    8.9758   18.4704 C   0  0  0  0  0  0  0  0  0  0  0  0
   48.2103    4.7902   18.6236 C   0  0  0  0  0  0  0  0  0  0  0  0
   50.8134    9.7964   19.5528 C   0  0  0  0  0  0  0  0  0  0  0  0
   49.4819    6.3507   17.0854 C   0  0  0  0  0  0  0  0  0  0  0  0
   48.8025    7.7458   17.0242 C   0  0  2  0  0  0  0  0  0  0  0  0
   50.0958   11.1042   21.4207 O   0  0  0  0  0  0  0  0  0  0  0  0
   47.3415   10.6579   20.8798 C   0  0  0  0  0  0  0  0  0  0  0  0
   49.1548    8.3811   15.7893 O   0  0  0  0  0  0  0  0  0  0  0  0
   47.1330    9.8462   22.0253 O   0  0  0  0  0  0  0  0  0  0  0  0
   47.7837    3.9068   17.4393 C   0  0  0  0  0  0  0  0  0  0  0  0
   47.0220    5.6484   19.0884 C   0  0  0  0  0  0  0  0  0  0  0  0
   48.6141    3.8631   19.7902 C   0  0  0  0  0  0  0  0  0  0  0  0
   48.5668    9.9728   19.9372 O   0  0  0  0  0  0  0  0  0  0  0  0
   46.6309    9.3412   19.0190 O   0  0  0  0  0  0  0  0  0  0  0  0
   48.9600    5.2129   17.6348 O   0  0  0  0  0  0  0  0  0  0  0  0
   50.4006    5.2325   19.3504 O   0  0  0  0  0  0  0  0  0  0  0  0
   48.2254    7.8578   17.1534 O   0  0  0  0  0  0  0  0  0  0  0  0
   48.8842    7.0376   20.7405 O   0  0  0  0  0  0  0  0  0  0  0  0
   47.8330    9.1536   19.1476 C   0  0  0  0  0  0  0  0  0  0  0  0
   48.6684    8.0506   18.5075 C   0  0  1  0  0  0  0  0  0  0  0  0
   48.5166    6.7958   19.3767 C   0  0  1  0  0  0  0  0  0  0  0  0
   49.3987    5.6869   18.8192 C   0  0  0  0  0  0  0  0  0  0  0  0
   50.8566    4.6915   18.4935 H   0  0  0  0  0  0  0  0  0  0  0  0
   49.3518    9.5664   18.3830 H   0  0  0  0  0  0  0  0  0  0  0  0
   47.2915    7.1026   18.8236 H   0  0  0  0  0  0  0  0  0  0  0  0
   45.9449    5.2113   18.0871 H   0  0  0  0  0  0  0  0  0  0  0  0
   48.8038    7.9209   20.7693 H   0  0  0  0  0  0  0  0  0  0  0  0
   50.2748    8.8716   20.4721 H   0  0  0  0  0  0  0  0  0  0  0  0
   50.8898    6.7676   19.7819 H   0  0  0  0  0  0  0  0  0  0  0  0
   45.9317    3.0545   17.5090 H   0  0  0  0  0  0  0  0  0  0  0  0
   49.0223    1.6717   17.1989 H   0  0  0  0  0  0  0  0  0  0  0  0
   50.0907    1.9538   18.5822 H   0  0  0  0  0  0  0  0  0  0  0  0
   50.1050    7.5606   17.2575 H   0  0  0  0  0  0  0  0  0  0  0  0
   50.5102    3.3091   16.1471 H   0  0  0  0  0  0  0  0  0  0  0  0
   48.1207   11.6006   17.9064 H   0  0  0  0  0  0  0  0  0  0  0  0
   47.0180   12.2155   19.1349 H   0  0  0  0  0  0  0  0  0  0  0  0
   46.6275   10.7193   18.2824 H   0  0  0  0  0  0  0  0  0  0  0  0
   46.4034    9.4868   20.5498 H   0  0  0  0  0  0  0  0  0  0  0  0
   46.7226   11.0454   21.3200 H   0  0  0  0  0  0  0  0  0  0  0  0
   47.6878    9.6420   21.7602 H   0  0  0  0  0  0  0  0  0  0  0  0
   49.8121   10.9160   21.2299 H   0  0  0  0  0  0  0  0  0  0  0  0
   50.0918   11.5796   19.6074 H   0  0  0  0  0  0  0  0  0  0  0  0
   48.9316   12.3427   20.7055 H   0  0  0  0  0  0  0  0  0  0  0  0
   47.1028    9.0248   18.7386 H   0  0  0  0  0  0  0  0  0  0  0  0
   49.6043    6.2173   19.1303 H   0  0  0  0  0  0  0  0  0  0  0  0
   51.2986    8.5617   17.8659 H   0  0  0  0  0  0  0  0  0  0  0  0
   51.8578    9.9984   19.7713 H   0  0  0  0  0  0  0  0  0  0  0  0
   50.5518    6.4984   16.8893 H   0  0  0  0  0  0  0  0  0  0  0  0
   49.1572    5.7513   16.2270 H   0  0  0  0  0  0  0  0  0  0  0  0
   47.7178    7.6070   16.9885 H   0  0  0  0  0  0  0  0  0  0  0  0
   51.0608   11.1321   21.5299 H   0  0  0  0  0  0  0  0  0  0  0  0
   47.5755   11.6789   21.1987 H   0  0  0  0  0  0  0  0  0  0  0  0
   46.4046   10.7099   20.3161 H   0  0  0  0  0  0  0  0  0  0  0  0
   49.1822    9.3396   15.9537 H   0  0  0  0  0  0  0  0  0  0  0  0
   48.0186    9.6839   22.3975 H   0  0  0  0  0  0  0  0  0  0  0  0
   47.3538    4.4973   16.6225 H   0  0  0  0  0  0  0  0  0  0  0  0
   48.6313    3.3328   17.0411 H   0  0  0  0  0  0  0  0  0  0  0  0
   47.0114    3.1869   17.7450 H   0  0  0  0  0  0  0  0  0  0  0  0
   47.2991    6.3063   19.9219 H   0  0  0  0  0  0  0  0  0  0  0  0
   46.2006    5.0135   19.4438 H   0  0  0  0  0  0  0  0  0  0  0  0
   46.6184    6.2667   18.2812 H   0  0  0  0  0  0  0  0  0  0  0  0
   48.8873    4.4335   20.6851 H   0  0  0  0  0  0  0  0  0  0  0  0
   47.7914    3.1949   20.0754 H   0  0  0  0  0  0  0  0  0  0  0  0
   49.4711    3.2297   19.5244 H   0  0  0  0  0  0  0  0  0  0  0  0
   47.9042   10.6025   20.2938 H   0  0  0  0  0  0  0  0  0  0  0  0
   49.5514    4.4467   17.4415 H   0  0  0  0  0  0  0  0  0  0  0  0
   48.0859    6.9005   16.9929 H   0  0  0  0  0  0  0  0  0  0  0  0
   49.8625    7.0303   20.7901 H   0  0  0  0  0  0  0  0  0  0  0  0
   49.7137    8.3812   18.4594 H   0  0  0  0  0  0  0  0  0  0  0  0
   47.4831    6.4335   19.3787 H   0  0  0  0  0  0  0  0  0  0  0  0
 10  3  1  0
 11  4  1  0
 12  1  1  0
 10 13  1  0
 14 12  1  0
 15  7  1  0
 16  7  1  0
 17  7  1  0
  6  8  1  0
  2  1  2  0
  3  2  1  0
  4  1  1  0
  5  9  1  0
  6  3  2  0
  7  5  1  0
  8  4  2  0
  9 10  1  0
 27 20  1  0
 28 21  1  0
 29 18  1  0
 27 30  1  0
 31 29  1  0
 32 24  1  0
 33 24  1  0
 34 24  1  0
 23 25  1  0
 19 18  2  0
 20 19  1  0
 21 18  1  0
 22 26  1  0
 23 20  2  0
 24 22  1  0
 25 21  2  0
 26 27  1  0
 41 36  2  0
 42 39  1  0
 43 40  1  0
 41 35  1  0
 43 44  1  0
 42 43  1  0
 44 37  1  0
 41 42  1  0
 44 38  2  0
  2 45  1  0
  5 46  1  0
  6 47  1  0
  8 48  1  0
  9 49  1  0
  9 50  1  0
 10 51  1  1
 11 52  1  0
 12 53  1  0
 12 54  1  0
 13 55  1  0
 14 56  1  0
 15 57  1  0
 15 58  1  0
 15 59  1  0
 16 60  1  0
 16 61  1  0
 16 62  1  0
 17 63  1  0
 17 64  1  0
 17 65  1  0
 19 66  1  0
 22 67  1  0
 23 68  1  0
 25 69  1  0
 26 70  1  0
 26 71  1  0
 27 72  1  6
 28 73  1  0
 29 74  1  0
 29 75  1  0
 30 76  1  0
 31 77  1  0
 32 78  1  0
 32 79  1  0
 32 80  1  0
 33 81  1  0
 33 82  1  0
 33 83  1  0
 34 84  1  0
 34 85  1  0
 34 86  1  0
 35 87  1  0
 37 88  1  0
 39 89  1  0
 40 90  1  0
 42 91  1  1
 43 92  1  6
M  END
> <Uni-Dock RESULT> 
ENERGY=   -4.914  LOWER_BOUND=    1.415  UPPER_BOUND=    5.812
INTER + INTRA:          -4.914
INTER:                  -4.914
INTRA:                   0.000
UNBOUND:                 0.000

$$$$

     RDKit          3D

 92 91  0  0  0  0  0  0  0  0999 V2000
   47.8945   12.3009   20.4841 C   0  0  0  0  0  0  0  0  0  0  0  0
   48.1020   11.6036   19.2788 C   0  0  0  0  0  0  0  0  0  0  0  0
   48.2101   10.2006   19.2369 C   0  0  0  0  0  0  0  0  0  0  0  0
   47.7869   11.5599   21.6619 C   0  0  0  0  0  0  0  0  0  0  0  0
   49.1125    7.1447   18.3551 N   0  0  0  0  0  0  0  0  0  0  0  0
   48.1153    9.4970   20.4437 C   0  0  0  0  0  0  0  0  0  0  0  0
   48.9192    5.7022   18.1361 C   0  0  0  0  0  0  0  0  0  0  0  0
   47.9015   10.1694   21.6494 C   0  0  0  0  0  0  0  0  0  0  0  0
   48.0973    8.0319   17.7537 C   0  0  0  0  0  0  0  0  0  0  0  0
   48.4759    9.5356   17.8973 C   0  0  2  0  0  0  0  0  0  0  0  0
   47.5805   12.2156   22.8415 O   0  0  0  0  0  0  0  0  0  0  0  0
   47.7581   13.8025   20.4639 C   0  0  0  0  0  0  0  0  0  0  0  0
   49.8619    9.6971   17.5657 O   0  0  0  0  0  0  0  0  0  0  0  0
   48.8518   14.3999   19.7672 O   0  0  0  0  0  0  0  0  0  0  0  0
   50.0751    4.9998   18.8742 C   0  0  0  0  0  0  0  0  0  0  0  0
   47.5915    5.2119   18.7360 C   0  0  0  0  0  0  0  0  0  0  0  0
   48.9951    5.3209   16.6479 C   0  0  0  0  0  0  0  0  0  0  0  0
   48.5865    6.0941   17.9783 C   0  0  0  0  0  0  0  0  0  0  0  0
   49.1473    6.9725   18.9172 C   0  0  0  0  0  0  0  0  0  0  0  0
   49.7989    8.1525   18.5181 C   0  0  0  0  0  0  0  0  0  0  0  0
   48.6782    6.4204   16.6217 C   0  0  0  0  0  0  0  0  0  0  0  0
   48.4202   10.7902   19.3396 N   0  0  0  0  0  0  0  0  0  0  0  0
   49.9092    8.4255   17.1481 C   0  0  0  0  0  0  0  0  0  0  0  0
   47.6098   10.8328   20.5660 C   0  0  0  0  0  0  0  0  0  0  0  0
   49.3448    7.5689   16.2027 C   0  0  0  0  0  0  0  0  0  0  0  0
   49.8652   10.5609   19.4447 C   0  0  0  0  0  0  0  0  0  0  0  0
   50.3692    9.0965   19.5582 C   0  0  2  0  0  0  0  0  0  0  0  0
   48.0874    5.5972   15.7074 O   0  0  0  0  0  0  0  0  0  0  0  0
   47.8653    4.8578   18.4426 C   0  0  0  0  0  0  0  0  0  0  0  0
   51.7983    9.0870   19.4575 O   0  0  0  0  0  0  0  0  0  0  0  0
   46.4699    5.1073   18.5127 O   0  0  0  0  0  0  0  0  0  0  0  0
   48.2186   11.7214   21.6636 C   0  0  0  0  0  0  0  0  0  0  0  0
   47.3272    9.4297   21.1284 C   0  0  0  0  0  0  0  0  0  0  0  0
   46.2632   11.4555   20.1391 C   0  0  0  0  0  0  0  0  0  0  0  0
   48.6522    6.2722   17.9532 O   0  0  0  0  0  0  0  0  0  0  0  0
   48.8437    6.1757   20.1767 O   0  0  0  0  0  0  0  0  0  0  0  0
   48.8066   11.1131   20.1105 O   0  0  0  0  0  0  0  0  0  0  0  0
   47.5583   11.2611   18.2562 O   0  0  0  0  0  0  0  0  0  0  0  0
   50.1917    8.6986   19.9736 O   0  0  0  0  0  0  0  0  0  0  0  0
   46.7817    8.6434   18.4430 O   0  0  0  0  0  0  0  0  0  0  0  0
   48.8781    6.8502   19.1565 C   0  0  0  0  0  0  0  0  0  0  0  0
   49.1490    8.3466   19.0484 C   0  0  1  0  0  0  0  0  0  0  0  0
   47.8269    9.0742   19.3236 C   0  0  1  0  0  0  0  0  0  0  0  0
   48.0307   10.5729   19.1483 C   0  0  0  0  0  0  0  0  0  0  0  0
   48.1835   12.1747   18.3525 H   0  0  0  0  0  0  0  0  0  0  0  0
   50.0161    7.4283   17.9597 H   0  0  0  0  0  0  0  0  0  0  0  0
   48.2157    8.4131   20.4694 H   0  0  0  0  0  0  0  0  0  0  0  0
   47.8351    9.5910   22.5671 H   0  0  0  0  0  0  0  0  0  0  0  0
   47.1065    7.8579   18.1882 H   0  0  0  0  0  0  0  0  0  0  0  0
   48.0418    7.8271   16.6781 H   0  0  0  0  0  0  0  0  0  0  0  0
   47.9015   10.0749   17.1350 H   0  0  0  0  0  0  0  0  0  0  0  0
   47.4547   11.5604   23.5482 H   0  0  0  0  0  0  0  0  0  0  0  0
   47.7409   14.2358   21.4696 H   0  0  0  0  0  0  0  0  0  0  0  0
   46.8270   14.0890   19.9604 H   0  0  0  0  0  0  0  0  0  0  0  0
   50.3302    9.7847   18.4137 H   0  0  0  0  0  0  0  0  0  0  0  0
   49.6358   13.8575   19.9638 H   0  0  0  0  0  0  0  0  0  0  0  0
   51.0505    5.2949   18.4689 H   0  0  0  0  0  0  0  0  0  0  0  0
   50.0031    3.9125   18.7772 H   0  0  0  0  0  0  0  0  0  0  0  0
   50.0695    5.2344   19.9459 H   0  0  0  0  0  0  0  0  0  0  0  0
   47.4978    5.5021   19.7880 H   0  0  0  0  0  0  0  0  0  0  0  0
   47.5170    4.1190   18.6875 H   0  0  0  0  0  0  0  0  0  0  0  0
   46.7260    5.6118   18.1969 H   0  0  0  0  0  0  0  0  0  0  0  0
   48.1259    5.6796   16.0869 H   0  0  0  0  0  0  0  0  0  0  0  0
   49.8983    5.7261   16.1741 H   0  0  0  0  0  0  0  0  0  0  0  0
   49.0176    4.2310   16.5251 H   0  0  0  0  0  0  0  0  0  0  0  0
   49.0514    6.7403   19.9781 H   0  0  0  0  0  0  0  0  0  0  0  0
   48.0119   10.1327   18.6726 H   0  0  0  0  0  0  0  0  0  0  0  0
   50.4276    9.3195   16.8102 H   0  0  0  0  0  0  0  0  0  0  0  0
   49.4306    7.8181   15.1491 H   0  0  0  0  0  0  0  0  0  0  0  0
   50.3027   10.9882   18.5330 H   0  0  0  0  0  0  0  0  0  0  0  0
   50.3205   11.1637   20.2391 H   0  0  0  0  0  0  0  0  0  0  0  0
   50.1391    8.7225   20.5604 H   0  0  0  0  0  0  0  0  0  0  0  0
   48.1835    5.9874   14.8228 H   0  0  0  0  0  0  0  0  0  0  0  0
   48.0480    4.0173   17.7650 H   0  0  0  0  0  0  0  0  0  0  0  0
   48.2124    4.5462   19.4330 H   0  0  0  0  0  0  0  0  0  0  0  0
   52.0538    8.2487   19.0351 H   0  0  0  0  0  0  0  0  0  0  0  0
   46.2381    5.5435   17.6730 H   0  0  0  0  0  0  0  0  0  0  0  0
   49.1094   11.2666   22.1109 H   0  0  0  0  0  0  0  0  0  0  0  0
   48.4953   12.7097   21.2721 H   0  0  0  0  0  0  0  0  0  0  0  0
   47.5028   11.8790   22.4828 H   0  0  0  0  0  0  0  0  0  0  0  0
   46.9094    8.7633   20.3631 H   0  0  0  0  0  0  0  0  0  0  0  0
   46.5931    9.4789   21.9425 H   0  0  0  0  0  0  0  0  0  0  0  0
   48.2259    8.9609   21.5397 H   0  0  0  0  0  0  0  0  0  0  0  0
   45.7538   10.8427   19.3869 H   0  0  0  0  0  0  0  0  0  0  0  0
   45.5776   11.5525   20.9906 H   0  0  0  0  0  0  0  0  0  0  0  0
   46.3992   12.4593   19.7145 H   0  0  0  0  0  0  0  0  0  0  0  0
   48.4704    5.3348   18.1790 H   0  0  0  0  0  0  0  0  0  0  0  0
   48.7731   12.0844   19.9382 H   0  0  0  0  0  0  0  0  0  0  0  0
   49.9121    9.4830   20.4914 H   0  0  0  0  0  0  0  0  0  0  0  0
   46.9188    9.0865   17.5802 H   0  0  0  0  0  0  0  0  0  0  0  0
   49.5256    8.5660   18.0413 H   0  0  0  0  0  0  0  0  0  0  0  0
   47.4804    8.9001   20.3478 H   0  0  0  0  0  0  0  0  0  0  0  0
 10  3  1  0
 11  4  1  0
 12  1  1  0
 10 13  1  0
 14 12  1  0
 15  7  1  0
 16  7  1  0
 17  7  1  0
  6  8  1  0
  2  1  2  0
  3  2  1  0
  4  1  1  0
  5  9  1  0
  6  3  2  0
  7  5  1  0
  8  4  2  0
  9 10  1  0
 27 20  1  0
 28 21  1  0
 29 18  1  0
 27 30  1  0
 31 29  1  0
 32 24  1  0
 33 24  1  0
 34 24  1  0
 23 25  1  0
 19 18  2  0
 20 19  1  0
 21 18  1  0
 22 26  1  0
 23 20  2  0
 24 22  1  0
 25 21  2  0
 26 27  1  0
 41 36  2  0
 42 39  1  0
 43 40  1  0
 41 35  1  0
 43 44  1  0
 42 43  1  0
 44 37  1  0
 41 42  1  0
 44 38  2  0
  2 45  1  0
  5 46  1  0
  6 47  1  0
  8 48  1  0
  9 49  1  0
  9 50  1  0
 10 51  1  1
 11 52  1  0
 12 53  1  0
 12 54  1  0
 13 55  1  0
 14 56  1  0
 15 57  1  0
 15 58  1  0
 15 59  1  0
 16 60  1  0
 16 61  1  0
 16 62  1  0
 17 63  1  0
 17 64  1  0
 17 65  1  0
 19 66  1  0
 22 67  1  0
 23 68  1  0
 25 69  1  0
 26 70  1  0
 26 71  1  0
 27 72  1  6
 28 73  1  0
 29 74  1  0
 29 75  1  0
 30 76  1  0
 31 77  1  0
 32 78  1  0
 32 79  1  0
 32 80  1  0
 33 81  1  0
 33 82  1  0
 33 83  1  0
 34 84  1  0
 34 85  1  0
 34 86  1  0
 35 87  1  0
 37 88  1  0
 39 89  1  0
 40 90  1  0
 42 91  1  1
 43 92  1  6
M  END
> <Uni-Dock RESULT> 
ENERGY=   -4.630  LOWER_BOUND=    1.813  UPPER_BOUND=    3.293
INTER + INTRA:          -4.630
INTER:                  -4.630
INTRA:                   0.000
UNBOUND:                 0.000

$$$$

     RDKit          3D

 92 91  0  0  0  0  0  0  0  0999 V2000
   47.8201   12.3134   19.2427 C   0  0  0  0  0  0  0  0  0  0  0  0
   47.8825   11.0542   18.6162 C   0  0  0  0  0  0  0  0  0  0  0  0
   48.1237    9.8713   19.3403 C   0  0  0  0  0  0  0  0  0  0  0  0
   47.9969   12.3688   20.6260 C   0  0  0  0  0  0  0  0  0  0  0  0
   49.1630    6.8376   20.1447 N   0  0  0  0  0  0  0  0  0  0  0  0
   48.3143    9.9736   20.7235 C   0  0  0  0  0  0  0  0  0  0  0  0
   49.0820    5.5266   20.8088 C   0  0  0  0  0  0  0  0  0  0  0  0
   48.2482   11.2126   21.3654 C   0  0  0  0  0  0  0  0  0  0  0  0
   47.9733    7.2459   19.3721 C   0  0  0  0  0  0  0  0  0  0  0  0
   48.2163    8.5618   18.5757 C   0  0  2  0  0  0  0  0  0  0  0  0
   47.9352   13.5792   21.2547 O   0  0  0  0  0  0  0  0  0  0  0  0
   47.5304   13.5433   18.4196 C   0  0  0  0  0  0  0  0  0  0  0  0
   49.4988    8.4862   17.9383 O   0  0  0  0  0  0  0  0  0  0  0  0
   48.4182   13.6257   17.3046 O   0  0  0  0  0  0  0  0  0  0  0  0
   50.4148    5.3458   21.5605 C   0  0  0  0  0  0  0  0  0  0  0  0
   47.9370    5.4815   21.8337 C   0  0  0  0  0  0  0  0  0  0  0  0
   48.9338    4.3704   19.8053 C   0  0  0  0  0  0  0  0  0  0  0  0
   48.6887    5.7661   20.5311 C   0  0  0  0  0  0  0  0  0  0  0  0
   49.3134    7.0124   20.6867 C   0  0  0  0  0  0  0  0  0  0  0  0
   49.7614    7.7505   19.5774 C   0  0  0  0  0  0  0  0  0  0  0  0
   48.5071    5.2678   19.2373 C   0  0  0  0  0  0  0  0  0  0  0  0
   48.2875   10.4124   19.0529 N   0  0  0  0  0  0  0  0  0  0  0  0
   49.6011    7.2004   18.2985 C   0  0  0  0  0  0  0  0  0  0  0  0
   47.7050   11.1527   20.1822 C   0  0  0  0  0  0  0  0  0  0  0  0
   48.9695    5.9685   18.1263 C   0  0  0  0  0  0  0  0  0  0  0  0
   49.7442   10.2601   18.9728 C   0  0  0  0  0  0  0  0  0  0  0  0
   50.4065    9.1079   19.7762 C   0  0  2  0  0  0  0  0  0  0  0  0
   47.8517    4.0815   19.0769 O   0  0  0  0  0  0  0  0  0  0  0  0
   48.1897    5.0194   21.7384 C   0  0  0  0  0  0  0  0  0  0  0  0
   51.7891    9.0209   19.4111 O   0  0  0  0  0  0  0  0  0  0  0  0
   46.8102    5.2867   21.9385 O   0  0  0  0  0  0  0  0  0  0  0  0
   48.4034   12.4963   20.4504 C   0  0  0  0  0  0  0  0  0  0  0  0
   47.6696   10.3170   21.4725 C   0  0  0  0  0  0  0  0  0  0  0  0
   46.2480   11.4465   19.7643 C   0  0  0  0  0  0  0  0  0  0  0  0
   48.7305    5.8979   20.3986 O   0  0  0  0  0  0  0  0  0  0  0  0
   49.3182    7.0708   22.2065 O   0  0  0  0  0  0  0  0  0  0  0  0
   48.7684   11.1082   19.4170 O   0  0  0  0  0  0  0  0  0  0  0  0
   47.2054   10.2026   18.0920 O   0  0  0  0  0  0  0  0  0  0  0  0
   50.3461    9.0169   20.3681 O   0  0  0  0  0  0  0  0  0  0  0  0
   46.7438    8.1602   19.8543 O   0  0  0  0  0  0  0  0  0  0  0  0
   49.1042    7.0508   21.0021 C   0  0  0  0  0  0  0  0  0  0  0  0
   49.1984    8.2203   20.0286 C   0  0  1  0  0  0  0  0  0  0  0  0
   47.8782    8.9967   20.1136 C   0  0  1  0  0  0  0  0  0  0  0  0
   47.8946   10.1312   19.0982 C   0  0  0  0  0  0  0  0  0  0  0  0
   47.7417   11.0012   17.5354 H   0  0  0  0  0  0  0  0  0  0  0  0
   49.9496    6.8342   19.4855 H   0  0  0  0  0  0  0  0  0  0  0  0
   48.5272    9.0921   21.3263 H   0  0  0  0  0  0  0  0  0  0  0  0
   48.4031   11.2545   22.4403 H   0  0  0  0  0  0  0  0  0  0  0  0
   47.0970    7.3631   20.0196 H   0  0  0  0  0  0  0  0  0  0  0  0
   47.7509    6.4703   18.6298 H   0  0  0  0  0  0  0  0  0  0  0  0
   47.4652    8.5853   17.7775 H   0  0  0  0  0  0  0  0  0  0  0  0
   48.0027   13.4396   22.2141 H   0  0  0  0  0  0  0  0  0  0  0  0
   47.6461   14.4689   18.9933 H   0  0  0  0  0  0  0  0  0  0  0  0
   46.5011   13.5098   18.0427 H   0  0  0  0  0  0  0  0  0  0  0  0
   50.0974    9.0301   18.4787 H   0  0  0  0  0  0  0  0  0  0  0  0
   49.2756   13.2769   17.6059 H   0  0  0  0  0  0  0  0  0  0  0  0
   51.2688    5.3452   20.8724 H   0  0  0  0  0  0  0  0  0  0  0  0
   50.4378    4.3950   22.1011 H   0  0  0  0  0  0  0  0  0  0  0  0
   50.5736    6.1447   22.2955 H   0  0  0  0  0  0  0  0  0  0  0  0
   48.0005    6.3165   22.5396 H   0  0  0  0  0  0  0  0  0  0  0  0
   47.9667    4.5536   22.4169 H   0  0  0  0  0  0  0  0  0  0  0  0
   46.9543    5.5206   21.3517 H   0  0  0  0  0  0  0  0  0  0  0  0
   47.9477    4.3632   19.3293 H   0  0  0  0  0  0  0  0  0  0  0  0
   49.6938    4.4232   19.0154 H   0  0  0  0  0  0  0  0  0  0  0  0
   49.0450    3.4014   20.3074 H   0  0  0  0  0  0  0  0  0  0  0  0
   49.4293    7.4213   21.6906 H   0  0  0  0  0  0  0  0  0  0  0  0
   47.8374    9.4996   18.9630 H   0  0  0  0  0  0  0  0  0  0  0  0
   49.9585    7.7392   17.4244 H   0  0  0  0  0  0  0  0  0  0  0  0
   48.8432    5.5778   17.1209 H   0  0  0  0  0  0  0  0  0  0  0  0
   49.9691   10.0910   17.9117 H   0  0  0  0  0  0  0  0  0  0  0  0
   50.2682   11.1989   19.1864 H   0  0  0  0  0  0  0  0  0  0  0  0
   50.3952    9.3688   20.8387 H   0  0  0  0  0  0  0  0  0  0  0  0
   47.7508    3.9024   18.1273 H   0  0  0  0  0  0  0  0  0  0  0  0
   48.3350    3.9404   21.6221 H   0  0  0  0  0  0  0  0  0  0  0  0
   48.7351    5.3161   22.6400 H   0  0  0  0  0  0  0  0  0  0  0  0
   52.0503    8.0867   19.4846 H   0  0  0  0  0  0  0  0  0  0  0  0
   46.3915    5.1760   21.0659 H   0  0  0  0  0  0  0  0  0  0  0  0
   49.4005   12.3597   20.8836 H   0  0  0  0  0  0  0  0  0  0  0  0
   48.5052   13.0864   19.5295 H   0  0  0  0  0  0  0  0  0  0  0  0
   47.8303   13.1000   21.1682 H   0  0  0  0  0  0  0  0  0  0  0  0
   47.1938    9.3414   21.3102 H   0  0  0  0  0  0  0  0  0  0  0  0
   47.0887   10.8288   22.2502 H   0  0  0  0  0  0  0  0  0  0  0  0
   48.6695   10.1484   21.8829 H   0  0  0  0  0  0  0  0  0  0  0  0
   45.6795   10.5241   19.6013 H   0  0  0  0  0  0  0  0  0  0  0  0
   45.7164   12.0181   20.5358 H   0  0  0  0  0  0  0  0  0  0  0  0
   46.2047   12.0329   18.8365 H   0  0  0  0  0  0  0  0  0  0  0  0
   48.6874    5.2547   21.1384 H   0  0  0  0  0  0  0  0  0  0  0  0
   48.6066   11.8128   18.7451 H   0  0  0  0  0  0  0  0  0  0  0  0
   50.0835    9.9610   20.4063 H   0  0  0  0  0  0  0  0  0  0  0  0
   46.6815    8.0365   18.8846 H   0  0  0  0  0  0  0  0  0  0  0  0
   49.3680    7.8267   19.0183 H   0  0  0  0  0  0  0  0  0  0  0  0
   47.7364    9.4368   21.1064 H   0  0  0  0  0  0  0  0  0  0  0  0
 10  3  1  0
 11  4  1  0
 12  1  1  0
 10 13  1  0
 14 12  1  0
 15  7  1  0
 16  7  1  0
 17  7  1  0
  6  8  1  0
  2  1  2  0
  3  2  1  0
  4  1  1  0
  5  9  1  0
  6  3  2  0
  7  5  1  0
  8  4  2  0
  9 10  1  0
 27 20  1  0
 28 21  1  0
 29 18  1  0
 27 30  1  0
 31 29  1  0
 32 24  1  0
 33 24  1  0
 34 24  1  0
 23 25  1  0
 19 18  2  0
 20 19  1  0
 21 18  1  0
 22 26  1  0
 23 20  2  0
 24 22  1  0
 25 21  2  0
 26 27  1  0
 41 36  2  0
 42 39  1  0
 43 40  1  0
 41 35  1  0
 43 44  1  0
 42 43  1  0
 44 37  1  0
 41 42  1  0
 44 38  2  0
  2 45  1  0
  5 46  1  0
  6 47  1  0
  8 48  1  0
  9 49  1  0
  9 50  1  0
 10 51  1  1
 11 52  1  0
 12 53  1  0
 12 54  1  0
 13 55  1  0
 14 56  1  0
 15 57  1  0
 15 58  1  0
 15 59  1  0
 16 60  1  0
 16 61  1  0
 16 62  1  0
 17 63  1  0
 17 64  1  0
 17 65  1  0
 19 66  1  0
 22 67  1  0
 23 68  1  0
 25 69  1  0
 26 70  1  0
 26 71  1  0
 27 72  1  6
 28 73  1  0
 29 74  1  0
 29 75  1  0
 30 76  1  0
 31 77  1  0
 32 78  1  0
 32 79  1  0
 32 80  1  0
 33 81  1  0
 33 82  1  0
 33 83  1  0
 34 84  1  0
 34 85  1  0
 34 86  1  0
 35 87  1  0
 37 88  1  0
 39 89  1  0
 40 90  1  0
 42 91  1  1
 43 92  1  6
M  END
> <Uni-Dock RESULT> 
ENERGY=   -4.529  LOWER_BOUND=    1.774  UPPER_BOUND=    3.765
INTER + INTRA:          -4.529
INTER:                  -4.529
INTRA:                   0.000
UNBOUND:                 0.000

$$$$

     RDKit          3D

 92 91  0  0  0  0  0  0  0  0999 V2000
   49.2086    6.1599   18.5945 C   0  0  0  0  0  0  0  0  0  0  0  0
   49.9443    7.3469   18.4159 C   0  0  0  0  0  0  0  0  0  0  0  0
   49.3525    8.6180   18.5412 C   0  0  0  0  0  0  0  0  0  0  0  0
   47.8541    6.2678   18.9135 C   0  0  0  0  0  0  0  0  0  0  0  0
   48.6703   11.8227   18.0988 N   0  0  0  0  0  0  0  0  0  0  0  0
   47.9869    8.6813   18.8436 C   0  0  0  0  0  0  0  0  0  0  0  0
   48.2615   13.1744   18.5137 C   0  0  0  0  0  0  0  0  0  0  0  0
   47.2409    7.5153   19.0327 C   0  0  0  0  0  0  0  0  0  0  0  0
   49.7372   11.1944   18.9026 C   0  0  0  0  0  0  0  0  0  0  0  0
   50.2132    9.8442   18.2897 C   0  0  2  0  0  0  0  0  0  0  0  0
   47.1230    5.1293   19.0960 O   0  0  0  0  0  0  0  0  0  0  0  0
   49.9026    4.8264   18.4757 C   0  0  0  0  0  0  0  0  0  0  0  0
   50.3801   10.0120   16.8752 O   0  0  0  0  0  0  0  0  0  0  0  0
   50.6262    4.7409   17.2479 O   0  0  0  0  0  0  0  0  0  0  0  0
   47.1339   13.5935   17.5509 C   0  0  0  0  0  0  0  0  0  0  0  0
   47.7042   13.1821   19.9463 C   0  0  0  0  0  0  0  0  0  0  0  0
   49.4053   14.1953   18.3900 C   0  0  0  0  0  0  0  0  0  0  0  0
   48.6206   12.8612   18.7631 C   0  0  0  0  0  0  0  0  0  0  0  0
   48.0908   11.7237   18.1360 C   0  0  0  0  0  0  0  0  0  0  0  0
   48.8681   10.9375   17.2678 C   0  0  0  0  0  0  0  0  0  0  0  0
   49.9547   13.1991   18.5156 C   0  0  0  0  0  0  0  0  0  0  0  0
   49.4891    8.0748   18.2438 N   0  0  0  0  0  0  0  0  0  0  0  0
   50.1882   11.3306   17.0098 C   0  0  0  0  0  0  0  0  0  0  0  0
   48.5346    7.3871   19.1262 C   0  0  0  0  0  0  0  0  0  0  0  0
   50.7337   12.4513   17.6364 C   0  0  0  0  0  0  0  0  0  0  0  0
   49.0890    8.3965   16.8697 C   0  0  0  0  0  0  0  0  0  0  0  0
   48.2758    9.6972   16.6281 C   0  0  2  0  0  0  0  0  0  0  0  0
   50.4910   14.2731   19.1648 O   0  0  0  0  0  0  0  0  0  0  0  0
   47.7707   13.6597   19.7141 C   0  0  0  0  0  0  0  0  0  0  0  0
   48.1570    9.9163   15.2172 O   0  0  0  0  0  0  0  0  0  0  0  0
   48.0170   13.2463   21.0493 O   0  0  0  0  0  0  0  0  0  0  0  0
   47.8616    6.1742   18.4623 C   0  0  0  0  0  0  0  0  0  0  0  0
   47.4621    8.3391   19.6815 C   0  0  0  0  0  0  0  0  0  0  0  0
   49.3784    6.8750   20.3134 C   0  0  0  0  0  0  0  0  0  0  0  0
   48.7113   12.7228   18.6669 O   0  0  0  0  0  0  0  0  0  0  0  0
   46.6676   11.8213   18.6632 O   0  0  0  0  0  0  0  0  0  0  0  0
   48.8905    7.4842   17.8684 O   0  0  0  0  0  0  0  0  0  0  0  0
   50.7801    8.0508   18.9302 O   0  0  0  0  0  0  0  0  0  0  0  0
   47.7584    9.8398   16.9005 O   0  0  0  0  0  0  0  0  0  0  0  0
   49.5806   10.1894   20.1458 O   0  0  0  0  0  0  0  0  0  0  0  0
   47.8633   11.6922   18.4392 C   0  0  0  0  0  0  0  0  0  0  0  0
   48.5750   10.4503   17.9143 C   0  0  1  0  0  0  0  0  0  0  0  0
   48.8377    9.5298   19.1130 C   0  0  1  0  0  0  0  0  0  0  0  0
   49.6196    8.3086   18.6486 C   0  0  0  0  0  0  0  0  0  0  0  0
   51.0048    7.2719   18.1700 H   0  0  0  0  0  0  0  0  0  0  0  0
   49.0162   11.8558   17.1332 H   0  0  0  0  0  0  0  0  0  0  0  0
   47.4757    9.6390   18.9283 H   0  0  0  0  0  0  0  0  0  0  0  0
   46.1826    7.6024   19.2643 H   0  0  0  0  0  0  0  0  0  0  0  0
   49.4170   11.0366   19.9387 H   0  0  0  0  0  0  0  0  0  0  0  0
   50.6106   11.8570   18.9100 H   0  0  0  0  0  0  0  0  0  0  0  0
   51.2079    9.6473   18.7063 H   0  0  0  0  0  0  0  0  0  0  0  0
   46.2270    5.3731   19.3829 H   0  0  0  0  0  0  0  0  0  0  0  0
   49.2016    3.9853   18.4963 H   0  0  0  0  0  0  0  0  0  0  0  0
   50.6080    4.6943   19.3049 H   0  0  0  0  0  0  0  0  0  0  0  0
   49.5986    9.6039   16.4645 H   0  0  0  0  0  0  0  0  0  0  0  0
   50.1024    5.2216   16.5829 H   0  0  0  0  0  0  0  0  0  0  0  0
   47.4834   13.6293   16.5120 H   0  0  0  0  0  0  0  0  0  0  0  0
   46.7549   14.5900   17.7963 H   0  0  0  0  0  0  0  0  0  0  0  0
   46.2857   12.8993   17.5984 H   0  0  0  0  0  0  0  0  0  0  0  0
   46.9104   12.4375   20.0695 H   0  0  0  0  0  0  0  0  0  0  0  0
   47.2800   14.1611   20.1987 H   0  0  0  0  0  0  0  0  0  0  0  0
   48.4814   12.9733   20.6892 H   0  0  0  0  0  0  0  0  0  0  0  0
   50.1845   14.0325   19.1419 H   0  0  0  0  0  0  0  0  0  0  0  0
   49.8741   14.1565   17.3985 H   0  0  0  0  0  0  0  0  0  0  0  0
   49.0346   15.2167   18.5411 H   0  0  0  0  0  0  0  0  0  0  0  0
   47.0611   11.4365   18.3495 H   0  0  0  0  0  0  0  0  0  0  0  0
   49.8521    8.9113   18.7047 H   0  0  0  0  0  0  0  0  0  0  0  0
   50.8050   10.7538   16.3251 H   0  0  0  0  0  0  0  0  0  0  0  0
   51.7658   12.7191   17.4305 H   0  0  0  0  0  0  0  0  0  0  0  0
   50.0229    8.4831   16.2991 H   0  0  0  0  0  0  0  0  0  0  0  0
   48.5822    7.5560   16.3816 H   0  0  0  0  0  0  0  0  0  0  0  0
   47.2553    9.5464   16.9927 H   0  0  0  0  0  0  0  0  0  0  0  0
   51.4333   14.3408   18.9380 H   0  0  0  0  0  0  0  0  0  0  0  0
   47.9788   14.7309   19.6239 H   0  0  0  0  0  0  0  0  0  0  0  0
   46.7055   13.5258   19.5001 H   0  0  0  0  0  0  0  0  0  0  0  0
   48.1289   10.8782   15.0744 H   0  0  0  0  0  0  0  0  0  0  0  0
   48.9865   13.2151   21.1406 H   0  0  0  0  0  0  0  0  0  0  0  0
   47.1382    6.4759   17.6967 H   0  0  0  0  0  0  0  0  0  0  0  0
   48.6018    5.5105   17.9952 H   0  0  0  0  0  0  0  0  0  0  0  0
   47.3054    5.5806   19.2016 H   0  0  0  0  0  0  0  0  0  0  0  0
   47.9099    9.2269   20.1457 H   0  0  0  0  0  0  0  0  0  0  0  0
   46.8656    7.8414   20.4565 H   0  0  0  0  0  0  0  0  0  0  0  0
   46.7635    8.6704   18.9077 H   0  0  0  0  0  0  0  0  0  0  0  0
   49.8510    7.6990   20.8597 H   0  0  0  0  0  0  0  0  0  0  0  0
   48.7626    6.3238   21.0356 H   0  0  0  0  0  0  0  0  0  0  0  0
   50.1749    6.1965   19.9795 H   0  0  0  0  0  0  0  0  0  0  0  0
   48.1269   13.4277   19.0196 H   0  0  0  0  0  0  0  0  0  0  0  0
   49.4730    6.7003   17.7257 H   0  0  0  0  0  0  0  0  0  0  0  0
   47.6816    8.8794   17.0833 H   0  0  0  0  0  0  0  0  0  0  0  0
   50.5208   10.2051   19.8715 H   0  0  0  0  0  0  0  0  0  0  0  0
   49.5113   10.7568   17.4311 H   0  0  0  0  0  0  0  0  0  0  0  0
   47.9017    9.1789   19.5603 H   0  0  0  0  0  0  0  0  0  0  0  0
 10  3  1  0
 11  4  1  0
 12  1  1  0
 10 13  1  0
 14 12  1  0
 15  7  1  0
 16  7  1  0
 17  7  1  0
  6  8  1  0
  2  1  2  0
  3  2  1  0
  4  1  1  0
  5  9  1  0
  6  3  2  0
  7  5  1  0
  8  4  2  0
  9 10  1  0
 27 20  1  0
 28 21  1  0
 29 18  1  0
 27 30  1  0
 31 29  1  0
 32 24  1  0
 33 24  1  0
 34 24  1  0
 23 25  1  0
 19 18  2  0
 20 19  1  0
 21 18  1  0
 22 26  1  0
 23 20  2  0
 24 22  1  0
 25 21  2  0
 26 27  1  0
 41 36  2  0
 42 39  1  0
 43 40  1  0
 41 35  1  0
 43 44  1  0
 42 43  1  0
 44 37  1  0
 41 42  1  0
 44 38  2  0
  2 45  1  0
  5 46  1  0
  6 47  1  0
  8 48  1  0
  9 49  1  0
  9 50  1  0
 10 51  1  1
 11 52  1  0
 12 53  1  0
 12 54  1  0
 13 55  1  0
 14 56  1  0
 15 57  1  0
 15 58  1  0
 15 59  1  0
 16 60  1  0
 16 61  1  0
 16 62  1  0
 17 63  1  0
 17 64  1  0
 17 65  1  0
 19 66  1  0
 22 67  1  0
 23 68  1  0
 25 69  1  0
 26 70  1  0
 26 71  1  0
 27 72  1  6
 28 73  1  0
 29 74  1  0
 29 75  1  0
 30 76  1  0
 31 77  1  0
 32 78  1  0
 32 79  1  0
 32 80  1  0
 33 81  1  0
 33 82  1  0
 33 83  1  0
 34 84  1  0
 34 85  1  0
 34 86  1  0
 35 87  1  0
 37 88  1  0
 39 89  1  0
 40 90  1  0
 42 91  1  1
 43 92  1  6
M  END
> <Uni-Dock RESULT> 
ENERGY=   -4.472  LOWER_BOUND=    2.531  UPPER_BOUND=    6.511
INTER + INTRA:          -4.472
INTER:                  -4.472
INTRA:                   0.000
UNBOUND:                 0.000

$$$$

     RDKit          3D

 92 91  0  0  0  0  0  0  0  0999 V2000
   50.1242    5.8136   17.5373 C   0  0  0  0  0  0  0  0  0  0  0  0
   49.0400    6.3882   18.2276 C   0  0  0  0  0  0  0  0  0  0  0  0
   48.9295    7.7784   18.4195 C   0  0  0  0  0  0  0  0  0  0  0  0
   51.1050    6.6660   17.0279 C   0  0  0  0  0  0  0  0  0  0  0  0
   48.2193   10.7182   19.7551 N   0  0  0  0  0  0  0  0  0  0  0  0
   49.9448    8.5961   17.9088 C   0  0  0  0  0  0  0  0  0  0  0  0
   47.8264   12.1365   19.7390 C   0  0  0  0  0  0  0  0  0  0  0  0
   51.0249    8.0464   17.2139 C   0  0  0  0  0  0  0  0  0  0  0  0
   47.3469    9.7968   19.0006 C   0  0  0  0  0  0  0  0  0  0  0  0
   47.7469    8.3069   19.2132 C   0  0  2  0  0  0  0  0  0  0  0  0
   52.1626    6.1303   16.3507 O   0  0  0  0  0  0  0  0  0  0  0  0
   50.1749    4.3199   17.3376 C   0  0  0  0  0  0  0  0  0  0  0  0
   47.9901    8.0882   20.6095 O   0  0  0  0  0  0  0  0  0  0  0  0
   50.0050    3.6378   18.5803 O   0  0  0  0  0  0  0  0  0  0  0  0
   48.8937   12.8844   20.5611 C   0  0  0  0  0  0  0  0  0  0  0  0
   47.8258   12.7071   18.3116 C   0  0  0  0  0  0  0  0  0  0  0  0
   46.4571   12.3720   20.3990 C   0  0  0  0  0  0  0  0  0  0  0  0
   47.5849   11.7376   19.4712 C   0  0  0  0  0  0  0  0  0  0  0  0
   48.7354   10.9427   19.5817 C   0  0  0  0  0  0  0  0  0  0  0  0
   48.7157    9.7179   20.2712 C   0  0  0  0  0  0  0  0  0  0  0  0
   46.4000   11.2812   20.0569 C   0  0  0  0  0  0  0  0  0  0  0  0
   49.1527    7.1975   18.5420 N   0  0  0  0  0  0  0  0  0  0  0  0
   47.5214    9.3128   20.8821 C   0  0  0  0  0  0  0  0  0  0  0  0
   49.9705    7.2880   17.3232 C   0  0  0  0  0  0  0  0  0  0  0  0
   46.3653   10.0854   20.7696 C   0  0  0  0  0  0  0  0  0  0  0  0
   49.7882    7.4084   19.8471 C   0  0  0  0  0  0  0  0  0  0  0  0
   49.9682    8.8672   20.3481 C   0  0  2  0  0  0  0  0  0  0  0  0
   45.2650   12.0240   19.9063 O   0  0  0  0  0  0  0  0  0  0  0  0
   47.6331   13.0262   18.6956 C   0  0  0  0  0  0  0  0  0  0  0  0
   50.4262    8.8400   21.7053 O   0  0  0  0  0  0  0  0  0  0  0  0
   47.1793   12.8109   17.3682 O   0  0  0  0  0  0  0  0  0  0  0  0
   51.2862    6.4972   17.4166 C   0  0  0  0  0  0  0  0  0  0  0  0
   50.2645    8.7436   16.9236 C   0  0  0  0  0  0  0  0  0  0  0  0
   49.1092    6.6528   16.2104 C   0  0  0  0  0  0  0  0  0  0  0  0
   47.6016   11.5568   19.5317 O   0  0  0  0  0  0  0  0  0  0  0  0
   49.7110   11.8621   18.8633 O   0  0  0  0  0  0  0  0  0  0  0  0
   50.0365    6.9427   18.5860 O   0  0  0  0  0  0  0  0  0  0  0  0
   47.8627    6.6414   18.1357 O   0  0  0  0  0  0  0  0  0  0  0  0
   50.2491    9.3063   20.0472 O   0  0  0  0  0  0  0  0  0  0  0  0
   47.5224    9.2792   17.4902 O   0  0  0  0  0  0  0  0  0  0  0  0
   48.8415   11.0925   19.2485 C   0  0  0  0  0  0  0  0  0  0  0  0
   48.9681    9.5878   19.4584 C   0  0  1  0  0  0  0  0  0  0  0  0
   48.7699    8.9150   18.0941 C   0  0  1  0  0  0  0  0  0  0  0  0
   48.8090    7.4028   18.2677 C   0  0  0  0  0  0  0  0  0  0  0  0
   48.2665    5.7295   18.6259 H   0  0  0  0  0  0  0  0  0  0  0  0
   48.2276   10.3810   20.7244 H   0  0  0  0  0  0  0  0  0  0  0  0
   49.9192    9.6754   18.0504 H   0  0  0  0  0  0  0  0  0  0  0  0
   51.7957    8.7113   16.8331 H   0  0  0  0  0  0  0  0  0  0  0  0
   47.3498   10.0304   17.9300 H   0  0  0  0  0  0  0  0  0  0  0  0
   46.3204    9.8987   19.3719 H   0  0  0  0  0  0  0  0  0  0  0  0
   46.8685    7.7080   18.9456 H   0  0  0  0  0  0  0  0  0  0  0  0
   52.7104    6.8524   16.0000 H   0  0  0  0  0  0  0  0  0  0  0  0
   51.1276    3.9853   16.9135 H   0  0  0  0  0  0  0  0  0  0  0  0
   49.3761    4.0041   16.6558 H   0  0  0  0  0  0  0  0  0  0  0  0
   48.9571    8.0734   20.7124 H   0  0  0  0  0  0  0  0  0  0  0  0
   50.4441    4.1817   19.2578 H   0  0  0  0  0  0  0  0  0  0  0  0
   48.9215   12.5334   21.5998 H   0  0  0  0  0  0  0  0  0  0  0  0
   48.6886   13.9585   20.5909 H   0  0  0  0  0  0  0  0  0  0  0  0
   49.8955   12.7536   20.1333 H   0  0  0  0  0  0  0  0  0  0  0  0
   48.7799   12.5207   17.8071 H   0  0  0  0  0  0  0  0  0  0  0  0
   47.6638   13.7914   18.3209 H   0  0  0  0  0  0  0  0  0  0  0  0
   47.0289   12.2738   17.6977 H   0  0  0  0  0  0  0  0  0  0  0  0
   45.6353   11.9777   19.7923 H   0  0  0  0  0  0  0  0  0  0  0  0
   46.4031   11.9063   21.3912 H   0  0  0  0  0  0  0  0  0  0  0  0
   46.2645   13.4445   20.5258 H   0  0  0  0  0  0  0  0  0  0  0  0
   49.6545   11.2773   19.1001 H   0  0  0  0  0  0  0  0  0  0  0  0
   48.3289    7.7957   18.4562 H   0  0  0  0  0  0  0  0  0  0  0  0
   47.4834    8.3809   21.4408 H   0  0  0  0  0  0  0  0  0  0  0  0
   45.4503    9.7349   21.2381 H   0  0  0  0  0  0  0  0  0  0  0  0
   49.1538    6.8876   20.5760 H   0  0  0  0  0  0  0  0  0  0  0  0
   50.7428    6.8760   19.9304 H   0  0  0  0  0  0  0  0  0  0  0  0
   50.7701    9.3398   19.7729 H   0  0  0  0  0  0  0  0  0  0  0  0
   44.5208   11.5492   20.3121 H   0  0  0  0  0  0  0  0  0  0  0  0
   47.0126   13.7942   19.1689 H   0  0  0  0  0  0  0  0  0  0  0  0
   48.6518   13.4246   18.6539 H   0  0  0  0  0  0  0  0  0  0  0  0
   50.0686    9.6289   22.1481 H   0  0  0  0  0  0  0  0  0  0  0  0
   46.3535   12.3008   17.4518 H   0  0  0  0  0  0  0  0  0  0  0  0
   52.0041    6.9758   18.0919 H   0  0  0  0  0  0  0  0  0  0  0  0
   51.1133    5.4709   17.7678 H   0  0  0  0  0  0  0  0  0  0  0  0
   51.7756    6.4324   16.4345 H   0  0  0  0  0  0  0  0  0  0  0  0
   49.3460    9.3414   16.8672 H   0  0  0  0  0  0  0  0  0  0  0  0
   50.7335    8.7865   15.9325 H   0  0  0  0  0  0  0  0  0  0  0  0
   50.9512    9.2325   17.6208 H   0  0  0  0  0  0  0  0  0  0  0  0
   48.1717    7.2002   16.0616 H   0  0  0  0  0  0  0  0  0  0  0  0
   49.6351    6.6508   15.2471 H   0  0  0  0  0  0  0  0  0  0  0  0
   48.8528    5.6106   16.4438 H   0  0  0  0  0  0  0  0  0  0  0  0
   47.6629   12.5148   19.3286 H   0  0  0  0  0  0  0  0  0  0  0  0
   49.9440    5.9602   18.5682 H   0  0  0  0  0  0  0  0  0  0  0  0
   50.6808    8.5805   19.5487 H   0  0  0  0  0  0  0  0  0  0  0  0
   46.8183    8.7529   17.9226 H   0  0  0  0  0  0  0  0  0  0  0  0
   48.2056    9.2658   20.1790 H   0  0  0  0  0  0  0  0  0  0  0  0
   49.5633    9.1930   17.3923 H   0  0  0  0  0  0  0  0  0  0  0  0
 10  3  1  0
 11  4  1  0
 12  1  1  0
 10 13  1  0
 14 12  1  0
 15  7  1  0
 16  7  1  0
 17  7  1  0
  6  8  1  0
  2  1  2  0
  3  2  1  0
  4  1  1  0
  5  9  1  0
  6  3  2  0
  7  5  1  0
  8  4  2  0
  9 10  1  0
 27 20  1  0
 28 21  1  0
 29 18  1  0
 27 30  1  0
 31 29  1  0
 32 24  1  0
 33 24  1  0
 34 24  1  0
 23 25  1  0
 19 18  2  0
 20 19  1  0
 21 18  1  0
 22 26  1  0
 23 20  2  0
 24 22  1  0
 25 21  2  0
 26 27  1  0
 41 36  2  0
 42 39  1  0
 43 40  1  0
 41 35  1  0
 43 44  1  0
 42 43  1  0
 44 37  1  0
 41 42  1  0
 44 38  2  0
  2 45  1  0
  5 46  1  0
  6 47  1  0
  8 48  1  0
  9 49  1  0
  9 50  1  0
 10 51  1  1
 11 52  1  0
 12 53  1  0
 12 54  1  0
 13 55  1  0
 14 56  1  0
 15 57  1  0
 15 58  1  0
 15 59  1  0
 16 60  1  0
 16 61  1  0
 16 62  1  0
 17 63  1  0
 17 64  1  0
 17 65  1  0
 19 66  1  0
 22 67  1  0
 23 68  1  0
 25 69  1  0
 26 70  1  0
 26 71  1  0
 27 72  1  6
 28 73  1  0
 29 74  1  0
 29 75  1  0
 30 76  1  0
 31 77  1  0
 32 78  1  0
 32 79  1  0
 32 80  1  0
 33 81  1  0
 33 82  1  0
 33 83  1  0
 34 84  1  0
 34 85  1  0
 34 86  1  0
 35 87  1  0
 37 88  1  0
 39 89  1  0
 40 90  1  0
 42 91  1  1
 43 92  1  6
M  END
> <Uni-Dock RESULT> 
ENERGY=   -4.293  LOWER_BOUND=    2.010  UPPER_BOUND=    6.149
INTER + INTRA:          -4.293
INTER:                  -4.293
INTRA:                   0.000
UNBOUND:                 0.000

$$$$

     RDKit          3D

 92 91  0  0  0  0  0  0  0  0999 V2000
   49.0892    5.3167   20.2800 C   0  0  0  0  0  0  0  0  0  0  0  0
   49.3778    6.5720   19.7116 C   0  0  0  0  0  0  0  0  0  0  0  0
   49.1726    6.8375   18.3444 C   0  0  0  0  0  0  0  0  0  0  0  0
   48.5768    4.3205   19.4476 C   0  0  0  0  0  0  0  0  0  0  0  0
   49.5235    8.0704   15.2969 N   0  0  0  0  0  0  0  0  0  0  0  0
   48.6748    5.8046   17.5410 C   0  0  0  0  0  0  0  0  0  0  0  0
   49.0589    8.5655   13.9911 C   0  0  0  0  0  0  0  0  0  0  0  0
   48.3745    4.5543   18.0870 C   0  0  0  0  0  0  0  0  0  0  0  0
   48.8812    8.6716   16.4824 C   0  0  0  0  0  0  0  0  0  0  0  0
   49.5516    8.2077   17.8092 C   0  0  2  0  0  0  0  0  0  0  0  0
   48.2852    3.0972   19.9791 O   0  0  0  0  0  0  0  0  0  0  0  0
   49.3026    5.0990   21.7568 C   0  0  0  0  0  0  0  0  0  0  0  0
   50.9760    8.2673   17.6529 O   0  0  0  0  0  0  0  0  0  0  0  0
   50.6223    5.4868   22.1393 O   0  0  0  0  0  0  0  0  0  0  0  0
   49.8488    7.7759   12.9296 C   0  0  0  0  0  0  0  0  0  0  0  0
   47.5604    8.2927   13.7832 C   0  0  0  0  0  0  0  0  0  0  0  0
   49.3519   10.0628   13.7950 C   0  0  0  0  0  0  0  0  0  0  0  0
   48.8632    8.7069   14.4716 C   0  0  0  0  0  0  0  0  0  0  0  0
   49.4020    7.5489   15.0517 C   0  0  0  0  0  0  0  0  0  0  0  0
   50.3710    7.6216   16.0674 C   0  0  0  0  0  0  0  0  0  0  0  0
   49.3037    9.9512   14.9331 C   0  0  0  0  0  0  0  0  0  0  0  0
   49.4846    6.6002   18.8431 N   0  0  0  0  0  0  0  0  0  0  0  0
   50.8201    8.8849   16.4749 C   0  0  0  0  0  0  0  0  0  0  0  0
   48.4698    5.5398   18.9347 C   0  0  0  0  0  0  0  0  0  0  0  0
   50.2841   10.0460   15.9175 C   0  0  0  0  0  0  0  0  0  0  0  0
   50.7870    6.2939   18.2418 C   0  0  0  0  0  0  0  0  0  0  0  0
   50.9128    6.3524   16.6951 C   0  0  2  0  0  0  0  0  0  0  0  0
   48.7438   11.0808   14.4106 O   0  0  0  0  0  0  0  0  0  0  0  0
   47.8017    8.5925   13.4112 C   0  0  0  0  0  0  0  0  0  0  0  0
   52.2921    6.2104   16.3347 O   0  0  0  0  0  0  0  0  0  0  0  0
   46.5150    8.7169   13.9971 O   0  0  0  0  0  0  0  0  0  0  0  0
   49.0238    4.2180   19.4922 C   0  0  0  0  0  0  0  0  0  0  0  0
   47.7680    5.2850   17.5903 C   0  0  0  0  0  0  0  0  0  0  0  0
   47.4162    6.0735   19.9290 C   0  0  0  0  0  0  0  0  0  0  0  0
   48.9711    8.6893   14.6288 O   0  0  0  0  0  0  0  0  0  0  0  0
   48.6735    6.5163   14.2053 O   0  0  0  0  0  0  0  0  0  0  0  0
   49.7665    5.7309   18.9563 O   0  0  0  0  0  0  0  0  0  0  0  0
   48.9935    7.7154   19.6515 O   0  0  0  0  0  0  0  0  0  0  0  0
   50.5684    6.0484   16.3062 O   0  0  0  0  0  0  0  0  0  0  0  0
   47.6246    8.1190   17.3163 O   0  0  0  0  0  0  0  0  0  0  0  0
   49.0687    7.3834   14.9726 C   0  0  0  0  0  0  0  0  0  0  0  0
   49.6868    7.1832   16.3518 C   0  0  1  0  0  0  0  0  0  0  0  0
   48.5356    7.0134   17.3512 C   0  0  1  0  0  0  0  0  0  0  0  0
   49.1041    6.8892   18.7583 C   0  0  0  0  0  0  0  0  0  0  0  0
   49.7752    7.3580   20.3559 H   0  0  0  0  0  0  0  0  0  0  0  0
   50.5294    8.2522   15.3887 H   0  0  0  0  0  0  0  0  0  0  0  0
   48.5203    5.9506   16.4730 H   0  0  0  0  0  0  0  0  0  0  0  0
   47.9915    3.7754   17.4330 H   0  0  0  0  0  0  0  0  0  0  0  0
   47.8090    8.4476   16.5128 H   0  0  0  0  0  0  0  0  0  0  0  0
   49.0038    9.7601   16.4366 H   0  0  0  0  0  0  0  0  0  0  0  0
   49.2835    8.9508   18.5692 H   0  0  0  0  0  0  0  0  0  0  0  0
   47.8719    2.5463   19.2934 H   0  0  0  0  0  0  0  0  0  0  0  0
   49.1767    4.0510   22.0489 H   0  0  0  0  0  0  0  0  0  0  0  0
   48.5845    5.6952   22.3326 H   0  0  0  0  0  0  0  0  0  0  0  0
   51.2669    7.3502   17.5100 H   0  0  0  0  0  0  0  0  0  0  0  0
   51.2058    5.2576   21.3946 H   0  0  0  0  0  0  0  0  0  0  0  0
   50.9277    7.9532   13.0154 H   0  0  0  0  0  0  0  0  0  0  0  0
   49.5548    8.0706   11.9179 H   0  0  0  0  0  0  0  0  0  0  0  0
   49.6756    6.6963   13.0200 H   0  0  0  0  0  0  0  0  0  0  0  0
   47.3200    7.2375   13.9518 H   0  0  0  0  0  0  0  0  0  0  0  0
   47.2529    8.5418   12.7607 H   0  0  0  0  0  0  0  0  0  0  0  0
   46.9378    8.8926   14.4555 H   0  0  0  0  0  0  0  0  0  0  0  0
   48.7209   10.6917   14.4316 H   0  0  0  0  0  0  0  0  0  0  0  0
   50.4009   10.2996   14.0135 H   0  0  0  0  0  0  0  0  0  0  0  0
   49.1525   10.3670   12.7601 H   0  0  0  0  0  0  0  0  0  0  0  0
   49.0396    6.5760   14.7188 H   0  0  0  0  0  0  0  0  0  0  0  0
   49.0848    7.4303   18.4014 H   0  0  0  0  0  0  0  0  0  0  0  0
   51.5851    8.9702   17.2427 H   0  0  0  0  0  0  0  0  0  0  0  0
   50.6392   11.0106   16.2682 H   0  0  0  0  0  0  0  0  0  0  0  0
   51.4879    7.0305   18.6556 H   0  0  0  0  0  0  0  0  0  0  0  0
   51.1928    5.3417   18.6028 H   0  0  0  0  0  0  0  0  0  0  0  0
   50.4027    5.4837   16.2680 H   0  0  0  0  0  0  0  0  0  0  0  0
   49.1057   11.8552   14.8724 H   0  0  0  0  0  0  0  0  0  0  0  0
   47.9255    9.3648   12.6450 H   0  0  0  0  0  0  0  0  0  0  0  0
   47.8577    7.6270   12.8984 H   0  0  0  0  0  0  0  0  0  0  0  0
   52.4331    6.7224   15.5196 H   0  0  0  0  0  0  0  0  0  0  0  0
   46.5658    9.4953   14.5808 H   0  0  0  0  0  0  0  0  0  0  0  0
   49.6771    3.7123   18.7725 H   0  0  0  0  0  0  0  0  0  0  0  0
   49.5912    4.3798   20.4188 H   0  0  0  0  0  0  0  0  0  0  0  0
   48.2091    3.5167   19.7217 H   0  0  0  0  0  0  0  0  0  0  0  0
   47.3775    6.2136   17.1550 H   0  0  0  0  0  0  0  0  0  0  0  0
   46.9124    4.6105   17.7212 H   0  0  0  0  0  0  0  0  0  0  0  0
   48.4331    4.8154   16.8598 H   0  0  0  0  0  0  0  0  0  0  0  0
   46.9479    6.9956   19.5668 H   0  0  0  0  0  0  0  0  0  0  0  0
   46.6098    5.3463   20.0886 H   0  0  0  0  0  0  0  0  0  0  0  0
   47.8599    6.2886   20.9104 H   0  0  0  0  0  0  0  0  0  0  0  0
   48.5398    8.6634   13.7478 H   0  0  0  0  0  0  0  0  0  0  0  0
   49.9894    5.7354   19.9178 H   0  0  0  0  0  0  0  0  0  0  0  0
   50.3726    5.4572   17.0637 H   0  0  0  0  0  0  0  0  0  0  0  0
   48.0330    8.8562   17.8157 H   0  0  0  0  0  0  0  0  0  0  0  0
   50.3025    8.0587   16.5940 H   0  0  0  0  0  0  0  0  0  0  0  0
   47.9553    6.1083   17.1426 H   0  0  0  0  0  0  0  0  0  0  0  0
 10  3  1  0
 11  4  1  0
 12  1  1  0
 10 13  1  0
 14 12  1  0
 15  7  1  0
 16  7  1  0
 17  7  1  0
  6  8  1  0
  2  1  2  0
  3  2  1  0
  4  1  1  0
  5  9  1  0
  6  3  2  0
  7  5  1  0
  8  4  2  0
  9 10  1  0
 27 20  1  0
 28 21  1  0
 29 18  1  0
 27 30  1  0
 31 29  1  0
 32 24  1  0
 33 24  1  0
 34 24  1  0
 23 25  1  0
 19 18  2  0
 20 19  1  0
 21 18  1  0
 22 26  1  0
 23 20  2  0
 24 22  1  0
 25 21  2  0
 26 27  1  0
 41 36  2  0
 42 39  1  0
 43 40  1  0
 41 35  1  0
 43 44  1  0
 42 43  1  0
 44 37  1  0
 41 42  1  0
 44 38  2  0
  2 45  1  0
  5 46  1  0
  6 47  1  0
  8 48  1  0
  9 49  1  0
  9 50  1  0
 10 51  1  1
 11 52  1  0
 12 53  1  0
 12 54  1  0
 13 55  1  0
 14 56  1  0
 15 57  1  0
 15 58  1  0
 15 59  1  0
 16 60  1  0
 16 61  1  0
 16 62  1  0
 17 63  1  0
 17 64  1  0
 17 65  1  0
 19 66  1  0
 22 67  1  0
 23 68  1  0
 25 69  1  0
 26 70  1  0
 26 71  1  0
 27 72  1  6
 28 73  1  0
 29 74  1  0
 29 75  1  0
 30 76  1  0
 31 77  1  0
 32 78  1  0
 32 79  1  0
 32 80  1  0
 33 81  1  0
 33 82  1  0
 33 83  1  0
 34 84  1  0
 34 85  1  0
 34 86  1  0
 35 87  1  0
 37 88  1  0
 39 89  1  0
 40 90  1  0
 42 91  1  1
 43 92  1  6
M  END
> <Uni-Dock RESULT> 
ENERGY=   -4.281  LOWER_BOUND=    3.000  UPPER_BOUND=    5.089
INTER + INTRA:          -4.281
INTER:                  -4.281
INTRA:                   0.000
UNBOUND:                 0.000

$$$$

     RDKit          3D

 92 91  0  0  0  0  0  0  0  0999 V2000
   50.1316   10.7535   16.2847 C   0  0  0  0  0  0  0  0  0  0  0  0
   50.6949    9.4634   16.2681 C   0  0  0  0  0  0  0  0  0  0  0  0
   50.0041    8.3407   16.7623 C   0  0  0  0  0  0  0  0  0  0  0  0
   48.8445   10.9021   16.8034 C   0  0  0  0  0  0  0  0  0  0  0  0
   49.3566    5.4193   18.1683 N   0  0  0  0  0  0  0  0  0  0  0  0
   48.7227    8.5368   17.2912 C   0  0  0  0  0  0  0  0  0  0  0  0
   48.6349    4.1488   18.3447 C   0  0  0  0  0  0  0  0  0  0  0  0
   48.1427    9.8076   17.3095 C   0  0  0  0  0  0  0  0  0  0  0  0
   49.8148    5.7179   16.7971 C   0  0  0  0  0  0  0  0  0  0  0  0
   50.7061    6.9937   16.7430 C   0  0  2  0  0  0  0  0  0  0  0  0
   48.2771   12.1437   16.8245 O   0  0  0  0  0  0  0  0  0  0  0  0
   50.9077   11.9144   15.7154 C   0  0  0  0  0  0  0  0  0  0  0  0
   51.6480    6.9457   17.8234 O   0  0  0  0  0  0  0  0  0  0  0  0
   52.2163   11.9744   16.2832 O   0  0  0  0  0  0  0  0  0  0  0  0
   48.2442    4.0831   19.8337 C   0  0  0  0  0  0  0  0  0  0  0  0
   47.3489    4.1073   17.5035 C   0  0  0  0  0  0  0  0  0  0  0  0
   49.5126    2.9275   18.0223 C   0  0  0  0  0  0  0  0  0  0  0  0
   48.8126    4.3504   17.8789 C   0  0  0  0  0  0  0  0  0  0  0  0
   48.8802    5.6344   18.4397 C   0  0  0  0  0  0  0  0  0  0  0  0
   50.1000    6.3256   18.5416 C   0  0  0  0  0  0  0  0  0  0  0  0
   49.9920    3.7655   17.4074 C   0  0  0  0  0  0  0  0  0  0  0  0
   50.3484    8.8711   16.8119 N   0  0  0  0  0  0  0  0  0  0  0  0
   51.2680    5.6912   18.0979 C   0  0  0  0  0  0  0  0  0  0  0  0
   49.1422    9.6478   16.4885 C   0  0  0  0  0  0  0  0  0  0  0  0
   51.2154    4.4201   17.5253 C   0  0  0  0  0  0  0  0  0  0  0  0
   50.7937    8.7895   18.2071 C   0  0  0  0  0  0  0  0  0  0  0  0
   50.1361    7.7241   19.1258 C   0  0  2  0  0  0  0  0  0  0  0  0
   49.9239    2.5394   16.8118 O   0  0  0  0  0  0  0  0  0  0  0  0
   47.4848    3.6538   17.7533 C   0  0  0  0  0  0  0  0  0  0  0  0
   50.8404    7.6864   20.3728 O   0  0  0  0  0  0  0  0  0  0  0  0
   46.9488    3.8613   16.4556 O   0  0  0  0  0  0  0  0  0  0  0  0
   49.1245   11.0394   17.1427 C   0  0  0  0  0  0  0  0  0  0  0  0
   47.8494    8.8915   16.8371 C   0  0  0  0  0  0  0  0  0  0  0  0
   49.1840    9.8401   14.9572 C   0  0  0  0  0  0  0  0  0  0  0  0
   48.9573    4.4758   17.8769 O   0  0  0  0  0  0  0  0  0  0  0  0
   47.4172    5.7854   18.8269 O   0  0  0  0  0  0  0  0  0  0  0  0
   50.1525    9.6116   17.3230 O   0  0  0  0  0  0  0  0  0  0  0  0
   50.9877    8.5477   15.5372 O   0  0  0  0  0  0  0  0  0  0  0  0
   49.5451    7.6663   19.2240 O   0  0  0  0  0  0  0  0  0  0  0  0
   49.0746    6.5953   15.6736 O   0  0  0  0  0  0  0  0  0  0  0  0
   48.5237    5.6810   18.3156 C   0  0  0  0  0  0  0  0  0  0  0  0
   49.5410    6.7924   18.0824 C   0  0  1  0  0  0  0  0  0  0  0  0
   49.1545    7.5034   16.7793 C   0  0  1  0  0  0  0  0  0  0  0  0
   50.1906    8.5733   16.4627 C   0  0  0  0  0  0  0  0  0  0  0  0
   51.6994    9.3374   15.8609 H   0  0  0  0  0  0  0  0  0  0  0  0
   50.1952    5.4164   18.7599 H   0  0  0  0  0  0  0  0  0  0  0  0
   48.1554    7.7058   17.7076 H   0  0  0  0  0  0  0  0  0  0  0  0
   47.1469    9.9228   17.7295 H   0  0  0  0  0  0  0  0  0  0  0  0
   48.9696    5.8290   16.1085 H   0  0  0  0  0  0  0  0  0  0  0  0
   50.4386    4.8882   16.4445 H   0  0  0  0  0  0  0  0  0  0  0  0
   51.2843    6.9298   15.8138 H   0  0  0  0  0  0  0  0  0  0  0  0
   47.3621   12.0665   17.1427 H   0  0  0  0  0  0  0  0  0  0  0  0
   50.4260   12.8780   15.9123 H   0  0  0  0  0  0  0  0  0  0  0  0
   51.0050   11.8050   14.6286 H   0  0  0  0  0  0  0  0  0  0  0  0
   51.3054    7.5515   18.5028 H   0  0  0  0  0  0  0  0  0  0  0  0
   52.1302   11.6893   17.2100 H   0  0  0  0  0  0  0  0  0  0  0  0
   49.1282    4.0846   20.4829 H   0  0  0  0  0  0  0  0  0  0  0  0
   47.6849    3.1694   20.0556 H   0  0  0  0  0  0  0  0  0  0  0  0
   47.6121    4.9324   20.1216 H   0  0  0  0  0  0  0  0  0  0  0  0
   46.7220    4.9859   17.6896 H   0  0  0  0  0  0  0  0  0  0  0  0
   46.7513    3.2193   17.7411 H   0  0  0  0  0  0  0  0  0  0  0  0
   47.5629    4.0662   16.4301 H   0  0  0  0  0  0  0  0  0  0  0  0
   49.7178    2.8405   16.9502 H   0  0  0  0  0  0  0  0  0  0  0  0
   50.4731    2.9712   18.5513 H   0  0  0  0  0  0  0  0  0  0  0  0
   49.0124    1.9979   18.3206 H   0  0  0  0  0  0  0  0  0  0  0  0
   47.9597    6.1091   18.7800 H   0  0  0  0  0  0  0  0  0  0  0  0
   50.2775    7.9325   16.4145 H   0  0  0  0  0  0  0  0  0  0  0  0
   52.2283    6.1934   18.1852 H   0  0  0  0  0  0  0  0  0  0  0  0
   52.1355    3.9629   17.1734 H   0  0  0  0  0  0  0  0  0  0  0  0
   51.8681    8.5679   18.1654 H   0  0  0  0  0  0  0  0  0  0  0  0
   50.7653    9.7654   18.7056 H   0  0  0  0  0  0  0  0  0  0  0  0
   49.1195    8.0483   19.3680 H   0  0  0  0  0  0  0  0  0  0  0  0
   50.8063    2.2978   16.4848 H   0  0  0  0  0  0  0  0  0  0  0  0
   47.5852    2.5787   17.9345 H   0  0  0  0  0  0  0  0  0  0  0  0
   46.7685    4.0326   18.4893 H   0  0  0  0  0  0  0  0  0  0  0  0
   50.7940    6.7731   20.7047 H   0  0  0  0  0  0  0  0  0  0  0  0
   47.6782    3.6762   15.8369 H   0  0  0  0  0  0  0  0  0  0  0  0
   48.9567   10.9811   18.2238 H   0  0  0  0  0  0  0  0  0  0  0  0
   50.0665   11.5768   16.9681 H   0  0  0  0  0  0  0  0  0  0  0  0
   48.3117   11.6554   16.7326 H   0  0  0  0  0  0  0  0  0  0  0  0
   47.8391    7.8847   16.4006 H   0  0  0  0  0  0  0  0  0  0  0  0
   46.9727    9.4191   16.4408 H   0  0  0  0  0  0  0  0  0  0  0  0
   47.7030    8.8000   17.9173 H   0  0  0  0  0  0  0  0  0  0  0  0
   49.1528    8.8814   14.4275 H   0  0  0  0  0  0  0  0  0  0  0  0
   48.3285   10.4294   14.6029 H   0  0  0  0  0  0  0  0  0  0  0  0
   50.0951   10.3658   14.6411 H   0  0  0  0  0  0  0  0  0  0  0  0
   48.2028    3.8775   18.0655 H   0  0  0  0  0  0  0  0  0  0  0  0
   50.7915   10.2648   16.9499 H   0  0  0  0  0  0  0  0  0  0  0  0
   49.4837    8.5961   18.9185 H   0  0  0  0  0  0  0  0  0  0  0  0
   49.9889    6.4098   15.3750 H   0  0  0  0  0  0  0  0  0  0  0  0
   50.5418    6.3473   18.0150 H   0  0  0  0  0  0  0  0  0  0  0  0
   48.1799    7.9952   16.8661 H   0  0  0  0  0  0  0  0  0  0  0  0
 10  3  1  0
 11  4  1  0
 12  1  1  0
 10 13  1  0
 14 12  1  0
 15  7  1  0
 16  7  1  0
 17  7  1  0
  6  8  1  0
  2  1  2  0
  3  2  1  0
  4  1  1  0
  5  9  1  0
  6  3  2  0
  7  5  1  0
  8  4  2  0
  9 10  1  0
 27 20  1  0
 28 21  1  0
 29 18  1  0
 27 30  1  0
 31 29  1  0
 32 24  1  0
 33 24  1  0
 34 24  1  0
 23 25  1  0
 19 18  2  0
 20 19  1  0
 21 18  1  0
 22 26  1  0
 23 20  2  0
 24 22  1  0
 25 21  2  0
 26 27  1  0
 41 36  2  0
 42 39  1  0
 43 40  1  0
 41 35  1  0
 43 44  1  0
 42 43  1  0
 44 37  1  0
 41 42  1  0
 44 38  2  0
  2 45  1  0
  5 46  1  0
  6 47  1  0
  8 48  1  0
  9 49  1  0
  9 50  1  0
 10 51  1  1
 11 52  1  0
 12 53  1  0
 12 54  1  0
 13 55  1  0
 14 56  1  0
 15 57  1  0
 15 58  1  0
 15 59  1  0
 16 60  1  0
 16 61  1  0
 16 62  1  0
 17 63  1  0
 17 64  1  0
 17 65  1  0
 19 66  1  0
 22 67  1  0
 23 68  1  0
 25 69  1  0
 26 70  1  0
 26 71  1  0
 27 72  1  6
 28 73  1  0
 29 74  1  0
 29 75  1  0
 30 76  1  0
 31 77  1  0
 32 78  1  0
 32 79  1  0
 32 80  1  0
 33 81  1  0
 33 82  1  0
 33 83  1  0
 34 84  1  0
 34 85  1  0
 34 86  1  0
 35 87  1  0
 37 88  1  0
 39 89  1  0
 40 90  1  0
 42 91  1  1
 43 92  1  6
M  END
> <Uni-Dock RESULT> 
ENERGY=   -4.274  LOWER_BOUND=    2.459  UPPER_BOUND=    3.440
INTER + INTRA:          -4.274
INTER:                  -4.274
INTRA:                   0.000
UNBOUND:                 0.000

$$$$

     RDKit          3D

 92 91  0  0  0  0  0  0  0  0999 V2000
   51.4168    5.5288   20.4766 C   0  0  0  0  0  0  0  0  0  0  0  0
   51.0376    6.5226   19.5543 C   0  0  0  0  0  0  0  0  0  0  0  0
   50.1089    7.5288   19.8808 C   0  0  0  0  0  0  0  0  0  0  0  0
   50.8497    5.5643   21.7514 C   0  0  0  0  0  0  0  0  0  0  0  0
   47.7031    9.7830   19.6329 N   0  0  0  0  0  0  0  0  0  0  0  0
   49.5496    7.5169   21.1642 C   0  0  0  0  0  0  0  0  0  0  0  0
   47.0144   11.0461   19.9437 C   0  0  0  0  0  0  0  0  0  0  0  0
   49.9186    6.5443   22.0968 C   0  0  0  0  0  0  0  0  0  0  0  0
   49.1321    9.8954   19.2798 C   0  0  0  0  0  0  0  0  0  0  0  0
   49.7270    8.5354   18.8091 C   0  0  2  0  0  0  0  0  0  0  0  0
   51.2071    4.6131   22.6631 O   0  0  0  0  0  0  0  0  0  0  0  0
   52.4379    4.4925   20.0798 C   0  0  0  0  0  0  0  0  0  0  0  0
   48.8059    7.9181   17.8994 O   0  0  0  0  0  0  0  0  0  0  0  0
   52.0707    3.8659   18.8507 O   0  0  0  0  0  0  0  0  0  0  0  0
   45.5652   10.6649   20.3023 C   0  0  0  0  0  0  0  0  0  0  0  0
   47.6448   11.7507   21.1559 C   0  0  0  0  0  0  0  0  0  0  0  0
   46.9774   12.0038   18.7407 C   0  0  0  0  0  0  0  0  0  0  0  0
   47.5374   10.9893   19.8325 C   0  0  0  0  0  0  0  0  0  0  0  0
   47.4757    9.6250   20.1527 C   0  0  0  0  0  0  0  0  0  0  0  0
   47.7546    8.6346   19.1948 C   0  0  0  0  0  0  0  0  0  0  0  0
   47.8955   11.3534   18.5307 C   0  0  0  0  0  0  0  0  0  0  0  0
   50.2864    6.9442   19.7104 N   0  0  0  0  0  0  0  0  0  0  0  0
   48.0682    9.0357   17.8892 C   0  0  0  0  0  0  0  0  0  0  0  0
   50.7322    6.7101   21.0921 C   0  0  0  0  0  0  0  0  0  0  0  0
   48.1470   10.3887   17.5586 C   0  0  0  0  0  0  0  0  0  0  0  0
   49.0079    6.3790   19.2659 C   0  0  0  0  0  0  0  0  0  0  0  0
   47.7082    7.1689   19.5793 C   0  0  2  0  0  0  0  0  0  0  0  0
   48.0099   12.6793   18.2281 O   0  0  0  0  0  0  0  0  0  0  0  0
   47.2672   12.0231   20.8919 C   0  0  0  0  0  0  0  0  0  0  0  0
   46.6106    6.5472   18.9001 O   0  0  0  0  0  0  0  0  0  0  0  0
   48.4897   12.4661   21.4608 O   0  0  0  0  0  0  0  0  0  0  0  0
   50.6125    5.2396   21.5262 C   0  0  0  0  0  0  0  0  0  0  0  0
   50.0037    7.6126   22.1019 C   0  0  0  0  0  0  0  0  0  0  0  0
   52.2282    7.0917   21.1042 C   0  0  0  0  0  0  0  0  0  0  0  0
   47.5989   10.8385   19.7318 O   0  0  0  0  0  0  0  0  0  0  0  0
   47.0130    9.7557   21.5956 O   0  0  0  0  0  0  0  0  0  0  0  0
   50.0513    6.1537   20.1200 O   0  0  0  0  0  0  0  0  0  0  0  0
   51.4257    7.5225   18.9992 O   0  0  0  0  0  0  0  0  0  0  0  0
   47.5335    7.3486   20.1265 O   0  0  0  0  0  0  0  0  0  0  0  0
   50.4069    9.7368   20.2439 O   0  0  0  0  0  0  0  0  0  0  0  0
   47.5696    9.7285   20.5065 C   0  0  0  0  0  0  0  0  0  0  0  0
   48.2865    8.5453   19.8659 C   0  0  1  0  0  0  0  0  0  0  0  0
   49.7074    8.5019   20.4422 C   0  0  1  0  0  0  0  0  0  0  0  0
   50.4893    7.3809   19.7710 C   0  0  0  0  0  0  0  0  0  0  0  0
   51.4790    6.5046   18.5565 H   0  0  0  0  0  0  0  0  0  0  0  0
   47.2414    9.3344   18.8337 H   0  0  0  0  0  0  0  0  0  0  0  0
   48.8091    8.2587   21.4595 H   0  0  0  0  0  0  0  0  0  0  0  0
   49.4625    6.5647   23.0830 H   0  0  0  0  0  0  0  0  0  0  0  0
   49.7213   10.2857   20.1172 H   0  0  0  0  0  0  0  0  0  0  0  0
   49.2339   10.5876   18.4357 H   0  0  0  0  0  0  0  0  0  0  0  0
   50.6300    8.7733   18.2349 H   0  0  0  0  0  0  0  0  0  0  0  0
   50.7865    4.8191   23.5147 H   0  0  0  0  0  0  0  0  0  0  0  0
   52.5431    3.6993   20.8276 H   0  0  0  0  0  0  0  0  0  0  0  0
   53.4202    4.9626   19.9505 H   0  0  0  0  0  0  0  0  0  0  0  0
   48.3513    7.2259   18.4095 H   0  0  0  0  0  0  0  0  0  0  0  0
   51.0994    3.8016   18.8511 H   0  0  0  0  0  0  0  0  0  0  0  0
   45.0564   10.1785   19.4613 H   0  0  0  0  0  0  0  0  0  0  0  0
   44.9773   11.5495   20.5646 H   0  0  0  0  0  0  0  0  0  0  0  0
   45.5294    9.9815   21.1599 H   0  0  0  0  0  0  0  0  0  0  0  0
   47.7146   11.0773   22.0169 H   0  0  0  0  0  0  0  0  0  0  0  0
   47.0472   12.6173   21.4625 H   0  0  0  0  0  0  0  0  0  0  0  0
   48.6511   12.1227   20.9356 H   0  0  0  0  0  0  0  0  0  0  0  0
   47.9653   12.4186   18.5151 H   0  0  0  0  0  0  0  0  0  0  0  0
   46.6033   11.5029   17.8388 H   0  0  0  0  0  0  0  0  0  0  0  0
   46.3190   12.8579   18.9422 H   0  0  0  0  0  0  0  0  0  0  0  0
   47.2285    9.3348   21.1741 H   0  0  0  0  0  0  0  0  0  0  0  0
   50.3176    7.9429   19.4969 H   0  0  0  0  0  0  0  0  0  0  0  0
   48.2663    8.2907   17.1226 H   0  0  0  0  0  0  0  0  0  0  0  0
   48.4112   10.6677   16.5428 H   0  0  0  0  0  0  0  0  0  0  0  0
   49.0832    6.2918   18.1742 H   0  0  0  0  0  0  0  0  0  0  0  0
   48.8853    5.3377   19.5857 H   0  0  0  0  0  0  0  0  0  0  0  0
   47.4889    7.0752   20.6471 H   0  0  0  0  0  0  0  0  0  0  0  0
   48.3229   12.7683   17.3127 H   0  0  0  0  0  0  0  0  0  0  0  0
   46.7305   12.8822   20.4762 H   0  0  0  0  0  0  0  0  0  0  0  0
   46.6400   11.6155   21.6911 H   0  0  0  0  0  0  0  0  0  0  0  0
   45.9752    7.2481   18.6733 H   0  0  0  0  0  0  0  0  0  0  0  0
   49.0775   12.6550   20.7072 H   0  0  0  0  0  0  0  0  0  0  0  0
   49.5689    4.9400   21.6727 H   0  0  0  0  0  0  0  0  0  0  0  0
   51.0646    4.5649   20.7866 H   0  0  0  0  0  0  0  0  0  0  0  0
   51.1241    5.0704   22.4842 H   0  0  0  0  0  0  0  0  0  0  0  0
   50.0536    8.6693   21.8101 H   0  0  0  0  0  0  0  0  0  0  0  0
   50.4646    7.5345   23.0947 H   0  0  0  0  0  0  0  0  0  0  0  0
   48.9516    7.3368   22.2182 H   0  0  0  0  0  0  0  0  0  0  0  0
   52.3794    8.1458   20.8463 H   0  0  0  0  0  0  0  0  0  0  0  0
   52.6740    6.9375   22.0951 H   0  0  0  0  0  0  0  0  0  0  0  0
   52.8045    6.4880   20.3901 H   0  0  0  0  0  0  0  0  0  0  0  0
   47.1322   11.5099   20.2743 H   0  0  0  0  0  0  0  0  0  0  0  0
   50.6965    5.5337   19.7034 H   0  0  0  0  0  0  0  0  0  0  0  0
   48.1386    6.6533   20.4612 H   0  0  0  0  0  0  0  0  0  0  0  0
   50.7166    9.7568   19.3147 H   0  0  0  0  0  0  0  0  0  0  0  0
   48.2990    8.6863   18.7777 H   0  0  0  0  0  0  0  0  0  0  0  0
   49.6962    8.3050   21.5194 H   0  0  0  0  0  0  0  0  0  0  0  0
 10  3  1  0
 11  4  1  0
 12  1  1  0
 10 13  1  0
 14 12  1  0
 15  7  1  0
 16  7  1  0
 17  7  1  0
  6  8  1  0
  2  1  2  0
  3  2  1  0
  4  1  1  0
  5  9  1  0
  6  3  2  0
  7  5  1  0
  8  4  2  0
  9 10  1  0
 27 20  1  0
 28 21  1  0
 29 18  1  0
 27 30  1  0
 31 29  1  0
 32 24  1  0
 33 24  1  0
 34 24  1  0
 23 25  1  0
 19 18  2  0
 20 19  1  0
 21 18  1  0
 22 26  1  0
 23 20  2  0
 24 22  1  0
 25 21  2  0
 26 27  1  0
 41 36  2  0
 42 39  1  0
 43 40  1  0
 41 35  1  0
 43 44  1  0
 42 43  1  0
 44 37  1  0
 41 42  1  0
 44 38  2  0
  2 45  1  0
  5 46  1  0
  6 47  1  0
  8 48  1  0
  9 49  1  0
  9 50  1  0
 10 51  1  1
 11 52  1  0
 12 53  1  0
 12 54  1  0
 13 55  1  0
 14 56  1  0
 15 57  1  0
 15 58  1  0
 15 59  1  0
 16 60  1  0
 16 61  1  0
 16 62  1  0
 17 63  1  0
 17 64  1  0
 17 65  1  0
 19 66  1  0
 22 67  1  0
 23 68  1  0
 25 69  1  0
 26 70  1  0
 26 71  1  0
 27 72  1  6
 28 73  1  0
 29 74  1  0
 29 75  1  0
 30 76  1  0
 31 77  1  0
 32 78  1  0
 32 79  1  0
 32 80  1  0
 33 81  1  0
 33 82  1  0
 33 83  1  0
 34 84  1  0
 34 85  1  0
 34 86  1  0
 35 87  1  0
 37 88  1  0
 39 89  1  0
 40 90  1  0
 42 91  1  1
 43 92  1  6
M  END
> <Uni-Dock RESULT> 
ENERGY=   -4.265  LOWER_BOUND=    2.076  UPPER_BOUND=    5.634
INTER + INTRA:          -4.265
INTER:                  -4.265
INTRA:                   0.000
UNBOUND:                 0.000

$$$$
