
     RDKit          3D

 92 91  0  0  0  0  0  0  0  0999 V2000
   49.2233    9.1210   14.2911 C   0  0  0  0  0  0  0  0  0  0  0  0
   48.0619    8.4674   13.8252 C   0  0  0  0  0  0  0  0  0  0  0  0
   47.0880    9.1494   13.0784 C   0  0  0  0  0  0  0  0  0  0  0  0
   49.3834   10.4802   14.0108 C   0  0  0  0  0  0  0  0  0  0  0  0
   44.3936    6.5045   12.1726 N   0  0  0  0  0  0  0  0  0  0  0  0
   47.2834   10.5199   12.8327 C   0  0  0  0  0  0  0  0  0  0  0  0
   44.2954    5.0746   11.8463 C   0  0  0  0  0  0  0  0  0  0  0  0
   48.4201   11.1833   13.2929 C   0  0  0  0  0  0  0  0  0  0  0  0
   45.6734    6.9663   12.7354 C   0  0  0  0  0  0  0  0  0  0  0  0
   45.8249    8.5003   12.5394 C   0  0  2  0  0  0  0  0  0  0  0  0
   50.4925   11.1351   14.4582 O   0  0  0  0  0  0  0  0  0  0  0  0
   50.2520    8.3609   15.0949 C   0  0  0  0  0  0  0  0  0  0  0  0
   45.7529    8.7494   11.1202 O   0  0  0  0  0  0  0  0  0  0  0  0
   50.8228    7.2917   14.3469 O   0  0  0  0  0  0  0  0  0  0  0  0
   42.7981    4.7914   11.6220 C   0  0  0  0  0  0  0  0  0  0  0  0
   44.7967    4.1668   12.9788 C   0  0  0  0  0  0  0  0  0  0  0  0
   45.0521    4.7598   10.5424 C   0  0  0  0  0  0  0  0  0  0  0  0
   49.1828    8.5775   14.2596 C   0  0  0  0  0  0  0  0  0  0  0  0
   47.8106    8.8351   14.1193 C   0  0  0  0  0  0  0  0  0  0  0  0
   47.2010    8.9243   12.8539 C   0  0  0  0  0  0  0  0  0  0  0  0
   49.9471    8.4344   13.0970 C   0  0  0  0  0  0  0  0  0  0  0  0
   45.0118    6.7808   12.5895 N   0  0  0  0  0  0  0  0  0  0  0  0
   47.9967    8.7579   11.7123 C   0  0  0  0  0  0  0  0  0  0  0  0
   44.3830    5.6744   11.8461 C   0  0  0  0  0  0  0  0  0  0  0  0
   49.3661    8.5151   11.8325 C   0  0  0  0  0  0  0  0  0  0  0  0
   44.9242    8.1103   11.9750 C   0  0  0  0  0  0  0  0  0  0  0  0
   45.7064    9.1912   12.7691 C   0  0  2  0  0  0  0  0  0  0  0  0
   51.2874    8.1901   13.2223 O   0  0  0  0  0  0  0  0  0  0  0  0
   49.7940    8.5220   15.6352 C   0  0  0  0  0  0  0  0  0  0  0  0
   45.4752   10.4723   12.1756 O   0  0  0  0  0  0  0  0  0  0  0  0
   50.6486    7.3995   15.8005 O   0  0  0  0  0  0  0  0  0  0  0  0
   44.4938    4.4331   12.7573 C   0  0  0  0  0  0  0  0  0  0  0  0
   42.8944    5.9385   11.5647 C   0  0  0  0  0  0  0  0  0  0  0  0
   45.1280    5.3845   10.5313 C   0  0  0  0  0  0  0  0  0  0  0  0
   48.0156    9.5671   12.8691 O   0  0  0  0  0  0  0  0  0  0  0  0
   45.8746    9.3078   12.3035 O   0  0  0  0  0  0  0  0  0  0  0  0
   45.0416    5.9766   11.2228 O   0  0  0  0  0  0  0  0  0  0  0  0
   44.1858    6.6363   13.1812 O   0  0  0  0  0  0  0  0  0  0  0  0
   48.1603    7.5032   14.4709 O   0  0  0  0  0  0  0  0  0  0  0  0
   47.5706    6.3298   11.8836 O   0  0  0  0  0  0  0  0  0  0  0  0
   46.8401    8.9026   12.9289 C   0  0  0  0  0  0  0  0  0  0  0  0
   46.8977    7.6527   13.8065 C   0  0  1  0  0  0  0  0  0  0  0  0
   46.6265    6.4096   12.9588 C   0  0  1  0  0  0  0  0  0  0  0  0
   45.1691    6.3830   12.5084 C   0  0  0  0  0  0  0  0  0  0  0  0
   47.9335    7.4132   14.0618 H   0  0  0  0  0  0  0  0  0  0  0  0
   44.2015    7.0628   11.3317 H   0  0  0  0  0  0  0  0  0  0  0  0
   46.5358   11.0866   12.2771 H   0  0  0  0  0  0  0  0  0  0  0  0
   48.5296   12.2449   13.0892 H   0  0  0  0  0  0  0  0  0  0  0  0
   46.5074    6.4672   12.2317 H   0  0  0  0  0  0  0  0  0  0  0  0
   45.6984    6.7313   13.8083 H   0  0  0  0  0  0  0  0  0  0  0  0
   44.9658    9.0068   12.9989 H   0  0  0  0  0  0  0  0  0  0  0  0
   50.5243   12.0132   14.0434 H   0  0  0  0  0  0  0  0  0  0  0  0
   49.7840    7.9478   15.9940 H   0  0  0  0  0  0  0  0  0  0  0  0
   51.0722    9.0025   15.4271 H   0  0  0  0  0  0  0  0  0  0  0  0
   46.6705    8.7474   10.7893 H   0  0  0  0  0  0  0  0  0  0  0  0
   50.0999    6.7779   13.9549 H   0  0  0  0  0  0  0  0  0  0  0  0
   42.3963    5.3867   10.7931 H   0  0  0  0  0  0  0  0  0  0  0  0
   42.2033    5.0305   12.5117 H   0  0  0  0  0  0  0  0  0  0  0  0
   42.6236    3.7378   11.3834 H   0  0  0  0  0  0  0  0  0  0  0  0
   44.2708    4.3677   13.9222 H   0  0  0  0  0  0  0  0  0  0  0  0
   45.8703    4.2807   13.1561 H   0  0  0  0  0  0  0  0  0  0  0  0
   44.6222    3.1118   12.7341 H   0  0  0  0  0  0  0  0  0  0  0  0
   44.6831    5.3700    9.7083 H   0  0  0  0  0  0  0  0  0  0  0  0
   44.9202    3.7085   10.2602 H   0  0  0  0  0  0  0  0  0  0  0  0
   46.1255    4.9352   10.6323 H   0  0  0  0  0  0  0  0  0  0  0  0
   47.2013    8.9549   15.0133 H   0  0  0  0  0  0  0  0  0  0  0  0
   45.9892    6.5492   12.7784 H   0  0  0  0  0  0  0  0  0  0  0  0
   47.5626    8.8202   10.7184 H   0  0  0  0  0  0  0  0  0  0  0  0
   49.9603    8.3863   10.9347 H   0  0  0  0  0  0  0  0  0  0  0  0
   43.8765    8.4341   11.9248 H   0  0  0  0  0  0  0  0  0  0  0  0
   45.2934    8.0936   10.9425 H   0  0  0  0  0  0  0  0  0  0  0  0
   45.2870    9.2471   13.7815 H   0  0  0  0  0  0  0  0  0  0  0  0
   51.7084    8.3204   12.3548 H   0  0  0  0  0  0  0  0  0  0  0  0
   50.3758    9.4304   15.8102 H   0  0  0  0  0  0  0  0  0  0  0  0
   49.0265    8.4610   16.4134 H   0  0  0  0  0  0  0  0  0  0  0  0
   46.1788   10.6232   11.5105 H   0  0  0  0  0  0  0  0  0  0  0  0
   51.1594    7.3441   14.9677 H   0  0  0  0  0  0  0  0  0  0  0  0
   45.5401    4.1851   12.9742 H   0  0  0  0  0  0  0  0  0  0  0  0
   44.0438    3.5517   12.2850 H   0  0  0  0  0  0  0  0  0  0  0  0
   43.9804    4.5936   13.7131 H   0  0  0  0  0  0  0  0  0  0  0  0
   42.3457    6.1813   12.4843 H   0  0  0  0  0  0  0  0  0  0  0  0
   42.7518    6.7655   10.8583 H   0  0  0  0  0  0  0  0  0  0  0  0
   42.4220    5.0567   11.1169 H   0  0  0  0  0  0  0  0  0  0  0  0
   44.7392    4.4699   10.0670 H   0  0  0  0  0  0  0  0  0  0  0  0
   45.0076    6.1970    9.8018 H   0  0  0  0  0  0  0  0  0  0  0  0
   46.2017    5.2367   10.7037 H   0  0  0  0  0  0  0  0  0  0  0  0
   47.8364   10.3336   12.2859 H   0  0  0  0  0  0  0  0  0  0  0  0
   44.0766    6.0393   11.0509 H   0  0  0  0  0  0  0  0  0  0  0  0
   48.8324    7.6369   13.7721 H   0  0  0  0  0  0  0  0  0  0  0  0
   47.1379    5.7881   11.1928 H   0  0  0  0  0  0  0  0  0  0  0  0
   46.1485    7.7771   14.5945 H   0  0  0  0  0  0  0  0  0  0  0  0
   46.7873    5.5047   13.5581 H   0  0  0  0  0  0  0  0  0  0  0  0
 10  3  1  0
 11  4  1  0
 12  1  1  0
 10 13  1  0
 14 12  1  0
 15  7  1  0
 16  7  1  0
 17  7  1  0
  6  8  1  0
  2  1  2  0
  3  2  1  0
  4  1  1  0
  5  9  1  0
  6  3  2  0
  7  5  1  0
  8  4  2  0
  9 10  1  0
 27 20  1  0
 28 21  1  0
 29 18  1  0
 27 30  1  0
 31 29  1  0
 32 24  1  0
 33 24  1  0
 34 24  1  0
 23 25  1  0
 19 18  2  0
 20 19  1  0
 21 18  1  0
 22 26  1  0
 23 20  2  0
 24 22  1  0
 25 21  2  0
 26 27  1  0
 41 36  2  0
 42 39  1  0
 43 40  1  0
 41 35  1  0
 43 44  1  0
 42 43  1  0
 44 37  1  0
 41 42  1  0
 44 38  2  0
  2 45  1  0
  5 46  1  0
  6 47  1  0
  8 48  1  0
  9 49  1  0
  9 50  1  0
 10 51  1  6
 11 52  1  0
 12 53  1  0
 12 54  1  0
 13 55  1  0
 14 56  1  0
 15 57  1  0
 15 58  1  0
 15 59  1  0
 16 60  1  0
 16 61  1  0
 16 62  1  0
 17 63  1  0
 17 64  1  0
 17 65  1  0
 19 66  1  0
 22 67  1  0
 23 68  1  0
 25 69  1  0
 26 70  1  0
 26 71  1  0
 27 72  1  6
 28 73  1  0
 29 74  1  0
 29 75  1  0
 30 76  1  0
 31 77  1  0
 32 78  1  0
 32 79  1  0
 32 80  1  0
 33 81  1  0
 33 82  1  0
 33 83  1  0
 34 84  1  0
 34 85  1  0
 34 86  1  0
 35 87  1  0
 37 88  1  0
 39 89  1  0
 40 90  1  0
 42 91  1  6
 43 92  1  6
M  END
> <Uni-Dock RESULT> 
ENERGY=   -6.371  LOWER_BOUND=    0.000  UPPER_BOUND=    0.000
INTER + INTRA:          -6.371
INTER:                  -6.371
INTRA:                   0.000
UNBOUND:                 0.000

$$$$

     RDKit          3D

 92 91  0  0  0  0  0  0  0  0999 V2000
   48.0084    5.4671   19.3729 C   0  0  0  0  0  0  0  0  0  0  0  0
   47.8379    6.8450   19.6287 C   0  0  0  0  0  0  0  0  0  0  0  0
   47.8245    7.3500   20.9387 C   0  0  0  0  0  0  0  0  0  0  0  0
   48.1467    4.5979   20.4578 C   0  0  0  0  0  0  0  0  0  0  0  0
   47.4347   11.1978   20.5940 N   0  0  0  0  0  0  0  0  0  0  0  0
   47.9524    6.4371   22.0003 C   0  0  0  0  0  0  0  0  0  0  0  0
   47.8393   12.2864   19.6930 C   0  0  0  0  0  0  0  0  0  0  0  0
   48.1127    5.0719   21.7661 C   0  0  0  0  0  0  0  0  0  0  0  0
   47.6164    9.8251   20.0931 C   0  0  0  0  0  0  0  0  0  0  0  0
   47.6574    8.8211   21.2783 C   0  0  2  0  0  0  0  0  0  0  0  0
   48.3035    3.2617   20.2358 O   0  0  0  0  0  0  0  0  0  0  0  0
   48.0154    4.9534   17.9523 C   0  0  0  0  0  0  0  0  0  0  0  0
   48.7528    9.2214   22.1274 O   0  0  0  0  0  0  0  0  0  0  0  0
   49.0884    5.5057   17.1958 O   0  0  0  0  0  0  0  0  0  0  0  0
   47.2352   13.5742   20.2840 C   0  0  0  0  0  0  0  0  0  0  0  0
   47.3043   12.1107   18.2644 C   0  0  0  0  0  0  0  0  0  0  0  0
   49.3721   12.4330   19.6690 C   0  0  0  0  0  0  0  0  0  0  0  0
   48.0843    5.8500   18.9912 C   0  0  0  0  0  0  0  0  0  0  0  0
   47.4082    6.6796   19.8987 C   0  0  0  0  0  0  0  0  0  0  0  0
   48.1016    7.4952   20.8124 C   0  0  0  0  0  0  0  0  0  0  0  0
   49.4822    5.8321   19.0325 C   0  0  0  0  0  0  0  0  0  0  0  0
   47.3960   10.4490   20.3288 N   0  0  0  0  0  0  0  0  0  0  0  0
   49.5027    7.4630   20.8117 C   0  0  0  0  0  0  0  0  0  0  0  0
   47.8081   11.8470   20.1094 C   0  0  0  0  0  0  0  0  0  0  0  0
   50.1917    6.6330   19.9257 C   0  0  0  0  0  0  0  0  0  0  0  0
   47.6767    9.8884   21.6553 C   0  0  0  0  0  0  0  0  0  0  0  0
   47.3111    8.3832   21.7604 C   0  0  2  0  0  0  0  0  0  0  0  0
   50.1512    5.0213   18.1568 O   0  0  0  0  0  0  0  0  0  0  0  0
   47.2964    4.9725   18.0539 C   0  0  0  0  0  0  0  0  0  0  0  0
   47.5018    7.9443   23.1088 O   0  0  0  0  0  0  0  0  0  0  0  0
   47.7813    5.0364   16.7203 O   0  0  0  0  0  0  0  0  0  0  0  0
   47.2840   12.2295   18.7085 C   0  0  0  0  0  0  0  0  0  0  0  0
   47.1831   12.8030   21.1390 C   0  0  0  0  0  0  0  0  0  0  0  0
   49.3401   11.9897   20.1147 C   0  0  0  0  0  0  0  0  0  0  0  0
   48.4532    6.5238   20.9108 O   0  0  0  0  0  0  0  0  0  0  0  0
   47.7717    8.3607   21.9748 O   0  0  0  0  0  0  0  0  0  0  0  0
   48.6445   11.4268   20.3029 O   0  0  0  0  0  0  0  0  0  0  0  0
   46.4722   10.8957   20.3486 O   0  0  0  0  0  0  0  0  0  0  0  0
   47.4887    7.1560   18.5621 O   0  0  0  0  0  0  0  0  0  0  0  0
   49.4493    9.2299   19.0850 O   0  0  0  0  0  0  0  0  0  0  0  0
   47.8435    7.7299   20.9336 C   0  0  0  0  0  0  0  0  0  0  0  0
   47.3190    8.1665   19.5660 C   0  0  1  0  0  0  0  0  0  0  0  0
   48.0324    9.4426   19.1190 C   0  0  1  0  0  0  0  0  0  0  0  0
   47.6025   10.6217   19.9865 C   0  0  0  0  0  0  0  0  0  0  0  0
   47.7124    7.5152   18.7809 H   0  0  0  0  0  0  0  0  0  0  0  0
   47.9467   11.2778   21.4812 H   0  0  0  0  0  0  0  0  0  0  0  0
   47.9218    6.7910   23.0311 H   0  0  0  0  0  0  0  0  0  0  0  0
   48.1997    4.3982   22.6141 H   0  0  0  0  0  0  0  0  0  0  0  0
   48.5577    9.7485   19.5396 H   0  0  0  0  0  0  0  0  0  0  0  0
   46.7781    9.5722   19.4295 H   0  0  0  0  0  0  0  0  0  0  0  0
   46.7376    8.9261   21.8689 H   0  0  0  0  0  0  0  0  0  0  0  0
   48.5458    2.8331   21.0735 H   0  0  0  0  0  0  0  0  0  0  0  0
   47.0719    5.2140   17.4625 H   0  0  0  0  0  0  0  0  0  0  0  0
   48.1094    3.8654   17.9075 H   0  0  0  0  0  0  0  0  0  0  0  0
   49.5320    8.7111   21.8375 H   0  0  0  0  0  0  0  0  0  0  0  0
   49.0805    6.4675   17.3184 H   0  0  0  0  0  0  0  0  0  0  0  0
   47.6167   13.7706   21.2933 H   0  0  0  0  0  0  0  0  0  0  0  0
   46.1428   13.5127   20.3560 H   0  0  0  0  0  0  0  0  0  0  0  0
   47.4754   14.4458   19.6676 H   0  0  0  0  0  0  0  0  0  0  0  0
   46.2108   12.0067   18.2511 H   0  0  0  0  0  0  0  0  0  0  0  0
   47.7357   11.2378   17.7654 H   0  0  0  0  0  0  0  0  0  0  0  0
   47.5497   12.9854   17.6496 H   0  0  0  0  0  0  0  0  0  0  0  0
   49.7741   12.5993   20.6765 H   0  0  0  0  0  0  0  0  0  0  0  0
   49.6715   13.2896   19.0535 H   0  0  0  0  0  0  0  0  0  0  0  0
   49.8672   11.5527   19.2555 H   0  0  0  0  0  0  0  0  0  0  0  0
   46.3199    6.7020   19.8847 H   0  0  0  0  0  0  0  0  0  0  0  0
   47.8107    9.8567   19.6066 H   0  0  0  0  0  0  0  0  0  0  0  0
   50.0730    8.0778   21.5023 H   0  0  0  0  0  0  0  0  0  0  0  0
   51.2759    6.6280   19.9417 H   0  0  0  0  0  0  0  0  0  0  0  0
   47.0968   10.4212   22.4201 H   0  0  0  0  0  0  0  0  0  0  0  0
   48.7328   10.0154   21.9226 H   0  0  0  0  0  0  0  0  0  0  0  0
   46.2386    8.2731   21.5557 H   0  0  0  0  0  0  0  0  0  0  0  0
   51.0804    4.9605   18.4391 H   0  0  0  0  0  0  0  0  0  0  0  0
   47.3528    3.9357   18.3948 H   0  0  0  0  0  0  0  0  0  0  0  0
   46.2403    5.2593   18.0278 H   0  0  0  0  0  0  0  0  0  0  0  0
   48.4175    7.6039   23.1839 H   0  0  0  0  0  0  0  0  0  0  0  0
   48.7562    5.0190   16.8032 H   0  0  0  0  0  0  0  0  0  0  0  0
   47.7159   11.5902   17.9287 H   0  0  0  0  0  0  0  0  0  0  0  0
   47.5417   13.2653   18.4568 H   0  0  0  0  0  0  0  0  0  0  0  0
   46.1925   12.1382   18.6529 H   0  0  0  0  0  0  0  0  0  0  0  0
   46.0908   12.6969   21.1789 H   0  0  0  0  0  0  0  0  0  0  0  0
   47.5759   12.6310   22.1486 H   0  0  0  0  0  0  0  0  0  0  0  0
   47.4082   13.8456   20.8867 H   0  0  0  0  0  0  0  0  0  0  0  0
   49.6294   13.0015   19.8052 H   0  0  0  0  0  0  0  0  0  0  0  0
   49.7663   11.8199   21.1129 H   0  0  0  0  0  0  0  0  0  0  0  0
   49.8105   11.2841   19.4181 H   0  0  0  0  0  0  0  0  0  0  0  0
   48.7325    6.3709   21.8373 H   0  0  0  0  0  0  0  0  0  0  0  0
   48.2451   12.1115   20.8829 H   0  0  0  0  0  0  0  0  0  0  0  0
   48.4172    6.8602   18.6539 H   0  0  0  0  0  0  0  0  0  0  0  0
   49.8512   10.1172   19.1805 H   0  0  0  0  0  0  0  0  0  0  0  0
   46.2403    8.3200   19.6683 H   0  0  0  0  0  0  0  0  0  0  0  0
   47.7482    9.6898   18.0886 H   0  0  0  0  0  0  0  0  0  0  0  0
 10  3  1  0
 11  4  1  0
 12  1  1  0
 10 13  1  0
 14 12  1  0
 15  7  1  0
 16  7  1  0
 17  7  1  0
  6  8  1  0
  2  1  2  0
  3  2  1  0
  4  1  1  0
  5  9  1  0
  6  3  2  0
  7  5  1  0
  8  4  2  0
  9 10  1  0
 27 20  1  0
 28 21  1  0
 29 18  1  0
 27 30  1  0
 31 29  1  0
 32 24  1  0
 33 24  1  0
 34 24  1  0
 23 25  1  0
 19 18  2  0
 20 19  1  0
 21 18  1  0
 22 26  1  0
 23 20  2  0
 24 22  1  0
 25 21  2  0
 26 27  1  0
 41 36  2  0
 42 39  1  0
 43 40  1  0
 41 35  1  0
 43 44  1  0
 42 43  1  0
 44 37  1  0
 41 42  1  0
 44 38  2  0
  2 45  1  0
  5 46  1  0
  6 47  1  0
  8 48  1  0
  9 49  1  0
  9 50  1  0
 10 51  1  6
 11 52  1  0
 12 53  1  0
 12 54  1  0
 13 55  1  0
 14 56  1  0
 15 57  1  0
 15 58  1  0
 15 59  1  0
 16 60  1  0
 16 61  1  0
 16 62  1  0
 17 63  1  0
 17 64  1  0
 17 65  1  0
 19 66  1  0
 22 67  1  0
 23 68  1  0
 25 69  1  0
 26 70  1  0
 26 71  1  0
 27 72  1  6
 28 73  1  0
 29 74  1  0
 29 75  1  0
 30 76  1  0
 31 77  1  0
 32 78  1  0
 32 79  1  0
 32 80  1  0
 33 81  1  0
 33 82  1  0
 33 83  1  0
 34 84  1  0
 34 85  1  0
 34 86  1  0
 35 87  1  0
 37 88  1  0
 39 89  1  0
 40 90  1  0
 42 91  1  6
 43 92  1  6
M  END
> <Uni-Dock RESULT> 
ENERGY=   -6.195  LOWER_BOUND=    6.203  UPPER_BOUND=    8.952
INTER + INTRA:          -6.195
INTER:                  -6.195
INTRA:                   0.000
UNBOUND:                 0.000

$$$$

     RDKit          3D

 92 91  0  0  0  0  0  0  0  0999 V2000
   49.3342    8.4412   12.8435 C   0  0  0  0  0  0  0  0  0  0  0  0
   48.3364    7.4563   12.6776 C   0  0  0  0  0  0  0  0  0  0  0  0
   48.0916    6.4888   13.6651 C   0  0  0  0  0  0  0  0  0  0  0  0
   50.0985    8.4280   14.0128 C   0  0  0  0  0  0  0  0  0  0  0  0
   45.1272    4.3521   12.3527 N   0  0  0  0  0  0  0  0  0  0  0  0
   48.8947    6.5044   14.8191 C   0  0  0  0  0  0  0  0  0  0  0  0
   43.8999    4.5101   11.5593 C   0  0  0  0  0  0  0  0  0  0  0  0
   49.8905    7.4643   14.9954 C   0  0  0  0  0  0  0  0  0  0  0  0
   46.0844    5.4702   12.3166 C   0  0  0  0  0  0  0  0  0  0  0  0
   47.0260    5.4122   13.5514 C   0  0  2  0  0  0  0  0  0  0  0  0
   51.0741    9.3637   14.1915 O   0  0  0  0  0  0  0  0  0  0  0  0
   49.5761    9.4672   11.7616 C   0  0  0  0  0  0  0  0  0  0  0  0
   46.1850    5.4761   14.7217 O   0  0  0  0  0  0  0  0  0  0  0  0
   48.4274   10.2786   11.5361 O   0  0  0  0  0  0  0  0  0  0  0  0
   43.2612    3.1107   11.4806 C   0  0  0  0  0  0  0  0  0  0  0  0
   44.1706    5.0011   10.1298 C   0  0  0  0  0  0  0  0  0  0  0  0
   42.9126    5.4579   12.2655 C   0  0  0  0  0  0  0  0  0  0  0  0
   48.9320    8.4869   12.4771 C   0  0  0  0  0  0  0  0  0  0  0  0
   48.7468    7.1188   12.7281 C   0  0  0  0  0  0  0  0  0  0  0  0
   47.8013    6.6606   13.6645 C   0  0  0  0  0  0  0  0  0  0  0  0
   48.1631    9.3992   13.2070 C   0  0  0  0  0  0  0  0  0  0  0  0
   45.7281    4.8666   12.2716 N   0  0  0  0  0  0  0  0  0  0  0  0
   47.0372    7.6047   14.3637 C   0  0  0  0  0  0  0  0  0  0  0  0
   44.3272    4.5060   11.9892 C   0  0  0  0  0  0  0  0  0  0  0  0
   47.2180    8.9703   14.1373 C   0  0  0  0  0  0  0  0  0  0  0  0
   46.1896    4.6555   13.6483 C   0  0  0  0  0  0  0  0  0  0  0  0
   47.6379    5.1644   13.8804 C   0  0  2  0  0  0  0  0  0  0  0  0
   48.3409   10.7359   12.9752 O   0  0  0  0  0  0  0  0  0  0  0  0
   49.9785    8.9282   11.4875 C   0  0  0  0  0  0  0  0  0  0  0  0
   48.0535    4.8170   15.2047 O   0  0  0  0  0  0  0  0  0  0  0  0
   49.4899    9.9154   10.5906 O   0  0  0  0  0  0  0  0  0  0  0  0
   44.1392    4.6907   10.4680 C   0  0  0  0  0  0  0  0  0  0  0  0
   44.0248    3.0398   12.3410 C   0  0  0  0  0  0  0  0  0  0  0  0
   43.3471    5.4399   12.7205 C   0  0  0  0  0  0  0  0  0  0  0  0
   48.4083    7.3616   14.1307 O   0  0  0  0  0  0  0  0  0  0  0  0
   47.4226    5.3683   14.2936 O   0  0  0  0  0  0  0  0  0  0  0  0
   44.2221    5.1824   12.6563 O   0  0  0  0  0  0  0  0  0  0  0  0
   45.8868    4.0062   11.7352 O   0  0  0  0  0  0  0  0  0  0  0  0
   48.1491    7.6193   11.5398 O   0  0  0  0  0  0  0  0  0  0  0  0
   45.4134    7.5306   12.5025 O   0  0  0  0  0  0  0  0  0  0  0  0
   47.7700    6.3007   13.5884 C   0  0  0  0  0  0  0  0  0  0  0  0
   47.5422    6.4386   12.0833 C   0  0  1  0  0  0  0  0  0  0  0  0
   46.0431    6.4620   11.7846 C   0  0  1  0  0  0  0  0  0  0  0  0
   45.4288    5.0906   12.0483 C   0  0  0  0  0  0  0  0  0  0  0  0
   47.7563    7.4600   11.7571 H   0  0  0  0  0  0  0  0  0  0  0  0
   44.8814    4.1816   13.3356 H   0  0  0  0  0  0  0  0  0  0  0  0
   48.7489    5.7531   15.5956 H   0  0  0  0  0  0  0  0  0  0  0  0
   50.4951    7.4370   15.8978 H   0  0  0  0  0  0  0  0  0  0  0  0
   45.5484    6.4246   12.3325 H   0  0  0  0  0  0  0  0  0  0  0  0
   46.6827    5.4000   11.3979 H   0  0  0  0  0  0  0  0  0  0  0  0
   47.5313    4.4375   13.5711 H   0  0  0  0  0  0  0  0  0  0  0  0
   51.3898    9.3133   15.1091 H   0  0  0  0  0  0  0  0  0  0  0  0
   49.8356    8.9612   10.8264 H   0  0  0  0  0  0  0  0  0  0  0  0
   50.4062   10.1355   12.0049 H   0  0  0  0  0  0  0  0  0  0  0  0
   46.1268    6.4169   14.9729 H   0  0  0  0  0  0  0  0  0  0  0  0
   47.6614    9.6940   11.4280 H   0  0  0  0  0  0  0  0  0  0  0  0
   43.0089    2.7275   12.4768 H   0  0  0  0  0  0  0  0  0  0  0  0
   43.9364    2.3833   11.0143 H   0  0  0  0  0  0  0  0  0  0  0  0
   42.3386    3.1267   10.8925 H   0  0  0  0  0  0  0  0  0  0  0  0
   44.8707    4.3405    9.6002 H   0  0  0  0  0  0  0  0  0  0  0  0
   44.5791    6.0158   10.1110 H   0  0  0  0  0  0  0  0  0  0  0  0
   43.2428    5.0180    9.5449 H   0  0  0  0  0  0  0  0  0  0  0  0
   42.6731    5.1053   13.2768 H   0  0  0  0  0  0  0  0  0  0  0  0
   41.9690    5.5206   11.7106 H   0  0  0  0  0  0  0  0  0  0  0  0
   43.3016    6.4738   12.3519 H   0  0  0  0  0  0  0  0  0  0  0  0
   49.3407    6.3946   12.1733 H   0  0  0  0  0  0  0  0  0  0  0  0
   45.8896    5.8375   11.9962 H   0  0  0  0  0  0  0  0  0  0  0  0
   46.2977    7.2899   15.0947 H   0  0  0  0  0  0  0  0  0  0  0  0
   46.6124    9.6815   14.6879 H   0  0  0  0  0  0  0  0  0  0  0  0
   46.1751    3.5849   13.8906 H   0  0  0  0  0  0  0  0  0  0  0  0
   45.5228    5.1454   14.3681 H   0  0  0  0  0  0  0  0  0  0  0  0
   48.3077    4.6217   13.2015 H   0  0  0  0  0  0  0  0  0  0  0  0
   47.9008   11.2345   13.6855 H   0  0  0  0  0  0  0  0  0  0  0  0
   50.8350    9.3414   12.0259 H   0  0  0  0  0  0  0  0  0  0  0  0
   50.3368    8.0900   10.8814 H   0  0  0  0  0  0  0  0  0  0  0  0
   47.8241    5.5654   15.7941 H   0  0  0  0  0  0  0  0  0  0  0  0
   48.9643   10.5258   11.1461 H   0  0  0  0  0  0  0  0  0  0  0  0
   44.3224    5.7283   10.1628 H   0  0  0  0  0  0  0  0  0  0  0  0
   43.1173    4.4388   10.1603 H   0  0  0  0  0  0  0  0  0  0  0  0
   44.8227    4.0470    9.9012 H   0  0  0  0  0  0  0  0  0  0  0  0
   44.7325    2.3534   11.8574 H   0  0  0  0  0  0  0  0  0  0  0  0
   44.0671    2.8613   13.4225 H   0  0  0  0  0  0  0  0  0  0  0  0
   43.0156    2.7630   12.0152 H   0  0  0  0  0  0  0  0  0  0  0  0
   42.3198    5.2520   12.3849 H   0  0  0  0  0  0  0  0  0  0  0  0
   43.3673    5.2881   13.8084 H   0  0  0  0  0  0  0  0  0  0  0  0
   43.5728    6.4947   12.5186 H   0  0  0  0  0  0  0  0  0  0  0  0
   48.4887    7.1413   15.0819 H   0  0  0  0  0  0  0  0  0  0  0  0
   43.9592    4.2469   12.7997 H   0  0  0  0  0  0  0  0  0  0  0  0
   47.8781    8.3435   12.1399 H   0  0  0  0  0  0  0  0  0  0  0  0
   44.4738    7.2712   12.5903 H   0  0  0  0  0  0  0  0  0  0  0  0
   48.0379    5.5894   11.6030 H   0  0  0  0  0  0  0  0  0  0  0  0
   45.8756    6.6831   10.7231 H   0  0  0  0  0  0  0  0  0  0  0  0
 10  3  1  0
 11  4  1  0
 12  1  1  0
 10 13  1  0
 14 12  1  0
 15  7  1  0
 16  7  1  0
 17  7  1  0
  6  8  1  0
  2  1  2  0
  3  2  1  0
  4  1  1  0
  5  9  1  0
  6  3  2  0
  7  5  1  0
  8  4  2  0
  9 10  1  0
 27 20  1  0
 28 21  1  0
 29 18  1  0
 27 30  1  0
 31 29  1  0
 32 24  1  0
 33 24  1  0
 34 24  1  0
 23 25  1  0
 19 18  2  0
 20 19  1  0
 21 18  1  0
 22 26  1  0
 23 20  2  0
 24 22  1  0
 25 21  2  0
 26 27  1  0
 41 36  2  0
 42 39  1  0
 43 40  1  0
 41 35  1  0
 43 44  1  0
 42 43  1  0
 44 37  1  0
 41 42  1  0
 44 38  2  0
  2 45  1  0
  5 46  1  0
  6 47  1  0
  8 48  1  0
  9 49  1  0
  9 50  1  0
 10 51  1  6
 11 52  1  0
 12 53  1  0
 12 54  1  0
 13 55  1  0
 14 56  1  0
 15 57  1  0
 15 58  1  0
 15 59  1  0
 16 60  1  0
 16 61  1  0
 16 62  1  0
 17 63  1  0
 17 64  1  0
 17 65  1  0
 19 66  1  0
 22 67  1  0
 23 68  1  0
 25 69  1  0
 26 70  1  0
 26 71  1  0
 27 72  1  6
 28 73  1  0
 29 74  1  0
 29 75  1  0
 30 76  1  0
 31 77  1  0
 32 78  1  0
 32 79  1  0
 32 80  1  0
 33 81  1  0
 33 82  1  0
 33 83  1  0
 34 84  1  0
 34 85  1  0
 34 86  1  0
 35 87  1  0
 37 88  1  0
 39 89  1  0
 40 90  1  0
 42 91  1  6
 43 92  1  6
M  END
> <Uni-Dock RESULT> 
ENERGY=   -6.159  LOWER_BOUND=    1.530  UPPER_BOUND=    3.231
INTER + INTRA:          -6.159
INTER:                  -6.159
INTRA:                   0.000
UNBOUND:                 0.000

$$$$

     RDKit          3D

 92 91  0  0  0  0  0  0  0  0999 V2000
   47.6055   11.9785   19.1942 C   0  0  0  0  0  0  0  0  0  0  0  0
   47.7098   10.5727   19.2699 C   0  0  0  0  0  0  0  0  0  0  0  0
   48.1237    9.8090   18.1668 C   0  0  0  0  0  0  0  0  0  0  0  0
   47.9060   12.6069   17.9832 C   0  0  0  0  0  0  0  0  0  0  0  0
   48.2110    6.1258   19.3923 N   0  0  0  0  0  0  0  0  0  0  0  0
   48.4018   10.4820   16.9640 C   0  0  0  0  0  0  0  0  0  0  0  0
   48.5084    5.3595   20.6110 C   0  0  0  0  0  0  0  0  0  0  0  0
   48.2954   11.8690   16.8690 C   0  0  0  0  0  0  0  0  0  0  0  0
   48.0517    7.5809   19.5506 C   0  0  0  0  0  0  0  0  0  0  0  0
   48.2674    8.2970   18.1886 C   0  0  2  0  0  0  0  0  0  0  0  0
   47.8038   13.9629   17.8834 O   0  0  0  0  0  0  0  0  0  0  0  0
   47.1543   12.7726   20.3975 C   0  0  0  0  0  0  0  0  0  0  0  0
   49.5973    7.9578   17.7441 O   0  0  0  0  0  0  0  0  0  0  0  0
   48.0504   12.6247   21.4947 O   0  0  0  0  0  0  0  0  0  0  0  0
   48.2777    3.8800   20.2499 C   0  0  0  0  0  0  0  0  0  0  0  0
   47.5876    5.7217   21.7851 C   0  0  0  0  0  0  0  0  0  0  0  0
   49.9822    5.5375   21.0207 C   0  0  0  0  0  0  0  0  0  0  0  0
   47.6293   11.7092   19.6685 C   0  0  0  0  0  0  0  0  0  0  0  0
   47.3500   10.5856   18.8758 C   0  0  0  0  0  0  0  0  0  0  0  0
   48.3742    9.7537   18.3859 C   0  0  0  0  0  0  0  0  0  0  0  0
   48.9688   12.0030   19.9439 C   0  0  0  0  0  0  0  0  0  0  0  0
   47.9950    6.8897   19.4398 N   0  0  0  0  0  0  0  0  0  0  0  0
   49.7032   10.0707   18.6977 C   0  0  0  0  0  0  0  0  0  0  0  0
   48.5283    5.6846   20.0997 C   0  0  0  0  0  0  0  0  0  0  0  0
   50.0006   11.1928   19.4732 C   0  0  0  0  0  0  0  0  0  0  0  0
   48.5407    7.2009   18.1138 C   0  0  0  0  0  0  0  0  0  0  0  0
   48.0053    8.5423   17.5442 C   0  0  2  0  0  0  0  0  0  0  0  0
   49.2527   13.1005   20.7099 O   0  0  0  0  0  0  0  0  0  0  0  0
   46.5001   12.5859   20.1430 C   0  0  0  0  0  0  0  0  0  0  0  0
   48.4886    8.7142   16.2085 O   0  0  0  0  0  0  0  0  0  0  0  0
   46.6102   12.9073   21.5223 O   0  0  0  0  0  0  0  0  0  0  0  0
   47.7054    5.5096   21.3942 C   0  0  0  0  0  0  0  0  0  0  0  0
   48.3488    4.4246   19.2366 C   0  0  0  0  0  0  0  0  0  0  0  0
   50.0088    5.8599   20.4808 C   0  0  0  0  0  0  0  0  0  0  0  0
   48.5964   10.7329   18.1236 O   0  0  0  0  0  0  0  0  0  0  0  0
   48.4985    8.6123   17.4421 O   0  0  0  0  0  0  0  0  0  0  0  0
   49.3167    6.2158   20.0005 O   0  0  0  0  0  0  0  0  0  0  0  0
   47.1850    6.2700   19.3255 O   0  0  0  0  0  0  0  0  0  0  0  0
   47.1335   10.4308   20.2719 O   0  0  0  0  0  0  0  0  0  0  0  0
   49.4387    8.7382   20.7619 O   0  0  0  0  0  0  0  0  0  0  0  0
   48.1950    9.4510   18.2738 C   0  0  0  0  0  0  0  0  0  0  0  0
   47.3883    9.2172   19.5508 C   0  0  1  0  0  0  0  0  0  0  0  0
   48.1295    8.2384   20.4617 C   0  0  1  0  0  0  0  0  0  0  0  0
   48.1238    6.8395   19.8527 C   0  0  0  0  0  0  0  0  0  0  0  0
   47.4571   10.0867   20.2100 H   0  0  0  0  0  0  0  0  0  0  0  0
   48.9498    5.9654   18.6966 H   0  0  0  0  0  0  0  0  0  0  0  0
   48.7022    9.9186   16.0803 H   0  0  0  0  0  0  0  0  0  0  0  0
   48.5111   12.3504   15.9191 H   0  0  0  0  0  0  0  0  0  0  0  0
   48.7871    7.9640   20.2653 H   0  0  0  0  0  0  0  0  0  0  0  0
   47.0379    7.7924   19.9175 H   0  0  0  0  0  0  0  0  0  0  0  0
   47.5665    7.8833   17.4514 H   0  0  0  0  0  0  0  0  0  0  0  0
   48.1995   14.2440   17.0417 H   0  0  0  0  0  0  0  0  0  0  0  0
   46.1610   12.4350   20.7094 H   0  0  0  0  0  0  0  0  0  0  0  0
   47.0757   13.8411   20.1808 H   0  0  0  0  0  0  0  0  0  0  0  0
   50.1875    8.6662   18.0626 H   0  0  0  0  0  0  0  0  0  0  0  0
   48.2138   11.6779   21.6254 H   0  0  0  0  0  0  0  0  0  0  0  0
   48.9421    3.5558   19.4396 H   0  0  0  0  0  0  0  0  0  0  0  0
   47.2484    3.7003   19.9173 H   0  0  0  0  0  0  0  0  0  0  0  0
   48.4646    3.2270   21.1078 H   0  0  0  0  0  0  0  0  0  0  0  0
   46.5280    5.6005   21.5216 H   0  0  0  0  0  0  0  0  0  0  0  0
   47.7381    6.7499   22.1274 H   0  0  0  0  0  0  0  0  0  0  0  0
   47.7803    5.0665   22.6436 H   0  0  0  0  0  0  0  0  0  0  0  0
   50.6612    5.2467   20.2091 H   0  0  0  0  0  0  0  0  0  0  0  0
   50.2235    4.9109   21.8875 H   0  0  0  0  0  0  0  0  0  0  0  0
   50.2156    6.5677   21.2952 H   0  0  0  0  0  0  0  0  0  0  0  0
   46.3135   10.3449   18.6466 H   0  0  0  0  0  0  0  0  0  0  0  0
   48.1096    7.6939   20.0600 H   0  0  0  0  0  0  0  0  0  0  0  0
   50.5211    9.4530   18.3376 H   0  0  0  0  0  0  0  0  0  0  0  0
   51.0364   11.4156   19.7041 H   0  0  0  0  0  0  0  0  0  0  0  0
   48.2719    6.4109   17.4006 H   0  0  0  0  0  0  0  0  0  0  0  0
   49.6366    7.2385   18.1363 H   0  0  0  0  0  0  0  0  0  0  0  0
   46.9132    8.4720   17.4636 H   0  0  0  0  0  0  0  0  0  0  0  0
   50.2049   13.2883   20.6411 H   0  0  0  0  0  0  0  0  0  0  0  0
   46.4973   13.5158   19.5688 H   0  0  0  0  0  0  0  0  0  0  0  0
   45.5287   12.1017   20.0006 H   0  0  0  0  0  0  0  0  0  0  0  0
   49.3319    9.2105   16.2592 H   0  0  0  0  0  0  0  0  0  0  0  0
   47.5581   13.1054   21.6623 H   0  0  0  0  0  0  0  0  0  0  0  0
   47.8140    6.3744   22.0602 H   0  0  0  0  0  0  0  0  0  0  0  0
   48.0311    4.6259   21.9559 H   0  0  0  0  0  0  0  0  0  0  0  0
   46.6381    5.3857   21.1740 H   0  0  0  0  0  0  0  0  0  0  0  0
   47.3046    4.2945   18.9227 H   0  0  0  0  0  0  0  0  0  0  0  0
   48.9712    4.4547   18.3338 H   0  0  0  0  0  0  0  0  0  0  0  0
   48.6444    3.5279   19.7932 H   0  0  0  0  0  0  0  0  0  0  0  0
   50.3455    5.0178   21.0979 H   0  0  0  0  0  0  0  0  0  0  0  0
   50.6601    5.8972   19.5969 H   0  0  0  0  0  0  0  0  0  0  0  0
   50.1670    6.7782   21.0604 H   0  0  0  0  0  0  0  0  0  0  0  0
   49.0909   10.7391   17.2779 H   0  0  0  0  0  0  0  0  0  0  0  0
   49.1916    5.3567   19.5411 H   0  0  0  0  0  0  0  0  0  0  0  0
   47.9999   10.8836   20.3213 H   0  0  0  0  0  0  0  0  0  0  0  0
   49.9743    7.9521   20.9923 H   0  0  0  0  0  0  0  0  0  0  0  0
   46.4111    8.8285   19.2483 H   0  0  0  0  0  0  0  0  0  0  0  0
   47.6156    8.1630   21.4282 H   0  0  0  0  0  0  0  0  0  0  0  0
 10  3  1  0
 11  4  1  0
 12  1  1  0
 10 13  1  0
 14 12  1  0
 15  7  1  0
 16  7  1  0
 17  7  1  0
  6  8  1  0
  2  1  2  0
  3  2  1  0
  4  1  1  0
  5  9  1  0
  6  3  2  0
  7  5  1  0
  8  4  2  0
  9 10  1  0
 27 20  1  0
 28 21  1  0
 29 18  1  0
 27 30  1  0
 31 29  1  0
 32 24  1  0
 33 24  1  0
 34 24  1  0
 23 25  1  0
 19 18  2  0
 20 19  1  0
 21 18  1  0
 22 26  1  0
 23 20  2  0
 24 22  1  0
 25 21  2  0
 26 27  1  0
 41 36  2  0
 42 39  1  0
 43 40  1  0
 41 35  1  0
 43 44  1  0
 42 43  1  0
 44 37  1  0
 41 42  1  0
 44 38  2  0
  2 45  1  0
  5 46  1  0
  6 47  1  0
  8 48  1  0
  9 49  1  0
  9 50  1  0
 10 51  1  6
 11 52  1  0
 12 53  1  0
 12 54  1  0
 13 55  1  0
 14 56  1  0
 15 57  1  0
 15 58  1  0
 15 59  1  0
 16 60  1  0
 16 61  1  0
 16 62  1  0
 17 63  1  0
 17 64  1  0
 17 65  1  0
 19 66  1  0
 22 67  1  0
 23 68  1  0
 25 69  1  0
 26 70  1  0
 26 71  1  0
 27 72  1  6
 28 73  1  0
 29 74  1  0
 29 75  1  0
 30 76  1  0
 31 77  1  0
 32 78  1  0
 32 79  1  0
 32 80  1  0
 33 81  1  0
 33 82  1  0
 33 83  1  0
 34 84  1  0
 34 85  1  0
 34 86  1  0
 35 87  1  0
 37 88  1  0
 39 89  1  0
 40 90  1  0
 42 91  1  6
 43 92  1  6
M  END
> <Uni-Dock RESULT> 
ENERGY=   -5.964  LOWER_BOUND=    5.493  UPPER_BOUND=    7.583
INTER + INTRA:          -5.964
INTER:                  -5.964
INTRA:                   0.000
UNBOUND:                 0.000

$$$$

     RDKit          3D

 92 91  0  0  0  0  0  0  0  0999 V2000
   47.8360    9.2667   21.8044 C   0  0  0  0  0  0  0  0  0  0  0  0
   47.8661    8.2578   20.8173 C   0  0  0  0  0  0  0  0  0  0  0  0
   47.9272    8.5727   19.4504 C   0  0  0  0  0  0  0  0  0  0  0  0
   47.8490   10.6024   21.3955 C   0  0  0  0  0  0  0  0  0  0  0  0
   48.0956    5.1745   17.5797 N   0  0  0  0  0  0  0  0  0  0  0  0
   47.9235    9.9302   19.0842 C   0  0  0  0  0  0  0  0  0  0  0  0
   48.6517    3.8256   17.7591 C   0  0  0  0  0  0  0  0  0  0  0  0
   47.8851   10.9395   20.0455 C   0  0  0  0  0  0  0  0  0  0  0  0
   48.0769    6.0436   18.7681 C   0  0  0  0  0  0  0  0  0  0  0  0
   47.9743    7.5345   18.3426 C   0  0  2  0  0  0  0  0  0  0  0  0
   47.8113   11.5943   22.3303 O   0  0  0  0  0  0  0  0  0  0  0  0
   47.7673    8.8963   23.2672 C   0  0  0  0  0  0  0  0  0  0  0  0
   49.1169    7.8100   17.5062 O   0  0  0  0  0  0  0  0  0  0  0  0
   48.9078    8.1481   23.6773 O   0  0  0  0  0  0  0  0  0  0  0  0
   48.2402    3.0263   16.5084 C   0  0  0  0  0  0  0  0  0  0  0  0
   48.0953    3.1089   18.9979 C   0  0  0  0  0  0  0  0  0  0  0  0
   50.1897    3.8742   17.8228 C   0  0  0  0  0  0  0  0  0  0  0  0
   47.9658    8.7482   21.9158 C   0  0  0  0  0  0  0  0  0  0  0  0
   47.4174    8.4932   20.6496 C   0  0  0  0  0  0  0  0  0  0  0  0
   48.2222    8.4160   19.4975 C   0  0  0  0  0  0  0  0  0  0  0  0
   49.3466    8.9522   22.0052 C   0  0  0  0  0  0  0  0  0  0  0  0
   47.9490    5.6366   18.2101 N   0  0  0  0  0  0  0  0  0  0  0  0
   49.6040    8.6086   19.6299 C   0  0  0  0  0  0  0  0  0  0  0  0
   48.5580    4.4152   17.6537 C   0  0  0  0  0  0  0  0  0  0  0  0
   50.1653    8.8775   20.8796 C   0  0  0  0  0  0  0  0  0  0  0  0
   48.1476    6.8708   17.4419 C   0  0  0  0  0  0  0  0  0  0  0  0
   47.5690    8.1220   18.1563 C   0  0  2  0  0  0  0  0  0  0  0  0
   49.8909    9.2087   23.2340 O   0  0  0  0  0  0  0  0  0  0  0  0
   47.0587    8.8519   23.1138 C   0  0  0  0  0  0  0  0  0  0  0  0
   47.6960    9.2577   17.2955 O   0  0  0  0  0  0  0  0  0  0  0  0
   47.5462    8.1126   24.2246 O   0  0  0  0  0  0  0  0  0  0  0  0
   48.0929    3.2568   18.5621 C   0  0  0  0  0  0  0  0  0  0  0  0
   48.0785    4.1306   16.2206 C   0  0  0  0  0  0  0  0  0  0  0  0
   50.0946    4.4832   17.6952 C   0  0  0  0  0  0  0  0  0  0  0  0
   48.4303    9.3104   19.9810 O   0  0  0  0  0  0  0  0  0  0  0  0
   48.0218    8.3149   18.0283 O   0  0  0  0  0  0  0  0  0  0  0  0
   49.3253    4.9677   17.7933 O   0  0  0  0  0  0  0  0  0  0  0  0
   47.0993    5.1711   17.8718 O   0  0  0  0  0  0  0  0  0  0  0  0
   47.5642    7.3655   21.5021 O   0  0  0  0  0  0  0  0  0  0  0  0
   49.8038    6.1875   20.0825 O   0  0  0  0  0  0  0  0  0  0  0  0
   48.0008    8.2602   19.2464 C   0  0  0  0  0  0  0  0  0  0  0  0
   47.5430    7.0759   20.0973 C   0  0  1  0  0  0  0  0  0  0  0  0
   48.4324    5.8634   19.8215 C   0  0  1  0  0  0  0  0  0  0  0  0
   48.1778    5.3283   18.4156 C   0  0  0  0  0  0  0  0  0  0  0  0
   47.8375    7.2192   21.1404 H   0  0  0  0  0  0  0  0  0  0  0  0
   48.6148    5.6649   16.8411 H   0  0  0  0  0  0  0  0  0  0  0  0
   47.9454   10.2113   18.0310 H   0  0  0  0  0  0  0  0  0  0  0  0
   47.8751   11.9764   19.7209 H   0  0  0  0  0  0  0  0  0  0  0  0
   48.9967    5.9094   19.3464 H   0  0  0  0  0  0  0  0  0  0  0  0
   47.2102    5.7811   19.3902 H   0  0  0  0  0  0  0  0  0  0  0  0
   47.0799    7.6685   17.7198 H   0  0  0  0  0  0  0  0  0  0  0  0
   47.9903   12.4427   21.8918 H   0  0  0  0  0  0  0  0  0  0  0  0
   46.8706    8.2967   23.4529 H   0  0  0  0  0  0  0  0  0  0  0  0
   47.7034    9.7759   23.9129 H   0  0  0  0  0  0  0  0  0  0  0  0
   49.8141    8.1599   18.0920 H   0  0  0  0  0  0  0  0  0  0  0  0
   49.0387    7.4258   23.0438 H   0  0  0  0  0  0  0  0  0  0  0  0
   48.6472    3.4738   15.5935 H   0  0  0  0  0  0  0  0  0  0  0  0
   47.1504    2.9871   16.3936 H   0  0  0  0  0  0  0  0  0  0  0  0
   48.6027    1.9951   16.5580 H   0  0  0  0  0  0  0  0  0  0  0  0
   46.9982    3.0568   18.9773 H   0  0  0  0  0  0  0  0  0  0  0  0
   48.3958    3.5984   19.9291 H   0  0  0  0  0  0  0  0  0  0  0  0
   48.4635    2.0767   19.0448 H   0  0  0  0  0  0  0  0  0  0  0  0
   50.6126    4.3479   16.9277 H   0  0  0  0  0  0  0  0  0  0  0  0
   50.6086    2.8628   17.8848 H   0  0  0  0  0  0  0  0  0  0  0  0
   50.5522    4.4250   18.6923 H   0  0  0  0  0  0  0  0  0  0  0  0
   46.3438    8.3375   20.5603 H   0  0  0  0  0  0  0  0  0  0  0  0
   48.2732    5.7692   19.1703 H   0  0  0  0  0  0  0  0  0  0  0  0
   50.2578    8.5571   18.7639 H   0  0  0  0  0  0  0  0  0  0  0  0
   51.2374    9.0194   20.9573 H   0  0  0  0  0  0  0  0  0  0  0  0
   47.6514    6.7913   16.4660 H   0  0  0  0  0  0  0  0  0  0  0  0
   49.2113    7.0413   17.2361 H   0  0  0  0  0  0  0  0  0  0  0  0
   46.4917    7.9706   18.2996 H   0  0  0  0  0  0  0  0  0  0  0  0
   50.8019    9.5266   23.1090 H   0  0  0  0  0  0  0  0  0  0  0  0
   46.9654    9.9002   23.4082 H   0  0  0  0  0  0  0  0  0  0  0  0
   46.0549    8.4762   22.8912 H   0  0  0  0  0  0  0  0  0  0  0  0
   48.5533    9.6880   17.4956 H   0  0  0  0  0  0  0  0  0  0  0  0
   48.5084    8.2891   24.2448 H   0  0  0  0  0  0  0  0  0  0  0  0
   48.4272    3.3978   19.5973 H   0  0  0  0  0  0  0  0  0  0  0  0
   48.4968    2.2964   18.2199 H   0  0  0  0  0  0  0  0  0  0  0  0
   46.9995    3.1709   18.5698 H   0  0  0  0  0  0  0  0  0  0  0  0
   46.9824    4.1102   16.1572 H   0  0  0  0  0  0  0  0  0  0  0  0
   48.4436    4.8821   15.5099 H   0  0  0  0  0  0  0  0  0  0  0  0
   48.4512    3.1605   15.8724 H   0  0  0  0  0  0  0  0  0  0  0  0
   50.5263    3.5140   17.4167 H   0  0  0  0  0  0  0  0  0  0  0  0
   50.4930    5.2305   16.9955 H   0  0  0  0  0  0  0  0  0  0  0  0
   50.4576    4.7296   18.7011 H   0  0  0  0  0  0  0  0  0  0  0  0
   48.6857    9.9863   19.3194 H   0  0  0  0  0  0  0  0  0  0  0  0
   49.0295    4.6818   16.9014 H   0  0  0  0  0  0  0  0  0  0  0  0
   48.4405    7.7700   21.6649 H   0  0  0  0  0  0  0  0  0  0  0  0
   50.3294    5.5600   19.5459 H   0  0  0  0  0  0  0  0  0  0  0  0
   46.4979    6.8787   19.8398 H   0  0  0  0  0  0  0  0  0  0  0  0
   48.1855    5.0514   20.5168 H   0  0  0  0  0  0  0  0  0  0  0  0
 10  3  1  0
 11  4  1  0
 12  1  1  0
 10 13  1  0
 14 12  1  0
 15  7  1  0
 16  7  1  0
 17  7  1  0
  6  8  1  0
  2  1  2  0
  3  2  1  0
  4  1  1  0
  5  9  1  0
  6  3  2  0
  7  5  1  0
  8  4  2  0
  9 10  1  0
 27 20  1  0
 28 21  1  0
 29 18  1  0
 27 30  1  0
 31 29  1  0
 32 24  1  0
 33 24  1  0
 34 24  1  0
 23 25  1  0
 19 18  2  0
 20 19  1  0
 21 18  1  0
 22 26  1  0
 23 20  2  0
 24 22  1  0
 25 21  2  0
 26 27  1  0
 41 36  2  0
 42 39  1  0
 43 40  1  0
 41 35  1  0
 43 44  1  0
 42 43  1  0
 44 37  1  0
 41 42  1  0
 44 38  2  0
  2 45  1  0
  5 46  1  0
  6 47  1  0
  8 48  1  0
  9 49  1  0
  9 50  1  0
 10 51  1  6
 11 52  1  0
 12 53  1  0
 12 54  1  0
 13 55  1  0
 14 56  1  0
 15 57  1  0
 15 58  1  0
 15 59  1  0
 16 60  1  0
 16 61  1  0
 16 62  1  0
 17 63  1  0
 17 64  1  0
 17 65  1  0
 19 66  1  0
 22 67  1  0
 23 68  1  0
 25 69  1  0
 26 70  1  0
 26 71  1  0
 27 72  1  6
 28 73  1  0
 29 74  1  0
 29 75  1  0
 30 76  1  0
 31 77  1  0
 32 78  1  0
 32 79  1  0
 32 80  1  0
 33 81  1  0
 33 82  1  0
 33 83  1  0
 34 84  1  0
 34 85  1  0
 34 86  1  0
 35 87  1  0
 37 88  1  0
 39 89  1  0
 40 90  1  0
 42 91  1  6
 43 92  1  6
M  END
> <Uni-Dock RESULT> 
ENERGY=   -5.627  LOWER_BOUND=    5.530  UPPER_BOUND=    7.437
INTER + INTRA:          -5.627
INTER:                  -5.627
INTRA:                   0.000
UNBOUND:                 0.000

$$$$

     RDKit          3D

 92 91  0  0  0  0  0  0  0  0999 V2000
   51.8071    8.8625   12.1808 C   0  0  0  0  0  0  0  0  0  0  0  0
   50.5627    8.2095   12.3160 C   0  0  0  0  0  0  0  0  0  0  0  0
   50.0463    7.8725   13.5774 C   0  0  0  0  0  0  0  0  0  0  0  0
   52.5369    9.1560   13.3353 C   0  0  0  0  0  0  0  0  0  0  0  0
   46.5796    6.2549   12.9125 N   0  0  0  0  0  0  0  0  0  0  0  0
   50.8215    8.1737   14.7110 C   0  0  0  0  0  0  0  0  0  0  0  0
   45.4513    6.3730   11.9778 C   0  0  0  0  0  0  0  0  0  0  0  0
   52.0567    8.8103   14.5953 C   0  0  0  0  0  0  0  0  0  0  0  0
   47.8241    6.9454   12.5348 C   0  0  0  0  0  0  0  0  0  0  0  0
   48.7102    7.1815   13.7892 C   0  0  2  0  0  0  0  0  0  0  0  0
   53.7456    9.7781   13.2293 O   0  0  0  0  0  0  0  0  0  0  0  0
   52.3378    9.2094   10.8098 C   0  0  0  0  0  0  0  0  0  0  0  0
   47.9288    7.9701   14.7104 O   0  0  0  0  0  0  0  0  0  0  0  0
   51.4789   10.1155   10.1242 O   0  0  0  0  0  0  0  0  0  0  0  0
   44.4280    5.3057   12.4094 C   0  0  0  0  0  0  0  0  0  0  0  0
   45.8507    6.1010   10.5203 C   0  0  0  0  0  0  0  0  0  0  0  0
   44.7896    7.7587   12.0946 C   0  0  0  0  0  0  0  0  0  0  0  0
   51.4353    8.8496   11.7813 C   0  0  0  0  0  0  0  0  0  0  0  0
   50.8555    7.8317   12.5537 C   0  0  0  0  0  0  0  0  0  0  0  0
   49.8195    8.0974   13.4687 C   0  0  0  0  0  0  0  0  0  0  0  0
   50.9718   10.1569   11.9616 C   0  0  0  0  0  0  0  0  0  0  0  0
   47.3054    6.5018   12.7008 N   0  0  0  0  0  0  0  0  0  0  0  0
   49.3699    9.4174   13.6088 C   0  0  0  0  0  0  0  0  0  0  0  0
   45.8597    6.4425   12.4204 C   0  0  0  0  0  0  0  0  0  0  0  0
   49.9449   10.4450   12.8589 C   0  0  0  0  0  0  0  0  0  0  0  0
   47.6880    6.7961   14.0864 C   0  0  0  0  0  0  0  0  0  0  0  0
   49.2227    6.9483   14.2658 C   0  0  2  0  0  0  0  0  0  0  0  0
   51.5353   11.1580   11.2186 O   0  0  0  0  0  0  0  0  0  0  0  0
   52.5625    8.5193   10.8382 C   0  0  0  0  0  0  0  0  0  0  0  0
   49.5211    7.1149   15.6551 O   0  0  0  0  0  0  0  0  0  0  0  0
   52.3843    9.1083    9.5579 O   0  0  0  0  0  0  0  0  0  0  0  0
   45.7302    5.9896   10.9502 C   0  0  0  0  0  0  0  0  0  0  0  0
   45.1392    5.4155   13.3098 C   0  0  0  0  0  0  0  0  0  0  0  0
   45.2007    7.8253   12.5665 C   0  0  0  0  0  0  0  0  0  0  0  0
   50.6076    8.7411   13.6729 O   0  0  0  0  0  0  0  0  0  0  0  0
   49.0783    7.3609   14.5257 O   0  0  0  0  0  0  0  0  0  0  0  0
   45.9607    7.3425   12.7261 O   0  0  0  0  0  0  0  0  0  0  0  0
   47.2017    5.4861   12.5962 O   0  0  0  0  0  0  0  0  0  0  0  0
   50.4286    7.9046   11.2001 O   0  0  0  0  0  0  0  0  0  0  0  0
   47.7912    8.9771   11.7594 O   0  0  0  0  0  0  0  0  0  0  0  0
   49.6832    7.7631   13.5461 C   0  0  0  0  0  0  0  0  0  0  0  0
   49.5020    7.2876   12.1049 C   0  0  1  0  0  0  0  0  0  0  0  0
   48.0756    7.5777   11.6375 C   0  0  1  0  0  0  0  0  0  0  0  0
   47.0848    6.6770   12.3687 C   0  0  0  0  0  0  0  0  0  0  0  0
   50.0069    7.9669   11.4127 H   0  0  0  0  0  0  0  0  0  0  0  0
   46.2974    6.6016   13.8375 H   0  0  0  0  0  0  0  0  0  0  0  0
   50.4628    7.9045   15.7047 H   0  0  0  0  0  0  0  0  0  0  0  0
   52.6289    9.0181   15.4952 H   0  0  0  0  0  0  0  0  0  0  0  0
   47.5934    7.9160   12.0841 H   0  0  0  0  0  0  0  0  0  0  0  0
   48.3724    6.3256   11.8121 H   0  0  0  0  0  0  0  0  0  0  0  0
   48.9054    6.2171   14.2766 H   0  0  0  0  0  0  0  0  0  0  0  0
   54.0350   10.0498   14.1162 H   0  0  0  0  0  0  0  0  0  0  0  0
   52.4339    8.2981   10.2112 H   0  0  0  0  0  0  0  0  0  0  0  0
   53.3288    9.6685   10.8550 H   0  0  0  0  0  0  0  0  0  0  0  0
   48.1514    8.9040   14.5374 H   0  0  0  0  0  0  0  0  0  0  0  0
   50.5743    9.7701   10.1739 H   0  0  0  0  0  0  0  0  0  0  0  0
   44.0768    5.4770   13.4343 H   0  0  0  0  0  0  0  0  0  0  0  0
   44.8573    4.2972   12.3776 H   0  0  0  0  0  0  0  0  0  0  0  0
   43.5495    5.3097   11.7571 H   0  0  0  0  0  0  0  0  0  0  0  0
   46.3233    5.1157   10.4067 H   0  0  0  0  0  0  0  0  0  0  0  0
   46.5403    6.8565   10.1322 H   0  0  0  0  0  0  0  0  0  0  0  0
   44.9675    6.1086    9.8698 H   0  0  0  0  0  0  0  0  0  0  0  0
   44.4597    7.9594   13.1218 H   0  0  0  0  0  0  0  0  0  0  0  0
   43.9049    7.8230   11.4500 H   0  0  0  0  0  0  0  0  0  0  0  0
   45.4612    8.5662   11.7982 H   0  0  0  0  0  0  0  0  0  0  0  0
   51.2076    6.8091   12.4307 H   0  0  0  0  0  0  0  0  0  0  0  0
   47.7453    7.1738   12.0688 H   0  0  0  0  0  0  0  0  0  0  0  0
   48.5726    9.6620   14.3050 H   0  0  0  0  0  0  0  0  0  0  0  0
   49.5777   11.4577   12.9822 H   0  0  0  0  0  0  0  0  0  0  0  0
   47.3591    5.9848   14.7487 H   0  0  0  0  0  0  0  0  0  0  0  0
   47.1975    7.7085   14.4465 H   0  0  0  0  0  0  0  0  0  0  0  0
   49.7006    6.0075   13.9648 H   0  0  0  0  0  0  0  0  0  0  0  0
   51.2640   12.0133   11.5950 H   0  0  0  0  0  0  0  0  0  0  0  0
   53.5044    8.8804   11.2586 H   0  0  0  0  0  0  0  0  0  0  0  0
   52.6559    7.4392   10.6867 H   0  0  0  0  0  0  0  0  0  0  0  0
   49.5243    8.0761   15.8452 H   0  0  0  0  0  0  0  0  0  0  0  0
   52.0638   10.0152    9.7377 H   0  0  0  0  0  0  0  0  0  0  0  0
   46.2104    6.7002   10.2663 H   0  0  0  0  0  0  0  0  0  0  0  0
   44.6785    5.9117   10.6493 H   0  0  0  0  0  0  0  0  0  0  0  0
   46.1917    5.0070   10.7939 H   0  0  0  0  0  0  0  0  0  0  0  0
   45.6116    4.4260   13.2493 H   0  0  0  0  0  0  0  0  0  0  0  0
   45.1300    5.7212   14.3632 H   0  0  0  0  0  0  0  0  0  0  0  0
   44.0923    5.3049   13.0046 H   0  0  0  0  0  0  0  0  0  0  0  0
   44.1628    7.7918   12.2131 H   0  0  0  0  0  0  0  0  0  0  0  0
   45.1784    8.1627   13.6117 H   0  0  0  0  0  0  0  0  0  0  0  0
   45.7270    8.5843   11.9738 H   0  0  0  0  0  0  0  0  0  0  0  0
   50.6222    8.9441   14.6312 H   0  0  0  0  0  0  0  0  0  0  0  0
   45.4339    6.6706   13.2116 H   0  0  0  0  0  0  0  0  0  0  0  0
   50.3850    8.8607   11.4047 H   0  0  0  0  0  0  0  0  0  0  0  0
   46.8171    9.0429   11.8283 H   0  0  0  0  0  0  0  0  0  0  0  0
   49.7236    6.2161   12.0885 H   0  0  0  0  0  0  0  0  0  0  0  0
   47.9778    7.3507   10.5685 H   0  0  0  0  0  0  0  0  0  0  0  0
 10  3  1  0
 11  4  1  0
 12  1  1  0
 10 13  1  0
 14 12  1  0
 15  7  1  0
 16  7  1  0
 17  7  1  0
  6  8  1  0
  2  1  2  0
  3  2  1  0
  4  1  1  0
  5  9  1  0
  6  3  2  0
  7  5  1  0
  8  4  2  0
  9 10  1  0
 27 20  1  0
 28 21  1  0
 29 18  1  0
 27 30  1  0
 31 29  1  0
 32 24  1  0
 33 24  1  0
 34 24  1  0
 23 25  1  0
 19 18  2  0
 20 19  1  0
 21 18  1  0
 22 26  1  0
 23 20  2  0
 24 22  1  0
 25 21  2  0
 26 27  1  0
 41 36  2  0
 42 39  1  0
 43 40  1  0
 41 35  1  0
 43 44  1  0
 42 43  1  0
 44 37  1  0
 41 42  1  0
 44 38  2  0
  2 45  1  0
  5 46  1  0
  6 47  1  0
  8 48  1  0
  9 49  1  0
  9 50  1  0
 10 51  1  6
 11 52  1  0
 12 53  1  0
 12 54  1  0
 13 55  1  0
 14 56  1  0
 15 57  1  0
 15 58  1  0
 15 59  1  0
 16 60  1  0
 16 61  1  0
 16 62  1  0
 17 63  1  0
 17 64  1  0
 17 65  1  0
 19 66  1  0
 22 67  1  0
 23 68  1  0
 25 69  1  0
 26 70  1  0
 26 71  1  0
 27 72  1  6
 28 73  1  0
 29 74  1  0
 29 75  1  0
 30 76  1  0
 31 77  1  0
 32 78  1  0
 32 79  1  0
 32 80  1  0
 33 81  1  0
 33 82  1  0
 33 83  1  0
 34 84  1  0
 34 85  1  0
 34 86  1  0
 35 87  1  0
 37 88  1  0
 39 89  1  0
 40 90  1  0
 42 91  1  6
 43 92  1  6
M  END
> <Uni-Dock RESULT> 
ENERGY=   -5.534  LOWER_BOUND=    1.801  UPPER_BOUND=    3.554
INTER + INTRA:          -5.534
INTER:                  -5.534
INTRA:                   0.000
UNBOUND:                 0.000

$$$$

     RDKit          3D

 92 91  0  0  0  0  0  0  0  0999 V2000
   48.9660    3.5604   17.9654 C   0  0  0  0  0  0  0  0  0  0  0  0
   49.0481    4.5157   19.0016 C   0  0  0  0  0  0  0  0  0  0  0  0
   50.2830    4.8930   19.5530 C   0  0  0  0  0  0  0  0  0  0  0  0
   50.1460    2.9731   17.5026 C   0  0  0  0  0  0  0  0  0  0  0  0
   49.4807    7.6193   22.1987 N   0  0  0  0  0  0  0  0  0  0  0  0
   51.4434    4.2655   19.0667 C   0  0  0  0  0  0  0  0  0  0  0  0
   48.5315    8.7202   22.4176 C   0  0  0  0  0  0  0  0  0  0  0  0
   51.3797    3.3133   18.0500 C   0  0  0  0  0  0  0  0  0  0  0  0
   49.1581    6.6759   21.1153 C   0  0  0  0  0  0  0  0  0  0  0  0
   50.4382    5.9223   20.6593 C   0  0  2  0  0  0  0  0  0  0  0  0
   50.0909    2.0411   16.5088 O   0  0  0  0  0  0  0  0  0  0  0  0
   47.6222    3.1726   17.3945 C   0  0  0  0  0  0  0  0  0  0  0  0
   51.3797    6.9243   20.2225 O   0  0  0  0  0  0  0  0  0  0  0  0
   46.9628    4.2831   16.7939 O   0  0  0  0  0  0  0  0  0  0  0  0
   48.8950    9.3295   23.7847 C   0  0  0  0  0  0  0  0  0  0  0  0
   47.0709    8.2495   22.4690 C   0  0  0  0  0  0  0  0  0  0  0  0
   48.6990    9.8068   21.3392 C   0  0  0  0  0  0  0  0  0  0  0  0
   48.5594    3.9056   18.0818 C   0  0  0  0  0  0  0  0  0  0  0  0
   49.2738    4.1142   19.2714 C   0  0  0  0  0  0  0  0  0  0  0  0
   50.1805    5.1816   19.4114 C   0  0  0  0  0  0  0  0  0  0  0  0
   48.7904    4.7792   17.0143 C   0  0  0  0  0  0  0  0  0  0  0  0
   49.2940    7.0171   21.7140 N   0  0  0  0  0  0  0  0  0  0  0  0
   50.3721    6.0463   18.3253 C   0  0  0  0  0  0  0  0  0  0  0  0
   48.9844    8.3595   22.2378 C   0  0  0  0  0  0  0  0  0  0  0  0
   49.6806    5.8456   17.1294 C   0  0  0  0  0  0  0  0  0  0  0  0
   50.6984    6.7579   21.3774 C   0  0  0  0  0  0  0  0  0  0  0  0
   50.9131    5.3625   20.7315 C   0  0  2  0  0  0  0  0  0  0  0  0
   48.1044    4.5805   15.8473 O   0  0  0  0  0  0  0  0  0  0  0  0
   47.6234    2.7306   17.9708 C   0  0  0  0  0  0  0  0  0  0  0  0
   52.3139    5.1401   20.5434 O   0  0  0  0  0  0  0  0  0  0  0  0
   46.3681    3.0922   17.4127 O   0  0  0  0  0  0  0  0  0  0  0  0
   47.4929    8.3269   22.6352 C   0  0  0  0  0  0  0  0  0  0  0  0
   49.8125    8.6979   23.4886 C   0  0  0  0  0  0  0  0  0  0  0  0
   49.1810    9.4425   21.1626 C   0  0  0  0  0  0  0  0  0  0  0  0
   50.4284    4.6540   18.5527 O   0  0  0  0  0  0  0  0  0  0  0  0
   51.1888    5.6369   20.4039 O   0  0  0  0  0  0  0  0  0  0  0  0
   49.3325    8.5654   21.3718 O   0  0  0  0  0  0  0  0  0  0  0  0
   49.1414    6.7756   22.6997 O   0  0  0  0  0  0  0  0  0  0  0  0
   47.9171    4.5378   19.2786 O   0  0  0  0  0  0  0  0  0  0  0  0
   48.4755    7.3832   19.1752 O   0  0  0  0  0  0  0  0  0  0  0  0
   50.2400    5.1987   19.7754 C   0  0  0  0  0  0  0  0  0  0  0  0
   48.7755    5.2074   20.2127 C   0  0  1  0  0  0  0  0  0  0  0  0
   48.2953    6.6478   20.3920 C   0  0  1  0  0  0  0  0  0  0  0  0
   48.9663    7.2828   21.6062 C   0  0  0  0  0  0  0  0  0  0  0  0
   48.1245    4.9566   19.3709 H   0  0  0  0  0  0  0  0  0  0  0  0
   50.4152    8.0033   22.0118 H   0  0  0  0  0  0  0  0  0  0  0  0
   52.4169    4.5161   19.4886 H   0  0  0  0  0  0  0  0  0  0  0  0
   52.2987    2.8454   17.7078 H   0  0  0  0  0  0  0  0  0  0  0  0
   48.7478    7.2162   20.2561 H   0  0  0  0  0  0  0  0  0  0  0  0
   48.4183    5.9504   21.4806 H   0  0  0  0  0  0  0  0  0  0  0  0
   50.8848    5.4175   21.5262 H   0  0  0  0  0  0  0  0  0  0  0  0
   50.9945    1.8611   16.2001 H   0  0  0  0  0  0  0  0  0  0  0  0
   46.9847    2.7765   18.1911 H   0  0  0  0  0  0  0  0  0  0  0  0
   47.7068    2.3919   16.6342 H   0  0  0  0  0  0  0  0  0  0  0  0
   51.2535    7.0258   19.2605 H   0  0  0  0  0  0  0  0  0  0  0  0
   46.9799    5.0207   17.4231 H   0  0  0  0  0  0  0  0  0  0  0  0
   49.9199    9.7202   23.7909 H   0  0  0  0  0  0  0  0  0  0  0  0
   48.8253    8.5882   24.5897 H   0  0  0  0  0  0  0  0  0  0  0  0
   48.2273   10.1575   24.0417 H   0  0  0  0  0  0  0  0  0  0  0  0
   46.9214    7.4749   23.2336 H   0  0  0  0  0  0  0  0  0  0  0  0
   46.7304    7.8507   21.5088 H   0  0  0  0  0  0  0  0  0  0  0  0
   46.4051    9.0830   22.7242 H   0  0  0  0  0  0  0  0  0  0  0  0
   49.7280   10.1872   21.3106 H   0  0  0  0  0  0  0  0  0  0  0  0
   48.0416   10.6607   21.5419 H   0  0  0  0  0  0  0  0  0  0  0  0
   48.4522    9.4425   20.3405 H   0  0  0  0  0  0  0  0  0  0  0  0
   49.1108    3.4406   20.1108 H   0  0  0  0  0  0  0  0  0  0  0  0
   48.7016    6.8252   20.9036 H   0  0  0  0  0  0  0  0  0  0  0  0
   51.0638    6.8812   18.3949 H   0  0  0  0  0  0  0  0  0  0  0  0
   49.8431    6.5301   16.3042 H   0  0  0  0  0  0  0  0  0  0  0  0
   51.3169    6.7988   22.2835 H   0  0  0  0  0  0  0  0  0  0  0  0
   51.0905    7.5257   20.6995 H   0  0  0  0  0  0  0  0  0  0  0  0
   50.5786    4.5972   21.4432 H   0  0  0  0  0  0  0  0  0  0  0  0
   48.5142    5.1227   15.1510 H   0  0  0  0  0  0  0  0  0  0  0  0
   48.0773    1.9642   17.3376 H   0  0  0  0  0  0  0  0  0  0  0  0
   47.4247    2.2817   18.9492 H   0  0  0  0  0  0  0  0  0  0  0  0
   52.5476    5.4583   19.6466 H   0  0  0  0  0  0  0  0  0  0  0  0
   46.5831    3.6974   16.6745 H   0  0  0  0  0  0  0  0  0  0  0  0
   46.8511    8.1098   21.7725 H   0  0  0  0  0  0  0  0  0  0  0  0
   47.1693    9.2916   23.0442 H   0  0  0  0  0  0  0  0  0  0  0  0
   47.3007    7.5635   23.3988 H   0  0  0  0  0  0  0  0  0  0  0  0
   49.7159    7.9222   24.2599 H   0  0  0  0  0  0  0  0  0  0  0  0
   50.8784    8.8111   23.2556 H   0  0  0  0  0  0  0  0  0  0  0  0
   49.4832    9.6471   23.9266 H   0  0  0  0  0  0  0  0  0  0  0  0
   48.8072   10.4089   21.5227 H   0  0  0  0  0  0  0  0  0  0  0  0
   50.2399    9.5786   20.9037 H   0  0  0  0  0  0  0  0  0  0  0  0
   48.6333    9.1984   20.2435 H   0  0  0  0  0  0  0  0  0  0  0  0
   51.3950    4.7103   18.4039 H   0  0  0  0  0  0  0  0  0  0  0  0
   49.7771    8.8388   22.2039 H   0  0  0  0  0  0  0  0  0  0  0  0
   48.1643    4.8985   18.4029 H   0  0  0  0  0  0  0  0  0  0  0  0
   48.5292    8.3235   19.4413 H   0  0  0  0  0  0  0  0  0  0  0  0
   48.7145    4.6408   21.1469 H   0  0  0  0  0  0  0  0  0  0  0  0
   47.2155    6.6617   20.5859 H   0  0  0  0  0  0  0  0  0  0  0  0
 10  3  1  0
 11  4  1  0
 12  1  1  0
 10 13  1  0
 14 12  1  0
 15  7  1  0
 16  7  1  0
 17  7  1  0
  6  8  1  0
  2  1  2  0
  3  2  1  0
  4  1  1  0
  5  9  1  0
  6  3  2  0
  7  5  1  0
  8  4  2  0
  9 10  1  0
 27 20  1  0
 28 21  1  0
 29 18  1  0
 27 30  1  0
 31 29  1  0
 32 24  1  0
 33 24  1  0
 34 24  1  0
 23 25  1  0
 19 18  2  0
 20 19  1  0
 21 18  1  0
 22 26  1  0
 23 20  2  0
 24 22  1  0
 25 21  2  0
 26 27  1  0
 41 36  2  0
 42 39  1  0
 43 40  1  0
 41 35  1  0
 43 44  1  0
 42 43  1  0
 44 37  1  0
 41 42  1  0
 44 38  2  0
  2 45  1  0
  5 46  1  0
  6 47  1  0
  8 48  1  0
  9 49  1  0
  9 50  1  0
 10 51  1  6
 11 52  1  0
 12 53  1  0
 12 54  1  0
 13 55  1  0
 14 56  1  0
 15 57  1  0
 15 58  1  0
 15 59  1  0
 16 60  1  0
 16 61  1  0
 16 62  1  0
 17 63  1  0
 17 64  1  0
 17 65  1  0
 19 66  1  0
 22 67  1  0
 23 68  1  0
 25 69  1  0
 26 70  1  0
 26 71  1  0
 27 72  1  6
 28 73  1  0
 29 74  1  0
 29 75  1  0
 30 76  1  0
 31 77  1  0
 32 78  1  0
 32 79  1  0
 32 80  1  0
 33 81  1  0
 33 82  1  0
 33 83  1  0
 34 84  1  0
 34 85  1  0
 34 86  1  0
 35 87  1  0
 37 88  1  0
 39 89  1  0
 40 90  1  0
 42 91  1  6
 43 92  1  6
M  END
> <Uni-Dock RESULT> 
ENERGY=   -5.510  LOWER_BOUND=    6.116  UPPER_BOUND=    9.360
INTER + INTRA:          -5.510
INTER:                  -5.510
INTRA:                   0.000
UNBOUND:                 0.000

$$$$

     RDKit          3D

 92 91  0  0  0  0  0  0  0  0999 V2000
   47.8226    7.1063   21.3083 C   0  0  0  0  0  0  0  0  0  0  0  0
   47.9721    7.5725   19.9842 C   0  0  0  0  0  0  0  0  0  0  0  0
   47.7812    8.9248   19.6585 C   0  0  0  0  0  0  0  0  0  0  0  0
   47.4584    8.0190   22.3013 C   0  0  0  0  0  0  0  0  0  0  0  0
   48.5331    9.2232   15.8609 N   0  0  0  0  0  0  0  0  0  0  0  0
   47.4011    9.8051   20.6868 C   0  0  0  0  0  0  0  0  0  0  0  0
   49.4187    8.6336   14.8465 C   0  0  0  0  0  0  0  0  0  0  0  0
   47.2404    9.3599   21.9984 C   0  0  0  0  0  0  0  0  0  0  0  0
   48.4541    8.5239   17.1542 C   0  0  0  0  0  0  0  0  0  0  0  0
   47.9389    9.4896   18.2572 C   0  0  2  0  0  0  0  0  0  0  0  0
   47.2992    7.5903   23.5858 O   0  0  0  0  0  0  0  0  0  0  0  0
   48.0317    5.6445   21.6271 C   0  0  0  0  0  0  0  0  0  0  0  0
   48.8649   10.5945   18.3112 O   0  0  0  0  0  0  0  0  0  0  0  0
   49.3624    5.2259   21.3395 O   0  0  0  0  0  0  0  0  0  0  0  0
   49.0591    9.3218   13.5163 C   0  0  0  0  0  0  0  0  0  0  0  0
   49.2147    7.1207   14.6809 C   0  0  0  0  0  0  0  0  0  0  0  0
   50.8939    8.9358   15.1690 C   0  0  0  0  0  0  0  0  0  0  0  0
   48.0877    6.8235   20.9237 C   0  0  0  0  0  0  0  0  0  0  0  0
   47.4621    7.7186   20.0426 C   0  0  0  0  0  0  0  0  0  0  0  0
   48.1090    8.8837   19.5900 C   0  0  0  0  0  0  0  0  0  0  0  0
   49.3773    7.1321   21.3687 C   0  0  0  0  0  0  0  0  0  0  0  0
   48.3595    8.8226   16.5256 N   0  0  0  0  0  0  0  0  0  0  0  0
   49.4078    9.1499   20.0444 C   0  0  0  0  0  0  0  0  0  0  0  0
   49.1718    8.9480   15.3022 C   0  0  0  0  0  0  0  0  0  0  0  0
   50.0402    8.2779   20.9323 C   0  0  0  0  0  0  0  0  0  0  0  0
   48.1531   10.0526   17.2986 C   0  0  0  0  0  0  0  0  0  0  0  0
   47.3827    9.8063   18.6239 C   0  0  2  0  0  0  0  0  0  0  0  0
   49.9937    6.2697   22.2336 O   0  0  0  0  0  0  0  0  0  0  0  0
   47.3416    5.6060   21.4035 C   0  0  0  0  0  0  0  0  0  0  0  0
   47.1197   11.0620   19.2571 O   0  0  0  0  0  0  0  0  0  0  0  0
   48.1308    4.4271   21.3312 O   0  0  0  0  0  0  0  0  0  0  0  0
   49.1213    7.5664   14.6151 C   0  0  0  0  0  0  0  0  0  0  0  0
   48.5986    9.9940   14.3315 C   0  0  0  0  0  0  0  0  0  0  0  0
   50.6383    9.2776   15.6316 C   0  0  0  0  0  0  0  0  0  0  0  0
   48.1528    8.8687   20.6268 O   0  0  0  0  0  0  0  0  0  0  0  0
   47.7550   10.0984   18.8100 O   0  0  0  0  0  0  0  0  0  0  0  0
   49.7930    9.2201   15.9757 O   0  0  0  0  0  0  0  0  0  0  0  0
   47.6127    8.7439   15.8260 O   0  0  0  0  0  0  0  0  0  0  0  0
   47.9854    6.5339   19.4575 O   0  0  0  0  0  0  0  0  0  0  0  0
   50.2461    7.8001   18.1518 O   0  0  0  0  0  0  0  0  0  0  0  0
   47.9022    8.9933   19.3044 C   0  0  0  0  0  0  0  0  0  0  0  0
   47.8577    7.6537   18.5700 C   0  0  1  0  0  0  0  0  0  0  0  0
   48.9731    7.5961   17.5259 C   0  0  1  0  0  0  0  0  0  0  0  0
   48.6805    8.5647   16.3840 C   0  0  0  0  0  0  0  0  0  0  0  0
   48.2381    6.8541   19.2115 H   0  0  0  0  0  0  0  0  0  0  0  0
   48.8197   10.1924   16.0457 H   0  0  0  0  0  0  0  0  0  0  0  0
   47.2206   10.8572   20.4656 H   0  0  0  0  0  0  0  0  0  0  0  0
   46.9375   10.0704   22.7627 H   0  0  0  0  0  0  0  0  0  0  0  0
   49.4445    8.1597   17.4457 H   0  0  0  0  0  0  0  0  0  0  0  0
   47.7631    7.6749   17.0607 H   0  0  0  0  0  0  0  0  0  0  0  0
   46.9674    9.8988   17.9498 H   0  0  0  0  0  0  0  0  0  0  0  0
   47.2095    8.3659   24.1642 H   0  0  0  0  0  0  0  0  0  0  0  0
   47.3387    5.0368   21.0368 H   0  0  0  0  0  0  0  0  0  0  0  0
   47.8380    5.4200   22.6791 H   0  0  0  0  0  0  0  0  0  0  0  0
   49.5244   10.3731   18.9951 H   0  0  0  0  0  0  0  0  0  0  0  0
   49.5837    5.5190   20.4421 H   0  0  0  0  0  0  0  0  0  0  0  0
   49.2259   10.4047   13.5662 H   0  0  0  0  0  0  0  0  0  0  0  0
   48.0061    9.1673   13.2524 H   0  0  0  0  0  0  0  0  0  0  0  0
   49.6649    8.9347   12.6914 H   0  0  0  0  0  0  0  0  0  0  0  0
   48.1697    6.8759   14.4466 H   0  0  0  0  0  0  0  0  0  0  0  0
   49.5024    6.5636   15.5774 H   0  0  0  0  0  0  0  0  0  0  0  0
   49.8257    6.7367   13.8548 H   0  0  0  0  0  0  0  0  0  0  0  0
   51.0722   10.0153   15.2533 H   0  0  0  0  0  0  0  0  0  0  0  0
   51.5507    8.5582   14.3763 H   0  0  0  0  0  0  0  0  0  0  0  0
   51.2187    8.4721   16.1020 H   0  0  0  0  0  0  0  0  0  0  0  0
   46.4561    7.4974   19.6904 H   0  0  0  0  0  0  0  0  0  0  0  0
   48.7605    8.0987   17.1253 H   0  0  0  0  0  0  0  0  0  0  0  0
   49.9395   10.0392   19.7178 H   0  0  0  0  0  0  0  0  0  0  0  0
   51.0466    8.5034   21.2670 H   0  0  0  0  0  0  0  0  0  0  0  0
   47.5717   10.7744   16.7103 H   0  0  0  0  0  0  0  0  0  0  0  0
   49.1084   10.5389   17.5299 H   0  0  0  0  0  0  0  0  0  0  0  0
   46.4016    9.3801   18.3790 H   0  0  0  0  0  0  0  0  0  0  0  0
   50.7767    6.7115   22.6059 H   0  0  0  0  0  0  0  0  0  0  0  0
   47.0342    5.7551   22.4416 H   0  0  0  0  0  0  0  0  0  0  0  0
   46.4395    5.4279   20.8096 H   0  0  0  0  0  0  0  0  0  0  0  0
   47.8647   11.2502   19.8650 H   0  0  0  0  0  0  0  0  0  0  0  0
   49.0158    4.6935   21.6525 H   0  0  0  0  0  0  0  0  0  0  0  0
   49.5394    6.7818   15.2576 H   0  0  0  0  0  0  0  0  0  0  0  0
   49.7000    7.5642   13.6837 H   0  0  0  0  0  0  0  0  0  0  0  0
   48.0917    7.2836   14.3645 H   0  0  0  0  0  0  0  0  0  0  0  0
   47.5414    9.8003   14.1061 H   0  0  0  0  0  0  0  0  0  0  0  0
   48.6770   11.0116   14.7333 H   0  0  0  0  0  0  0  0  0  0  0  0
   49.1490    9.9861   13.3837 H   0  0  0  0  0  0  0  0  0  0  0  0
   51.2540    9.2214   14.7254 H   0  0  0  0  0  0  0  0  0  0  0  0
   50.7511   10.2912   16.0399 H   0  0  0  0  0  0  0  0  0  0  0  0
   51.0546    8.5684   16.3582 H   0  0  0  0  0  0  0  0  0  0  0  0
   48.1503    9.7877   20.9660 H   0  0  0  0  0  0  0  0  0  0  0  0
   49.4652    9.8270   15.2764 H   0  0  0  0  0  0  0  0  0  0  0  0
   48.7503    6.7487   20.0291 H   0  0  0  0  0  0  0  0  0  0  0  0
   50.8363    8.1332   17.4457 H   0  0  0  0  0  0  0  0  0  0  0  0
   46.8680    7.5705   18.1106 H   0  0  0  0  0  0  0  0  0  0  0  0
   49.0211    6.5933   17.0835 H   0  0  0  0  0  0  0  0  0  0  0  0
 10  3  1  0
 11  4  1  0
 12  1  1  0
 10 13  1  0
 14 12  1  0
 15  7  1  0
 16  7  1  0
 17  7  1  0
  6  8  1  0
  2  1  2  0
  3  2  1  0
  4  1  1  0
  5  9  1  0
  6  3  2  0
  7  5  1  0
  8  4  2  0
  9 10  1  0
 27 20  1  0
 28 21  1  0
 29 18  1  0
 27 30  1  0
 31 29  1  0
 32 24  1  0
 33 24  1  0
 34 24  1  0
 23 25  1  0
 19 18  2  0
 20 19  1  0
 21 18  1  0
 22 26  1  0
 23 20  2  0
 24 22  1  0
 25 21  2  0
 26 27  1  0
 41 36  2  0
 42 39  1  0
 43 40  1  0
 41 35  1  0
 43 44  1  0
 42 43  1  0
 44 37  1  0
 41 42  1  0
 44 38  2  0
  2 45  1  0
  5 46  1  0
  6 47  1  0
  8 48  1  0
  9 49  1  0
  9 50  1  0
 10 51  1  6
 11 52  1  0
 12 53  1  0
 12 54  1  0
 13 55  1  0
 14 56  1  0
 15 57  1  0
 15 58  1  0
 15 59  1  0
 16 60  1  0
 16 61  1  0
 16 62  1  0
 17 63  1  0
 17 64  1  0
 17 65  1  0
 19 66  1  0
 22 67  1  0
 23 68  1  0
 25 69  1  0
 26 70  1  0
 26 71  1  0
 27 72  1  6
 28 73  1  0
 29 74  1  0
 29 75  1  0
 30 76  1  0
 31 77  1  0
 32 78  1  0
 32 79  1  0
 32 80  1  0
 33 81  1  0
 33 82  1  0
 33 83  1  0
 34 84  1  0
 34 85  1  0
 34 86  1  0
 35 87  1  0
 37 88  1  0
 39 89  1  0
 40 90  1  0
 42 91  1  6
 43 92  1  6
M  END
> <Uni-Dock RESULT> 
ENERGY=   -5.502  LOWER_BOUND=    4.658  UPPER_BOUND=    7.161
INTER + INTRA:          -5.502
INTER:                  -5.502
INTRA:                   0.000
UNBOUND:                 0.000

$$$$

     RDKit          3D

 92 91  0  0  0  0  0  0  0  0999 V2000
   47.7301   10.1967   20.9970 C   0  0  0  0  0  0  0  0  0  0  0  0
   47.9156    9.8369   19.6445 C   0  0  0  0  0  0  0  0  0  0  0  0
   48.1244   10.8069   18.6512 C   0  0  0  0  0  0  0  0  0  0  0  0
   47.7384   11.5521   21.3354 C   0  0  0  0  0  0  0  0  0  0  0  0
   48.6451    8.8471   15.3400 N   0  0  0  0  0  0  0  0  0  0  0  0
   48.1103   12.1595   19.0348 C   0  0  0  0  0  0  0  0  0  0  0  0
   49.2289    7.5831   14.8686 C   0  0  0  0  0  0  0  0  0  0  0  0
   47.9195   12.5330   20.3646 C   0  0  0  0  0  0  0  0  0  0  0  0
   48.4527    8.9833   16.7934 C   0  0  0  0  0  0  0  0  0  0  0  0
   48.3421   10.4834   17.1831 C   0  0  2  0  0  0  0  0  0  0  0  0
   47.5521   11.9243   22.6338 O   0  0  0  0  0  0  0  0  0  0  0  0
   47.5045    9.1301   22.0427 C   0  0  0  0  0  0  0  0  0  0  0  0
   49.5634   11.1185   16.7514 O   0  0  0  0  0  0  0  0  0  0  0  0
   48.6176    8.2473   22.1460 O   0  0  0  0  0  0  0  0  0  0  0  0
   48.9990    7.5502   13.3460 C   0  0  0  0  0  0  0  0  0  0  0  0
   48.5595    6.3474   15.4873 C   0  0  0  0  0  0  0  0  0  0  0  0
   50.7456    7.5509   15.1338 C   0  0  0  0  0  0  0  0  0  0  0  0
   47.8662    9.6913   20.8418 C   0  0  0  0  0  0  0  0  0  0  0  0
   47.4808   10.1369   19.5683 C   0  0  0  0  0  0  0  0  0  0  0  0
   48.4177   10.6403   18.6466 C   0  0  0  0  0  0  0  0  0  0  0  0
   49.2178    9.7834   21.1894 C   0  0  0  0  0  0  0  0  0  0  0  0
   48.4073    8.9240   16.0950 N   0  0  0  0  0  0  0  0  0  0  0  0
   49.7658   10.7007   19.0251 C   0  0  0  0  0  0  0  0  0  0  0  0
   49.1251    8.1454   15.0698 C   0  0  0  0  0  0  0  0  0  0  0  0
   50.1653   10.2751   20.2931 C   0  0  0  0  0  0  0  0  0  0  0  0
   48.6461   10.3717   16.0982 C   0  0  0  0  0  0  0  0  0  0  0  0
   47.9388   11.0939   17.2766 C   0  0  2  0  0  0  0  0  0  0  0  0
   49.6034    9.3583   22.4314 O   0  0  0  0  0  0  0  0  0  0  0  0
   46.8212    9.1896   21.8038 C   0  0  0  0  0  0  0  0  0  0  0  0
   48.1212   12.5066   17.1420 O   0  0  0  0  0  0  0  0  0  0  0  0
   47.2035    7.9724   22.4284 O   0  0  0  0  0  0  0  0  0  0  0  0
   48.6025    6.6979   15.1923 C   0  0  0  0  0  0  0  0  0  0  0  0
   48.8289    8.6495   13.6475 C   0  0  0  0  0  0  0  0  0  0  0  0
   50.6423    8.1414   15.3258 C   0  0  0  0  0  0  0  0  0  0  0  0
   48.5323   11.1540   19.5411 O   0  0  0  0  0  0  0  0  0  0  0  0
   48.3955   11.3130   17.3214 O   0  0  0  0  0  0  0  0  0  0  0  0
   49.8484    8.5272   15.5644 O   0  0  0  0  0  0  0  0  0  0  0  0
   47.6222    8.7209   15.4660 O   0  0  0  0  0  0  0  0  0  0  0  0
   47.5707    8.7281   19.7331 O   0  0  0  0  0  0  0  0  0  0  0  0
   50.0062    8.3862   18.1935 O   0  0  0  0  0  0  0  0  0  0  0  0
   48.2337   10.6415   18.3265 C   0  0  0  0  0  0  0  0  0  0  0  0
   47.7261    9.2011   18.3877 C   0  0  1  0  0  0  0  0  0  0  0  0
   48.6888    8.2787   17.6396 C   0  0  1  0  0  0  0  0  0  0  0  0
   48.6224    8.5479   16.1394 C   0  0  0  0  0  0  0  0  0  0  0  0
   47.8901    8.7809   19.3837 H   0  0  0  0  0  0  0  0  0  0  0  0
   49.2277    9.6329   15.0261 H   0  0  0  0  0  0  0  0  0  0  0  0
   48.2448   12.9405   18.2861 H   0  0  0  0  0  0  0  0  0  0  0  0
   47.9070   13.5894   20.6188 H   0  0  0  0  0  0  0  0  0  0  0  0
   49.3028    8.5469   17.3276 H   0  0  0  0  0  0  0  0  0  0  0  0
   47.5299    8.4621   17.0829 H   0  0  0  0  0  0  0  0  0  0  0  0
   47.5226   10.9420   16.6140 H   0  0  0  0  0  0  0  0  0  0  0  0
   47.7479   12.8724   22.7173 H   0  0  0  0  0  0  0  0  0  0  0  0
   46.6166    8.5444   21.7849 H   0  0  0  0  0  0  0  0  0  0  0  0
   47.3307    9.5550   23.0346 H   0  0  0  0  0  0  0  0  0  0  0  0
   50.1726   11.0994   17.5130 H   0  0  0  0  0  0  0  0  0  0  0  0
   48.8503    7.9492   21.2531 H   0  0  0  0  0  0  0  0  0  0  0  0
   49.4927    8.3927   12.8467 H   0  0  0  0  0  0  0  0  0  0  0  0
   47.9326    7.6045   13.0964 H   0  0  0  0  0  0  0  0  0  0  0  0
   49.3935    6.6303   12.9036 H   0  0  0  0  0  0  0  0  0  0  0  0
   47.4753    6.3425   15.3104 H   0  0  0  0  0  0  0  0  0  0  0  0
   48.7290    6.2814   16.5662 H   0  0  0  0  0  0  0  0  0  0  0  0
   48.9599    5.4279   15.0430 H   0  0  0  0  0  0  0  0  0  0  0  0
   51.2518    8.4053   14.6666 H   0  0  0  0  0  0  0  0  0  0  0  0
   51.1938    6.6402   14.7190 H   0  0  0  0  0  0  0  0  0  0  0  0
   50.9816    7.5676   16.1991 H   0  0  0  0  0  0  0  0  0  0  0  0
   46.4320   10.0779   19.2827 H   0  0  0  0  0  0  0  0  0  0  0  0
   48.6110    8.5363   17.0184 H   0  0  0  0  0  0  0  0  0  0  0  0
   50.5183   11.0835   18.3414 H   0  0  0  0  0  0  0  0  0  0  0  0
   51.2145   10.3283   20.5617 H   0  0  0  0  0  0  0  0  0  0  0  0
   48.2715   10.8176   15.1677 H   0  0  0  0  0  0  0  0  0  0  0  0
   49.7190   10.5951   16.1392 H   0  0  0  0  0  0  0  0  0  0  0  0
   46.8588   10.9192   17.1905 H   0  0  0  0  0  0  0  0  0  0  0  0
   50.5096    9.6709   22.5982 H   0  0  0  0  0  0  0  0  0  0  0  0
   46.6528    9.9404   22.5799 H   0  0  0  0  0  0  0  0  0  0  0  0
   45.8661    9.0084   21.3005 H   0  0  0  0  0  0  0  0  0  0  0  0
   48.9314   12.7501   17.6364 H   0  0  0  0  0  0  0  0  0  0  0  0
   48.1490    8.0877   22.6524 H   0  0  0  0  0  0  0  0  0  0  0  0
   48.8070    6.2787   16.1852 H   0  0  0  0  0  0  0  0  0  0  0  0
   49.0813    6.0389   14.4582 H   0  0  0  0  0  0  0  0  0  0  0  0
   47.5200    6.6495   15.0226 H   0  0  0  0  0  0  0  0  0  0  0  0
   47.7495    8.6938   13.4505 H   0  0  0  0  0  0  0  0  0  0  0  0
   49.2451    9.6492   13.4725 H   0  0  0  0  0  0  0  0  0  0  0  0
   49.2778    7.9859   12.8995 H   0  0  0  0  0  0  0  0  0  0  0  0
   51.1416    7.4412   14.6447 H   0  0  0  0  0  0  0  0  0  0  0  0
   51.0905    9.1309   15.1620 H   0  0  0  0  0  0  0  0  0  0  0  0
   50.8746    7.8269   16.3512 H   0  0  0  0  0  0  0  0  0  0  0  0
   48.8368   12.0665   19.3558 H   0  0  0  0  0  0  0  0  0  0  0  0
   49.6709    8.7475   14.6238 H   0  0  0  0  0  0  0  0  0  0  0  0
   48.4052    8.9681   20.1848 H   0  0  0  0  0  0  0  0  0  0  0  0
   50.6155    8.1092   17.4795 H   0  0  0  0  0  0  0  0  0  0  0  0
   46.7270    9.1920   17.9414 H   0  0  0  0  0  0  0  0  0  0  0  0
   48.3941    7.2319   17.7849 H   0  0  0  0  0  0  0  0  0  0  0  0
 10  3  1  0
 11  4  1  0
 12  1  1  0
 10 13  1  0
 14 12  1  0
 15  7  1  0
 16  7  1  0
 17  7  1  0
  6  8  1  0
  2  1  2  0
  3  2  1  0
  4  1  1  0
  5  9  1  0
  6  3  2  0
  7  5  1  0
  8  4  2  0
  9 10  1  0
 27 20  1  0
 28 21  1  0
 29 18  1  0
 27 30  1  0
 31 29  1  0
 32 24  1  0
 33 24  1  0
 34 24  1  0
 23 25  1  0
 19 18  2  0
 20 19  1  0
 21 18  1  0
 22 26  1  0
 23 20  2  0
 24 22  1  0
 25 21  2  0
 26 27  1  0
 41 36  2  0
 42 39  1  0
 43 40  1  0
 41 35  1  0
 43 44  1  0
 42 43  1  0
 44 37  1  0
 41 42  1  0
 44 38  2  0
  2 45  1  0
  5 46  1  0
  6 47  1  0
  8 48  1  0
  9 49  1  0
  9 50  1  0
 10 51  1  6
 11 52  1  0
 12 53  1  0
 12 54  1  0
 13 55  1  0
 14 56  1  0
 15 57  1  0
 15 58  1  0
 15 59  1  0
 16 60  1  0
 16 61  1  0
 16 62  1  0
 17 63  1  0
 17 64  1  0
 17 65  1  0
 19 66  1  0
 22 67  1  0
 23 68  1  0
 25 69  1  0
 26 70  1  0
 26 71  1  0
 27 72  1  6
 28 73  1  0
 29 74  1  0
 29 75  1  0
 30 76  1  0
 31 77  1  0
 32 78  1  0
 32 79  1  0
 32 80  1  0
 33 81  1  0
 33 82  1  0
 33 83  1  0
 34 84  1  0
 34 85  1  0
 34 86  1  0
 35 87  1  0
 37 88  1  0
 39 89  1  0
 40 90  1  0
 42 91  1  6
 43 92  1  6
M  END
> <Uni-Dock RESULT> 
ENERGY=   -5.276  LOWER_BOUND=    4.496  UPPER_BOUND=    6.667
INTER + INTRA:          -5.276
INTER:                  -5.276
INTRA:                   0.000
UNBOUND:                 0.000

$$$$
