
     RDKit          3D

109114  0  0  0  0  0  0  0  0999 V2000
    5.1629   -1.7812   -1.2917 O   0  0  0  0  0  0  0  0  0  0  0  0
    4.6578   -1.3267   -0.0188 C   0  0  2  0  0  0  0  0  0  0  0  0
    3.4112   -0.4670   -0.2766 C   0  0  0  0  0  0  0  0  0  0  0  0
    2.2943   -1.2555   -0.9760 C   0  0  2  0  0  0  0  0  0  0  0  0
    2.6857   -1.6283   -2.2967 O   0  0  0  0  0  0  0  0  0  0  0  0
    1.0652   -0.4075   -1.1180 C   0  0  0  0  0  0  0  0  0  0  0  0
   -0.1492   -0.7565   -0.6642 C   0  0  0  0  0  0  0  0  0  0  0  0
   -1.3266    0.1355   -0.7242 C   0  0  0  0  0  0  0  0  0  0  0  0
   -1.8295    0.6080   -1.9505 C   0  0  0  0  0  0  0  0  0  0  0  0
   -2.9076    1.4366   -1.9973 N   0  0  0  0  0  0  0  0  0  0  0  0
   -3.5178    1.8110   -0.8659 C   0  0  0  0  0  0  0  0  0  0  0  0
   -4.6083    2.6611   -0.9755 C   0  0  0  0  0  0  0  0  0  0  0  0
   -5.3149    3.1107    0.1407 C   0  0  0  0  0  0  0  0  0  0  0  0
   -4.9219    2.7060    1.4056 C   0  0  0  0  0  0  0  0  0  0  0  0
   -3.8302    1.8514    1.5398 C   0  0  0  0  0  0  0  0  0  0  0  0
   -3.1091    1.3820    0.4094 C   0  0  0  0  0  0  0  0  0  0  0  0
   -1.9880    0.5085    0.4764 C   0  0  0  0  0  0  0  0  0  0  0  0
   -1.5254   -0.0121    1.7843 C   0  0  0  0  0  0  0  0  0  0  0  0
   -0.3914    0.5223    2.4211 C   0  0  0  0  0  0  0  0  0  0  0  0
    0.0396    0.0153    3.6499 C   0  0  0  0  0  0  0  0  0  0  0  0
   -0.6641   -1.0224    4.2501 C   0  0  0  0  0  0  0  0  0  0  0  0
   -0.2589   -1.5072    5.4309 F   0  0  0  0  0  0  0  0  0  0  0  0
   -1.7837   -1.5735    3.6394 C   0  0  0  0  0  0  0  0  0  0  0  0
   -2.2115   -1.0710    2.4099 C   0  0  0  0  0  0  0  0  0  0  0  0
   -1.2112    0.2389   -3.2897 C   0  0  0  0  0  0  0  0  0  0  0  0
   -2.0997   -0.0938   -4.4689 C   0  0  0  0  0  0  0  0  0  0  0  0
   -1.3017   -1.1784   -3.8111 C   0  0  0  0  0  0  0  0  0  0  0  0
    5.7648   -0.5603    0.6924 C   0  0  0  0  0  0  0  0  0  0  0  0
    5.3064   -0.0775    2.0603 C   0  0  0  0  0  0  0  0  0  0  0  0
    5.5243    1.1447    2.2817 O   0  0  0  0  0  0  0  0  0  0  0  0
    4.7561   -0.9432    2.7927 O   0  0  0  0  0  0  0  0  0  0  0  0
    0.0000    0.0000    0.0000 Mg  0  0  0  0  0 15  0  0  0  0  0  0
    4.5248   -0.3515   -2.7656 O   0  0  0  0  0  0  0  0  0  0  0  0
    4.7610   -0.1696   -1.3540 C   0  0  2  0  0  0  0  0  0  0  0  0
    3.4346    0.2561   -0.7108 C   0  0  0  0  0  0  0  0  0  0  0  0
    2.3561   -0.8325   -0.8250 C   0  0  2  0  0  0  0  0  0  0  0  0
    2.0219   -1.0896   -2.1881 O   0  0  0  0  0  0  0  0  0  0  0  0
    1.1193   -0.3991   -0.0795 C   0  0  0  0  0  0  0  0  0  0  0  0
   -0.0803   -0.1453   -0.6238 C   0  0  0  0  0  0  0  0  0  0  0  0
   -1.2113    0.3757    0.1631 C   0  0  0  0  0  0  0  0  0  0  0  0
   -1.2731    1.7462    0.4659 C   0  0  0  0  0  0  0  0  0  0  0  0
   -2.3075    2.2657    1.1785 N   0  0  0  0  0  0  0  0  0  0  0  0
   -3.2904    1.4673    1.6115 C   0  0  0  0  0  0  0  0  0  0  0  0
   -4.3160    2.0513    2.3445 C   0  0  0  0  0  0  0  0  0  0  0  0
   -5.3926    1.3120    2.8349 C   0  0  0  0  0  0  0  0  0  0  0  0
   -5.4462   -0.0516    2.5934 C   0  0  0  0  0  0  0  0  0  0  0  0
   -4.4214   -0.6611    1.8700 C   0  0  0  0  0  0  0  0  0  0  0  0
   -3.3233    0.0835    1.3630 C   0  0  0  0  0  0  0  0  0  0  0  0
   -2.2456   -0.4737    0.6167 C   0  0  0  0  0  0  0  0  0  0  0  0
   -2.2032   -1.9192    0.3197 C   0  0  0  0  0  0  0  0  0  0  0  0
   -2.7819   -2.4245   -0.8584 C   0  0  0  0  0  0  0  0  0  0  0  0
   -2.7545   -3.7933   -1.1292 C   0  0  0  0  0  0  0  0  0  0  0  0
   -2.1505   -4.6573   -0.2237 C   0  0  0  0  0  0  0  0  0  0  0  0
   -2.1287   -5.9717   -0.4815 F   0  0  0  0  0  0  0  0  0  0  0  0
   -1.5657   -4.1812    0.9445 C   0  0  0  0  0  0  0  0  0  0  0  0
   -1.5890   -2.8121    1.2162 C   0  0  0  0  0  0  0  0  0  0  0  0
   -0.1808    2.7154    0.0502 C   0  0  0  0  0  0  0  0  0  0  0  0
   -0.0356    3.1146   -1.4003 C   0  0  0  0  0  0  0  0  0  0  0  0
   -0.5222    4.1162   -0.4007 C   0  0  0  0  0  0  0  0  0  0  0  0
    5.8501    0.8766   -1.1630 C   0  0  0  0  0  0  0  0  0  0  0  0
    6.3796    0.9482    0.2672 C   0  0  0  0  0  0  0  0  0  0  0  0
    7.0166    2.0042    0.5359 O   0  0  0  0  0  0  0  0  0  0  0  0
    6.1452   -0.0519    0.9966 O   0  0  0  0  0  0  0  0  0  0  0  0
    5.7028   -1.0509   -1.6457 H   0  0  0  0  0  0  0  0  0  0  0  0
    4.3731   -2.2211    0.5465 H   0  0  0  0  0  0  0  0  0  0  0  0
    3.0327   -0.0666    0.6715 H   0  0  0  0  0  0  0  0  0  0  0  0
    3.6982    0.3833   -0.9129 H   0  0  0  0  0  0  0  0  0  0  0  0
    2.0700   -2.1730   -0.4221 H   0  0  0  0  0  0  0  0  0  0  0  0
    3.6120   -1.9384   -2.2043 H   0  0  0  0  0  0  0  0  0  0  0  0
    1.2195    0.5564   -1.5935 H   0  0  0  0  0  0  0  0  0  0  0  0
   -0.2990   -1.7097   -0.1668 H   0  0  0  0  0  0  0  0  0  0  0  0
   -4.9155    2.9841   -1.9673 H   0  0  0  0  0  0  0  0  0  0  0  0
   -6.1642    3.7733    0.0134 H   0  0  0  0  0  0  0  0  0  0  0  0
   -5.4568    3.0538    2.2844 H   0  0  0  0  0  0  0  0  0  0  0  0
   -3.5287    1.5601    2.5440 H   0  0  0  0  0  0  0  0  0  0  0  0
    0.1763    1.3261    1.9560 H   0  0  0  0  0  0  0  0  0  0  0  0
    0.9308    0.4136    4.1276 H   0  0  0  0  0  0  0  0  0  0  0  0
   -2.3063   -2.3948    4.1180 H   0  0  0  0  0  0  0  0  0  0  0  0
   -3.0816   -1.5128    1.9297 H   0  0  0  0  0  0  0  0  0  0  0  0
   -0.3013    0.7805   -3.5307 H   0  0  0  0  0  0  0  0  0  0  0  0
   -3.1726   -0.0815   -4.3143 H   0  0  0  0  0  0  0  0  0  0  0  0
   -1.7848    0.2508   -5.4472 H   0  0  0  0  0  0  0  0  0  0  0  0
   -0.4328   -1.5711   -4.3283 H   0  0  0  0  0  0  0  0  0  0  0  0
   -1.8279   -1.9177   -3.2187 H   0  0  0  0  0  0  0  0  0  0  0  0
    6.0957    0.2900    0.0791 H   0  0  0  0  0  0  0  0  0  0  0  0
    6.6428   -1.2046    0.8220 H   0  0  0  0  0  0  0  0  0  0  0  0
    5.4056   -0.3779   -3.1805 H   0  0  0  0  0  0  0  0  0  0  0  0
    5.0741   -1.1408   -0.9593 H   0  0  0  0  0  0  0  0  0  0  0  0
    3.5920    0.5077    0.3436 H   0  0  0  0  0  0  0  0  0  0  0  0
    3.0750    1.1621   -1.2216 H   0  0  0  0  0  0  0  0  0  0  0  0
    2.7166   -1.7697   -0.3909 H   0  0  0  0  0  0  0  0  0  0  0  0
    2.8424   -0.9085   -2.6964 H   0  0  0  0  0  0  0  0  0  0  0  0
    1.2639   -0.2593    0.9904 H   0  0  0  0  0  0  0  0  0  0  0  0
   -0.2497   -0.2754   -1.6869 H   0  0  0  0  0  0  0  0  0  0  0  0
   -4.2688    3.1215    2.5377 H   0  0  0  0  0  0  0  0  0  0  0  0
   -6.1763    1.8093    3.3998 H   0  0  0  0  0  0  0  0  0  0  0  0
   -6.2766   -0.6412    2.9677 H   0  0  0  0  0  0  0  0  0  0  0  0
   -4.4780   -1.7352    1.7045 H   0  0  0  0  0  0  0  0  0  0  0  0
   -3.2486   -1.7455   -1.5689 H   0  0  0  0  0  0  0  0  0  0  0  0
   -3.1915   -4.1857   -2.0409 H   0  0  0  0  0  0  0  0  0  0  0  0
   -1.0859   -4.8735    1.6273 H   0  0  0  0  0  0  0  0  0  0  0  0
   -1.1199   -2.4377    2.1244 H   0  0  0  0  0  0  0  0  0  0  0  0
    0.7435    2.6174    0.6152 H   0  0  0  0  0  0  0  0  0  0  0  0
    0.9754    3.2085   -1.7798 H   0  0  0  0  0  0  0  0  0  0  0  0
   -0.7493    2.7421   -2.1245 H   0  0  0  0  0  0  0  0  0  0  0  0
    0.1499    4.9161   -0.1157 H   0  0  0  0  0  0  0  0  0  0  0  0
   -1.5680    4.4001   -0.4241 H   0  0  0  0  0  0  0  0  0  0  0  0
    5.4819    1.8611   -1.4724 H   0  0  0  0  0  0  0  0  0  0  0  0
    6.7027    0.6566   -1.8167 H   0  0  0  0  0  0  0  0  0  0  0  0
  2  1  1  0
  2  3  1  0
  3  4  1  0
  4  5  1  0
  4  6  1  0
  6  7  2  0
  7  8  1  0
  8  9  2  0
  9 10  1  0
 10 11  2  0
 11 12  1  0
 12 13  2  0
 13 14  1  0
 14 15  2  0
 15 16  1  0
 11 16  1  0
 16 17  2  0
  8 17  1  0
 17 18  1  0
 18 19  2  0
 19 20  1  0
 20 21  2  0
 21 22  1  0
 21 23  1  0
 23 24  2  0
 18 24  1  0
  9 25  1  0
 25 26  1  0
 26 27  1  0
 25 27  1  0
  2 28  1  0
 28 29  1  0
 29 30  2  0
 29 31  1  0
 34 33  1  0
 34 35  1  0
 35 36  1  0
 36 37  1  0
 36 38  1  0
 38 39  2  0
 39 40  1  0
 40 41  2  0
 41 42  1  0
 42 43  2  0
 43 44  1  0
 44 45  2  0
 45 46  1  0
 46 47  2  0
 47 48  1  0
 43 48  1  0
 48 49  2  0
 40 49  1  0
 49 50  1  0
 50 51  2  0
 51 52  1  0
 52 53  2  0
 53 54  1  0
 53 55  1  0
 55 56  2  0
 50 56  1  0
 41 57  1  0
 57 58  1  0
 58 59  1  0
 57 59  1  0
 34 60  1  0
 60 61  1  0
 61 62  2  0
 61 63  1  0
  1 64  1  0
  2 65  1  1
  3 66  1  0
  3 67  1  0
  4 68  1  1
  5 69  1  0
  6 70  1  0
  7 71  1  0
 12 72  1  0
 13 73  1  0
 14 74  1  0
 15 75  1  0
 19 76  1  0
 20 77  1  0
 23 78  1  0
 24 79  1  0
 25 80  1  0
 26 81  1  0
 26 82  1  0
 27 83  1  0
 27 84  1  0
 28 85  1  0
 28 86  1  0
 33 87  1  0
 34 88  1  1
 35 89  1  0
 35 90  1  0
 36 91  1  1
 37 92  1  0
 38 93  1  0
 39 94  1  0
 44 95  1  0
 45 96  1  0
 46 97  1  0
 47 98  1  0
 51 99  1  0
 52100  1  0
 55101  1  0
 56102  1  0
 57103  1  0
 58104  1  0
 58105  1  0
 59106  1  0
 59107  1  0
 60108  1  0
 60109  1  0
M  CHG  3  31  -1  32   2  63  -1
M  END
$$$$
