
     RDKit          3D

109114  0  0  0  0  0  0  0  0999 V2000
    5.2178   -0.3218   -0.9058 O   0  0  0  0  0  0  0  0  0  0  0  0
    4.4833    0.7835   -0.3577 C   0  0  2  0  0  0  0  0  0  0  0  0
    2.9972    0.5660   -0.6792 C   0  0  0  0  0  0  0  0  0  0  0  0
    2.4816   -0.7661   -0.1170 C   0  0  2  0  0  0  0  0  0  0  0  0
    3.0551   -1.8679   -0.8140 O   0  0  0  0  0  0  0  0  0  0  0  0
    0.9972   -0.8894   -0.2902 C   0  0  0  0  0  0  0  0  0  0  0  0
    0.1253   -0.9105    0.7314 C   0  0  0  0  0  0  0  0  0  0  0  0
   -1.3318   -1.0070    0.5300 C   0  0  0  0  0  0  0  0  0  0  0  0
   -1.9809   -2.2346    0.7375 C   0  0  0  0  0  0  0  0  0  0  0  0
   -3.3300   -2.3508    0.6148 N   0  0  0  0  0  0  0  0  0  0  0  0
   -4.0629   -1.2866    0.2661 C   0  0  0  0  0  0  0  0  0  0  0  0
   -5.4361   -1.4607    0.1493 C   0  0  0  0  0  0  0  0  0  0  0  0
   -6.2863   -0.4109   -0.1988 C   0  0  0  0  0  0  0  0  0  0  0  0
   -5.7562    0.8478   -0.4392 C   0  0  0  0  0  0  0  0  0  0  0  0
   -4.3796    1.0462   -0.3289 C   0  0  0  0  0  0  0  0  0  0  0  0
   -3.5055   -0.0145    0.0254 C   0  0  0  0  0  0  0  0  0  0  0  0
   -2.0976    0.1248    0.1651 C   0  0  0  0  0  0  0  0  0  0  0  0
   -1.4455    1.4333   -0.0512 C   0  0  0  0  0  0  0  0  0  0  0  0
   -1.0421    1.8255   -1.3407 C   0  0  0  0  0  0  0  0  0  0  0  0
   -0.4254    3.0592   -1.5465 C   0  0  0  0  0  0  0  0  0  0  0  0
   -0.2089    3.9052   -0.4657 C   0  0  0  0  0  0  0  0  0  0  0  0
    0.3650    5.0969   -0.6661 F   0  0  0  0  0  0  0  0  0  0  0  0
   -0.5913    3.5391    0.8188 C   0  0  0  0  0  0  0  0  0  0  0  0
   -1.2086    2.3046    1.0251 C   0  0  0  0  0  0  0  0  0  0  0  0
   -1.2168   -3.4881    1.1297 C   0  0  0  0  0  0  0  0  0  0  0  0
   -1.6843   -4.8507    0.6644 C   0  0  0  0  0  0  0  0  0  0  0  0
   -0.4404   -4.2517    0.0815 C   0  0  0  0  0  0  0  0  0  0  0  0
    4.9888    2.0961   -0.9520 C   0  0  0  0  0  0  0  0  0  0  0  0
    6.3677    2.3716   -0.3564 C   0  0  0  0  0  0  0  0  0  0  0  0
    7.1557    1.3796   -0.3627 O   0  0  0  0  0  0  0  0  0  0  0  0
    6.5453    3.5436    0.0695 O   0  0  0  0  0  0  0  0  0  0  0  0
    0.0000    0.0000    0.0000 Mg  0  0  0  0  0 15  0  0  0  0  0  0
    4.4504   -0.1435    2.1006 O   0  0  0  0  0  0  0  0  0  0  0  0
    4.6190   -0.0141    0.6845 C   0  0  2  0  0  0  0  0  0  0  0  0
    3.2216    0.0571    0.0491 C   0  0  0  0  0  0  0  0  0  0  0  0
    2.3303   -1.1782    0.2827 C   0  0  2  0  0  0  0  0  0  0  0  0
    2.6922   -2.2696   -0.5684 O   0  0  0  0  0  0  0  0  0  0  0  0
    0.8605   -0.9916   -0.0009 C   0  0  0  0  0  0  0  0  0  0  0  0
    0.2235    0.1262   -0.3822 C   0  0  0  0  0  0  0  0  0  0  0  0
   -1.2106    0.1212   -0.7264 C   0  0  0  0  0  0  0  0  0  0  0  0
   -1.5868   -0.0780   -2.0660 C   0  0  0  0  0  0  0  0  0  0  0  0
   -2.8944   -0.1158   -2.4337 N   0  0  0  0  0  0  0  0  0  0  0  0
   -3.8526    0.0385   -1.5148 C   0  0  0  0  0  0  0  0  0  0  0  0
   -5.1721   -0.0178   -1.9434 C   0  0  0  0  0  0  0  0  0  0  0  0
   -6.2448    0.1219   -1.0617 C   0  0  0  0  0  0  0  0  0  0  0  0
   -5.9993    0.3284    0.2853 C   0  0  0  0  0  0  0  0  0  0  0  0
   -4.6814    0.3979    0.7368 C   0  0  0  0  0  0  0  0  0  0  0  0
   -3.5815    0.2499   -0.1503 C   0  0  0  0  0  0  0  0  0  0  0  0
   -2.2173    0.2984    0.2495 C   0  0  0  0  0  0  0  0  0  0  0  0
   -1.8605    0.5389    1.6623 C   0  0  0  0  0  0  0  0  0  0  0  0
   -1.6659   -0.5337    2.5483 C   0  0  0  0  0  0  0  0  0  0  0  0
   -1.3539   -0.3001    3.8895 C   0  0  0  0  0  0  0  0  0  0  0  0
   -1.2394    1.0066    4.3447 C   0  0  0  0  0  0  0  0  0  0  0  0
   -0.9594    1.2333    5.6348 F   0  0  0  0  0  0  0  0  0  0  0  0
   -1.4269    2.0854    3.4897 C   0  0  0  0  0  0  0  0  0  0  0  0
   -1.7327    1.8508    2.1488 C   0  0  0  0  0  0  0  0  0  0  0  0
   -0.5564   -0.2799   -3.1653 C   0  0  0  0  0  0  0  0  0  0  0  0
    0.2307    0.8996   -3.6907 C   0  0  0  0  0  0  0  0  0  0  0  0
   -0.8025    0.2532   -4.5581 C   0  0  0  0  0  0  0  0  0  0  0  0
    5.4964   -1.1412    0.1588 C   0  0  0  0  0  0  0  0  0  0  0  0
    6.9376   -0.9082    0.6067 C   0  0  0  0  0  0  0  0  0  0  0  0
    7.0640   -0.5271    1.8079 O   0  0  0  0  0  0  0  0  0  0  0  0
    7.8137   -1.1327   -0.2723 O   0  0  0  0  0  0  0  0  0  0  0  0
    6.1655   -0.0413   -0.7869 H   0  0  0  0  0  0  0  0  0  0  0  0
    4.6283    0.7681    0.7300 H   0  0  0  0  0  0  0  0  0  0  0  0
    2.8699    0.5600   -1.7718 H   0  0  0  0  0  0  0  0  0  0  0  0
    2.4118    1.3988   -0.2713 H   0  0  0  0  0  0  0  0  0  0  0  0
    2.7573   -0.8648    0.9378 H   0  0  0  0  0  0  0  0  0  0  0  0
    3.9936   -1.6066   -0.9649 H   0  0  0  0  0  0  0  0  0  0  0  0
    0.6441   -0.9712   -1.3154 H   0  0  0  0  0  0  0  0  0  0  0  0
    0.4640   -0.8470    1.7608 H   0  0  0  0  0  0  0  0  0  0  0  0
   -5.8567   -2.4473    0.3403 H   0  0  0  0  0  0  0  0  0  0  0  0
   -7.3575   -0.5790   -0.2707 H   0  0  0  0  0  0  0  0  0  0  0  0
   -6.4066    1.6750   -0.7113 H   0  0  0  0  0  0  0  0  0  0  0  0
   -3.9877    2.0443   -0.5216 H   0  0  0  0  0  0  0  0  0  0  0  0
   -1.2031    1.1604   -2.1865 H   0  0  0  0  0  0  0  0  0  0  0  0
   -0.1045    3.3603   -2.5393 H   0  0  0  0  0  0  0  0  0  0  0  0
   -0.4009    4.2122    1.6478 H   0  0  0  0  0  0  0  0  0  0  0  0
   -1.4992    2.0208    2.0339 H   0  0  0  0  0  0  0  0  0  0  0  0
   -0.7779   -3.4589    2.1248 H   0  0  0  0  0  0  0  0  0  0  0  0
   -2.5690   -4.9086    0.0384 H   0  0  0  0  0  0  0  0  0  0  0  0
   -1.5739   -5.6809    1.3512 H   0  0  0  0  0  0  0  0  0  0  0  0
   -0.4711   -3.8998   -0.9436 H   0  0  0  0  0  0  0  0  0  0  0  0
    0.5185   -4.6599    0.3768 H   0  0  0  0  0  0  0  0  0  0  0  0
    4.3122    2.9260   -0.7090 H   0  0  0  0  0  0  0  0  0  0  0  0
    5.0932    2.0276   -2.0424 H   0  0  0  0  0  0  0  0  0  0  0  0
    5.3809   -0.2531    2.4310 H   0  0  0  0  0  0  0  0  0  0  0  0
    5.1070    0.9528    0.5005 H   0  0  0  0  0  0  0  0  0  0  0  0
    2.7315    0.9330    0.4904 H   0  0  0  0  0  0  0  0  0  0  0  0
    3.3264    0.2469   -1.0272 H   0  0  0  0  0  0  0  0  0  0  0  0
    2.4241   -1.5210    1.3192 H   0  0  0  0  0  0  0  0  0  0  0  0
    3.5039   -2.0345   -1.0448 H   0  0  0  0  0  0  0  0  0  0  0  0
    0.2863   -1.9103    0.1009 H   0  0  0  0  0  0  0  0  0  0  0  0
    0.7285    1.0763   -0.5187 H   0  0  0  0  0  0  0  0  0  0  0  0
   -5.3720   -0.1859   -2.9989 H   0  0  0  0  0  0  0  0  0  0  0  0
   -7.2624    0.0677   -1.4369 H   0  0  0  0  0  0  0  0  0  0  0  0
   -6.8255    0.4351    0.9842 H   0  0  0  0  0  0  0  0  0  0  0  0
   -4.5158    0.5599    1.7999 H   0  0  0  0  0  0  0  0  0  0  0  0
   -1.7528   -1.5566    2.1932 H   0  0  0  0  0  0  0  0  0  0  0  0
   -1.2015   -1.1248    4.5761 H   0  0  0  0  0  0  0  0  0  0  0  0
   -1.3219    3.0965    3.8644 H   0  0  0  0  0  0  0  0  0  0  0  0
   -1.8704    2.6953    1.4797 H   0  0  0  0  0  0  0  0  0  0  0  0
   -0.0228   -1.2267   -3.1159 H   0  0  0  0  0  0  0  0  0  0  0  0
    0.0187    1.8852   -3.2964 H   0  0  0  0  0  0  0  0  0  0  0  0
    1.2735    0.7393   -3.9347 H   0  0  0  0  0  0  0  0  0  0  0  0
   -1.7191    0.7968   -4.7489 H   0  0  0  0  0  0  0  0  0  0  0  0
   -0.4730   -0.3586   -5.3876 H   0  0  0  0  0  0  0  0  0  0  0  0
    5.1895   -2.1129    0.5597 H   0  0  0  0  0  0  0  0  0  0  0  0
    5.4652   -1.1762   -0.9351 H   0  0  0  0  0  0  0  0  0  0  0  0
  2  1  1  0
  2  3  1  0
  3  4  1  0
  4  5  1  0
  4  6  1  0
  6  7  2  0
  7  8  1  0
  8  9  2  0
  9 10  1  0
 10 11  2  0
 11 12  1  0
 12 13  2  0
 13 14  1  0
 14 15  2  0
 15 16  1  0
 11 16  1  0
 16 17  2  0
  8 17  1  0
 17 18  1  0
 18 19  2  0
 19 20  1  0
 20 21  2  0
 21 22  1  0
 21 23  1  0
 23 24  2  0
 18 24  1  0
  9 25  1  0
 25 26  1  0
 26 27  1  0
 25 27  1  0
  2 28  1  0
 28 29  1  0
 29 30  2  0
 29 31  1  0
 34 33  1  0
 34 35  1  0
 35 36  1  0
 36 37  1  0
 36 38  1  0
 38 39  2  0
 39 40  1  0
 40 41  2  0
 41 42  1  0
 42 43  2  0
 43 44  1  0
 44 45  2  0
 45 46  1  0
 46 47  2  0
 47 48  1  0
 43 48  1  0
 48 49  2  0
 40 49  1  0
 49 50  1  0
 50 51  2  0
 51 52  1  0
 52 53  2  0
 53 54  1  0
 53 55  1  0
 55 56  2  0
 50 56  1  0
 41 57  1  0
 57 58  1  0
 58 59  1  0
 57 59  1  0
 34 60  1  0
 60 61  1  0
 61 62  2  0
 61 63  1  0
  1 64  1  0
  2 65  1  1
  3 66  1  0
  3 67  1  0
  4 68  1  1
  5 69  1  0
  6 70  1  0
  7 71  1  0
 12 72  1  0
 13 73  1  0
 14 74  1  0
 15 75  1  0
 19 76  1  0
 20 77  1  0
 23 78  1  0
 24 79  1  0
 25 80  1  0
 26 81  1  0
 26 82  1  0
 27 83  1  0
 27 84  1  0
 28 85  1  0
 28 86  1  0
 33 87  1  0
 34 88  1  1
 35 89  1  0
 35 90  1  0
 36 91  1  1
 37 92  1  0
 38 93  1  0
 39 94  1  0
 44 95  1  0
 45 96  1  0
 46 97  1  0
 47 98  1  0
 51 99  1  0
 52100  1  0
 55101  1  0
 56102  1  0
 57103  1  0
 58104  1  0
 58105  1  0
 59106  1  0
 59107  1  0
 60108  1  0
 60109  1  0
M  CHG  3  31  -1  32   2  63  -1
M  END
$$$$
