
     RDKit          3D

 63 68  0  0  0  0  0  0  0  0999 V2000
    3.6025    1.3871    0.5987 O   0  0  0  0  0  0  0  0  0  0  0  0
    4.4008    0.8801   -0.4425 C   0  0  2  0  0  0  0  0  0  0  0  0
    3.9357   -0.5090   -0.7773 C   0  0  0  0  0  0  0  0  0  0  0  0
    2.5115   -0.5930   -1.2272 C   0  0  2  0  0  0  0  0  0  0  0  0
    2.2265    0.1355   -2.3571 O   0  0  0  0  0  0  0  0  0  0  0  0
    1.5704   -0.3485   -0.1032 C   0  0  0  0  0  0  0  0  0  0  0  0
    0.2825   -0.2592   -0.3605 C   0  0  0  0  0  0  0  0  0  0  0  0
   -0.7191   -0.0216    0.6705 C   0  0  0  0  0  0  0  0  0  0  0  0
   -0.3993    0.1293    2.0020 C   0  0  0  0  0  0  0  0  0  0  0  0
   -1.3906    0.3472    2.8954 N   0  0  0  0  0  0  0  0  0  0  0  0
   -2.6722    0.4263    2.5675 C   0  0  0  0  0  0  0  0  0  0  0  0
   -3.6337    0.6521    3.5410 C   0  0  0  0  0  0  0  0  0  0  0  0
   -4.9666    0.7305    3.1715 C   0  0  0  0  0  0  0  0  0  0  0  0
   -5.3370    0.5839    1.8361 C   0  0  0  0  0  0  0  0  0  0  0  0
   -4.3786    0.3619    0.8884 C   0  0  0  0  0  0  0  0  0  0  0  0
   -3.0510    0.2826    1.2477 C   0  0  0  0  0  0  0  0  0  0  0  0
   -2.0386    0.0583    0.3212 C   0  0  0  0  0  0  0  0  0  0  0  0
   -2.4264   -0.0942   -1.0702 C   0  0  0  0  0  0  0  0  0  0  0  0
   -2.5236    0.9390   -1.9575 C   0  0  0  0  0  0  0  0  0  0  0  0
   -2.9021    0.7395   -3.2905 C   0  0  0  0  0  0  0  0  0  0  0  0
   -3.1799   -0.5658   -3.6864 C   0  0  0  0  0  0  0  0  0  0  0  0
   -3.5511   -0.8038   -4.9722 F   0  0  0  0  0  0  0  0  0  0  0  0
   -3.0896   -1.6281   -2.8104 C   0  0  0  0  0  0  0  0  0  0  0  0
   -2.7099   -1.3976   -1.4888 C   0  0  0  0  0  0  0  0  0  0  0  0
    1.0249    0.0432    2.3788 C   0  0  0  0  0  0  0  0  0  0  0  0
    1.6953   -1.2162    2.7526 C   0  0  0  0  0  0  0  0  0  0  0  0
    1.1495   -0.4375    3.8631 C   0  0  0  0  0  0  0  0  0  0  0  0
    5.8469    0.7512    0.0335 C   0  0  0  0  0  0  0  0  0  0  0  0
    6.6324    0.2154   -1.1014 C   0  0  0  0  0  0  0  0  0  0  0  0
    6.1005   -0.0510   -2.2153 O   0  0  0  0  0  0  0  0  0  0  0  0
    7.9900    0.0097   -0.9079 O   0  0  0  0  0  0  0  0  0  0  0  0
    0.0000    0.0000    0.0000 Mg  0  0  0  0  0 15  0  0  0  0  0  0
    5.5132    0.0738   -1.3486 O   0  0  0  0  0  0  0  0  0  0  0  0
    4.3592    0.3264   -0.6084 C   0  0  2  0  0  0  0  0  0  0  0  0
    3.5523    1.4778   -1.1689 C   0  0  0  0  0  0  0  0  0  0  0  0
    2.3357    1.6432   -0.2810 C   0  0  2  0  0  0  0  0  0  0  0  0
    2.8097    1.9160    1.0010 O   0  0  0  0  0  0  0  0  0  0  0  0
    1.5827    0.3626   -0.3568 C   0  0  0  0  0  0  0  0  0  0  0  0
    0.3235    0.2129   -0.3043 C   0  0  0  0  0  0  0  0  0  0  0  0
   -0.5725   -0.8949   -0.3570 C   0  0  0  0  0  0  0  0  0  0  0  0
   -0.2499   -2.2218   -0.4660 C   0  0  0  0  0  0  0  0  0  0  0  0
   -1.1858   -3.2005   -0.5434 N   0  0  0  0  0  0  0  0  0  0  0  0
   -2.4766   -2.8620   -0.5112 C   0  0  0  0  0  0  0  0  0  0  0  0
   -3.4315   -3.8673   -0.5903 C   0  0  0  0  0  0  0  0  0  0  0  0
   -4.7880   -3.6218   -0.5653 C   0  0  0  0  0  0  0  0  0  0  0  0
   -5.1530   -2.2899   -0.4545 C   0  0  0  0  0  0  0  0  0  0  0  0
   -4.2642   -1.2498   -0.3722 C   0  0  0  0  0  0  0  0  0  0  0  0
   -2.9097   -1.5617   -0.4027 C   0  0  0  0  0  0  0  0  0  0  0  0
   -1.9454   -0.5851   -0.3263 C   0  0  0  0  0  0  0  0  0  0  0  0
   -2.3874    0.8102   -0.2100 C   0  0  0  0  0  0  0  0  0  0  0  0
   -2.5775    1.3266    1.0453 C   0  0  0  0  0  0  0  0  0  0  0  0
   -2.9949    2.6374    1.2518 C   0  0  0  0  0  0  0  0  0  0  0  0
   -3.2206    3.4315    0.1308 C   0  0  0  0  0  0  0  0  0  0  0  0
   -3.6262    4.7024    0.3682 F   0  0  0  0  0  0  0  0  0  0  0  0
   -3.0329    2.9238   -1.1413 C   0  0  0  0  0  0  0  0  0  0  0  0
   -2.6125    1.6013   -1.3128 C   0  0  0  0  0  0  0  0  0  0  0  0
    1.1644   -2.7258   -0.4728 C   0  0  0  0  0  0  0  0  0  0  0  0
    1.4484   -3.4602    0.8830 C   0  0  0  0  0  0  0  0  0  0  0  0
    2.1685   -2.1943    0.4557 C   0  0  0  0  0  0  0  0  0  0  0  0
    4.6769    0.6298    0.8381 C   0  0  0  0  0  0  0  0  0  0  0  0
    5.5631    1.8476    0.8643 C   0  0  0  0  0  0  0  0  0  0  0  0
    5.9844    2.3266    1.9581 O   0  0  0  0  0  0  0  0  0  0  0  0
    5.9466    2.4851   -0.3211 O   0  0  0  0  0  0  0  0  0  0  0  0
  2  1  1  1
  2  3  1  0
  3  4  1  0
  4  5  1  6
  4  6  1  0
  6  7  2  0
  7  8  1  0
  8  9  2  0
  9 10  1  0
 10 11  2  0
 11 12  1  0
 12 13  2  0
 13 14  1  0
 14 15  2  0
 15 16  1  0
 11 16  1  0
 16 17  2  0
  8 17  1  0
 17 18  1  0
 18 19  2  0
 19 20  1  0
 20 21  2  0
 21 22  1  0
 21 23  1  0
 23 24  2  0
 18 24  1  0
  9 25  1  0
 25 26  1  0
 26 27  1  0
 25 27  1  0
  2 28  1  0
 28 29  1  0
 29 30  2  0
 29 31  1  0
 34 33  1  6
 34 35  1  0
 35 36  1  0
 36 37  1  1
 36 38  1  0
 38 39  2  0
 39 40  1  0
 40 41  2  0
 41 42  1  0
 42 43  2  0
 43 44  1  0
 44 45  2  0
 45 46  1  0
 46 47  2  0
 47 48  1  0
 43 48  1  0
 48 49  2  0
 40 49  1  0
 49 50  1  0
 50 51  2  0
 51 52  1  0
 52 53  2  0
 53 54  1  0
 53 55  1  0
 55 56  2  0
 50 56  1  0
 41 57  1  0
 57 58  1  0
 58 59  1  0
 57 59  1  0
 34 60  1  0
 60 61  1  0
 61 62  2  0
 61 63  1  0
M  CHG  3  31  -1  32   2  63  -1
M  END
