
     RDKit          3D

109114  0  0  0  0  0  0  0  0999 V2000
    4.8794   -1.5782    1.2956 O   0  0  0  0  0  0  0  0  0  0  0  0
    4.7939   -0.4833    0.3715 C   0  0  2  0  0  0  0  0  0  0  0  0
    3.4002   -0.4926   -0.2705 C   0  0  0  0  0  0  0  0  0  0  0  0
    2.2808   -0.4984    0.7795 C   0  0  2  0  0  0  0  0  0  0  0  0
    2.2426   -1.7537    1.4565 O   0  0  0  0  0  0  0  0  0  0  0  0
    0.9372   -0.3299    0.1324 C   0  0  0  0  0  0  0  0  0  0  0  0
    0.0774    0.6630    0.4168 C   0  0  0  0  0  0  0  0  0  0  0  0
   -1.2350    0.8042   -0.2450 C   0  0  0  0  0  0  0  0  0  0  0  0
   -1.4503    1.8904   -1.1134 C   0  0  0  0  0  0  0  0  0  0  0  0
   -2.6375    2.0616   -1.7527 N   0  0  0  0  0  0  0  0  0  0  0  0
   -3.6378    1.1976   -1.5496 C   0  0  0  0  0  0  0  0  0  0  0  0
   -4.8317    1.4267   -2.2209 C   0  0  0  0  0  0  0  0  0  0  0  0
   -5.9427    0.5957   -2.0706 C   0  0  0  0  0  0  0  0  0  0  0  0
   -5.8611   -0.5013   -1.2299 C   0  0  0  0  0  0  0  0  0  0  0  0
   -4.6712   -0.7511   -0.5439 C   0  0  0  0  0  0  0  0  0  0  0  0
   -3.5363    0.0915   -0.6859 C   0  0  0  0  0  0  0  0  0  0  0  0
   -2.2959   -0.1066   -0.0151 C   0  0  0  0  0  0  0  0  0  0  0  0
   -2.1311   -1.2428    0.9154 C   0  0  0  0  0  0  0  0  0  0  0  0
   -2.3205   -1.0667    2.2977 C   0  0  0  0  0  0  0  0  0  0  0  0
   -2.1650   -2.1382    3.1787 C   0  0  0  0  0  0  0  0  0  0  0  0
   -1.8213   -3.3884    2.6800 C   0  0  0  0  0  0  0  0  0  0  0  0
   -1.6923   -4.4192    3.5254 F   0  0  0  0  0  0  0  0  0  0  0  0
   -1.6345   -3.5904    1.3187 C   0  0  0  0  0  0  0  0  0  0  0  0
   -1.7897   -2.5200    0.4373 C   0  0  0  0  0  0  0  0  0  0  0  0
   -0.3628    2.9147   -1.4102 C   0  0  0  0  0  0  0  0  0  0  0  0
   -0.0439    3.9942   -0.3979 C   0  0  0  0  0  0  0  0  0  0  0  0
   -0.7213    4.3619   -1.6792 C   0  0  0  0  0  0  0  0  0  0  0  0
    5.8836   -0.6078   -0.6856 C   0  0  0  0  0  0  0  0  0  0  0  0
    7.2511   -0.3609   -0.0550 C   0  0  0  0  0  0  0  0  0  0  0  0
    7.3936   -0.8295    1.1147 O   0  0  0  0  0  0  0  0  0  0  0  0
    8.0724    0.2661   -0.7794 O   0  0  0  0  0  0  0  0  0  0  0  0
    0.0000    0.0000    0.0000 Mg  0  0  0  0  0 15  0  0  0  0  0  0
    4.8221   -0.3177    0.7464 O   0  0  0  0  0  0  0  0  0  0  0  0
    4.1430    0.4662   -0.2385 C   0  0  2  0  0  0  0  0  0  0  0  0
    3.4419   -0.4583   -1.2400 C   0  0  0  0  0  0  0  0  0  0  0  0
    2.4163   -1.4083   -0.6038 C   0  0  2  0  0  0  0  0  0  0  0  0
    1.9087   -2.2831   -1.6164 O   0  0  0  0  0  0  0  0  0  0  0  0
    1.2664   -0.6729    0.0296 C   0  0  0  0  0  0  0  0  0  0  0  0
    0.0548   -0.4854   -0.5191 C   0  0  0  0  0  0  0  0  0  0  0  0
   -1.0064    0.2944    0.1462 C   0  0  0  0  0  0  0  0  0  0  0  0
   -0.8772    1.6866    0.3087 C   0  0  0  0  0  0  0  0  0  0  0  0
   -1.8370    2.4180    0.9361 N   0  0  0  0  0  0  0  0  0  0  0  0
   -2.9393    1.8165    1.3978 C   0  0  0  0  0  0  0  0  0  0  0  0
   -3.8907    2.6069    2.0292 C   0  0  0  0  0  0  0  0  0  0  0  0
   -5.0729    2.0726    2.5468 C   0  0  0  0  0  0  0  0  0  0  0  0
   -5.3206    0.7140    2.4328 C   0  0  0  0  0  0  0  0  0  0  0  0
   -4.3804   -0.0979    1.8005 C   0  0  0  0  0  0  0  0  0  0  0  0
   -3.1743    0.4328    1.2705 C   0  0  0  0  0  0  0  0  0  0  0  0
   -2.1783   -0.3454    0.6173 C   0  0  0  0  0  0  0  0  0  0  0  0
   -2.3725   -1.7993    0.4279 C   0  0  0  0  0  0  0  0  0  0  0  0
   -3.1172   -2.2855   -0.6629 C   0  0  0  0  0  0  0  0  0  0  0  0
   -3.3063   -3.6576   -0.8380 C   0  0  0  0  0  0  0  0  0  0  0  0
   -2.7557   -4.5478    0.0767 C   0  0  0  0  0  0  0  0  0  0  0  0
   -2.9425   -5.8637   -0.0902 F   0  0  0  0  0  0  0  0  0  0  0  0
   -2.0181   -4.0917    1.1620 C   0  0  0  0  0  0  0  0  0  0  0  0
   -1.8260   -2.7197    1.3384 C   0  0  0  0  0  0  0  0  0  0  0  0
    0.3293    2.4583   -0.2013 C   0  0  0  0  0  0  0  0  0  0  0  0
    0.5697    2.6128   -1.6864 C   0  0  0  0  0  0  0  0  0  0  0  0
    0.1410    3.7981   -0.8792 C   0  0  0  0  0  0  0  0  0  0  0  0
    5.1080    1.4523   -0.8989 C   0  0  0  0  0  0  0  0  0  0  0  0
    6.2228    0.7546   -1.6748 C   0  0  0  0  0  0  0  0  0  0  0  0
    6.6808   -0.2885   -1.1185 O   0  0  0  0  0  0  0  0  0  0  0  0
    6.5435    1.3050   -2.7636 O   0  0  0  0  0  0  0  0  0  0  0  0
    5.8371   -1.5631    1.5682 H   0  0  0  0  0  0  0  0  0  0  0  0
    4.9192    0.4432    0.9459 H   0  0  0  0  0  0  0  0  0  0  0  0
    3.2981    0.3787   -0.9309 H   0  0  0  0  0  0  0  0  0  0  0  0
    3.3067   -1.3963   -0.8900 H   0  0  0  0  0  0  0  0  0  0  0  0
    2.4596    0.2846    1.5275 H   0  0  0  0  0  0  0  0  0  0  0  0
    3.1860   -1.9687    1.6453 H   0  0  0  0  0  0  0  0  0  0  0  0
    0.6769   -1.0804   -0.6113 H   0  0  0  0  0  0  0  0  0  0  0  0
    0.3237    1.4222    1.1536 H   0  0  0  0  0  0  0  0  0  0  0  0
   -4.9008    2.2868   -2.8827 H   0  0  0  0  0  0  0  0  0  0  0  0
   -6.8638    0.8158   -2.6025 H   0  0  0  0  0  0  0  0  0  0  0  0
   -6.7178   -1.1575   -1.0974 H   0  0  0  0  0  0  0  0  0  0  0  0
   -4.6388   -1.6158    0.1149 H   0  0  0  0  0  0  0  0  0  0  0  0
   -2.5863   -0.0868    2.6904 H   0  0  0  0  0  0  0  0  0  0  0  0
   -2.3091   -2.0056    4.2471 H   0  0  0  0  0  0  0  0  0  0  0  0
   -1.3510   -4.5723    0.9554 H   0  0  0  0  0  0  0  0  0  0  0  0
   -1.6192   -2.6776   -0.6261 H   0  0  0  0  0  0  0  0  0  0  0  0
    0.4738    2.5262   -1.9879 H   0  0  0  0  0  0  0  0  0  0  0  0
   -0.6317    4.0409    0.5107 H   0  0  0  0  0  0  0  0  0  0  0  0
    0.9962    4.2704   -0.2715 H   0  0  0  0  0  0  0  0  0  0  0  0
   -0.1454    4.8911   -2.4287 H   0  0  0  0  0  0  0  0  0  0  0  0
   -1.7651    4.6519   -1.6354 H   0  0  0  0  0  0  0  0  0  0  0  0
    5.9002   -1.6141   -1.1193 H   0  0  0  0  0  0  0  0  0  0  0  0
    5.7216    0.1179   -1.4911 H   0  0  0  0  0  0  0  0  0  0  0  0
    5.6692   -0.5794    0.2983 H   0  0  0  0  0  0  0  0  0  0  0  0
    3.3976    1.0570    0.3045 H   0  0  0  0  0  0  0  0  0  0  0  0
    2.9577    0.1363   -2.0244 H   0  0  0  0  0  0  0  0  0  0  0  0
    4.1854   -1.0763   -1.7575 H   0  0  0  0  0  0  0  0  0  0  0  0
    2.8897   -2.0462    0.1498 H   0  0  0  0  0  0  0  0  0  0  0  0
    2.6927   -2.6805   -2.0420 H   0  0  0  0  0  0  0  0  0  0  0  0
    1.4869   -0.2527    1.0089 H   0  0  0  0  0  0  0  0  0  0  0  0
   -0.1844   -0.9055   -1.4920 H   0  0  0  0  0  0  0  0  0  0  0  0
   -3.7036    3.6753    2.1193 H   0  0  0  0  0  0  0  0  0  0  0  0
   -5.7892    2.7244    3.0391 H   0  0  0  0  0  0  0  0  0  0  0  0
   -6.2338    0.2827    2.8403 H   0  0  0  0  0  0  0  0  0  0  0  0
   -4.5942   -1.1612    1.7242 H   0  0  0  0  0  0  0  0  0  0  0  0
   -3.5407   -1.5896   -1.3846 H   0  0  0  0  0  0  0  0  0  0  0  0
   -3.8724   -4.0336   -1.6828 H   0  0  0  0  0  0  0  0  0  0  0  0
   -1.5846   -4.8042    1.8565 H   0  0  0  0  0  0  0  0  0  0  0  0
   -1.2383   -2.3662    2.1833 H   0  0  0  0  0  0  0  0  0  0  0  0
    1.2122    2.3756    0.4263 H   0  0  0  0  0  0  0  0  0  0  0  0
    1.5968    2.5718   -2.0319 H   0  0  0  0  0  0  0  0  0  0  0  0
   -0.1464    2.1771   -2.3741 H   0  0  0  0  0  0  0  0  0  0  0  0
   -0.8680    4.1687   -1.0189 H   0  0  0  0  0  0  0  0  0  0  0  0
    0.8771    4.5686   -0.6808 H   0  0  0  0  0  0  0  0  0  0  0  0
    4.5560    2.1270   -1.5685 H   0  0  0  0  0  0  0  0  0  0  0  0
    5.6015    2.0646   -0.1282 H   0  0  0  0  0  0  0  0  0  0  0  0
  2  1  1  0
  2  3  1  0
  3  4  1  0
  4  5  1  0
  4  6  1  0
  6  7  2  0
  7  8  1  0
  8  9  2  0
  9 10  1  0
 10 11  2  0
 11 12  1  0
 12 13  2  0
 13 14  1  0
 14 15  2  0
 15 16  1  0
 11 16  1  0
 16 17  2  0
  8 17  1  0
 17 18  1  0
 18 19  2  0
 19 20  1  0
 20 21  2  0
 21 22  1  0
 21 23  1  0
 23 24  2  0
 18 24  1  0
  9 25  1  0
 25 26  1  0
 26 27  1  0
 25 27  1  0
  2 28  1  0
 28 29  1  0
 29 30  2  0
 29 31  1  0
 34 33  1  0
 34 35  1  0
 35 36  1  0
 36 37  1  0
 36 38  1  0
 38 39  2  0
 39 40  1  0
 40 41  2  0
 41 42  1  0
 42 43  2  0
 43 44  1  0
 44 45  2  0
 45 46  1  0
 46 47  2  0
 47 48  1  0
 43 48  1  0
 48 49  2  0
 40 49  1  0
 49 50  1  0
 50 51  2  0
 51 52  1  0
 52 53  2  0
 53 54  1  0
 53 55  1  0
 55 56  2  0
 50 56  1  0
 41 57  1  0
 57 58  1  0
 58 59  1  0
 57 59  1  0
 34 60  1  0
 60 61  1  0
 61 62  2  0
 61 63  1  0
  1 64  1  0
  2 65  1  1
  3 66  1  0
  3 67  1  0
  4 68  1  1
  5 69  1  0
  6 70  1  0
  7 71  1  0
 12 72  1  0
 13 73  1  0
 14 74  1  0
 15 75  1  0
 19 76  1  0
 20 77  1  0
 23 78  1  0
 24 79  1  0
 25 80  1  0
 26 81  1  0
 26 82  1  0
 27 83  1  0
 27 84  1  0
 28 85  1  0
 28 86  1  0
 33 87  1  0
 34 88  1  1
 35 89  1  0
 35 90  1  0
 36 91  1  1
 37 92  1  0
 38 93  1  0
 39 94  1  0
 44 95  1  0
 45 96  1  0
 46 97  1  0
 47 98  1  0
 51 99  1  0
 52100  1  0
 55101  1  0
 56102  1  0
 57103  1  0
 58104  1  0
 58105  1  0
 59106  1  0
 59107  1  0
 60108  1  0
 60109  1  0
M  CHG  3  31  -1  32   2  63  -1
M  END
$$$$
