
     RDKit          3D

109114  0  0  0  0  0  0  0  0999 V2000
    2.4423    1.8170    0.1200 O   0  0  0  0  0  0  0  0  0  0  0  0
    3.6012    1.4514   -0.6262 C   0  0  2  0  0  0  0  0  0  0  0  0
    3.1720    0.6389   -1.8539 C   0  0  0  0  0  0  0  0  0  0  0  0
    2.4953   -0.7126   -1.5734 C   0  0  2  0  0  0  0  0  0  0  0  0
    2.5394   -1.4987   -2.7764 O   0  0  0  0  0  0  0  0  0  0  0  0
    1.0448   -0.6487   -1.1944 C   0  0  0  0  0  0  0  0  0  0  0  0
    0.5787   -0.9425    0.0332 C   0  0  0  0  0  0  0  0  0  0  0  0
   -0.8598   -1.0318    0.3477 C   0  0  0  0  0  0  0  0  0  0  0  0
   -1.4084   -2.3070    0.5943 C   0  0  0  0  0  0  0  0  0  0  0  0
   -2.7222   -2.4685    0.9050 N   0  0  0  0  0  0  0  0  0  0  0  0
   -3.5232   -1.3985    0.9776 C   0  0  0  0  0  0  0  0  0  0  0  0
   -4.8570   -1.6174    1.2989 C   0  0  0  0  0  0  0  0  0  0  0  0
   -5.7739   -0.5709    1.4177 C   0  0  0  0  0  0  0  0  0  0  0  0
   -5.3506    0.7341    1.2133 C   0  0  0  0  0  0  0  0  0  0  0  0
   -4.0167    0.9749    0.8842 C   0  0  0  0  0  0  0  0  0  0  0  0
   -3.0754   -0.0812    0.7596 C   0  0  0  0  0  0  0  0  0  0  0  0
   -1.6976    0.1046    0.4438 C   0  0  0  0  0  0  0  0  0  0  0  0
   -1.1670    1.4713    0.2342 C   0  0  0  0  0  0  0  0  0  0  0  0
   -1.2747    2.0957   -1.0226 C   0  0  0  0  0  0  0  0  0  0  0  0
   -0.8113    3.4003   -1.2119 C   0  0  0  0  0  0  0  0  0  0  0  0
   -0.2399    4.0882   -0.1475 C   0  0  0  0  0  0  0  0  0  0  0  0
    0.1851    5.3467   -0.3251 F   0  0  0  0  0  0  0  0  0  0  0  0
   -0.1248    3.4962    1.1031 C   0  0  0  0  0  0  0  0  0  0  0  0
   -0.5808    2.1883    1.2921 C   0  0  0  0  0  0  0  0  0  0  0  0
   -0.5604   -3.5710    0.5570 C   0  0  0  0  0  0  0  0  0  0  0  0
   -1.1531   -4.8856    0.0953 C   0  0  0  0  0  0  0  0  0  0  0  0
   -0.1741   -4.1619   -0.7821 C   0  0  0  0  0  0  0  0  0  0  0  0
    4.5831    0.7116    0.2778 C   0  0  0  0  0  0  0  0  0  0  0  0
    5.2006    1.7201    1.2479 C   0  0  0  0  0  0  0  0  0  0  0  0
    6.4532    1.6402    1.3841 O   0  0  0  0  0  0  0  0  0  0  0  0
    4.3728    2.5148    1.7888 O   0  0  0  0  0  0  0  0  0  0  0  0
    0.0000    0.0000    0.0000 Mg  0  0  0  0  0 15  0  0  0  0  0  0
    4.9622   -1.3789    2.2771 O   0  0  0  0  0  0  0  0  0  0  0  0
    4.0331   -0.3188    2.5960 C   0  0  2  0  0  0  0  0  0  0  0  0
    2.7978   -0.5483    1.7159 C   0  0  0  0  0  0  0  0  0  0  0  0
    1.6314    0.4296    1.9193 C   0  0  2  0  0  0  0  0  0  0  0  0
    1.2468    0.4388    3.2900 O   0  0  0  0  0  0  0  0  0  0  0  0
    0.3973    0.0551    1.1344 C   0  0  0  0  0  0  0  0  0  0  0  0
    0.4013   -0.2703   -0.1697 C   0  0  0  0  0  0  0  0  0  0  0  0
   -0.7998   -0.7043   -0.9057 C   0  0  0  0  0  0  0  0  0  0  0  0
   -0.8701   -2.0428   -1.3340 C   0  0  0  0  0  0  0  0  0  0  0  0
   -1.9408   -2.5055   -2.0327 N   0  0  0  0  0  0  0  0  0  0  0  0
   -2.9429   -1.6772   -2.3487 C   0  0  0  0  0  0  0  0  0  0  0  0
   -3.9986   -2.2026   -3.0819 C   0  0  0  0  0  0  0  0  0  0  0  0
   -5.0893   -1.4228   -3.4692 C   0  0  0  0  0  0  0  0  0  0  0  0
   -5.1314   -0.0846   -3.1116 C   0  0  0  0  0  0  0  0  0  0  0  0
   -4.0807    0.4643   -2.3762 C   0  0  0  0  0  0  0  0  0  0  0  0
   -2.9659   -0.3192   -1.9752 C   0  0  0  0  0  0  0  0  0  0  0  0
   -1.8631    0.1749   -1.2186 C   0  0  0  0  0  0  0  0  0  0  0  0
   -1.8416    1.5832   -0.7669 C   0  0  0  0  0  0  0  0  0  0  0  0
   -2.6254    1.9907    0.3296 C   0  0  0  0  0  0  0  0  0  0  0  0
   -2.6130    3.3181    0.7630 C   0  0  0  0  0  0  0  0  0  0  0  0
   -1.8107    4.2419    0.1059 C   0  0  0  0  0  0  0  0  0  0  0  0
   -1.8071    5.5173    0.5183 F   0  0  0  0  0  0  0  0  0  0  0  0
   -1.0222    3.8669   -0.9748 C   0  0  0  0  0  0  0  0  0  0  0  0
   -1.0387    2.5400   -1.4113 C   0  0  0  0  0  0  0  0  0  0  0  0
    0.2315   -3.0445   -1.0093 C   0  0  0  0  0  0  0  0  0  0  0  0
    1.4545   -3.1178   -1.8996 C   0  0  0  0  0  0  0  0  0  0  0  0
    0.4769   -4.2491   -1.8867 C   0  0  0  0  0  0  0  0  0  0  0  0
    4.7427    1.0097    2.3475 C   0  0  0  0  0  0  0  0  0  0  0  0
    4.1808    2.2063    3.1101 C   0  0  0  0  0  0  0  0  0  0  0  0
    4.7069    3.3146    2.8106 O   0  0  0  0  0  0  0  0  0  0  0  0
    3.2502    1.9550    3.9288 O   0  0  0  0  0  0  0  0  0  0  0  0
    2.8128    2.2886    0.9100 H   0  0  0  0  0  0  0  0  0  0  0  0
    4.0527    2.3842   -0.9882 H   0  0  0  0  0  0  0  0  0  0  0  0
    2.4899    1.2476   -2.4629 H   0  0  0  0  0  0  0  0  0  0  0  0
    4.0531    0.4617   -2.4840 H   0  0  0  0  0  0  0  0  0  0  0  0
    3.0604   -1.2843   -0.8301 H   0  0  0  0  0  0  0  0  0  0  0  0
    2.1820   -0.9418   -3.4908 H   0  0  0  0  0  0  0  0  0  0  0  0
    0.3440   -0.3966   -1.9881 H   0  0  0  0  0  0  0  0  0  0  0  0
    1.2620   -1.2007    0.8399 H   0  0  0  0  0  0  0  0  0  0  0  0
   -5.1877   -2.6400    1.4667 H   0  0  0  0  0  0  0  0  0  0  0  0
   -6.8087   -0.7795    1.6773 H   0  0  0  0  0  0  0  0  0  0  0  0
   -6.0488    1.5605    1.3089 H   0  0  0  0  0  0  0  0  0  0  0  0
   -3.7095    2.0076    0.7274 H   0  0  0  0  0  0  0  0  0  0  0  0
   -1.7118    1.5634   -1.8646 H   0  0  0  0  0  0  0  0  0  0  0  0
   -0.8814    3.8842   -2.1793 H   0  0  0  0  0  0  0  0  0  0  0  0
    0.3528    4.0335    1.9161 H   0  0  0  0  0  0  0  0  0  0  0  0
   -0.4589    1.7179    2.2648 H   0  0  0  0  0  0  0  0  0  0  0  0
    0.1877   -3.6401    1.3464 H   0  0  0  0  0  0  0  0  0  0  0  0
   -0.8238   -5.7922    0.5875 H   0  0  0  0  0  0  0  0  0  0  0  0
   -2.1929   -4.9039   -0.2179 H   0  0  0  0  0  0  0  0  0  0  0  0
   -0.5526   -3.6888   -1.6827 H   0  0  0  0  0  0  0  0  0  0  0  0
    0.8286   -4.5618   -0.8833 H   0  0  0  0  0  0  0  0  0  0  0  0
    4.0765   -0.0543    0.8747 H   0  0  0  0  0  0  0  0  0  0  0  0
    5.3760    0.2368   -0.3102 H   0  0  0  0  0  0  0  0  0  0  0  0
    5.7224   -1.2505    2.8736 H   0  0  0  0  0  0  0  0  0  0  0  0
    3.7698   -0.4533    3.6501 H   0  0  0  0  0  0  0  0  0  0  0  0
    2.4453   -1.5749    1.9088 H   0  0  0  0  0  0  0  0  0  0  0  0
    3.1159   -0.5507    0.6658 H   0  0  0  0  0  0  0  0  0  0  0  0
    1.9090    1.4476    1.6307 H   0  0  0  0  0  0  0  0  0  0  0  0
    1.8992    1.0551    3.7219 H   0  0  0  0  0  0  0  0  0  0  0  0
   -0.5348    0.0549    1.6981 H   0  0  0  0  0  0  0  0  0  0  0  0
    1.3237   -0.2802   -0.7523 H   0  0  0  0  0  0  0  0  0  0  0  0
   -3.9631   -3.2547   -3.3610 H   0  0  0  0  0  0  0  0  0  0  0  0
   -5.8932   -1.8672   -4.0468 H   0  0  0  0  0  0  0  0  0  0  0  0
   -5.9703    0.5376   -3.4093 H   0  0  0  0  0  0  0  0  0  0  0  0
   -4.1352    1.5200   -2.1174 H   0  0  0  0  0  0  0  0  0  0  0  0
   -3.2318    1.2653    0.8669 H   0  0  0  0  0  0  0  0  0  0  0  0
   -3.2067    3.6285    1.6172 H   0  0  0  0  0  0  0  0  0  0  0  0
   -0.3854    4.6046   -1.4557 H   0  0  0  0  0  0  0  0  0  0  0  0
   -0.4049    2.2499   -2.2469 H   0  0  0  0  0  0  0  0  0  0  0  0
    0.4046   -3.1960    0.0573 H   0  0  0  0  0  0  0  0  0  0  0  0
    1.4908   -2.4991   -2.7870 H   0  0  0  0  0  0  0  0  0  0  0  0
    2.4167   -3.2565   -1.4187 H   0  0  0  0  0  0  0  0  0  0  0  0
   -0.1513   -4.3928   -2.7579 H   0  0  0  0  0  0  0  0  0  0  0  0
    0.7646   -5.1688   -1.3938 H   0  0  0  0  0  0  0  0  0  0  0  0
    4.7495    1.2429    1.2745 H   0  0  0  0  0  0  0  0  0  0  0  0
    5.7935    0.9187    2.6458 H   0  0  0  0  0  0  0  0  0  0  0  0
  2  1  1  0
  2  3  1  0
  3  4  1  0
  4  5  1  0
  4  6  1  0
  6  7  2  0
  7  8  1  0
  8  9  2  0
  9 10  1  0
 10 11  2  0
 11 12  1  0
 12 13  2  0
 13 14  1  0
 14 15  2  0
 15 16  1  0
 11 16  1  0
 16 17  2  0
  8 17  1  0
 17 18  1  0
 18 19  2  0
 19 20  1  0
 20 21  2  0
 21 22  1  0
 21 23  1  0
 23 24  2  0
 18 24  1  0
  9 25  1  0
 25 26  1  0
 26 27  1  0
 25 27  1  0
  2 28  1  0
 28 29  1  0
 29 30  2  0
 29 31  1  0
 34 33  1  0
 34 35  1  0
 35 36  1  0
 36 37  1  0
 36 38  1  0
 38 39  2  0
 39 40  1  0
 40 41  2  0
 41 42  1  0
 42 43  2  0
 43 44  1  0
 44 45  2  0
 45 46  1  0
 46 47  2  0
 47 48  1  0
 43 48  1  0
 48 49  2  0
 40 49  1  0
 49 50  1  0
 50 51  2  0
 51 52  1  0
 52 53  2  0
 53 54  1  0
 53 55  1  0
 55 56  2  0
 50 56  1  0
 41 57  1  0
 57 58  1  0
 58 59  1  0
 57 59  1  0
 34 60  1  0
 60 61  1  0
 61 62  2  0
 61 63  1  0
  1 64  1  0
  2 65  1  6
  3 66  1  0
  3 67  1  0
  4 68  1  1
  5 69  1  0
  6 70  1  0
  7 71  1  0
 12 72  1  0
 13 73  1  0
 14 74  1  0
 15 75  1  0
 19 76  1  0
 20 77  1  0
 23 78  1  0
 24 79  1  0
 25 80  1  0
 26 81  1  0
 26 82  1  0
 27 83  1  0
 27 84  1  0
 28 85  1  0
 28 86  1  0
 33 87  1  0
 34 88  1  1
 35 89  1  0
 35 90  1  0
 36 91  1  6
 37 92  1  0
 38 93  1  0
 39 94  1  0
 44 95  1  0
 45 96  1  0
 46 97  1  0
 47 98  1  0
 51 99  1  0
 52100  1  0
 55101  1  0
 56102  1  0
 57103  1  0
 58104  1  0
 58105  1  0
 59106  1  0
 59107  1  0
 60108  1  0
 60109  1  0
M  CHG  3  31  -1  32   2  63  -1
M  END
$$$$
