
     RDKit          3D

109114  0  0  0  0  0  0  0  0999 V2000
    5.3216    1.2661   -0.6926 O   0  0  0  0  0  0  0  0  0  0  0  0
    4.9736    0.2191    0.2266 C   0  0  2  0  0  0  0  0  0  0  0  0
    3.4913    0.3854    0.6124 C   0  0  0  0  0  0  0  0  0  0  0  0
    2.5766   -0.2046   -0.4698 C   0  0  2  0  0  0  0  0  0  0  0  0
    2.8261    0.4430   -1.7220 O   0  0  0  0  0  0  0  0  0  0  0  0
    1.1258   -0.0534   -0.0908 C   0  0  0  0  0  0  0  0  0  0  0  0
    0.1522    0.5246   -0.8129 C   0  0  0  0  0  0  0  0  0  0  0  0
   -1.2297    0.6349   -0.3053 C   0  0  0  0  0  0  0  0  0  0  0  0
   -1.6983    1.8877    0.1349 C   0  0  0  0  0  0  0  0  0  0  0  0
   -2.9500    2.0434    0.6410 N   0  0  0  0  0  0  0  0  0  0  0  0
   -3.7610    0.9850    0.7272 C   0  0  0  0  0  0  0  0  0  0  0  0
   -5.0222    1.1927    1.2635 C   0  0  0  0  0  0  0  0  0  0  0  0
   -5.9413    0.1544    1.4127 C   0  0  0  0  0  0  0  0  0  0  0  0
   -5.6064   -1.1222    0.9849 C   0  0  0  0  0  0  0  0  0  0  0  0
   -4.3473   -1.3482    0.4292 C   0  0  0  0  0  0  0  0  0  0  0  0
   -3.3933   -0.3061    0.3033 C   0  0  0  0  0  0  0  0  0  0  0  0
   -2.0906   -0.4803   -0.2348 C   0  0  0  0  0  0  0  0  0  0  0  0
   -1.6639   -1.7963   -0.7532 C   0  0  0  0  0  0  0  0  0  0  0  0
   -1.0882   -2.7626    0.0923 C   0  0  0  0  0  0  0  0  0  0  0  0
   -0.6863   -4.0041   -0.4090 C   0  0  0  0  0  0  0  0  0  0  0  0
   -0.8747   -4.2911   -1.7564 C   0  0  0  0  0  0  0  0  0  0  0  0
   -0.5067   -5.4863   -2.2410 F   0  0  0  0  0  0  0  0  0  0  0  0
   -1.4494   -3.3582   -2.6113 C   0  0  0  0  0  0  0  0  0  0  0  0
   -1.8341   -2.1111   -2.1125 C   0  0  0  0  0  0  0  0  0  0  0  0
   -0.8171    3.1287    0.0953 C   0  0  0  0  0  0  0  0  0  0  0  0
   -0.6858    3.8989   -1.2006 C   0  0  0  0  0  0  0  0  0  0  0  0
   -1.4252    4.5056   -0.0558 C   0  0  0  0  0  0  0  0  0  0  0  0
    5.8975    0.3041    1.4270 C   0  0  0  0  0  0  0  0  0  0  0  0
    5.7844   -0.9071    2.3571 C   0  0  0  0  0  0  0  0  0  0  0  0
    6.3667   -0.7669    3.4691 O   0  0  0  0  0  0  0  0  0  0  0  0
    5.1244   -1.8911    1.9247 O   0  0  0  0  0  0  0  0  0  0  0  0
    0.0000    0.0000    0.0000 Mg  0  0  0  0  0 15  0  0  0  0  0  0
    4.3744    3.2017   -0.7904 O   0  0  0  0  0  0  0  0  0  0  0  0
    4.3293    1.9316   -0.1062 C   0  0  2  0  0  0  0  0  0  0  0  0
    2.9260    1.3591   -0.3528 C   0  0  0  0  0  0  0  0  0  0  0  0
    2.6467   -0.0078    0.2807 C   0  0  2  0  0  0  0  0  0  0  0  0
    3.5859   -0.9803   -0.1692 O   0  0  0  0  0  0  0  0  0  0  0  0
    1.2949   -0.5200   -0.1256 C   0  0  0  0  0  0  0  0  0  0  0  0
    0.2258   -0.5120    0.6851 C   0  0  0  0  0  0  0  0  0  0  0  0
   -1.0896   -1.0331    0.2682 C   0  0  0  0  0  0  0  0  0  0  0  0
   -1.5027   -2.2943    0.7273 C   0  0  0  0  0  0  0  0  0  0  0  0
   -2.7020   -2.8217    0.3676 N   0  0  0  0  0  0  0  0  0  0  0  0
   -3.5187   -2.1343   -0.4368 C   0  0  0  0  0  0  0  0  0  0  0  0
   -4.7294   -2.7219   -0.7717 C   0  0  0  0  0  0  0  0  0  0  0  0
   -5.6508   -2.0902   -1.6072 C   0  0  0  0  0  0  0  0  0  0  0  0
   -5.3591   -0.8324   -2.1145 C   0  0  0  0  0  0  0  0  0  0  0  0
   -4.1492   -0.2222   -1.7912 C   0  0  0  0  0  0  0  0  0  0  0  0
   -3.2041   -0.8616   -0.9477 C   0  0  0  0  0  0  0  0  0  0  0  0
   -1.9495   -0.2980   -0.5810 C   0  0  0  0  0  0  0  0  0  0  0  0
   -1.5516    1.0419   -1.0681 C   0  0  0  0  0  0  0  0  0  0  0  0
   -0.8278    1.1878   -2.2625 C   0  0  0  0  0  0  0  0  0  0  0  0
   -0.4473    2.4532   -2.7183 C   0  0  0  0  0  0  0  0  0  0  0  0
   -0.8047    3.5802   -1.9890 C   0  0  0  0  0  0  0  0  0  0  0  0
   -0.4546    4.7968   -2.4264 F   0  0  0  0  0  0  0  0  0  0  0  0
   -1.5234    3.4639   -0.8067 C   0  0  0  0  0  0  0  0  0  0  0  0
   -1.8887    2.1973   -0.3440 C   0  0  0  0  0  0  0  0  0  0  0  0
   -0.6208   -3.1505    1.6126 C   0  0  0  0  0  0  0  0  0  0  0  0
   -1.2203   -4.0557    2.6650 C   0  0  0  0  0  0  0  0  0  0  0  0
   -0.4899   -2.8187    3.0804 C   0  0  0  0  0  0  0  0  0  0  0  0
    4.6629    2.1773    1.3648 C   0  0  0  0  0  0  0  0  0  0  0  0
    5.2193    0.9753    2.1225 C   0  0  0  0  0  0  0  0  0  0  0  0
    5.3817   -0.0785    1.4456 O   0  0  0  0  0  0  0  0  0  0  0  0
    5.4501    1.1794    3.3445 O   0  0  0  0  0  0  0  0  0  0  0  0
    4.5983    1.2691   -1.3553 H   0  0  0  0  0  0  0  0  0  0  0  0
    5.1369   -0.7288   -0.2996 H   0  0  0  0  0  0  0  0  0  0  0  0
    3.2735    1.4564    0.7354 H   0  0  0  0  0  0  0  0  0  0  0  0
    3.2722   -0.1103    1.5683 H   0  0  0  0  0  0  0  0  0  0  0  0
    2.8009   -1.2734   -0.5935 H   0  0  0  0  0  0  0  0  0  0  0  0
    2.5315   -0.1950   -2.3917 H   0  0  0  0  0  0  0  0  0  0  0  0
    0.8783   -0.4804    0.8781 H   0  0  0  0  0  0  0  0  0  0  0  0
    0.3422    0.9785   -1.7820 H   0  0  0  0  0  0  0  0  0  0  0  0
   -5.2971    2.1949    1.5770 H   0  0  0  0  0  0  0  0  0  0  0  0
   -6.9138    0.3486    1.8568 H   0  0  0  0  0  0  0  0  0  0  0  0
   -6.3131   -1.9417    1.0850 H   0  0  0  0  0  0  0  0  0  0  0  0
   -4.1057   -2.3596    0.0965 H   0  0  0  0  0  0  0  0  0  0  0  0
   -0.9413   -2.5420    1.1480 H   0  0  0  0  0  0  0  0  0  0  0  0
   -0.2365   -4.7461    0.2437 H   0  0  0  0  0  0  0  0  0  0  0  0
   -1.5895   -3.6032   -3.6608 H   0  0  0  0  0  0  0  0  0  0  0  0
   -2.2750   -1.3812   -2.7875 H   0  0  0  0  0  0  0  0  0  0  0  0
    0.0742    3.0694    0.7175 H   0  0  0  0  0  0  0  0  0  0  0  0
   -1.2674    3.5619   -2.0484 H   0  0  0  0  0  0  0  0  0  0  0  0
    0.2950    4.2893   -1.4469 H   0  0  0  0  0  0  0  0  0  0  0  0
   -0.9557    5.3199    0.4813 H   0  0  0  0  0  0  0  0  0  0  0  0
   -2.5037    4.5840   -0.1350 H   0  0  0  0  0  0  0  0  0  0  0  0
    5.6875    1.2201    1.9934 H   0  0  0  0  0  0  0  0  0  0  0  0
    6.9398    0.3858    1.0949 H   0  0  0  0  0  0  0  0  0  0  0  0
    5.2736    3.5437   -0.6514 H   0  0  0  0  0  0  0  0  0  0  0  0
    5.0788    1.2940   -0.5929 H   0  0  0  0  0  0  0  0  0  0  0  0
    2.7887    1.2965   -1.4425 H   0  0  0  0  0  0  0  0  0  0  0  0
    2.1782    2.0889   -0.0087 H   0  0  0  0  0  0  0  0  0  0  0  0
    2.6940    0.0489    1.3755 H   0  0  0  0  0  0  0  0  0  0  0  0
    4.3847   -0.8293    0.4076 H   0  0  0  0  0  0  0  0  0  0  0  0
    1.2260   -0.9448   -1.1265 H   0  0  0  0  0  0  0  0  0  0  0  0
    0.2861   -0.1053    1.6867 H   0  0  0  0  0  0  0  0  0  0  0  0
   -4.9622   -3.7042   -0.3684 H   0  0  0  0  0  0  0  0  0  0  0  0
   -6.5930   -2.5766   -1.8461 H   0  0  0  0  0  0  0  0  0  0  0  0
   -6.0716   -0.3174   -2.7504 H   0  0  0  0  0  0  0  0  0  0  0  0
   -3.9388    0.7640   -2.2059 H   0  0  0  0  0  0  0  0  0  0  0  0
   -0.5341    0.3067   -2.8319 H   0  0  0  0  0  0  0  0  0  0  0  0
    0.1307    2.5605   -3.6311 H   0  0  0  0  0  0  0  0  0  0  0  0
   -1.7734    4.3546   -0.2373 H   0  0  0  0  0  0  0  0  0  0  0  0
   -2.4423    2.1098    0.5873 H   0  0  0  0  0  0  0  0  0  0  0  0
    0.2711   -3.5334    1.1264 H   0  0  0  0  0  0  0  0  0  0  0  0
   -0.7375   -5.0111    2.8254 H   0  0  0  0  0  0  0  0  0  0  0  0
   -2.2980   -4.0711    2.7823 H   0  0  0  0  0  0  0  0  0  0  0  0
    0.4946   -2.9148    3.5175 H   0  0  0  0  0  0  0  0  0  0  0  0
   -1.0727   -1.9994    3.4883 H   0  0  0  0  0  0  0  0  0  0  0  0
    5.4213    2.9667    1.4467 H   0  0  0  0  0  0  0  0  0  0  0  0
    3.7831    2.5611    1.8947 H   0  0  0  0  0  0  0  0  0  0  0  0
  2  1  1  0
  2  3  1  0
  3  4  1  0
  4  5  1  0
  4  6  1  0
  6  7  2  0
  7  8  1  0
  8  9  2  0
  9 10  1  0
 10 11  2  0
 11 12  1  0
 12 13  2  0
 13 14  1  0
 14 15  2  0
 15 16  1  0
 11 16  1  0
 16 17  2  0
  8 17  1  0
 17 18  1  0
 18 19  2  0
 19 20  1  0
 20 21  2  0
 21 22  1  0
 21 23  1  0
 23 24  2  0
 18 24  1  0
  9 25  1  0
 25 26  1  0
 26 27  1  0
 25 27  1  0
  2 28  1  0
 28 29  1  0
 29 30  2  0
 29 31  1  0
 34 33  1  0
 34 35  1  0
 35 36  1  0
 36 37  1  0
 36 38  1  0
 38 39  2  0
 39 40  1  0
 40 41  2  0
 41 42  1  0
 42 43  2  0
 43 44  1  0
 44 45  2  0
 45 46  1  0
 46 47  2  0
 47 48  1  0
 43 48  1  0
 48 49  2  0
 40 49  1  0
 49 50  1  0
 50 51  2  0
 51 52  1  0
 52 53  2  0
 53 54  1  0
 53 55  1  0
 55 56  2  0
 50 56  1  0
 41 57  1  0
 57 58  1  0
 58 59  1  0
 57 59  1  0
 34 60  1  0
 60 61  1  0
 61 62  2  0
 61 63  1  0
  1 64  1  0
  2 65  1  6
  3 66  1  0
  3 67  1  0
  4 68  1  6
  5 69  1  0
  6 70  1  0
  7 71  1  0
 12 72  1  0
 13 73  1  0
 14 74  1  0
 15 75  1  0
 19 76  1  0
 20 77  1  0
 23 78  1  0
 24 79  1  0
 25 80  1  0
 26 81  1  0
 26 82  1  0
 27 83  1  0
 27 84  1  0
 28 85  1  0
 28 86  1  0
 33 87  1  0
 34 88  1  6
 35 89  1  0
 35 90  1  0
 36 91  1  1
 37 92  1  0
 38 93  1  0
 39 94  1  0
 44 95  1  0
 45 96  1  0
 46 97  1  0
 47 98  1  0
 51 99  1  0
 52100  1  0
 55101  1  0
 56102  1  0
 57103  1  0
 58104  1  0
 58105  1  0
 59106  1  0
 59107  1  0
 60108  1  0
 60109  1  0
M  CHG  3  31  -1  32   2  63  -1
M  END
$$$$
