
     RDKit          3D

 45 48  0  0  0  0  0  0  0  0999 V2000
    3.3158   -0.5714   -1.0245 C   0  0  0  0  0  0  0  0  0  0  0  0
    2.4804    0.4858   -1.3918 C   0  0  0  0  0  0  0  0  0  0  0  0
    1.4625    0.9068   -0.5060 C   0  0  0  0  0  0  0  0  0  0  0  0
    1.2037    0.1865    0.6884 C   0  0  0  0  0  0  0  0  0  0  0  0
    3.1619   -1.2171    0.2038 C   0  0  0  0  0  0  0  0  0  0  0  0
    2.1191   -0.8345    1.0897 C   0  0  0  0  0  0  0  0  0  0  0  0
    2.0532   -1.4792    2.3502 C   0  0  0  0  0  0  0  0  0  0  0  0
    2.9492   -2.4975    2.6836 C   0  0  0  0  0  0  0  0  0  0  0  0
    3.9375   -2.8878    1.7852 C   0  0  0  0  0  0  0  0  0  0  0  0
    4.0500   -2.2479    0.5537 C   0  0  0  0  0  0  0  0  0  0  0  0
   -0.0218    0.5662    1.5245 C   0  0  0  0  0  0  0  0  0  0  0  0
   -1.2999    0.6658    0.6955 C   0  0  0  0  0  0  0  0  0  0  0  0
   -3.6139    0.9215   -0.8970 C   0  0  0  0  0  0  0  0  0  0  0  0
   -3.1135    2.0429   -0.2263 C   0  0  0  0  0  0  0  0  0  0  0  0
   -1.9343    1.9247    0.5454 C   0  0  0  0  0  0  0  0  0  0  0  0
   -3.0067   -0.3291   -0.7605 C   0  0  0  0  0  0  0  0  0  0  0  0
   -1.8581   -0.4780    0.0576 C   0  0  0  0  0  0  0  0  0  0  0  0
   -1.3067   -1.7714    0.2086 C   0  0  0  0  0  0  0  0  0  0  0  0
   -1.8620   -2.8677   -0.4544 C   0  0  0  0  0  0  0  0  0  0  0  0
   -2.9782   -2.7031   -1.2712 C   0  0  0  0  0  0  0  0  0  0  0  0
   -3.5528   -1.4420   -1.4217 C   0  0  0  0  0  0  0  0  0  0  0  0
    0.7194    2.0617   -0.7688 O   0  0  0  0  0  0  0  0  0  0  0  0
    2.6765    1.0973   -2.7252 C   0  0  0  0  0  0  0  0  0  0  0  0
    3.9554    1.1802   -3.2695 O   0  0  0  0  0  0  0  0  0  0  0  0
    1.6898    1.4948   -3.4014 O   0  0  0  0  0  0  0  0  0  0  0  0
   -1.3485    3.0491    1.1375 O   0  0  0  0  0  0  0  0  0  0  0  0
   -3.8669    3.3123   -0.3249 C   0  0  0  0  0  0  0  0  0  0  0  0
   -4.0117    4.1364    0.7876 O   0  0  0  0  0  0  0  0  0  0  0  0
   -4.4316    3.6285   -1.4069 O   0  0  0  0  0  0  0  0  0  0  0  0
    4.0978   -0.8952   -1.7032 H   0  0  0  0  0  0  0  0  0  0  0  0
    1.3478   -1.2002    3.1141 H   0  0  0  0  0  0  0  0  0  0  0  0
    2.8815   -2.9806    3.6501 H   0  0  0  0  0  0  0  0  0  0  0  0
    4.6286   -3.6775    2.0504 H   0  0  0  0  0  0  0  0  0  0  0  0
    4.8388   -2.5536   -0.1238 H   0  0  0  0  0  0  0  0  0  0  0  0
   -0.2545   -0.1573    2.3229 H   0  0  0  0  0  0  0  0  0  0  0  0
    0.2139    1.5111    2.0553 H   0  0  0  0  0  0  0  0  0  0  0  0
   -4.5106    1.0156   -1.5005 H   0  0  0  0  0  0  0  0  0  0  0  0
   -0.4545   -1.9579    0.8430 H   0  0  0  0  0  0  0  0  0  0  0  0
   -1.4256   -3.8507   -0.3308 H   0  0  0  0  0  0  0  0  0  0  0  0
   -3.4048   -3.5567   -1.7821 H   0  0  0  0  0  0  0  0  0  0  0  0
   -4.4284   -1.3371   -2.0516 H   0  0  0  0  0  0  0  0  0  0  0  0
    0.9585    2.7330   -1.4857 H   0  0  0  0  0  0  0  0  0  0  0  0
    4.1043    1.5760   -4.1901 H   0  0  0  0  0  0  0  0  0  0  0  0
   -1.6180    3.9996    0.9238 H   0  0  0  0  0  0  0  0  0  0  0  0
   -4.5428    4.9972    0.7318 H   0  0  0  0  0  0  0  0  0  0  0  0
  1  5  2  0
  2  3  2  0
  3  4  1  0
  4  6  2  0
  5  6  1  0
  5 10  1  0
  6  7  1  0
  7  8  2  0
  8  9  1  0
  9 10  2  0
  4 11  1  0
 11 12  1  0
 12 17  2  0
 12 15  1  0
 16 13  2  0
 13 14  1  0
 14 15  2  0
 16 17  1  0
 16 21  1  0
 17 18  1  0
 18 19  2  0
 19 20  1  0
 20 21  2  0
  3 22  1  0
  2 23  1  0
 23 24  1  0
 23 25  2  0
 15 26  1  0
 14 27  1  0
  1  2  1  0
 27 28  1  0
 27 29  2  0
  1 30  1  0
  7 31  1  0
  8 32  1  0
  9 33  1  0
 10 34  1  0
 11 35  1  0
 11 36  1  0
 13 37  1  0
 18 38  1  0
 19 39  1  0
 20 40  1  0
 21 41  1  0
 22 42  1  0
 24 43  1  0
 26 44  1  0
 28 45  1  0
M  END
$$$$
