
     RDKit          3D

 45 48  0  0  0  0  0  0  0  0999 V2000
   -3.5352    0.9869    0.8542 C   0  0  0  0  0  0  0  0  0  0  0  0
   -3.0069    0.4357    2.0267 C   0  0  0  0  0  0  0  0  0  0  0  0
   -1.9098   -0.4527    1.9462 C   0  0  0  0  0  0  0  0  0  0  0  0
   -1.2914   -0.7157    0.6981 C   0  0  0  0  0  0  0  0  0  0  0  0
   -2.9760    0.6977   -0.3926 C   0  0  0  0  0  0  0  0  0  0  0  0
   -1.8486   -0.1574   -0.4872 C   0  0  0  0  0  0  0  0  0  0  0  0
   -1.3263   -0.4364   -1.7712 C   0  0  0  0  0  0  0  0  0  0  0  0
   -1.8909    0.1351   -2.9133 C   0  0  0  0  0  0  0  0  0  0  0  0
   -2.9879    0.9862   -2.8039 C   0  0  0  0  0  0  0  0  0  0  0  0
   -3.5317    1.2660   -1.5512 C   0  0  0  0  0  0  0  0  0  0  0  0
   -0.0531   -1.6077    0.6497 C   0  0  0  0  0  0  0  0  0  0  0  0
    1.2021   -0.8463    0.2164 C   0  0  0  0  0  0  0  0  0  0  0  0
    3.3829    0.7390   -0.6206 C   0  0  0  0  0  0  0  0  0  0  0  0
    2.5842    1.1744    0.4398 C   0  0  0  0  0  0  0  0  0  0  0  0
    1.5315    0.3526    0.8989 C   0  0  0  0  0  0  0  0  0  0  0  0
    3.1559   -0.4953   -1.2326 C   0  0  0  0  0  0  0  0  0  0  0  0
    2.0761   -1.3176   -0.8116 C   0  0  0  0  0  0  0  0  0  0  0  0
    1.9332   -2.5863   -1.4273 C   0  0  0  0  0  0  0  0  0  0  0  0
    2.7933   -2.9885   -2.4517 C   0  0  0  0  0  0  0  0  0  0  0  0
    3.8205   -2.1523   -2.8776 C   0  0  0  0  0  0  0  0  0  0  0  0
    4.0072   -0.9142   -2.2688 C   0  0  0  0  0  0  0  0  0  0  0  0
   -1.4319   -1.1074    3.0867 O   0  0  0  0  0  0  0  0  0  0  0  0
   -3.5932    0.8475    3.3210 C   0  0  0  0  0  0  0  0  0  0  0  0
   -2.7768    1.0779    4.4249 O   0  0  0  0  0  0  0  0  0  0  0  0
   -4.8343    1.0473    3.4166 O   0  0  0  0  0  0  0  0  0  0  0  0
    0.8217    0.6836    2.0574 O   0  0  0  0  0  0  0  0  0  0  0  0
    2.8456    2.5123    1.0157 C   0  0  0  0  0  0  0  0  0  0  0  0
    1.7903    3.3262    1.4182 O   0  0  0  0  0  0  0  0  0  0  0  0
    4.0268    2.9461    1.0953 O   0  0  0  0  0  0  0  0  0  0  0  0
   -4.3792    1.6658    0.9158 H   0  0  0  0  0  0  0  0  0  0  0  0
   -0.4913   -1.1032   -1.9146 H   0  0  0  0  0  0  0  0  0  0  0  0
   -1.4773   -0.0874   -3.8887 H   0  0  0  0  0  0  0  0  0  0  0  0
   -3.4217    1.4261   -3.6927 H   0  0  0  0  0  0  0  0  0  0  0  0
   -4.3890    1.9259   -1.4878 H   0  0  0  0  0  0  0  0  0  0  0  0
   -0.3213   -2.4480   -0.0103 H   0  0  0  0  0  0  0  0  0  0  0  0
    0.1677   -2.0783    1.6293 H   0  0  0  0  0  0  0  0  0  0  0  0
    4.1920    1.3697   -0.9738 H   0  0  0  0  0  0  0  0  0  0  0  0
    1.1911   -3.3046   -1.1247 H   0  0  0  0  0  0  0  0  0  0  0  0
    2.6663   -3.9599   -2.9124 H   0  0  0  0  0  0  0  0  0  0  0  0
    4.4833   -2.4707   -3.6720 H   0  0  0  0  0  0  0  0  0  0  0  0
    4.8243   -0.2855   -2.6031 H   0  0  0  0  0  0  0  0  0  0  0  0
   -1.9222   -1.1224    3.9706 H   0  0  0  0  0  0  0  0  0  0  0  0
   -3.1697    1.3792    5.3086 H   0  0  0  0  0  0  0  0  0  0  0  0
    1.1089    1.4061    2.7035 H   0  0  0  0  0  0  0  0  0  0  0  0
    1.9609    4.2505    1.7959 H   0  0  0  0  0  0  0  0  0  0  0  0
  1  5  2  0
  2  3  2  0
  3  4  1  0
  4  6  2  0
  5  6  1  0
  5 10  1  0
  6  7  1  0
  7  8  2  0
  8  9  1  0
  9 10  2  0
  4 11  1  0
 11 12  1  0
 12 17  2  0
 12 15  1  0
 16 13  2  0
 13 14  1  0
 14 15  2  0
 16 17  1  0
 16 21  1  0
 17 18  1  0
 18 19  2  0
 19 20  1  0
 20 21  2  0
  3 22  1  0
  2 23  1  0
 23 24  1  0
 23 25  2  0
 15 26  1  0
 14 27  1  0
  1  2  1  0
 27 28  1  0
 27 29  2  0
  1 30  1  0
  7 31  1  0
  8 32  1  0
  9 33  1  0
 10 34  1  0
 11 35  1  0
 11 36  1  0
 13 37  1  0
 18 38  1  0
 19 39  1  0
 20 40  1  0
 21 41  1  0
 22 42  1  0
 24 43  1  0
 26 44  1  0
 28 45  1  0
M  END
$$$$
