
     RDKit          3D

 45 48  0  0  0  0  0  0  0  0999 V2000
    3.5558    0.2271   -0.6547 C   0  0  0  0  0  0  0  0  0  0  0  0
    3.2802   -1.1432   -0.7009 C   0  0  0  0  0  0  0  0  0  0  0  0
    2.1682   -1.6536    0.0069 C   0  0  0  0  0  0  0  0  0  0  0  0
    1.2699   -0.7744    0.6637 C   0  0  0  0  0  0  0  0  0  0  0  0
    2.7502    1.0974    0.0826 C   0  0  0  0  0  0  0  0  0  0  0  0
    1.6108    0.6049    0.7698 C   0  0  0  0  0  0  0  0  0  0  0  0
    0.8720    1.5084    1.5652 C   0  0  0  0  0  0  0  0  0  0  0  0
    1.2130    2.8614    1.6201 C   0  0  0  0  0  0  0  0  0  0  0  0
    2.3060    3.3395    0.9019 C   0  0  0  0  0  0  0  0  0  0  0  0
    3.0779    2.4624    0.1421 C   0  0  0  0  0  0  0  0  0  0  0  0
   -0.0150   -1.3419    1.2713 C   0  0  0  0  0  0  0  0  0  0  0  0
   -1.2863   -0.6896    0.7231 C   0  0  0  0  0  0  0  0  0  0  0  0
   -3.5453    0.7079   -0.2311 C   0  0  0  0  0  0  0  0  0  0  0  0
   -3.2854    0.6768    1.1427 C   0  0  0  0  0  0  0  0  0  0  0  0
   -2.1875   -0.0706    1.6265 C   0  0  0  0  0  0  0  0  0  0  0  0
   -2.7378    0.0093   -1.1309 C   0  0  0  0  0  0  0  0  0  0  0  0
   -1.6121   -0.7170   -0.6636 C   0  0  0  0  0  0  0  0  0  0  0  0
   -0.8716   -1.4711   -1.6006 C   0  0  0  0  0  0  0  0  0  0  0  0
   -1.1971   -1.4488   -2.9583 C   0  0  0  0  0  0  0  0  0  0  0  0
   -2.2764   -0.6929   -3.4090 C   0  0  0  0  0  0  0  0  0  0  0  0
   -3.0500    0.0274   -2.5007 C   0  0  0  0  0  0  0  0  0  0  0  0
    1.9491   -3.0330    0.0963 O   0  0  0  0  0  0  0  0  0  0  0  0
    4.1414   -2.0054   -1.5398 C   0  0  0  0  0  0  0  0  0  0  0  0
    3.5899   -3.0470   -2.2807 O   0  0  0  0  0  0  0  0  0  0  0  0
    5.3759   -1.7664   -1.6319 O   0  0  0  0  0  0  0  0  0  0  0  0
   -1.9857   -0.2370    3.0013 O   0  0  0  0  0  0  0  0  0  0  0  0
   -4.1473    1.4781    2.0394 C   0  0  0  0  0  0  0  0  0  0  0  0
   -3.5999    2.1551    3.1257 O   0  0  0  0  0  0  0  0  0  0  0  0
   -5.3778    1.5975    1.7920 O   0  0  0  0  0  0  0  0  0  0  0  0
    4.4076    0.6203   -1.1995 H   0  0  0  0  0  0  0  0  0  0  0  0
    0.0526    1.1827    2.1805 H   0  0  0  0  0  0  0  0  0  0  0  0
    0.6321    3.5399    2.2318 H   0  0  0  0  0  0  0  0  0  0  0  0
    2.5667    4.3890    0.9483 H   0  0  0  0  0  0  0  0  0  0  0  0
    3.9378    2.8494   -0.3920 H   0  0  0  0  0  0  0  0  0  0  0  0
    0.0727   -1.2354    2.3717 H   0  0  0  0  0  0  0  0  0  0  0  0
   -0.1138   -2.4339    1.1044 H   0  0  0  0  0  0  0  0  0  0  0  0
   -4.3863    1.2832   -0.6037 H   0  0  0  0  0  0  0  0  0  0  0  0
   -0.0630   -2.1127   -1.2995 H   0  0  0  0  0  0  0  0  0  0  0  0
   -0.6152   -2.0298   -3.6624 H   0  0  0  0  0  0  0  0  0  0  0  0
   -2.5251   -0.6796   -4.4624 H   0  0  0  0  0  0  0  0  0  0  0  0
   -3.8993    0.5918   -2.8679 H   0  0  0  0  0  0  0  0  0  0  0  0
    2.6313   -3.7266   -0.1786 H   0  0  0  0  0  0  0  0  0  0  0  0
    4.1707   -3.6291   -2.8724 H   0  0  0  0  0  0  0  0  0  0  0  0
   -2.6729    0.0081    3.7011 H   0  0  0  0  0  0  0  0  0  0  0  0
   -4.1809    2.7213    3.7324 H   0  0  0  0  0  0  0  0  0  0  0  0
  1  5  2  0
  2  3  2  0
  3  4  1  0
  4  6  2  0
  5  6  1  0
  5 10  1  0
  6  7  1  0
  7  8  2  0
  8  9  1  0
  9 10  2  0
  4 11  1  0
 11 12  1  0
 12 17  2  0
 12 15  1  0
 16 13  2  0
 13 14  1  0
 14 15  2  0
 16 17  1  0
 16 21  1  0
 17 18  1  0
 18 19  2  0
 19 20  1  0
 20 21  2  0
  3 22  1  0
  2 23  1  0
 23 24  1  0
 23 25  2  0
 15 26  1  0
 14 27  1  0
  1  2  1  0
 27 28  1  0
 27 29  2  0
  1 30  1  0
  7 31  1  0
  8 32  1  0
  9 33  1  0
 10 34  1  0
 11 35  1  0
 11 36  1  0
 13 37  1  0
 18 38  1  0
 19 39  1  0
 20 40  1  0
 21 41  1  0
 22 42  1  0
 24 43  1  0
 26 44  1  0
 28 45  1  0
M  END
$$$$
