
     RDKit          3D

 45 48  0  0  0  0  0  0  0  0999 V2000
    3.7170    0.4947   -0.5312 C   0  0  0  0  0  0  0  0  0  0  0  0
    3.3587    1.4276    0.4477 C   0  0  0  0  0  0  0  0  0  0  0  0
    2.2057    1.2036    1.2348 C   0  0  0  0  0  0  0  0  0  0  0  0
    1.3669    0.0898    0.9768 C   0  0  0  0  0  0  0  0  0  0  0  0
    2.9375   -0.6408   -0.7629 C   0  0  0  0  0  0  0  0  0  0  0  0
    1.7551   -0.8596   -0.0108 C   0  0  0  0  0  0  0  0  0  0  0  0
    1.0101   -2.0338   -0.2635 C   0  0  0  0  0  0  0  0  0  0  0  0
    1.4123   -2.9398   -1.2471 C   0  0  0  0  0  0  0  0  0  0  0  0
    2.5654   -2.7024   -1.9912 C   0  0  0  0  0  0  0  0  0  0  0  0
    3.3281   -1.5608   -1.7503 C   0  0  0  0  0  0  0  0  0  0  0  0
    0.0780   -0.0769    1.7798 C   0  0  0  0  0  0  0  0  0  0  0  0
   -1.1816    0.0648    0.9193 C   0  0  0  0  0  0  0  0  0  0  0  0
   -3.3561    0.3359   -0.8619 C   0  0  0  0  0  0  0  0  0  0  0  0
   -2.4264    1.3723   -0.7528 C   0  0  0  0  0  0  0  0  0  0  0  0
   -1.3274    1.2322    0.1242 C   0  0  0  0  0  0  0  0  0  0  0  0
   -3.2757   -0.7908   -0.0420 C   0  0  0  0  0  0  0  0  0  0  0  0
   -2.2153   -0.9228    0.8945 C   0  0  0  0  0  0  0  0  0  0  0  0
   -2.2442   -2.0374    1.7704 C   0  0  0  0  0  0  0  0  0  0  0  0
   -3.2469   -3.0045    1.6700 C   0  0  0  0  0  0  0  0  0  0  0  0
   -4.2505   -2.8815    0.7145 C   0  0  0  0  0  0  0  0  0  0  0  0
   -4.2723   -1.7770   -0.1327 C   0  0  0  0  0  0  0  0  0  0  0  0
    1.8849    2.0582    2.2953 O   0  0  0  0  0  0  0  0  0  0  0  0
    4.1823    2.6486    0.5873 C   0  0  0  0  0  0  0  0  0  0  0  0
    3.5821    3.8822    0.8240 O   0  0  0  0  0  0  0  0  0  0  0  0
    5.4324    2.5873    0.4360 O   0  0  0  0  0  0  0  0  0  0  0  0
   -0.3496    2.2284    0.2056 O   0  0  0  0  0  0  0  0  0  0  0  0
   -2.6555    2.6022   -1.5422 C   0  0  0  0  0  0  0  0  0  0  0  0
   -2.4393    3.8556   -0.9766 O   0  0  0  0  0  0  0  0  0  0  0  0
   -3.1052    2.5224   -2.7173 O   0  0  0  0  0  0  0  0  0  0  0  0
    4.6034    0.6652   -1.1332 H   0  0  0  0  0  0  0  0  0  0  0  0
    0.1240   -2.2778    0.2982 H   0  0  0  0  0  0  0  0  0  0  0  0
    0.8285   -3.8331   -1.4290 H   0  0  0  0  0  0  0  0  0  0  0  0
    2.8728   -3.4081   -2.7521 H   0  0  0  0  0  0  0  0  0  0  0  0
    4.2261   -1.3979   -2.3348 H   0  0  0  0  0  0  0  0  0  0  0  0
   -0.0038    0.6631    2.6016 H   0  0  0  0  0  0  0  0  0  0  0  0
    0.1714   -1.0464    2.2934 H   0  0  0  0  0  0  0  0  0  0  0  0
   -4.1889    0.4370   -1.5501 H   0  0  0  0  0  0  0  0  0  0  0  0
   -1.5282   -2.1811    2.5607 H   0  0  0  0  0  0  0  0  0  0  0  0
   -3.2488   -3.8516    2.3441 H   0  0  0  0  0  0  0  0  0  0  0  0
   -5.0247   -3.6346    0.6427 H   0  0  0  0  0  0  0  0  0  0  0  0
   -5.0774   -1.6868   -0.8527 H   0  0  0  0  0  0  0  0  0  0  0  0
    2.5163    2.7573    2.6619 H   0  0  0  0  0  0  0  0  0  0  0  0
    4.1386    4.7252    0.9009 H   0  0  0  0  0  0  0  0  0  0  0  0
   -0.2659    2.9902   -0.4531 H   0  0  0  0  0  0  0  0  0  0  0  0
   -2.6135    4.7020   -1.5053 H   0  0  0  0  0  0  0  0  0  0  0  0
  1  5  2  0
  2  3  2  0
  3  4  1  0
  4  6  2  0
  5  6  1  0
  5 10  1  0
  6  7  1  0
  7  8  2  0
  8  9  1  0
  9 10  2  0
  4 11  1  0
 11 12  1  0
 12 17  2  0
 12 15  1  0
 16 13  2  0
 13 14  1  0
 14 15  2  0
 16 17  1  0
 16 21  1  0
 17 18  1  0
 18 19  2  0
 19 20  1  0
 20 21  2  0
  3 22  1  0
  2 23  1  0
 23 24  1  0
 23 25  2  0
 15 26  1  0
 14 27  1  0
  1  2  1  0
 27 28  1  0
 27 29  2  0
  1 30  1  0
  7 31  1  0
  8 32  1  0
  9 33  1  0
 10 34  1  0
 11 35  1  0
 11 36  1  0
 13 37  1  0
 18 38  1  0
 19 39  1  0
 20 40  1  0
 21 41  1  0
 22 42  1  0
 24 43  1  0
 26 44  1  0
 28 45  1  0
M  END
$$$$
