
     RDKit          3D

 52 57  0  0  0  0  0  0  0  0999 V2000
    0.0000    0.0000    0.0000 O   0  0  0  0  0  0  0  0  0  0  0  0
   -0.1993    1.2924    0.2033 C   0  0  0  0  0  0  0  0  0  0  0  0
   -1.5374    1.6448    0.0111 C   0  0  0  0  0  0  0  0  0  0  0  0
    0.2502   -0.1148    0.1259 C   0  0  0  0  0  0  0  0  0  0  0  0
   -0.4426   -1.1969    0.0308 N   0  0  0  0  0  0  0  0  0  0  0  0
   -2.6994    0.9454   -0.2649 N   0  0  0  0  0  0  0  0  0  0  0  0
   -1.5292    3.4967    0.2184 S   0  0  0  0  0  0  0  0  0  0  0  0
    1.6582   -0.3082    0.1608 N   0  0  0  0  0  0  0  0  0  0  0  0
    0.6243    2.3021    0.4580 C   0  0  0  0  0  0  0  0  0  0  0  0
    0.2919    3.5338    0.5375 C   0  0  0  0  0  0  0  0  0  0  0  0
   -1.8381   -1.4012   -0.0306 C   0  0  0  0  0  0  0  0  0  0  0  0
   -2.8887   -0.4857   -0.1628 C   0  0  0  0  0  0  0  0  0  0  0  0
    4.4033   -1.1190    0.1128 N   0  0  0  0  0  0  0  0  0  0  0  0
    2.2801   -1.0435    1.2614 C   0  0  0  0  0  0  0  0  0  0  0  0
    2.5565    0.1938   -0.8609 C   0  0  0  0  0  0  0  0  0  0  0  0
    3.9758    0.1705   -0.3377 C   0  0  0  0  0  0  0  0  0  0  0  0
    3.3332   -1.9182    0.6423 C   0  0  0  0  0  0  0  0  0  0  0  0
    5.0948   -1.8589   -0.9070 C   0  0  0  0  0  0  0  0  0  0  0  0
    0.9993    4.8459    0.8068 C   0  0  0  0  0  0  0  0  0  0  0  0
   -2.1763   -2.7449    0.0580 C   0  0  0  0  0  0  0  0  0  0  0  0
   -4.1915   -0.8604   -0.2060 C   0  0  0  0  0  0  0  0  0  0  0  0
   -3.4861   -3.1611    0.0178 C   0  0  0  0  0  0  0  0  0  0  0  0
   -4.4791   -2.2128   -0.1139 C   0  0  0  0  0  0  0  0  0  0  0  0
   -3.6255    0.4216   -0.7675 C   0  0  0  0  0  0  0  0  0  0  0  0
   -3.2088    1.0174    0.4045 C   0  0  0  0  0  0  0  0  0  0  0  0
   -2.0946    0.5451    1.0493 C   0  0  0  0  0  0  0  0  0  0  0  0
   -1.3223   -0.5216    0.5981 C   0  0  0  0  0  0  0  0  0  0  0  0
   -2.8873   -0.6465   -1.2517 C   0  0  0  0  0  0  0  0  0  0  0  0
   -1.7660   -1.1081   -0.5883 C   0  0  0  0  0  0  0  0  0  0  0  0
   -1.0990   -2.1635   -1.1428 C   0  0  0  0  0  0  0  0  0  0  0  0
   -1.5149   -2.7603   -2.3236 C   0  0  0  0  0  0  0  0  0  0  0  0
   -2.6401   -2.2648   -2.9497 C   0  0  0  0  0  0  0  0  0  0  0  0
   -3.3322   -1.2146   -2.4281 C   0  0  0  0  0  0  0  0  0  0  0  0
   -0.0861   -0.8956    1.2873 C   0  0  0  0  0  0  0  0  0  0  0  0
    1.1644   -0.3414    0.7760 C   0  0  0  0  0  0  0  0  0  0  0  0
    3.6988    0.4500   -0.2101 C   0  0  0  0  0  0  0  0  0  0  0  0
    2.7991    1.3678    0.2454 C   0  0  0  0  0  0  0  0  0  0  0  0
    1.5390    0.9757    0.7375 C   0  0  0  0  0  0  0  0  0  0  0  0
    3.3385   -0.8888   -0.1771 C   0  0  0  0  0  0  0  0  0  0  0  0
    2.1068   -1.2685    0.3022 C   0  0  0  0  0  0  0  0  0  0  0  0
    1.8364   -2.6224    0.3169 C   0  0  0  0  0  0  0  0  0  0  0  0
    2.7391   -3.5644   -0.1208 C   0  0  0  0  0  0  0  0  0  0  0  0
    3.9742   -3.1270   -0.5980 C   0  0  0  0  0  0  0  0  0  0  0  0
    4.2797   -1.7835   -0.6288 C   0  0  0  0  0  0  0  0  0  0  0  0
   -1.7729    1.2232    2.2478 O   0  0  0  0  0  0  0  0  0  0  0  0
   -3.9729    2.1611    0.9540 C   0  0  0  0  0  0  0  0  0  0  0  0
   -3.5462    2.7500    2.1385 O   0  0  0  0  0  0  0  0  0  0  0  0
   -4.9893    2.5672    0.3297 O   0  0  0  0  0  0  0  0  0  0  0  0
    0.7378    2.0040    1.1650 O   0  0  0  0  0  0  0  0  0  0  0  0
    3.1476    2.7882    0.2063 C   0  0  0  0  0  0  0  0  0  0  0  0
    2.2165    3.7489    0.6531 O   0  0  0  0  0  0  0  0  0  0  0  0
    4.2801    3.1509   -0.2252 O   0  0  0  0  0  0  0  0  0  0  0  0
  3  2  2  0
  4  2  1  0
  5  4  2  0
  6  3  1  0
  7  3  1  0
  8  4  1  0
  9  2  1  0
 10  9  2  0
 11  5  1  0
 12  6  1  0
 13 16  1  0
 14  8  1  0
 15  8  1  0
 16 15  1  0
 17 14  1  0
 18 13  1  0
 19 10  1  0
 20 11  2  0
 21 12  2  0
 22 20  1  0
 23 21  1  0
 10  7  1  0
 11 12  1  0
 13 17  1  0
 23 22  2  0
 24 28  2  0
 25 26  2  0
 26 27  1  0
 27 29  2  0
 28 29  1  0
 28 33  1  0
 29 30  1  0
 30 31  2  0
 31 32  1  0
 32 33  2  0
 27 34  1  0
 34 35  1  0
 35 40  2  0
 35 38  1  0
 39 36  2  0
 36 37  1  0
 37 38  2  0
 39 40  1  0
 39 44  1  0
 40 41  1  0
 41 42  2  0
 42 43  1  0
 43 44  2  0
 26 45  1  0
 25 46  1  0
 46 47  1  0
 46 48  2  0
 38 49  1  0
 37 50  1  0
 24 25  1  0
 50 51  1  0
 50 52  2  0
M  END
