
     RDKit          3D

 45 48  0  0  0  0  0  0  0  0999 V2000
   -3.5512   -0.0572   -0.8146 C   0  0  0  0  0  0  0  0  0  0  0  0
   -3.4243    1.0893   -0.0243 C   0  0  0  0  0  0  0  0  0  0  0  0
   -2.2945    1.2369    0.8135 C   0  0  0  0  0  0  0  0  0  0  0  0
   -1.3151    0.2115    0.8875 C   0  0  0  0  0  0  0  0  0  0  0  0
   -2.6363   -1.1064   -0.7087 C   0  0  0  0  0  0  0  0  0  0  0  0
   -1.5356   -1.0055    0.1803 C   0  0  0  0  0  0  0  0  0  0  0  0
   -0.7053   -2.1365    0.3410 C   0  0  0  0  0  0  0  0  0  0  0  0
   -0.9162   -3.2949   -0.4096 C   0  0  0  0  0  0  0  0  0  0  0  0
   -1.9689   -3.3599   -1.3189 C   0  0  0  0  0  0  0  0  0  0  0  0
   -2.8331   -2.2759   -1.4623 C   0  0  0  0  0  0  0  0  0  0  0  0
   -0.0568    0.4455    1.7293 C   0  0  0  0  0  0  0  0  0  0  0  0
    1.2545    0.2640    0.9583 C   0  0  0  0  0  0  0  0  0  0  0  0
    3.5950   -0.2869   -0.5208 C   0  0  0  0  0  0  0  0  0  0  0  0
    3.4016   -0.9113    0.7152 C   0  0  0  0  0  0  0  0  0  0  0  0
    2.2202   -0.6540    1.4489 C   0  0  0  0  0  0  0  0  0  0  0  0
    2.6921    0.6685   -0.9911 C   0  0  0  0  0  0  0  0  0  0  0  0
    1.5373    0.9918   -0.2334 C   0  0  0  0  0  0  0  0  0  0  0  0
    0.7168    2.0465   -0.6900 C   0  0  0  0  0  0  0  0  0  0  0  0
    0.9918    2.7019   -1.8920 C   0  0  0  0  0  0  0  0  0  0  0  0
    2.0993    2.3365   -2.6530 C   0  0  0  0  0  0  0  0  0  0  0  0
    2.9534    1.3318   -2.2019 C   0  0  0  0  0  0  0  0  0  0  0  0
   -2.1006    2.4103    1.5515 O   0  0  0  0  0  0  0  0  0  0  0  0
   -4.5062    2.0967   -0.0755 C   0  0  0  0  0  0  0  0  0  0  0  0
   -4.9499    2.7169    1.0891 O   0  0  0  0  0  0  0  0  0  0  0  0
   -5.0736    2.3576   -1.1707 O   0  0  0  0  0  0  0  0  0  0  0  0
    1.9627   -1.3283    2.6481 O   0  0  0  0  0  0  0  0  0  0  0  0
    4.4685   -1.8009    1.2233 C   0  0  0  0  0  0  0  0  0  0  0  0
    4.8299   -1.7748    2.5674 O   0  0  0  0  0  0  0  0  0  0  0  0
    5.0980   -2.5492    0.4274 O   0  0  0  0  0  0  0  0  0  0  0  0
   -4.4072   -0.1603   -1.4732 H   0  0  0  0  0  0  0  0  0  0  0  0
    0.0871   -2.1582    1.0673 H   0  0  0  0  0  0  0  0  0  0  0  0
   -0.2656   -4.1499   -0.2771 H   0  0  0  0  0  0  0  0  0  0  0  0
   -2.1291   -4.2604   -1.8977 H   0  0  0  0  0  0  0  0  0  0  0  0
   -3.6645   -2.3566   -2.1529 H   0  0  0  0  0  0  0  0  0  0  0  0
   -0.1283   -0.2330    2.6032 H   0  0  0  0  0  0  0  0  0  0  0  0
   -0.0284    1.4627    2.1696 H   0  0  0  0  0  0  0  0  0  0  0  0
    4.4915   -0.5010   -1.0933 H   0  0  0  0  0  0  0  0  0  0  0  0
   -0.1183    2.4036   -0.1148 H   0  0  0  0  0  0  0  0  0  0  0  0
    0.3479    3.5042   -2.2290 H   0  0  0  0  0  0  0  0  0  0  0  0
    2.3090    2.8482   -3.5835 H   0  0  0  0  0  0  0  0  0  0  0  0
    3.8268    1.0823   -2.7930 H   0  0  0  0  0  0  0  0  0  0  0  0
   -2.6352    3.2565    1.4119 H   0  0  0  0  0  0  0  0  0  0  0  0
   -5.7039    3.3929    1.0636 H   0  0  0  0  0  0  0  0  0  0  0  0
    2.4915   -2.1282    2.9675 H   0  0  0  0  0  0  0  0  0  0  0  0
    5.5732   -2.3671    2.9178 H   0  0  0  0  0  0  0  0  0  0  0  0
  1  5  2  0
  2  3  2  0
  3  4  1  0
  4  6  2  0
  5  6  1  0
  5 10  1  0
  6  7  1  0
  7  8  2  0
  8  9  1  0
  9 10  2  0
  4 11  1  0
 11 12  1  0
 12 17  2  0
 12 15  1  0
 16 13  2  0
 13 14  1  0
 14 15  2  0
 16 17  1  0
 16 21  1  0
 17 18  1  0
 18 19  2  0
 19 20  1  0
 20 21  2  0
  3 22  1  0
  2 23  1  0
 23 24  1  0
 23 25  2  0
 15 26  1  0
 14 27  1  0
  1  2  1  0
 27 28  1  0
 27 29  2  0
  1 30  1  0
  7 31  1  0
  8 32  1  0
  9 33  1  0
 10 34  1  0
 11 35  1  0
 11 36  1  0
 13 37  1  0
 18 38  1  0
 19 39  1  0
 20 40  1  0
 21 41  1  0
 22 42  1  0
 24 43  1  0
 26 44  1  0
 28 45  1  0
M  END
$$$$
