
     RDKit          3D

104107  0  0  0  0  0  0  0  0999 V2000
   48.5160    7.6530   17.6724 C   0  0  0  0  0  0  0  0  0  0  0  0
   48.4241    6.2863   17.8960 N   0  0  0  0  0  0  0  0  0  0  0  0
   48.2547    7.2624   19.9052 N   0  0  0  0  0  0  0  0  0  0  0  0
   48.2855    8.2214   18.9203 C   0  0  0  0  0  0  0  0  0  0  0  0
   48.3344    6.1112   19.2738 C   0  0  0  0  0  0  0  0  0  0  0  0
   48.8013    8.2729   16.3373 C   0  0  0  0  0  0  0  0  0  0  0  0
   50.0520    7.7022   15.6683 C   0  0  0  0  0  0  0  0  0  0  0  0
   48.3998    5.2170   16.9972 C   0  0  0  0  0  0  0  0  0  0  0  0
   48.3130    4.7755   19.7641 C   0  0  0  0  0  0  0  0  0  0  0  0
   48.1471    9.6366   19.2271 C   0  0  0  0  0  0  0  0  0  0  0  0
   48.3345    3.9512   17.4568 C   0  0  0  0  0  0  0  0  0  0  0  0
   48.3159    3.7405   18.9010 C   0  0  0  0  0  0  0  0  0  0  0  0
   51.3080    8.0201   16.1803 N   0  0  0  0  0  0  0  0  0  0  0  0
   49.9184    6.9825   14.6715 O   0  0  0  0  0  0  0  0  0  0  0  0
   48.7507   10.1571   20.3784 C   0  0  0  0  0  0  0  0  0  0  0  0
   47.3752   10.4887   18.4249 C   0  0  0  0  0  0  0  0  0  0  0  0
   48.6084   11.5093   20.7046 C   0  0  0  0  0  0  0  0  0  0  0  0
   47.2482   11.8452   18.7454 C   0  0  0  0  0  0  0  0  0  0  0  0
   47.8714   12.3675   19.8825 C   0  0  0  0  0  0  0  0  0  0  0  0
   48.2728    2.7520   16.5685 C   0  0  0  0  0  0  0  0  0  0  0  0
   51.5481    8.7512   17.4195 C   0  0  0  0  0  0  0  0  0  0  0  0
   52.4699    7.3534   15.6145 C   0  0  0  0  0  0  0  0  0  0  0  0
   47.6894   13.8123   20.2524 C   0  0  0  0  0  0  0  0  0  0  0  0
   48.8145    7.2514   18.1226 C   0  0  0  0  0  0  0  0  0  0  0  0
   48.8786    5.8771   18.2784 N   0  0  0  0  0  0  0  0  0  0  0  0
   48.1615    6.7040   20.2352 N   0  0  0  0  0  0  0  0  0  0  0  0
   48.4301    7.7315   19.3652 C   0  0  0  0  0  0  0  0  0  0  0  0
   48.4474    5.6042   19.5734 C   0  0  0  0  0  0  0  0  0  0  0  0
   49.0845    7.9494   16.8315 C   0  0  0  0  0  0  0  0  0  0  0  0
   50.5818    8.1217   16.5666 C   0  0  0  0  0  0  0  0  0  0  0  0
   49.2537    4.8784   17.3754 C   0  0  0  0  0  0  0  0  0  0  0  0
   48.3973    4.2406   19.9716 C   0  0  0  0  0  0  0  0  0  0  0  0
   48.2445    9.1224   19.7319 C   0  0  0  0  0  0  0  0  0  0  0  0
   49.2016    3.5846   17.7468 C   0  0  0  0  0  0  0  0  0  0  0  0
   48.7501    3.2745   19.1020 C   0  0  0  0  0  0  0  0  0  0  0  0
   50.9478    9.0866   15.6284 N   0  0  0  0  0  0  0  0  0  0  0  0
   51.4268    7.4253   17.1296 O   0  0  0  0  0  0  0  0  0  0  0  0
   47.0522    9.5207   20.3476 C   0  0  0  0  0  0  0  0  0  0  0  0
   49.2483   10.0705   19.5025 C   0  0  0  0  0  0  0  0  0  0  0  0
   46.8543   10.8568   20.7009 C   0  0  0  0  0  0  0  0  0  0  0  0
   49.0436   11.4092   19.8494 C   0  0  0  0  0  0  0  0  0  0  0  0
   47.8395   11.8152   20.4370 C   0  0  0  0  0  0  0  0  0  0  0  0
   49.5993    2.4482   16.8570 C   0  0  0  0  0  0  0  0  0  0  0  0
   50.0095    9.9200   14.8941 C   0  0  0  0  0  0  0  0  0  0  0  0
   52.3596    9.4008   15.4534 C   0  0  0  0  0  0  0  0  0  0  0  0
   47.6277   13.2455   20.8386 C   0  0  0  0  0  0  0  0  0  0  0  0
   50.4607    6.2794   16.8164 O   0  0  0  0  0  0  0  0  0  0  0  0
   48.9858    7.5087   15.6661 O   0  0  0  0  0  0  0  0  0  0  0  0
   47.5953    8.3532   20.2173 O   0  0  0  0  0  0  0  0  0  0  0  0
   47.3740    6.9961   18.4574 O   0  0  0  0  0  0  0  0  0  0  0  0
   50.6770    7.9117   18.8568 O   0  0  0  0  0  0  0  0  0  0  0  0
   48.9525   10.2203   18.9826 O   0  0  0  0  0  0  0  0  0  0  0  0
   49.7168    7.3951   16.6335 C   0  0  0  0  0  0  0  0  0  0  0  0
   49.9707    8.4333   17.7228 C   0  0  1  0  0  0  0  0  0  0  0  0
   48.6606    9.0704   18.1776 C   0  0  1  0  0  0  0  0  0  0  0  0
   47.8113    8.0380   18.9212 C   0  0  0  0  0  0  0  0  0  0  0  0
   48.9245    9.3609   16.4020 H   0  0  0  0  0  0  0  0  0  0  0  0
   47.9422    8.1040   15.6727 H   0  0  0  0  0  0  0  0  0  0  0  0
   48.4161    5.4495   15.9428 H   0  0  0  0  0  0  0  0  0  0  0  0
   48.2914    4.6246   20.8329 H   0  0  0  0  0  0  0  0  0  0  0  0
   48.2961    2.7200   19.2729 H   0  0  0  0  0  0  0  0  0  0  0  0
   49.3219    9.5020   21.0331 H   0  0  0  0  0  0  0  0  0  0  0  0
   46.8532   10.1065   17.5513 H   0  0  0  0  0  0  0  0  0  0  0  0
   49.0825   11.8854   21.6082 H   0  0  0  0  0  0  0  0  0  0  0  0
   46.6387   12.4868   18.1125 H   0  0  0  0  0  0  0  0  0  0  0  0
   48.2095    3.0298   15.5101 H   0  0  0  0  0  0  0  0  0  0  0  0
   49.1590    2.1217   16.6991 H   0  0  0  0  0  0  0  0  0  0  0  0
   47.3894    2.1511   16.8023 H   0  0  0  0  0  0  0  0  0  0  0  0
   50.7112    9.4064   17.6848 H   0  0  0  0  0  0  0  0  0  0  0  0
   51.7233    8.0242   18.2181 H   0  0  0  0  0  0  0  0  0  0  0  0
   52.4395    9.3705   17.2914 H   0  0  0  0  0  0  0  0  0  0  0  0
   53.2602    8.0934   15.4631 H   0  0  0  0  0  0  0  0  0  0  0  0
   52.8127    6.5950   16.3247 H   0  0  0  0  0  0  0  0  0  0  0  0
   52.2577    6.8723   14.6574 H   0  0  0  0  0  0  0  0  0  0  0  0
   47.7301   14.4445   19.3607 H   0  0  0  0  0  0  0  0  0  0  0  0
   46.7259   13.9538   20.7473 H   0  0  0  0  0  0  0  0  0  0  0  0
   48.4824   14.1511   20.9260 H   0  0  0  0  0  0  0  0  0  0  0  0
   48.6495    7.3863   15.9992 H   0  0  0  0  0  0  0  0  0  0  0  0
   48.5942    8.9263   16.8562 H   0  0  0  0  0  0  0  0  0  0  0  0
   49.5873    5.1937   16.3966 H   0  0  0  0  0  0  0  0  0  0  0  0
   48.0757    4.0129   20.9803 H   0  0  0  0  0  0  0  0  0  0  0  0
   48.7156    2.2328   19.4060 H   0  0  0  0  0  0  0  0  0  0  0  0
   46.2757    8.7854   20.5553 H   0  0  0  0  0  0  0  0  0  0  0  0
   50.1983    9.7702   19.0655 H   0  0  0  0  0  0  0  0  0  0  0  0
   45.9151   11.1479   21.1663 H   0  0  0  0  0  0  0  0  0  0  0  0
   49.8374   12.1271   19.6614 H   0  0  0  0  0  0  0  0  0  0  0  0
   50.4122    1.8721   17.3139 H   0  0  0  0  0  0  0  0  0  0  0  0
   48.7480    1.7811   16.6829 H   0  0  0  0  0  0  0  0  0  0  0  0
   49.9533    2.7998   15.8811 H   0  0  0  0  0  0  0  0  0  0  0  0
   50.4106   10.1199   13.8941 H   0  0  0  0  0  0  0  0  0  0  0  0
   49.0404    9.4334   14.7776 H   0  0  0  0  0  0  0  0  0  0  0  0
   49.8790   10.8636   15.4342 H   0  0  0  0  0  0  0  0  0  0  0  0
   52.5155   10.4574   15.6941 H   0  0  0  0  0  0  0  0  0  0  0  0
   52.6317    9.2234   14.4074 H   0  0  0  0  0  0  0  0  0  0  0  0
   53.0023    8.7949   16.0959 H   0  0  0  0  0  0  0  0  0  0  0  0
   46.5902   13.5417   20.6580 H   0  0  0  0  0  0  0  0  0  0  0  0
   48.2659   13.9167   20.2555 H   0  0  0  0  0  0  0  0  0  0  0  0
   47.8537   13.3771   21.8995 H   0  0  0  0  0  0  0  0  0  0  0  0
   50.1754    5.6886   16.0851 H   0  0  0  0  0  0  0  0  0  0  0  0
   47.0574    7.6119   20.5655 H   0  0  0  0  0  0  0  0  0  0  0  0
   51.2516    7.2032   18.5013 H   0  0  0  0  0  0  0  0  0  0  0  0
   49.3051    9.8652   19.8231 H   0  0  0  0  0  0  0  0  0  0  0  0
   50.6282    9.1960   17.2877 H   0  0  0  0  0  0  0  0  0  0  0  0
   48.0706    9.4297   17.3295 H   0  0  0  0  0  0  0  0  0  0  0  0
 10  4  1  0
 11  8  2  0
 12 11  1  0
 13  7  1  0
 14  7  2  0
 15 10  2  0
 16 10  1  0
 17 15  1  0
 18 16  2  0
 19 18  1  0
 20 11  1  0
 21 13  1  0
 22 13  1  0
 23 19  1  0
  3  5  2  0
  9 12  2  0
 17 19  2  0
  2  1  1  0
  3  4  1  0
  4  1  2  0
  5  2  1  0
  6  1  1  0
  7  6  1  0
  8  2  1  0
  9  5  1  0
 33 27  1  0
 34 31  2  0
 35 34  1  0
 36 30  1  0
 37 30  2  0
 38 33  2  0
 39 33  1  0
 40 38  1  0
 41 39  2  0
 42 41  1  0
 43 34  1  0
 44 36  1  0
 45 36  1  0
 46 42  1  0
 26 28  2  0
 32 35  2  0
 40 42  2  0
 25 24  1  0
 26 27  1  0
 27 24  2  0
 28 25  1  0
 29 24  1  0
 30 29  1  0
 31 25  1  0
 32 28  1  0
 53 48  2  0
 54 51  1  0
 55 52  1  0
 53 47  1  0
 55 56  1  0
 54 55  1  0
 56 49  1  0
 53 54  1  0
 56 50  2  0
  6 57  1  0
  6 58  1  0
  8 59  1  0
  9 60  1  0
 12 61  1  0
 15 62  1  0
 16 63  1  0
 17 64  1  0
 18 65  1  0
 20 66  1  0
 20 67  1  0
 20 68  1  0
 21 69  1  0
 21 70  1  0
 21 71  1  0
 22 72  1  0
 22 73  1  0
 22 74  1  0
 23 75  1  0
 23 76  1  0
 23 77  1  0
 29 78  1  0
 29 79  1  0
 31 80  1  0
 32 81  1  0
 35 82  1  0
 38 83  1  0
 39 84  1  0
 40 85  1  0
 41 86  1  0
 43 87  1  0
 43 88  1  0
 43 89  1  0
 44 90  1  0
 44 91  1  0
 44 92  1  0
 45 93  1  0
 45 94  1  0
 45 95  1  0
 46 96  1  0
 46 97  1  0
 46 98  1  0
 47 99  1  0
 49100  1  0
 51101  1  0
 52102  1  0
 54103  1  1
 55104  1  6
M  END
> <Uni-Dock RESULT> 
ENERGY=   -6.643  LOWER_BOUND=    0.000  UPPER_BOUND=    0.000
INTER + INTRA:          -6.643
INTER:                  -6.643
INTRA:                   0.000
UNBOUND:                 0.000

$$$$

     RDKit          3D

104107  0  0  0  0  0  0  0  0999 V2000
   49.8616    7.5656   16.9115 C   0  0  0  0  0  0  0  0  0  0  0  0
   49.4636    7.5705   15.5819 N   0  0  0  0  0  0  0  0  0  0  0  0
   48.2283    6.0031   16.5996 N   0  0  0  0  0  0  0  0  0  0  0  0
   48.9921    6.6720   17.5270 C   0  0  0  0  0  0  0  0  0  0  0  0
   48.5204    6.5567   15.4426 C   0  0  0  0  0  0  0  0  0  0  0  0
   50.9916    8.3859   17.4577 C   0  0  0  0  0  0  0  0  0  0  0  0
   52.2946    8.2019   16.6794 C   0  0  0  0  0  0  0  0  0  0  0  0
   49.8512    8.3906   14.5193 C   0  0  0  0  0  0  0  0  0  0  0  0
   48.0169    6.3058   14.1355 C   0  0  0  0  0  0  0  0  0  0  0  0
   48.8912    6.3856   18.9496 C   0  0  0  0  0  0  0  0  0  0  0  0
   49.3423    8.1843   13.2880 C   0  0  0  0  0  0  0  0  0  0  0  0
   48.4082    7.0780   13.1027 C   0  0  0  0  0  0  0  0  0  0  0  0
   52.9963    7.0037   16.7925 N   0  0  0  0  0  0  0  0  0  0  0  0
   52.7062    9.1338   15.9782 O   0  0  0  0  0  0  0  0  0  0  0  0
   48.7211    5.0636   19.3788 C   0  0  0  0  0  0  0  0  0  0  0  0
   48.9053    7.4100   19.9065 C   0  0  0  0  0  0  0  0  0  0  0  0
   48.5966    4.7701   20.7402 C   0  0  0  0  0  0  0  0  0  0  0  0
   48.7967    7.1112   21.2696 C   0  0  0  0  0  0  0  0  0  0  0  0
   48.6508    5.7882   21.6971 C   0  0  0  0  0  0  0  0  0  0  0  0
   49.6764    9.0307   12.1036 C   0  0  0  0  0  0  0  0  0  0  0  0
   52.5194    5.8150   17.4904 C   0  0  0  0  0  0  0  0  0  0  0  0
   54.1536    6.8013   15.9355 C   0  0  0  0  0  0  0  0  0  0  0  0
   48.4814    5.4762   23.1570 C   0  0  0  0  0  0  0  0  0  0  0  0
   49.7599    7.0658   16.4723 C   0  0  0  0  0  0  0  0  0  0  0  0
   49.5236    7.0297   15.1085 N   0  0  0  0  0  0  0  0  0  0  0  0
   47.8755    5.8511   16.0687 N   0  0  0  0  0  0  0  0  0  0  0  0
   48.7621    6.2783   17.0259 C   0  0  0  0  0  0  0  0  0  0  0  0
   48.3531    6.2982   14.9280 C   0  0  0  0  0  0  0  0  0  0  0  0
   50.8616    7.8538   17.0986 C   0  0  0  0  0  0  0  0  0  0  0  0
   52.2093    7.1333   17.0177 C   0  0  0  0  0  0  0  0  0  0  0  0
   50.2330    7.6030   14.0494 C   0  0  0  0  0  0  0  0  0  0  0  0
   47.8804    6.1399   13.5969 C   0  0  0  0  0  0  0  0  0  0  0  0
   48.5844    5.9758   18.4332 C   0  0  0  0  0  0  0  0  0  0  0  0
   49.7848    7.4607   12.7871 C   0  0  0  0  0  0  0  0  0  0  0  0
   48.5564    6.6975   12.5741 C   0  0  0  0  0  0  0  0  0  0  0  0
   53.2049    7.5605   17.8962 N   0  0  0  0  0  0  0  0  0  0  0  0
   52.4209    6.2383   16.1990 O   0  0  0  0  0  0  0  0  0  0  0  0
   47.3357    6.1819   19.0312 C   0  0  0  0  0  0  0  0  0  0  0  0
   49.6349    5.4575   19.1993 C   0  0  0  0  0  0  0  0  0  0  0  0
   47.1491    5.9025   20.3862 C   0  0  0  0  0  0  0  0  0  0  0  0
   49.4473    5.1870   20.5580 C   0  0  0  0  0  0  0  0  0  0  0  0
   48.2079    5.4217   21.1652 C   0  0  0  0  0  0  0  0  0  0  0  0
   50.4847    8.0223   11.5888 C   0  0  0  0  0  0  0  0  0  0  0  0
   53.0455    8.6346   18.8632 C   0  0  0  0  0  0  0  0  0  0  0  0
   54.4503    6.8084   17.9706 C   0  0  0  0  0  0  0  0  0  0  0  0
   47.9937    5.1041   22.6161 C   0  0  0  0  0  0  0  0  0  0  0  0
   51.7068    7.1789   15.2243 O   0  0  0  0  0  0  0  0  0  0  0  0
   51.4429    8.8716   16.6646 O   0  0  0  0  0  0  0  0  0  0  0  0
   47.6756    6.0599   17.7884 O   0  0  0  0  0  0  0  0  0  0  0  0
   48.4016    7.7043   16.4629 O   0  0  0  0  0  0  0  0  0  0  0  0
   50.8420    5.2916   16.8257 O   0  0  0  0  0  0  0  0  0  0  0  0
   49.7469    6.0335   19.3890 O   0  0  0  0  0  0  0  0  0  0  0  0
   51.3973    7.6746   16.4449 C   0  0  0  0  0  0  0  0  0  0  0  0
   51.0659    6.5674   17.4415 C   0  0  1  0  0  0  0  0  0  0  0  0
   49.8581    6.9502   18.2923 C   0  0  1  0  0  0  0  0  0  0  0  0
   48.5986    6.9772   17.4244 C   0  0  0  0  0  0  0  0  0  0  0  0
   51.1976    8.1605   18.5112 H   0  0  0  0  0  0  0  0  0  0  0  0
   50.7122    9.4485   17.4241 H   0  0  0  0  0  0  0  0  0  0  0  0
   50.5460    9.1894   14.7317 H   0  0  0  0  0  0  0  0  0  0  0  0
   47.3203    5.4915   14.0047 H   0  0  0  0  0  0  0  0  0  0  0  0
   48.0226    6.8906   12.1046 H   0  0  0  0  0  0  0  0  0  0  0  0
   48.6696    4.2597   18.6472 H   0  0  0  0  0  0  0  0  0  0  0  0
   48.9865    8.4509   19.6040 H   0  0  0  0  0  0  0  0  0  0  0  0
   48.4589    3.7352   21.0449 H   0  0  0  0  0  0  0  0  0  0  0  0
   48.8032    7.9226   21.9945 H   0  0  0  0  0  0  0  0  0  0  0  0
   50.3183    9.8770   12.3737 H   0  0  0  0  0  0  0  0  0  0  0  0
   50.1957    8.4450   11.3374 H   0  0  0  0  0  0  0  0  0  0  0  0
   48.7645    9.4404   11.6599 H   0  0  0  0  0  0  0  0  0  0  0  0
   51.7977    6.0568   18.2784 H   0  0  0  0  0  0  0  0  0  0  0  0
   52.0623    5.1460   16.7553 H   0  0  0  0  0  0  0  0  0  0  0  0
   53.3748    5.3157   17.9523 H   0  0  0  0  0  0  0  0  0  0  0  0
   54.9617    6.3709   16.5326 H   0  0  0  0  0  0  0  0  0  0  0  0
   53.8766    6.1025   15.1405 H   0  0  0  0  0  0  0  0  0  0  0  0
   54.5127    7.7282   15.4832 H   0  0  0  0  0  0  0  0  0  0  0  0
   49.1500    6.0955   23.7617 H   0  0  0  0  0  0  0  0  0  0  0  0
   47.4490    5.6613   23.4623 H   0  0  0  0  0  0  0  0  0  0  0  0
   48.7275    4.4313   23.3693 H   0  0  0  0  0  0  0  0  0  0  0  0
   50.9599    8.8257   16.6039 H   0  0  0  0  0  0  0  0  0  0  0  0
   50.6014    8.0441   18.1433 H   0  0  0  0  0  0  0  0  0  0  0  0
   51.1387    8.1411   14.2922 H   0  0  0  0  0  0  0  0  0  0  0  0
   46.9776    5.5629   13.4390 H   0  0  0  0  0  0  0  0  0  0  0  0
   48.1983    6.5744   11.5566 H   0  0  0  0  0  0  0  0  0  0  0  0
   46.5042    6.5593   18.4371 H   0  0  0  0  0  0  0  0  0  0  0  0
   50.5991    5.2495   18.7405 H   0  0  0  0  0  0  0  0  0  0  0  0
   46.1744    6.0823   20.8347 H   0  0  0  0  0  0  0  0  0  0  0  0
   50.2777    4.7852   21.1324 H   0  0  0  0  0  0  0  0  0  0  0  0
   50.7534    7.2195   10.8926 H   0  0  0  0  0  0  0  0  0  0  0  0
   49.8400    8.7395   11.0692 H   0  0  0  0  0  0  0  0  0  0  0  0
   51.4093    8.5425   11.8639 H   0  0  0  0  0  0  0  0  0  0  0  0
   54.0006    9.1589   18.9805 H   0  0  0  0  0  0  0  0  0  0  0  0
   52.2990    9.3618   18.5417 H   0  0  0  0  0  0  0  0  0  0  0  0
   52.7417    8.2028   19.8226 H   0  0  0  0  0  0  0  0  0  0  0  0
   54.5688    6.4273   18.9902 H   0  0  0  0  0  0  0  0  0  0  0  0
   55.2817    7.4820   17.7366 H   0  0  0  0  0  0  0  0  0  0  0  0
   54.4686    5.9660   17.2756 H   0  0  0  0  0  0  0  0  0  0  0  0
   47.3419    5.8520   23.0771 H   0  0  0  0  0  0  0  0  0  0  0  0
   48.9407    5.1126   23.1648 H   0  0  0  0  0  0  0  0  0  0  0  0
   47.5330    4.1191   22.7229 H   0  0  0  0  0  0  0  0  0  0  0  0
   51.8549    7.9825   14.6789 H   0  0  0  0  0  0  0  0  0  0  0  0
   46.9415    6.1816   17.1508 H   0  0  0  0  0  0  0  0  0  0  0  0
   51.4086    5.2857   16.0274 H   0  0  0  0  0  0  0  0  0  0  0  0
   49.4529    5.1892   18.9918 H   0  0  0  0  0  0  0  0  0  0  0  0
   51.9491    6.4392   18.0792 H   0  0  0  0  0  0  0  0  0  0  0  0
   49.9734    7.9449   18.7326 H   0  0  0  0  0  0  0  0  0  0  0  0
 10  4  1  0
 11  8  2  0
 12 11  1  0
 13  7  1  0
 14  7  2  0
 15 10  2  0
 16 10  1  0
 17 15  1  0
 18 16  2  0
 19 18  1  0
 20 11  1  0
 21 13  1  0
 22 13  1  0
 23 19  1  0
  3  5  2  0
  9 12  2  0
 17 19  2  0
  2  1  1  0
  3  4  1  0
  4  1  2  0
  5  2  1  0
  6  1  1  0
  7  6  1  0
  8  2  1  0
  9  5  1  0
 33 27  1  0
 34 31  2  0
 35 34  1  0
 36 30  1  0
 37 30  2  0
 38 33  2  0
 39 33  1  0
 40 38  1  0
 41 39  2  0
 42 41  1  0
 43 34  1  0
 44 36  1  0
 45 36  1  0
 46 42  1  0
 26 28  2  0
 32 35  2  0
 40 42  2  0
 25 24  1  0
 26 27  1  0
 27 24  2  0
 28 25  1  0
 29 24  1  0
 30 29  1  0
 31 25  1  0
 32 28  1  0
 53 48  2  0
 54 51  1  0
 55 52  1  0
 53 47  1  0
 55 56  1  0
 54 55  1  0
 56 49  1  0
 53 54  1  0
 56 50  2  0
  6 57  1  0
  6 58  1  0
  8 59  1  0
  9 60  1  0
 12 61  1  0
 15 62  1  0
 16 63  1  0
 17 64  1  0
 18 65  1  0
 20 66  1  0
 20 67  1  0
 20 68  1  0
 21 69  1  0
 21 70  1  0
 21 71  1  0
 22 72  1  0
 22 73  1  0
 22 74  1  0
 23 75  1  0
 23 76  1  0
 23 77  1  0
 29 78  1  0
 29 79  1  0
 31 80  1  0
 32 81  1  0
 35 82  1  0
 38 83  1  0
 39 84  1  0
 40 85  1  0
 41 86  1  0
 43 87  1  0
 43 88  1  0
 43 89  1  0
 44 90  1  0
 44 91  1  0
 44 92  1  0
 45 93  1  0
 45 94  1  0
 45 95  1  0
 46 96  1  0
 46 97  1  0
 46 98  1  0
 47 99  1  0
 49100  1  0
 51101  1  0
 52102  1  0
 54103  1  1
 55104  1  6
M  END
> <Uni-Dock RESULT> 
ENERGY=   -6.571  LOWER_BOUND=    2.661  UPPER_BOUND=    4.596
INTER + INTRA:          -6.571
INTER:                  -6.571
INTRA:                   0.000
UNBOUND:                 0.000

$$$$

     RDKit          3D

104107  0  0  0  0  0  0  0  0999 V2000
   49.3274    8.8061   18.1508 C   0  0  0  0  0  0  0  0  0  0  0  0
   48.7254    9.8157   18.8888 N   0  0  0  0  0  0  0  0  0  0  0  0
   47.4329    8.0028   19.1365 N   0  0  0  0  0  0  0  0  0  0  0  0
   48.5658    7.6765   18.4289 C   0  0  0  0  0  0  0  0  0  0  0  0
   47.5475    9.2851   19.4066 C   0  0  0  0  0  0  0  0  0  0  0  0
   50.5332    9.0001   17.2810 C   0  0  0  0  0  0  0  0  0  0  0  0
   50.3707   10.1450   16.2807 C   0  0  0  0  0  0  0  0  0  0  0  0
   49.1366   11.1268   19.1416 C   0  0  0  0  0  0  0  0  0  0  0  0
   46.7014   10.1625   20.1409 C   0  0  0  0  0  0  0  0  0  0  0  0
   48.8367    6.3108   18.0076 C   0  0  0  0  0  0  0  0  0  0  0  0
   48.3582   11.9479   19.8748 C   0  0  0  0  0  0  0  0  0  0  0  0
   47.0823   11.4357   20.3648 C   0  0  0  0  0  0  0  0  0  0  0  0
   49.5080    9.9907   15.1978 N   0  0  0  0  0  0  0  0  0  0  0  0
   51.0271   11.1797   16.4481 O   0  0  0  0  0  0  0  0  0  0  0  0
   47.7832    5.5015   17.5648 C   0  0  0  0  0  0  0  0  0  0  0  0
   50.1243    5.7615   18.0845 C   0  0  0  0  0  0  0  0  0  0  0  0
   48.0186    4.1782   17.1796 C   0  0  0  0  0  0  0  0  0  0  0  0
   50.3593    4.4416   17.6827 C   0  0  0  0  0  0  0  0  0  0  0  0
   49.3099    3.6430   17.2186 C   0  0  0  0  0  0  0  0  0  0  0  0
   48.7334   13.3520   20.2195 C   0  0  0  0  0  0  0  0  0  0  0  0
   48.6062    8.8619   14.9980 C   0  0  0  0  0  0  0  0  0  0  0  0
   49.2649   11.1419   14.3432 C   0  0  0  0  0  0  0  0  0  0  0  0
   49.5563    2.2105   16.8384 C   0  0  0  0  0  0  0  0  0  0  0  0
   48.6880    9.0125   18.1897 C   0  0  0  0  0  0  0  0  0  0  0  0
   48.0736   10.1044   18.7791 N   0  0  0  0  0  0  0  0  0  0  0  0
   47.0101    8.2868   19.5488 N   0  0  0  0  0  0  0  0  0  0  0  0
   47.9673    7.9159   18.6374 C   0  0  0  0  0  0  0  0  0  0  0  0
   47.0791    9.5985   19.6113 C   0  0  0  0  0  0  0  0  0  0  0  0
   49.8893    9.1162   17.3104 C   0  0  0  0  0  0  0  0  0  0  0  0
   49.5280    9.5189   15.8789 C   0  0  0  0  0  0  0  0  0  0  0  0
   48.3406   11.4709   18.6568 C   0  0  0  0  0  0  0  0  0  0  0  0
   46.3134   10.5347   20.3581 C   0  0  0  0  0  0  0  0  0  0  0  0
   48.2001    6.5289   18.2830 C   0  0  0  0  0  0  0  0  0  0  0  0
   47.6215   12.3609   19.3677 C   0  0  0  0  0  0  0  0  0  0  0  0
   46.5727   11.8519   20.2496 C   0  0  0  0  0  0  0  0  0  0  0  0
   50.4801    9.2599   14.8931 N   0  0  0  0  0  0  0  0  0  0  0  0
   48.4619   10.0719   15.6076 O   0  0  0  0  0  0  0  0  0  0  0  0
   48.3252    5.5697   19.2947 C   0  0  0  0  0  0  0  0  0  0  0  0
   48.2777    6.1281   16.9442 C   0  0  0  0  0  0  0  0  0  0  0  0
   48.5563    4.2313   18.9715 C   0  0  0  0  0  0  0  0  0  0  0  0
   48.5179    4.7887   16.6239 C   0  0  0  0  0  0  0  0  0  0  0  0
   48.6742    3.8330   17.6349 C   0  0  0  0  0  0  0  0  0  0  0  0
   47.8221   13.8424   19.2899 C   0  0  0  0  0  0  0  0  0  0  0  0
   51.7755    8.6472   15.1391 C   0  0  0  0  0  0  0  0  0  0  0  0
   50.1269    9.4775   13.4966 C   0  0  0  0  0  0  0  0  0  0  0  0
   48.9018    2.3892   17.2951 C   0  0  0  0  0  0  0  0  0  0  0  0
   48.7586   10.9050   16.8576 O   0  0  0  0  0  0  0  0  0  0  0  0
   50.7649   10.0076   17.2807 O   0  0  0  0  0  0  0  0  0  0  0  0
   47.8148    6.7589   19.3064 O   0  0  0  0  0  0  0  0  0  0  0  0
   48.9387    8.6621   19.6273 O   0  0  0  0  0  0  0  0  0  0  0  0
   47.4924    8.6381   16.4943 O   0  0  0  0  0  0  0  0  0  0  0  0
   48.8911    6.1656   16.9951 O   0  0  0  0  0  0  0  0  0  0  0  0
   49.6010    9.8507   16.9584 C   0  0  0  0  0  0  0  0  0  0  0  0
   48.9211    8.5400   16.5723 C   0  0  1  0  0  0  0  0  0  0  0  0
   49.3111    7.4244   17.5378 C   0  0  1  0  0  0  0  0  0  0  0  0
   48.7072    7.6958   18.9169 C   0  0  0  0  0  0  0  0  0  0  0  0
   50.7871    8.0957   16.7147 H   0  0  0  0  0  0  0  0  0  0  0  0
   51.4037    9.2137   17.9173 H   0  0  0  0  0  0  0  0  0  0  0  0
   50.0930   11.4358   18.7471 H   0  0  0  0  0  0  0  0  0  0  0  0
   45.7622    9.7769   20.5080 H   0  0  0  0  0  0  0  0  0  0  0  0
   46.4396   12.1064   20.9279 H   0  0  0  0  0  0  0  0  0  0  0  0
   46.7710    5.8997   17.5348 H   0  0  0  0  0  0  0  0  0  0  0  0
   50.9552    6.3469   18.4698 H   0  0  0  0  0  0  0  0  0  0  0  0
   47.1808    3.5703   16.8461 H   0  0  0  0  0  0  0  0  0  0  0  0
   51.3652    4.0336   17.7573 H   0  0  0  0  0  0  0  0  0  0  0  0
   49.7423   13.6027   19.8724 H   0  0  0  0  0  0  0  0  0  0  0  0
   48.0350   14.0659   19.7696 H   0  0  0  0  0  0  0  0  0  0  0  0
   48.7157   13.4946   21.3038 H   0  0  0  0  0  0  0  0  0  0  0  0
   48.9590    7.9538   15.4992 H   0  0  0  0  0  0  0  0  0  0  0  0
   47.6187    9.1405   15.3777 H   0  0  0  0  0  0  0  0  0  0  0  0
   48.5377    8.6561   13.9268 H   0  0  0  0  0  0  0  0  0  0  0  0
   49.2993   10.8180   13.2997 H   0  0  0  0  0  0  0  0  0  0  0  0
   48.2696   11.5357   14.5693 H   0  0  0  0  0  0  0  0  0  0  0  0
   50.0008   11.9365   14.4838 H   0  0  0  0  0  0  0  0  0  0  0  0
   50.4982    2.1157   16.2904 H   0  0  0  0  0  0  0  0  0  0  0  0
   49.5997    1.5872   17.7345 H   0  0  0  0  0  0  0  0  0  0  0  0
   48.7630    1.8321   16.1866 H   0  0  0  0  0  0  0  0  0  0  0  0
   50.5882    9.8576   17.7113 H   0  0  0  0  0  0  0  0  0  0  0  0
   50.4025    8.1509   17.3091 H   0  0  0  0  0  0  0  0  0  0  0  0
   49.1252   11.7643   17.9734 H   0  0  0  0  0  0  0  0  0  0  0  0
   45.5277   10.1574   21.0008 H   0  0  0  0  0  0  0  0  0  0  0  0
   45.9863   12.5683   20.8168 H   0  0  0  0  0  0  0  0  0  0  0  0
   48.2391    5.8669   20.3392 H   0  0  0  0  0  0  0  0  0  0  0  0
   48.1386    6.8527   16.1447 H   0  0  0  0  0  0  0  0  0  0  0  0
   48.6637    3.5038   19.7732 H   0  0  0  0  0  0  0  0  0  0  0  0
   48.5742    4.5015   15.5774 H   0  0  0  0  0  0  0  0  0  0  0  0
   46.8989   14.3361   18.9654 H   0  0  0  0  0  0  0  0  0  0  0  0
   48.1117   14.2422   20.2679 H   0  0  0  0  0  0  0  0  0  0  0  0
   48.6075   14.1100   18.5738 H   0  0  0  0  0  0  0  0  0  0  0  0
   52.5108    9.0661   14.4428 H   0  0  0  0  0  0  0  0  0  0  0  0
   52.1270    8.8360   16.1542 H   0  0  0  0  0  0  0  0  0  0  0  0
   51.6905    7.5672   14.9796 H   0  0  0  0  0  0  0  0  0  0  0  0
   50.2084    8.5252   12.9624 H   0  0  0  0  0  0  0  0  0  0  0  0
   50.8308   10.1968   13.0645 H   0  0  0  0  0  0  0  0  0  0  0  0
   49.1106    9.8604   13.3803 H   0  0  0  0  0  0  0  0  0  0  0  0
   49.5962    1.9354   18.0083 H   0  0  0  0  0  0  0  0  0  0  0  0
   49.3415    2.2841   16.2983 H   0  0  0  0  0  0  0  0  0  0  0  0
   47.9570    1.8412   17.3234 H   0  0  0  0  0  0  0  0  0  0  0  0
   49.2994   11.6639   17.1688 H   0  0  0  0  0  0  0  0  0  0  0  0
   47.5064    7.0619   20.1857 H   0  0  0  0  0  0  0  0  0  0  0  0
   47.3102    9.5593   16.2180 H   0  0  0  0  0  0  0  0  0  0  0  0
   47.9157    6.1639   17.0701 H   0  0  0  0  0  0  0  0  0  0  0  0
   49.2584    8.2939   15.5580 H   0  0  0  0  0  0  0  0  0  0  0  0
   50.3959    7.3594   17.6628 H   0  0  0  0  0  0  0  0  0  0  0  0
 10  4  1  0
 11  8  2  0
 12 11  1  0
 13  7  1  0
 14  7  2  0
 15 10  2  0
 16 10  1  0
 17 15  1  0
 18 16  2  0
 19 18  1  0
 20 11  1  0
 21 13  1  0
 22 13  1  0
 23 19  1  0
  3  5  2  0
  9 12  2  0
 17 19  2  0
  2  1  1  0
  3  4  1  0
  4  1  2  0
  5  2  1  0
  6  1  1  0
  7  6  1  0
  8  2  1  0
  9  5  1  0
 33 27  1  0
 34 31  2  0
 35 34  1  0
 36 30  1  0
 37 30  2  0
 38 33  2  0
 39 33  1  0
 40 38  1  0
 41 39  2  0
 42 41  1  0
 43 34  1  0
 44 36  1  0
 45 36  1  0
 46 42  1  0
 26 28  2  0
 32 35  2  0
 40 42  2  0
 25 24  1  0
 26 27  1  0
 27 24  2  0
 28 25  1  0
 29 24  1  0
 30 29  1  0
 31 25  1  0
 32 28  1  0
 53 48  2  0
 54 51  1  0
 55 52  1  0
 53 47  1  0
 55 56  1  0
 54 55  1  0
 56 49  1  0
 53 54  1  0
 56 50  2  0
  6 57  1  0
  6 58  1  0
  8 59  1  0
  9 60  1  0
 12 61  1  0
 15 62  1  0
 16 63  1  0
 17 64  1  0
 18 65  1  0
 20 66  1  0
 20 67  1  0
 20 68  1  0
 21 69  1  0
 21 70  1  0
 21 71  1  0
 22 72  1  0
 22 73  1  0
 22 74  1  0
 23 75  1  0
 23 76  1  0
 23 77  1  0
 29 78  1  0
 29 79  1  0
 31 80  1  0
 32 81  1  0
 35 82  1  0
 38 83  1  0
 39 84  1  0
 40 85  1  0
 41 86  1  0
 43 87  1  0
 43 88  1  0
 43 89  1  0
 44 90  1  0
 44 91  1  0
 44 92  1  0
 45 93  1  0
 45 94  1  0
 45 95  1  0
 46 96  1  0
 46 97  1  0
 46 98  1  0
 47 99  1  0
 49100  1  0
 51101  1  0
 52102  1  0
 54103  1  1
 55104  1  6
M  END
> <Uni-Dock RESULT> 
ENERGY=   -6.537  LOWER_BOUND=    1.340  UPPER_BOUND=    5.686
INTER + INTRA:          -6.537
INTER:                  -6.537
INTRA:                   0.000
UNBOUND:                 0.000

$$$$

     RDKit          3D

104107  0  0  0  0  0  0  0  0999 V2000
   51.8115    5.3983   19.1079 C   0  0  0  0  0  0  0  0  0  0  0  0
   52.0720    4.1777   18.5010 N   0  0  0  0  0  0  0  0  0  0  0  0
   49.8681    4.5222   18.2942 N   0  0  0  0  0  0  0  0  0  0  0  0
   50.4645    5.6289   18.8515 C   0  0  0  0  0  0  0  0  0  0  0  0
   50.8454    3.6663   18.0875 C   0  0  0  0  0  0  0  0  0  0  0  0
   52.8333    6.2084   19.8481 C   0  0  0  0  0  0  0  0  0  0  0  0
   53.5659    5.4072   20.9247 C   0  0  0  0  0  0  0  0  0  0  0  0
   53.2797    3.5108   18.2801 C   0  0  0  0  0  0  0  0  0  0  0  0
   50.8402    2.3686   17.5037 C   0  0  0  0  0  0  0  0  0  0  0  0
   49.7063    6.8312   19.1606 C   0  0  0  0  0  0  0  0  0  0  0  0
   53.2827    2.3002   17.6866 C   0  0  0  0  0  0  0  0  0  0  0  0
   52.0008    1.7107   17.3127 C   0  0  0  0  0  0  0  0  0  0  0  0
   52.8887    5.0420   22.0860 N   0  0  0  0  0  0  0  0  0  0  0  0
   54.7546    5.1167   20.7454 O   0  0  0  0  0  0  0  0  0  0  0  0
   48.4070    6.7179   19.6702 C   0  0  0  0  0  0  0  0  0  0  0  0
   50.2244    8.1095   18.9095 C   0  0  0  0  0  0  0  0  0  0  0  0
   47.6523    7.8613   19.9499 C   0  0  0  0  0  0  0  0  0  0  0  0
   49.4725    9.2522   19.2057 C   0  0  0  0  0  0  0  0  0  0  0  0
   48.1844    9.1367   19.7368 C   0  0  0  0  0  0  0  0  0  0  0  0
   54.5271    1.5317   17.3840 C   0  0  0  0  0  0  0  0  0  0  0  0
   51.4613    5.2309   22.3193 C   0  0  0  0  0  0  0  0  0  0  0  0
   53.5633    4.1625   23.0274 C   0  0  0  0  0  0  0  0  0  0  0  0
   47.3602   10.3642   20.0039 C   0  0  0  0  0  0  0  0  0  0  0  0
   51.5043    4.8011   19.1524 C   0  0  0  0  0  0  0  0  0  0  0  0
   51.8200    3.5315   18.6989 N   0  0  0  0  0  0  0  0  0  0  0  0
   49.7547    3.9772   17.9485 N   0  0  0  0  0  0  0  0  0  0  0  0
   50.2031    5.0168   18.7250 C   0  0  0  0  0  0  0  0  0  0  0  0
   50.7284    3.0934   17.9545 C   0  0  0  0  0  0  0  0  0  0  0  0
   52.4594    5.6728   19.8972 C   0  0  0  0  0  0  0  0  0  0  0  0
   52.5433    5.3072   21.3809 C   0  0  0  0  0  0  0  0  0  0  0  0
   52.9793    2.7696   18.8694 C   0  0  0  0  0  0  0  0  0  0  0  0
   50.8211    1.8090   17.3528 C   0  0  0  0  0  0  0  0  0  0  0  0
   49.4004    6.1995   18.9707 C   0  0  0  0  0  0  0  0  0  0  0  0
   53.0736    1.5546   18.2954 C   0  0  0  0  0  0  0  0  0  0  0  0
   51.9396    1.0748   17.5077 C   0  0  0  0  0  0  0  0  0  0  0  0
   53.0701    6.2731   22.2381 N   0  0  0  0  0  0  0  0  0  0  0  0
   52.1917    4.2044   21.8004 O   0  0  0  0  0  0  0  0  0  0  0  0
   48.7722    6.8424   17.8977 C   0  0  0  0  0  0  0  0  0  0  0  0
   49.2228    6.6960   20.2672 C   0  0  0  0  0  0  0  0  0  0  0  0
   48.0015    7.9859   18.1154 C   0  0  0  0  0  0  0  0  0  0  0  0
   48.4577    7.8464   20.4809 C   0  0  0  0  0  0  0  0  0  0  0  0
   47.8540    8.5087   19.4054 C   0  0  0  0  0  0  0  0  0  0  0  0
   54.2656    0.6598   18.4358 C   0  0  0  0  0  0  0  0  0  0  0  0
   53.5425    7.5815   21.8147 C   0  0  0  0  0  0  0  0  0  0  0  0
   53.0276    6.0395   23.6754 C   0  0  0  0  0  0  0  0  0  0  0  0
   47.0070    9.7261   19.6339 C   0  0  0  0  0  0  0  0  0  0  0  0
   52.9427    3.6755   20.5753 O   0  0  0  0  0  0  0  0  0  0  0  0
   53.7092    5.6603   19.8808 O   0  0  0  0  0  0  0  0  0  0  0  0
   49.2520    5.6458   18.0114 O   0  0  0  0  0  0  0  0  0  0  0  0
   51.3790    5.0518   17.6780 O   0  0  0  0  0  0  0  0  0  0  0  0
   50.4597    4.4314   20.9457 O   0  0  0  0  0  0  0  0  0  0  0  0
   49.6806    7.0924   20.1507 O   0  0  0  0  0  0  0  0  0  0  0  0
   52.7885    4.9956   20.3209 C   0  0  0  0  0  0  0  0  0  0  0  0
   51.3964    5.4901   20.7038 C   0  0  1  0  0  0  0  0  0  0  0  0
   50.8464    6.4340   19.6382 C   0  0  1  0  0  0  0  0  0  0  0  0
   50.5594    5.6559   18.3527 C   0  0  0  0  0  0  0  0  0  0  0  0
   52.3947    7.0910   20.3296 H   0  0  0  0  0  0  0  0  0  0  0  0
   53.5749    6.5906   19.1324 H   0  0  0  0  0  0  0  0  0  0  0  0
   54.1886    4.0088   18.5831 H   0  0  0  0  0  0  0  0  0  0  0  0
   49.8904    1.9398   17.2216 H   0  0  0  0  0  0  0  0  0  0  0  0
   51.9996    0.7213   16.8641 H   0  0  0  0  0  0  0  0  0  0  0  0
   47.9747    5.7331   19.8355 H   0  0  0  0  0  0  0  0  0  0  0  0
   51.2104    8.2319   18.4686 H   0  0  0  0  0  0  0  0  0  0  0  0
   46.6435    7.7438   20.3388 H   0  0  0  0  0  0  0  0  0  0  0  0
   49.8916   10.2342   18.9964 H   0  0  0  0  0  0  0  0  0  0  0  0
   55.4301    2.1019   17.6307 H   0  0  0  0  0  0  0  0  0  0  0  0
   54.5557    0.5939   17.9491 H   0  0  0  0  0  0  0  0  0  0  0  0
   54.5743    1.2894   16.3184 H   0  0  0  0  0  0  0  0  0  0  0  0
   51.0494    6.0579   21.7305 H   0  0  0  0  0  0  0  0  0  0  0  0
   50.9465    4.2988   22.0685 H   0  0  0  0  0  0  0  0  0  0  0  0
   51.3082    5.4559   23.3778 H   0  0  0  0  0  0  0  0  0  0  0  0
   53.3982    4.5394   24.0401 H   0  0  0  0  0  0  0  0  0  0  0  0
   53.1302    3.1620   22.9364 H   0  0  0  0  0  0  0  0  0  0  0  0
   54.6394    4.1001   22.8519 H   0  0  0  0  0  0  0  0  0  0  0  0
   47.9791   11.1549   20.4374 H   0  0  0  0  0  0  0  0  0  0  0  0
   46.9162   10.7270   19.0741 H   0  0  0  0  0  0  0  0  0  0  0  0
   46.5572   10.1539   20.7169 H   0  0  0  0  0  0  0  0  0  0  0  0
   53.4620    5.5911   19.4646 H   0  0  0  0  0  0  0  0  0  0  0  0
   52.1395    6.7123   19.7857 H   0  0  0  0  0  0  0  0  0  0  0  0
   53.7667    3.1929   19.4772 H   0  0  0  0  0  0  0  0  0  0  0  0
   49.9750    1.4489   16.7808 H   0  0  0  0  0  0  0  0  0  0  0  0
   52.0103    0.0921   17.0515 H   0  0  0  0  0  0  0  0  0  0  0  0
   48.8819    6.4480   16.8881 H   0  0  0  0  0  0  0  0  0  0  0  0
   49.6672    6.1834   21.1177 H   0  0  0  0  0  0  0  0  0  0  0  0
   47.5326    8.4782   17.2660 H   0  0  0  0  0  0  0  0  0  0  0  0
   48.3341    8.2131   21.4964 H   0  0  0  0  0  0  0  0  0  0  0  0
   53.9749   -0.2950   18.8889 H   0  0  0  0  0  0  0  0  0  0  0  0
   54.7156    0.4637   17.4565 H   0  0  0  0  0  0  0  0  0  0  0  0
   55.0366    1.1058   19.0744 H   0  0  0  0  0  0  0  0  0  0  0  0
   54.3844    7.8833   22.4480 H   0  0  0  0  0  0  0  0  0  0  0  0
   53.8856    7.5730   20.7795 H   0  0  0  0  0  0  0  0  0  0  0  0
   52.7250    8.3023   21.9200 H   0  0  0  0  0  0  0  0  0  0  0  0
   52.4322    6.8315   24.1413 H   0  0  0  0  0  0  0  0  0  0  0  0
   54.0496    6.0761   24.0674 H   0  0  0  0  0  0  0  0  0  0  0  0
   52.5849    5.0728   23.9259 H   0  0  0  0  0  0  0  0  0  0  0  0
   47.1494   10.4464   18.8229 H   0  0  0  0  0  0  0  0  0  0  0  0
   47.2810   10.2266   20.5679 H   0  0  0  0  0  0  0  0  0  0  0  0
   45.9512    9.4484   19.6791 H   0  0  0  0  0  0  0  0  0  0  0  0
   53.8494    3.4815   20.2503 H   0  0  0  0  0  0  0  0  0  0  0  0
   49.2150    5.1117   17.1908 H   0  0  0  0  0  0  0  0  0  0  0  0
   50.9928    3.6875   21.2933 H   0  0  0  0  0  0  0  0  0  0  0  0
   48.9877    6.4027   20.1845 H   0  0  0  0  0  0  0  0  0  0  0  0
   51.4991    6.0205   21.6585 H   0  0  0  0  0  0  0  0  0  0  0  0
   51.5619    7.2234   19.3899 H   0  0  0  0  0  0  0  0  0  0  0  0
 10  4  1  0
 11  8  2  0
 12 11  1  0
 13  7  1  0
 14  7  2  0
 15 10  2  0
 16 10  1  0
 17 15  1  0
 18 16  2  0
 19 18  1  0
 20 11  1  0
 21 13  1  0
 22 13  1  0
 23 19  1  0
  3  5  2  0
  9 12  2  0
 17 19  2  0
  2  1  1  0
  3  4  1  0
  4  1  2  0
  5  2  1  0
  6  1  1  0
  7  6  1  0
  8  2  1  0
  9  5  1  0
 33 27  1  0
 34 31  2  0
 35 34  1  0
 36 30  1  0
 37 30  2  0
 38 33  2  0
 39 33  1  0
 40 38  1  0
 41 39  2  0
 42 41  1  0
 43 34  1  0
 44 36  1  0
 45 36  1  0
 46 42  1  0
 26 28  2  0
 32 35  2  0
 40 42  2  0
 25 24  1  0
 26 27  1  0
 27 24  2  0
 28 25  1  0
 29 24  1  0
 30 29  1  0
 31 25  1  0
 32 28  1  0
 53 48  2  0
 54 51  1  0
 55 52  1  0
 53 47  1  0
 55 56  1  0
 54 55  1  0
 56 49  1  0
 53 54  1  0
 56 50  2  0
  6 57  1  0
  6 58  1  0
  8 59  1  0
  9 60  1  0
 12 61  1  0
 15 62  1  0
 16 63  1  0
 17 64  1  0
 18 65  1  0
 20 66  1  0
 20 67  1  0
 20 68  1  0
 21 69  1  0
 21 70  1  0
 21 71  1  0
 22 72  1  0
 22 73  1  0
 22 74  1  0
 23 75  1  0
 23 76  1  0
 23 77  1  0
 29 78  1  0
 29 79  1  0
 31 80  1  0
 32 81  1  0
 35 82  1  0
 38 83  1  0
 39 84  1  0
 40 85  1  0
 41 86  1  0
 43 87  1  0
 43 88  1  0
 43 89  1  0
 44 90  1  0
 44 91  1  0
 44 92  1  0
 45 93  1  0
 45 94  1  0
 45 95  1  0
 46 96  1  0
 46 97  1  0
 46 98  1  0
 47 99  1  0
 49100  1  0
 51101  1  0
 52102  1  0
 54103  1  1
 55104  1  6
M  END
> <Uni-Dock RESULT> 
ENERGY=   -6.474  LOWER_BOUND=    3.328  UPPER_BOUND=    4.923
INTER + INTRA:          -6.474
INTER:                  -6.474
INTRA:                   0.000
UNBOUND:                 0.000

$$$$

     RDKit          3D

104107  0  0  0  0  0  0  0  0999 V2000
   48.8055    7.8320   18.0598 C   0  0  0  0  0  0  0  0  0  0  0  0
   48.1861    8.5101   19.1004 N   0  0  0  0  0  0  0  0  0  0  0  0
   48.0933    9.8707   17.3231 N   0  0  0  0  0  0  0  0  0  0  0  0
   48.6189    8.6547   16.9545 C   0  0  0  0  0  0  0  0  0  0  0  0
   47.8365    9.7644   18.6089 C   0  0  0  0  0  0  0  0  0  0  0  0
   49.4919    6.5069   18.2056 C   0  0  0  0  0  0  0  0  0  0  0  0
   50.5293    6.4914   19.3286 C   0  0  0  0  0  0  0  0  0  0  0  0
   47.9033    8.1073   20.4080 C   0  0  0  0  0  0  0  0  0  0  0  0
   47.2541   10.6867   19.5226 C   0  0  0  0  0  0  0  0  0  0  0  0
   48.9665    8.3596   15.5731 C   0  0  0  0  0  0  0  0  0  0  0  0
   47.3107    8.9638   21.2640 C   0  0  0  0  0  0  0  0  0  0  0  0
   47.0035   10.3105   20.7923 C   0  0  0  0  0  0  0  0  0  0  0  0
   51.7241    7.1892   19.1665 N   0  0  0  0  0  0  0  0  0  0  0  0
   50.2890    5.8407   20.3525 O   0  0  0  0  0  0  0  0  0  0  0  0
   49.5425    9.3568   14.7766 C   0  0  0  0  0  0  0  0  0  0  0  0
   48.6888    7.1118   14.9977 C   0  0  0  0  0  0  0  0  0  0  0  0
   49.8606    9.1011   13.4392 C   0  0  0  0  0  0  0  0  0  0  0  0
   49.0233    6.8539   13.6633 C   0  0  0  0  0  0  0  0  0  0  0  0
   49.6201    7.8437   12.8768 C   0  0  0  0  0  0  0  0  0  0  0  0
   46.9443    8.6078   22.6675 C   0  0  0  0  0  0  0  0  0  0  0  0
   52.0307    8.0803   18.0533 C   0  0  0  0  0  0  0  0  0  0  0  0
   52.6296    7.2746   20.3013 C   0  0  0  0  0  0  0  0  0  0  0  0
   49.9292    7.5805   11.4303 C   0  0  0  0  0  0  0  0  0  0  0  0
   48.8659    8.4647   18.2811 C   0  0  0  0  0  0  0  0  0  0  0  0
   48.3969    9.1311   19.4006 N   0  0  0  0  0  0  0  0  0  0  0  0
   47.7540   10.3421   17.6265 N   0  0  0  0  0  0  0  0  0  0  0  0
   48.5062    9.2710   17.2121 C   0  0  0  0  0  0  0  0  0  0  0  0
   47.7099   10.2497   18.9376 C   0  0  0  0  0  0  0  0  0  0  0  0
   49.5603    7.1450   18.3365 C   0  0  0  0  0  0  0  0  0  0  0  0
   51.0377    7.2816   18.7115 C   0  0  0  0  0  0  0  0  0  0  0  0
   48.5075    8.8143   20.7574 C   0  0  0  0  0  0  0  0  0  0  0  0
   47.1044   11.0927   19.9086 C   0  0  0  0  0  0  0  0  0  0  0  0
   48.7927    9.0241   15.8120 C   0  0  0  0  0  0  0  0  0  0  0  0
   47.9296    9.6072   21.6804 C   0  0  0  0  0  0  0  0  0  0  0  0
   47.2015   10.7868   21.2167 C   0  0  0  0  0  0  0  0  0  0  0  0
   51.8664    6.2018   18.4072 N   0  0  0  0  0  0  0  0  0  0  0  0
   51.4749    8.2818   19.2809 O   0  0  0  0  0  0  0  0  0  0  0  0
   47.7535    9.0735   14.8756 C   0  0  0  0  0  0  0  0  0  0  0  0
   50.0966    8.7607   15.3765 C   0  0  0  0  0  0  0  0  0  0  0  0
   48.0105    8.8315   13.5249 C   0  0  0  0  0  0  0  0  0  0  0  0
   50.3493    8.5102   14.0246 C   0  0  0  0  0  0  0  0  0  0  0  0
   49.3063    8.5286   13.0910 C   0  0  0  0  0  0  0  0  0  0  0  0
   48.0084    9.3597   23.1548 C   0  0  0  0  0  0  0  0  0  0  0  0
   51.4190    4.9726   17.7724 C   0  0  0  0  0  0  0  0  0  0  0  0
   53.3041    6.3402   18.5978 C   0  0  0  0  0  0  0  0  0  0  0  0
   49.5780    8.2903   11.6346 C   0  0  0  0  0  0  0  0  0  0  0  0
   50.2128    8.1509   20.1380 O   0  0  0  0  0  0  0  0  0  0  0  0
   49.4794    6.2521   19.2074 O   0  0  0  0  0  0  0  0  0  0  0  0
   47.8425    9.5496   16.0757 O   0  0  0  0  0  0  0  0  0  0  0  0
   47.3998    8.4371   17.9610 O   0  0  0  0  0  0  0  0  0  0  0  0
   50.7107    9.4072   17.8912 O   0  0  0  0  0  0  0  0  0  0  0  0
   49.9566    8.1607   15.4018 O   0  0  0  0  0  0  0  0  0  0  0  0
   49.9665    7.3595   19.0682 C   0  0  0  0  0  0  0  0  0  0  0  0
   50.4207    8.0085   17.7637 C   0  0  1  0  0  0  0  0  0  0  0  0
   49.3847    7.7931   16.6640 C   0  0  1  0  0  0  0  0  0  0  0  0
   48.1159    8.5861   16.9828 C   0  0  0  0  0  0  0  0  0  0  0  0
   49.9952    6.1956   17.2821 H   0  0  0  0  0  0  0  0  0  0  0  0
   48.7387    5.7342   18.4157 H   0  0  0  0  0  0  0  0  0  0  0  0
   48.1589    7.0956   20.6860 H   0  0  0  0  0  0  0  0  0  0  0  0
   47.0213   11.6791   19.1671 H   0  0  0  0  0  0  0  0  0  0  0  0
   46.5557   11.0118   21.4907 H   0  0  0  0  0  0  0  0  0  0  0  0
   49.7300   10.3432   15.1961 H   0  0  0  0  0  0  0  0  0  0  0  0
   48.1976    6.3319   15.5740 H   0  0  0  0  0  0  0  0  0  0  0  0
   50.3011    9.8960   12.8418 H   0  0  0  0  0  0  0  0  0  0  0  0
   48.7924    5.8806   13.2353 H   0  0  0  0  0  0  0  0  0  0  0  0
   47.1441    7.5527   22.8873 H   0  0  0  0  0  0  0  0  0  0  0  0
   47.5074    9.2140   23.3853 H   0  0  0  0  0  0  0  0  0  0  0  0
   45.8778    8.7810   22.8374 H   0  0  0  0  0  0  0  0  0  0  0  0
   51.4638    7.8282   17.1503 H   0  0  0  0  0  0  0  0  0  0  0  0
   51.8069    9.1054   18.3630 H   0  0  0  0  0  0  0  0  0  0  0  0
   53.0957    7.9958   17.8226 H   0  0  0  0  0  0  0  0  0  0  0  0
   53.6494    7.0955   19.9509 H   0  0  0  0  0  0  0  0  0  0  0  0
   52.5612    8.2820   20.7225 H   0  0  0  0  0  0  0  0  0  0  0  0
   52.3988    6.5475   21.0828 H   0  0  0  0  0  0  0  0  0  0  0  0
   50.3301    6.5711   11.3012 H   0  0  0  0  0  0  0  0  0  0  0  0
   49.0235    7.6852   10.8286 H   0  0  0  0  0  0  0  0  0  0  0  0
   50.6827    8.2788   11.0534 H   0  0  0  0  0  0  0  0  0  0  0  0
   49.0765    6.4939   19.0721 H   0  0  0  0  0  0  0  0  0  0  0  0
   49.4653    6.6618   17.3604 H   0  0  0  0  0  0  0  0  0  0  0  0
   49.0738    7.9306   21.0164 H   0  0  0  0  0  0  0  0  0  0  0  0
   46.5768   11.9738   19.5647 H   0  0  0  0  0  0  0  0  0  0  0  0
   46.7424   11.4318   21.9596 H   0  0  0  0  0  0  0  0  0  0  0  0
   46.7397    9.3045   15.2005 H   0  0  0  0  0  0  0  0  0  0  0  0
   50.9231    8.7623   16.0840 H   0  0  0  0  0  0  0  0  0  0  0  0
   47.1864    8.8616   12.8153 H   0  0  0  0  0  0  0  0  0  0  0  0
   51.3698    8.3080   13.7103 H   0  0  0  0  0  0  0  0  0  0  0  0
   48.4760   10.2124   23.6605 H   0  0  0  0  0  0  0  0  0  0  0  0
   47.0072    9.2070   23.5722 H   0  0  0  0  0  0  0  0  0  0  0  0
   48.6063    8.4710   23.3871 H   0  0  0  0  0  0  0  0  0  0  0  0
   52.0080    4.1325   18.1576 H   0  0  0  0  0  0  0  0  0  0  0  0
   50.3675    4.7695   17.9785 H   0  0  0  0  0  0  0  0  0  0  0  0
   51.5663    5.0607   16.6909 H   0  0  0  0  0  0  0  0  0  0  0  0
   53.8000    6.2053   17.6311 H   0  0  0  0  0  0  0  0  0  0  0  0
   53.6428    5.5624   19.2905 H   0  0  0  0  0  0  0  0  0  0  0  0
   53.5772    7.3183   19.0000 H   0  0  0  0  0  0  0  0  0  0  0  0
   48.7607    7.7201   11.1834 H   0  0  0  0  0  0  0  0  0  0  0  0
   50.4965    7.7117   11.4951 H   0  0  0  0  0  0  0  0  0  0  0  0
   49.6777    9.2426   11.1084 H   0  0  0  0  0  0  0  0  0  0  0  0
   49.8415    7.6426   20.8923 H   0  0  0  0  0  0  0  0  0  0  0  0
   47.0249    9.9761   16.4071 H   0  0  0  0  0  0  0  0  0  0  0  0
   51.0305    9.5234   18.8092 H   0  0  0  0  0  0  0  0  0  0  0  0
   50.0262    9.1362   15.4234 H   0  0  0  0  0  0  0  0  0  0  0  0
   51.3687    7.5321   17.4851 H   0  0  0  0  0  0  0  0  0  0  0  0
   49.0997    6.7405   16.5782 H   0  0  0  0  0  0  0  0  0  0  0  0
 10  4  1  0
 11  8  2  0
 12 11  1  0
 13  7  1  0
 14  7  2  0
 15 10  2  0
 16 10  1  0
 17 15  1  0
 18 16  2  0
 19 18  1  0
 20 11  1  0
 21 13  1  0
 22 13  1  0
 23 19  1  0
  3  5  2  0
  9 12  2  0
 17 19  2  0
  2  1  1  0
  3  4  1  0
  4  1  2  0
  5  2  1  0
  6  1  1  0
  7  6  1  0
  8  2  1  0
  9  5  1  0
 33 27  1  0
 34 31  2  0
 35 34  1  0
 36 30  1  0
 37 30  2  0
 38 33  2  0
 39 33  1  0
 40 38  1  0
 41 39  2  0
 42 41  1  0
 43 34  1  0
 44 36  1  0
 45 36  1  0
 46 42  1  0
 26 28  2  0
 32 35  2  0
 40 42  2  0
 25 24  1  0
 26 27  1  0
 27 24  2  0
 28 25  1  0
 29 24  1  0
 30 29  1  0
 31 25  1  0
 32 28  1  0
 53 48  2  0
 54 51  1  0
 55 52  1  0
 53 47  1  0
 55 56  1  0
 54 55  1  0
 56 49  1  0
 53 54  1  0
 56 50  2  0
  6 57  1  0
  6 58  1  0
  8 59  1  0
  9 60  1  0
 12 61  1  0
 15 62  1  0
 16 63  1  0
 17 64  1  0
 18 65  1  0
 20 66  1  0
 20 67  1  0
 20 68  1  0
 21 69  1  0
 21 70  1  0
 21 71  1  0
 22 72  1  0
 22 73  1  0
 22 74  1  0
 23 75  1  0
 23 76  1  0
 23 77  1  0
 29 78  1  0
 29 79  1  0
 31 80  1  0
 32 81  1  0
 35 82  1  0
 38 83  1  0
 39 84  1  0
 40 85  1  0
 41 86  1  0
 43 87  1  0
 43 88  1  0
 43 89  1  0
 44 90  1  0
 44 91  1  0
 44 92  1  0
 45 93  1  0
 45 94  1  0
 45 95  1  0
 46 96  1  0
 46 97  1  0
 46 98  1  0
 47 99  1  0
 49100  1  0
 51101  1  0
 52102  1  0
 54103  1  1
 55104  1  6
M  END
> <Uni-Dock RESULT> 
ENERGY=   -6.141  LOWER_BOUND=    1.980  UPPER_BOUND=    5.332
INTER + INTRA:          -6.141
INTER:                  -6.141
INTRA:                   0.000
UNBOUND:                 0.000

$$$$

     RDKit          3D

104107  0  0  0  0  0  0  0  0999 V2000
   48.5780    8.8071   16.0806 C   0  0  0  0  0  0  0  0  0  0  0  0
   48.6718    8.8458   14.6964 N   0  0  0  0  0  0  0  0  0  0  0  0
   49.2325    6.7638   15.3041 N   0  0  0  0  0  0  0  0  0  0  0  0
   48.8136    7.4753   16.4037 C   0  0  0  0  0  0  0  0  0  0  0  0
   49.1370    7.5981   14.2916 C   0  0  0  0  0  0  0  0  0  0  0  0
   48.2794    9.9986   16.9404 C   0  0  0  0  0  0  0  0  0  0  0  0
   49.2063   11.1826   16.6639 C   0  0  0  0  0  0  0  0  0  0  0  0
   48.3712    9.8678   13.7924 C   0  0  0  0  0  0  0  0  0  0  0  0
   49.3973    7.4147   12.9047 C   0  0  0  0  0  0  0  0  0  0  0  0
   48.7114    6.8606   17.7181 C   0  0  0  0  0  0  0  0  0  0  0  0
   48.5744    9.6819   12.4727 C   0  0  0  0  0  0  0  0  0  0  0  0
   49.1332    8.4074   12.0323 C   0  0  0  0  0  0  0  0  0  0  0  0
   50.5383   11.1180   17.0670 N   0  0  0  0  0  0  0  0  0  0  0  0
   48.7439   12.1826   16.1021 O   0  0  0  0  0  0  0  0  0  0  0  0
   49.6791    5.9343   18.1258 C   0  0  0  0  0  0  0  0  0  0  0  0
   47.6332    7.1314   18.5722 C   0  0  0  0  0  0  0  0  0  0  0  0
   49.5850    5.3132   19.3750 C   0  0  0  0  0  0  0  0  0  0  0  0
   47.5506    6.5203   19.8287 C   0  0  0  0  0  0  0  0  0  0  0  0
   48.5308    5.6137   20.2431 C   0  0  0  0  0  0  0  0  0  0  0  0
   48.2523   10.7066   11.4349 C   0  0  0  0  0  0  0  0  0  0  0  0
   51.1922    9.9353   17.6158 C   0  0  0  0  0  0  0  0  0  0  0  0
   51.4303   12.1949   16.6679 C   0  0  0  0  0  0  0  0  0  0  0  0
   48.4109    4.9197   21.5703 C   0  0  0  0  0  0  0  0  0  0  0  0
   49.0542    8.5899   15.6574 C   0  0  0  0  0  0  0  0  0  0  0  0
   49.2654    8.7493   14.2983 N   0  0  0  0  0  0  0  0  0  0  0  0
   49.3126    6.5426   14.6925 N   0  0  0  0  0  0  0  0  0  0  0  0
   49.1523    7.2239   15.8735 C   0  0  0  0  0  0  0  0  0  0  0  0
   49.3912    7.4703   13.7637 C   0  0  0  0  0  0  0  0  0  0  0  0
   48.7534    9.7201   16.5843 C   0  0  0  0  0  0  0  0  0  0  0  0
   50.0146   10.4789   17.0033 C   0  0  0  0  0  0  0  0  0  0  0  0
   49.3255    9.9084   13.5195 C   0  0  0  0  0  0  0  0  0  0  0  0
   49.5912    7.3655   12.3604 C   0  0  0  0  0  0  0  0  0  0  0  0
   49.0316    6.5424   17.1481 C   0  0  0  0  0  0  0  0  0  0  0  0
   49.5084    9.8130   12.1884 C   0  0  0  0  0  0  0  0  0  0  0  0
   49.6415    8.4794   11.6049 C   0  0  0  0  0  0  0  0  0  0  0  0
   49.9214   11.2707   18.1477 N   0  0  0  0  0  0  0  0  0  0  0  0
   51.0565   10.4207   16.3498 O   0  0  0  0  0  0  0  0  0  0  0  0
   48.1490    5.4631   17.2727 C   0  0  0  0  0  0  0  0  0  0  0  0
   49.8013    6.9301   18.2509 C   0  0  0  0  0  0  0  0  0  0  0  0
   48.0154    4.8001   18.4941 C   0  0  0  0  0  0  0  0  0  0  0  0
   49.6588    6.2700   19.4749 C   0  0  0  0  0  0  0  0  0  0  0  0
   48.7540    5.2102   19.6100 C   0  0  0  0  0  0  0  0  0  0  0  0
   49.6036   10.9962   11.2761 C   0  0  0  0  0  0  0  0  0  0  0  0
   48.7180   11.4220   18.9496 C   0  0  0  0  0  0  0  0  0  0  0  0
   51.1295   11.8876   18.6790 C   0  0  0  0  0  0  0  0  0  0  0  0
   48.6201    4.4793   20.9137 C   0  0  0  0  0  0  0  0  0  0  0  0
   50.1234   10.5789   15.1461 O   0  0  0  0  0  0  0  0  0  0  0  0
   48.2388   10.8298   16.3270 O   0  0  0  0  0  0  0  0  0  0  0  0
   48.6753    6.0172   16.2283 O   0  0  0  0  0  0  0  0  0  0  0  0
   47.8779    7.8055   15.1540 O   0  0  0  0  0  0  0  0  0  0  0  0
   51.0070    8.4789   16.4436 O   0  0  0  0  0  0  0  0  0  0  0  0
   49.3172    7.2623   18.4397 O   0  0  0  0  0  0  0  0  0  0  0  0
   49.2943   10.2452   16.1623 C   0  0  0  0  0  0  0  0  0  0  0  0
   49.8821    9.1415   17.0372 C   0  0  1  0  0  0  0  0  0  0  0  0
   48.8128    8.1165   17.4047 C   0  0  1  0  0  0  0  0  0  0  0  0
   48.3906    7.3363   16.1584 C   0  0  0  0  0  0  0  0  0  0  0  0
   48.3451    9.7661   18.0103 H   0  0  0  0  0  0  0  0  0  0  0  0
   47.2427   10.3182   16.7627 H   0  0  0  0  0  0  0  0  0  0  0  0
   47.9604   10.7833   14.1912 H   0  0  0  0  0  0  0  0  0  0  0  0
   49.8032    6.4676   12.5827 H   0  0  0  0  0  0  0  0  0  0  0  0
   49.3279    8.2685   10.9726 H   0  0  0  0  0  0  0  0  0  0  0  0
   50.5023    5.6835   17.4599 H   0  0  0  0  0  0  0  0  0  0  0  0
   46.8393    7.8080   18.2665 H   0  0  0  0  0  0  0  0  0  0  0  0
   50.3470    4.5928   19.6632 H   0  0  0  0  0  0  0  0  0  0  0  0
   46.7015    6.7399   20.4726 H   0  0  0  0  0  0  0  0  0  0  0  0
   47.7639   11.5873   11.8675 H   0  0  0  0  0  0  0  0  0  0  0  0
   49.1594   11.0426   10.9211 H   0  0  0  0  0  0  0  0  0  0  0  0
   47.5717   10.2893   10.6873 H   0  0  0  0  0  0  0  0  0  0  0  0
   50.4826    9.2533   18.0972 H   0  0  0  0  0  0  0  0  0  0  0  0
   51.7123    9.4221   16.8015 H   0  0  0  0  0  0  0  0  0  0  0  0
   51.9200   10.2559   18.3654 H   0  0  0  0  0  0  0  0  0  0  0  0
   52.0481   12.4750   17.5250 H   0  0  0  0  0  0  0  0  0  0  0  0
   52.0722   11.8302   15.8604 H   0  0  0  0  0  0  0  0  0  0  0  0
   50.8950   13.0817   16.3219 H   0  0  0  0  0  0  0  0  0  0  0  0
   48.0592    5.6160   22.3369 H   0  0  0  0  0  0  0  0  0  0  0  0
   47.7087    4.0862   21.4952 H   0  0  0  0  0  0  0  0  0  0  0  0
   49.3789    4.5332   21.9035 H   0  0  0  0  0  0  0  0  0  0  0  0
   48.0676   10.4280   16.1072 H   0  0  0  0  0  0  0  0  0  0  0  0
   48.2473    9.3197   17.4668 H   0  0  0  0  0  0  0  0  0  0  0  0
   49.2302   10.8559   14.0312 H   0  0  0  0  0  0  0  0  0  0  0  0
   49.7033    6.3776   11.9312 H   0  0  0  0  0  0  0  0  0  0  0  0
   49.7977    8.4009   10.5334 H   0  0  0  0  0  0  0  0  0  0  0  0
   47.5654    5.1360   16.4130 H   0  0  0  0  0  0  0  0  0  0  0  0
   50.5243    7.7380   18.1597 H   0  0  0  0  0  0  0  0  0  0  0  0
   47.3141    3.9722   18.5733 H   0  0  0  0  0  0  0  0  0  0  0  0
   50.2671    6.5890   20.3170 H   0  0  0  0  0  0  0  0  0  0  0  0
   50.5667   10.9982   10.7527 H   0  0  0  0  0  0  0  0  0  0  0  0
   48.7982   10.9741   10.5338 H   0  0  0  0  0  0  0  0  0  0  0  0
   49.5257   11.9414   11.8255 H   0  0  0  0  0  0  0  0  0  0  0  0
   48.6841   12.4371   19.3612 H   0  0  0  0  0  0  0  0  0  0  0  0
   47.8148   11.2678   18.3581 H   0  0  0  0  0  0  0  0  0  0  0  0
   48.7452   10.6937   19.7668 H   0  0  0  0  0  0  0  0  0  0  0  0
   51.2959   11.5138   19.6946 H   0  0  0  0  0  0  0  0  0  0  0  0
   50.9845   12.9727   18.7115 H   0  0  0  0  0  0  0  0  0  0  0  0
   52.0105   11.6643   18.0732 H   0  0  0  0  0  0  0  0  0  0  0  0
   47.5769    4.2002   21.0880 H   0  0  0  0  0  0  0  0  0  0  0  0
   48.9348    5.1088   21.7520 H   0  0  0  0  0  0  0  0  0  0  0  0
   49.2317    3.5739   20.9034 H   0  0  0  0  0  0  0  0  0  0  0  0
   49.6163   11.2560   14.6465 H   0  0  0  0  0  0  0  0  0  0  0  0
   48.3660    5.6521   15.3732 H   0  0  0  0  0  0  0  0  0  0  0  0
   51.4439    9.1564   15.8882 H   0  0  0  0  0  0  0  0  0  0  0  0
   49.9920    6.7017   18.0067 H   0  0  0  0  0  0  0  0  0  0  0  0
   50.2660    9.6253   17.9437 H   0  0  0  0  0  0  0  0  0  0  0  0
   47.9167    8.5954   17.8100 H   0  0  0  0  0  0  0  0  0  0  0  0
 10  4  1  0
 11  8  2  0
 12 11  1  0
 13  7  1  0
 14  7  2  0
 15 10  2  0
 16 10  1  0
 17 15  1  0
 18 16  2  0
 19 18  1  0
 20 11  1  0
 21 13  1  0
 22 13  1  0
 23 19  1  0
  3  5  2  0
  9 12  2  0
 17 19  2  0
  2  1  1  0
  3  4  1  0
  4  1  2  0
  5  2  1  0
  6  1  1  0
  7  6  1  0
  8  2  1  0
  9  5  1  0
 33 27  1  0
 34 31  2  0
 35 34  1  0
 36 30  1  0
 37 30  2  0
 38 33  2  0
 39 33  1  0
 40 38  1  0
 41 39  2  0
 42 41  1  0
 43 34  1  0
 44 36  1  0
 45 36  1  0
 46 42  1  0
 26 28  2  0
 32 35  2  0
 40 42  2  0
 25 24  1  0
 26 27  1  0
 27 24  2  0
 28 25  1  0
 29 24  1  0
 30 29  1  0
 31 25  1  0
 32 28  1  0
 53 48  2  0
 54 51  1  0
 55 52  1  0
 53 47  1  0
 55 56  1  0
 54 55  1  0
 56 49  1  0
 53 54  1  0
 56 50  2  0
  6 57  1  0
  6 58  1  0
  8 59  1  0
  9 60  1  0
 12 61  1  0
 15 62  1  0
 16 63  1  0
 17 64  1  0
 18 65  1  0
 20 66  1  0
 20 67  1  0
 20 68  1  0
 21 69  1  0
 21 70  1  0
 21 71  1  0
 22 72  1  0
 22 73  1  0
 22 74  1  0
 23 75  1  0
 23 76  1  0
 23 77  1  0
 29 78  1  0
 29 79  1  0
 31 80  1  0
 32 81  1  0
 35 82  1  0
 38 83  1  0
 39 84  1  0
 40 85  1  0
 41 86  1  0
 43 87  1  0
 43 88  1  0
 43 89  1  0
 44 90  1  0
 44 91  1  0
 44 92  1  0
 45 93  1  0
 45 94  1  0
 45 95  1  0
 46 96  1  0
 46 97  1  0
 46 98  1  0
 47 99  1  0
 49100  1  0
 51101  1  0
 52102  1  0
 54103  1  1
 55104  1  6
M  END
> <Uni-Dock RESULT> 
ENERGY=   -5.956  LOWER_BOUND=    2.125  UPPER_BOUND=    5.366
INTER + INTRA:          -5.956
INTER:                  -5.956
INTRA:                   0.000
UNBOUND:                 0.000

$$$$

     RDKit          3D

104107  0  0  0  0  0  0  0  0999 V2000
   49.6131    9.4907   16.6251 C   0  0  0  0  0  0  0  0  0  0  0  0
   49.1466   10.6979   17.1264 N   0  0  0  0  0  0  0  0  0  0  0  0
   48.0334    9.0925   18.2227 N   0  0  0  0  0  0  0  0  0  0  0  0
   48.9902    8.5283   17.4121 C   0  0  0  0  0  0  0  0  0  0  0  0
   48.1444   10.3907   18.0420 C   0  0  0  0  0  0  0  0  0  0  0  0
   50.5787    9.3664   15.4848 C   0  0  0  0  0  0  0  0  0  0  0  0
   50.1379   10.1393   14.2414 C   0  0  0  0  0  0  0  0  0  0  0  0
   49.5407   12.0099   16.8522 C   0  0  0  0  0  0  0  0  0  0  0  0
   47.4461   11.4780   18.6377 C   0  0  0  0  0  0  0  0  0  0  0  0
   49.2238    7.0927   17.3908 C   0  0  0  0  0  0  0  0  0  0  0  0
   48.9108   13.0418   17.4489 C   0  0  0  0  0  0  0  0  0  0  0  0
   47.8060   12.7458   18.3558 C   0  0  0  0  0  0  0  0  0  0  0  0
   49.0600    9.6733   13.4919 N   0  0  0  0  0  0  0  0  0  0  0  0
   50.7643   11.1557   13.9188 O   0  0  0  0  0  0  0  0  0  0  0  0
   48.1375    6.2136   17.4807 C   0  0  0  0  0  0  0  0  0  0  0  0
   50.5201    6.5616   17.3370 C   0  0  0  0  0  0  0  0  0  0  0  0
   48.3428    4.8306   17.4876 C   0  0  0  0  0  0  0  0  0  0  0  0
   50.7210    5.1765   17.3276 C   0  0  0  0  0  0  0  0  0  0  0  0
   49.6334    4.3006   17.3935 C   0  0  0  0  0  0  0  0  0  0  0  0
   49.2863   14.4720   17.2385 C   0  0  0  0  0  0  0  0  0  0  0  0
   48.1920    8.5641   13.8710 C   0  0  0  0  0  0  0  0  0  0  0  0
   48.5737   10.5005   12.3993 C   0  0  0  0  0  0  0  0  0  0  0  0
   49.8558    2.8154   17.4367 C   0  0  0  0  0  0  0  0  0  0  0  0
   48.9900    9.7159   16.7437 C   0  0  0  0  0  0  0  0  0  0  0  0
   48.4738   10.9545   17.0851 N   0  0  0  0  0  0  0  0  0  0  0  0
   47.7023    9.5038   18.6107 N   0  0  0  0  0  0  0  0  0  0  0  0
   48.4439    8.8375   17.6670 C   0  0  0  0  0  0  0  0  0  0  0  0
   47.7202   10.7654   18.2401 C   0  0  0  0  0  0  0  0  0  0  0  0
   49.9535    9.5032   15.6240 C   0  0  0  0  0  0  0  0  0  0  0  0
   49.2571    9.4412   14.2628 C   0  0  0  0  0  0  0  0  0  0  0  0
   48.6398   12.2041   16.4814 C   0  0  0  0  0  0  0  0  0  0  0  0
   47.1002   11.9103   18.8103 C   0  0  0  0  0  0  0  0  0  0  0  0
   48.6567    7.4040   17.7229 C   0  0  0  0  0  0  0  0  0  0  0  0
   48.0591   13.2925   17.0223 C   0  0  0  0  0  0  0  0  0  0  0  0
   47.2641   13.1177   18.2365 C   0  0  0  0  0  0  0  0  0  0  0  0
   49.9715    8.8576   13.2166 N   0  0  0  0  0  0  0  0  0  0  0  0
   48.1318    9.9083   14.0854 O   0  0  0  0  0  0  0  0  0  0  0  0
   49.0548    6.8117   18.9270 C   0  0  0  0  0  0  0  0  0  0  0  0
   48.4471    6.5977   16.5981 C   0  0  0  0  0  0  0  0  0  0  0  0
   49.2706    5.4341   18.9967 C   0  0  0  0  0  0  0  0  0  0  0  0
   48.6726    5.2198   16.6687 C   0  0  0  0  0  0  0  0  0  0  0  0
   49.1006    4.6298   17.8639 C   0  0  0  0  0  0  0  0  0  0  0  0
   48.1649   14.6671   16.4387 C   0  0  0  0  0  0  0  0  0  0  0  0
   51.3170    8.3197   13.3366 C   0  0  0  0  0  0  0  0  0  0  0  0
   49.2999    8.6310   11.9438 C   0  0  0  0  0  0  0  0  0  0  0  0
   49.3145    3.1472   17.9522 C   0  0  0  0  0  0  0  0  0  0  0  0
   48.6645   11.0862   14.9060 O   0  0  0  0  0  0  0  0  0  0  0  0
   50.7553   10.3153   15.1144 O   0  0  0  0  0  0  0  0  0  0  0  0
   48.5036    7.9566   18.6819 O   0  0  0  0  0  0  0  0  0  0  0  0
   49.5777    9.8324   18.1198 O   0  0  0  0  0  0  0  0  0  0  0  0
   47.4598    8.8560   15.5763 O   0  0  0  0  0  0  0  0  0  0  0  0
   49.0534    6.6328   16.4915 O   0  0  0  0  0  0  0  0  0  0  0  0
   49.5576   10.0958   15.1356 C   0  0  0  0  0  0  0  0  0  0  0  0
   48.8718    8.7492   15.3491 C   0  0  1  0  0  0  0  0  0  0  0  0
   49.5246    7.9868   16.4987 C   0  0  1  0  0  0  0  0  0  0  0  0
   49.2377    8.6975   17.8227 C   0  0  0  0  0  0  0  0  0  0  0  0
   50.7405    8.3227   15.1889 H   0  0  0  0  0  0  0  0  0  0  0  0
   51.5597    9.7471   15.8026 H   0  0  0  0  0  0  0  0  0  0  0  0
   50.3664   12.1521   16.1709 H   0  0  0  0  0  0  0  0  0  0  0  0
   46.6347   11.2542   19.3138 H   0  0  0  0  0  0  0  0  0  0  0  0
   47.2765   13.5775   18.8119 H   0  0  0  0  0  0  0  0  0  0  0  0
   47.1270    6.6090   17.5617 H   0  0  0  0  0  0  0  0  0  0  0  0
   51.3876    7.2162   17.3159 H   0  0  0  0  0  0  0  0  0  0  0  0
   47.4814    4.1712   17.5649 H   0  0  0  0  0  0  0  0  0  0  0  0
   51.7360    4.7862   17.2922 H   0  0  0  0  0  0  0  0  0  0  0  0
   50.1765   14.5725   16.6071 H   0  0  0  0  0  0  0  0  0  0  0  0
   48.4703   15.0252   16.7611 H   0  0  0  0  0  0  0  0  0  0  0  0
   49.5088   14.9513   18.1961 H   0  0  0  0  0  0  0  0  0  0  0  0
   48.6929    7.8524   14.5364 H   0  0  0  0  0  0  0  0  0  0  0  0
   47.3044    8.9753   14.3610 H   0  0  0  0  0  0  0  0  0  0  0  0
   47.8917    8.0315   12.9651 H   0  0  0  0  0  0  0  0  0  0  0  0
   48.3855    9.8619   11.5323 H   0  0  0  0  0  0  0  0  0  0  0  0
   47.6380   10.9724   12.7135 H   0  0  0  0  0  0  0  0  0  0  0  0
   49.2829   11.2786   12.1092 H   0  0  0  0  0  0  0  0  0  0  0  0
   50.6518    2.5264   16.7444 H   0  0  0  0  0  0  0  0  0  0  0  0
   50.1319    2.5072   18.4477 H   0  0  0  0  0  0  0  0  0  0  0  0
   48.9542    2.2716   17.1386 H   0  0  0  0  0  0  0  0  0  0  0  0
   50.6887   10.3143   15.5988 H   0  0  0  0  0  0  0  0  0  0  0  0
   50.4990    8.5737   15.8077 H   0  0  0  0  0  0  0  0  0  0  0  0
   49.2332   12.2445   15.5787 H   0  0  0  0  0  0  0  0  0  0  0  0
   46.5003   11.7773   19.7021 H   0  0  0  0  0  0  0  0  0  0  0  0
   46.7882   13.9924   18.6691 H   0  0  0  0  0  0  0  0  0  0  0  0
   49.1942    7.4267   19.8153 H   0  0  0  0  0  0  0  0  0  0  0  0
   48.0950    7.0352   15.6663 H   0  0  0  0  0  0  0  0  0  0  0  0
   49.5926    4.9955   19.9388 H   0  0  0  0  0  0  0  0  0  0  0  0
   48.5032    4.6144   15.7823 H   0  0  0  0  0  0  0  0  0  0  0  0
   47.1693   15.0573   16.1980 H   0  0  0  0  0  0  0  0  0  0  0  0
   48.6496   15.3482   17.1468 H   0  0  0  0  0  0  0  0  0  0  0  0
   48.7530   14.6727   15.5139 H   0  0  0  0  0  0  0  0  0  0  0  0
   51.8535    8.4764   12.3940 H   0  0  0  0  0  0  0  0  0  0  0  0
   51.8805    8.8108   14.1308 H   0  0  0  0  0  0  0  0  0  0  0  0
   51.2501    7.2475   13.5488 H   0  0  0  0  0  0  0  0  0  0  0  0
   49.3037    7.5567   11.7324 H   0  0  0  0  0  0  0  0  0  0  0  0
   49.8515    9.1571   11.1573 H   0  0  0  0  0  0  0  0  0  0  0  0
   48.2665    8.9846   11.9511 H   0  0  0  0  0  0  0  0  0  0  0  0
   50.1739    2.9241   18.5912 H   0  0  0  0  0  0  0  0  0  0  0  0
   49.5205    2.7198   16.9659 H   0  0  0  0  0  0  0  0  0  0  0  0
   48.4284    2.6621   18.3687 H   0  0  0  0  0  0  0  0  0  0  0  0
   49.2246   11.8897   14.8292 H   0  0  0  0  0  0  0  0  0  0  0  0
   48.3890    8.5309   19.4676 H   0  0  0  0  0  0  0  0  0  0  0  0
   47.1752    9.6469   15.0744 H   0  0  0  0  0  0  0  0  0  0  0  0
   48.1220    6.6813   16.7864 H   0  0  0  0  0  0  0  0  0  0  0  0
   48.9811    8.1854   14.4145 H   0  0  0  0  0  0  0  0  0  0  0  0
   50.6112    7.9355   16.3837 H   0  0  0  0  0  0  0  0  0  0  0  0
 10  4  1  0
 11  8  2  0
 12 11  1  0
 13  7  1  0
 14  7  2  0
 15 10  2  0
 16 10  1  0
 17 15  1  0
 18 16  2  0
 19 18  1  0
 20 11  1  0
 21 13  1  0
 22 13  1  0
 23 19  1  0
  3  5  2  0
  9 12  2  0
 17 19  2  0
  2  1  1  0
  3  4  1  0
  4  1  2  0
  5  2  1  0
  6  1  1  0
  7  6  1  0
  8  2  1  0
  9  5  1  0
 33 27  1  0
 34 31  2  0
 35 34  1  0
 36 30  1  0
 37 30  2  0
 38 33  2  0
 39 33  1  0
 40 38  1  0
 41 39  2  0
 42 41  1  0
 43 34  1  0
 44 36  1  0
 45 36  1  0
 46 42  1  0
 26 28  2  0
 32 35  2  0
 40 42  2  0
 25 24  1  0
 26 27  1  0
 27 24  2  0
 28 25  1  0
 29 24  1  0
 30 29  1  0
 31 25  1  0
 32 28  1  0
 53 48  2  0
 54 51  1  0
 55 52  1  0
 53 47  1  0
 55 56  1  0
 54 55  1  0
 56 49  1  0
 53 54  1  0
 56 50  2  0
  6 57  1  0
  6 58  1  0
  8 59  1  0
  9 60  1  0
 12 61  1  0
 15 62  1  0
 16 63  1  0
 17 64  1  0
 18 65  1  0
 20 66  1  0
 20 67  1  0
 20 68  1  0
 21 69  1  0
 21 70  1  0
 21 71  1  0
 22 72  1  0
 22 73  1  0
 22 74  1  0
 23 75  1  0
 23 76  1  0
 23 77  1  0
 29 78  1  0
 29 79  1  0
 31 80  1  0
 32 81  1  0
 35 82  1  0
 38 83  1  0
 39 84  1  0
 40 85  1  0
 41 86  1  0
 43 87  1  0
 43 88  1  0
 43 89  1  0
 44 90  1  0
 44 91  1  0
 44 92  1  0
 45 93  1  0
 45 94  1  0
 45 95  1  0
 46 96  1  0
 46 97  1  0
 46 98  1  0
 47 99  1  0
 49100  1  0
 51101  1  0
 52102  1  0
 54103  1  1
 55104  1  6
M  END
> <Uni-Dock RESULT> 
ENERGY=   -5.932  LOWER_BOUND=    1.999  UPPER_BOUND=    5.956
INTER + INTRA:          -5.932
INTER:                  -5.932
INTRA:                   0.000
UNBOUND:                 0.000

$$$$

     RDKit          3D

104107  0  0  0  0  0  0  0  0999 V2000
   49.6734    6.9132   19.0844 C   0  0  0  0  0  0  0  0  0  0  0  0
   49.2923    5.7421   18.4446 N   0  0  0  0  0  0  0  0  0  0  0  0
   47.4014    6.8618   18.8796 N   0  0  0  0  0  0  0  0  0  0  0  0
   48.4893    7.6284   19.2256 C   0  0  0  0  0  0  0  0  0  0  0  0
   47.9009    5.7389   18.4106 C   0  0  0  0  0  0  0  0  0  0  0  0
   51.0813    7.2362   19.4863 C   0  0  0  0  0  0  0  0  0  0  0  0
   51.7349    6.1304   20.3155 C   0  0  0  0  0  0  0  0  0  0  0  0
   50.0620    4.7150   17.8927 C   0  0  0  0  0  0  0  0  0  0  0  0
   47.2617    4.5879   17.8708 C   0  0  0  0  0  0  0  0  0  0  0  0
   48.3394    8.9865   19.7246 C   0  0  0  0  0  0  0  0  0  0  0  0
   49.4593    3.6431   17.3401 C   0  0  0  0  0  0  0  0  0  0  0  0
   48.0010    3.5830   17.3611 C   0  0  0  0  0  0  0  0  0  0  0  0
   51.3172    5.9211   21.6279 N   0  0  0  0  0  0  0  0  0  0  0  0
   52.6368    5.4564   19.8039 O   0  0  0  0  0  0  0  0  0  0  0  0
   47.2819    9.2929   20.5899 C   0  0  0  0  0  0  0  0  0  0  0  0
   49.1989   10.0164   19.3171 C   0  0  0  0  0  0  0  0  0  0  0  0
   47.1055   10.5976   21.0605 C   0  0  0  0  0  0  0  0  0  0  0  0
   49.0293   11.3180   19.8029 C   0  0  0  0  0  0  0  0  0  0  0  0
   47.9869   11.6164   20.6854 C   0  0  0  0  0  0  0  0  0  0  0  0
   50.2022    2.5161   16.7007 C   0  0  0  0  0  0  0  0  0  0  0  0
   50.1807    6.5800   22.2617 C   0  0  0  0  0  0  0  0  0  0  0  0
   51.8536    4.7757   22.3456 C   0  0  0  0  0  0  0  0  0  0  0  0
   47.7759   13.0251   21.1631 C   0  0  0  0  0  0  0  0  0  0  0  0
   49.1939    6.4619   19.2239 C   0  0  0  0  0  0  0  0  0  0  0  0
   48.8860    5.2113   18.7156 N   0  0  0  0  0  0  0  0  0  0  0  0
   47.0064    6.4272   18.5890 N   0  0  0  0  0  0  0  0  0  0  0  0
   47.9983    7.1631   19.1884 C   0  0  0  0  0  0  0  0  0  0  0  0
   47.5509    5.2596   18.3249 C   0  0  0  0  0  0  0  0  0  0  0  0
   50.5664    6.8654   19.6487 C   0  0  0  0  0  0  0  0  0  0  0  0
   50.9139    6.3562   21.0494 C   0  0  0  0  0  0  0  0  0  0  0  0
   49.6852    4.0762   18.5536 C   0  0  0  0  0  0  0  0  0  0  0  0
   46.9987    4.0880   17.7395 C   0  0  0  0  0  0  0  0  0  0  0  0
   47.7842    8.5247   19.6399 C   0  0  0  0  0  0  0  0  0  0  0  0
   49.1675    2.9660   17.9933 C   0  0  0  0  0  0  0  0  0  0  0  0
   47.7674    2.9946   17.5739 C   0  0  0  0  0  0  0  0  0  0  0  0
   51.9706    6.9883   21.7044 N   0  0  0  0  0  0  0  0  0  0  0  0
   50.3127    5.4150   21.5675 O   0  0  0  0  0  0  0  0  0  0  0  0
   47.1666    9.4459   18.7860 C   0  0  0  0  0  0  0  0  0  0  0  0
   48.1631    8.9279   20.9255 C   0  0  0  0  0  0  0  0  0  0  0  0
   46.9590   10.7623   19.2020 C   0  0  0  0  0  0  0  0  0  0  0  0
   47.9619   10.2490   21.3360 C   0  0  0  0  0  0  0  0  0  0  0  0
   47.3724   11.1799   20.4723 C   0  0  0  0  0  0  0  0  0  0  0  0
   49.9389    1.6984   17.7948 C   0  0  0  0  0  0  0  0  0  0  0  0
   52.7533    8.0785   21.1448 C   0  0  0  0  0  0  0  0  0  0  0  0
   52.2412    6.6511   23.0955 C   0  0  0  0  0  0  0  0  0  0  0  0
   47.1269   12.5910   20.9197 C   0  0  0  0  0  0  0  0  0  0  0  0
   50.4515    4.7720   20.1848 O   0  0  0  0  0  0  0  0  0  0  0  0
   51.6689    6.4132   19.2715 O   0  0  0  0  0  0  0  0  0  0  0  0
   47.1869    8.1519   18.7722 O   0  0  0  0  0  0  0  0  0  0  0  0
   48.7701    6.8780   17.8456 O   0  0  0  0  0  0  0  0  0  0  0  0
   48.6210    6.3192   21.2475 O   0  0  0  0  0  0  0  0  0  0  0  0
   48.6833    9.1458   20.6762 O   0  0  0  0  0  0  0  0  0  0  0  0
   50.7275    6.0790   19.9681 C   0  0  0  0  0  0  0  0  0  0  0  0
   49.7751    6.9958   20.7308 C   0  0  1  0  0  0  0  0  0  0  0  0
   49.3391    8.1688   19.8572 C   0  0  1  0  0  0  0  0  0  0  0  0
   48.4470    7.6667   18.7204 C   0  0  0  0  0  0  0  0  0  0  0  0
   51.1460    8.1676   20.0621 H   0  0  0  0  0  0  0  0  0  0  0  0
   51.6846    7.3967   18.5815 H   0  0  0  0  0  0  0  0  0  0  0  0
   51.1357    4.8285   17.9129 H   0  0  0  0  0  0  0  0  0  0  0  0
   46.1828    4.5514   17.8814 H   0  0  0  0  0  0  0  0  0  0  0  0
   47.5152    2.7048   16.9454 H   0  0  0  0  0  0  0  0  0  0  0  0
   46.5825    8.5138   20.8864 H   0  0  0  0  0  0  0  0  0  0  0  0
   49.9999    9.8228   18.6083 H   0  0  0  0  0  0  0  0  0  0  0  0
   46.2718   10.8087   21.7263 H   0  0  0  0  0  0  0  0  0  0  0  0
   49.7039   12.1032   19.4680 H   0  0  0  0  0  0  0  0  0  0  0  0
   51.2815    2.7040   16.6679 H   0  0  0  0  0  0  0  0  0  0  0  0
   50.0395    1.5801   17.2459 H   0  0  0  0  0  0  0  0  0  0  0  0
   49.8635    2.3738   15.6704 H   0  0  0  0  0  0  0  0  0  0  0  0
   49.9555    7.5505   21.8061 H   0  0  0  0  0  0  0  0  0  0  0  0
   49.3131    5.9181   22.1831 H   0  0  0  0  0  0  0  0  0  0  0  0
   50.4169    6.7442   23.3161 H   0  0  0  0  0  0  0  0  0  0  0  0
   52.1222    5.0898   23.3576 H   0  0  0  0  0  0  0  0  0  0  0  0
   51.0775    4.0063   22.3973 H   0  0  0  0  0  0  0  0  0  0  0  0
   52.7398    4.3533   21.8671 H   0  0  0  0  0  0  0  0  0  0  0  0
   48.7345   13.5014   21.3883 H   0  0  0  0  0  0  0  0  0  0  0  0
   47.2588   13.6071   20.3967 H   0  0  0  0  0  0  0  0  0  0  0  0
   47.1802   13.0467   22.0807 H   0  0  0  0  0  0  0  0  0  0  0  0
   51.3097    6.4753   18.9456 H   0  0  0  0  0  0  0  0  0  0  0  0
   50.6315    7.9564   19.6205 H   0  0  0  0  0  0  0  0  0  0  0  0
   50.7070    4.1345   18.9018 H   0  0  0  0  0  0  0  0  0  0  0  0
   45.9577    4.1059   17.4416 H   0  0  0  0  0  0  0  0  0  0  0  0
   47.3459    2.0979   17.1300 H   0  0  0  0  0  0  0  0  0  0  0  0
   46.8432    9.1348   17.7933 H   0  0  0  0  0  0  0  0  0  0  0  0
   48.6040    8.2138   21.6179 H   0  0  0  0  0  0  0  0  0  0  0  0
   46.4892   11.4659   18.5180 H   0  0  0  0  0  0  0  0  0  0  0  0
   48.2644   10.5387   22.3387 H   0  0  0  0  0  0  0  0  0  0  0  0
   49.4553    0.8702   18.3254 H   0  0  0  0  0  0  0  0  0  0  0  0
   49.9990    1.4487   16.7299 H   0  0  0  0  0  0  0  0  0  0  0  0
   50.9628    1.7808   18.1769 H   0  0  0  0  0  0  0  0  0  0  0  0
   53.7860    8.0022   21.5033 H   0  0  0  0  0  0  0  0  0  0  0  0
   52.7716    8.0464   20.0548 H   0  0  0  0  0  0  0  0  0  0  0  0
   52.3186    9.0287   21.4725 H   0  0  0  0  0  0  0  0  0  0  0  0
   52.1290    7.5550   23.7031 H   0  0  0  0  0  0  0  0  0  0  0  0
   53.2711    6.2869   23.1745 H   0  0  0  0  0  0  0  0  0  0  0  0
   51.5626    5.8846   23.4764 H   0  0  0  0  0  0  0  0  0  0  0  0
   47.2948   13.2871   20.0926 H   0  0  0  0  0  0  0  0  0  0  0  0
   47.8097   12.8722   21.7276 H   0  0  0  0  0  0  0  0  0  0  0  0
   46.0987   12.7019   21.2722 H   0  0  0  0  0  0  0  0  0  0  0  0
   51.0979    4.3013   19.6139 H   0  0  0  0  0  0  0  0  0  0  0  0
   46.7337    7.7450   18.0046 H   0  0  0  0  0  0  0  0  0  0  0  0
   48.9183    5.4057   21.4360 H   0  0  0  0  0  0  0  0  0  0  0  0
   47.8241    8.7458   20.9184 H   0  0  0  0  0  0  0  0  0  0  0  0
   50.3221    7.3634   21.6076 H   0  0  0  0  0  0  0  0  0  0  0  0
   50.1961    8.6736   19.4019 H   0  0  0  0  0  0  0  0  0  0  0  0
 10  4  1  0
 11  8  2  0
 12 11  1  0
 13  7  1  0
 14  7  2  0
 15 10  2  0
 16 10  1  0
 17 15  1  0
 18 16  2  0
 19 18  1  0
 20 11  1  0
 21 13  1  0
 22 13  1  0
 23 19  1  0
  3  5  2  0
  9 12  2  0
 17 19  2  0
  2  1  1  0
  3  4  1  0
  4  1  2  0
  5  2  1  0
  6  1  1  0
  7  6  1  0
  8  2  1  0
  9  5  1  0
 33 27  1  0
 34 31  2  0
 35 34  1  0
 36 30  1  0
 37 30  2  0
 38 33  2  0
 39 33  1  0
 40 38  1  0
 41 39  2  0
 42 41  1  0
 43 34  1  0
 44 36  1  0
 45 36  1  0
 46 42  1  0
 26 28  2  0
 32 35  2  0
 40 42  2  0
 25 24  1  0
 26 27  1  0
 27 24  2  0
 28 25  1  0
 29 24  1  0
 30 29  1  0
 31 25  1  0
 32 28  1  0
 53 48  2  0
 54 51  1  0
 55 52  1  0
 53 47  1  0
 55 56  1  0
 54 55  1  0
 56 49  1  0
 53 54  1  0
 56 50  2  0
  6 57  1  0
  6 58  1  0
  8 59  1  0
  9 60  1  0
 12 61  1  0
 15 62  1  0
 16 63  1  0
 17 64  1  0
 18 65  1  0
 20 66  1  0
 20 67  1  0
 20 68  1  0
 21 69  1  0
 21 70  1  0
 21 71  1  0
 22 72  1  0
 22 73  1  0
 22 74  1  0
 23 75  1  0
 23 76  1  0
 23 77  1  0
 29 78  1  0
 29 79  1  0
 31 80  1  0
 32 81  1  0
 35 82  1  0
 38 83  1  0
 39 84  1  0
 40 85  1  0
 41 86  1  0
 43 87  1  0
 43 88  1  0
 43 89  1  0
 44 90  1  0
 44 91  1  0
 44 92  1  0
 45 93  1  0
 45 94  1  0
 45 95  1  0
 46 96  1  0
 46 97  1  0
 46 98  1  0
 47 99  1  0
 49100  1  0
 51101  1  0
 52102  1  0
 54103  1  1
 55104  1  6
M  END
> <Uni-Dock RESULT> 
ENERGY=   -5.898  LOWER_BOUND=    2.008  UPPER_BOUND=    3.227
INTER + INTRA:          -5.898
INTER:                  -5.898
INTRA:                   0.000
UNBOUND:                 0.000

$$$$

     RDKit          3D

104107  0  0  0  0  0  0  0  0999 V2000
   42.2295   13.1488   11.6414 C   0  0  0  0  0  0  0  0  0  0  0  0
   41.1264   12.7192   12.3659 N   0  0  0  0  0  0  0  0  0  0  0  0
   40.9743   11.7426   10.3556 N   0  0  0  0  0  0  0  0  0  0  0  0
   42.1616   12.4293   10.4535 C   0  0  0  0  0  0  0  0  0  0  0  0
   40.3703   11.9237   11.5101 C   0  0  0  0  0  0  0  0  0  0  0  0
   43.2160   14.1669   12.1295 C   0  0  0  0  0  0  0  0  0  0  0  0
   42.5545   15.4620   12.6017 C   0  0  0  0  0  0  0  0  0  0  0  0
   40.7590   12.9602   13.6922 C   0  0  0  0  0  0  0  0  0  0  0  0
   39.1314   11.4261   12.0023 C   0  0  0  0  0  0  0  0  0  0  0  0
   43.1476   12.4070    9.3843 C   0  0  0  0  0  0  0  0  0  0  0  0
   39.6072   12.4529   14.1755 C   0  0  0  0  0  0  0  0  0  0  0  0
   38.7608   11.6782   13.2732 C   0  0  0  0  0  0  0  0  0  0  0  0
   41.9960   16.3270   11.6633 N   0  0  0  0  0  0  0  0  0  0  0  0
   42.5474   15.7206   13.8110 O   0  0  0  0  0  0  0  0  0  0  0  0
   42.7225   12.4348    8.0504 C   0  0  0  0  0  0  0  0  0  0  0  0
   44.5194   12.3028    9.6541 C   0  0  0  0  0  0  0  0  0  0  0  0
   43.6532   12.3884    7.0080 C   0  0  0  0  0  0  0  0  0  0  0  0
   45.4494   12.2730    8.6085 C   0  0  0  0  0  0  0  0  0  0  0  0
   45.0237   12.3249    7.2779 C   0  0  0  0  0  0  0  0  0  0  0  0
   39.1527   12.6341   15.5867 C   0  0  0  0  0  0  0  0  0  0  0  0
   41.8483   16.0397   10.2410 C   0  0  0  0  0  0  0  0  0  0  0  0
   41.2512   17.4783   12.1475 C   0  0  0  0  0  0  0  0  0  0  0  0
   46.0211   12.2393    6.1576 C   0  0  0  0  0  0  0  0  0  0  0  0
   41.5770   13.1065   11.4815 C   0  0  0  0  0  0  0  0  0  0  0  0
   40.4321   12.8418   12.2138 N   0  0  0  0  0  0  0  0  0  0  0  0
   40.4333   11.4006   10.4961 N   0  0  0  0  0  0  0  0  0  0  0  0
   41.5124   12.2436   10.3983 C   0  0  0  0  0  0  0  0  0  0  0  0
   39.7921   11.7808   11.5795 C   0  0  0  0  0  0  0  0  0  0  0  0
   42.6084   14.1033   11.8935 C   0  0  0  0  0  0  0  0  0  0  0  0
   42.2070   15.5359   11.5352 C   0  0  0  0  0  0  0  0  0  0  0  0
   39.9443   13.4360   13.3811 C   0  0  0  0  0  0  0  0  0  0  0  0
   38.5890   11.3000   12.1640 C   0  0  0  0  0  0  0  0  0  0  0  0
   42.4720   12.1470    9.3151 C   0  0  0  0  0  0  0  0  0  0  0  0
   38.8079   12.9790   13.9417 C   0  0  0  0  0  0  0  0  0  0  0  0
   38.1196   11.8643   13.2933 C   0  0  0  0  0  0  0  0  0  0  0  0
   43.2286   16.4847   11.4970 N   0  0  0  0  0  0  0  0  0  0  0  0
   41.0361   15.8489   11.3183 O   0  0  0  0  0  0  0  0  0  0  0  0
   43.0029   10.8980    8.9725 C   0  0  0  0  0  0  0  0  0  0  0  0
   42.8590   13.2795    8.5892 C   0  0  0  0  0  0  0  0  0  0  0  0
   43.9328   10.7880    7.9371 C   0  0  0  0  0  0  0  0  0  0  0  0
   43.7971   13.1674    7.5587 C   0  0  0  0  0  0  0  0  0  0  0  0
   44.3524   11.9238    7.2349 C   0  0  0  0  0  0  0  0  0  0  0  0
   38.1994   13.5617   15.1792 C   0  0  0  0  0  0  0  0  0  0  0  0
   44.6269   16.2021   11.7785 C   0  0  0  0  0  0  0  0  0  0  0  0
   42.9292   17.8246   11.0100 C   0  0  0  0  0  0  0  0  0  0  0  0
   45.3366   11.7944    6.1096 C   0  0  0  0  0  0  0  0  0  0  0  0
   40.7437   14.9849   12.5482 O   0  0  0  0  0  0  0  0  0  0  0  0
   42.8785   14.5248   13.0387 O   0  0  0  0  0  0  0  0  0  0  0  0
   41.9414   11.2188    9.6398 O   0  0  0  0  0  0  0  0  0  0  0  0
   41.8569   11.6725   11.8250 O   0  0  0  0  0  0  0  0  0  0  0  0
   40.9040   14.4351    9.9896 O   0  0  0  0  0  0  0  0  0  0  0  0
   43.3530   13.3147    8.9566 O   0  0  0  0  0  0  0  0  0  0  0  0
   42.0050   14.6413   12.1982 C   0  0  0  0  0  0  0  0  0  0  0  0
   42.1561   14.4944   10.6866 C   0  0  1  0  0  0  0  0  0  0  0  0
   42.9971   13.2677   10.3446 C   0  0  1  0  0  0  0  0  0  0  0  0
   42.2309   11.9945   10.7077 C   0  0  0  0  0  0  0  0  0  0  0  0
   43.9554   14.4301   11.3632 H   0  0  0  0  0  0  0  0  0  0  0  0
   43.7861   13.7408   12.9673 H   0  0  0  0  0  0  0  0  0  0  0  0
   41.4354   13.5418   14.3007 H   0  0  0  0  0  0  0  0  0  0  0  0
   38.5124   10.8470   11.3337 H   0  0  0  0  0  0  0  0  0  0  0  0
   37.8170   11.2965   13.6523 H   0  0  0  0  0  0  0  0  0  0  0  0
   41.6593   12.4771    7.8223 H   0  0  0  0  0  0  0  0  0  0  0  0
   44.8798   12.2297   10.6770 H   0  0  0  0  0  0  0  0  0  0  0  0
   43.2947   12.4049    5.9813 H   0  0  0  0  0  0  0  0  0  0  0  0
   46.5087   12.1850    8.8408 H   0  0  0  0  0  0  0  0  0  0  0  0
   39.9003   13.1581   16.1931 H   0  0  0  0  0  0  0  0  0  0  0  0
   38.2217   13.2098   15.6277 H   0  0  0  0  0  0  0  0  0  0  0  0
   38.9737   11.6625   16.0560 H   0  0  0  0  0  0  0  0  0  0  0  0
   42.5859   15.3122    9.8847 H   0  0  0  0  0  0  0  0  0  0  0  0
   40.8359   15.6615   10.0709 H   0  0  0  0  0  0  0  0  0  0  0  0
   41.9868   16.9684    9.6818 H   0  0  0  0  0  0  0  0  0  0  0  0
   41.5369   18.3541   11.5591 H   0  0  0  0  0  0  0  0  0  0  0  0
   40.1837   17.2810   12.0115 H   0  0  0  0  0  0  0  0  0  0  0  0
   41.4405   17.6923   13.2016 H   0  0  0  0  0  0  0  0  0  0  0  0
   46.9115   12.8304    6.3906 H   0  0  0  0  0  0  0  0  0  0  0  0
   46.3146   11.1995    5.9959 H   0  0  0  0  0  0  0  0  0  0  0  0
   45.6047   12.6346    5.2261 H   0  0  0  0  0  0  0  0  0  0  0  0
   42.7735   14.0516   12.9747 H   0  0  0  0  0  0  0  0  0  0  0  0
   43.5529   13.8466   11.4064 H   0  0  0  0  0  0  0  0  0  0  0  0
   40.5073   14.2635   13.7896 H   0  0  0  0  0  0  0  0  0  0  0  0
   38.0727   10.4830   11.6753 H   0  0  0  0  0  0  0  0  0  0  0  0
   37.1989   11.5002   13.7389 H   0  0  0  0  0  0  0  0  0  0  0  0
   42.6876   10.0065    9.5134 H   0  0  0  0  0  0  0  0  0  0  0  0
   42.4233   14.2509    8.8128 H   0  0  0  0  0  0  0  0  0  0  0  0
   44.3432    9.8099    7.6955 H   0  0  0  0  0  0  0  0  0  0  0  0
   44.0821   14.0607    7.0093 H   0  0  0  0  0  0  0  0  0  0  0  0
   37.1849   13.9216   14.9727 H   0  0  0  0  0  0  0  0  0  0  0  0
   38.1524   12.8095   15.9743 H   0  0  0  0  0  0  0  0  0  0  0  0
   38.7795   14.4113   15.5570 H   0  0  0  0  0  0  0  0  0  0  0  0
   45.0829   17.0772   12.2552 H   0  0  0  0  0  0  0  0  0  0  0  0
   44.7408   15.3530   12.4535 H   0  0  0  0  0  0  0  0  0  0  0  0
   45.1397   15.9871   10.8352 H   0  0  0  0  0  0  0  0  0  0  0  0
   43.5457   18.0220   10.1269 H   0  0  0  0  0  0  0  0  0  0  0  0
   43.1782   18.5471   11.7946 H   0  0  0  0  0  0  0  0  0  0  0  0
   41.8778   17.9423   10.7386 H   0  0  0  0  0  0  0  0  0  0  0  0
   46.1050   11.0568    6.3590 H   0  0  0  0  0  0  0  0  0  0  0  0
   45.8449   12.7450    5.9200 H   0  0  0  0  0  0  0  0  0  0  0  0
   44.8265   11.4789    5.1963 H   0  0  0  0  0  0  0  0  0  0  0  0
   40.7733   15.0048   13.5300 H   0  0  0  0  0  0  0  0  0  0  0  0
   41.4488   10.4584   10.0131 H   0  0  0  0  0  0  0  0  0  0  0  0
   40.2850   14.9757   10.5215 H   0  0  0  0  0  0  0  0  0  0  0  0
   42.5241   13.1314    8.4705 H   0  0  0  0  0  0  0  0  0  0  0  0
   42.6540   15.4033   10.3273 H   0  0  0  0  0  0  0  0  0  0  0  0
   43.9374   13.2543   10.9034 H   0  0  0  0  0  0  0  0  0  0  0  0
 10  4  1  0
 11  8  2  0
 12 11  1  0
 13  7  1  0
 14  7  2  0
 15 10  2  0
 16 10  1  0
 17 15  1  0
 18 16  2  0
 19 18  1  0
 20 11  1  0
 21 13  1  0
 22 13  1  0
 23 19  1  0
  3  5  2  0
  9 12  2  0
 17 19  2  0
  2  1  1  0
  3  4  1  0
  4  1  2  0
  5  2  1  0
  6  1  1  0
  7  6  1  0
  8  2  1  0
  9  5  1  0
 33 27  1  0
 34 31  2  0
 35 34  1  0
 36 30  1  0
 37 30  2  0
 38 33  2  0
 39 33  1  0
 40 38  1  0
 41 39  2  0
 42 41  1  0
 43 34  1  0
 44 36  1  0
 45 36  1  0
 46 42  1  0
 26 28  2  0
 32 35  2  0
 40 42  2  0
 25 24  1  0
 26 27  1  0
 27 24  2  0
 28 25  1  0
 29 24  1  0
 30 29  1  0
 31 25  1  0
 32 28  1  0
 53 48  2  0
 54 51  1  0
 55 52  1  0
 53 47  1  0
 55 56  1  0
 54 55  1  0
 56 49  1  0
 53 54  1  0
 56 50  2  0
  6 57  1  0
  6 58  1  0
  8 59  1  0
  9 60  1  0
 12 61  1  0
 15 62  1  0
 16 63  1  0
 17 64  1  0
 18 65  1  0
 20 66  1  0
 20 67  1  0
 20 68  1  0
 21 69  1  0
 21 70  1  0
 21 71  1  0
 22 72  1  0
 22 73  1  0
 22 74  1  0
 23 75  1  0
 23 76  1  0
 23 77  1  0
 29 78  1  0
 29 79  1  0
 31 80  1  0
 32 81  1  0
 35 82  1  0
 38 83  1  0
 39 84  1  0
 40 85  1  0
 41 86  1  0
 43 87  1  0
 43 88  1  0
 43 89  1  0
 44 90  1  0
 44 91  1  0
 44 92  1  0
 45 93  1  0
 45 94  1  0
 45 95  1  0
 46 96  1  0
 46 97  1  0
 46 98  1  0
 47 99  1  0
 49100  1  0
 51101  1  0
 52102  1  0
 54103  1  1
 55104  1  6
M  END
> <Uni-Dock RESULT> 
ENERGY=   -5.805  LOWER_BOUND=   10.768  UPPER_BOUND=   12.624
INTER + INTRA:          -5.805
INTER:                  -5.805
INTRA:                   0.000
UNBOUND:                 0.000

$$$$
