
     RDKit          3D

104107  0  0  0  0  0  0  0  0999 V2000
   48.8859    9.8154   18.0224 C   0  0  0  0  0  0  0  0  0  0  0  0
   48.5584   10.8106   18.9258 N   0  0  0  0  0  0  0  0  0  0  0  0
   48.3915   11.7302   16.8891 N   0  0  0  0  0  0  0  0  0  0  0  0
   48.7108   10.3996   16.7778 C   0  0  0  0  0  0  0  0  0  0  0  0
   48.2872   11.9546   18.1800 C   0  0  0  0  0  0  0  0  0  0  0  0
   49.3461    8.4499   18.4208 C   0  0  0  0  0  0  0  0  0  0  0  0
   48.1868    7.5387   18.8246 C   0  0  0  0  0  0  0  0  0  0  0  0
   48.5040   10.7845   20.3216 C   0  0  0  0  0  0  0  0  0  0  0  0
   47.9583   13.1391   18.8956 C   0  0  0  0  0  0  0  0  0  0  0  0
   48.8897    9.7515   15.4934 C   0  0  0  0  0  0  0  0  0  0  0  0
   48.1866   11.9037   21.0008 C   0  0  0  0  0  0  0  0  0  0  0  0
   47.9110   13.1208   20.2410 C   0  0  0  0  0  0  0  0  0  0  0  0
   48.4962    6.1924   19.0363 N   0  0  0  0  0  0  0  0  0  0  0  0
   47.0427    7.9684   18.9827 O   0  0  0  0  0  0  0  0  0  0  0  0
   48.2517    8.5411   15.1973 C   0  0  0  0  0  0  0  0  0  0  0  0
   49.6895   10.3559   14.5185 C   0  0  0  0  0  0  0  0  0  0  0  0
   48.4428    7.9254   13.9565 C   0  0  0  0  0  0  0  0  0  0  0  0
   49.8813    9.7396   13.2783 C   0  0  0  0  0  0  0  0  0  0  0  0
   49.2733    8.5110   12.9940 C   0  0  0  0  0  0  0  0  0  0  0  0
   48.0894   11.9687   22.4915 C   0  0  0  0  0  0  0  0  0  0  0  0
   49.7689    5.5896   18.6705 C   0  0  0  0  0  0  0  0  0  0  0  0
   47.3979    5.2692   19.2714 C   0  0  0  0  0  0  0  0  0  0  0  0
   49.4500    7.8683   11.6503 C   0  0  0  0  0  0  0  0  0  0  0  0
   49.0054    8.3782   17.8063 C   0  0  0  0  0  0  0  0  0  0  0  0
   48.8060    7.1481   18.4107 N   0  0  0  0  0  0  0  0  0  0  0  0
   48.8263    6.7658   16.2026 N   0  0  0  0  0  0  0  0  0  0  0  0
   49.0147    8.1017   16.4490 C   0  0  0  0  0  0  0  0  0  0  0  0
   48.7130    6.2082   17.3874 C   0  0  0  0  0  0  0  0  0  0  0  0
   49.1359    9.6657   18.5569 C   0  0  0  0  0  0  0  0  0  0  0  0
   47.7916   10.1673   19.0879 C   0  0  0  0  0  0  0  0  0  0  0  0
   48.7123    6.8071   19.7627 C   0  0  0  0  0  0  0  0  0  0  0  0
   48.5207    4.8492   17.7608 C   0  0  0  0  0  0  0  0  0  0  0  0
   49.1698    9.0688   15.3837 C   0  0  0  0  0  0  0  0  0  0  0  0
   48.5290    5.5209   20.1194 C   0  0  0  0  0  0  0  0  0  0  0  0
   48.4361    4.5160   19.0628 C   0  0  0  0  0  0  0  0  0  0  0  0
   47.7594   11.4693   19.5877 N   0  0  0  0  0  0  0  0  0  0  0  0
   46.7876    9.4523   19.0988 O   0  0  0  0  0  0  0  0  0  0  0  0
   50.3574    9.7933   15.2360 C   0  0  0  0  0  0  0  0  0  0  0  0
   48.1276    9.2642   14.4735 C   0  0  0  0  0  0  0  0  0  0  0  0
   50.4899   10.7237   14.2012 C   0  0  0  0  0  0  0  0  0  0  0  0
   48.2601   10.1953   13.4402 C   0  0  0  0  0  0  0  0  0  0  0  0
   49.4361   10.9431   13.3054 C   0  0  0  0  0  0  0  0  0  0  0  0
   48.4052    5.0612   21.5375 C   0  0  0  0  0  0  0  0  0  0  0  0
   48.9242   12.3147   19.8102 C   0  0  0  0  0  0  0  0  0  0  0  0
   46.4904   12.0000   20.0621 C   0  0  0  0  0  0  0  0  0  0  0  0
   49.5933   11.9129   12.1717 C   0  0  0  0  0  0  0  0  0  0  0  0
   49.8663    8.1930   15.6439 O   0  0  0  0  0  0  0  0  0  0  0  0
   49.7684   10.4244   15.5756 O   0  0  0  0  0  0  0  0  0  0  0  0
   48.8075    9.3753   20.0747 O   0  0  0  0  0  0  0  0  0  0  0  0
   50.4919    8.8732   18.6980 O   0  0  0  0  0  0  0  0  0  0  0  0
   47.5416   10.5091   17.2455 O   0  0  0  0  0  0  0  0  0  0  0  0
   46.9469    8.1494   18.6685 O   0  0  0  0  0  0  0  0  0  0  0  0
   49.3038    9.3678   15.9778 C   0  0  0  0  0  0  0  0  0  0  0  0
   48.0282    9.2333   16.7989 C   0  0  1  0  0  0  0  0  0  0  0  0
   48.2066    8.3073   18.0012 C   0  0  1  0  0  0  0  0  0  0  0  0
   49.2925    8.8543   18.9268 C   0  0  0  0  0  0  0  0  0  0  0  0
   49.8832    7.9981   17.5806 H   0  0  0  0  0  0  0  0  0  0  0  0
   50.0434    8.5191   19.2631 H   0  0  0  0  0  0  0  0  0  0  0  0
   48.7079    9.8417   20.8117 H   0  0  0  0  0  0  0  0  0  0  0  0
   47.7478   14.0396   18.3313 H   0  0  0  0  0  0  0  0  0  0  0  0
   47.6571   14.0236   20.7893 H   0  0  0  0  0  0  0  0  0  0  0  0
   47.5794    8.0825   15.9190 H   0  0  0  0  0  0  0  0  0  0  0  0
   50.1617   11.3150   14.7219 H   0  0  0  0  0  0  0  0  0  0  0  0
   47.9292    6.9908   13.7434 H   0  0  0  0  0  0  0  0  0  0  0  0
   50.5047   10.2306   12.5344 H   0  0  0  0  0  0  0  0  0  0  0  0
   48.3008   10.9991   22.9542 H   0  0  0  0  0  0  0  0  0  0  0  0
   48.8053   12.6930   22.8936 H   0  0  0  0  0  0  0  0  0  0  0  0
   47.0820   12.2679   22.7976 H   0  0  0  0  0  0  0  0  0  0  0  0
   49.9358    4.6925   19.2736 H   0  0  0  0  0  0  0  0  0  0  0  0
   50.5995    6.2770   18.8448 H   0  0  0  0  0  0  0  0  0  0  0  0
   49.7356    5.3221   17.6103 H   0  0  0  0  0  0  0  0  0  0  0  0
   47.1262    4.8017   18.3196 H   0  0  0  0  0  0  0  0  0  0  0  0
   47.7195    4.5017   19.9819 H   0  0  0  0  0  0  0  0  0  0  0  0
   46.5198    5.7753   19.6826 H   0  0  0  0  0  0  0  0  0  0  0  0
   49.3783    6.7782   11.7264 H   0  0  0  0  0  0  0  0  0  0  0  0
   48.6808    8.2263   10.9593 H   0  0  0  0  0  0  0  0  0  0  0  0
   50.4371    8.0997   11.2359 H   0  0  0  0  0  0  0  0  0  0  0  0
   49.8205    9.5375   19.4021 H   0  0  0  0  0  0  0  0  0  0  0  0
   49.5530   10.4297   17.8937 H   0  0  0  0  0  0  0  0  0  0  0  0
   48.7792    7.6094   20.4850 H   0  0  0  0  0  0  0  0  0  0  0  0
   48.4471    4.1061   16.9754 H   0  0  0  0  0  0  0  0  0  0  0  0
   48.2876    3.4783   19.3481 H   0  0  0  0  0  0  0  0  0  0  0  0
   51.1898    9.6259   15.9146 H   0  0  0  0  0  0  0  0  0  0  0  0
   47.2102    8.6869   14.5674 H   0  0  0  0  0  0  0  0  0  0  0  0
   51.4236   11.2701   14.0943 H   0  0  0  0  0  0  0  0  0  0  0  0
   47.4392   10.3277   12.7393 H   0  0  0  0  0  0  0  0  0  0  0  0
   47.4379    4.5757   21.7027 H   0  0  0  0  0  0  0  0  0  0  0  0
   49.1973    4.3459   21.7809 H   0  0  0  0  0  0  0  0  0  0  0  0
   48.4831    5.8950   22.2435 H   0  0  0  0  0  0  0  0  0  0  0  0
   48.9862   12.5452   20.8786 H   0  0  0  0  0  0  0  0  0  0  0  0
   49.8608   11.8443   19.5103 H   0  0  0  0  0  0  0  0  0  0  0  0
   48.7954   13.2437   19.2459 H   0  0  0  0  0  0  0  0  0  0  0  0
   46.3705   13.0224   19.6926 H   0  0  0  0  0  0  0  0  0  0  0  0
   46.5019   12.0054   21.1556 H   0  0  0  0  0  0  0  0  0  0  0  0
   45.6405   11.4043   19.7192 H   0  0  0  0  0  0  0  0  0  0  0  0
   50.2435   12.7465   12.4586 H   0  0  0  0  0  0  0  0  0  0  0  0
   48.6265   12.3399   11.8848 H   0  0  0  0  0  0  0  0  0  0  0  0
   50.0282   11.4061   11.3047 H   0  0  0  0  0  0  0  0  0  0  0  0
   50.6793    8.4398   15.1517 H   0  0  0  0  0  0  0  0  0  0  0  0
   49.6013    9.6904   20.5550 H   0  0  0  0  0  0  0  0  0  0  0  0
   47.7182   11.1417   16.5205 H   0  0  0  0  0  0  0  0  0  0  0  0
   46.7434    9.0382   19.0262 H   0  0  0  0  0  0  0  0  0  0  0  0
   47.2524    8.8350   16.1349 H   0  0  0  0  0  0  0  0  0  0  0  0
   48.5202    7.3032   17.6960 H   0  0  0  0  0  0  0  0  0  0  0  0
 10  4  1  0
 11  8  2  0
 12 11  1  0
 13  7  1  0
 14  7  2  0
 15 10  2  0
 16 10  1  0
 17 15  1  0
 18 16  2  0
 19 18  1  0
 20 11  1  0
 21 13  1  0
 22 13  1  0
 23 19  1  0
  3  5  2  0
  9 12  2  0
 17 19  2  0
  2  1  1  0
  3  4  1  0
  4  1  2  0
  5  2  1  0
  6  1  1  0
  7  6  1  0
  8  2  1  0
  9  5  1  0
 33 27  1  0
 34 31  2  0
 35 34  1  0
 36 30  1  0
 37 30  2  0
 38 33  2  0
 39 33  1  0
 40 38  1  0
 41 39  2  0
 42 41  1  0
 43 34  1  0
 44 36  1  0
 45 36  1  0
 46 42  1  0
 26 28  2  0
 32 35  2  0
 40 42  2  0
 25 24  1  0
 26 27  1  0
 27 24  2  0
 28 25  1  0
 29 24  1  0
 30 29  1  0
 31 25  1  0
 32 28  1  0
 53 48  2  0
 54 51  1  0
 55 52  1  0
 53 47  1  0
 55 56  1  0
 54 55  1  0
 56 49  1  0
 53 54  1  0
 56 50  2  0
  6 57  1  0
  6 58  1  0
  8 59  1  0
  9 60  1  0
 12 61  1  0
 15 62  1  0
 16 63  1  0
 17 64  1  0
 18 65  1  0
 20 66  1  0
 20 67  1  0
 20 68  1  0
 21 69  1  0
 21 70  1  0
 21 71  1  0
 22 72  1  0
 22 73  1  0
 22 74  1  0
 23 75  1  0
 23 76  1  0
 23 77  1  0
 29 78  1  0
 29 79  1  0
 31 80  1  0
 32 81  1  0
 35 82  1  0
 38 83  1  0
 39 84  1  0
 40 85  1  0
 41 86  1  0
 43 87  1  0
 43 88  1  0
 43 89  1  0
 44 90  1  0
 44 91  1  0
 44 92  1  0
 45 93  1  0
 45 94  1  0
 45 95  1  0
 46 96  1  0
 46 97  1  0
 46 98  1  0
 47 99  1  0
 49100  1  0
 51101  1  0
 52102  1  0
 54103  1  1
 55104  1  6
M  END
> <Uni-Dock RESULT> 
ENERGY=   -5.903  LOWER_BOUND=    0.000  UPPER_BOUND=    0.000
INTER + INTRA:          -5.903
INTER:                  -5.903
INTRA:                   0.000
UNBOUND:                 0.000

$$$$

     RDKit          3D

104107  0  0  0  0  0  0  0  0999 V2000
   50.8240    6.6264   20.8295 C   0  0  0  0  0  0  0  0  0  0  0  0
   51.8327    6.0854   21.6066 N   0  0  0  0  0  0  0  0  0  0  0  0
   51.0461    7.8526   22.7381 N   0  0  0  0  0  0  0  0  0  0  0  0
   50.3212    7.6732   21.5861 C   0  0  0  0  0  0  0  0  0  0  0  0
   51.9346    6.8840   22.7427 C   0  0  0  0  0  0  0  0  0  0  0  0
   50.4638    6.1244   19.4682 C   0  0  0  0  0  0  0  0  0  0  0  0
   49.5896    4.8712   19.5215 C   0  0  0  0  0  0  0  0  0  0  0  0
   52.6578    4.9813   21.3791 C   0  0  0  0  0  0  0  0  0  0  0  0
   52.9413    6.5484   23.6898 C   0  0  0  0  0  0  0  0  0  0  0  0
   49.2146    8.5376   21.2255 C   0  0  0  0  0  0  0  0  0  0  0  0
   53.6078    4.6583   22.2780 C   0  0  0  0  0  0  0  0  0  0  0  0
   53.7434    5.4891   23.4720 C   0  0  0  0  0  0  0  0  0  0  0  0
   49.0510    4.4345   18.3081 N   0  0  0  0  0  0  0  0  0  0  0  0
   49.3891    4.2588   20.5719 O   0  0  0  0  0  0  0  0  0  0  0  0
   47.9785    8.0084   20.8361 C   0  0  0  0  0  0  0  0  0  0  0  0
   49.3699    9.9257   21.2938 C   0  0  0  0  0  0  0  0  0  0  0  0
   46.9249    8.8572   20.4830 C   0  0  0  0  0  0  0  0  0  0  0  0
   48.3167   10.7742   20.9397 C   0  0  0  0  0  0  0  0  0  0  0  0
   47.0915   10.2465   20.5149 C   0  0  0  0  0  0  0  0  0  0  0  0
   54.5266    3.4881   22.1281 C   0  0  0  0  0  0  0  0  0  0  0  0
   49.0798    5.2193   17.0833 C   0  0  0  0  0  0  0  0  0  0  0  0
   48.0947    3.3399   18.3413 C   0  0  0  0  0  0  0  0  0  0  0  0
   45.9503   11.1569   20.1701 C   0  0  0  0  0  0  0  0  0  0  0  0
   49.8708    6.3808   19.7537 C   0  0  0  0  0  0  0  0  0  0  0  0
   49.3977    5.4008   18.8970 N   0  0  0  0  0  0  0  0  0  0  0  0
   47.8013    6.9706   18.9966 N   0  0  0  0  0  0  0  0  0  0  0  0
   48.8627    7.3302   19.7872 C   0  0  0  0  0  0  0  0  0  0  0  0
   48.1419    5.8185   18.4635 C   0  0  0  0  0  0  0  0  0  0  0  0
   51.1876    6.3074   20.4599 C   0  0  0  0  0  0  0  0  0  0  0  0
   51.1645    5.3233   21.6311 C   0  0  0  0  0  0  0  0  0  0  0  0
   49.9840    4.2038   18.4772 C   0  0  0  0  0  0  0  0  0  0  0  0
   47.4499    4.9760   17.5500 C   0  0  0  0  0  0  0  0  0  0  0  0
   48.8670    8.5502   20.5656 C   0  0  0  0  0  0  0  0  0  0  0  0
   49.3304    3.4032   17.6128 C   0  0  0  0  0  0  0  0  0  0  0  0
   48.0144    3.8248   17.1383 C   0  0  0  0  0  0  0  0  0  0  0  0
   52.2545    5.3558   22.5011 N   0  0  0  0  0  0  0  0  0  0  0  0
   50.2422    4.5211   21.7900 O   0  0  0  0  0  0  0  0  0  0  0  0
   49.8001    9.5617   20.3141 C   0  0  0  0  0  0  0  0  0  0  0  0
   47.9091    8.7320   21.5667 C   0  0  0  0  0  0  0  0  0  0  0  0
   49.7898   10.7336   21.0759 C   0  0  0  0  0  0  0  0  0  0  0  0
   47.9003    9.9031   22.3289 C   0  0  0  0  0  0  0  0  0  0  0  0
   48.8500   10.9060   22.0997 C   0  0  0  0  0  0  0  0  0  0  0  0
   49.8707    2.0996   17.1163 C   0  0  0  0  0  0  0  0  0  0  0  0
   53.4804    6.1123   22.2868 C   0  0  0  0  0  0  0  0  0  0  0  0
   52.2509    4.4663   23.6526 C   0  0  0  0  0  0  0  0  0  0  0  0
   48.8145   12.1802   22.8906 C   0  0  0  0  0  0  0  0  0  0  0  0
   48.8357    8.4472   19.4218 O   0  0  0  0  0  0  0  0  0  0  0  0
   50.1077    9.1853   21.1043 O   0  0  0  0  0  0  0  0  0  0  0  0
   51.7928    4.8705   20.2051 O   0  0  0  0  0  0  0  0  0  0  0  0
   51.4567    6.6885   18.9536 O   0  0  0  0  0  0  0  0  0  0  0  0
   50.1051    6.7043   22.3688 O   0  0  0  0  0  0  0  0  0  0  0  0
   49.2572    4.5056   20.8217 O   0  0  0  0  0  0  0  0  0  0  0  0
   49.4846    8.2702   20.5861 C   0  0  0  0  0  0  0  0  0  0  0  0
   49.2872    6.8917   21.2027 C   0  0  1  0  0  0  0  0  0  0  0  0
   49.5568    5.7657   20.2055 C   0  0  1  0  0  0  0  0  0  0  0  0
   50.9990    5.8427   19.7061 C   0  0  0  0  0  0  0  0  0  0  0  0
   49.9290    6.9136   18.9299 H   0  0  0  0  0  0  0  0  0  0  0  0
   51.3718    5.8911   18.9011 H   0  0  0  0  0  0  0  0  0  0  0  0
   52.4869    4.4074   20.4779 H   0  0  0  0  0  0  0  0  0  0  0  0
   53.0371    7.1611   24.5781 H   0  0  0  0  0  0  0  0  0  0  0  0
   54.5110    5.2294   24.1956 H   0  0  0  0  0  0  0  0  0  0  0  0
   47.8173    6.9327   20.8315 H   0  0  0  0  0  0  0  0  0  0  0  0
   50.3136   10.3504   21.6303 H   0  0  0  0  0  0  0  0  0  0  0  0
   45.9698    8.4250   20.1937 H   0  0  0  0  0  0  0  0  0  0  0  0
   48.4598   11.8504   21.0043 H   0  0  0  0  0  0  0  0  0  0  0  0
   54.3259    2.9304   21.2074 H   0  0  0  0  0  0  0  0  0  0  0  0
   55.5700    3.8183   22.0969 H   0  0  0  0  0  0  0  0  0  0  0  0
   54.4053    2.7952   22.9667 H   0  0  0  0  0  0  0  0  0  0  0  0
   48.9889    4.5539   16.2200 H   0  0  0  0  0  0  0  0  0  0  0  0
   50.0154    5.7748   16.9885 H   0  0  0  0  0  0  0  0  0  0  0  0
   48.2410    5.9214   17.0997 H   0  0  0  0  0  0  0  0  0  0  0  0
   47.0842    3.7607   18.3551 H   0  0  0  0  0  0  0  0  0  0  0  0
   48.2255    2.7212   17.4484 H   0  0  0  0  0  0  0  0  0  0  0  0
   48.2286    2.7071   19.2234 H   0  0  0  0  0  0  0  0  0  0  0  0
   45.2969   10.6973   19.4211 H   0  0  0  0  0  0  0  0  0  0  0  0
   45.3620   11.3766   21.0662 H   0  0  0  0  0  0  0  0  0  0  0  0
   46.3182   12.0972   19.7457 H   0  0  0  0  0  0  0  0  0  0  0  0
   51.9706    5.9993   19.7590 H   0  0  0  0  0  0  0  0  0  0  0  0
   51.4464    7.2982   20.8454 H   0  0  0  0  0  0  0  0  0  0  0  0
   50.9557    3.9557   18.8822 H   0  0  0  0  0  0  0  0  0  0  0  0
   46.4717    5.2882   17.2031 H   0  0  0  0  0  0  0  0  0  0  0  0
   47.4853    3.1805   16.4419 H   0  0  0  0  0  0  0  0  0  0  0  0
   50.5281    9.4497   19.5148 H   0  0  0  0  0  0  0  0  0  0  0  0
   47.1650    7.9602   21.7519 H   0  0  0  0  0  0  0  0  0  0  0  0
   50.5151   11.5141   20.8599 H   0  0  0  0  0  0  0  0  0  0  0  0
   47.1427   10.0268   23.0991 H   0  0  0  0  0  0  0  0  0  0  0  0
   49.2024    1.2762   17.3885 H   0  0  0  0  0  0  0  0  0  0  0  0
   49.9738    2.1157   16.0266 H   0  0  0  0  0  0  0  0  0  0  0  0
   50.8569    1.8806   17.5394 H   0  0  0  0  0  0  0  0  0  0  0  0
   54.3158    5.4076   22.2232 H   0  0  0  0  0  0  0  0  0  0  0  0
   53.4662    6.7044   21.3716 H   0  0  0  0  0  0  0  0  0  0  0  0
   53.6337    6.7798   23.1406 H   0  0  0  0  0  0  0  0  0  0  0  0
   52.5867    5.0211   24.5334 H   0  0  0  0  0  0  0  0  0  0  0  0
   52.9397    3.6399   23.4565 H   0  0  0  0  0  0  0  0  0  0  0  0
   51.2571    4.0593   23.8559 H   0  0  0  0  0  0  0  0  0  0  0  0
   49.8207   12.5982   23.0024 H   0  0  0  0  0  0  0  0  0  0  0  0
   48.4225   12.0049   23.8980 H   0  0  0  0  0  0  0  0  0  0  0  0
   48.1793   12.9150   22.3861 H   0  0  0  0  0  0  0  0  0  0  0  0
   49.0791    9.3554   19.1392 H   0  0  0  0  0  0  0  0  0  0  0  0
   52.6732    5.0485   19.8136 H   0  0  0  0  0  0  0  0  0  0  0  0
   50.1274    7.5655   22.8323 H   0  0  0  0  0  0  0  0  0  0  0  0
   49.9226    4.4146   21.5347 H   0  0  0  0  0  0  0  0  0  0  0  0
   48.2507    6.8363   21.5546 H   0  0  0  0  0  0  0  0  0  0  0  0
   48.9078    5.8394   19.3263 H   0  0  0  0  0  0  0  0  0  0  0  0
 10  4  1  0
 11  8  2  0
 12 11  1  0
 13  7  1  0
 14  7  2  0
 15 10  2  0
 16 10  1  0
 17 15  1  0
 18 16  2  0
 19 18  1  0
 20 11  1  0
 21 13  1  0
 22 13  1  0
 23 19  1  0
  3  5  2  0
  9 12  2  0
 17 19  2  0
  2  1  1  0
  3  4  1  0
  4  1  2  0
  5  2  1  0
  6  1  1  0
  7  6  1  0
  8  2  1  0
  9  5  1  0
 33 27  1  0
 34 31  2  0
 35 34  1  0
 36 30  1  0
 37 30  2  0
 38 33  2  0
 39 33  1  0
 40 38  1  0
 41 39  2  0
 42 41  1  0
 43 34  1  0
 44 36  1  0
 45 36  1  0
 46 42  1  0
 26 28  2  0
 32 35  2  0
 40 42  2  0
 25 24  1  0
 26 27  1  0
 27 24  2  0
 28 25  1  0
 29 24  1  0
 30 29  1  0
 31 25  1  0
 32 28  1  0
 53 48  2  0
 54 51  1  0
 55 52  1  0
 53 47  1  0
 55 56  1  0
 54 55  1  0
 56 49  1  0
 53 54  1  0
 56 50  2  0
  6 57  1  0
  6 58  1  0
  8 59  1  0
  9 60  1  0
 12 61  1  0
 15 62  1  0
 16 63  1  0
 17 64  1  0
 18 65  1  0
 20 66  1  0
 20 67  1  0
 20 68  1  0
 21 69  1  0
 21 70  1  0
 21 71  1  0
 22 72  1  0
 22 73  1  0
 22 74  1  0
 23 75  1  0
 23 76  1  0
 23 77  1  0
 29 78  1  0
 29 79  1  0
 31 80  1  0
 32 81  1  0
 35 82  1  0
 38 83  1  0
 39 84  1  0
 40 85  1  0
 41 86  1  0
 43 87  1  0
 43 88  1  0
 43 89  1  0
 44 90  1  0
 44 91  1  0
 44 92  1  0
 45 93  1  0
 45 94  1  0
 45 95  1  0
 46 96  1  0
 46 97  1  0
 46 98  1  0
 47 99  1  0
 49100  1  0
 51101  1  0
 52102  1  0
 54103  1  1
 55104  1  6
M  END
> <Uni-Dock RESULT> 
ENERGY=   -5.537  LOWER_BOUND=    3.579  UPPER_BOUND=    6.223
INTER + INTRA:          -5.537
INTER:                  -5.537
INTRA:                   0.000
UNBOUND:                 0.000

$$$$

     RDKit          3D

104107  0  0  0  0  0  0  0  0999 V2000
   49.9182    7.2015   17.7324 C   0  0  0  0  0  0  0  0  0  0  0  0
   49.3676    5.9330   17.6889 N   0  0  0  0  0  0  0  0  0  0  0  0
   47.7097    7.3182   18.2838 N   0  0  0  0  0  0  0  0  0  0  0  0
   48.8547    8.0353   18.0398 C   0  0  0  0  0  0  0  0  0  0  0  0
   48.0300    6.0647   18.0523 C   0  0  0  0  0  0  0  0  0  0  0  0
   51.3687    7.4859   17.5086 C   0  0  0  0  0  0  0  0  0  0  0  0
   51.7369    7.5050   16.0249 C   0  0  0  0  0  0  0  0  0  0  0  0
   49.9521    4.7023   17.3798 C   0  0  0  0  0  0  0  0  0  0  0  0
   47.2506    4.8768   18.1193 C   0  0  0  0  0  0  0  0  0  0  0  0
   48.9044    9.4791   18.1619 C   0  0  0  0  0  0  0  0  0  0  0  0
   49.2138    3.5769   17.4367 C   0  0  0  0  0  0  0  0  0  0  0  0
   47.8108    3.6875   17.8287 C   0  0  0  0  0  0  0  0  0  0  0  0
   53.0260    7.9417   15.7077 N   0  0  0  0  0  0  0  0  0  0  0  0
   50.9516    7.1305   15.1521 O   0  0  0  0  0  0  0  0  0  0  0  0
   49.4474   10.2741   17.1456 C   0  0  0  0  0  0  0  0  0  0  0  0
   48.3760   10.0961   19.3001 C   0  0  0  0  0  0  0  0  0  0  0  0
   49.4954   11.6646   17.2842 C   0  0  0  0  0  0  0  0  0  0  0  0
   48.4250   11.4863   19.4390 C   0  0  0  0  0  0  0  0  0  0  0  0
   49.0008   12.2802   18.4399 C   0  0  0  0  0  0  0  0  0  0  0  0
   49.7472    2.2187   17.1099 C   0  0  0  0  0  0  0  0  0  0  0  0
   53.9178    8.5841   16.6610 C   0  0  0  0  0  0  0  0  0  0  0  0
   53.3599    8.1182   14.3038 C   0  0  0  0  0  0  0  0  0  0  0  0
   49.0203   13.7741   18.5729 C   0  0  0  0  0  0  0  0  0  0  0  0
   51.0134    8.0538   17.2847 C   0  0  0  0  0  0  0  0  0  0  0  0
   52.1481    8.0716   16.4908 N   0  0  0  0  0  0  0  0  0  0  0  0
   51.5279   10.2100   16.7462 N   0  0  0  0  0  0  0  0  0  0  0  0
   50.6635    9.3870   17.4217 C   0  0  0  0  0  0  0  0  0  0  0  0
   52.4158    9.4076   16.2029 C   0  0  0  0  0  0  0  0  0  0  0  0
   50.3736    6.8028   17.7982 C   0  0  0  0  0  0  0  0  0  0  0  0
   49.5989    6.0575   16.7096 C   0  0  0  0  0  0  0  0  0  0  0  0
   52.9446    7.0223   16.0244 C   0  0  0  0  0  0  0  0  0  0  0  0
   53.5580    9.6899   15.4035 C   0  0  0  0  0  0  0  0  0  0  0  0
   49.5218    9.8975   18.1500 C   0  0  0  0  0  0  0  0  0  0  0  0
   54.0264    7.2866   15.2661 C   0  0  0  0  0  0  0  0  0  0  0  0
   54.3314    8.6819   14.9575 C   0  0  0  0  0  0  0  0  0  0  0  0
   48.7690    5.0175   17.1287 N   0  0  0  0  0  0  0  0  0  0  0  0
   49.7166    6.3412   15.5159 O   0  0  0  0  0  0  0  0  0  0  0  0
   49.4214    9.7371   19.5361 C   0  0  0  0  0  0  0  0  0  0  0  0
   48.5167   10.5833   17.4627 C   0  0  0  0  0  0  0  0  0  0  0  0
   48.3115   10.2366   20.2235 C   0  0  0  0  0  0  0  0  0  0  0  0
   47.4068   11.0810   18.1502 C   0  0  0  0  0  0  0  0  0  0  0  0
   47.2882   10.8981   19.5332 C   0  0  0  0  0  0  0  0  0  0  0  0
   54.9308    6.2317   14.7120 C   0  0  0  0  0  0  0  0  0  0  0  0
   48.7191    4.4720   18.4781 C   0  0  0  0  0  0  0  0  0  0  0  0
   47.9814    4.3116   16.1294 C   0  0  0  0  0  0  0  0  0  0  0  0
   46.1167   11.4682   20.2768 C   0  0  0  0  0  0  0  0  0  0  0  0
   50.6342   10.0891   18.3641 O   0  0  0  0  0  0  0  0  0  0  0  0
   48.8028    9.1276   19.2097 O   0  0  0  0  0  0  0  0  0  0  0  0
   51.0947    5.5753   17.1135 O   0  0  0  0  0  0  0  0  0  0  0  0
   51.6659    7.0839   18.6570 O   0  0  0  0  0  0  0  0  0  0  0  0
   48.4409    7.5311   16.9570 O   0  0  0  0  0  0  0  0  0  0  0  0
   50.6336    7.3241   15.1974 O   0  0  0  0  0  0  0  0  0  0  0  0
   49.5967    9.2373   18.2867 C   0  0  0  0  0  0  0  0  0  0  0  0
   49.4765    8.5268   16.9450 C   0  0  1  0  0  0  0  0  0  0  0  0
   50.7930    7.8866   16.5071 C   0  0  1  0  0  0  0  0  0  0  0  0
   51.2392    6.8496   17.5371 C   0  0  0  0  0  0  0  0  0  0  0  0
   51.6116    8.4569   17.9522 H   0  0  0  0  0  0  0  0  0  0  0  0
   51.9819    6.7284   18.0092 H   0  0  0  0  0  0  0  0  0  0  0  0
   50.9931    4.7038   17.0851 H   0  0  0  0  0  0  0  0  0  0  0  0
   46.2086    4.9602   18.4039 H   0  0  0  0  0  0  0  0  0  0  0  0
   47.2164    2.7794   17.8764 H   0  0  0  0  0  0  0  0  0  0  0  0
   49.8113    9.8198   16.2267 H   0  0  0  0  0  0  0  0  0  0  0  0
   47.9177    9.4928   20.0812 H   0  0  0  0  0  0  0  0  0  0  0  0
   49.9117   12.2640   16.4779 H   0  0  0  0  0  0  0  0  0  0  0  0
   48.0043   11.9440   20.3315 H   0  0  0  0  0  0  0  0  0  0  0  0
   50.8012    2.2572   16.8158 H   0  0  0  0  0  0  0  0  0  0  0  0
   49.6670    1.5540   17.9763 H   0  0  0  0  0  0  0  0  0  0  0  0
   49.1885    1.7769   16.2789 H   0  0  0  0  0  0  0  0  0  0  0  0
   54.9539    8.4631   16.3320 H   0  0  0  0  0  0  0  0  0  0  0  0
   53.8222    8.1426   17.6554 H   0  0  0  0  0  0  0  0  0  0  0  0
   53.6669    9.6478   16.7107 H   0  0  0  0  0  0  0  0  0  0  0  0
   53.2054    9.1690   14.0385 H   0  0  0  0  0  0  0  0  0  0  0  0
   54.4085    7.8477   14.1470 H   0  0  0  0  0  0  0  0  0  0  0  0
   52.7405    7.4926   13.6547 H   0  0  0  0  0  0  0  0  0  0  0  0
   49.8793   14.2019   18.0453 H   0  0  0  0  0  0  0  0  0  0  0  0
   48.1018   14.1997   18.1572 H   0  0  0  0  0  0  0  0  0  0  0  0
   49.1061   14.0694   19.6242 H   0  0  0  0  0  0  0  0  0  0  0  0
   51.1379    6.1325   18.2055 H   0  0  0  0  0  0  0  0  0  0  0  0
   49.6791    7.0572   18.6047 H   0  0  0  0  0  0  0  0  0  0  0  0
   52.6467    6.0160   16.2860 H   0  0  0  0  0  0  0  0  0  0  0  0
   53.7797   10.7252   15.1717 H   0  0  0  0  0  0  0  0  0  0  0  0
   55.2028    8.8972   14.3455 H   0  0  0  0  0  0  0  0  0  0  0  0
   50.2127    9.2377   20.0890 H   0  0  0  0  0  0  0  0  0  0  0  0
   48.5997   10.7332   16.3883 H   0  0  0  0  0  0  0  0  0  0  0  0
   48.2546   10.1127   21.3021 H   0  0  0  0  0  0  0  0  0  0  0  0
   46.6389   11.6167   17.5971 H   0  0  0  0  0  0  0  0  0  0  0  0
   54.9491    6.2747   13.6182 H   0  0  0  0  0  0  0  0  0  0  0  0
   55.9524    6.3680   15.0807 H   0  0  0  0  0  0  0  0  0  0  0  0
   54.6061    5.2259   14.9994 H   0  0  0  0  0  0  0  0  0  0  0  0
   49.0155    3.4188   18.4374 H   0  0  0  0  0  0  0  0  0  0  0  0
   49.3836    4.9842   19.1742 H   0  0  0  0  0  0  0  0  0  0  0  0
   47.6913    4.5451   18.8475 H   0  0  0  0  0  0  0  0  0  0  0  0
   46.9661    4.1692   16.5104 H   0  0  0  0  0  0  0  0  0  0  0  0
   48.4432    3.3374   15.9463 H   0  0  0  0  0  0  0  0  0  0  0  0
   47.9251    4.8606   15.1859 H   0  0  0  0  0  0  0  0  0  0  0  0
   45.8723   10.8539   21.1501 H   0  0  0  0  0  0  0  0  0  0  0  0
   45.2255   11.4965   19.6408 H   0  0  0  0  0  0  0  0  0  0  0  0
   46.3458   12.4848   20.6111 H   0  0  0  0  0  0  0  0  0  0  0  0
   50.5970   10.4408   19.2800 H   0  0  0  0  0  0  0  0  0  0  0  0
   51.4050    5.0306   17.8665 H   0  0  0  0  0  0  0  0  0  0  0  0
   47.7161    7.8925   17.5056 H   0  0  0  0  0  0  0  0  0  0  0  0
   49.9926    6.5934   15.3185 H   0  0  0  0  0  0  0  0  0  0  0  0
   49.1625    9.2734   16.2066 H   0  0  0  0  0  0  0  0  0  0  0  0
   51.5964    8.6269   16.4274 H   0  0  0  0  0  0  0  0  0  0  0  0
 10  4  1  0
 11  8  2  0
 12 11  1  0
 13  7  1  0
 14  7  2  0
 15 10  2  0
 16 10  1  0
 17 15  1  0
 18 16  2  0
 19 18  1  0
 20 11  1  0
 21 13  1  0
 22 13  1  0
 23 19  1  0
  3  5  2  0
  9 12  2  0
 17 19  2  0
  2  1  1  0
  3  4  1  0
  4  1  2  0
  5  2  1  0
  6  1  1  0
  7  6  1  0
  8  2  1  0
  9  5  1  0
 33 27  1  0
 34 31  2  0
 35 34  1  0
 36 30  1  0
 37 30  2  0
 38 33  2  0
 39 33  1  0
 40 38  1  0
 41 39  2  0
 42 41  1  0
 43 34  1  0
 44 36  1  0
 45 36  1  0
 46 42  1  0
 26 28  2  0
 32 35  2  0
 40 42  2  0
 25 24  1  0
 26 27  1  0
 27 24  2  0
 28 25  1  0
 29 24  1  0
 30 29  1  0
 31 25  1  0
 32 28  1  0
 53 48  2  0
 54 51  1  0
 55 52  1  0
 53 47  1  0
 55 56  1  0
 54 55  1  0
 56 49  1  0
 53 54  1  0
 56 50  2  0
  6 57  1  0
  6 58  1  0
  8 59  1  0
  9 60  1  0
 12 61  1  0
 15 62  1  0
 16 63  1  0
 17 64  1  0
 18 65  1  0
 20 66  1  0
 20 67  1  0
 20 68  1  0
 21 69  1  0
 21 70  1  0
 21 71  1  0
 22 72  1  0
 22 73  1  0
 22 74  1  0
 23 75  1  0
 23 76  1  0
 23 77  1  0
 29 78  1  0
 29 79  1  0
 31 80  1  0
 32 81  1  0
 35 82  1  0
 38 83  1  0
 39 84  1  0
 40 85  1  0
 41 86  1  0
 43 87  1  0
 43 88  1  0
 43 89  1  0
 44 90  1  0
 44 91  1  0
 44 92  1  0
 45 93  1  0
 45 94  1  0
 45 95  1  0
 46 96  1  0
 46 97  1  0
 46 98  1  0
 47 99  1  0
 49100  1  0
 51101  1  0
 52102  1  0
 54103  1  1
 55104  1  6
M  END
> <Uni-Dock RESULT> 
ENERGY=   -5.286  LOWER_BOUND=    2.297  UPPER_BOUND=    5.861
INTER + INTRA:          -5.286
INTER:                  -5.286
INTRA:                   0.000
UNBOUND:                 0.000

$$$$

     RDKit          3D

104107  0  0  0  0  0  0  0  0999 V2000
   49.6304    8.4863   15.9387 C   0  0  0  0  0  0  0  0  0  0  0  0
   49.2683    8.5211   14.6039 N   0  0  0  0  0  0  0  0  0  0  0  0
   49.5984    6.3632   15.1101 N   0  0  0  0  0  0  0  0  0  0  0  0
   49.7636    7.1382   16.2312 C   0  0  0  0  0  0  0  0  0  0  0  0
   49.2856    7.2049   14.1502 C   0  0  0  0  0  0  0  0  0  0  0  0
   49.8341    9.7076   16.7766 C   0  0  0  0  0  0  0  0  0  0  0  0
   48.5152   10.3017   17.2715 C   0  0  0  0  0  0  0  0  0  0  0  0
   48.9534    9.6037   13.7790 C   0  0  0  0  0  0  0  0  0  0  0  0
   48.9807    6.9818   12.7789 C   0  0  0  0  0  0  0  0  0  0  0  0
   50.0949    6.5697   17.5231 C   0  0  0  0  0  0  0  0  0  0  0  0
   48.6583    9.3937   12.4814 C   0  0  0  0  0  0  0  0  0  0  0  0
   48.6829    8.0224   11.9782 C   0  0  0  0  0  0  0  0  0  0  0  0
   48.6090   11.3336   18.2093 N   0  0  0  0  0  0  0  0  0  0  0  0
   47.4246    9.9135   16.8490 O   0  0  0  0  0  0  0  0  0  0  0  0
   49.3764    6.9166   18.6733 C   0  0  0  0  0  0  0  0  0  0  0  0
   51.1308    5.6357   17.6232 C   0  0  0  0  0  0  0  0  0  0  0  0
   49.7155    6.3653   19.9128 C   0  0  0  0  0  0  0  0  0  0  0  0
   51.4705    5.0853   18.8627 C   0  0  0  0  0  0  0  0  0  0  0  0
   50.7767    5.4589   20.0200 C   0  0  0  0  0  0  0  0  0  0  0  0
   48.2953   10.4861   11.5270 C   0  0  0  0  0  0  0  0  0  0  0  0
   49.8417   11.6926   18.8936 C   0  0  0  0  0  0  0  0  0  0  0  0
   47.3793   11.8180   18.8151 C   0  0  0  0  0  0  0  0  0  0  0  0
   51.1176    4.8408   21.3435 C   0  0  0  0  0  0  0  0  0  0  0  0
   49.6070    9.1989   17.2107 C   0  0  0  0  0  0  0  0  0  0  0  0
   49.1465   10.3518   17.8248 N   0  0  0  0  0  0  0  0  0  0  0  0
   49.5277    8.8758   19.4675 N   0  0  0  0  0  0  0  0  0  0  0  0
   49.8330    8.3156   18.2536 C   0  0  0  0  0  0  0  0  0  0  0  0
   49.1278   10.0976   19.1938 C   0  0  0  0  0  0  0  0  0  0  0  0
   49.7563    9.0443   15.7303 C   0  0  0  0  0  0  0  0  0  0  0  0
   48.4104    8.8570   15.0272 C   0  0  0  0  0  0  0  0  0  0  0  0
   48.7619   11.5787   17.2772 C   0  0  0  0  0  0  0  0  0  0  0  0
   48.7010   11.1499   20.0504 C   0  0  0  0  0  0  0  0  0  0  0  0
   50.3027    6.9525   18.1286 C   0  0  0  0  0  0  0  0  0  0  0  0
   48.3561   12.5769   18.0860 C   0  0  0  0  0  0  0  0  0  0  0  0
   48.3356   12.3356   19.5269 C   0  0  0  0  0  0  0  0  0  0  0  0
   48.4494    8.4635   13.6894 N   0  0  0  0  0  0  0  0  0  0  0  0
   47.3403    9.0656   15.6022 O   0  0  0  0  0  0  0  0  0  0  0  0
   51.5783    6.6735   17.6266 C   0  0  0  0  0  0  0  0  0  0  0  0
   49.4801    5.9000   18.5391 C   0  0  0  0  0  0  0  0  0  0  0  0
   52.0158    5.3508   17.5127 C   0  0  0  0  0  0  0  0  0  0  0  0
   49.9174    4.5780   18.4236 C   0  0  0  0  0  0  0  0  0  0  0  0
   51.1822    4.2925   17.8954 C   0  0  0  0  0  0  0  0  0  0  0  0
   47.9150   13.9186   17.5930 C   0  0  0  0  0  0  0  0  0  0  0  0
   49.6493    8.3939   12.8670 C   0  0  0  0  0  0  0  0  0  0  0  0
   47.1911    8.2320   12.9965 C   0  0  0  0  0  0  0  0  0  0  0  0
   51.6671    2.8755   17.8097 C   0  0  0  0  0  0  0  0  0  0  0  0
   50.8237    7.8290   18.6580 O   0  0  0  0  0  0  0  0  0  0  0  0
   51.0203    6.4300   16.9266 O   0  0  0  0  0  0  0  0  0  0  0  0
   49.1185   10.3169   15.0450 O   0  0  0  0  0  0  0  0  0  0  0  0
   50.9525    9.9266   16.2568 O   0  0  0  0  0  0  0  0  0  0  0  0
   48.5510    7.1737   15.8761 O   0  0  0  0  0  0  0  0  0  0  0  0
   47.4121    9.5417   16.8970 O   0  0  0  0  0  0  0  0  0  0  0  0
   50.3606    7.2644   17.5289 C   0  0  0  0  0  0  0  0  0  0  0  0
   48.9483    7.6942   17.1547 C   0  0  1  0  0  0  0  0  0  0  0  0
   48.7834    9.2133   17.1594 C   0  0  1  0  0  0  0  0  0  0  0  0
   49.7387    9.8469   16.1489 C   0  0  0  0  0  0  0  0  0  0  0  0
   50.4568    9.4460   17.6382 H   0  0  0  0  0  0  0  0  0  0  0  0
   50.3663   10.4735   16.2015 H   0  0  0  0  0  0  0  0  0  0  0  0
   48.9431   10.5878   14.2286 H   0  0  0  0  0  0  0  0  0  0  0  0
   48.9929    5.9640   12.4080 H   0  0  0  0  0  0  0  0  0  0  0  0
   48.4468    7.8538   10.9313 H   0  0  0  0  0  0  0  0  0  0  0  0
   48.5299    7.5967   18.6092 H   0  0  0  0  0  0  0  0  0  0  0  0
   51.6734    5.3292   16.7311 H   0  0  0  0  0  0  0  0  0  0  0  0
   49.1374    6.6404   20.7918 H   0  0  0  0  0  0  0  0  0  0  0  0
   52.2774    4.3580   18.9153 H   0  0  0  0  0  0  0  0  0  0  0  0
   48.2942   11.4665   12.0145 H   0  0  0  0  0  0  0  0  0  0  0  0
   49.0093   10.5270   10.6979 H   0  0  0  0  0  0  0  0  0  0  0  0
   47.2942   10.3203   11.1169 H   0  0  0  0  0  0  0  0  0  0  0  0
   49.7803   12.7287   19.2389 H   0  0  0  0  0  0  0  0  0  0  0  0
   50.7051   11.6050   18.2305 H   0  0  0  0  0  0  0  0  0  0  0  0
   49.9723   11.0242   19.7497 H   0  0  0  0  0  0  0  0  0  0  0  0
   47.2324   11.2988   19.7677 H   0  0  0  0  0  0  0  0  0  0  0  0
   47.4649   12.8947   18.9903 H   0  0  0  0  0  0  0  0  0  0  0  0
   46.5106   11.6395   18.1751 H   0  0  0  0  0  0  0  0  0  0  0  0
   50.8970    5.5306   22.1649 H   0  0  0  0  0  0  0  0  0  0  0  0
   50.5407    3.9223   21.4880 H   0  0  0  0  0  0  0  0  0  0  0  0
   52.1854    4.6035   21.3978 H   0  0  0  0  0  0  0  0  0  0  0  0
   50.2508    9.9268   15.3105 H   0  0  0  0  0  0  0  0  0  0  0  0
   50.3813    8.1712   15.5195 H   0  0  0  0  0  0  0  0  0  0  0  0
   48.7937   11.6760   16.2005 H   0  0  0  0  0  0  0  0  0  0  0  0
   48.6819   10.9673   21.1185 H   0  0  0  0  0  0  0  0  0  0  0  0
   48.0079   13.1389   20.1807 H   0  0  0  0  0  0  0  0  0  0  0  0
   52.2429    7.4834   17.3372 H   0  0  0  0  0  0  0  0  0  0  0  0
   48.4963    6.1104   18.9532 H   0  0  0  0  0  0  0  0  0  0  0  0
   53.0141    5.1523   17.1308 H   0  0  0  0  0  0  0  0  0  0  0  0
   49.2638    3.7742   18.7543 H   0  0  0  0  0  0  0  0  0  0  0  0
   46.8808   14.1185   17.8916 H   0  0  0  0  0  0  0  0  0  0  0  0
   48.5523   14.7082   18.0036 H   0  0  0  0  0  0  0  0  0  0  0  0
   47.9644   13.9870   16.5010 H   0  0  0  0  0  0  0  0  0  0  0  0
   49.5405    9.0971   12.0350 H   0  0  0  0  0  0  0  0  0  0  0  0
   50.5589    8.6504   13.4105 H   0  0  0  0  0  0  0  0  0  0  0  0
   49.7448    7.3775   12.4723 H   0  0  0  0  0  0  0  0  0  0  0  0
   47.2707    7.3127   12.4093 H   0  0  0  0  0  0  0  0  0  0  0  0
   47.0003    9.0769   12.3289 H   0  0  0  0  0  0  0  0  0  0  0  0
   46.3517    8.1306   13.6892 H   0  0  0  0  0  0  0  0  0  0  0  0
   52.3519    2.7478   16.9646 H   0  0  0  0  0  0  0  0  0  0  0  0
   50.8314    2.1843   17.6571 H   0  0  0  0  0  0  0  0  0  0  0  0
   52.1882    2.6030   18.7328 H   0  0  0  0  0  0  0  0  0  0  0  0
   51.7382    7.4835   18.7496 H   0  0  0  0  0  0  0  0  0  0  0  0
   49.8426   10.6786   14.4928 H   0  0  0  0  0  0  0  0  0  0  0  0
   48.9368    6.2771   15.8104 H   0  0  0  0  0  0  0  0  0  0  0  0
   47.2588    9.2454   15.9761 H   0  0  0  0  0  0  0  0  0  0  0  0
   48.2654    7.2440   17.8842 H   0  0  0  0  0  0  0  0  0  0  0  0
   49.0199    9.6433   18.1387 H   0  0  0  0  0  0  0  0  0  0  0  0
 10  4  1  0
 11  8  2  0
 12 11  1  0
 13  7  1  0
 14  7  2  0
 15 10  2  0
 16 10  1  0
 17 15  1  0
 18 16  2  0
 19 18  1  0
 20 11  1  0
 21 13  1  0
 22 13  1  0
 23 19  1  0
  3  5  2  0
  9 12  2  0
 17 19  2  0
  2  1  1  0
  3  4  1  0
  4  1  2  0
  5  2  1  0
  6  1  1  0
  7  6  1  0
  8  2  1  0
  9  5  1  0
 33 27  1  0
 34 31  2  0
 35 34  1  0
 36 30  1  0
 37 30  2  0
 38 33  2  0
 39 33  1  0
 40 38  1  0
 41 39  2  0
 42 41  1  0
 43 34  1  0
 44 36  1  0
 45 36  1  0
 46 42  1  0
 26 28  2  0
 32 35  2  0
 40 42  2  0
 25 24  1  0
 26 27  1  0
 27 24  2  0
 28 25  1  0
 29 24  1  0
 30 29  1  0
 31 25  1  0
 32 28  1  0
 53 48  2  0
 54 51  1  0
 55 52  1  0
 53 47  1  0
 55 56  1  0
 54 55  1  0
 56 49  1  0
 53 54  1  0
 56 50  2  0
  6 57  1  0
  6 58  1  0
  8 59  1  0
  9 60  1  0
 12 61  1  0
 15 62  1  0
 16 63  1  0
 17 64  1  0
 18 65  1  0
 20 66  1  0
 20 67  1  0
 20 68  1  0
 21 69  1  0
 21 70  1  0
 21 71  1  0
 22 72  1  0
 22 73  1  0
 22 74  1  0
 23 75  1  0
 23 76  1  0
 23 77  1  0
 29 78  1  0
 29 79  1  0
 31 80  1  0
 32 81  1  0
 35 82  1  0
 38 83  1  0
 39 84  1  0
 40 85  1  0
 41 86  1  0
 43 87  1  0
 43 88  1  0
 43 89  1  0
 44 90  1  0
 44 91  1  0
 44 92  1  0
 45 93  1  0
 45 94  1  0
 45 95  1  0
 46 96  1  0
 46 97  1  0
 46 98  1  0
 47 99  1  0
 49100  1  0
 51101  1  0
 52102  1  0
 54103  1  1
 55104  1  6
M  END
> <Uni-Dock RESULT> 
ENERGY=   -5.197  LOWER_BOUND=    1.519  UPPER_BOUND=    5.961
INTER + INTRA:          -5.197
INTER:                  -5.197
INTRA:                   0.000
UNBOUND:                 0.000

$$$$

     RDKit          3D

104107  0  0  0  0  0  0  0  0999 V2000
   48.3115    8.2099   18.1206 C   0  0  0  0  0  0  0  0  0  0  0  0
   48.3840    7.0218   18.8256 N   0  0  0  0  0  0  0  0  0  0  0  0
   49.0459    6.5547   16.7363 N   0  0  0  0  0  0  0  0  0  0  0  0
   48.7864    7.8975   16.8566 C   0  0  0  0  0  0  0  0  0  0  0  0
   48.8167    6.0495   17.9279 C   0  0  0  0  0  0  0  0  0  0  0  0
   47.7874    9.4866   18.6953 C   0  0  0  0  0  0  0  0  0  0  0  0
   48.8212   10.2023   19.5649 C   0  0  0  0  0  0  0  0  0  0  0  0
   48.0839    6.7415   20.1610 C   0  0  0  0  0  0  0  0  0  0  0  0
   48.9349    4.7177   18.4130 C   0  0  0  0  0  0  0  0  0  0  0  0
   48.9487    8.8193   15.7494 C   0  0  0  0  0  0  0  0  0  0  0  0
   48.2012    5.4818   20.6238 C   0  0  0  0  0  0  0  0  0  0  0  0
   48.6406    4.4411   19.6974 C   0  0  0  0  0  0  0  0  0  0  0  0
   48.4898   11.4898   19.9957 N   0  0  0  0  0  0  0  0  0  0  0  0
   49.8811    9.6667   19.8941 O   0  0  0  0  0  0  0  0  0  0  0  0
   49.6600   10.0154   15.9006 C   0  0  0  0  0  0  0  0  0  0  0  0
   48.4120    8.4997   14.4983 C   0  0  0  0  0  0  0  0  0  0  0  0
   49.7989   10.8971   14.8242 C   0  0  0  0  0  0  0  0  0  0  0  0
   48.5500    9.3817   13.4225 C   0  0  0  0  0  0  0  0  0  0  0  0
   49.2297   10.5953   13.5816 C   0  0  0  0  0  0  0  0  0  0  0  0
   47.9171    5.0891   22.0384 C   0  0  0  0  0  0  0  0  0  0  0  0
   47.3609   12.2482   19.4789 C   0  0  0  0  0  0  0  0  0  0  0  0
   49.5075   12.2581   20.6943 C   0  0  0  0  0  0  0  0  0  0  0  0
   49.4089   11.5245   12.4178 C   0  0  0  0  0  0  0  0  0  0  0  0
   48.2735    9.6646   18.2148 C   0  0  0  0  0  0  0  0  0  0  0  0
   48.3332   10.7170   19.1131 N   0  0  0  0  0  0  0  0  0  0  0  0
   48.8783   11.5682   17.1129 N   0  0  0  0  0  0  0  0  0  0  0  0
   48.6123   10.2280   16.9956 C   0  0  0  0  0  0  0  0  0  0  0  0
   48.6971   11.8467   18.3846 C   0  0  0  0  0  0  0  0  0  0  0  0
   47.9369    8.2582   18.5980 C   0  0  0  0  0  0  0  0  0  0  0  0
   49.0949    7.5574   19.3110 C   0  0  0  0  0  0  0  0  0  0  0  0
   48.0872   10.7499   20.4884 C   0  0  0  0  0  0  0  0  0  0  0  0
   48.8103   13.0752   19.0926 C   0  0  0  0  0  0  0  0  0  0  0  0
   48.7164    9.5279   15.7333 C   0  0  0  0  0  0  0  0  0  0  0  0
   48.1949   11.9118   21.1619 C   0  0  0  0  0  0  0  0  0  0  0  0
   48.5680   13.1120   20.4167 C   0  0  0  0  0  0  0  0  0  0  0  0
   48.9789    6.1793   19.4940 N   0  0  0  0  0  0  0  0  0  0  0  0
   50.0748    8.1783   19.7279 O   0  0  0  0  0  0  0  0  0  0  0  0
   47.5934    8.9408   15.1407 C   0  0  0  0  0  0  0  0  0  0  0  0
   49.9517    9.4589   15.0836 C   0  0  0  0  0  0  0  0  0  0  0  0
   47.7121    8.2683   13.9210 C   0  0  0  0  0  0  0  0  0  0  0  0
   50.0700    8.7853   13.8651 C   0  0  0  0  0  0  0  0  0  0  0  0
   48.9546    8.1718   13.2822 C   0  0  0  0  0  0  0  0  0  0  0  0
   47.9632   12.0437   22.6339 C   0  0  0  0  0  0  0  0  0  0  0  0
   47.7824    5.3927   19.2285 C   0  0  0  0  0  0  0  0  0  0  0  0
   50.0780    5.4679   20.1287 C   0  0  0  0  0  0  0  0  0  0  0  0
   49.0739    7.4841   11.9543 C   0  0  0  0  0  0  0  0  0  0  0  0
   47.9908   10.3750   16.0087 O   0  0  0  0  0  0  0  0  0  0  0  0
   48.0672    8.2101   15.4604 O   0  0  0  0  0  0  0  0  0  0  0  0
   47.8752    8.1889   20.1751 O   0  0  0  0  0  0  0  0  0  0  0  0
   46.6021    9.0977   18.5821 O   0  0  0  0  0  0  0  0  0  0  0  0
   49.7975    7.6049   17.5566 O   0  0  0  0  0  0  0  0  0  0  0  0
   50.0504    9.5515   19.5798 O   0  0  0  0  0  0  0  0  0  0  0  0
   48.4317    9.1182   16.1929 C   0  0  0  0  0  0  0  0  0  0  0  0
   49.4601    8.9789   17.3076 C   0  0  1  0  0  0  0  0  0  0  0  0
   48.9981    9.6334   18.6087 C   0  0  1  0  0  0  0  0  0  0  0  0
   47.7047    8.9796   19.0934 C   0  0  0  0  0  0  0  0  0  0  0  0
   47.4876   10.1472   17.8753 H   0  0  0  0  0  0  0  0  0  0  0  0
   46.8986    9.2877   19.3045 H   0  0  0  0  0  0  0  0  0  0  0  0
   47.7777    7.5682   20.7882 H   0  0  0  0  0  0  0  0  0  0  0  0
   49.2669    3.9476   17.7271 H   0  0  0  0  0  0  0  0  0  0  0  0
   48.7331    3.4251   20.0707 H   0  0  0  0  0  0  0  0  0  0  0  0
   50.1352   10.2571   16.8487 H   0  0  0  0  0  0  0  0  0  0  0  0
   47.8885    7.5562   14.3572 H   0  0  0  0  0  0  0  0  0  0  0  0
   50.3646   11.8158   14.9606 H   0  0  0  0  0  0  0  0  0  0  0  0
   48.1273    9.1099   12.4579 H   0  0  0  0  0  0  0  0  0  0  0  0
   47.6110    5.9485   22.6440 H   0  0  0  0  0  0  0  0  0  0  0  0
   47.1113    4.3490   22.0789 H   0  0  0  0  0  0  0  0  0  0  0  0
   48.8094    4.6585   22.5036 H   0  0  0  0  0  0  0  0  0  0  0  0
   47.0612   13.0034   20.2112 H   0  0  0  0  0  0  0  0  0  0  0  0
   46.5023   11.6016   19.2851 H   0  0  0  0  0  0  0  0  0  0  0  0
   47.6656   12.7355   18.5480 H   0  0  0  0  0  0  0  0  0  0  0  0
   50.0186   12.8994   19.9690 H   0  0  0  0  0  0  0  0  0  0  0  0
   49.0290   12.8751   21.4608 H   0  0  0  0  0  0  0  0  0  0  0  0
   50.2449   11.6127   21.1801 H   0  0  0  0  0  0  0  0  0  0  0  0
   49.4765   12.5642   12.7550 H   0  0  0  0  0  0  0  0  0  0  0  0
   50.3222   11.2695   11.8715 H   0  0  0  0  0  0  0  0  0  0  0  0
   48.5552   11.4605   11.7346 H   0  0  0  0  0  0  0  0  0  0  0  0
   47.0629    8.2499   19.2579 H   0  0  0  0  0  0  0  0  0  0  0  0
   47.6890    7.6880   17.6975 H   0  0  0  0  0  0  0  0  0  0  0  0
   47.8270    9.8175   20.9707 H   0  0  0  0  0  0  0  0  0  0  0  0
   49.0920   13.9632   18.5389 H   0  0  0  0  0  0  0  0  0  0  0  0
   48.6561   14.0498   20.9580 H   0  0  0  0  0  0  0  0  0  0  0  0
   46.6192    9.0174   15.6165 H   0  0  0  0  0  0  0  0  0  0  0  0
   50.8246    9.9340   15.5263 H   0  0  0  0  0  0  0  0  0  0  0  0
   46.8272    7.8272   13.4691 H   0  0  0  0  0  0  0  0  0  0  0  0
   51.0393    8.7484   13.3735 H   0  0  0  0  0  0  0  0  0  0  0  0
   48.8649   12.4104   23.1350 H   0  0  0  0  0  0  0  0  0  0  0  0
   47.1468   12.7450   22.8338 H   0  0  0  0  0  0  0  0  0  0  0  0
   47.6959   11.0849   23.0910 H   0  0  0  0  0  0  0  0  0  0  0  0
   47.4484    4.9417   20.1685 H   0  0  0  0  0  0  0  0  0  0  0  0
   46.9597    5.9836   18.8252 H   0  0  0  0  0  0  0  0  0  0  0  0
   48.0348    4.6008   18.5163 H   0  0  0  0  0  0  0  0  0  0  0  0
   50.2711    4.5436   19.5768 H   0  0  0  0  0  0  0  0  0  0  0  0
   49.7901    5.2270   21.1558 H   0  0  0  0  0  0  0  0  0  0  0  0
   50.9964    6.0603   20.1473 H   0  0  0  0  0  0  0  0  0  0  0  0
   48.3591    6.6578   11.8773 H   0  0  0  0  0  0  0  0  0  0  0  0
   50.0749    7.0603   11.8214 H   0  0  0  0  0  0  0  0  0  0  0  0
   48.8806    8.1967   11.1464 H   0  0  0  0  0  0  0  0  0  0  0  0
   47.3250   10.3002   15.2910 H   0  0  0  0  0  0  0  0  0  0  0  0
   46.9808    7.8359   20.3635 H   0  0  0  0  0  0  0  0  0  0  0  0
   49.7999    7.1585   16.6861 H   0  0  0  0  0  0  0  0  0  0  0  0
   50.1425    8.5940   19.7644 H   0  0  0  0  0  0  0  0  0  0  0  0
   50.3848    9.4539   16.9605 H   0  0  0  0  0  0  0  0  0  0  0  0
   48.7880   10.6999   18.4732 H   0  0  0  0  0  0  0  0  0  0  0  0
 10  4  1  0
 11  8  2  0
 12 11  1  0
 13  7  1  0
 14  7  2  0
 15 10  2  0
 16 10  1  0
 17 15  1  0
 18 16  2  0
 19 18  1  0
 20 11  1  0
 21 13  1  0
 22 13  1  0
 23 19  1  0
  3  5  2  0
  9 12  2  0
 17 19  2  0
  2  1  1  0
  3  4  1  0
  4  1  2  0
  5  2  1  0
  6  1  1  0
  7  6  1  0
  8  2  1  0
  9  5  1  0
 33 27  1  0
 34 31  2  0
 35 34  1  0
 36 30  1  0
 37 30  2  0
 38 33  2  0
 39 33  1  0
 40 38  1  0
 41 39  2  0
 42 41  1  0
 43 34  1  0
 44 36  1  0
 45 36  1  0
 46 42  1  0
 26 28  2  0
 32 35  2  0
 40 42  2  0
 25 24  1  0
 26 27  1  0
 27 24  2  0
 28 25  1  0
 29 24  1  0
 30 29  1  0
 31 25  1  0
 32 28  1  0
 53 48  2  0
 54 51  1  0
 55 52  1  0
 53 47  1  0
 55 56  1  0
 54 55  1  0
 56 49  1  0
 53 54  1  0
 56 50  2  0
  6 57  1  0
  6 58  1  0
  8 59  1  0
  9 60  1  0
 12 61  1  0
 15 62  1  0
 16 63  1  0
 17 64  1  0
 18 65  1  0
 20 66  1  0
 20 67  1  0
 20 68  1  0
 21 69  1  0
 21 70  1  0
 21 71  1  0
 22 72  1  0
 22 73  1  0
 22 74  1  0
 23 75  1  0
 23 76  1  0
 23 77  1  0
 29 78  1  0
 29 79  1  0
 31 80  1  0
 32 81  1  0
 35 82  1  0
 38 83  1  0
 39 84  1  0
 40 85  1  0
 41 86  1  0
 43 87  1  0
 43 88  1  0
 43 89  1  0
 44 90  1  0
 44 91  1  0
 44 92  1  0
 45 93  1  0
 45 94  1  0
 45 95  1  0
 46 96  1  0
 46 97  1  0
 46 98  1  0
 47 99  1  0
 49100  1  0
 51101  1  0
 52102  1  0
 54103  1  1
 55104  1  6
M  END
> <Uni-Dock RESULT> 
ENERGY=   -5.189  LOWER_BOUND=    0.846  UPPER_BOUND=    4.551
INTER + INTRA:          -5.189
INTER:                  -5.189
INTRA:                   0.000
UNBOUND:                 0.000

$$$$

     RDKit          3D

104107  0  0  0  0  0  0  0  0999 V2000
   49.3096    7.2497   17.7651 C   0  0  0  0  0  0  0  0  0  0  0  0
   49.2359    5.8809   17.9518 N   0  0  0  0  0  0  0  0  0  0  0  0
   48.3096    6.8140   19.7664 N   0  0  0  0  0  0  0  0  0  0  0  0
   48.6734    7.7896   18.8717 C   0  0  0  0  0  0  0  0  0  0  0  0
   48.6376    5.6779   19.1925 C   0  0  0  0  0  0  0  0  0  0  0  0
   49.9828    7.8940   16.5960 C   0  0  0  0  0  0  0  0  0  0  0  0
   49.1067    7.8888   15.3431 C   0  0  0  0  0  0  0  0  0  0  0  0
   49.6660    4.8313   17.1362 C   0  0  0  0  0  0  0  0  0  0  0  0
   48.4835    4.3340   19.6322 C   0  0  0  0  0  0  0  0  0  0  0  0
   48.4503    9.1987   19.1300 C   0  0  0  0  0  0  0  0  0  0  0  0
   49.5153    3.5576   17.5483 C   0  0  0  0  0  0  0  0  0  0  0  0
   48.9023    3.3192   18.8529 C   0  0  0  0  0  0  0  0  0  0  0  0
   49.5733    8.6281   14.2528 N   0  0  0  0  0  0  0  0  0  0  0  0
   48.0567    7.2466   15.2829 O   0  0  0  0  0  0  0  0  0  0  0  0
   47.8452   10.0237   18.1745 C   0  0  0  0  0  0  0  0  0  0  0  0
   48.8176    9.7427   20.3647 C   0  0  0  0  0  0  0  0  0  0  0  0
   47.6460   11.3825   18.4372 C   0  0  0  0  0  0  0  0  0  0  0  0
   48.6193   11.1016   20.6267 C   0  0  0  0  0  0  0  0  0  0  0  0
   48.0478   11.9358   19.6585 C   0  0  0  0  0  0  0  0  0  0  0  0
   49.9308    2.3705   16.7396 C   0  0  0  0  0  0  0  0  0  0  0  0
   50.6857    9.5628   14.3281 C   0  0  0  0  0  0  0  0  0  0  0  0
   48.6973    8.7714   13.1013 C   0  0  0  0  0  0  0  0  0  0  0  0
   47.8019   13.3857   19.9536 C   0  0  0  0  0  0  0  0  0  0  0  0
   49.4586    8.3250   16.7915 C   0  0  0  0  0  0  0  0  0  0  0  0
   49.5746    8.5815   15.4354 N   0  0  0  0  0  0  0  0  0  0  0  0
   48.8654   10.4881   16.3757 N   0  0  0  0  0  0  0  0  0  0  0  0
   49.0230    9.5219   17.3361 C   0  0  0  0  0  0  0  0  0  0  0  0
   49.2091    9.9118   15.2456 C   0  0  0  0  0  0  0  0  0  0  0  0
   49.7386    6.9950   17.4163 C   0  0  0  0  0  0  0  0  0  0  0  0
   48.6236    5.9818   17.1500 C   0  0  0  0  0  0  0  0  0  0  0  0
   49.9772    7.7500   14.3868 C   0  0  0  0  0  0  0  0  0  0  0  0
   49.2625   10.4237   13.9196 C   0  0  0  0  0  0  0  0  0  0  0  0
   48.7277    9.7652   18.7317 C   0  0  0  0  0  0  0  0  0  0  0  0
   50.0276    8.2317   13.1296 C   0  0  0  0  0  0  0  0  0  0  0  0
   49.6559    9.6272   12.9075 C   0  0  0  0  0  0  0  0  0  0  0  0
   48.6641    4.7953   17.8825 N   0  0  0  0  0  0  0  0  0  0  0  0
   47.7429    6.1873   16.3125 O   0  0  0  0  0  0  0  0  0  0  0  0
   49.7326    9.6985   19.7027 C   0  0  0  0  0  0  0  0  0  0  0  0
   47.4246   10.0966   19.1126 C   0  0  0  0  0  0  0  0  0  0  0  0
   49.4295    9.9363   21.0464 C   0  0  0  0  0  0  0  0  0  0  0  0
   47.1220   10.3328   20.4561 C   0  0  0  0  0  0  0  0  0  0  0  0
   48.1187   10.2394   21.4350 C   0  0  0  0  0  0  0  0  0  0  0  0
   50.4339    7.4166   11.9429 C   0  0  0  0  0  0  0  0  0  0  0  0
   49.7654    4.3696   18.7352 C   0  0  0  0  0  0  0  0  0  0  0  0
   47.5979    3.8239   17.6909 C   0  0  0  0  0  0  0  0  0  0  0  0
   47.8017   10.5331   22.8716 C   0  0  0  0  0  0  0  0  0  0  0  0
   49.5368   10.2655   18.0876 O   0  0  0  0  0  0  0  0  0  0  0  0
   49.2489    8.9204   19.8487 O   0  0  0  0  0  0  0  0  0  0  0  0
   49.9745    5.9541   16.2515 O   0  0  0  0  0  0  0  0  0  0  0  0
   51.1178    7.6826   17.0820 O   0  0  0  0  0  0  0  0  0  0  0  0
   47.7308    7.1054   18.3806 O   0  0  0  0  0  0  0  0  0  0  0  0
   47.8452    7.3506   15.5746 O   0  0  0  0  0  0  0  0  0  0  0  0
   49.0338    9.1629   18.6701 C   0  0  0  0  0  0  0  0  0  0  0  0
   48.1319    8.3381   17.7614 C   0  0  1  0  0  0  0  0  0  0  0  0
   48.7832    8.0413   16.4114 C   0  0  1  0  0  0  0  0  0  0  0  0
   50.0750    7.2509   16.6157 C   0  0  0  0  0  0  0  0  0  0  0  0
   50.2322    8.9276   16.8565 H   0  0  0  0  0  0  0  0  0  0  0  0
   50.9193    7.3730   16.3675 H   0  0  0  0  0  0  0  0  0  0  0  0
   50.0980    5.0881   16.1781 H   0  0  0  0  0  0  0  0  0  0  0  0
   48.0231    4.1577   20.5969 H   0  0  0  0  0  0  0  0  0  0  0  0
   48.7829    2.2919   19.1856 H   0  0  0  0  0  0  0  0  0  0  0  0
   47.4990    9.6097   17.2301 H   0  0  0  0  0  0  0  0  0  0  0  0
   49.2551    9.1050   21.1302 H   0  0  0  0  0  0  0  0  0  0  0  0
   47.1644   12.0031   17.6851 H   0  0  0  0  0  0  0  0  0  0  0  0
   48.9096   11.5014   21.5957 H   0  0  0  0  0  0  0  0  0  0  0  0
   50.3625    2.6663   15.7778 H   0  0  0  0  0  0  0  0  0  0  0  0
   50.6828    1.7825   17.2757 H   0  0  0  0  0  0  0  0  0  0  0  0
   49.0696    1.7279   16.5311 H   0  0  0  0  0  0  0  0  0  0  0  0
   51.1184    9.6979   13.3327 H   0  0  0  0  0  0  0  0  0  0  0  0
   51.4699    9.1953   14.9937 H   0  0  0  0  0  0  0  0  0  0  0  0
   50.3115   10.5203   14.7022 H   0  0  0  0  0  0  0  0  0  0  0  0
   48.1526    9.7165   13.1936 H   0  0  0  0  0  0  0  0  0  0  0  0
   49.3015    8.7805   12.1891 H   0  0  0  0  0  0  0  0  0  0  0  0
   47.9772    7.9511   13.0311 H   0  0  0  0  0  0  0  0  0  0  0  0
   47.8452   13.9835   19.0371 H   0  0  0  0  0  0  0  0  0  0  0  0
   46.8169   13.5131   20.4130 H   0  0  0  0  0  0  0  0  0  0  0  0
   48.5657   13.7788   20.6330 H   0  0  0  0  0  0  0  0  0  0  0  0
   50.6794    6.5905   17.0280 H   0  0  0  0  0  0  0  0  0  0  0  0
   49.8423    7.1190   18.4986 H   0  0  0  0  0  0  0  0  0  0  0  0
   50.2255    6.7258   14.6300 H   0  0  0  0  0  0  0  0  0  0  0  0
   48.9817   11.4576   13.7562 H   0  0  0  0  0  0  0  0  0  0  0  0
   49.6951   10.0175   11.8945 H   0  0  0  0  0  0  0  0  0  0  0  0
   50.7576    9.4773   19.4167 H   0  0  0  0  0  0  0  0  0  0  0  0
   46.6428   10.1742   18.3600 H   0  0  0  0  0  0  0  0  0  0  0  0
   50.2245    9.8911   21.7865 H   0  0  0  0  0  0  0  0  0  0  0  0
   46.1028   10.5950   20.7302 H   0  0  0  0  0  0  0  0  0  0  0  0
   49.6227    7.3726   11.2090 H   0  0  0  0  0  0  0  0  0  0  0  0
   51.3143    7.8523   11.4598 H   0  0  0  0  0  0  0  0  0  0  0  0
   50.6845    6.3877   12.2229 H   0  0  0  0  0  0  0  0  0  0  0  0
   50.1722    3.4351   18.3352 H   0  0  0  0  0  0  0  0  0  0  0  0
   50.5757    5.0971   18.7868 H   0  0  0  0  0  0  0  0  0  0  0  0
   49.3793    4.1941   19.7443 H   0  0  0  0  0  0  0  0  0  0  0  0
   47.2797    3.4459   18.6668 H   0  0  0  0  0  0  0  0  0  0  0  0
   47.9835    2.9979   17.0869 H   0  0  0  0  0  0  0  0  0  0  0  0
   46.7308    4.2578   17.1864 H   0  0  0  0  0  0  0  0  0  0  0  0
   48.4442    9.9500   23.5400 H   0  0  0  0  0  0  0  0  0  0  0  0
   46.7652   10.2685   23.1059 H   0  0  0  0  0  0  0  0  0  0  0  0
   47.9506   11.5979   23.0763 H   0  0  0  0  0  0  0  0  0  0  0  0
   50.1097   10.6685   18.7756 H   0  0  0  0  0  0  0  0  0  0  0  0
   50.8580    5.5768   16.4441 H   0  0  0  0  0  0  0  0  0  0  0  0
   47.5985    7.3027   19.3295 H   0  0  0  0  0  0  0  0  0  0  0  0
   47.7087    6.4872   16.0165 H   0  0  0  0  0  0  0  0  0  0  0  0
   47.2087    8.9094   17.6111 H   0  0  0  0  0  0  0  0  0  0  0  0
   49.0498    8.9609   15.8795 H   0  0  0  0  0  0  0  0  0  0  0  0
 10  4  1  0
 11  8  2  0
 12 11  1  0
 13  7  1  0
 14  7  2  0
 15 10  2  0
 16 10  1  0
 17 15  1  0
 18 16  2  0
 19 18  1  0
 20 11  1  0
 21 13  1  0
 22 13  1  0
 23 19  1  0
  3  5  2  0
  9 12  2  0
 17 19  2  0
  2  1  1  0
  3  4  1  0
  4  1  2  0
  5  2  1  0
  6  1  1  0
  7  6  1  0
  8  2  1  0
  9  5  1  0
 33 27  1  0
 34 31  2  0
 35 34  1  0
 36 30  1  0
 37 30  2  0
 38 33  2  0
 39 33  1  0
 40 38  1  0
 41 39  2  0
 42 41  1  0
 43 34  1  0
 44 36  1  0
 45 36  1  0
 46 42  1  0
 26 28  2  0
 32 35  2  0
 40 42  2  0
 25 24  1  0
 26 27  1  0
 27 24  2  0
 28 25  1  0
 29 24  1  0
 30 29  1  0
 31 25  1  0
 32 28  1  0
 53 48  2  0
 54 51  1  0
 55 52  1  0
 53 47  1  0
 55 56  1  0
 54 55  1  0
 56 49  1  0
 53 54  1  0
 56 50  2  0
  6 57  1  0
  6 58  1  0
  8 59  1  0
  9 60  1  0
 12 61  1  0
 15 62  1  0
 16 63  1  0
 17 64  1  0
 18 65  1  0
 20 66  1  0
 20 67  1  0
 20 68  1  0
 21 69  1  0
 21 70  1  0
 21 71  1  0
 22 72  1  0
 22 73  1  0
 22 74  1  0
 23 75  1  0
 23 76  1  0
 23 77  1  0
 29 78  1  0
 29 79  1  0
 31 80  1  0
 32 81  1  0
 35 82  1  0
 38 83  1  0
 39 84  1  0
 40 85  1  0
 41 86  1  0
 43 87  1  0
 43 88  1  0
 43 89  1  0
 44 90  1  0
 44 91  1  0
 44 92  1  0
 45 93  1  0
 45 94  1  0
 45 95  1  0
 46 96  1  0
 46 97  1  0
 46 98  1  0
 47 99  1  0
 49100  1  0
 51101  1  0
 52102  1  0
 54103  1  1
 55104  1  6
M  END
> <Uni-Dock RESULT> 
ENERGY=   -5.091  LOWER_BOUND=    1.361  UPPER_BOUND=    6.052
INTER + INTRA:          -5.091
INTER:                  -5.091
INTRA:                   0.000
UNBOUND:                 0.000

$$$$

     RDKit          3D

104107  0  0  0  0  0  0  0  0999 V2000
   50.0304    7.8340   15.5811 C   0  0  0  0  0  0  0  0  0  0  0  0
   49.7962    8.0533   14.2353 N   0  0  0  0  0  0  0  0  0  0  0  0
   48.3911    6.4236   14.8609 N   0  0  0  0  0  0  0  0  0  0  0  0
   49.1043    6.8696   15.9459 C   0  0  0  0  0  0  0  0  0  0  0  0
   48.8052    7.1543   13.8499 C   0  0  0  0  0  0  0  0  0  0  0  0
   51.1011    8.5262   16.3618 C   0  0  0  0  0  0  0  0  0  0  0  0
   50.6946    9.9385   16.7833 C   0  0  0  0  0  0  0  0  0  0  0  0
   50.3933    8.9508   13.3467 C   0  0  0  0  0  0  0  0  0  0  0  0
   48.4130    7.1599   12.4827 C   0  0  0  0  0  0  0  0  0  0  0  0
   48.9144    6.3224   17.2749 C   0  0  0  0  0  0  0  0  0  0  0  0
   50.0187    8.9618   12.0527 C   0  0  0  0  0  0  0  0  0  0  0  0
   48.9901    8.0184   11.6209 C   0  0  0  0  0  0  0  0  0  0  0  0
   51.5519   10.5957   17.6700 N   0  0  0  0  0  0  0  0  0  0  0  0
   49.6796   10.4839   16.3464 O   0  0  0  0  0  0  0  0  0  0  0  0
   48.7260    7.1577   18.3825 C   0  0  0  0  0  0  0  0  0  0  0  0
   48.8891    4.9360   17.4556 C   0  0  0  0  0  0  0  0  0  0  0  0
   48.5533    6.6128   19.6585 C   0  0  0  0  0  0  0  0  0  0  0  0
   48.7175    4.3913   18.7317 C   0  0  0  0  0  0  0  0  0  0  0  0
   48.5655    5.2257   19.8457 C   0  0  0  0  0  0  0  0  0  0  0  0
   50.5895    9.8945   11.0328 C   0  0  0  0  0  0  0  0  0  0  0  0
   52.6425    9.9390   18.3743 C   0  0  0  0  0  0  0  0  0  0  0  0
   51.1230   11.8754   18.2107 C   0  0  0  0  0  0  0  0  0  0  0  0
   48.3450    4.6408   21.2091 C   0  0  0  0  0  0  0  0  0  0  0  0
   50.5756    8.3904   16.8138 C   0  0  0  0  0  0  0  0  0  0  0  0
   51.1556    9.5264   17.3533 N   0  0  0  0  0  0  0  0  0  0  0  0
   50.3190    8.3690   19.0804 N   0  0  0  0  0  0  0  0  0  0  0  0
   50.0746    7.7027   17.9069 C   0  0  0  0  0  0  0  0  0  0  0  0
   50.9753    9.4532   18.7322 C   0  0  0  0  0  0  0  0  0  0  0  0
   50.5307    8.0915   15.3486 C   0  0  0  0  0  0  0  0  0  0  0  0
   49.4954    8.9447   14.6132 C   0  0  0  0  0  0  0  0  0  0  0  0
   51.8210   10.5868   16.7320 C   0  0  0  0  0  0  0  0  0  0  0  0
   51.5056   10.5122   19.5200 C   0  0  0  0  0  0  0  0  0  0  0  0
   49.3503    6.4505   17.8666 C   0  0  0  0  0  0  0  0  0  0  0  0
   52.3233   11.5918   17.4755 C   0  0  0  0  0  0  0  0  0  0  0  0
   52.1528   11.5325   18.9254 C   0  0  0  0  0  0  0  0  0  0  0  0
   49.2003    8.5813   13.2991 N   0  0  0  0  0  0  0  0  0  0  0  0
   48.9621    9.9220   15.1423 O   0  0  0  0  0  0  0  0  0  0  0  0
   49.9663    5.2763   17.4205 C   0  0  0  0  0  0  0  0  0  0  0  0
   48.0236    6.4075   18.3035 C   0  0  0  0  0  0  0  0  0  0  0  0
   49.2516    4.0754   17.3882 C   0  0  0  0  0  0  0  0  0  0  0  0
   47.3094    5.2071   18.2695 C   0  0  0  0  0  0  0  0  0  0  0  0
   47.9129    4.0354   17.7972 C   0  0  0  0  0  0  0  0  0  0  0  0
   53.0394   12.7729   16.9011 C   0  0  0  0  0  0  0  0  0  0  0  0
   49.9193    7.5826   12.5202 C   0  0  0  0  0  0  0  0  0  0  0  0
   48.1891    9.3402   12.5790 C   0  0  0  0  0  0  0  0  0  0  0  0
   47.1585    2.7388   17.7994 C   0  0  0  0  0  0  0  0  0  0  0  0
   50.3629    6.6601   18.3671 O   0  0  0  0  0  0  0  0  0  0  0  0
   49.4046    5.4982   16.7163 O   0  0  0  0  0  0  0  0  0  0  0  0
   51.0623    9.3649   14.5794 O   0  0  0  0  0  0  0  0  0  0  0  0
   51.9899    7.7950   15.8677 O   0  0  0  0  0  0  0  0  0  0  0  0
   48.3307    7.7878   15.5507 O   0  0  0  0  0  0  0  0  0  0  0  0
   49.3914   10.2532   16.4128 O   0  0  0  0  0  0  0  0  0  0  0  0
   49.6134    6.5760   17.2539 C   0  0  0  0  0  0  0  0  0  0  0  0
   49.0065    7.9014   16.8133 C   0  0  1  0  0  0  0  0  0  0  0  0
   50.0461    9.0185   16.7354 C   0  0  1  0  0  0  0  0  0  0  0  0
   51.1328    8.6531   15.7251 C   0  0  0  0  0  0  0  0  0  0  0  0
   51.3263    7.9348   17.2552 H   0  0  0  0  0  0  0  0  0  0  0  0
   52.0182    8.5917   15.7659 H   0  0  0  0  0  0  0  0  0  0  0  0
   51.1378    9.6273   13.7451 H   0  0  0  0  0  0  0  0  0  0  0  0
   47.6457    6.4645   12.1646 H   0  0  0  0  0  0  0  0  0  0  0  0
   48.6898    8.0263   10.5770 H   0  0  0  0  0  0  0  0  0  0  0  0
   48.6841    8.2373   18.2567 H   0  0  0  0  0  0  0  0  0  0  0  0
   48.9974    4.2748   16.5981 H   0  0  0  0  0  0  0  0  0  0  0  0
   48.3978    7.2796   20.5035 H   0  0  0  0  0  0  0  0  0  0  0  0
   48.6975    3.3100   18.8471 H   0  0  0  0  0  0  0  0  0  0  0  0
   51.3379   10.5639   11.4696 H   0  0  0  0  0  0  0  0  0  0  0  0
   51.0736    9.3345   10.2260 H   0  0  0  0  0  0  0  0  0  0  0  0
   49.8013   10.5184   10.5998 H   0  0  0  0  0  0  0  0  0  0  0  0
   53.3910   10.6820   18.6642 H   0  0  0  0  0  0  0  0  0  0  0  0
   53.1302    9.1918   17.7445 H   0  0  0  0  0  0  0  0  0  0  0  0
   52.2381    9.4530   19.2670 H   0  0  0  0  0  0  0  0  0  0  0  0
   50.6512   11.7019   19.1832 H   0  0  0  0  0  0  0  0  0  0  0  0
   51.9955   12.5242   18.3335 H   0  0  0  0  0  0  0  0  0  0  0  0
   50.4080   12.3778   17.5530 H   0  0  0  0  0  0  0  0  0  0  0  0
   48.7359    5.3052   21.9869 H   0  0  0  0  0  0  0  0  0  0  0  0
   47.2757    4.4845   21.3817 H   0  0  0  0  0  0  0  0  0  0  0  0
   48.8661    3.6826   21.3097 H   0  0  0  0  0  0  0  0  0  0  0  0
   51.5139    8.2705   14.9006 H   0  0  0  0  0  0  0  0  0  0  0  0
   50.2769    7.0371   15.2027 H   0  0  0  0  0  0  0  0  0  0  0  0
   51.8964   10.5644   15.6533 H   0  0  0  0  0  0  0  0  0  0  0  0
   51.3738   10.4688   20.5949 H   0  0  0  0  0  0  0  0  0  0  0  0
   52.5564   12.3422   19.5267 H   0  0  0  0  0  0  0  0  0  0  0  0
   51.0084    5.2870   17.1117 H   0  0  0  0  0  0  0  0  0  0  0  0
   47.5453    7.3115   18.6746 H   0  0  0  0  0  0  0  0  0  0  0  0
   49.7489    3.1701   17.0490 H   0  0  0  0  0  0  0  0  0  0  0  0
   46.2798    5.1945   18.6195 H   0  0  0  0  0  0  0  0  0  0  0  0
   52.5182   13.7014   17.1558 H   0  0  0  0  0  0  0  0  0  0  0  0
   54.0605   12.8312   17.2912 H   0  0  0  0  0  0  0  0  0  0  0  0
   53.1044   12.7174   15.8091 H   0  0  0  0  0  0  0  0  0  0  0  0
   50.3647    8.0762   11.6504 H   0  0  0  0  0  0  0  0  0  0  0  0
   50.7183    7.0947   13.0789 H   0  0  0  0  0  0  0  0  0  0  0  0
   49.2071    6.8239   12.1810 H   0  0  0  0  0  0  0  0  0  0  0  0
   47.5365    8.6457   12.0421 H   0  0  0  0  0  0  0  0  0  0  0  0
   48.6907    9.9977   11.8635 H   0  0  0  0  0  0  0  0  0  0  0  0
   47.5748    9.9475   13.2487 H   0  0  0  0  0  0  0  0  0  0  0  0
   47.4958    2.0897   16.9842 H   0  0  0  0  0  0  0  0  0  0  0  0
   46.0863    2.9093   17.6554 H   0  0  0  0  0  0  0  0  0  0  0  0
   47.3101    2.2204   18.7514 H   0  0  0  0  0  0  0  0  0  0  0  0
   50.7025    5.7493   18.5054 H   0  0  0  0  0  0  0  0  0  0  0  0
   51.8002    9.0227   14.0331 H   0  0  0  0  0  0  0  0  0  0  0  0
   47.9049    6.9071   15.5431 H   0  0  0  0  0  0  0  0  0  0  0  0
   49.0511   10.1224   15.5037 H   0  0  0  0  0  0  0  0  0  0  0  0
   48.2318    8.1648   17.5425 H   0  0  0  0  0  0  0  0  0  0  0  0
   50.5429    9.1772   17.6986 H   0  0  0  0  0  0  0  0  0  0  0  0
 10  4  1  0
 11  8  2  0
 12 11  1  0
 13  7  1  0
 14  7  2  0
 15 10  2  0
 16 10  1  0
 17 15  1  0
 18 16  2  0
 19 18  1  0
 20 11  1  0
 21 13  1  0
 22 13  1  0
 23 19  1  0
  3  5  2  0
  9 12  2  0
 17 19  2  0
  2  1  1  0
  3  4  1  0
  4  1  2  0
  5  2  1  0
  6  1  1  0
  7  6  1  0
  8  2  1  0
  9  5  1  0
 33 27  1  0
 34 31  2  0
 35 34  1  0
 36 30  1  0
 37 30  2  0
 38 33  2  0
 39 33  1  0
 40 38  1  0
 41 39  2  0
 42 41  1  0
 43 34  1  0
 44 36  1  0
 45 36  1  0
 46 42  1  0
 26 28  2  0
 32 35  2  0
 40 42  2  0
 25 24  1  0
 26 27  1  0
 27 24  2  0
 28 25  1  0
 29 24  1  0
 30 29  1  0
 31 25  1  0
 32 28  1  0
 53 48  2  0
 54 51  1  0
 55 52  1  0
 53 47  1  0
 55 56  1  0
 54 55  1  0
 56 49  1  0
 53 54  1  0
 56 50  2  0
  6 57  1  0
  6 58  1  0
  8 59  1  0
  9 60  1  0
 12 61  1  0
 15 62  1  0
 16 63  1  0
 17 64  1  0
 18 65  1  0
 20 66  1  0
 20 67  1  0
 20 68  1  0
 21 69  1  0
 21 70  1  0
 21 71  1  0
 22 72  1  0
 22 73  1  0
 22 74  1  0
 23 75  1  0
 23 76  1  0
 23 77  1  0
 29 78  1  0
 29 79  1  0
 31 80  1  0
 32 81  1  0
 35 82  1  0
 38 83  1  0
 39 84  1  0
 40 85  1  0
 41 86  1  0
 43 87  1  0
 43 88  1  0
 43 89  1  0
 44 90  1  0
 44 91  1  0
 44 92  1  0
 45 93  1  0
 45 94  1  0
 45 95  1  0
 46 96  1  0
 46 97  1  0
 46 98  1  0
 47 99  1  0
 49100  1  0
 51101  1  0
 52102  1  0
 54103  1  1
 55104  1  6
M  END
> <Uni-Dock RESULT> 
ENERGY=   -5.029  LOWER_BOUND=    2.313  UPPER_BOUND=    6.240
INTER + INTRA:          -5.029
INTER:                  -5.029
INTRA:                   0.000
UNBOUND:                 0.000

$$$$

     RDKit          3D

104107  0  0  0  0  0  0  0  0999 V2000
   44.2322   12.3661    9.2913 C   0  0  0  0  0  0  0  0  0  0  0  0
   44.5600   12.2315    7.9540 N   0  0  0  0  0  0  0  0  0  0  0  0
   42.3733   11.7690    8.1153 N   0  0  0  0  0  0  0  0  0  0  0  0
   42.8664   12.1360    9.3428 C   0  0  0  0  0  0  0  0  0  0  0  0
   43.3958   11.8484    7.2933 C   0  0  0  0  0  0  0  0  0  0  0  0
   45.2281   12.6671   10.3649 C   0  0  0  0  0  0  0  0  0  0  0  0
   45.5894   14.1514   10.4254 C   0  0  0  0  0  0  0  0  0  0  0  0
   45.7832   12.3987    7.3002 C   0  0  0  0  0  0  0  0  0  0  0  0
   43.4868   11.6078    5.8943 C   0  0  0  0  0  0  0  0  0  0  0  0
   42.0300   12.2001   10.5252 C   0  0  0  0  0  0  0  0  0  0  0  0
   45.8699   12.1772    5.9742 C   0  0  0  0  0  0  0  0  0  0  0  0
   44.6649   11.7611    5.2608 C   0  0  0  0  0  0  0  0  0  0  0  0
   46.3701   14.5595   11.5103 N   0  0  0  0  0  0  0  0  0  0  0  0
   45.2362   14.9458    9.5521 O   0  0  0  0  0  0  0  0  0  0  0  0
   42.0381   13.3250   11.3585 C   0  0  0  0  0  0  0  0  0  0  0  0
   41.1765   11.1346   10.8280 C   0  0  0  0  0  0  0  0  0  0  0  0
   41.2314   13.3659   12.4999 C   0  0  0  0  0  0  0  0  0  0  0  0
   40.3708   11.1752   11.9698 C   0  0  0  0  0  0  0  0  0  0  0  0
   40.4048   12.2839   12.8241 C   0  0  0  0  0  0  0  0  0  0  0  0
   47.1303   12.3441    5.1870 C   0  0  0  0  0  0  0  0  0  0  0  0
   46.6425   13.7225   12.6688 C   0  0  0  0  0  0  0  0  0  0  0  0
   46.6050   15.9838   11.6837 C   0  0  0  0  0  0  0  0  0  0  0  0
   39.5135   12.3427   14.0290 C   0  0  0  0  0  0  0  0  0  0  0  0
   44.6151   12.9508   10.5711 C   0  0  0  0  0  0  0  0  0  0  0  0
   45.5507   13.7738   11.1758 N   0  0  0  0  0  0  0  0  0  0  0  0
   43.7551   13.7743   12.5169 N   0  0  0  0  0  0  0  0  0  0  0  0
   43.5261   12.9743   11.4268 C   0  0  0  0  0  0  0  0  0  0  0  0
   44.9748   14.2371   12.3561 C   0  0  0  0  0  0  0  0  0  0  0  0
   44.8315   12.2636    9.2601 C   0  0  0  0  0  0  0  0  0  0  0  0
   44.7217   13.2251    8.0751 C   0  0  0  0  0  0  0  0  0  0  0  0
   46.8421   14.1262   10.7743 C   0  0  0  0  0  0  0  0  0  0  0  0
   45.7572   15.0994   13.1731 C   0  0  0  0  0  0  0  0  0  0  0  0
   42.2703   12.2835   11.2265 C   0  0  0  0  0  0  0  0  0  0  0  0
   47.5851   14.9436   11.5456 C   0  0  0  0  0  0  0  0  0  0  0  0
   47.0043   15.4362   12.7926 C   0  0  0  0  0  0  0  0  0  0  0  0
   44.6646   12.6527    6.8042 N   0  0  0  0  0  0  0  0  0  0  0  0
   44.7084   14.4482    8.2275 O   0  0  0  0  0  0  0  0  0  0  0  0
   42.2127   10.8859   11.2046 C   0  0  0  0  0  0  0  0  0  0  0  0
   41.0936   13.0224   11.0780 C   0  0  0  0  0  0  0  0  0  0  0  0
   40.9911   10.2350   11.0098 C   0  0  0  0  0  0  0  0  0  0  0  0
   39.8730   12.3713   10.8819 C   0  0  0  0  0  0  0  0  0  0  0  0
   39.8146   10.9733   10.8309 C   0  0  0  0  0  0  0  0  0  0  0  0
   48.9705   15.3854   11.1944 C   0  0  0  0  0  0  0  0  0  0  0  0
   44.8811   11.2440    6.5049 C   0  0  0  0  0  0  0  0  0  0  0  0
   44.5159   13.5303    5.6532 C   0  0  0  0  0  0  0  0  0  0  0  0
   38.4983   10.2741   10.6612 C   0  0  0  0  0  0  0  0  0  0  0  0
   43.0295   12.1285   12.0747 O   0  0  0  0  0  0  0  0  0  0  0  0
   42.1047   11.1136   10.3117 O   0  0  0  0  0  0  0  0  0  0  0  0
   46.1819   12.8076    8.6465 O   0  0  0  0  0  0  0  0  0  0  0  0
   45.6455   11.4861   10.3644 O   0  0  0  0  0  0  0  0  0  0  0  0
   42.8985   13.1331    8.5666 O   0  0  0  0  0  0  0  0  0  0  0  0
   44.8639   14.9161    9.5179 O   0  0  0  0  0  0  0  0  0  0  0  0
   42.7203   12.0661   10.7676 C   0  0  0  0  0  0  0  0  0  0  0  0
   43.1243   13.3023    9.9752 C   0  0  1  0  0  0  0  0  0  0  0  0
   44.5820   13.6939   10.2136 C   0  0  1  0  0  0  0  0  0  0  0  0
   45.5067   12.5541    9.7886 C   0  0  0  0  0  0  0  0  0  0  0  0
   44.8131   12.3581   11.3296 H   0  0  0  0  0  0  0  0  0  0  0  0
   46.1460   12.0925   10.1979 H   0  0  0  0  0  0  0  0  0  0  0  0
   46.6273   12.7218    7.8950 H   0  0  0  0  0  0  0  0  0  0  0  0
   42.5914   11.3054    5.3648 H   0  0  0  0  0  0  0  0  0  0  0  0
   44.7358   11.5807    4.1918 H   0  0  0  0  0  0  0  0  0  0  0  0
   42.6507   14.1889   11.1108 H   0  0  0  0  0  0  0  0  0  0  0  0
   41.1330   10.2698   10.1688 H   0  0  0  0  0  0  0  0  0  0  0  0
   41.2452   14.2539   13.1276 H   0  0  0  0  0  0  0  0  0  0  0  0
   39.7123   10.3362   12.1827 H   0  0  0  0  0  0  0  0  0  0  0  0
   47.9624   12.6718    5.8189 H   0  0  0  0  0  0  0  0  0  0  0  0
   47.4204   11.3982    4.7181 H   0  0  0  0  0  0  0  0  0  0  0  0
   46.9959   13.0953    4.4024 H   0  0  0  0  0  0  0  0  0  0  0  0
   47.5582   14.0639   13.1599 H   0  0  0  0  0  0  0  0  0  0  0  0
   46.7790   12.6776   12.3815 H   0  0  0  0  0  0  0  0  0  0  0  0
   45.7994   13.8013   13.3614 H   0  0  0  0  0  0  0  0  0  0  0  0
   45.8632   16.3760   12.3869 H   0  0  0  0  0  0  0  0  0  0  0  0
   47.6115   16.1358   12.0851 H   0  0  0  0  0  0  0  0  0  0  0  0
   46.5231   16.5294   10.7393 H   0  0  0  0  0  0  0  0  0  0  0  0
   39.9683   12.9456   14.8221 H   0  0  0  0  0  0  0  0  0  0  0  0
   38.5479   12.7818   13.7602 H   0  0  0  0  0  0  0  0  0  0  0  0
   39.3477   11.3405   14.4388 H   0  0  0  0  0  0  0  0  0  0  0  0
   45.8221   11.7971    9.2418 H   0  0  0  0  0  0  0  0  0  0  0  0
   44.0819   11.4759    9.1372 H   0  0  0  0  0  0  0  0  0  0  0  0
   47.1969   13.7300    9.8326 H   0  0  0  0  0  0  0  0  0  0  0  0
   45.3227   15.4675   14.0952 H   0  0  0  0  0  0  0  0  0  0  0  0
   47.6014   16.0960   13.4156 H   0  0  0  0  0  0  0  0  0  0  0  0
   43.1142   10.2975   11.3547 H   0  0  0  0  0  0  0  0  0  0  0  0
   41.1269   14.1092   11.1182 H   0  0  0  0  0  0  0  0  0  0  0  0
   40.9626    9.1483   11.0064 H   0  0  0  0  0  0  0  0  0  0  0  0
   38.9684   12.9652   10.7743 H   0  0  0  0  0  0  0  0  0  0  0  0
   49.0177   16.4759   11.1090 H   0  0  0  0  0  0  0  0  0  0  0  0
   49.6824   15.0674   11.9627 H   0  0  0  0  0  0  0  0  0  0  0  0
   49.3023   14.9629   10.2398 H   0  0  0  0  0  0  0  0  0  0  0  0
   45.7536   11.1591    5.8491 H   0  0  0  0  0  0  0  0  0  0  0  0
   45.0645   10.6387    7.3929 H   0  0  0  0  0  0  0  0  0  0  0  0
   43.9986   10.8567    5.9859 H   0  0  0  0  0  0  0  0  0  0  0  0
   43.7725   13.1044    4.9732 H   0  0  0  0  0  0  0  0  0  0  0  0
   45.4802   13.6015    5.1425 H   0  0  0  0  0  0  0  0  0  0  0  0
   44.1909   14.5339    5.9393 H   0  0  0  0  0  0  0  0  0  0  0  0
   38.6269    9.3229   10.1336 H   0  0  0  0  0  0  0  0  0  0  0  0
   37.8055   10.8818   10.0696 H   0  0  0  0  0  0  0  0  0  0  0  0
   38.0506   10.0787   11.6407 H   0  0  0  0  0  0  0  0  0  0  0  0
   42.7390   11.2640   12.4386 H   0  0  0  0  0  0  0  0  0  0  0  0
   46.7167   12.0008    8.4944 H   0  0  0  0  0  0  0  0  0  0  0  0
   42.0742   12.6138    8.4790 H   0  0  0  0  0  0  0  0  0  0  0  0
   44.7869   14.6841    8.5694 H   0  0  0  0  0  0  0  0  0  0  0  0
   42.4641   14.1201   10.2860 H   0  0  0  0  0  0  0  0  0  0  0  0
   44.7803   13.8909   11.2727 H   0  0  0  0  0  0  0  0  0  0  0  0
 10  4  1  0
 11  8  2  0
 12 11  1  0
 13  7  1  0
 14  7  2  0
 15 10  2  0
 16 10  1  0
 17 15  1  0
 18 16  2  0
 19 18  1  0
 20 11  1  0
 21 13  1  0
 22 13  1  0
 23 19  1  0
  3  5  2  0
  9 12  2  0
 17 19  2  0
  2  1  1  0
  3  4  1  0
  4  1  2  0
  5  2  1  0
  6  1  1  0
  7  6  1  0
  8  2  1  0
  9  5  1  0
 33 27  1  0
 34 31  2  0
 35 34  1  0
 36 30  1  0
 37 30  2  0
 38 33  2  0
 39 33  1  0
 40 38  1  0
 41 39  2  0
 42 41  1  0
 43 34  1  0
 44 36  1  0
 45 36  1  0
 46 42  1  0
 26 28  2  0
 32 35  2  0
 40 42  2  0
 25 24  1  0
 26 27  1  0
 27 24  2  0
 28 25  1  0
 29 24  1  0
 30 29  1  0
 31 25  1  0
 32 28  1  0
 53 48  2  0
 54 51  1  0
 55 52  1  0
 53 47  1  0
 55 56  1  0
 54 55  1  0
 56 49  1  0
 53 54  1  0
 56 50  2  0
  6 57  1  0
  6 58  1  0
  8 59  1  0
  9 60  1  0
 12 61  1  0
 15 62  1  0
 16 63  1  0
 17 64  1  0
 18 65  1  0
 20 66  1  0
 20 67  1  0
 20 68  1  0
 21 69  1  0
 21 70  1  0
 21 71  1  0
 22 72  1  0
 22 73  1  0
 22 74  1  0
 23 75  1  0
 23 76  1  0
 23 77  1  0
 29 78  1  0
 29 79  1  0
 31 80  1  0
 32 81  1  0
 35 82  1  0
 38 83  1  0
 39 84  1  0
 40 85  1  0
 41 86  1  0
 43 87  1  0
 43 88  1  0
 43 89  1  0
 44 90  1  0
 44 91  1  0
 44 92  1  0
 45 93  1  0
 45 94  1  0
 45 95  1  0
 46 96  1  0
 46 97  1  0
 46 98  1  0
 47 99  1  0
 49100  1  0
 51101  1  0
 52102  1  0
 54103  1  1
 55104  1  6
M  END
> <Uni-Dock RESULT> 
ENERGY=   -4.928  LOWER_BOUND=    7.980  UPPER_BOUND=   11.242
INTER + INTRA:          -4.928
INTER:                  -4.928
INTRA:                   0.000
UNBOUND:                 0.000

$$$$

     RDKit          3D

104107  0  0  0  0  0  0  0  0999 V2000
   48.9350    8.1257   17.8504 C   0  0  0  0  0  0  0  0  0  0  0  0
   49.4827    7.0340   18.5003 N   0  0  0  0  0  0  0  0  0  0  0  0
   50.0061    6.8040   16.3335 N   0  0  0  0  0  0  0  0  0  0  0  0
   49.3312    7.9832   16.5300 C   0  0  0  0  0  0  0  0  0  0  0  0
   50.1029    6.2576   17.5251 C   0  0  0  0  0  0  0  0  0  0  0  0
   48.0891    9.1567   18.5261 C   0  0  0  0  0  0  0  0  0  0  0  0
   48.9226   10.1816   19.2957 C   0  0  0  0  0  0  0  0  0  0  0  0
   49.4557    6.6767   19.8506 C   0  0  0  0  0  0  0  0  0  0  0  0
   50.7149    5.0446   17.9463 C   0  0  0  0  0  0  0  0  0  0  0  0
   49.0433    8.9002   15.4446 C   0  0  0  0  0  0  0  0  0  0  0  0
   50.0401    5.5313   20.2523 C   0  0  0  0  0  0  0  0  0  0  0  0
   50.6859    4.6925   19.2455 C   0  0  0  0  0  0  0  0  0  0  0  0
   48.2362   11.2864   19.8068 N   0  0  0  0  0  0  0  0  0  0  0  0
   50.1317   10.0330   19.4817 O   0  0  0  0  0  0  0  0  0  0  0  0
   49.3290   10.2663   15.5549 C   0  0  0  0  0  0  0  0  0  0  0  0
   48.4973    8.4129   14.2531 C   0  0  0  0  0  0  0  0  0  0  0  0
   49.0363   11.1377   14.5013 C   0  0  0  0  0  0  0  0  0  0  0  0
   48.2037    9.2845   13.2002 C   0  0  0  0  0  0  0  0  0  0  0  0
   48.4549   10.6563   13.3226 C   0  0  0  0  0  0  0  0  0  0  0  0
   50.0750    5.0738   21.6755 C   0  0  0  0  0  0  0  0  0  0  0  0
   46.8659   11.6208   19.4502 C   0  0  0  0  0  0  0  0  0  0  0  0
   49.0165   12.3545   20.4101 C   0  0  0  0  0  0  0  0  0  0  0  0
   48.1736   11.5857   12.1793 C   0  0  0  0  0  0  0  0  0  0  0  0
   48.4269    9.4844   17.9995 C   0  0  0  0  0  0  0  0  0  0  0  0
   48.2406   10.5010   18.9214 N   0  0  0  0  0  0  0  0  0  0  0  0
   48.2270   11.4747   16.9030 N   0  0  0  0  0  0  0  0  0  0  0  0
   48.4099   10.1221   16.7699 C   0  0  0  0  0  0  0  0  0  0  0  0
   48.1177   11.6834   18.1960 C   0  0  0  0  0  0  0  0  0  0  0  0
   48.6259    8.0485   18.3692 C   0  0  0  0  0  0  0  0  0  0  0  0
   50.0279    7.7791   18.9192 C   0  0  0  0  0  0  0  0  0  0  0  0
   48.1649   10.4571   20.3162 C   0  0  0  0  0  0  0  0  0  0  0  0
   47.9001   12.8827   18.9291 C   0  0  0  0  0  0  0  0  0  0  0  0
   48.5884    9.4903   15.4802 C   0  0  0  0  0  0  0  0  0  0  0  0
   47.9600   11.5917   21.0132 C   0  0  0  0  0  0  0  0  0  0  0  0
   47.8204   12.8436   20.2727 C   0  0  0  0  0  0  0  0  0  0  0  0
   50.3997    6.4426   19.0657 N   0  0  0  0  0  0  0  0  0  0  0  0
   50.7880    8.6942   19.2421 O   0  0  0  0  0  0  0  0  0  0  0  0
   47.6620    8.5582   15.0005 C   0  0  0  0  0  0  0  0  0  0  0  0
   49.6887    9.8349   14.6907 C   0  0  0  0  0  0  0  0  0  0  0  0
   47.8502    7.9577   13.7524 C   0  0  0  0  0  0  0  0  0  0  0  0
   49.8770    9.2331   13.4438 C   0  0  0  0  0  0  0  0  0  0  0  0
   48.9678    8.2788   12.9719 C   0  0  0  0  0  0  0  0  0  0  0  0
   47.8764   11.6465   22.5058 C   0  0  0  0  0  0  0  0  0  0  0  0
   49.5102    5.2997   18.9121 C   0  0  0  0  0  0  0  0  0  0  0  0
   51.7407    6.1432   19.5444 C   0  0  0  0  0  0  0  0  0  0  0  0
   49.1484    7.6634   11.6158 C   0  0  0  0  0  0  0  0  0  0  0  0
   47.6610   10.0474   15.8669 O   0  0  0  0  0  0  0  0  0  0  0  0
   48.3867    8.0298   15.2377 O   0  0  0  0  0  0  0  0  0  0  0  0
   48.7808    7.9710   19.9395 O   0  0  0  0  0  0  0  0  0  0  0  0
   47.0962    8.3932   18.5365 O   0  0  0  0  0  0  0  0  0  0  0  0
   50.4584    8.0494   17.0983 O   0  0  0  0  0  0  0  0  0  0  0  0
   50.2907    9.9794   19.1462 O   0  0  0  0  0  0  0  0  0  0  0  0
   48.5136    9.0114   15.9549 C   0  0  0  0  0  0  0  0  0  0  0  0
   49.6558    9.2301   16.9382 C   0  0  1  0  0  0  0  0  0  0  0  0
   49.1623    9.6994   18.3061 C   0  0  1  0  0  0  0  0  0  0  0  0
   48.2283    8.6533   18.9131 C   0  0  0  0  0  0  0  0  0  0  0  0
   47.4905    9.6745   17.7698 H   0  0  0  0  0  0  0  0  0  0  0  0
   47.3972    8.6753   19.2262 H   0  0  0  0  0  0  0  0  0  0  0  0
   48.9697    7.3568   20.5375 H   0  0  0  0  0  0  0  0  0  0  0  0
   51.1991    4.4263   17.2001 H   0  0  0  0  0  0  0  0  0  0  0  0
   51.1553    3.7679   19.5697 H   0  0  0  0  0  0  0  0  0  0  0  0
   49.8070   10.6580   16.4500 H   0  0  0  0  0  0  0  0  0  0  0  0
   48.3045    7.3478   14.1401 H   0  0  0  0  0  0  0  0  0  0  0  0
   49.2762   12.1935   14.6040 H   0  0  0  0  0  0  0  0  0  0  0  0
   47.7828    8.8817   12.2817 H   0  0  0  0  0  0  0  0  0  0  0  0
   49.5756    5.7846   22.3421 H   0  0  0  0  0  0  0  0  0  0  0  0
   49.5723    4.1070   21.7824 H   0  0  0  0  0  0  0  0  0  0  0  0
   51.1087    4.9689   22.0195 H   0  0  0  0  0  0  0  0  0  0  0  0
   46.4223   12.2362   20.2382 H   0  0  0  0  0  0  0  0  0  0  0  0
   46.2545   10.7232   19.3339 H   0  0  0  0  0  0  0  0  0  0  0  0
   46.8769   12.1769   18.5082 H   0  0  0  0  0  0  0  0  0  0  0  0
   49.1941   13.1259   19.6539 H   0  0  0  0  0  0  0  0  0  0  0  0
   48.4558   12.7801   21.2478 H   0  0  0  0  0  0  0  0  0  0  0  0
   49.9793   11.9955   20.7850 H   0  0  0  0  0  0  0  0  0  0  0  0
   47.9315   12.5898   12.5429 H   0  0  0  0  0  0  0  0  0  0  0  0
   49.0470   11.6478   11.5230 H   0  0  0  0  0  0  0  0  0  0  0  0
   47.3143   11.2361   11.5971 H   0  0  0  0  0  0  0  0  0  0  0  0
   47.8904    7.7519   19.1246 H   0  0  0  0  0  0  0  0  0  0  0  0
   48.4755    7.4234   17.4837 H   0  0  0  0  0  0  0  0  0  0  0  0
   48.2896    9.4940   20.7921 H   0  0  0  0  0  0  0  0  0  0  0  0
   47.8016   13.8109   18.3782 H   0  0  0  0  0  0  0  0  0  0  0  0
   47.6559   13.7597   20.8329 H   0  0  0  0  0  0  0  0  0  0  0  0
   46.7825    8.3072   15.5876 H   0  0  0  0  0  0  0  0  0  0  0  0
   50.4004   10.5770   15.0465 H   0  0  0  0  0  0  0  0  0  0  0  0
   47.1149    7.2435   13.3901 H   0  0  0  0  0  0  0  0  0  0  0  0
   50.7369    9.5199   12.8429 H   0  0  0  0  0  0  0  0  0  0  0  0
   48.6580   12.2963   22.9125 H   0  0  0  0  0  0  0  0  0  0  0  0
   46.9035   12.0354   22.8228 H   0  0  0  0  0  0  0  0  0  0  0  0
   48.0003   10.6560   22.9566 H   0  0  0  0  0  0  0  0  0  0  0  0
   49.4609    4.7681   19.8679 H   0  0  0  0  0  0  0  0  0  0  0  0
   48.4957    5.5793   18.6272 H   0  0  0  0  0  0  0  0  0  0  0  0
   49.9242    4.6340   18.1482 H   0  0  0  0  0  0  0  0  0  0  0  0
   52.1625    5.3337   18.9417 H   0  0  0  0  0  0  0  0  0  0  0  0
   51.6750    5.8254   20.5887 H   0  0  0  0  0  0  0  0  0  0  0  0
   52.4049    7.0087   19.4780 H   0  0  0  0  0  0  0  0  0  0  0  0
   48.7454    6.6452   11.5925 H   0  0  0  0  0  0  0  0  0  0  0  0
   50.2097    7.5980   11.3537 H   0  0  0  0  0  0  0  0  0  0  0  0
   48.6335    8.2660   10.8610 H   0  0  0  0  0  0  0  0  0  0  0  0
   46.9769    9.7504   15.2284 H   0  0  0  0  0  0  0  0  0  0  0  0
   48.0842    7.3403   20.2170 H   0  0  0  0  0  0  0  0  0  0  0  0
   50.5045    7.6249   16.2182 H   0  0  0  0  0  0  0  0  0  0  0  0
   50.7175    9.1088   19.2851 H   0  0  0  0  0  0  0  0  0  0  0  0
   50.3211    9.9852   16.5040 H   0  0  0  0  0  0  0  0  0  0  0  0
   48.5948   10.6335   18.2332 H   0  0  0  0  0  0  0  0  0  0  0  0
 10  4  1  0
 11  8  2  0
 12 11  1  0
 13  7  1  0
 14  7  2  0
 15 10  2  0
 16 10  1  0
 17 15  1  0
 18 16  2  0
 19 18  1  0
 20 11  1  0
 21 13  1  0
 22 13  1  0
 23 19  1  0
  3  5  2  0
  9 12  2  0
 17 19  2  0
  2  1  1  0
  3  4  1  0
  4  1  2  0
  5  2  1  0
  6  1  1  0
  7  6  1  0
  8  2  1  0
  9  5  1  0
 33 27  1  0
 34 31  2  0
 35 34  1  0
 36 30  1  0
 37 30  2  0
 38 33  2  0
 39 33  1  0
 40 38  1  0
 41 39  2  0
 42 41  1  0
 43 34  1  0
 44 36  1  0
 45 36  1  0
 46 42  1  0
 26 28  2  0
 32 35  2  0
 40 42  2  0
 25 24  1  0
 26 27  1  0
 27 24  2  0
 28 25  1  0
 29 24  1  0
 30 29  1  0
 31 25  1  0
 32 28  1  0
 53 48  2  0
 54 51  1  0
 55 52  1  0
 53 47  1  0
 55 56  1  0
 54 55  1  0
 56 49  1  0
 53 54  1  0
 56 50  2  0
  6 57  1  0
  6 58  1  0
  8 59  1  0
  9 60  1  0
 12 61  1  0
 15 62  1  0
 16 63  1  0
 17 64  1  0
 18 65  1  0
 20 66  1  0
 20 67  1  0
 20 68  1  0
 21 69  1  0
 21 70  1  0
 21 71  1  0
 22 72  1  0
 22 73  1  0
 22 74  1  0
 23 75  1  0
 23 76  1  0
 23 77  1  0
 29 78  1  0
 29 79  1  0
 31 80  1  0
 32 81  1  0
 35 82  1  0
 38 83  1  0
 39 84  1  0
 40 85  1  0
 41 86  1  0
 43 87  1  0
 43 88  1  0
 43 89  1  0
 44 90  1  0
 44 91  1  0
 44 92  1  0
 45 93  1  0
 45 94  1  0
 45 95  1  0
 46 96  1  0
 46 97  1  0
 46 98  1  0
 47 99  1  0
 49100  1  0
 51101  1  0
 52102  1  0
 54103  1  1
 55104  1  6
M  END
> <Uni-Dock RESULT> 
ENERGY=   -4.890  LOWER_BOUND=    0.957  UPPER_BOUND=    4.544
INTER + INTRA:          -4.890
INTER:                  -4.890
INTRA:                   0.000
UNBOUND:                 0.000

$$$$
