
     RDKit          3D

104107  0  0  0  0  0  0  0  0999 V2000
   49.6736    7.7513   13.5906 C   0  0  0  0  0  0  0  0  0  0  0  0
   50.7832    8.3799   13.0484 N   0  0  0  0  0  0  0  0  0  0  0  0
   49.5435    7.6899   11.3139 N   0  0  0  0  0  0  0  0  0  0  0  0
   48.9405    7.3305   12.4924 C   0  0  0  0  0  0  0  0  0  0  0  0
   50.6513    8.3029   11.6643 C   0  0  0  0  0  0  0  0  0  0  0  0
   49.4211    7.6296   15.0587 C   0  0  0  0  0  0  0  0  0  0  0  0
   49.0058    8.9561   15.6993 C   0  0  0  0  0  0  0  0  0  0  0  0
   51.8790    8.9835   13.6730 C   0  0  0  0  0  0  0  0  0  0  0  0
   51.6892    8.8704   10.8734 C   0  0  0  0  0  0  0  0  0  0  0  0
   47.6848    6.6095   12.5159 C   0  0  0  0  0  0  0  0  0  0  0  0
   52.8639    9.5191   12.9259 C   0  0  0  0  0  0  0  0  0  0  0  0
   52.7471    9.4503   11.4717 C   0  0  0  0  0  0  0  0  0  0  0  0
   48.4963    8.8913   16.9972 N   0  0  0  0  0  0  0  0  0  0  0  0
   49.1461   10.0335   15.1188 O   0  0  0  0  0  0  0  0  0  0  0  0
   47.5665    5.3778   13.1701 C   0  0  0  0  0  0  0  0  0  0  0  0
   46.5780    7.1318   11.8412 C   0  0  0  0  0  0  0  0  0  0  0  0
   46.3505    4.6882   13.1670 C   0  0  0  0  0  0  0  0  0  0  0  0
   45.3608    6.4451   11.8413 C   0  0  0  0  0  0  0  0  0  0  0  0
   45.2415    5.2133   12.4951 C   0  0  0  0  0  0  0  0  0  0  0  0
   54.0692   10.1911   13.5030 C   0  0  0  0  0  0  0  0  0  0  0  0
   47.9719   10.1013   17.6116 C   0  0  0  0  0  0  0  0  0  0  0  0
   48.3333    7.6683   17.7745 C   0  0  0  0  0  0  0  0  0  0  0  0
   43.9284    4.4906   12.5166 C   0  0  0  0  0  0  0  0  0  0  0  0
   49.6200    7.4122   13.9404 C   0  0  0  0  0  0  0  0  0  0  0  0
   50.8289    7.7766   13.3623 N   0  0  0  0  0  0  0  0  0  0  0  0
   49.3767    7.5250   11.6757 N   0  0  0  0  0  0  0  0  0  0  0  0
   48.7760    7.1880   12.8620 C   0  0  0  0  0  0  0  0  0  0  0  0
   50.6039    7.8682   11.9914 C   0  0  0  0  0  0  0  0  0  0  0  0
   49.3943    7.3145   15.4172 C   0  0  0  0  0  0  0  0  0  0  0  0
   49.6532    8.6425   16.1279 C   0  0  0  0  0  0  0  0  0  0  0  0
   52.0775    8.0274   13.9357 C   0  0  0  0  0  0  0  0  0  0  0  0
   51.6888    8.2839   11.1704 C   0  0  0  0  0  0  0  0  0  0  0  0
   47.4032    6.7194   12.9077 C   0  0  0  0  0  0  0  0  0  0  0  0
   53.1110    8.4069   13.1594 C   0  0  0  0  0  0  0  0  0  0  0  0
   52.8871    8.5467   11.7235 C   0  0  0  0  0  0  0  0  0  0  0  0
   48.6998    9.6533   16.0544 N   0  0  0  0  0  0  0  0  0  0  0  0
   50.7019    8.7856   16.7652 O   0  0  0  0  0  0  0  0  0  0  0  0
   47.0396    5.5983   13.6610 C   0  0  0  0  0  0  0  0  0  0  0  0
   46.4241    7.3826   12.1566 C   0  0  0  0  0  0  0  0  0  0  0  0
   45.7101    5.1656   13.6901 C   0  0  0  0  0  0  0  0  0  0  0  0
   45.0939    6.9523   12.1878 C   0  0  0  0  0  0  0  0  0  0  0  0
   44.7254    5.8459   12.9650 C   0  0  0  0  0  0  0  0  0  0  0  0
   54.4786    8.6961   13.6893 C   0  0  0  0  0  0  0  0  0  0  0  0
   47.5423    9.6141   15.1774 C   0  0  0  0  0  0  0  0  0  0  0  0
   49.0549   10.9621   16.5812 C   0  0  0  0  0  0  0  0  0  0  0  0
   43.3023    5.3694   12.9753 C   0  0  0  0  0  0  0  0  0  0  0  0
   47.3895    6.6501   12.1073 O   0  0  0  0  0  0  0  0  0  0  0  0
   49.0514    8.0894   11.7222 O   0  0  0  0  0  0  0  0  0  0  0  0
   51.0707    8.9015   14.0829 O   0  0  0  0  0  0  0  0  0  0  0  0
   49.4204   10.3980   14.2866 O   0  0  0  0  0  0  0  0  0  0  0  0
   48.3124    5.7648   14.4101 O   0  0  0  0  0  0  0  0  0  0  0  0
   47.5541    8.4441   14.9704 O   0  0  0  0  0  0  0  0  0  0  0  0
   48.5296    7.2765   12.4693 C   0  0  0  0  0  0  0  0  0  0  0  0
   49.0314    6.8754   13.8562 C   0  0  1  0  0  0  0  0  0  0  0  0
   48.9312    8.0656   14.8094 C   0  0  1  0  0  0  0  0  0  0  0  0
   49.7954    9.2360   14.3528 C   0  0  0  0  0  0  0  0  0  0  0  0
   48.6225    6.9012   15.2270 H   0  0  0  0  0  0  0  0  0  0  0  0
   50.3242    7.2662   15.5604 H   0  0  0  0  0  0  0  0  0  0  0  0
   51.8836    9.0051   14.7550 H   0  0  0  0  0  0  0  0  0  0  0  0
   51.6007    8.8224    9.7947 H   0  0  0  0  0  0  0  0  0  0  0  0
   53.5387    9.8887   10.8705 H   0  0  0  0  0  0  0  0  0  0  0  0
   48.4248    4.9400   13.6734 H   0  0  0  0  0  0  0  0  0  0  0  0
   46.6599    8.0801   11.3136 H   0  0  0  0  0  0  0  0  0  0  0  0
   46.2800    3.7326   13.6816 H   0  0  0  0  0  0  0  0  0  0  0  0
   44.5114    6.8750   11.3144 H   0  0  0  0  0  0  0  0  0  0  0  0
   54.1313   11.2287   13.1589 H   0  0  0  0  0  0  0  0  0  0  0  0
   54.0402   10.2018   14.5976 H   0  0  0  0  0  0  0  0  0  0  0  0
   54.9823    9.6694   13.2002 H   0  0  0  0  0  0  0  0  0  0  0  0
   46.9111    9.9456   17.8432 H   0  0  0  0  0  0  0  0  0  0  0  0
   48.0694   10.9775   16.9611 H   0  0  0  0  0  0  0  0  0  0  0  0
   48.5211   10.2913   18.5403 H   0  0  0  0  0  0  0  0  0  0  0  0
   48.6473    7.8573   18.8067 H   0  0  0  0  0  0  0  0  0  0  0  0
   47.2755    7.3879   17.7615 H   0  0  0  0  0  0  0  0  0  0  0  0
   48.9304    6.8442   17.3827 H   0  0  0  0  0  0  0  0  0  0  0  0
   43.3630    4.6810   11.5990 H   0  0  0  0  0  0  0  0  0  0  0  0
   43.3371    4.8234   13.3743 H   0  0  0  0  0  0  0  0  0  0  0  0
   44.0748    3.4086   12.5883 H   0  0  0  0  0  0  0  0  0  0  0  0
   48.3880    6.9733   15.6704 H   0  0  0  0  0  0  0  0  0  0  0  0
   50.0736    6.5634   15.8406 H   0  0  0  0  0  0  0  0  0  0  0  0
   52.1750    7.9030   15.0049 H   0  0  0  0  0  0  0  0  0  0  0  0
   51.5203    8.3787   10.1031 H   0  0  0  0  0  0  0  0  0  0  0  0
   53.7176    8.8675   11.0982 H   0  0  0  0  0  0  0  0  0  0  0  0
   47.7901    5.0380   14.2142 H   0  0  0  0  0  0  0  0  0  0  0  0
   46.7013    8.2327   11.5378 H   0  0  0  0  0  0  0  0  0  0  0  0
   45.4520    4.2847   14.2733 H   0  0  0  0  0  0  0  0  0  0  0  0
   44.3496    7.4800   11.5931 H   0  0  0  0  0  0  0  0  0  0  0  0
   54.5369    8.5380   14.7716 H   0  0  0  0  0  0  0  0  0  0  0  0
   55.2179    8.0379   13.2207 H   0  0  0  0  0  0  0  0  0  0  0  0
   54.7605    9.7360   13.4873 H   0  0  0  0  0  0  0  0  0  0  0  0
   47.1203    8.6108   15.1259 H   0  0  0  0  0  0  0  0  0  0  0  0
   47.8414    9.9471   14.1789 H   0  0  0  0  0  0  0  0  0  0  0  0
   46.7660   10.2801   15.5669 H   0  0  0  0  0  0  0  0  0  0  0  0
   49.4370   11.5774   15.7578 H   0  0  0  0  0  0  0  0  0  0  0  0
   48.1677   11.4371   17.0121 H   0  0  0  0  0  0  0  0  0  0  0  0
   49.8221   10.8888   17.3580 H   0  0  0  0  0  0  0  0  0  0  0  0
   43.0477    4.9202   12.0091 H   0  0  0  0  0  0  0  0  0  0  0  0
   42.6235    6.2046   13.1728 H   0  0  0  0  0  0  0  0  0  0  0  0
   43.1399    4.6190   13.7560 H   0  0  0  0  0  0  0  0  0  0  0  0
   47.1958    6.9871   11.2072 H   0  0  0  0  0  0  0  0  0  0  0  0
   51.4853    9.7331   13.7655 H   0  0  0  0  0  0  0  0  0  0  0  0
   47.3719    6.0392   14.3888 H   0  0  0  0  0  0  0  0  0  0  0  0
   47.5563    9.3892   15.2255 H   0  0  0  0  0  0  0  0  0  0  0  0
   50.0683    6.5406   13.7354 H   0  0  0  0  0  0  0  0  0  0  0  0
   49.2786    7.7722   15.8069 H   0  0  0  0  0  0  0  0  0  0  0  0
 10  4  1  0
 11  8  2  0
 12 11  1  0
 13  7  1  0
 14  7  2  0
 15 10  2  0
 16 10  1  0
 17 15  1  0
 18 16  2  0
 19 18  1  0
 20 11  1  0
 21 13  1  0
 22 13  1  0
 23 19  1  0
  3  5  2  0
  9 12  2  0
 17 19  2  0
  2  1  1  0
  3  4  1  0
  4  1  2  0
  5  2  1  0
  6  1  1  0
  7  6  1  0
  8  2  1  0
  9  5  1  0
 33 27  1  0
 34 31  2  0
 35 34  1  0
 36 30  1  0
 37 30  2  0
 38 33  2  0
 39 33  1  0
 40 38  1  0
 41 39  2  0
 42 41  1  0
 43 34  1  0
 44 36  1  0
 45 36  1  0
 46 42  1  0
 26 28  2  0
 32 35  2  0
 40 42  2  0
 25 24  1  0
 26 27  1  0
 27 24  2  0
 28 25  1  0
 29 24  1  0
 30 29  1  0
 31 25  1  0
 32 28  1  0
 53 48  2  0
 54 51  1  0
 55 52  1  0
 53 47  1  0
 55 56  1  0
 54 55  1  0
 56 49  1  0
 53 54  1  0
 56 50  2  0
  6 57  1  0
  6 58  1  0
  8 59  1  0
  9 60  1  0
 12 61  1  0
 15 62  1  0
 16 63  1  0
 17 64  1  0
 18 65  1  0
 20 66  1  0
 20 67  1  0
 20 68  1  0
 21 69  1  0
 21 70  1  0
 21 71  1  0
 22 72  1  0
 22 73  1  0
 22 74  1  0
 23 75  1  0
 23 76  1  0
 23 77  1  0
 29 78  1  0
 29 79  1  0
 31 80  1  0
 32 81  1  0
 35 82  1  0
 38 83  1  0
 39 84  1  0
 40 85  1  0
 41 86  1  0
 43 87  1  0
 43 88  1  0
 43 89  1  0
 44 90  1  0
 44 91  1  0
 44 92  1  0
 45 93  1  0
 45 94  1  0
 45 95  1  0
 46 96  1  0
 46 97  1  0
 46 98  1  0
 47 99  1  0
 49100  1  0
 51101  1  0
 52102  1  0
 54103  1  1
 55104  1  1
M  END
> <Uni-Dock RESULT> 
ENERGY=   -7.306  LOWER_BOUND=    0.000  UPPER_BOUND=    0.000
INTER + INTRA:          -7.306
INTER:                  -7.306
INTRA:                   0.000
UNBOUND:                 0.000

$$$$

     RDKit          3D

104107  0  0  0  0  0  0  0  0999 V2000
   48.2235    9.4110   20.9858 C   0  0  0  0  0  0  0  0  0  0  0  0
   48.2269    8.0532   21.2624 N   0  0  0  0  0  0  0  0  0  0  0  0
   47.7559    8.2473   19.0803 N   0  0  0  0  0  0  0  0  0  0  0  0
   47.9188    9.4907   19.6363 C   0  0  0  0  0  0  0  0  0  0  0  0
   47.9284    7.4001   20.0693 C   0  0  0  0  0  0  0  0  0  0  0  0
   48.5166   10.4676   22.0016 C   0  0  0  0  0  0  0  0  0  0  0  0
   49.9982   10.5293   22.3800 C   0  0  0  0  0  0  0  0  0  0  0  0
   48.4518    7.3728   22.4632 C   0  0  0  0  0  0  0  0  0  0  0  0
   47.8553    5.9793   20.0991 C   0  0  0  0  0  0  0  0  0  0  0  0
   47.7859   10.6994   18.8498 C   0  0  0  0  0  0  0  0  0  0  0  0
   48.3805    6.0278   22.4940 C   0  0  0  0  0  0  0  0  0  0  0  0
   48.0691    5.3211   21.2543 C   0  0  0  0  0  0  0  0  0  0  0  0
   50.4108   11.6440   23.1119 N   0  0  0  0  0  0  0  0  0  0  0  0
   50.7844    9.6268   22.0890 O   0  0  0  0  0  0  0  0  0  0  0  0
   46.8682   11.6965   19.1999 C   0  0  0  0  0  0  0  0  0  0  0  0
   48.5597   10.8598   17.6973 C   0  0  0  0  0  0  0  0  0  0  0  0
   46.7419   12.8488   18.4184 C   0  0  0  0  0  0  0  0  0  0  0  0
   48.4371   12.0133   16.9178 C   0  0  0  0  0  0  0  0  0  0  0  0
   47.5196   13.0110   17.2670 C   0  0  0  0  0  0  0  0  0  0  0  0
   48.6127    5.2140   23.7273 C   0  0  0  0  0  0  0  0  0  0  0  0
   51.8271   11.8188   23.3948 C   0  0  0  0  0  0  0  0  0  0  0  0
   49.5439   12.7378   23.5347 C   0  0  0  0  0  0  0  0  0  0  0  0
   47.4079   14.2593   16.4448 C   0  0  0  0  0  0  0  0  0  0  0  0
   48.0140    9.7958   21.2057 C   0  0  0  0  0  0  0  0  0  0  0  0
   47.7342    8.4656   21.4902 N   0  0  0  0  0  0  0  0  0  0  0  0
   47.7498    8.6405   19.2572 N   0  0  0  0  0  0  0  0  0  0  0  0
   47.9334    9.8767   19.8227 C   0  0  0  0  0  0  0  0  0  0  0  0
   47.6265    7.8101   20.2665 C   0  0  0  0  0  0  0  0  0  0  0  0
   48.3195   10.8277   22.2463 C   0  0  0  0  0  0  0  0  0  0  0  0
   49.5453   10.4582   23.0808 C   0  0  0  0  0  0  0  0  0  0  0  0
   47.5725    7.8064   22.7107 C   0  0  0  0  0  0  0  0  0  0  0  0
   47.3929    6.4069   20.2873 C   0  0  0  0  0  0  0  0  0  0  0  0
   48.0774   11.0676   19.0059 C   0  0  0  0  0  0  0  0  0  0  0  0
   47.3363    6.4803   22.7338 C   0  0  0  0  0  0  0  0  0  0  0  0
   47.2579    5.7661   21.4629 C   0  0  0  0  0  0  0  0  0  0  0  0
   50.8161   10.6333   22.5417 N   0  0  0  0  0  0  0  0  0  0  0  0
   49.3810   10.0222   24.2250 O   0  0  0  0  0  0  0  0  0  0  0  0
   47.3774   12.2425   19.2992 C   0  0  0  0  0  0  0  0  0  0  0  0
   48.9099   11.0334   17.8796 C   0  0  0  0  0  0  0  0  0  0  0  0
   47.5326   13.3780   18.4978 C   0  0  0  0  0  0  0  0  0  0  0  0
   49.0679   12.1694   17.0797 C   0  0  0  0  0  0  0  0  0  0  0  0
   48.3878   13.3547   17.3905 C   0  0  0  0  0  0  0  0  0  0  0  0
   47.1520    5.6965   23.9934 C   0  0  0  0  0  0  0  0  0  0  0  0
   51.0680   10.9642   21.1497 C   0  0  0  0  0  0  0  0  0  0  0  0
   51.9485   10.1017   23.2843 C   0  0  0  0  0  0  0  0  0  0  0  0
   48.5378   14.5644   16.5148 C   0  0  0  0  0  0  0  0  0  0  0  0
   47.8575   10.6574   18.3509 O   0  0  0  0  0  0  0  0  0  0  0  0
   48.3940    8.6431   19.1491 O   0  0  0  0  0  0  0  0  0  0  0  0
   48.7879    8.2036   22.3053 O   0  0  0  0  0  0  0  0  0  0  0  0
   50.8292    8.8052   21.6159 O   0  0  0  0  0  0  0  0  0  0  0  0
   47.1665   11.7028   20.6678 O   0  0  0  0  0  0  0  0  0  0  0  0
   49.9770   11.3585   20.8924 O   0  0  0  0  0  0  0  0  0  0  0  0
   48.0313    9.7881   19.3696 C   0  0  0  0  0  0  0  0  0  0  0  0
   47.7549   10.3969   20.7441 C   0  0  1  0  0  0  0  0  0  0  0  0
   49.0519   10.4754   21.5482 C   0  0  1  0  0  0  0  0  0  0  0  0
   49.6549    9.0964   21.7934 C   0  0  0  0  0  0  0  0  0  0  0  0
   48.2226   11.4423   21.6016 H   0  0  0  0  0  0  0  0  0  0  0  0
   47.9312   10.2813   22.9083 H   0  0  0  0  0  0  0  0  0  0  0  0
   48.6904    7.9691   23.3342 H   0  0  0  0  0  0  0  0  0  0  0  0
   47.6278    5.4551   19.1787 H   0  0  0  0  0  0  0  0  0  0  0  0
   48.0186    4.2362   21.2791 H   0  0  0  0  0  0  0  0  0  0  0  0
   46.2348   11.5756   20.0751 H   0  0  0  0  0  0  0  0  0  0  0  0
   49.2651   10.0849   17.4031 H   0  0  0  0  0  0  0  0  0  0  0  0
   46.0227   13.6115   18.7083 H   0  0  0  0  0  0  0  0  0  0  0  0
   49.0550   12.1183   16.0284 H   0  0  0  0  0  0  0  0  0  0  0  0
   49.4432    4.5167   23.5759 H   0  0  0  0  0  0  0  0  0  0  0  0
   48.8576    5.8457   24.5876 H   0  0  0  0  0  0  0  0  0  0  0  0
   47.7177    4.6383   23.9822 H   0  0  0  0  0  0  0  0  0  0  0  0
   52.1626   12.7580   22.9382 H   0  0  0  0  0  0  0  0  0  0  0  0
   52.4367   10.9959   23.0054 H   0  0  0  0  0  0  0  0  0  0  0  0
   51.9653   11.8743   24.4802 H   0  0  0  0  0  0  0  0  0  0  0  0
   49.7971   13.0160   24.5635 H   0  0  0  0  0  0  0  0  0  0  0  0
   49.7170   13.5925   22.8736 H   0  0  0  0  0  0  0  0  0  0  0  0
   48.4882   12.4664   23.5057 H   0  0  0  0  0  0  0  0  0  0  0  0
   47.6180   14.0526   15.3907 H   0  0  0  0  0  0  0  0  0  0  0  0
   48.1181   15.0069   16.8091 H   0  0  0  0  0  0  0  0  0  0  0  0
   46.3982   14.6775   16.4979 H   0  0  0  0  0  0  0  0  0  0  0  0
   48.4719   11.8234   21.8237 H   0  0  0  0  0  0  0  0  0  0  0  0
   47.4623   10.9256   22.9249 H   0  0  0  0  0  0  0  0  0  0  0  0
   47.6407    8.3954   23.6143 H   0  0  0  0  0  0  0  0  0  0  0  0
   47.3272    5.8816   19.3407 H   0  0  0  0  0  0  0  0  0  0  0  0
   47.0820    4.6926   21.4816 H   0  0  0  0  0  0  0  0  0  0  0  0
   46.6883   12.2792   20.1401 H   0  0  0  0  0  0  0  0  0  0  0  0
   49.4304   10.1146   17.6200 H   0  0  0  0  0  0  0  0  0  0  0  0
   46.9696   14.2770   18.7377 H   0  0  0  0  0  0  0  0  0  0  0  0
   49.7169   12.1196   16.2065 H   0  0  0  0  0  0  0  0  0  0  0  0
   47.2086    6.3353   24.8814 H   0  0  0  0  0  0  0  0  0  0  0  0
   46.1713    5.2092   24.0011 H   0  0  0  0  0  0  0  0  0  0  0  0
   47.9251    4.9250   24.0863 H   0  0  0  0  0  0  0  0  0  0  0  0
   50.3322   11.6746   20.7738 H   0  0  0  0  0  0  0  0  0  0  0  0
   51.0406   10.0458   20.5554 H   0  0  0  0  0  0  0  0  0  0  0  0
   52.0544   11.4294   21.0574 H   0  0  0  0  0  0  0  0  0  0  0  0
   52.1754    9.0987   22.9032 H   0  0  0  0  0  0  0  0  0  0  0  0
   52.8177   10.7522   23.1433 H   0  0  0  0  0  0  0  0  0  0  0  0
   51.7329   10.0365   24.3551 H   0  0  0  0  0  0  0  0  0  0  0  0
   48.0421   14.3972   15.5523 H   0  0  0  0  0  0  0  0  0  0  0  0
   49.5967   14.7784   16.3408 H   0  0  0  0  0  0  0  0  0  0  0  0
   48.0932   15.4500   16.9806 H   0  0  0  0  0  0  0  0  0  0  0  0
   48.0523   10.1363   17.5437 H   0  0  0  0  0  0  0  0  0  0  0  0
   49.2980    7.3669   22.3669 H   0  0  0  0  0  0  0  0  0  0  0  0
   47.7857   12.2249   20.1162 H   0  0  0  0  0  0  0  0  0  0  0  0
   50.8715   11.0813   21.1776 H   0  0  0  0  0  0  0  0  0  0  0  0
   47.0140    9.7543   21.2339 H   0  0  0  0  0  0  0  0  0  0  0  0
   48.8540   10.9248   22.5283 H   0  0  0  0  0  0  0  0  0  0  0  0
 10  4  1  0
 11  8  2  0
 12 11  1  0
 13  7  1  0
 14  7  2  0
 15 10  2  0
 16 10  1  0
 17 15  1  0
 18 16  2  0
 19 18  1  0
 20 11  1  0
 21 13  1  0
 22 13  1  0
 23 19  1  0
  3  5  2  0
  9 12  2  0
 17 19  2  0
  2  1  1  0
  3  4  1  0
  4  1  2  0
  5  2  1  0
  6  1  1  0
  7  6  1  0
  8  2  1  0
  9  5  1  0
 33 27  1  0
 34 31  2  0
 35 34  1  0
 36 30  1  0
 37 30  2  0
 38 33  2  0
 39 33  1  0
 40 38  1  0
 41 39  2  0
 42 41  1  0
 43 34  1  0
 44 36  1  0
 45 36  1  0
 46 42  1  0
 26 28  2  0
 32 35  2  0
 40 42  2  0
 25 24  1  0
 26 27  1  0
 27 24  2  0
 28 25  1  0
 29 24  1  0
 30 29  1  0
 31 25  1  0
 32 28  1  0
 53 48  2  0
 54 51  1  0
 55 52  1  0
 53 47  1  0
 55 56  1  0
 54 55  1  0
 56 49  1  0
 53 54  1  0
 56 50  2  0
  6 57  1  0
  6 58  1  0
  8 59  1  0
  9 60  1  0
 12 61  1  0
 15 62  1  0
 16 63  1  0
 17 64  1  0
 18 65  1  0
 20 66  1  0
 20 67  1  0
 20 68  1  0
 21 69  1  0
 21 70  1  0
 21 71  1  0
 22 72  1  0
 22 73  1  0
 22 74  1  0
 23 75  1  0
 23 76  1  0
 23 77  1  0
 29 78  1  0
 29 79  1  0
 31 80  1  0
 32 81  1  0
 35 82  1  0
 38 83  1  0
 39 84  1  0
 40 85  1  0
 41 86  1  0
 43 87  1  0
 43 88  1  0
 43 89  1  0
 44 90  1  0
 44 91  1  0
 44 92  1  0
 45 93  1  0
 45 94  1  0
 45 95  1  0
 46 96  1  0
 46 97  1  0
 46 98  1  0
 47 99  1  0
 49100  1  0
 51101  1  0
 52102  1  0
 54103  1  1
 55104  1  1
M  END
> <Uni-Dock RESULT> 
ENERGY=   -7.278  LOWER_BOUND=    6.103  UPPER_BOUND=    8.726
INTER + INTRA:          -7.278
INTER:                  -7.278
INTRA:                   0.000
UNBOUND:                 0.000

$$$$

     RDKit          3D

104107  0  0  0  0  0  0  0  0999 V2000
   49.0614    9.4690   19.2551 C   0  0  0  0  0  0  0  0  0  0  0  0
   48.5516   10.6351   19.8033 N   0  0  0  0  0  0  0  0  0  0  0  0
   46.7824    9.3702   19.2638 N   0  0  0  0  0  0  0  0  0  0  0  0
   47.9424    8.7211   18.9252 C   0  0  0  0  0  0  0  0  0  0  0  0
   47.1643   10.5192   19.7735 C   0  0  0  0  0  0  0  0  0  0  0  0
   50.5221    9.1842   19.1166 C   0  0  0  0  0  0  0  0  0  0  0  0
   51.1929    8.8698   20.4559 C   0  0  0  0  0  0  0  0  0  0  0  0
   49.2072   11.7671   20.2975 C   0  0  0  0  0  0  0  0  0  0  0  0
   46.4033   11.6128   20.2733 C   0  0  0  0  0  0  0  0  0  0  0  0
   47.9292    7.4099   18.3105 C   0  0  0  0  0  0  0  0  0  0  0  0
   48.4884   12.8045   20.7688 C   0  0  0  0  0  0  0  0  0  0  0  0
   47.0313   12.7053   20.7477 C   0  0  0  0  0  0  0  0  0  0  0  0
   52.4814    8.3363   20.3999 N   0  0  0  0  0  0  0  0  0  0  0  0
   50.6438    9.1077   21.5327 O   0  0  0  0  0  0  0  0  0  0  0  0
   48.5479    7.1801   17.0763 C   0  0  0  0  0  0  0  0  0  0  0  0
   47.2540    6.3608   18.9401 C   0  0  0  0  0  0  0  0  0  0  0  0
   48.5097    5.9114   16.4902 C   0  0  0  0  0  0  0  0  0  0  0  0
   47.2189    5.0912   18.3570 C   0  0  0  0  0  0  0  0  0  0  0  0
   47.8373    4.8603   17.1228 C   0  0  0  0  0  0  0  0  0  0  0  0
   49.0998   14.0519   21.3232 C   0  0  0  0  0  0  0  0  0  0  0  0
   53.1213    7.9039   21.6329 C   0  0  0  0  0  0  0  0  0  0  0  0
   53.2229    8.0606   19.1749 C   0  0  0  0  0  0  0  0  0  0  0  0
   47.8213    3.4919   16.5112 C   0  0  0  0  0  0  0  0  0  0  0  0
   49.4011    9.3821   18.9126 C   0  0  0  0  0  0  0  0  0  0  0  0
   48.8496   10.6259   19.1903 N   0  0  0  0  0  0  0  0  0  0  0  0
   47.1372    9.1847   19.1039 N   0  0  0  0  0  0  0  0  0  0  0  0
   48.3057    8.5396   18.7872 C   0  0  0  0  0  0  0  0  0  0  0  0
   47.4787   10.4309   19.3359 C   0  0  0  0  0  0  0  0  0  0  0  0
   50.8715    9.1259   18.7957 C   0  0  0  0  0  0  0  0  0  0  0  0
   51.6215    9.4823   20.0787 C   0  0  0  0  0  0  0  0  0  0  0  0
   49.4464   11.8817   19.3217 C   0  0  0  0  0  0  0  0  0  0  0  0
   46.6841   11.5593   19.6814 C   0  0  0  0  0  0  0  0  0  0  0  0
   48.3200    7.1322   18.4331 C   0  0  0  0  0  0  0  0  0  0  0  0
   48.6948   12.9552   19.6342 C   0  0  0  0  0  0  0  0  0  0  0  0
   47.2604   12.7662   19.8294 C   0  0  0  0  0  0  0  0  0  0  0  0
   51.5626    8.6168   21.1666 N   0  0  0  0  0  0  0  0  0  0  0  0
   52.2766   10.5290   20.1177 O   0  0  0  0  0  0  0  0  0  0  0  0
   49.0375    6.6655   17.3269 C   0  0  0  0  0  0  0  0  0  0  0  0
   47.5739    6.2232   19.1946 C   0  0  0  0  0  0  0  0  0  0  0  0
   49.0368    5.3045   17.0054 C   0  0  0  0  0  0  0  0  0  0  0  0
   47.5754    4.8617   18.8755 C   0  0  0  0  0  0  0  0  0  0  0  0
   48.3172    4.3909   17.7836 C   0  0  0  0  0  0  0  0  0  0  0  0
   49.2509   14.3335   19.7952 C   0  0  0  0  0  0  0  0  0  0  0  0
   50.6692    7.4740   21.2465 C   0  0  0  0  0  0  0  0  0  0  0  0
   52.1296    9.0705   22.4273 C   0  0  0  0  0  0  0  0  0  0  0  0
   48.2952    2.9333   17.4267 C   0  0  0  0  0  0  0  0  0  0  0  0
   47.5179    7.1254   18.3860 O   0  0  0  0  0  0  0  0  0  0  0  0
   47.1946    8.9064   19.6921 O   0  0  0  0  0  0  0  0  0  0  0  0
   49.6037   10.9484   20.2722 O   0  0  0  0  0  0  0  0  0  0  0  0
   49.8256    9.4243   21.8947 O   0  0  0  0  0  0  0  0  0  0  0  0
   49.8081    7.9357   17.3677 O   0  0  0  0  0  0  0  0  0  0  0  0
   50.4306    7.3925   20.0853 O   0  0  0  0  0  0  0  0  0  0  0  0
   47.9122    8.3076   18.9061 C   0  0  0  0  0  0  0  0  0  0  0  0
   49.2944    8.7526   18.4289 C   0  0  1  0  0  0  0  0  0  0  0  0
   50.2781    8.7360   19.5981 C   0  0  1  0  0  0  0  0  0  0  0  0
   49.8652    9.7010   20.7043 C   0  0  0  0  0  0  0  0  0  0  0  0
   50.6597    8.3256   18.4529 H   0  0  0  0  0  0  0  0  0  0  0  0
   51.0259   10.0462   18.6667 H   0  0  0  0  0  0  0  0  0  0  0  0
   50.2894   11.7563   20.2906 H   0  0  0  0  0  0  0  0  0  0  0  0
   45.3226   11.5376   20.2609 H   0  0  0  0  0  0  0  0  0  0  0  0
   46.4531   13.5399   21.1344 H   0  0  0  0  0  0  0  0  0  0  0  0
   49.0508    7.9912   16.5558 H   0  0  0  0  0  0  0  0  0  0  0  0
   46.7535    6.5291   19.8918 H   0  0  0  0  0  0  0  0  0  0  0  0
   48.9970    5.7542   15.5307 H   0  0  0  0  0  0  0  0  0  0  0  0
   46.6924    4.2887   18.8694 H   0  0  0  0  0  0  0  0  0  0  0  0
   48.7849   14.2049   22.3607 H   0  0  0  0  0  0  0  0  0  0  0  0
   50.1938   14.0066   21.3079 H   0  0  0  0  0  0  0  0  0  0  0  0
   48.7953   14.9234   20.7356 H   0  0  0  0  0  0  0  0  0  0  0  0
   53.3342    6.8304   21.5598 H   0  0  0  0  0  0  0  0  0  0  0  0
   52.4963    8.0837   22.5146 H   0  0  0  0  0  0  0  0  0  0  0  0
   54.0622    8.4522   21.7525 H   0  0  0  0  0  0  0  0  0  0  0  0
   54.2640    8.3729   19.3103 H   0  0  0  0  0  0  0  0  0  0  0  0
   53.1880    6.9836   18.9836 H   0  0  0  0  0  0  0  0  0  0  0  0
   52.8170    8.5937   18.3146 H   0  0  0  0  0  0  0  0  0  0  0  0
   46.9017    2.9587   16.7716 H   0  0  0  0  0  0  0  0  0  0  0  0
   48.6797    2.9166   16.8695 H   0  0  0  0  0  0  0  0  0  0  0  0
   47.8655    3.5473   15.4193 H   0  0  0  0  0  0  0  0  0  0  0  0
   51.1016    8.0909   18.5327 H   0  0  0  0  0  0  0  0  0  0  0  0
   51.2835    9.7340   17.9801 H   0  0  0  0  0  0  0  0  0  0  0  0
   50.5131   11.9518   19.1620 H   0  0  0  0  0  0  0  0  0  0  0  0
   45.6176   11.4160   19.8175 H   0  0  0  0  0  0  0  0  0  0  0  0
   46.6554   13.6302   20.0963 H   0  0  0  0  0  0  0  0  0  0  0  0
   49.5854    7.3583   16.6920 H   0  0  0  0  0  0  0  0  0  0  0  0
   46.9823    6.5793   20.0346 H   0  0  0  0  0  0  0  0  0  0  0  0
   49.5922    4.9654   16.1340 H   0  0  0  0  0  0  0  0  0  0  0  0
   46.9852    4.1730   19.4783 H   0  0  0  0  0  0  0  0  0  0  0  0
   50.3292   14.3615   19.6047 H   0  0  0  0  0  0  0  0  0  0  0  0
   48.7747   15.0232   19.0903 H   0  0  0  0  0  0  0  0  0  0  0  0
   49.0811   14.7034   20.8130 H   0  0  0  0  0  0  0  0  0  0  0  0
   50.5848    6.9715   20.2832 H   0  0  0  0  0  0  0  0  0  0  0  0
   49.6842    7.8153   21.5792 H   0  0  0  0  0  0  0  0  0  0  0  0
   51.0661    6.7493   21.9642 H   0  0  0  0  0  0  0  0  0  0  0  0
   51.3284    9.5150   23.0300 H   0  0  0  0  0  0  0  0  0  0  0  0
   52.5611    8.2188   22.9630 H   0  0  0  0  0  0  0  0  0  0  0  0
   52.9144    9.8166   22.2705 H   0  0  0  0  0  0  0  0  0  0  0  0
   47.3137    2.6578   17.0254 H   0  0  0  0  0  0  0  0  0  0  0  0
   48.5061    2.3227   18.3099 H   0  0  0  0  0  0  0  0  0  0  0  0
   49.0529    2.6972   16.6723 H   0  0  0  0  0  0  0  0  0  0  0  0
   46.6248    6.9745   18.7612 H   0  0  0  0  0  0  0  0  0  0  0  0
   49.3146   11.4352   21.0745 H   0  0  0  0  0  0  0  0  0  0  0  0
   49.7814    7.0216   17.7196 H   0  0  0  0  0  0  0  0  0  0  0  0
   50.7113    7.4687   21.0199 H   0  0  0  0  0  0  0  0  0  0  0  0
   49.1785    9.7600   18.0125 H   0  0  0  0  0  0  0  0  0  0  0  0
   51.2719    9.0422   19.2510 H   0  0  0  0  0  0  0  0  0  0  0  0
 10  4  1  0
 11  8  2  0
 12 11  1  0
 13  7  1  0
 14  7  2  0
 15 10  2  0
 16 10  1  0
 17 15  1  0
 18 16  2  0
 19 18  1  0
 20 11  1  0
 21 13  1  0
 22 13  1  0
 23 19  1  0
  3  5  2  0
  9 12  2  0
 17 19  2  0
  2  1  1  0
  3  4  1  0
  4  1  2  0
  5  2  1  0
  6  1  1  0
  7  6  1  0
  8  2  1  0
  9  5  1  0
 33 27  1  0
 34 31  2  0
 35 34  1  0
 36 30  1  0
 37 30  2  0
 38 33  2  0
 39 33  1  0
 40 38  1  0
 41 39  2  0
 42 41  1  0
 43 34  1  0
 44 36  1  0
 45 36  1  0
 46 42  1  0
 26 28  2  0
 32 35  2  0
 40 42  2  0
 25 24  1  0
 26 27  1  0
 27 24  2  0
 28 25  1  0
 29 24  1  0
 30 29  1  0
 31 25  1  0
 32 28  1  0
 53 48  2  0
 54 51  1  0
 55 52  1  0
 53 47  1  0
 55 56  1  0
 54 55  1  0
 56 49  1  0
 53 54  1  0
 56 50  2  0
  6 57  1  0
  6 58  1  0
  8 59  1  0
  9 60  1  0
 12 61  1  0
 15 62  1  0
 16 63  1  0
 17 64  1  0
 18 65  1  0
 20 66  1  0
 20 67  1  0
 20 68  1  0
 21 69  1  0
 21 70  1  0
 21 71  1  0
 22 72  1  0
 22 73  1  0
 22 74  1  0
 23 75  1  0
 23 76  1  0
 23 77  1  0
 29 78  1  0
 29 79  1  0
 31 80  1  0
 32 81  1  0
 35 82  1  0
 38 83  1  0
 39 84  1  0
 40 85  1  0
 41 86  1  0
 43 87  1  0
 43 88  1  0
 43 89  1  0
 44 90  1  0
 44 91  1  0
 44 92  1  0
 45 93  1  0
 45 94  1  0
 45 95  1  0
 46 96  1  0
 46 97  1  0
 46 98  1  0
 47 99  1  0
 49100  1  0
 51101  1  0
 52102  1  0
 54103  1  1
 55104  1  1
M  END
> <Uni-Dock RESULT> 
ENERGY=   -6.980  LOWER_BOUND=    4.802  UPPER_BOUND=    7.032
INTER + INTRA:          -6.980
INTER:                  -6.980
INTRA:                   0.000
UNBOUND:                 0.000

$$$$

     RDKit          3D

104107  0  0  0  0  0  0  0  0999 V2000
   48.6263   12.0520   17.6760 C   0  0  0  0  0  0  0  0  0  0  0  0
   47.9546   11.3392   18.6562 N   0  0  0  0  0  0  0  0  0  0  0  0
   46.7437   13.1876   18.2841 N   0  0  0  0  0  0  0  0  0  0  0  0
   47.8566   13.1880   17.4822 C   0  0  0  0  0  0  0  0  0  0  0  0
   46.8257   12.0829   18.9903 C   0  0  0  0  0  0  0  0  0  0  0  0
   49.8910   11.5873   17.0288 C   0  0  0  0  0  0  0  0  0  0  0  0
   49.6661   10.4266   16.0570 C   0  0  0  0  0  0  0  0  0  0  0  0
   48.2694   10.1225   19.2693 C   0  0  0  0  0  0  0  0  0  0  0  0
   45.9714   11.5610   20.0015 C   0  0  0  0  0  0  0  0  0  0  0  0
   48.1291   14.2700   16.5590 C   0  0  0  0  0  0  0  0  0  0  0  0
   47.4631    9.6280   20.2287 C   0  0  0  0  0  0  0  0  0  0  0  0
   46.2728   10.3908   20.5956 C   0  0  0  0  0  0  0  0  0  0  0  0
   50.7300   10.1019   15.2139 N   0  0  0  0  0  0  0  0  0  0  0  0
   48.6155    9.7835   16.0402 O   0  0  0  0  0  0  0  0  0  0  0  0
   49.3267   14.9918   16.6191 C   0  0  0  0  0  0  0  0  0  0  0  0
   47.1643   14.6280   15.6135 C   0  0  0  0  0  0  0  0  0  0  0  0
   49.5644   16.0445   15.7305 C   0  0  0  0  0  0  0  0  0  0  0  0
   47.4030   15.6775   14.7220 C   0  0  0  0  0  0  0  0  0  0  0  0
   48.6002   16.4001   14.7813 C   0  0  0  0  0  0  0  0  0  0  0  0
   47.7132    8.3333   20.9346 C   0  0  0  0  0  0  0  0  0  0  0  0
   50.5342    9.0903   14.1866 C   0  0  0  0  0  0  0  0  0  0  0  0
   52.0209   10.7798   15.1927 C   0  0  0  0  0  0  0  0  0  0  0  0
   48.8657   17.5082   13.8074 C   0  0  0  0  0  0  0  0  0  0  0  0
   49.0956   12.1826   17.6208 C   0  0  0  0  0  0  0  0  0  0  0  0
   48.5470   11.6524   18.7812 N   0  0  0  0  0  0  0  0  0  0  0  0
   47.1168   13.2230   18.0709 N   0  0  0  0  0  0  0  0  0  0  0  0
   48.2244   13.2013   17.2619 C   0  0  0  0  0  0  0  0  0  0  0  0
   47.3280   12.2964   18.9765 C   0  0  0  0  0  0  0  0  0  0  0  0
   50.3573   11.6838   16.9880 C   0  0  0  0  0  0  0  0  0  0  0  0
   50.2631   10.2081   16.6019 C   0  0  0  0  0  0  0  0  0  0  0  0
   49.0257   10.6727   19.6538 C   0  0  0  0  0  0  0  0  0  0  0  0
   46.5355   11.8880   20.0850 C   0  0  0  0  0  0  0  0  0  0  0  0
   48.3667   14.1235   16.1504 C   0  0  0  0  0  0  0  0  0  0  0  0
   48.2844   10.2940   20.7130 C   0  0  0  0  0  0  0  0  0  0  0  0
   46.9854   10.9290   20.9150 C   0  0  0  0  0  0  0  0  0  0  0  0
   49.5538    9.8449   15.4613 N   0  0  0  0  0  0  0  0  0  0  0  0
   50.8317    9.3677   17.3068 O   0  0  0  0  0  0  0  0  0  0  0  0
   49.5609   14.8160   15.9252 C   0  0  0  0  0  0  0  0  0  0  0  0
   47.2759   14.3520   15.3014 C   0  0  0  0  0  0  0  0  0  0  0  0
   49.6747   15.6994   14.8471 C   0  0  0  0  0  0  0  0  0  0  0  0
   47.3901   15.2328   14.2214 C   0  0  0  0  0  0  0  0  0  0  0  0
   48.5959   15.9049   13.9800 C   0  0  0  0  0  0  0  0  0  0  0  0
   48.7190    9.2539   21.6950 C   0  0  0  0  0  0  0  0  0  0  0  0
   48.7171   10.7578   14.7015 C   0  0  0  0  0  0  0  0  0  0  0  0
   49.3267    8.4274   15.2249 C   0  0  0  0  0  0  0  0  0  0  0  0
   48.7075   16.8705   12.8364 C   0  0  0  0  0  0  0  0  0  0  0  0
   47.7340   14.5469   16.4074 O   0  0  0  0  0  0  0  0  0  0  0  0
   46.8161   12.8939   17.5936 O   0  0  0  0  0  0  0  0  0  0  0  0
   48.5686   10.3392   18.4376 O   0  0  0  0  0  0  0  0  0  0  0  0
   47.7535    9.7594   16.4366 O   0  0  0  0  0  0  0  0  0  0  0  0
   50.2345   13.8128   16.7904 O   0  0  0  0  0  0  0  0  0  0  0  0
   49.1762   11.7674   15.1279 O   0  0  0  0  0  0  0  0  0  0  0  0
   47.8220   13.4129   17.1351 C   0  0  0  0  0  0  0  0  0  0  0  0
   49.2509   12.8893   17.2773 C   0  0  1  0  0  0  0  0  0  0  0  0
   49.3947   11.5623   16.5335 C   0  0  1  0  0  0  0  0  0  0  0  0
   48.4758   10.4869   17.1032 C   0  0  0  0  0  0  0  0  0  0  0  0
   50.3378   12.4182   16.4751 H   0  0  0  0  0  0  0  0  0  0  0  0
   50.6035   11.2679   17.7966 H   0  0  0  0  0  0  0  0  0  0  0  0
   49.1620    9.6127   18.9308 H   0  0  0  0  0  0  0  0  0  0  0  0
   45.0866   12.1252   20.2710 H   0  0  0  0  0  0  0  0  0  0  0  0
   45.6200    9.9874   21.3646 H   0  0  0  0  0  0  0  0  0  0  0  0
   50.0760   14.7490   17.3683 H   0  0  0  0  0  0  0  0  0  0  0  0
   46.2212   14.0869   15.5665 H   0  0  0  0  0  0  0  0  0  0  0  0
   50.5017   16.5925   15.7941 H   0  0  0  0  0  0  0  0  0  0  0  0
   46.6392   15.9335   13.9905 H   0  0  0  0  0  0  0  0  0  0  0  0
   46.8732    7.6469   20.7859 H   0  0  0  0  0  0  0  0  0  0  0  0
   48.6186    7.8403   20.5653 H   0  0  0  0  0  0  0  0  0  0  0  0
   47.8402    8.4993   22.0088 H   0  0  0  0  0  0  0  0  0  0  0  0
   50.6969    9.5515   13.2048 H   0  0  0  0  0  0  0  0  0  0  0  0
   49.5291    8.6552   14.2135 H   0  0  0  0  0  0  0  0  0  0  0  0
   51.2669    8.2898   14.3365 H   0  0  0  0  0  0  0  0  0  0  0  0
   52.8152   10.0314   15.0986 H   0  0  0  0  0  0  0  0  0  0  0  0
   52.0469   11.4488   14.3270 H   0  0  0  0  0  0  0  0  0  0  0  0
   52.2025   11.3563   16.1004 H   0  0  0  0  0  0  0  0  0  0  0  0
   47.9355   18.0112   13.5253 H   0  0  0  0  0  0  0  0  0  0  0  0
   49.3389   17.1046   12.9079 H   0  0  0  0  0  0  0  0  0  0  0  0
   49.5247   18.2659   14.2422 H   0  0  0  0  0  0  0  0  0  0  0  0
   50.6439   12.2584   16.1042 H   0  0  0  0  0  0  0  0  0  0  0  0
   51.1893   11.7986   17.6947 H   0  0  0  0  0  0  0  0  0  0  0  0
   49.9963   10.2447   19.4471 H   0  0  0  0  0  0  0  0  0  0  0  0
   45.5747   12.3681   20.2360 H   0  0  0  0  0  0  0  0  0  0  0  0
   46.3800   10.6129   21.7619 H   0  0  0  0  0  0  0  0  0  0  0  0
   50.4062   14.6921   16.5985 H   0  0  0  0  0  0  0  0  0  0  0  0
   46.3307   13.8478   15.4883 H   0  0  0  0  0  0  0  0  0  0  0  0
   50.6088   16.2360   14.6979 H   0  0  0  0  0  0  0  0  0  0  0  0
   46.5284   15.3987   13.5763 H   0  0  0  0  0  0  0  0  0  0  0  0
   49.7145    8.8629   21.4589 H   0  0  0  0  0  0  0  0  0  0  0  0
   48.7623    9.6752   22.7049 H   0  0  0  0  0  0  0  0  0  0  0  0
   48.0201    8.4093   21.6996 H   0  0  0  0  0  0  0  0  0  0  0  0
   49.1694   11.7471   14.6383 H   0  0  0  0  0  0  0  0  0  0  0  0
   47.7359   10.8236   15.1814 H   0  0  0  0  0  0  0  0  0  0  0  0
   48.5996   10.3817   13.6804 H   0  0  0  0  0  0  0  0  0  0  0  0
   48.3485    8.1570   15.6404 H   0  0  0  0  0  0  0  0  0  0  0  0
   49.3346    8.2292   14.1483 H   0  0  0  0  0  0  0  0  0  0  0  0
   50.0980    7.8118   15.6975 H   0  0  0  0  0  0  0  0  0  0  0  0
   48.1150   17.7688   13.0418 H   0  0  0  0  0  0  0  0  0  0  0  0
   48.3488   16.4076   11.9121 H   0  0  0  0  0  0  0  0  0  0  0  0
   49.7465   17.1747   12.6728 H   0  0  0  0  0  0  0  0  0  0  0  0
   46.7796   14.7711   16.4110 H   0  0  0  0  0  0  0  0  0  0  0  0
   47.9000    9.6554   18.6603 H   0  0  0  0  0  0  0  0  0  0  0  0
   49.9671   13.9999   15.8665 H   0  0  0  0  0  0  0  0  0  0  0  0
   48.8801   10.9071   14.7668 H   0  0  0  0  0  0  0  0  0  0  0  0
   49.4426   12.7739   18.3505 H   0  0  0  0  0  0  0  0  0  0  0  0
   50.4237   11.1953   16.6252 H   0  0  0  0  0  0  0  0  0  0  0  0
 10  4  1  0
 11  8  2  0
 12 11  1  0
 13  7  1  0
 14  7  2  0
 15 10  2  0
 16 10  1  0
 17 15  1  0
 18 16  2  0
 19 18  1  0
 20 11  1  0
 21 13  1  0
 22 13  1  0
 23 19  1  0
  3  5  2  0
  9 12  2  0
 17 19  2  0
  2  1  1  0
  3  4  1  0
  4  1  2  0
  5  2  1  0
  6  1  1  0
  7  6  1  0
  8  2  1  0
  9  5  1  0
 33 27  1  0
 34 31  2  0
 35 34  1  0
 36 30  1  0
 37 30  2  0
 38 33  2  0
 39 33  1  0
 40 38  1  0
 41 39  2  0
 42 41  1  0
 43 34  1  0
 44 36  1  0
 45 36  1  0
 46 42  1  0
 26 28  2  0
 32 35  2  0
 40 42  2  0
 25 24  1  0
 26 27  1  0
 27 24  2  0
 28 25  1  0
 29 24  1  0
 30 29  1  0
 31 25  1  0
 32 28  1  0
 53 48  2  0
 54 51  1  0
 55 52  1  0
 53 47  1  0
 55 56  1  0
 54 55  1  0
 56 49  1  0
 53 54  1  0
 56 50  2  0
  6 57  1  0
  6 58  1  0
  8 59  1  0
  9 60  1  0
 12 61  1  0
 15 62  1  0
 16 63  1  0
 17 64  1  0
 18 65  1  0
 20 66  1  0
 20 67  1  0
 20 68  1  0
 21 69  1  0
 21 70  1  0
 21 71  1  0
 22 72  1  0
 22 73  1  0
 22 74  1  0
 23 75  1  0
 23 76  1  0
 23 77  1  0
 29 78  1  0
 29 79  1  0
 31 80  1  0
 32 81  1  0
 35 82  1  0
 38 83  1  0
 39 84  1  0
 40 85  1  0
 41 86  1  0
 43 87  1  0
 43 88  1  0
 43 89  1  0
 44 90  1  0
 44 91  1  0
 44 92  1  0
 45 93  1  0
 45 94  1  0
 45 95  1  0
 46 96  1  0
 46 97  1  0
 46 98  1  0
 47 99  1  0
 49100  1  0
 51101  1  0
 52102  1  0
 54103  1  1
 55104  1  1
M  END
> <Uni-Dock RESULT> 
ENERGY=   -6.830  LOWER_BOUND=    3.498  UPPER_BOUND=    8.048
INTER + INTRA:          -6.830
INTER:                  -6.830
INTRA:                   0.000
UNBOUND:                 0.000

$$$$

     RDKit          3D

104107  0  0  0  0  0  0  0  0999 V2000
   44.4543   12.0489   10.9187 C   0  0  0  0  0  0  0  0  0  0  0  0
   45.7350   11.5374   11.0542 N   0  0  0  0  0  0  0  0  0  0  0  0
   44.3656   10.0724   12.0540 N   0  0  0  0  0  0  0  0  0  0  0  0
   43.6412   11.1254   11.5561 C   0  0  0  0  0  0  0  0  0  0  0  0
   45.6169   10.3420   11.7586 C   0  0  0  0  0  0  0  0  0  0  0  0
   44.1388   13.3230   10.2035 C   0  0  0  0  0  0  0  0  0  0  0  0
   44.2690   13.1959    8.6839 C   0  0  0  0  0  0  0  0  0  0  0  0
   46.9650   12.0467   10.6263 C   0  0  0  0  0  0  0  0  0  0  0  0
   46.8136    9.6264   12.0426 C   0  0  0  0  0  0  0  0  0  0  0  0
   42.2022   11.1965   11.7033 C   0  0  0  0  0  0  0  0  0  0  0  0
   48.0994   11.3718   10.8963 C   0  0  0  0  0  0  0  0  0  0  0  0
   48.0000   10.1151   11.6340 C   0  0  0  0  0  0  0  0  0  0  0  0
   43.7445   14.2411    7.9218 N   0  0  0  0  0  0  0  0  0  0  0  0
   44.8395   12.2407    8.1552 O   0  0  0  0  0  0  0  0  0  0  0  0
   41.5889   12.2894   12.3264 C   0  0  0  0  0  0  0  0  0  0  0  0
   41.4104   10.1380   11.2499 C   0  0  0  0  0  0  0  0  0  0  0  0
   40.1995   12.3320   12.4747 C   0  0  0  0  0  0  0  0  0  0  0  0
   40.0210   10.1818   11.3940 C   0  0  0  0  0  0  0  0  0  0  0  0
   39.4067   11.2742   12.0171 C   0  0  0  0  0  0  0  0  0  0  0  0
   49.4580   11.8329   10.4738 C   0  0  0  0  0  0  0  0  0  0  0  0
   43.7289   14.1198    6.4721 C   0  0  0  0  0  0  0  0  0  0  0  0
   43.0905   15.4273    8.4620 C   0  0  0  0  0  0  0  0  0  0  0  0
   37.9145   11.3319   12.1474 C   0  0  0  0  0  0  0  0  0  0  0  0
   44.2620   12.4926   10.9990 C   0  0  0  0  0  0  0  0  0  0  0  0
   45.5298   12.0895   11.3973 N   0  0  0  0  0  0  0  0  0  0  0  0
   44.1383   10.4240   11.9510 N   0  0  0  0  0  0  0  0  0  0  0  0
   43.4247   11.4743   11.4321 C   0  0  0  0  0  0  0  0  0  0  0  0
   45.3929   10.8099   11.9289 C   0  0  0  0  0  0  0  0  0  0  0  0
   43.9806   13.7691   10.2693 C   0  0  0  0  0  0  0  0  0  0  0  0
   44.7282   13.8482    8.9387 C   0  0  0  0  0  0  0  0  0  0  0  0
   46.7611   12.7450   11.3285 C   0  0  0  0  0  0  0  0  0  0  0  0
   46.5732   10.1463   12.3652 C   0  0  0  0  0  0  0  0  0  0  0  0
   41.9781   11.4265   11.3268 C   0  0  0  0  0  0  0  0  0  0  0  0
   47.8788   12.1252   11.7545 C   0  0  0  0  0  0  0  0  0  0  0  0
   47.7636   10.7680   12.2800 C   0  0  0  0  0  0  0  0  0  0  0  0
   44.2565   13.1262    7.8467 N   0  0  0  0  0  0  0  0  0  0  0  0
   45.7318   14.5642    8.8578 O   0  0  0  0  0  0  0  0  0  0  0  0
   41.1812   12.5029   11.7303 C   0  0  0  0  0  0  0  0  0  0  0  0
   41.3612   10.2662   10.8411 C   0  0  0  0  0  0  0  0  0  0  0  0
   39.7889   12.4340   11.6188 C   0  0  0  0  0  0  0  0  0  0  0  0
   39.9692   10.1979   10.7265 C   0  0  0  0  0  0  0  0  0  0  0  0
   39.1730   11.2875   11.1047 C   0  0  0  0  0  0  0  0  0  0  0  0
   49.2356   12.7517   11.7162 C   0  0  0  0  0  0  0  0  0  0  0  0
   43.2001   12.1321    7.9269 C   0  0  0  0  0  0  0  0  0  0  0  0
   45.0892   13.0750    6.6549 C   0  0  0  0  0  0  0  0  0  0  0  0
   37.6779   11.2016   11.0065 C   0  0  0  0  0  0  0  0  0  0  0  0
   41.9573   10.7599   11.7749 O   0  0  0  0  0  0  0  0  0  0  0  0
   44.0629   10.1415   11.3670 O   0  0  0  0  0  0  0  0  0  0  0  0
   46.1809   12.2642   10.2188 O   0  0  0  0  0  0  0  0  0  0  0  0
   45.2560   11.4147    8.3675 O   0  0  0  0  0  0  0  0  0  0  0  0
   42.3969   13.3540   11.6500 O   0  0  0  0  0  0  0  0  0  0  0  0
   42.7514   12.4781    8.9713 O   0  0  0  0  0  0  0  0  0  0  0  0
   43.2433   11.0406   11.4738 C   0  0  0  0  0  0  0  0  0  0  0  0
   43.5110   12.5322   11.2745 C   0  0  1  0  0  0  0  0  0  0  0  0
   43.8685   12.8056    9.8142 C   0  0  1  0  0  0  0  0  0  0  0  0
   45.1372   12.0729    9.3912 C   0  0  0  0  0  0  0  0  0  0  0  0
   43.1129   13.6219   10.4373 H   0  0  0  0  0  0  0  0  0  0  0  0
   44.8111   14.1162   10.5473 H   0  0  0  0  0  0  0  0  0  0  0  0
   46.9516   12.9770   10.0736 H   0  0  0  0  0  0  0  0  0  0  0  0
   46.7393    8.6925   12.5866 H   0  0  0  0  0  0  0  0  0  0  0  0
   48.9149    9.5687   11.8452 H   0  0  0  0  0  0  0  0  0  0  0  0
   42.1904   13.1078   12.7141 H   0  0  0  0  0  0  0  0  0  0  0  0
   41.8749    9.2737   10.7789 H   0  0  0  0  0  0  0  0  0  0  0  0
   39.7430   13.1907   12.9619 H   0  0  0  0  0  0  0  0  0  0  0  0
   39.4251    9.3485   11.0274 H   0  0  0  0  0  0  0  0  0  0  0  0
   49.9353   11.0837    9.8335 H   0  0  0  0  0  0  0  0  0  0  0  0
   49.4092   12.7718    9.9124 H   0  0  0  0  0  0  0  0  0  0  0  0
   50.0959   12.0009   11.3469 H   0  0  0  0  0  0  0  0  0  0  0  0
   42.6882   14.1610    6.1279 H   0  0  0  0  0  0  0  0  0  0  0  0
   44.1819   13.1846    6.1251 H   0  0  0  0  0  0  0  0  0  0  0  0
   44.2858   14.9597    6.0423 H   0  0  0  0  0  0  0  0  0  0  0  0
   43.4288   16.3066    7.9032 H   0  0  0  0  0  0  0  0  0  0  0  0
   42.0090   15.3126    8.3401 H   0  0  0  0  0  0  0  0  0  0  0  0
   43.3207   15.5849    9.5162 H   0  0  0  0  0  0  0  0  0  0  0  0
   37.4935   10.3281   12.2613 H   0  0  0  0  0  0  0  0  0  0  0  0
   37.4834   11.7996   11.2578 H   0  0  0  0  0  0  0  0  0  0  0  0
   37.6175   11.9096   13.0280 H   0  0  0  0  0  0  0  0  0  0  0  0
   42.9157   13.9237   10.0812 H   0  0  0  0  0  0  0  0  0  0  0  0
   44.2953   14.6194   10.8879 H   0  0  0  0  0  0  0  0  0  0  0  0
   46.7754   13.7497   10.9303 H   0  0  0  0  0  0  0  0  0  0  0  0
   46.4820    9.1411   12.7625 H   0  0  0  0  0  0  0  0  0  0  0  0
   48.6680   10.2616   12.6104 H   0  0  0  0  0  0  0  0  0  0  0  0
   41.6339   13.3960   12.1554 H   0  0  0  0  0  0  0  0  0  0  0  0
   41.9679    9.4090   10.5592 H   0  0  0  0  0  0  0  0  0  0  0  0
   39.1883   13.2782   11.9495 H   0  0  0  0  0  0  0  0  0  0  0  0
   39.5101    9.2848   10.3502 H   0  0  0  0  0  0  0  0  0  0  0  0
   49.2002   13.7743   11.3254 H   0  0  0  0  0  0  0  0  0  0  0  0
   49.6639   12.7992   12.7231 H   0  0  0  0  0  0  0  0  0  0  0  0
   49.9120   12.1723   11.0770 H   0  0  0  0  0  0  0  0  0  0  0  0
   42.4159   12.4448    8.6158 H   0  0  0  0  0  0  0  0  0  0  0  0
   43.6309   11.1813    8.2553 H   0  0  0  0  0  0  0  0  0  0  0  0
   42.7429   12.0045    6.9408 H   0  0  0  0  0  0  0  0  0  0  0  0
   45.7040   12.1679    6.6978 H   0  0  0  0  0  0  0  0  0  0  0  0
   44.4534   13.0446    5.7642 H   0  0  0  0  0  0  0  0  0  0  0  0
   45.7452   13.9479    6.5843 H   0  0  0  0  0  0  0  0  0  0  0  0
   37.2893   10.5088   11.7610 H   0  0  0  0  0  0  0  0  0  0  0  0
   37.3819   10.8527   10.0125 H   0  0  0  0  0  0  0  0  0  0  0  0
   37.2121   12.1796   11.1664 H   0  0  0  0  0  0  0  0  0  0  0  0
   41.9351    9.7861   11.8867 H   0  0  0  0  0  0  0  0  0  0  0  0
   46.8991   11.7065    9.8482 H   0  0  0  0  0  0  0  0  0  0  0  0
   41.6435   13.0093   11.1267 H   0  0  0  0  0  0  0  0  0  0  0  0
   43.1225   12.2774    8.0880 H   0  0  0  0  0  0  0  0  0  0  0  0
   44.3322   12.8013   11.9489 H   0  0  0  0  0  0  0  0  0  0  0  0
   44.0467   13.8777    9.6705 H   0  0  0  0  0  0  0  0  0  0  0  0
 10  4  1  0
 11  8  2  0
 12 11  1  0
 13  7  1  0
 14  7  2  0
 15 10  2  0
 16 10  1  0
 17 15  1  0
 18 16  2  0
 19 18  1  0
 20 11  1  0
 21 13  1  0
 22 13  1  0
 23 19  1  0
  3  5  2  0
  9 12  2  0
 17 19  2  0
  2  1  1  0
  3  4  1  0
  4  1  2  0
  5  2  1  0
  6  1  1  0
  7  6  1  0
  8  2  1  0
  9  5  1  0
 33 27  1  0
 34 31  2  0
 35 34  1  0
 36 30  1  0
 37 30  2  0
 38 33  2  0
 39 33  1  0
 40 38  1  0
 41 39  2  0
 42 41  1  0
 43 34  1  0
 44 36  1  0
 45 36  1  0
 46 42  1  0
 26 28  2  0
 32 35  2  0
 40 42  2  0
 25 24  1  0
 26 27  1  0
 27 24  2  0
 28 25  1  0
 29 24  1  0
 30 29  1  0
 31 25  1  0
 32 28  1  0
 53 48  2  0
 54 51  1  0
 55 52  1  0
 53 47  1  0
 55 56  1  0
 54 55  1  0
 56 49  1  0
 53 54  1  0
 56 50  2  0
  6 57  1  0
  6 58  1  0
  8 59  1  0
  9 60  1  0
 12 61  1  0
 15 62  1  0
 16 63  1  0
 17 64  1  0
 18 65  1  0
 20 66  1  0
 20 67  1  0
 20 68  1  0
 21 69  1  0
 21 70  1  0
 21 71  1  0
 22 72  1  0
 22 73  1  0
 22 74  1  0
 23 75  1  0
 23 76  1  0
 23 77  1  0
 29 78  1  0
 29 79  1  0
 31 80  1  0
 32 81  1  0
 35 82  1  0
 38 83  1  0
 39 84  1  0
 40 85  1  0
 41 86  1  0
 43 87  1  0
 43 88  1  0
 43 89  1  0
 44 90  1  0
 44 91  1  0
 44 92  1  0
 45 93  1  0
 45 94  1  0
 45 95  1  0
 46 96  1  0
 46 97  1  0
 46 98  1  0
 47 99  1  0
 49100  1  0
 51101  1  0
 52102  1  0
 54103  1  1
 55104  1  1
M  END
> <Uni-Dock RESULT> 
ENERGY=   -6.615  LOWER_BOUND=    6.230  UPPER_BOUND=    8.048
INTER + INTRA:          -6.615
INTER:                  -6.615
INTRA:                   0.000
UNBOUND:                 0.000

$$$$

     RDKit          3D

104107  0  0  0  0  0  0  0  0999 V2000
   48.6714    8.8958   18.0836 C   0  0  0  0  0  0  0  0  0  0  0  0
   48.2137    9.9543   18.8519 N   0  0  0  0  0  0  0  0  0  0  0  0
   47.2923    8.1052   19.7198 N   0  0  0  0  0  0  0  0  0  0  0  0
   48.0739    7.7767   18.6414 C   0  0  0  0  0  0  0  0  0  0  0  0
   47.3750    9.4123   19.8224 C   0  0  0  0  0  0  0  0  0  0  0  0
   49.6168    9.0485   16.9360 C   0  0  0  0  0  0  0  0  0  0  0  0
   51.0454    9.3648   17.3848 C   0  0  0  0  0  0  0  0  0  0  0  0
   48.4647   11.3260   18.7473 C   0  0  0  0  0  0  0  0  0  0  0  0
   46.7592   10.3134   20.7354 C   0  0  0  0  0  0  0  0  0  0  0  0
   48.2226    6.4059   18.1987 C   0  0  0  0  0  0  0  0  0  0  0  0
   47.8807   12.1809   19.6093 C   0  0  0  0  0  0  0  0  0  0  0  0
   46.9970   11.6351   20.6361 C   0  0  0  0  0  0  0  0  0  0  0  0
   52.0428    9.2637   16.4137 N   0  0  0  0  0  0  0  0  0  0  0  0
   51.3036    9.7269   18.5336 O   0  0  0  0  0  0  0  0  0  0  0  0
   47.9017    6.0263   16.8903 C   0  0  0  0  0  0  0  0  0  0  0  0
   48.6580    5.4335   19.1029 C   0  0  0  0  0  0  0  0  0  0  0  0
   48.0353    4.6947   16.4863 C   0  0  0  0  0  0  0  0  0  0  0  0
   48.7959    4.1028   18.6987 C   0  0  0  0  0  0  0  0  0  0  0  0
   48.4752    3.7221   17.3905 C   0  0  0  0  0  0  0  0  0  0  0  0
   48.0943   13.6610   19.5805 C   0  0  0  0  0  0  0  0  0  0  0  0
   53.4329    9.4325   16.8083 C   0  0  0  0  0  0  0  0  0  0  0  0
   51.8242    8.8832   15.0230 C   0  0  0  0  0  0  0  0  0  0  0  0
   48.6486    2.2996   16.9510 C   0  0  0  0  0  0  0  0  0  0  0  0
   48.6974    8.8214   17.5998 C   0  0  0  0  0  0  0  0  0  0  0  0
   48.0037    9.8579   18.2105 N   0  0  0  0  0  0  0  0  0  0  0  0
   47.4891    8.0000   19.3509 N   0  0  0  0  0  0  0  0  0  0  0  0
   48.2885    7.6842   18.2818 C   0  0  0  0  0  0  0  0  0  0  0  0
   47.3236    9.3009   19.2903 C   0  0  0  0  0  0  0  0  0  0  0  0
   49.6507    9.0093   16.4609 C   0  0  0  0  0  0  0  0  0  0  0  0
   50.8064    9.9404   16.8255 C   0  0  0  0  0  0  0  0  0  0  0  0
   47.9283   11.2167   17.8971 C   0  0  0  0  0  0  0  0  0  0  0  0
   46.5712   10.1778   20.1203 C   0  0  0  0  0  0  0  0  0  0  0  0
   48.6656    6.3114   17.9996 C   0  0  0  0  0  0  0  0  0  0  0  0
   47.2047   12.0475   18.6723 C   0  0  0  0  0  0  0  0  0  0  0  0
   46.5146   11.4910   19.8323 C   0  0  0  0  0  0  0  0  0  0  0  0
   51.8488    9.4590   17.6116 N   0  0  0  0  0  0  0  0  0  0  0  0
   50.7962   11.1010   16.4021 O   0  0  0  0  0  0  0  0  0  0  0  0
   48.5911    5.7857   16.7055 C   0  0  0  0  0  0  0  0  0  0  0  0
   49.0831    5.4825   19.0490 C   0  0  0  0  0  0  0  0  0  0  0  0
   48.9603    4.4599   16.4576 C   0  0  0  0  0  0  0  0  0  0  0  0
   49.4555    4.1576   18.8012 C   0  0  0  0  0  0  0  0  0  0  0  0
   49.4072    3.6399   17.4997 C   0  0  0  0  0  0  0  0  0  0  0  0
   47.0709   13.5133   18.4109 C   0  0  0  0  0  0  0  0  0  0  0  0
   51.8284    8.1728   18.2868 C   0  0  0  0  0  0  0  0  0  0  0  0
   52.8340   10.4150   18.0934 C   0  0  0  0  0  0  0  0  0  0  0  0
   49.7812    2.2097   17.2406 C   0  0  0  0  0  0  0  0  0  0  0  0
   48.1356    6.0438   18.5409 O   0  0  0  0  0  0  0  0  0  0  0  0
   48.0277    7.9388   19.7153 O   0  0  0  0  0  0  0  0  0  0  0  0
   49.0452   10.7003   18.4313 O   0  0  0  0  0  0  0  0  0  0  0  0
   50.8930    9.8671   19.3777 O   0  0  0  0  0  0  0  0  0  0  0  0
   48.5591    7.1846   16.2047 O   0  0  0  0  0  0  0  0  0  0  0  0
   50.9553    7.6841   17.6458 O   0  0  0  0  0  0  0  0  0  0  0  0
   48.2186    7.3877   18.6424 C   0  0  0  0  0  0  0  0  0  0  0  0
   48.5828    8.0768   17.3276 C   0  0  1  0  0  0  0  0  0  0  0  0
   49.9694    8.7092   17.4388 C   0  0  1  0  0  0  0  0  0  0  0  0
   50.0224    9.7797   18.5235 C   0  0  0  0  0  0  0  0  0  0  0  0
   49.6351    8.1192   16.3591 H   0  0  0  0  0  0  0  0  0  0  0  0
   49.2711    9.8516   16.2766 H   0  0  0  0  0  0  0  0  0  0  0  0
   49.1423   11.6483   17.9674 H   0  0  0  0  0  0  0  0  0  0  0  0
   46.1066    9.9080   21.4992 H   0  0  0  0  0  0  0  0  0  0  0  0
   46.5320   12.3251   21.3347 H   0  0  0  0  0  0  0  0  0  0  0  0
   47.5311    6.7624   16.1813 H   0  0  0  0  0  0  0  0  0  0  0  0
   48.8946    5.7108   20.1284 H   0  0  0  0  0  0  0  0  0  0  0  0
   47.7807    4.4210   15.4649 H   0  0  0  0  0  0  0  0  0  0  0  0
   49.1428    3.3648   19.4191 H   0  0  0  0  0  0  0  0  0  0  0  0
   48.5097   14.0071   20.5327 H   0  0  0  0  0  0  0  0  0  0  0  0
   48.7885   13.9534   18.7857 H   0  0  0  0  0  0  0  0  0  0  0  0
   47.1487   14.1827   19.4038 H   0  0  0  0  0  0  0  0  0  0  0  0
   53.9756    8.5056   16.5858 H   0  0  0  0  0  0  0  0  0  0  0  0
   53.5409    9.6612   17.8743 H   0  0  0  0  0  0  0  0  0  0  0  0
   53.8665   10.2542   16.2277 H   0  0  0  0  0  0  0  0  0  0  0  0
   52.4315    9.5270   14.3775 H   0  0  0  0  0  0  0  0  0  0  0  0
   52.1362    7.8420   14.8954 H   0  0  0  0  0  0  0  0  0  0  0  0
   50.7811    8.9873   14.7227 H   0  0  0  0  0  0  0  0  0  0  0  0
   48.4701    1.6098   17.7818 H   0  0  0  0  0  0  0  0  0  0  0  0
   49.6650    2.1496   16.5762 H   0  0  0  0  0  0  0  0  0  0  0  0
   47.9395    2.0425   16.1583 H   0  0  0  0  0  0  0  0  0  0  0  0
   50.0638    8.0668   16.0942 H   0  0  0  0  0  0  0  0  0  0  0  0
   49.1169    9.4469   15.6075 H   0  0  0  0  0  0  0  0  0  0  0  0
   48.4619   11.5625   17.0231 H   0  0  0  0  0  0  0  0  0  0  0  0
   46.0535    9.7588   20.9763 H   0  0  0  0  0  0  0  0  0  0  0  0
   45.9422   12.1641   20.4671 H   0  0  0  0  0  0  0  0  0  0  0  0
   48.2243    6.3950   15.8824 H   0  0  0  0  0  0  0  0  0  0  0  0
   49.1097    5.8689   20.0651 H   0  0  0  0  0  0  0  0  0  0  0  0
   48.8833    4.0685   15.4458 H   0  0  0  0  0  0  0  0  0  0  0  0
   49.7731    3.5295   19.6323 H   0  0  0  0  0  0  0  0  0  0  0  0
   47.6096   13.8156   17.5064 H   0  0  0  0  0  0  0  0  0  0  0  0
   46.0185   13.7830   18.2722 H   0  0  0  0  0  0  0  0  0  0  0  0
   47.4718   14.0947   19.2493 H   0  0  0  0  0  0  0  0  0  0  0  0
   51.3604    7.4091   17.6661 H   0  0  0  0  0  0  0  0  0  0  0  0
   51.2837    8.2752   19.2303 H   0  0  0  0  0  0  0  0  0  0  0  0
   52.8544    7.8508   18.4905 H   0  0  0  0  0  0  0  0  0  0  0  0
   52.5368   10.7468   19.0955 H   0  0  0  0  0  0  0  0  0  0  0  0
   53.8168    9.9353   18.1431 H   0  0  0  0  0  0  0  0  0  0  0  0
   52.9051   11.2862   17.4352 H   0  0  0  0  0  0  0  0  0  0  0  0
   49.0219    1.5395   17.6585 H   0  0  0  0  0  0  0  0  0  0  0  0
   50.7501    1.9821   17.6951 H   0  0  0  0  0  0  0  0  0  0  0  0
   49.8634    2.0084   16.1675 H   0  0  0  0  0  0  0  0  0  0  0  0
   47.8858    5.7417   19.4395 H   0  0  0  0  0  0  0  0  0  0  0  0
   49.1809   11.2872   19.2067 H   0  0  0  0  0  0  0  0  0  0  0  0
   49.1617    6.4529   16.4532 H   0  0  0  0  0  0  0  0  0  0  0  0
   51.7091    8.1145   18.0984 H   0  0  0  0  0  0  0  0  0  0  0  0
   47.8091    8.8300   17.1377 H   0  0  0  0  0  0  0  0  0  0  0  0
   50.2344    9.1911   16.4904 H   0  0  0  0  0  0  0  0  0  0  0  0
 10  4  1  0
 11  8  2  0
 12 11  1  0
 13  7  1  0
 14  7  2  0
 15 10  2  0
 16 10  1  0
 17 15  1  0
 18 16  2  0
 19 18  1  0
 20 11  1  0
 21 13  1  0
 22 13  1  0
 23 19  1  0
  3  5  2  0
  9 12  2  0
 17 19  2  0
  2  1  1  0
  3  4  1  0
  4  1  2  0
  5  2  1  0
  6  1  1  0
  7  6  1  0
  8  2  1  0
  9  5  1  0
 33 27  1  0
 34 31  2  0
 35 34  1  0
 36 30  1  0
 37 30  2  0
 38 33  2  0
 39 33  1  0
 40 38  1  0
 41 39  2  0
 42 41  1  0
 43 34  1  0
 44 36  1  0
 45 36  1  0
 46 42  1  0
 26 28  2  0
 32 35  2  0
 40 42  2  0
 25 24  1  0
 26 27  1  0
 27 24  2  0
 28 25  1  0
 29 24  1  0
 30 29  1  0
 31 25  1  0
 32 28  1  0
 53 48  2  0
 54 51  1  0
 55 52  1  0
 53 47  1  0
 55 56  1  0
 54 55  1  0
 56 49  1  0
 53 54  1  0
 56 50  2  0
  6 57  1  0
  6 58  1  0
  8 59  1  0
  9 60  1  0
 12 61  1  0
 15 62  1  0
 16 63  1  0
 17 64  1  0
 18 65  1  0
 20 66  1  0
 20 67  1  0
 20 68  1  0
 21 69  1  0
 21 70  1  0
 21 71  1  0
 22 72  1  0
 22 73  1  0
 22 74  1  0
 23 75  1  0
 23 76  1  0
 23 77  1  0
 29 78  1  0
 29 79  1  0
 31 80  1  0
 32 81  1  0
 35 82  1  0
 38 83  1  0
 39 84  1  0
 40 85  1  0
 41 86  1  0
 43 87  1  0
 43 88  1  0
 43 89  1  0
 44 90  1  0
 44 91  1  0
 44 92  1  0
 45 93  1  0
 45 94  1  0
 45 95  1  0
 46 96  1  0
 46 97  1  0
 46 98  1  0
 47 99  1  0
 49100  1  0
 51101  1  0
 52102  1  0
 54103  1  1
 55104  1  1
M  END
> <Uni-Dock RESULT> 
ENERGY=   -6.558  LOWER_BOUND=    3.582  UPPER_BOUND=    6.505
INTER + INTRA:          -6.558
INTER:                  -6.558
INTRA:                   0.000
UNBOUND:                 0.000

$$$$

     RDKit          3D

104107  0  0  0  0  0  0  0  0999 V2000
   48.7977   13.8651   16.6221 C   0  0  0  0  0  0  0  0  0  0  0  0
   48.3915   14.8058   15.6893 N   0  0  0  0  0  0  0  0  0  0  0  0
   46.5186   13.9529   16.5760 N   0  0  0  0  0  0  0  0  0  0  0  0
   47.6173   13.3542   17.1381 C   0  0  0  0  0  0  0  0  0  0  0  0
   46.9991   14.8071   15.7012 C   0  0  0  0  0  0  0  0  0  0  0  0
   50.2287   13.5644   16.9315 C   0  0  0  0  0  0  0  0  0  0  0  0
   50.9074   14.6784   17.7319 C   0  0  0  0  0  0  0  0  0  0  0  0
   49.1431   15.6260   14.8420 C   0  0  0  0  0  0  0  0  0  0  0  0
   46.3358   15.6900   14.8038 C   0  0  0  0  0  0  0  0  0  0  0  0
   47.4895   12.3272   18.1512 C   0  0  0  0  0  0  0  0  0  0  0  0
   48.5168   16.4608   13.9899 C   0  0  0  0  0  0  0  0  0  0  0  0
   47.0564   16.4796   13.9849 C   0  0  0  0  0  0  0  0  0  0  0  0
   52.1501   14.3781   18.2919 N   0  0  0  0  0  0  0  0  0  0  0  0
   50.4053   15.7972   17.8485 O   0  0  0  0  0  0  0  0  0  0  0  0
   48.0578   11.0601   17.9767 C   0  0  0  0  0  0  0  0  0  0  0  0
   46.7532   12.5902   19.3094 C   0  0  0  0  0  0  0  0  0  0  0  0
   47.9089   10.0760   18.9584 C   0  0  0  0  0  0  0  0  0  0  0  0
   46.6075   11.6083   20.2932 C   0  0  0  0  0  0  0  0  0  0  0  0
   47.1752   10.3408   20.1197 C   0  0  0  0  0  0  0  0  0  0  0  0
   49.2346   17.3794   13.0529 C   0  0  0  0  0  0  0  0  0  0  0  0
   52.7865   15.3534   19.1639 C   0  0  0  0  0  0  0  0  0  0  0  0
   52.8375   13.0976   18.1711 C   0  0  0  0  0  0  0  0  0  0  0  0
   47.0404    9.2973   21.1873 C   0  0  0  0  0  0  0  0  0  0  0  0
   49.1211   13.4971   16.6058 C   0  0  0  0  0  0  0  0  0  0  0  0
   48.6723   14.2130   15.5038 N   0  0  0  0  0  0  0  0  0  0  0  0
   46.8543   13.7215   16.7162 N   0  0  0  0  0  0  0  0  0  0  0  0
   47.9623   13.1443   17.2827 C   0  0  0  0  0  0  0  0  0  0  0  0
   47.2947   14.3508   15.6516 C   0  0  0  0  0  0  0  0  0  0  0  0
   50.5644   13.2260   16.8965 C   0  0  0  0  0  0  0  0  0  0  0  0
   51.3714   14.5142   17.0545 C   0  0  0  0  0  0  0  0  0  0  0  0
   49.3655   14.7387   14.4112 C   0  0  0  0  0  0  0  0  0  0  0  0
   46.5967   15.1026   14.6660 C   0  0  0  0  0  0  0  0  0  0  0  0
   47.8612   12.3272   18.4779 C   0  0  0  0  0  0  0  0  0  0  0  0
   48.7053   15.4385   13.4683 C   0  0  0  0  0  0  0  0  0  0  0  0
   47.2661   15.6281   13.6236 C   0  0  0  0  0  0  0  0  0  0  0  0
   51.2748   15.2393   18.2381 N   0  0  0  0  0  0  0  0  0  0  0  0
   52.1046   14.8783   16.1291 O   0  0  0  0  0  0  0  0  0  0  0  0
   48.5132   11.0936   18.5757 C   0  0  0  0  0  0  0  0  0  0  0  0
   47.0681   12.7655   19.5464 C   0  0  0  0  0  0  0  0  0  0  0  0
   48.4015   10.3238   19.7378 C   0  0  0  0  0  0  0  0  0  0  0  0
   46.9586   11.9977   20.7100 C   0  0  0  0  0  0  0  0  0  0  0  0
   47.6348   10.7749   20.8180 C   0  0  0  0  0  0  0  0  0  0  0  0
   49.3679   16.0361   12.2687 C   0  0  0  0  0  0  0  0  0  0  0  0
   50.2999   14.9654   19.2798 C   0  0  0  0  0  0  0  0  0  0  0  0
   51.9061   16.5492   18.2860 C   0  0  0  0  0  0  0  0  0  0  0  0
   47.4937    9.9397   22.0570 C   0  0  0  0  0  0  0  0  0  0  0  0
   47.0600   12.3207   18.4181 O   0  0  0  0  0  0  0  0  0  0  0  0
   46.9053   14.1743   17.1842 O   0  0  0  0  0  0  0  0  0  0  0  0
   49.4758   15.3008   15.6241 O   0  0  0  0  0  0  0  0  0  0  0  0
   49.6228   16.2865   17.6270 O   0  0  0  0  0  0  0  0  0  0  0  0
   49.3784   11.5306   17.4490 O   0  0  0  0  0  0  0  0  0  0  0  0
   50.0266   13.8605   18.9386 O   0  0  0  0  0  0  0  0  0  0  0  0
   47.5555   13.1954   17.5166 C   0  0  0  0  0  0  0  0  0  0  0  0
   48.9549   12.8323   17.0206 C   0  0  1  0  0  0  0  0  0  0  0  0
   49.9638   13.8737   17.5028 C   0  0  1  0  0  0  0  0  0  0  0  0
   49.6531   15.2636   16.9576 C   0  0  0  0  0  0  0  0  0  0  0  0
   50.2842   12.6397   17.5134 H   0  0  0  0  0  0  0  0  0  0  0  0
   50.7847   13.4140   16.0000 H   0  0  0  0  0  0  0  0  0  0  0  0
   50.2208   15.5619   14.9170 H   0  0  0  0  0  0  0  0  0  0  0  0
   45.2525   15.7064   14.8027 H   0  0  0  0  0  0  0  0  0  0  0  0
   46.5528   17.1581   13.3020 H   0  0  0  0  0  0  0  0  0  0  0  0
   48.6072   10.8262   17.0684 H   0  0  0  0  0  0  0  0  0  0  0  0
   46.2910   13.5654   19.4509 H   0  0  0  0  0  0  0  0  0  0  0  0
   48.3586    9.0979   18.8030 H   0  0  0  0  0  0  0  0  0  0  0  0
   46.0349   11.8388   21.1893 H   0  0  0  0  0  0  0  0  0  0  0  0
   48.9585   18.4205   13.2499 H   0  0  0  0  0  0  0  0  0  0  0  0
   50.3213   17.2949   13.1579 H   0  0  0  0  0  0  0  0  0  0  0  0
   48.9821   17.1436   12.0145 H   0  0  0  0  0  0  0  0  0  0  0  0
   52.9157   14.9048   20.1565 H   0  0  0  0  0  0  0  0  0  0  0  0
   52.1993   16.2731   19.2626 H   0  0  0  0  0  0  0  0  0  0  0  0
   53.7689   15.6073   18.7507 H   0  0  0  0  0  0  0  0  0  0  0  0
   53.9023   13.2802   17.9906 H   0  0  0  0  0  0  0  0  0  0  0  0
   52.7164   12.5494   19.1105 H   0  0  0  0  0  0  0  0  0  0  0  0
   52.4514   12.4947   17.3486 H   0  0  0  0  0  0  0  0  0  0  0  0
   46.0900    9.4038   21.7195 H   0  0  0  0  0  0  0  0  0  0  0  0
   47.8616    9.3924   21.9032 H   0  0  0  0  0  0  0  0  0  0  0  0
   47.0610    8.2904   20.7595 H   0  0  0  0  0  0  0  0  0  0  0  0
   50.7090   12.6117   17.7881 H   0  0  0  0  0  0  0  0  0  0  0  0
   51.0005   12.6500   16.0701 H   0  0  0  0  0  0  0  0  0  0  0  0
   50.4300   14.5598   14.3565 H   0  0  0  0  0  0  0  0  0  0  0  0
   45.5262   15.2341   14.7810 H   0  0  0  0  0  0  0  0  0  0  0  0
   46.7351   16.2058   12.8700 H   0  0  0  0  0  0  0  0  0  0  0  0
   49.0957   10.7095   17.7412 H   0  0  0  0  0  0  0  0  0  0  0  0
   46.5265   13.7051   19.4676 H   0  0  0  0  0  0  0  0  0  0  0  0
   48.9075    9.3624   19.7875 H   0  0  0  0  0  0  0  0  0  0  0  0
   46.3334   12.3553   21.5269 H   0  0  0  0  0  0  0  0  0  0  0  0
   50.4400   15.8133   12.2435 H   0  0  0  0  0  0  0  0  0  0  0  0
   48.9274   15.6363   11.3492 H   0  0  0  0  0  0  0  0  0  0  0  0
   49.2523   17.1261   12.2649 H   0  0  0  0  0  0  0  0  0  0  0  0
   50.1534   13.8936   19.4108 H   0  0  0  0  0  0  0  0  0  0  0  0
   49.3523   15.4440   19.0146 H   0  0  0  0  0  0  0  0  0  0  0  0
   50.6590   15.3691   20.2316 H   0  0  0  0  0  0  0  0  0  0  0  0
   51.1564   17.3072   18.0292 H   0  0  0  0  0  0  0  0  0  0  0  0
   52.2855   16.7368   19.2957 H   0  0  0  0  0  0  0  0  0  0  0  0
   52.7409   16.6197   17.5821 H   0  0  0  0  0  0  0  0  0  0  0  0
   46.4844    9.5176   22.1146 H   0  0  0  0  0  0  0  0  0  0  0  0
   47.6801   10.5472   22.9478 H   0  0  0  0  0  0  0  0  0  0  0  0
   48.2121    9.1134   22.0634 H   0  0  0  0  0  0  0  0  0  0  0  0
   46.1678   12.6650   18.6340 H   0  0  0  0  0  0  0  0  0  0  0  0
   49.2447   16.2349   15.4288 H   0  0  0  0  0  0  0  0  0  0  0  0
   49.2916   11.5473   18.4249 H   0  0  0  0  0  0  0  0  0  0  0  0
   50.3358   14.7491   19.2088 H   0  0  0  0  0  0  0  0  0  0  0  0
   48.9050   12.7943   15.9261 H   0  0  0  0  0  0  0  0  0  0  0  0
   50.9688   13.6042   17.1576 H   0  0  0  0  0  0  0  0  0  0  0  0
 10  4  1  0
 11  8  2  0
 12 11  1  0
 13  7  1  0
 14  7  2  0
 15 10  2  0
 16 10  1  0
 17 15  1  0
 18 16  2  0
 19 18  1  0
 20 11  1  0
 21 13  1  0
 22 13  1  0
 23 19  1  0
  3  5  2  0
  9 12  2  0
 17 19  2  0
  2  1  1  0
  3  4  1  0
  4  1  2  0
  5  2  1  0
  6  1  1  0
  7  6  1  0
  8  2  1  0
  9  5  1  0
 33 27  1  0
 34 31  2  0
 35 34  1  0
 36 30  1  0
 37 30  2  0
 38 33  2  0
 39 33  1  0
 40 38  1  0
 41 39  2  0
 42 41  1  0
 43 34  1  0
 44 36  1  0
 45 36  1  0
 46 42  1  0
 26 28  2  0
 32 35  2  0
 40 42  2  0
 25 24  1  0
 26 27  1  0
 27 24  2  0
 28 25  1  0
 29 24  1  0
 30 29  1  0
 31 25  1  0
 32 28  1  0
 53 48  2  0
 54 51  1  0
 55 52  1  0
 53 47  1  0
 55 56  1  0
 54 55  1  0
 56 49  1  0
 53 54  1  0
 56 50  2  0
  6 57  1  0
  6 58  1  0
  8 59  1  0
  9 60  1  0
 12 61  1  0
 15 62  1  0
 16 63  1  0
 17 64  1  0
 18 65  1  0
 20 66  1  0
 20 67  1  0
 20 68  1  0
 21 69  1  0
 21 70  1  0
 21 71  1  0
 22 72  1  0
 22 73  1  0
 22 74  1  0
 23 75  1  0
 23 76  1  0
 23 77  1  0
 29 78  1  0
 29 79  1  0
 31 80  1  0
 32 81  1  0
 35 82  1  0
 38 83  1  0
 39 84  1  0
 40 85  1  0
 41 86  1  0
 43 87  1  0
 43 88  1  0
 43 89  1  0
 44 90  1  0
 44 91  1  0
 44 92  1  0
 45 93  1  0
 45 94  1  0
 45 95  1  0
 46 96  1  0
 46 97  1  0
 46 98  1  0
 47 99  1  0
 49100  1  0
 51101  1  0
 52102  1  0
 54103  1  1
 55104  1  1
M  END
> <Uni-Dock RESULT> 
ENERGY=   -6.411  LOWER_BOUND=    6.305  UPPER_BOUND=    7.961
INTER + INTRA:          -6.411
INTER:                  -6.411
INTRA:                   0.000
UNBOUND:                 0.000

$$$$

     RDKit          3D

104107  0  0  0  0  0  0  0  0999 V2000
   52.5302    3.4914   18.1681 C   0  0  0  0  0  0  0  0  0  0  0  0
   51.1603    3.6852   18.0907 N   0  0  0  0  0  0  0  0  0  0  0  0
   51.5186    1.5320   17.5838 N   0  0  0  0  0  0  0  0  0  0  0  0
   52.7124    2.1577   17.8387 C   0  0  0  0  0  0  0  0  0  0  0  0
   50.6025    2.4631   17.7241 C   0  0  0  0  0  0  0  0  0  0  0  0
   53.5013    4.5611   18.5512 C   0  0  0  0  0  0  0  0  0  0  0  0
   53.4466    4.9031   20.0420 C   0  0  0  0  0  0  0  0  0  0  0  0
   50.3940    4.8362   18.2987 C   0  0  0  0  0  0  0  0  0  0  0  0
   49.1900    2.4088   17.5608 C   0  0  0  0  0  0  0  0  0  0  0  0
   53.9736    1.4497   17.7656 C   0  0  0  0  0  0  0  0  0  0  0  0
   49.0567    4.7874   18.1422 C   0  0  0  0  0  0  0  0  0  0  0  0
   48.4493    3.5159   17.7580 C   0  0  0  0  0  0  0  0  0  0  0  0
   54.4857    5.6898   20.5416 N   0  0  0  0  0  0  0  0  0  0  0  0
   52.5164    4.5372   20.7619 O   0  0  0  0  0  0  0  0  0  0  0  0
   55.0025    1.8837   16.9219 C   0  0  0  0  0  0  0  0  0  0  0  0
   54.1564    0.2888   18.5218 C   0  0  0  0  0  0  0  0  0  0  0  0
   56.2067    1.1770   16.8520 C   0  0  0  0  0  0  0  0  0  0  0  0
   55.3615   -0.4160   18.4558 C   0  0  0  0  0  0  0  0  0  0  0  0
   56.3910    0.0172   17.6122 C   0  0  0  0  0  0  0  0  0  0  0  0
   48.1551    5.9626   18.3496 C   0  0  0  0  0  0  0  0  0  0  0  0
   54.5537    5.9451   21.9723 C   0  0  0  0  0  0  0  0  0  0  0  0
   55.6032    6.2010   19.7564 C   0  0  0  0  0  0  0  0  0  0  0  0
   57.6925   -0.7247   17.5622 C   0  0  0  0  0  0  0  0  0  0  0  0
   52.9129    3.7396   17.9887 C   0  0  0  0  0  0  0  0  0  0  0  0
   51.5878    3.9504   17.6308 N   0  0  0  0  0  0  0  0  0  0  0  0
   51.8996    1.7325   17.6070 N   0  0  0  0  0  0  0  0  0  0  0  0
   53.0844    2.3667   17.8821 C   0  0  0  0  0  0  0  0  0  0  0  0
   51.0175    2.6927   17.4536 C   0  0  0  0  0  0  0  0  0  0  0  0
   53.8572    4.8323   18.3832 C   0  0  0  0  0  0  0  0  0  0  0  0
   53.3606    5.6100   19.6014 C   0  0  0  0  0  0  0  0  0  0  0  0
   50.8655    5.1327   17.4549 C   0  0  0  0  0  0  0  0  0  0  0  0
   49.6332    2.6347   17.1311 C   0  0  0  0  0  0  0  0  0  0  0  0
   54.3124    1.6199   18.0836 C   0  0  0  0  0  0  0  0  0  0  0  0
   49.5579    5.0818   17.1348 C   0  0  0  0  0  0  0  0  0  0  0  0
   48.9303    3.7725   16.9820 C   0  0  0  0  0  0  0  0  0  0  0  0
   53.4890    5.0490   20.8683 N   0  0  0  0  0  0  0  0  0  0  0  0
   52.8656    6.7297   19.4355 O   0  0  0  0  0  0  0  0  0  0  0  0
   55.5084    2.0023   17.4671 C   0  0  0  0  0  0  0  0  0  0  0  0
   54.2961    0.4720   18.8865 C   0  0  0  0  0  0  0  0  0  0  0  0
   56.6794    1.2672   17.6766 C   0  0  0  0  0  0  0  0  0  0  0  0
   55.4675   -0.2617   19.0988 C   0  0  0  0  0  0  0  0  0  0  0  0
   56.6715    0.1382   18.5033 C   0  0  0  0  0  0  0  0  0  0  0  0
   48.7106    6.2961   16.9293 C   0  0  0  0  0  0  0  0  0  0  0  0
   53.8893    3.6733   21.1093 C   0  0  0  0  0  0  0  0  0  0  0  0
   52.8425    5.7277   21.9808 C   0  0  0  0  0  0  0  0  0  0  0  0
   57.9214   -0.6664   18.7105 C   0  0  0  0  0  0  0  0  0  0  0  0
   53.9582    0.9474   17.8231 O   0  0  0  0  0  0  0  0  0  0  0  0
   51.8686    1.6077   18.2473 O   0  0  0  0  0  0  0  0  0  0  0  0
   51.2103    4.7199   18.6837 O   0  0  0  0  0  0  0  0  0  0  0  0
   51.7247    4.0142   20.7433 O   0  0  0  0  0  0  0  0  0  0  0  0
   54.8990    3.3408   17.2532 O   0  0  0  0  0  0  0  0  0  0  0  0
   54.3662    3.4695   20.0402 O   0  0  0  0  0  0  0  0  0  0  0  0
   53.0182    1.9066   17.9639 C   0  0  0  0  0  0  0  0  0  0  0  0
   53.5566    3.3223   17.7582 C   0  0  1  0  0  0  0  0  0  0  0  0
   53.5037    4.0949   19.0755 C   0  0  1  0  0  0  0  0  0  0  0  0
   52.0772    4.2402   19.5944 C   0  0  0  0  0  0  0  0  0  0  0  0
   54.5155    4.2287   18.3113 H   0  0  0  0  0  0  0  0  0  0  0  0
   53.2962    5.4701   17.9758 H   0  0  0  0  0  0  0  0  0  0  0  0
   50.9190    5.7351   18.5947 H   0  0  0  0  0  0  0  0  0  0  0  0
   48.7392    1.4647   17.2793 H   0  0  0  0  0  0  0  0  0  0  0  0
   47.3701    3.4764   17.6387 H   0  0  0  0  0  0  0  0  0  0  0  0
   54.8673    2.7664   16.3021 H   0  0  0  0  0  0  0  0  0  0  0  0
   53.3587   -0.0704   19.1692 H   0  0  0  0  0  0  0  0  0  0  0  0
   56.9934    1.5314   16.1899 H   0  0  0  0  0  0  0  0  0  0  0  0
   55.4826   -1.3135   19.0588 H   0  0  0  0  0  0  0  0  0  0  0  0
   47.4179    5.7473   19.1301 H   0  0  0  0  0  0  0  0  0  0  0  0
   48.7155    6.8528   18.6539 H   0  0  0  0  0  0  0  0  0  0  0  0
   47.6217    6.2059   17.4255 H   0  0  0  0  0  0  0  0  0  0  0  0
   55.4966    5.5374   22.3568 H   0  0  0  0  0  0  0  0  0  0  0  0
   53.7201    5.4906   22.5189 H   0  0  0  0  0  0  0  0  0  0  0  0
   54.5330    7.0278   22.1383 H   0  0  0  0  0  0  0  0  0  0  0  0
   55.8007    7.2376   20.0501 H   0  0  0  0  0  0  0  0  0  0  0  0
   56.4849    5.5884   19.9689 H   0  0  0  0  0  0  0  0  0  0  0  0
   55.4008    6.1836   18.6851 H   0  0  0  0  0  0  0  0  0  0  0  0
   57.5390   -1.7945   17.7346 H   0  0  0  0  0  0  0  0  0  0  0  0
   58.3702   -0.3348   18.3269 H   0  0  0  0  0  0  0  0  0  0  0  0
   58.1690   -0.6196   16.5827 H   0  0  0  0  0  0  0  0  0  0  0  0
   54.8657    4.4668   18.5895 H   0  0  0  0  0  0  0  0  0  0  0  0
   53.9662    5.5381   17.5497 H   0  0  0  0  0  0  0  0  0  0  0  0
   51.3919    6.0682   17.5811 H   0  0  0  0  0  0  0  0  0  0  0  0
   49.1728    1.6601   17.0104 H   0  0  0  0  0  0  0  0  0  0  0  0
   47.8709    3.7309   16.7381 H   0  0  0  0  0  0  0  0  0  0  0  0
   55.5358    2.8618   16.8010 H   0  0  0  0  0  0  0  0  0  0  0  0
   53.3645    0.1434   19.3410 H   0  0  0  0  0  0  0  0  0  0  0  0
   57.5953    1.5759   17.1779 H   0  0  0  0  0  0  0  0  0  0  0  0
   55.4315   -1.1532   19.7233 H   0  0  0  0  0  0  0  0  0  0  0  0
   49.2882    7.2193   17.0468 H   0  0  0  0  0  0  0  0  0  0  0  0
   48.2860    6.3003   15.9198 H   0  0  0  0  0  0  0  0  0  0  0  0
   47.8879    6.3216   17.6532 H   0  0  0  0  0  0  0  0  0  0  0  0
   54.6662    3.3608   20.4121 H   0  0  0  0  0  0  0  0  0  0  0  0
   53.0130    3.0255   21.0096 H   0  0  0  0  0  0  0  0  0  0  0  0
   54.2967    3.5833   22.1211 H   0  0  0  0  0  0  0  0  0  0  0  0
   51.8529    5.2808   22.1343 H   0  0  0  0  0  0  0  0  0  0  0  0
   53.4449    5.6033   22.8865 H   0  0  0  0  0  0  0  0  0  0  0  0
   52.7246    6.7979   21.7859 H   0  0  0  0  0  0  0  0  0  0  0  0
   57.8456   -1.6237   18.1834 H   0  0  0  0  0  0  0  0  0  0  0  0
   58.0792   -0.8551   19.7767 H   0  0  0  0  0  0  0  0  0  0  0  0
   58.8025   -0.1362   18.3343 H   0  0  0  0  0  0  0  0  0  0  0  0
   53.4770    0.1052   17.9657 H   0  0  0  0  0  0  0  0  0  0  0  0
   50.3411    4.7172   19.1405 H   0  0  0  0  0  0  0  0  0  0  0  0
   55.4145    2.8056   17.8919 H   0  0  0  0  0  0  0  0  0  0  0  0
   54.0164    3.7135   20.9213 H   0  0  0  0  0  0  0  0  0  0  0  0
   52.9325    3.7918   16.9890 H   0  0  0  0  0  0  0  0  0  0  0  0
   53.9030    5.1054   18.9291 H   0  0  0  0  0  0  0  0  0  0  0  0
 10  4  1  0
 11  8  2  0
 12 11  1  0
 13  7  1  0
 14  7  2  0
 15 10  2  0
 16 10  1  0
 17 15  1  0
 18 16  2  0
 19 18  1  0
 20 11  1  0
 21 13  1  0
 22 13  1  0
 23 19  1  0
  3  5  2  0
  9 12  2  0
 17 19  2  0
  2  1  1  0
  3  4  1  0
  4  1  2  0
  5  2  1  0
  6  1  1  0
  7  6  1  0
  8  2  1  0
  9  5  1  0
 33 27  1  0
 34 31  2  0
 35 34  1  0
 36 30  1  0
 37 30  2  0
 38 33  2  0
 39 33  1  0
 40 38  1  0
 41 39  2  0
 42 41  1  0
 43 34  1  0
 44 36  1  0
 45 36  1  0
 46 42  1  0
 26 28  2  0
 32 35  2  0
 40 42  2  0
 25 24  1  0
 26 27  1  0
 27 24  2  0
 28 25  1  0
 29 24  1  0
 30 29  1  0
 31 25  1  0
 32 28  1  0
 53 48  2  0
 54 51  1  0
 55 52  1  0
 53 47  1  0
 55 56  1  0
 54 55  1  0
 56 49  1  0
 53 54  1  0
 56 50  2  0
  6 57  1  0
  6 58  1  0
  8 59  1  0
  9 60  1  0
 12 61  1  0
 15 62  1  0
 16 63  1  0
 17 64  1  0
 18 65  1  0
 20 66  1  0
 20 67  1  0
 20 68  1  0
 21 69  1  0
 21 70  1  0
 21 71  1  0
 22 72  1  0
 22 73  1  0
 22 74  1  0
 23 75  1  0
 23 76  1  0
 23 77  1  0
 29 78  1  0
 29 79  1  0
 31 80  1  0
 32 81  1  0
 35 82  1  0
 38 83  1  0
 39 84  1  0
 40 85  1  0
 41 86  1  0
 43 87  1  0
 43 88  1  0
 43 89  1  0
 44 90  1  0
 44 91  1  0
 44 92  1  0
 45 93  1  0
 45 94  1  0
 45 95  1  0
 46 96  1  0
 46 97  1  0
 46 98  1  0
 47 99  1  0
 49100  1  0
 51101  1  0
 52102  1  0
 54103  1  1
 55104  1  1
M  END
> <Uni-Dock RESULT> 
ENERGY=   -6.357  LOWER_BOUND=    6.886  UPPER_BOUND=    9.341
INTER + INTRA:          -6.357
INTER:                  -6.357
INTRA:                   0.000
UNBOUND:                 0.000

$$$$

     RDKit          3D

104107  0  0  0  0  0  0  0  0999 V2000
   49.6338    8.6501   16.1056 C   0  0  0  0  0  0  0  0  0  0  0  0
   49.4432    8.8882   14.7538 N   0  0  0  0  0  0  0  0  0  0  0  0
   47.4801    9.3119   15.7480 N   0  0  0  0  0  0  0  0  0  0  0  0
   48.4009    8.9108   16.6823 C   0  0  0  0  0  0  0  0  0  0  0  0
   48.1154    9.2783   14.5986 C   0  0  0  0  0  0  0  0  0  0  0  0
   50.9375    8.2241   16.6995 C   0  0  0  0  0  0  0  0  0  0  0  0
   51.9690    9.3543   16.7340 C   0  0  0  0  0  0  0  0  0  0  0  0
   50.3296    8.7718   13.6786 C   0  0  0  0  0  0  0  0  0  0  0  0
   47.6656    9.5656   13.2796 C   0  0  0  0  0  0  0  0  0  0  0  0
   48.0634    8.8043   18.0866 C   0  0  0  0  0  0  0  0  0  0  0  0
   49.9049    9.0410   12.4288 C   0  0  0  0  0  0  0  0  0  0  0  0
   48.5159    9.4522   12.2416 C   0  0  0  0  0  0  0  0  0  0  0  0
   53.1129    9.1336   17.5027 N   0  0  0  0  0  0  0  0  0  0  0  0
   51.8209   10.3931   16.0888 O   0  0  0  0  0  0  0  0  0  0  0  0
   48.2274    7.6019   18.7839 C   0  0  0  0  0  0  0  0  0  0  0  0
   47.5276    9.9103   18.7519 C   0  0  0  0  0  0  0  0  0  0  0  0
   47.8796    7.5138   20.1351 C   0  0  0  0  0  0  0  0  0  0  0  0
   47.1837    9.8243   20.1037 C   0  0  0  0  0  0  0  0  0  0  0  0
   47.3472    8.6223   20.8020 C   0  0  0  0  0  0  0  0  0  0  0  0
   50.7803    8.9518   11.2193 C   0  0  0  0  0  0  0  0  0  0  0  0
   54.0698   10.2163   17.6727 C   0  0  0  0  0  0  0  0  0  0  0  0
   53.3910    7.9215   18.2644 C   0  0  0  0  0  0  0  0  0  0  0  0
   47.0025    8.5389   22.2584 C   0  0  0  0  0  0  0  0  0  0  0  0
   49.8353    8.2785   16.3538 C   0  0  0  0  0  0  0  0  0  0  0  0
   49.5260    8.2580   15.0001 N   0  0  0  0  0  0  0  0  0  0  0  0
   47.7450    9.1341   16.0380 N   0  0  0  0  0  0  0  0  0  0  0  0
   48.6811    8.7490   16.9638 C   0  0  0  0  0  0  0  0  0  0  0  0
   48.2625    8.8284   14.8709 C   0  0  0  0  0  0  0  0  0  0  0  0
   51.1578    7.8597   16.9164 C   0  0  0  0  0  0  0  0  0  0  0  0
   52.3112    8.6905   16.3551 C   0  0  0  0  0  0  0  0  0  0  0  0
   50.2526    7.7889   13.9035 C   0  0  0  0  0  0  0  0  0  0  0  0
   47.7348    8.9740   13.5578 C   0  0  0  0  0  0  0  0  0  0  0  0
   48.4439    8.9024   18.3873 C   0  0  0  0  0  0  0  0  0  0  0  0
   49.7495    7.9118   12.6599 C   0  0  0  0  0  0  0  0  0  0  0  0
   48.4426    8.5421   12.4980 C   0  0  0  0  0  0  0  0  0  0  0  0
   52.5210    9.9794   16.8356 N   0  0  0  0  0  0  0  0  0  0  0  0
   53.0427    8.1931   15.4927 O   0  0  0  0  0  0  0  0  0  0  0  0
   48.7190    7.8685   19.2884 C   0  0  0  0  0  0  0  0  0  0  0  0
   47.8973   10.0990   18.8692 C   0  0  0  0  0  0  0  0  0  0  0  0
   48.4826    8.0397   20.6561 C   0  0  0  0  0  0  0  0  0  0  0  0
   47.6637   10.2719   20.2370 C   0  0  0  0  0  0  0  0  0  0  0  0
   47.9658    9.2457   21.1424 C   0  0  0  0  0  0  0  0  0  0  0  0
   50.4591    7.4389   11.4320 C   0  0  0  0  0  0  0  0  0  0  0  0
   51.5939   10.6813   17.7065 C   0  0  0  0  0  0  0  0  0  0  0  0
   53.5042   10.8071   16.1539 C   0  0  0  0  0  0  0  0  0  0  0  0
   47.6886    9.4234   22.6067 C   0  0  0  0  0  0  0  0  0  0  0  0
   47.6725    9.0806   18.2500 O   0  0  0  0  0  0  0  0  0  0  0  0
   47.9609    9.7424   16.1378 O   0  0  0  0  0  0  0  0  0  0  0  0
   50.6153    8.9181   14.5302 O   0  0  0  0  0  0  0  0  0  0  0  0
   51.1973   10.8349   15.5260 O   0  0  0  0  0  0  0  0  0  0  0  0
   49.5815    7.2657   18.2389 O   0  0  0  0  0  0  0  0  0  0  0  0
   50.9882    9.7278   18.0754 O   0  0  0  0  0  0  0  0  0  0  0  0
   48.3261    9.0417   17.0690 C   0  0  0  0  0  0  0  0  0  0  0  0
   49.5181    8.0850   17.0633 C   0  0  1  0  0  0  0  0  0  0  0  0
   50.8187    8.8759   16.9303 C   0  0  1  0  0  0  0  0  0  0  0  0
   50.8791    9.6582   15.6227 C   0  0  0  0  0  0  0  0  0  0  0  0
   50.7703    7.8793   17.7241 H   0  0  0  0  0  0  0  0  0  0  0  0
   51.3514    7.3900   16.1231 H   0  0  0  0  0  0  0  0  0  0  0  0
   51.3457    8.4746   13.9032 H   0  0  0  0  0  0  0  0  0  0  0  0
   46.6363    9.8741   13.1414 H   0  0  0  0  0  0  0  0  0  0  0  0
   48.1767    9.6755   11.2340 H   0  0  0  0  0  0  0  0  0  0  0  0
   48.6128    6.7217   18.2756 H   0  0  0  0  0  0  0  0  0  0  0  0
   47.3782   10.8469   18.2180 H   0  0  0  0  0  0  0  0  0  0  0  0
   48.0151    6.5700   20.6583 H   0  0  0  0  0  0  0  0  0  0  0  0
   46.7742   10.7007   20.6017 H   0  0  0  0  0  0  0  0  0  0  0  0
   50.8319    9.9203   10.7110 H   0  0  0  0  0  0  0  0  0  0  0  0
   51.8015    8.6555   11.4809 H   0  0  0  0  0  0  0  0  0  0  0  0
   50.3895    8.2105   10.5155 H   0  0  0  0  0  0  0  0  0  0  0  0
   54.1423   10.4557   18.7407 H   0  0  0  0  0  0  0  0  0  0  0  0
   53.7817   11.1198   17.1240 H   0  0  0  0  0  0  0  0  0  0  0  0
   55.0478    9.8823   17.3093 H   0  0  0  0  0  0  0  0  0  0  0  0
   54.4456    7.6544   18.1370 H   0  0  0  0  0  0  0  0  0  0  0  0
   53.1918    8.1232   19.3215 H   0  0  0  0  0  0  0  0  0  0  0  0
   52.7841    7.0767   17.9371 H   0  0  0  0  0  0  0  0  0  0  0  0
   46.1680    9.2043   22.5008 H   0  0  0  0  0  0  0  0  0  0  0  0
   47.8702    8.8225   22.8606 H   0  0  0  0  0  0  0  0  0  0  0  0
   46.6987    7.5245   22.5343 H   0  0  0  0  0  0  0  0  0  0  0  0
   51.1894    7.9103   18.0072 H   0  0  0  0  0  0  0  0  0  0  0  0
   51.3431    6.8070   16.6665 H   0  0  0  0  0  0  0  0  0  0  0  0
   51.2128    7.3309   14.0941 H   0  0  0  0  0  0  0  0  0  0  0  0
   46.7599    9.4355   13.4427 H   0  0  0  0  0  0  0  0  0  0  0  0
   48.0425    8.6548   11.4926 H   0  0  0  0  0  0  0  0  0  0  0  0
   49.0985    6.9131   18.9331 H   0  0  0  0  0  0  0  0  0  0  0  0
   47.6445   10.8962   18.1741 H   0  0  0  0  0  0  0  0  0  0  0  0
   48.6929    7.2183   21.3372 H   0  0  0  0  0  0  0  0  0  0  0  0
   47.2344   11.2086   20.5895 H   0  0  0  0  0  0  0  0  0  0  0  0
   51.4163    6.9643   11.6732 H   0  0  0  0  0  0  0  0  0  0  0  0
   49.8511    6.7003   10.8989 H   0  0  0  0  0  0  0  0  0  0  0  0
   50.6621    8.2768   10.7549 H   0  0  0  0  0  0  0  0  0  0  0  0
   51.1560   10.0067   18.4418 H   0  0  0  0  0  0  0  0  0  0  0  0
   50.8062   11.1337   17.0964 H   0  0  0  0  0  0  0  0  0  0  0  0
   52.1279   11.4649   18.2530 H   0  0  0  0  0  0  0  0  0  0  0  0
   52.9865   11.4176   15.4044 H   0  0  0  0  0  0  0  0  0  0  0  0
   54.0000   11.4603   16.8792 H   0  0  0  0  0  0  0  0  0  0  0  0
   54.2657   10.1997   15.6555 H   0  0  0  0  0  0  0  0  0  0  0  0
   46.6084    9.4224   22.7891 H   0  0  0  0  0  0  0  0  0  0  0  0
   48.1116   10.3682   22.9614 H   0  0  0  0  0  0  0  0  0  0  0  0
   48.1371    8.6176   23.1969 H   0  0  0  0  0  0  0  0  0  0  0  0
   46.9371    9.7128   18.1063 H   0  0  0  0  0  0  0  0  0  0  0  0
   50.6481    9.5547   13.7833 H   0  0  0  0  0  0  0  0  0  0  0  0
   49.5806    7.8993   18.9865 H   0  0  0  0  0  0  0  0  0  0  0  0
   51.5603   10.4675   17.7860 H   0  0  0  0  0  0  0  0  0  0  0  0
   49.3732    7.4005   16.2194 H   0  0  0  0  0  0  0  0  0  0  0  0
   51.6732    8.1891   16.9403 H   0  0  0  0  0  0  0  0  0  0  0  0
 10  4  1  0
 11  8  2  0
 12 11  1  0
 13  7  1  0
 14  7  2  0
 15 10  2  0
 16 10  1  0
 17 15  1  0
 18 16  2  0
 19 18  1  0
 20 11  1  0
 21 13  1  0
 22 13  1  0
 23 19  1  0
  3  5  2  0
  9 12  2  0
 17 19  2  0
  2  1  1  0
  3  4  1  0
  4  1  2  0
  5  2  1  0
  6  1  1  0
  7  6  1  0
  8  2  1  0
  9  5  1  0
 33 27  1  0
 34 31  2  0
 35 34  1  0
 36 30  1  0
 37 30  2  0
 38 33  2  0
 39 33  1  0
 40 38  1  0
 41 39  2  0
 42 41  1  0
 43 34  1  0
 44 36  1  0
 45 36  1  0
 46 42  1  0
 26 28  2  0
 32 35  2  0
 40 42  2  0
 25 24  1  0
 26 27  1  0
 27 24  2  0
 28 25  1  0
 29 24  1  0
 30 29  1  0
 31 25  1  0
 32 28  1  0
 53 48  2  0
 54 51  1  0
 55 52  1  0
 53 47  1  0
 55 56  1  0
 54 55  1  0
 56 49  1  0
 53 54  1  0
 56 50  2  0
  6 57  1  0
  6 58  1  0
  8 59  1  0
  9 60  1  0
 12 61  1  0
 15 62  1  0
 16 63  1  0
 17 64  1  0
 18 65  1  0
 20 66  1  0
 20 67  1  0
 20 68  1  0
 21 69  1  0
 21 70  1  0
 21 71  1  0
 22 72  1  0
 22 73  1  0
 22 74  1  0
 23 75  1  0
 23 76  1  0
 23 77  1  0
 29 78  1  0
 29 79  1  0
 31 80  1  0
 32 81  1  0
 35 82  1  0
 38 83  1  0
 39 84  1  0
 40 85  1  0
 41 86  1  0
 43 87  1  0
 43 88  1  0
 43 89  1  0
 44 90  1  0
 44 91  1  0
 44 92  1  0
 45 93  1  0
 45 94  1  0
 45 95  1  0
 46 96  1  0
 46 97  1  0
 46 98  1  0
 47 99  1  0
 49100  1  0
 51101  1  0
 52102  1  0
 54103  1  1
 55104  1  1
M  END
> <Uni-Dock RESULT> 
ENERGY=   -6.284  LOWER_BOUND=    2.640  UPPER_BOUND=    5.372
INTER + INTRA:          -6.284
INTER:                  -6.284
INTRA:                   0.000
UNBOUND:                 0.000

$$$$
