
     RDKit          3D

104107  0  0  0  0  0  0  0  0999 V2000
   43.0029   12.2185   10.3312 C   0  0  0  0  0  0  0  0  0  0  0  0
   41.7726   12.8509   10.3851 N   0  0  0  0  0  0  0  0  0  0  0  0
   41.6728   11.1596   11.8533 N   0  0  0  0  0  0  0  0  0  0  0  0
   42.9014   11.1829   11.2452 C   0  0  0  0  0  0  0  0  0  0  0  0
   41.0119   12.1699   11.3332 C   0  0  0  0  0  0  0  0  0  0  0  0
   44.1166   12.6293    9.4213 C   0  0  0  0  0  0  0  0  0  0  0  0
   43.8792   12.1706    7.9793 C   0  0  0  0  0  0  0  0  0  0  0  0
   41.2926   13.9594    9.6836 C   0  0  0  0  0  0  0  0  0  0  0  0
   39.6963   12.6488   11.5844 C   0  0  0  0  0  0  0  0  0  0  0  0
   43.9280   10.2060   11.5346 C   0  0  0  0  0  0  0  0  0  0  0  0
   40.0467   14.4147    9.9199 C   0  0  0  0  0  0  0  0  0  0  0  0
   39.2325   13.7211   10.9150 C   0  0  0  0  0  0  0  0  0  0  0  0
   44.9824   12.1987    7.1214 N   0  0  0  0  0  0  0  0  0  0  0  0
   42.7630   11.8336    7.5790 O   0  0  0  0  0  0  0  0  0  0  0  0
   45.1187   10.5814   12.1655 C   0  0  0  0  0  0  0  0  0  0  0  0
   43.7227    8.8679   11.1882 C   0  0  0  0  0  0  0  0  0  0  0  0
   46.1024    9.6258   12.4338 C   0  0  0  0  0  0  0  0  0  0  0  0
   44.7085    7.9140   11.4553 C   0  0  0  0  0  0  0  0  0  0  0  0
   45.9007    8.2832   12.0898 C   0  0  0  0  0  0  0  0  0  0  0  0
   39.4412   15.5839    9.2097 C   0  0  0  0  0  0  0  0  0  0  0  0
   44.8396   11.6065    5.8011 C   0  0  0  0  0  0  0  0  0  0  0  0
   46.3449   12.4628    7.5574 C   0  0  0  0  0  0  0  0  0  0  0  0
   46.9681    7.2638   12.3586 C   0  0  0  0  0  0  0  0  0  0  0  0
   42.7683   11.2763   10.0637 C   0  0  0  0  0  0  0  0  0  0  0  0
   41.4309   11.5405   10.3027 N   0  0  0  0  0  0  0  0  0  0  0  0
   42.2829   10.8042   12.2404 N   0  0  0  0  0  0  0  0  0  0  0  0
   43.2739   10.8844   11.2933 C   0  0  0  0  0  0  0  0  0  0  0  0
   41.1922   11.2204   11.6365 C   0  0  0  0  0  0  0  0  0  0  0  0
   43.4096   11.3909    8.7185 C   0  0  0  0  0  0  0  0  0  0  0  0
   43.7057   12.8392    8.3319 C   0  0  0  0  0  0  0  0  0  0  0  0
   40.4325   12.0091    9.4436 C   0  0  0  0  0  0  0  0  0  0  0  0
   39.8643   11.3808   12.1193 C   0  0  0  0  0  0  0  0  0  0  0  0
   44.6489   10.5256   11.5807 C   0  0  0  0  0  0  0  0  0  0  0  0
   39.1740   12.1633    9.8993 C   0  0  0  0  0  0  0  0  0  0  0  0
   38.8983   11.8303   11.2949 C   0  0  0  0  0  0  0  0  0  0  0  0
   44.3835   13.0410    7.1304 N   0  0  0  0  0  0  0  0  0  0  0  0
   43.3509   13.7863    9.0365 O   0  0  0  0  0  0  0  0  0  0  0  0
   44.9247    9.3185   12.2313 C   0  0  0  0  0  0  0  0  0  0  0  0
   45.7085   11.3707   11.2320 C   0  0  0  0  0  0  0  0  0  0  0  0
   46.2440    8.9463   12.5042 C   0  0  0  0  0  0  0  0  0  0  0  0
   47.0282   11.0000   11.5068 C   0  0  0  0  0  0  0  0  0  0  0  0
   47.3057    9.7878   12.1502 C   0  0  0  0  0  0  0  0  0  0  0  0
   38.0407   12.6656    9.0609 C   0  0  0  0  0  0  0  0  0  0  0  0
   44.6630   14.4028    6.7014 C   0  0  0  0  0  0  0  0  0  0  0  0
   44.7621   11.9954    6.1906 C   0  0  0  0  0  0  0  0  0  0  0  0
   48.7217    9.3704   12.4155 C   0  0  0  0  0  0  0  0  0  0  0  0
   42.0969   12.4319    7.9879 O   0  0  0  0  0  0  0  0  0  0  0  0
   41.4460   11.0199    9.5892 O   0  0  0  0  0  0  0  0  0  0  0  0
   43.3376   10.4774   12.0862 O   0  0  0  0  0  0  0  0  0  0  0  0
   44.2648    9.1114   10.5794 O   0  0  0  0  0  0  0  0  0  0  0  0
   43.8474   13.7280    9.4709 O   0  0  0  0  0  0  0  0  0  0  0  0
   45.0410   11.2245    8.9455 O   0  0  0  0  0  0  0  0  0  0  0  0
   42.1991   11.9118    9.2298 C   0  0  0  0  0  0  0  0  0  0  0  0
   43.3272   12.5269   10.0562 C   0  0  1  0  0  0  0  0  0  0  0  0
   44.4601   11.5159   10.2267 C   0  0  1  0  0  0  0  0  0  0  0  0
   44.0050   10.2499   10.9414 C   0  0  0  0  0  0  0  0  0  0  0  0
   44.2330   13.7188    9.4256 H   0  0  0  0  0  0  0  0  0  0  0  0
   45.0489   12.1928    9.7896 H   0  0  0  0  0  0  0  0  0  0  0  0
   41.9503   14.4099    8.9528 H   0  0  0  0  0  0  0  0  0  0  0  0
   39.0912   12.1306   12.3188 H   0  0  0  0  0  0  0  0  0  0  0  0
   38.2280   14.0881   11.1065 H   0  0  0  0  0  0  0  0  0  0  0  0
   45.2803   11.6149   12.4608 H   0  0  0  0  0  0  0  0  0  0  0  0
   42.7928    8.5671   10.7103 H   0  0  0  0  0  0  0  0  0  0  0  0
   47.0215    9.9345   12.9262 H   0  0  0  0  0  0  0  0  0  0  0  0
   44.5334    6.8793   11.1694 H   0  0  0  0  0  0  0  0  0  0  0  0
   38.5256   15.2857    8.6867 H   0  0  0  0  0  0  0  0  0  0  0  0
   40.1269   16.0051    8.4657 H   0  0  0  0  0  0  0  0  0  0  0  0
   39.1936   16.3784    9.9222 H   0  0  0  0  0  0  0  0  0  0  0  0
   45.2728   10.6023    5.8218 H   0  0  0  0  0  0  0  0  0  0  0  0
   43.7941   11.5326    5.4926 H   0  0  0  0  0  0  0  0  0  0  0  0
   45.3738   12.2209    5.0708 H   0  0  0  0  0  0  0  0  0  0  0  0
   46.7758   11.5346    7.9434 H   0  0  0  0  0  0  0  0  0  0  0  0
   46.9388   12.8221    6.7122 H   0  0  0  0  0  0  0  0  0  0  0  0
   46.3679   13.2263    8.3381 H   0  0  0  0  0  0  0  0  0  0  0  0
   47.5193    7.5100   13.2734 H   0  0  0  0  0  0  0  0  0  0  0  0
   47.6703    7.2293   11.5195 H   0  0  0  0  0  0  0  0  0  0  0  0
   46.5315    6.2686   12.4989 H   0  0  0  0  0  0  0  0  0  0  0  0
   42.7519   10.9512    7.9603 H   0  0  0  0  0  0  0  0  0  0  0  0
   44.3476   10.8261    8.7183 H   0  0  0  0  0  0  0  0  0  0  0  0
   40.7204   12.2475    8.4283 H   0  0  0  0  0  0  0  0  0  0  0  0
   39.6627   11.1392   13.1560 H   0  0  0  0  0  0  0  0  0  0  0  0
   37.8852   11.9586   11.6653 H   0  0  0  0  0  0  0  0  0  0  0  0
   44.1080    8.6632   12.5275 H   0  0  0  0  0  0  0  0  0  0  0  0
   45.5142   12.3320   10.7624 H   0  0  0  0  0  0  0  0  0  0  0  0
   46.4348    7.9993   13.0040 H   0  0  0  0  0  0  0  0  0  0  0  0
   47.8363   11.6717   11.2254 H   0  0  0  0  0  0  0  0  0  0  0  0
   37.2300   11.9286    9.0266 H   0  0  0  0  0  0  0  0  0  0  0  0
   37.6418   13.6010    9.4706 H   0  0  0  0  0  0  0  0  0  0  0  0
   38.3558   12.8613    8.0290 H   0  0  0  0  0  0  0  0  0  0  0  0
   44.4028   15.1439    7.4607 H   0  0  0  0  0  0  0  0  0  0  0  0
   45.7309   14.4896    6.4782 H   0  0  0  0  0  0  0  0  0  0  0  0
   44.0854   14.6106    5.7958 H   0  0  0  0  0  0  0  0  0  0  0  0
   44.5791   10.9887    6.5682 H   0  0  0  0  0  0  0  0  0  0  0  0
   44.1851   12.1335    5.2690 H   0  0  0  0  0  0  0  0  0  0  0  0
   45.8301   12.0955    5.9676 H   0  0  0  0  0  0  0  0  0  0  0  0
   48.7894    8.7956   13.3458 H   0  0  0  0  0  0  0  0  0  0  0  0
   49.0913    8.7541   11.5895 H   0  0  0  0  0  0  0  0  0  0  0  0
   49.3749   10.2431   12.5244 H   0  0  0  0  0  0  0  0  0  0  0  0
   41.3493   11.9479    7.5792 H   0  0  0  0  0  0  0  0  0  0  0  0
   43.0880    9.5848   12.4097 H   0  0  0  0  0  0  0  0  0  0  0  0
   44.1224   13.4658    8.5686 H   0  0  0  0  0  0  0  0  0  0  0  0
   45.5330   10.3857    9.0507 H   0  0  0  0  0  0  0  0  0  0  0  0
   42.8969   12.8176   11.0204 H   0  0  0  0  0  0  0  0  0  0  0  0
   45.2660   11.9583   10.8243 H   0  0  0  0  0  0  0  0  0  0  0  0
 10  4  1  0
 11  8  2  0
 12 11  1  0
 13  7  1  0
 14  7  2  0
 15 10  2  0
 16 10  1  0
 17 15  1  0
 18 16  2  0
 19 18  1  0
 20 11  1  0
 21 13  1  0
 22 13  1  0
 23 19  1  0
  3  5  2  0
  9 12  2  0
 17 19  2  0
  2  1  1  0
  3  4  1  0
  4  1  2  0
  5  2  1  0
  6  1  1  0
  7  6  1  0
  8  2  1  0
  9  5  1  0
 33 27  1  0
 34 31  2  0
 35 34  1  0
 36 30  1  0
 37 30  2  0
 38 33  2  0
 39 33  1  0
 40 38  1  0
 41 39  2  0
 42 41  1  0
 43 34  1  0
 44 36  1  0
 45 36  1  0
 46 42  1  0
 26 28  2  0
 32 35  2  0
 40 42  2  0
 25 24  1  0
 26 27  1  0
 27 24  2  0
 28 25  1  0
 29 24  1  0
 30 29  1  0
 31 25  1  0
 32 28  1  0
 53 48  2  0
 54 51  1  0
 55 52  1  0
 53 47  1  0
 55 56  1  0
 54 55  1  0
 56 49  1  0
 53 54  1  0
 56 50  2  0
  6 57  1  0
  6 58  1  0
  8 59  1  0
  9 60  1  0
 12 61  1  0
 15 62  1  0
 16 63  1  0
 17 64  1  0
 18 65  1  0
 20 66  1  0
 20 67  1  0
 20 68  1  0
 21 69  1  0
 21 70  1  0
 21 71  1  0
 22 72  1  0
 22 73  1  0
 22 74  1  0
 23 75  1  0
 23 76  1  0
 23 77  1  0
 29 78  1  0
 29 79  1  0
 31 80  1  0
 32 81  1  0
 35 82  1  0
 38 83  1  0
 39 84  1  0
 40 85  1  0
 41 86  1  0
 43 87  1  0
 43 88  1  0
 43 89  1  0
 44 90  1  0
 44 91  1  0
 44 92  1  0
 45 93  1  0
 45 94  1  0
 45 95  1  0
 46 96  1  0
 46 97  1  0
 46 98  1  0
 47 99  1  0
 49100  1  0
 51101  1  0
 52102  1  0
 54103  1  6
 55104  1  6
M  END
> <Uni-Dock RESULT> 
ENERGY=   -6.899  LOWER_BOUND=    0.000  UPPER_BOUND=    0.000
INTER + INTRA:          -6.899
INTER:                  -6.899
INTRA:                   0.000
UNBOUND:                 0.000

$$$$

     RDKit          3D

104107  0  0  0  0  0  0  0  0999 V2000
   48.9716   14.9153   17.0511 C   0  0  0  0  0  0  0  0  0  0  0  0
   48.7161   15.6912   15.9334 N   0  0  0  0  0  0  0  0  0  0  0  0
   46.9715   14.2988   16.1420 N   0  0  0  0  0  0  0  0  0  0  0  0
   47.8785   14.0701   17.1444 C   0  0  0  0  0  0  0  0  0  0  0  0
   47.4841   15.2781   15.4305 C   0  0  0  0  0  0  0  0  0  0  0  0
   50.2089   15.0282   17.8839 C   0  0  0  0  0  0  0  0  0  0  0  0
   51.4151   14.3631   17.2140 C   0  0  0  0  0  0  0  0  0  0  0  0
   49.4675   16.7140   15.3498 C   0  0  0  0  0  0  0  0  0  0  0  0
   46.9894   15.9477   14.2773 C   0  0  0  0  0  0  0  0  0  0  0  0
   47.6880   13.0401   18.1419 C   0  0  0  0  0  0  0  0  0  0  0  0
   49.0008   17.3496   14.2573 C   0  0  0  0  0  0  0  0  0  0  0  0
   47.7077   16.9386   13.7158 C   0  0  0  0  0  0  0  0  0  0  0  0
   52.5250   14.1117   18.0256 N   0  0  0  0  0  0  0  0  0  0  0  0
   51.4275   14.0999   16.0096 O   0  0  0  0  0  0  0  0  0  0  0  0
   47.4855   13.3711   19.4858 C   0  0  0  0  0  0  0  0  0  0  0  0
   47.6962   11.6973   17.7556 C   0  0  0  0  0  0  0  0  0  0  0  0
   47.3076   12.3635   20.4377 C   0  0  0  0  0  0  0  0  0  0  0  0
   47.5203   10.6909   18.7092 C   0  0  0  0  0  0  0  0  0  0  0  0
   47.3137   11.0163   20.0552 C   0  0  0  0  0  0  0  0  0  0  0  0
   49.7388   18.4453   13.5554 C   0  0  0  0  0  0  0  0  0  0  0  0
   53.6154   13.3252   17.4717 C   0  0  0  0  0  0  0  0  0  0  0  0
   52.5305   14.2800   19.4706 C   0  0  0  0  0  0  0  0  0  0  0  0
   47.1450    9.9363   21.0828 C   0  0  0  0  0  0  0  0  0  0  0  0
   48.9756   13.9766   16.6862 C   0  0  0  0  0  0  0  0  0  0  0  0
   48.4443   14.4368   15.4939 N   0  0  0  0  0  0  0  0  0  0  0  0
   46.6998   13.9435   16.8116 N   0  0  0  0  0  0  0  0  0  0  0  0
   47.8740   13.7415   17.4939 C   0  0  0  0  0  0  0  0  0  0  0  0
   47.0593   14.3792   15.6248 C   0  0  0  0  0  0  0  0  0  0  0  0
   50.4386   13.7827   16.9230 C   0  0  0  0  0  0  0  0  0  0  0  0
   51.1677   15.0978   17.1943 C   0  0  0  0  0  0  0  0  0  0  0  0
   49.0796   14.8694   14.3262 C   0  0  0  0  0  0  0  0  0  0  0  0
   46.2801   14.7782   14.5042 C   0  0  0  0  0  0  0  0  0  0  0  0
   47.9003   13.2737   18.8660 C   0  0  0  0  0  0  0  0  0  0  0  0
   48.3433   15.2493   13.2637 C   0  0  0  0  0  0  0  0  0  0  0  0
   46.8876   15.1941   13.3760 C   0  0  0  0  0  0  0  0  0  0  0  0
   52.5220   15.0092   17.5130 N   0  0  0  0  0  0  0  0  0  0  0  0
   50.5947   16.1866   17.1209 O   0  0  0  0  0  0  0  0  0  0  0  0
   47.1229   12.1705   19.2331 C   0  0  0  0  0  0  0  0  0  0  0  0
   48.6793   13.9133   19.8369 C   0  0  0  0  0  0  0  0  0  0  0  0
   47.1453   11.6939   20.5469 C   0  0  0  0  0  0  0  0  0  0  0  0
   48.7004   13.4384   21.1517 C   0  0  0  0  0  0  0  0  0  0  0  0
   47.9290   12.3289   21.5181 C   0  0  0  0  0  0  0  0  0  0  0  0
   48.9296   15.7346   11.9752 C   0  0  0  0  0  0  0  0  0  0  0  0
   53.2697   16.2345   17.7505 C   0  0  0  0  0  0  0  0  0  0  0  0
   53.3039   13.7811   17.5353 C   0  0  0  0  0  0  0  0  0  0  0  0
   47.9757   11.7951   22.9190 C   0  0  0  0  0  0  0  0  0  0  0  0
   50.9813   14.8348   15.5305 O   0  0  0  0  0  0  0  0  0  0  0  0
   49.0187   13.8045   15.2693 O   0  0  0  0  0  0  0  0  0  0  0  0
   47.0631   13.4706   17.7535 O   0  0  0  0  0  0  0  0  0  0  0  0
   48.4634   11.7666   18.1165 O   0  0  0  0  0  0  0  0  0  0  0  0
   50.3064   16.1436   17.7156 O   0  0  0  0  0  0  0  0  0  0  0  0
   50.6283   13.4620   18.5360 O   0  0  0  0  0  0  0  0  0  0  0  0
   49.7349   14.5249   15.9473 C   0  0  0  0  0  0  0  0  0  0  0  0
   49.3786   15.1312   17.3036 C   0  0  1  0  0  0  0  0  0  0  0  0
   49.3219   14.0349   18.3664 C   0  0  1  0  0  0  0  0  0  0  0  0
   48.2766   12.9729   18.0492 C   0  0  0  0  0  0  0  0  0  0  0  0
   50.4505   16.0805   18.0706 H   0  0  0  0  0  0  0  0  0  0  0  0
   50.0251   14.5516   18.8505 H   0  0  0  0  0  0  0  0  0  0  0  0
   50.4216   16.9511   15.8006 H   0  0  0  0  0  0  0  0  0  0  0  0
   46.0327   15.6387   13.8732 H   0  0  0  0  0  0  0  0  0  0  0  0
   47.3305   17.4510   12.8353 H   0  0  0  0  0  0  0  0  0  0  0  0
   47.4538   14.4127   19.7950 H   0  0  0  0  0  0  0  0  0  0  0  0
   47.8388   11.4339   16.7097 H   0  0  0  0  0  0  0  0  0  0  0  0
   47.1500   12.6385   21.4779 H   0  0  0  0  0  0  0  0  0  0  0  0
   47.5392    9.6515   18.3897 H   0  0  0  0  0  0  0  0  0  0  0  0
   49.9284   18.1751   12.5104 H   0  0  0  0  0  0  0  0  0  0  0  0
   50.7071   18.6482   14.0271 H   0  0  0  0  0  0  0  0  0  0  0  0
   49.1570   19.3734   13.5763 H   0  0  0  0  0  0  0  0  0  0  0  0
   53.5141   12.2944   17.8233 H   0  0  0  0  0  0  0  0  0  0  0  0
   53.6120   13.3265   16.3792 H   0  0  0  0  0  0  0  0  0  0  0  0
   54.5682   13.7376   17.8157 H   0  0  0  0  0  0  0  0  0  0  0  0
   52.0990   13.3858   19.9294 H   0  0  0  0  0  0  0  0  0  0  0  0
   53.5574   14.4161   19.8214 H   0  0  0  0  0  0  0  0  0  0  0  0
   51.9507   15.1567   19.7674 H   0  0  0  0  0  0  0  0  0  0  0  0
   46.4783   10.2663   21.8878 H   0  0  0  0  0  0  0  0  0  0  0  0
   48.1176    9.6754   21.5122 H   0  0  0  0  0  0  0  0  0  0  0  0
   46.6999    9.0395   20.6378 H   0  0  0  0  0  0  0  0  0  0  0  0
   50.8911   13.3030   16.0478 H   0  0  0  0  0  0  0  0  0  0  0  0
   50.5786   13.1172   17.7811 H   0  0  0  0  0  0  0  0  0  0  0  0
   50.1612   14.8952   14.3277 H   0  0  0  0  0  0  0  0  0  0  0  0
   45.2008   14.7425   14.5910 H   0  0  0  0  0  0  0  0  0  0  0  0
   46.2923   15.5046   12.5220 H   0  0  0  0  0  0  0  0  0  0  0  0
   46.4958   11.6784   18.4924 H   0  0  0  0  0  0  0  0  0  0  0  0
   49.2595   14.7970   19.5826 H   0  0  0  0  0  0  0  0  0  0  0  0
   46.5385   10.8297   20.8074 H   0  0  0  0  0  0  0  0  0  0  0  0
   49.3144   13.9502   21.8896 H   0  0  0  0  0  0  0  0  0  0  0  0
   48.5998   15.1056   11.1402 H   0  0  0  0  0  0  0  0  0  0  0  0
   48.6206   16.7672   11.7747 H   0  0  0  0  0  0  0  0  0  0  0  0
   50.0257   15.7125   11.9951 H   0  0  0  0  0  0  0  0  0  0  0  0
   52.6298   17.1198   17.7690 H   0  0  0  0  0  0  0  0  0  0  0  0
   53.7831   16.1528   18.7135 H   0  0  0  0  0  0  0  0  0  0  0  0
   54.0102   16.3533   16.9539 H   0  0  0  0  0  0  0  0  0  0  0  0
   52.7006   12.8828   17.3996 H   0  0  0  0  0  0  0  0  0  0  0  0
   54.0459   13.8291   16.7301 H   0  0  0  0  0  0  0  0  0  0  0  0
   53.8198   13.7125   18.4995 H   0  0  0  0  0  0  0  0  0  0  0  0
   47.0031   11.3829   23.2102 H   0  0  0  0  0  0  0  0  0  0  0  0
   48.7322   11.0073   22.9945 H   0  0  0  0  0  0  0  0  0  0  0  0
   48.2197   12.5884   23.6340 H   0  0  0  0  0  0  0  0  0  0  0  0
   51.0713   14.3821   14.6661 H   0  0  0  0  0  0  0  0  0  0  0  0
   46.5153   12.6826   17.5464 H   0  0  0  0  0  0  0  0  0  0  0  0
   51.1793   15.7007   17.7030 H   0  0  0  0  0  0  0  0  0  0  0  0
   50.4957   12.6002   18.9792 H   0  0  0  0  0  0  0  0  0  0  0  0
   48.4113   15.6312   17.1873 H   0  0  0  0  0  0  0  0  0  0  0  0
   49.0611   14.4720   19.3375 H   0  0  0  0  0  0  0  0  0  0  0  0
 10  4  1  0
 11  8  2  0
 12 11  1  0
 13  7  1  0
 14  7  2  0
 15 10  2  0
 16 10  1  0
 17 15  1  0
 18 16  2  0
 19 18  1  0
 20 11  1  0
 21 13  1  0
 22 13  1  0
 23 19  1  0
  3  5  2  0
  9 12  2  0
 17 19  2  0
  2  1  1  0
  3  4  1  0
  4  1  2  0
  5  2  1  0
  6  1  1  0
  7  6  1  0
  8  2  1  0
  9  5  1  0
 33 27  1  0
 34 31  2  0
 35 34  1  0
 36 30  1  0
 37 30  2  0
 38 33  2  0
 39 33  1  0
 40 38  1  0
 41 39  2  0
 42 41  1  0
 43 34  1  0
 44 36  1  0
 45 36  1  0
 46 42  1  0
 26 28  2  0
 32 35  2  0
 40 42  2  0
 25 24  1  0
 26 27  1  0
 27 24  2  0
 28 25  1  0
 29 24  1  0
 30 29  1  0
 31 25  1  0
 32 28  1  0
 53 48  2  0
 54 51  1  0
 55 52  1  0
 53 47  1  0
 55 56  1  0
 54 55  1  0
 56 49  1  0
 53 54  1  0
 56 50  2  0
  6 57  1  0
  6 58  1  0
  8 59  1  0
  9 60  1  0
 12 61  1  0
 15 62  1  0
 16 63  1  0
 17 64  1  0
 18 65  1  0
 20 66  1  0
 20 67  1  0
 20 68  1  0
 21 69  1  0
 21 70  1  0
 21 71  1  0
 22 72  1  0
 22 73  1  0
 22 74  1  0
 23 75  1  0
 23 76  1  0
 23 77  1  0
 29 78  1  0
 29 79  1  0
 31 80  1  0
 32 81  1  0
 35 82  1  0
 38 83  1  0
 39 84  1  0
 40 85  1  0
 41 86  1  0
 43 87  1  0
 43 88  1  0
 43 89  1  0
 44 90  1  0
 44 91  1  0
 44 92  1  0
 45 93  1  0
 45 94  1  0
 45 95  1  0
 46 96  1  0
 46 97  1  0
 46 98  1  0
 47 99  1  0
 49100  1  0
 51101  1  0
 52102  1  0
 54103  1  6
 55104  1  6
M  END
> <Uni-Dock RESULT> 
ENERGY=   -6.457  LOWER_BOUND=    7.930  UPPER_BOUND=   10.156
INTER + INTRA:          -6.457
INTER:                  -6.457
INTRA:                   0.000
UNBOUND:                 0.000

$$$$

     RDKit          3D

104107  0  0  0  0  0  0  0  0999 V2000
   49.6060   10.4223   15.5736 C   0  0  0  0  0  0  0  0  0  0  0  0
   49.5580   10.2103   14.2064 N   0  0  0  0  0  0  0  0  0  0  0  0
   47.8481    9.0535   15.0804 N   0  0  0  0  0  0  0  0  0  0  0  0
   48.5412    9.6928   16.0757 C   0  0  0  0  0  0  0  0  0  0  0  0
   48.4648    9.3805   13.9665 C   0  0  0  0  0  0  0  0  0  0  0  0
   50.6467   11.2516   16.2565 C   0  0  0  0  0  0  0  0  0  0  0  0
   51.9816   10.5107   16.3799 C   0  0  0  0  0  0  0  0  0  0  0  0
   50.3816   10.6913   13.1858 C   0  0  0  0  0  0  0  0  0  0  0  0
   48.1930    9.0292   12.6152 C   0  0  0  0  0  0  0  0  0  0  0  0
   48.1838    9.5689   17.4717 C   0  0  0  0  0  0  0  0  0  0  0  0
   50.1260   10.3600   11.9051 C   0  0  0  0  0  0  0  0  0  0  0  0
   48.9807    9.4964   11.6281 C   0  0  0  0  0  0  0  0  0  0  0  0
   52.9125   11.0390   17.2790 N   0  0  0  0  0  0  0  0  0  0  0  0
   52.2435    9.5223   15.6913 O   0  0  0  0  0  0  0  0  0  0  0  0
   47.7058   10.6694   18.1907 C   0  0  0  0  0  0  0  0  0  0  0  0
   48.3083    8.3307   18.1073 C   0  0  0  0  0  0  0  0  0  0  0  0
   47.3693   10.5338   19.5403 C   0  0  0  0  0  0  0  0  0  0  0  0
   47.9734    8.1973   19.4575 C   0  0  0  0  0  0  0  0  0  0  0  0
   47.4910    9.2945   20.1813 C   0  0  0  0  0  0  0  0  0  0  0  0
   50.9582   10.8140   10.7478 C   0  0  0  0  0  0  0  0  0  0  0  0
   54.1142   10.2679   17.5539 C   0  0  0  0  0  0  0  0  0  0  0  0
   52.6224   12.1201   18.2082 C   0  0  0  0  0  0  0  0  0  0  0  0
   47.1504    9.1574   21.6359 C   0  0  0  0  0  0  0  0  0  0  0  0
   49.7103    9.4937   15.9492 C   0  0  0  0  0  0  0  0  0  0  0  0
   49.4165    8.9575   14.7075 N   0  0  0  0  0  0  0  0  0  0  0  0
   47.4576    9.1938   15.7705 N   0  0  0  0  0  0  0  0  0  0  0  0
   48.4760    9.6828   16.5509 C   0  0  0  0  0  0  0  0  0  0  0  0
   48.0357    8.7837   14.6636 C   0  0  0  0  0  0  0  0  0  0  0  0
   51.1008    9.7390   16.4395 C   0  0  0  0  0  0  0  0  0  0  0  0
   51.7221   10.9970   15.8343 C   0  0  0  0  0  0  0  0  0  0  0  0
   50.2608    8.6012   13.6519 C   0  0  0  0  0  0  0  0  0  0  0  0
   47.4865    8.2111   13.4835 C   0  0  0  0  0  0  0  0  0  0  0  0
   48.2394   10.2530   17.8628 C   0  0  0  0  0  0  0  0  0  0  0  0
   49.7425    8.0598   12.5322 C   0  0  0  0  0  0  0  0  0  0  0  0
   48.2963    7.8643   12.4641 C   0  0  0  0  0  0  0  0  0  0  0  0
   52.9868   11.3565   16.2982 N   0  0  0  0  0  0  0  0  0  0  0  0
   51.1444   11.6556   14.9673 O   0  0  0  0  0  0  0  0  0  0  0  0
   47.4362    9.5655   18.7784 C   0  0  0  0  0  0  0  0  0  0  0  0
   48.7885   11.4872   18.2284 C   0  0  0  0  0  0  0  0  0  0  0  0
   47.2078   10.0899   20.0537 C   0  0  0  0  0  0  0  0  0  0  0  0
   48.5585   12.0134   19.5031 C   0  0  0  0  0  0  0  0  0  0  0  0
   47.7615   11.3218   20.4233 C   0  0  0  0  0  0  0  0  0  0  0  0
   50.5617    7.6543   11.3473 C   0  0  0  0  0  0  0  0  0  0  0  0
   53.6357   12.5291   15.7321 C   0  0  0  0  0  0  0  0  0  0  0  0
   53.7833   10.5949   17.2498 C   0  0  0  0  0  0  0  0  0  0  0  0
   47.5409   11.8659   21.8035 C   0  0  0  0  0  0  0  0  0  0  0  0
   51.8818    9.6730   14.7883 O   0  0  0  0  0  0  0  0  0  0  0  0
   50.0423    8.4360   15.0490 O   0  0  0  0  0  0  0  0  0  0  0  0
   47.6377    9.5285   16.8186 O   0  0  0  0  0  0  0  0  0  0  0  0
   48.9850    8.7414   18.4190 O   0  0  0  0  0  0  0  0  0  0  0  0
   50.7438   11.9726   15.3889 O   0  0  0  0  0  0  0  0  0  0  0  0
   50.9715   10.6022   17.8462 O   0  0  0  0  0  0  0  0  0  0  0  0
   50.5865    9.5257   15.1402 C   0  0  0  0  0  0  0  0  0  0  0  0
   49.9474   10.8119   15.6612 C   0  0  1  0  0  0  0  0  0  0  0  0
   49.7098   10.7037   17.1666 C   0  0  1  0  0  0  0  0  0  0  0  0
   48.7808    9.5510   17.5260 C   0  0  0  0  0  0  0  0  0  0  0  0
   50.8154   12.1842   15.7065 H   0  0  0  0  0  0  0  0  0  0  0  0
   50.2861   11.5137   17.2548 H   0  0  0  0  0  0  0  0  0  0  0  0
   51.2183   11.3139   13.4722 H   0  0  0  0  0  0  0  0  0  0  0  0
   47.3464    8.3845   12.4111 H   0  0  0  0  0  0  0  0  0  0  0  0
   48.7736    9.2292   10.5956 H   0  0  0  0  0  0  0  0  0  0  0  0
   47.5825   11.6322   17.7014 H   0  0  0  0  0  0  0  0  0  0  0  0
   48.6658    7.4675   17.5498 H   0  0  0  0  0  0  0  0  0  0  0  0
   46.9979   11.3992   20.0839 H   0  0  0  0  0  0  0  0  0  0  0  0
   48.0861    7.2273   19.9363 H   0  0  0  0  0  0  0  0  0  0  0  0
   51.3616    9.9539   10.2017 H   0  0  0  0  0  0  0  0  0  0  0  0
   51.8055   11.4276   11.0745 H   0  0  0  0  0  0  0  0  0  0  0  0
   50.3575   11.4160   10.0571 H   0  0  0  0  0  0  0  0  0  0  0  0
   53.9740    9.7297   18.4958 H   0  0  0  0  0  0  0  0  0  0  0  0
   54.3305    9.5447   16.7640 H   0  0  0  0  0  0  0  0  0  0  0  0
   54.9661   10.9480   17.6438 H   0  0  0  0  0  0  0  0  0  0  0  0
   52.1335   11.7010   19.0922 H   0  0  0  0  0  0  0  0  0  0  0  0
   53.5534   12.6140   18.5004 H   0  0  0  0  0  0  0  0  0  0  0  0
   51.9697   12.8675   17.7519 H   0  0  0  0  0  0  0  0  0  0  0  0
   46.3262    9.8271   21.9071 H   0  0  0  0  0  0  0  0  0  0  0  0
   48.0240    9.4038   22.2480 H   0  0  0  0  0  0  0  0  0  0  0  0
   46.8299    8.1355   21.8676 H   0  0  0  0  0  0  0  0  0  0  0  0
   51.7336    8.8794   16.1920 H   0  0  0  0  0  0  0  0  0  0  0  0
   51.0845    9.8419   17.5294 H   0  0  0  0  0  0  0  0  0  0  0  0
   51.3188    8.7915   13.7740 H   0  0  0  0  0  0  0  0  0  0  0  0
   46.4134    8.0723   13.4321 H   0  0  0  0  0  0  0  0  0  0  0  0
   47.8761    7.4324   11.5603 H   0  0  0  0  0  0  0  0  0  0  0  0
   46.9853    8.6156   18.4981 H   0  0  0  0  0  0  0  0  0  0  0  0
   49.3822   12.0576   17.5181 H   0  0  0  0  0  0  0  0  0  0  0  0
   46.5861    9.5338   20.7517 H   0  0  0  0  0  0  0  0  0  0  0  0
   48.9965   12.9737   19.7663 H   0  0  0  0  0  0  0  0  0  0  0  0
   50.4249    6.5886   11.1301 H   0  0  0  0  0  0  0  0  0  0  0  0
   50.2697    8.2292   10.4605 H   0  0  0  0  0  0  0  0  0  0  0  0
   51.6317    7.8241   11.5171 H   0  0  0  0  0  0  0  0  0  0  0  0
   52.9799   13.0891   15.0613 H   0  0  0  0  0  0  0  0  0  0  0  0
   53.9472   13.1880   16.5486 H   0  0  0  0  0  0  0  0  0  0  0  0
   54.5175   12.2054   15.1712 H   0  0  0  0  0  0  0  0  0  0  0  0
   53.2457    9.7520   17.6855 H   0  0  0  0  0  0  0  0  0  0  0  0
   54.6703   10.2137   16.7310 H   0  0  0  0  0  0  0  0  0  0  0  0
   54.0965   11.2644   18.0585 H   0  0  0  0  0  0  0  0  0  0  0  0
   46.5420   11.6036   22.1693 H   0  0  0  0  0  0  0  0  0  0  0  0
   48.2893   11.4580   22.4908 H   0  0  0  0  0  0  0  0  0  0  0  0
   47.6132   12.9589   21.8113 H   0  0  0  0  0  0  0  0  0  0  0  0
   52.1568    8.7831   14.4839 H   0  0  0  0  0  0  0  0  0  0  0  0
   47.1657    8.7278   17.1348 H   0  0  0  0  0  0  0  0  0  0  0  0
   51.6139   11.7773   15.7929 H   0  0  0  0  0  0  0  0  0  0  0  0
   50.7773   10.2435   18.7352 H   0  0  0  0  0  0  0  0  0  0  0  0
   49.0092   10.9487   15.1131 H   0  0  0  0  0  0  0  0  0  0  0  0
   49.2466   11.6259   17.5368 H   0  0  0  0  0  0  0  0  0  0  0  0
 10  4  1  0
 11  8  2  0
 12 11  1  0
 13  7  1  0
 14  7  2  0
 15 10  2  0
 16 10  1  0
 17 15  1  0
 18 16  2  0
 19 18  1  0
 20 11  1  0
 21 13  1  0
 22 13  1  0
 23 19  1  0
  3  5  2  0
  9 12  2  0
 17 19  2  0
  2  1  1  0
  3  4  1  0
  4  1  2  0
  5  2  1  0
  6  1  1  0
  7  6  1  0
  8  2  1  0
  9  5  1  0
 33 27  1  0
 34 31  2  0
 35 34  1  0
 36 30  1  0
 37 30  2  0
 38 33  2  0
 39 33  1  0
 40 38  1  0
 41 39  2  0
 42 41  1  0
 43 34  1  0
 44 36  1  0
 45 36  1  0
 46 42  1  0
 26 28  2  0
 32 35  2  0
 40 42  2  0
 25 24  1  0
 26 27  1  0
 27 24  2  0
 28 25  1  0
 29 24  1  0
 30 29  1  0
 31 25  1  0
 32 28  1  0
 53 48  2  0
 54 51  1  0
 55 52  1  0
 53 47  1  0
 55 56  1  0
 54 55  1  0
 56 49  1  0
 53 54  1  0
 56 50  2  0
  6 57  1  0
  6 58  1  0
  8 59  1  0
  9 60  1  0
 12 61  1  0
 15 62  1  0
 16 63  1  0
 17 64  1  0
 18 65  1  0
 20 66  1  0
 20 67  1  0
 20 68  1  0
 21 69  1  0
 21 70  1  0
 21 71  1  0
 22 72  1  0
 22 73  1  0
 22 74  1  0
 23 75  1  0
 23 76  1  0
 23 77  1  0
 29 78  1  0
 29 79  1  0
 31 80  1  0
 32 81  1  0
 35 82  1  0
 38 83  1  0
 39 84  1  0
 40 85  1  0
 41 86  1  0
 43 87  1  0
 43 88  1  0
 43 89  1  0
 44 90  1  0
 44 91  1  0
 44 92  1  0
 45 93  1  0
 45 94  1  0
 45 95  1  0
 46 96  1  0
 46 97  1  0
 46 98  1  0
 47 99  1  0
 49100  1  0
 51101  1  0
 52102  1  0
 54103  1  6
 55104  1  6
M  END
> <Uni-Dock RESULT> 
ENERGY=   -6.126  LOWER_BOUND=    7.267  UPPER_BOUND=    9.930
INTER + INTRA:          -6.126
INTER:                  -6.126
INTRA:                   0.000
UNBOUND:                 0.000

$$$$

     RDKit          3D

104107  0  0  0  0  0  0  0  0999 V2000
   48.1768    7.4985   17.6600 C   0  0  0  0  0  0  0  0  0  0  0  0
   47.9602    6.1843   17.2823 N   0  0  0  0  0  0  0  0  0  0  0  0
   47.7396    6.2401   19.5127 N   0  0  0  0  0  0  0  0  0  0  0  0
   48.0357    7.4917   19.0377 C   0  0  0  0  0  0  0  0  0  0  0  0
   47.6897    5.4706   18.4480 C   0  0  0  0  0  0  0  0  0  0  0  0
   48.5160    8.5990   16.7055 C   0  0  0  0  0  0  0  0  0  0  0  0
   49.9807    8.5429   16.2610 C   0  0  0  0  0  0  0  0  0  0  0  0
   47.9748    5.5912   16.0178 C   0  0  0  0  0  0  0  0  0  0  0  0
   47.4125    4.0818   18.3164 C   0  0  0  0  0  0  0  0  0  0  0  0
   48.1991    8.6333   19.9106 C   0  0  0  0  0  0  0  0  0  0  0  0
   47.7125    4.2758   15.8907 C   0  0  0  0  0  0  0  0  0  0  0  0
   47.4192    3.5078   17.0984 C   0  0  0  0  0  0  0  0  0  0  0  0
   50.4954    9.6887   15.6478 N   0  0  0  0  0  0  0  0  0  0  0  0
   50.6632    7.5251   16.3959 O   0  0  0  0  0  0  0  0  0  0  0  0
   47.2966    9.7014   19.8721 C   0  0  0  0  0  0  0  0  0  0  0  0
   49.2670    8.6644   20.8113 C   0  0  0  0  0  0  0  0  0  0  0  0
   47.4715   10.7990   20.7192 C   0  0  0  0  0  0  0  0  0  0  0  0
   49.4416    9.7638   21.6561 C   0  0  0  0  0  0  0  0  0  0  0  0
   48.5395   10.8341   21.6245 C   0  0  0  0  0  0  0  0  0  0  0  0
   47.7188    3.5502   14.5825 C   0  0  0  0  0  0  0  0  0  0  0  0
   51.9227    9.7375   15.3741 C   0  0  0  0  0  0  0  0  0  0  0  0
   49.7883   10.9577   15.5720 C   0  0  0  0  0  0  0  0  0  0  0  0
   48.7374   12.0240   22.5166 C   0  0  0  0  0  0  0  0  0  0  0  0
   48.9614    7.4333   18.2880 C   0  0  0  0  0  0  0  0  0  0  0  0
   48.8187    6.0572   18.3251 N   0  0  0  0  0  0  0  0  0  0  0  0
   47.5350    6.8677   19.9737 N   0  0  0  0  0  0  0  0  0  0  0  0
   48.1095    7.9014   19.2761 C   0  0  0  0  0  0  0  0  0  0  0  0
   47.9532    5.7732   19.3782 C   0  0  0  0  0  0  0  0  0  0  0  0
   49.8920    8.1467   17.3610 C   0  0  0  0  0  0  0  0  0  0  0  0
   49.3428    8.2421   15.9384 C   0  0  0  0  0  0  0  0  0  0  0  0
   49.4005    5.0644   17.5313 C   0  0  0  0  0  0  0  0  0  0  0  0
   47.6699    4.4046   19.6400 C   0  0  0  0  0  0  0  0  0  0  0  0
   47.8730    9.2905   19.6177 C   0  0  0  0  0  0  0  0  0  0  0  0
   49.1323    3.7670   17.7766 C   0  0  0  0  0  0  0  0  0  0  0  0
   48.2295    3.4440   18.8790 C   0  0  0  0  0  0  0  0  0  0  0  0
   50.1019    8.9672   15.0210 N   0  0  0  0  0  0  0  0  0  0  0  0
   48.2891    7.6935   15.6094 O   0  0  0  0  0  0  0  0  0  0  0  0
   47.9860    9.7015   20.9499 C   0  0  0  0  0  0  0  0  0  0  0  0
   47.5196   10.2289   18.6415 C   0  0  0  0  0  0  0  0  0  0  0  0
   47.7772   11.0388   21.2987 C   0  0  0  0  0  0  0  0  0  0  0  0
   47.3083   11.5662   18.9901 C   0  0  0  0  0  0  0  0  0  0  0  0
   47.4296   11.9802   20.3221 C   0  0  0  0  0  0  0  0  0  0  0  0
   49.6985    2.6346   16.9788 C   0  0  0  0  0  0  0  0  0  0  0  0
   49.6386    9.0629   13.6452 C   0  0  0  0  0  0  0  0  0  0  0  0
   51.3986    9.5719   15.2913 C   0  0  0  0  0  0  0  0  0  0  0  0
   47.2381   13.4203   20.6949 C   0  0  0  0  0  0  0  0  0  0  0  0
   50.0931    6.7459   16.2043 O   0  0  0  0  0  0  0  0  0  0  0  0
   49.6894    6.2057   18.3320 O   0  0  0  0  0  0  0  0  0  0  0  0
   47.6866    7.9688   20.0603 O   0  0  0  0  0  0  0  0  0  0  0  0
   49.5420    9.2056   20.2153 O   0  0  0  0  0  0  0  0  0  0  0  0
   47.8952    8.1596   15.8668 O   0  0  0  0  0  0  0  0  0  0  0  0
   49.5572    9.7628   17.4902 O   0  0  0  0  0  0  0  0  0  0  0  0
   49.3642    6.8356   17.3374 C   0  0  0  0  0  0  0  0  0  0  0  0
   48.1770    7.7904   17.2232 C   0  0  1  0  0  0  0  0  0  0  0  0
   48.4402    9.0507   18.0459 C   0  0  1  0  0  0  0  0  0  0  0  0
   48.6439    8.7462   19.5246 C   0  0  0  0  0  0  0  0  0  0  0  0
   47.8794    8.5442   15.8154 H   0  0  0  0  0  0  0  0  0  0  0  0
   48.3241    9.5580   17.1943 H   0  0  0  0  0  0  0  0  0  0  0  0
   48.2146    6.2232   15.1735 H   0  0  0  0  0  0  0  0  0  0  0  0
   47.2002    3.5118   19.2132 H   0  0  0  0  0  0  0  0  0  0  0  0
   47.2070    2.4472   16.9967 H   0  0  0  0  0  0  0  0  0  0  0  0
   46.4487    9.6783   19.1923 H   0  0  0  0  0  0  0  0  0  0  0  0
   49.9641    7.8303   20.8562 H   0  0  0  0  0  0  0  0  0  0  0  0
   46.7598   11.6201   20.6771 H   0  0  0  0  0  0  0  0  0  0  0  0
   50.2844    9.7731   22.3435 H   0  0  0  0  0  0  0  0  0  0  0  0
   48.4489    2.7331   14.5978 H   0  0  0  0  0  0  0  0  0  0  0  0
   47.9817    4.2153   13.7519 H   0  0  0  0  0  0  0  0  0  0  0  0
   46.7289    3.1303   14.3727 H   0  0  0  0  0  0  0  0  0  0  0  0
   52.4084   10.3185   16.1633 H   0  0  0  0  0  0  0  0  0  0  0  0
   52.3715    8.7418   15.3431 H   0  0  0  0  0  0  0  0  0  0  0  0
   52.0879   10.2222   14.4076 H   0  0  0  0  0  0  0  0  0  0  0  0
   49.9351   11.4977   16.5116 H   0  0  0  0  0  0  0  0  0  0  0  0
   50.1819   11.5493   14.7406 H   0  0  0  0  0  0  0  0  0  0  0  0
   48.7200   10.8041   15.4041 H   0  0  0  0  0  0  0  0  0  0  0  0
   47.7735   12.4613   22.8012 H   0  0  0  0  0  0  0  0  0  0  0  0
   49.3324   12.7831   21.9988 H   0  0  0  0  0  0  0  0  0  0  0  0
   49.2514   11.7381   23.4411 H   0  0  0  0  0  0  0  0  0  0  0  0
   50.8541    7.6231   17.3330 H   0  0  0  0  0  0  0  0  0  0  0  0
   50.0706    9.1584   17.7396 H   0  0  0  0  0  0  0  0  0  0  0  0
   50.0464    5.3860   16.7251 H   0  0  0  0  0  0  0  0  0  0  0  0
   46.9956    4.1668   20.4539 H   0  0  0  0  0  0  0  0  0  0  0  0
   48.0083    2.3987   19.0751 H   0  0  0  0  0  0  0  0  0  0  0  0
   48.2383    8.9768   21.7214 H   0  0  0  0  0  0  0  0  0  0  0  0
   47.3865    9.9229   17.6066 H   0  0  0  0  0  0  0  0  0  0  0  0
   47.8781   11.3368   22.3398 H   0  0  0  0  0  0  0  0  0  0  0  0
   47.0359   12.2787   18.2145 H   0  0  0  0  0  0  0  0  0  0  0  0
   50.2643    1.9529   17.6243 H   0  0  0  0  0  0  0  0  0  0  0  0
   48.8973    2.0661   16.4920 H   0  0  0  0  0  0  0  0  0  0  0  0
   50.3779    2.9908   16.1952 H   0  0  0  0  0  0  0  0  0  0  0  0
   48.6428    8.6354   13.5069 H   0  0  0  0  0  0  0  0  0  0  0  0
   49.6106   10.1179   13.3555 H   0  0  0  0  0  0  0  0  0  0  0  0
   50.3425    8.5285   13.0003 H   0  0  0  0  0  0  0  0  0  0  0  0
   51.6885    9.5201   16.3414 H   0  0  0  0  0  0  0  0  0  0  0  0
   52.1546    9.0502   14.6935 H   0  0  0  0  0  0  0  0  0  0  0  0
   51.3628   10.6250   14.9910 H   0  0  0  0  0  0  0  0  0  0  0  0
   46.7979   13.5075   21.6945 H   0  0  0  0  0  0  0  0  0  0  0  0
   48.2011   13.9410   20.6842 H   0  0  0  0  0  0  0  0  0  0  0  0
   46.5587   13.9203   19.9959 H   0  0  0  0  0  0  0  0  0  0  0  0
   50.8102    6.1147   16.4225 H   0  0  0  0  0  0  0  0  0  0  0  0
   47.9660    7.8376   20.9923 H   0  0  0  0  0  0  0  0  0  0  0  0
   48.7342    8.5379   15.5328 H   0  0  0  0  0  0  0  0  0  0  0  0
   49.8722   10.3700   18.1894 H   0  0  0  0  0  0  0  0  0  0  0  0
   47.2950    7.2501   17.5831 H   0  0  0  0  0  0  0  0  0  0  0  0
   47.5846    9.7318   17.9661 H   0  0  0  0  0  0  0  0  0  0  0  0
 10  4  1  0
 11  8  2  0
 12 11  1  0
 13  7  1  0
 14  7  2  0
 15 10  2  0
 16 10  1  0
 17 15  1  0
 18 16  2  0
 19 18  1  0
 20 11  1  0
 21 13  1  0
 22 13  1  0
 23 19  1  0
  3  5  2  0
  9 12  2  0
 17 19  2  0
  2  1  1  0
  3  4  1  0
  4  1  2  0
  5  2  1  0
  6  1  1  0
  7  6  1  0
  8  2  1  0
  9  5  1  0
 33 27  1  0
 34 31  2  0
 35 34  1  0
 36 30  1  0
 37 30  2  0
 38 33  2  0
 39 33  1  0
 40 38  1  0
 41 39  2  0
 42 41  1  0
 43 34  1  0
 44 36  1  0
 45 36  1  0
 46 42  1  0
 26 28  2  0
 32 35  2  0
 40 42  2  0
 25 24  1  0
 26 27  1  0
 27 24  2  0
 28 25  1  0
 29 24  1  0
 30 29  1  0
 31 25  1  0
 32 28  1  0
 53 48  2  0
 54 51  1  0
 55 52  1  0
 53 47  1  0
 55 56  1  0
 54 55  1  0
 56 49  1  0
 53 54  1  0
 56 50  2  0
  6 57  1  0
  6 58  1  0
  8 59  1  0
  9 60  1  0
 12 61  1  0
 15 62  1  0
 16 63  1  0
 17 64  1  0
 18 65  1  0
 20 66  1  0
 20 67  1  0
 20 68  1  0
 21 69  1  0
 21 70  1  0
 21 71  1  0
 22 72  1  0
 22 73  1  0
 22 74  1  0
 23 75  1  0
 23 76  1  0
 23 77  1  0
 29 78  1  0
 29 79  1  0
 31 80  1  0
 32 81  1  0
 35 82  1  0
 38 83  1  0
 39 84  1  0
 40 85  1  0
 41 86  1  0
 43 87  1  0
 43 88  1  0
 43 89  1  0
 44 90  1  0
 44 91  1  0
 44 92  1  0
 45 93  1  0
 45 94  1  0
 45 95  1  0
 46 96  1  0
 46 97  1  0
 46 98  1  0
 47 99  1  0
 49100  1  0
 51101  1  0
 52102  1  0
 54103  1  6
 55104  1  6
M  END
> <Uni-Dock RESULT> 
ENERGY=   -6.027  LOWER_BOUND=    8.542  UPPER_BOUND=   11.223
INTER + INTRA:          -6.027
INTER:                  -6.027
INTRA:                   0.000
UNBOUND:                 0.000

$$$$

     RDKit          3D

104107  0  0  0  0  0  0  0  0999 V2000
   48.4104   11.6622   16.9746 C   0  0  0  0  0  0  0  0  0  0  0  0
   47.9418   10.8781   18.0149 N   0  0  0  0  0  0  0  0  0  0  0  0
   47.3262   12.9811   18.4886 N   0  0  0  0  0  0  0  0  0  0  0  0
   48.0150   12.9481   17.3036 C   0  0  0  0  0  0  0  0  0  0  0  0
   47.2839   11.7325   18.8973 C   0  0  0  0  0  0  0  0  0  0  0  0
   49.1921   11.1339   15.8140 C   0  0  0  0  0  0  0  0  0  0  0  0
   50.6509   10.8508   16.1851 C   0  0  0  0  0  0  0  0  0  0  0  0
   48.0432    9.5014   18.2282 C   0  0  0  0  0  0  0  0  0  0  0  0
   46.6924   11.1517   20.0531 C   0  0  0  0  0  0  0  0  0  0  0  0
   48.2958   14.1420   16.5368 C   0  0  0  0  0  0  0  0  0  0  0  0
   47.4838    8.9490   19.3223 C   0  0  0  0  0  0  0  0  0  0  0  0
   46.7824    9.8239   20.2588 C   0  0  0  0  0  0  0  0  0  0  0  0
   51.5463   10.6776   15.1258 N   0  0  0  0  0  0  0  0  0  0  0  0
   51.0139   10.7374   17.3578 O   0  0  0  0  0  0  0  0  0  0  0  0
   47.7187   14.3387   15.2778 C   0  0  0  0  0  0  0  0  0  0  0  0
   49.1468   15.1159   17.0657 C   0  0  0  0  0  0  0  0  0  0  0  0
   48.0041   15.4958   14.5480 C   0  0  0  0  0  0  0  0  0  0  0  0
   49.4328   16.2714   16.3335 C   0  0  0  0  0  0  0  0  0  0  0  0
   48.8554   16.4755   15.0745 C   0  0  0  0  0  0  0  0  0  0  0  0
   47.5518    7.4894   19.6429 C   0  0  0  0  0  0  0  0  0  0  0  0
   52.9642   10.5844   15.4347 C   0  0  0  0  0  0  0  0  0  0  0  0
   51.2127   10.9215   13.7310 C   0  0  0  0  0  0  0  0  0  0  0  0
   49.1776   17.7059   14.2789 C   0  0  0  0  0  0  0  0  0  0  0  0
   49.0196   12.3190   17.4350 C   0  0  0  0  0  0  0  0  0  0  0  0
   48.5271   11.9158   18.6640 N   0  0  0  0  0  0  0  0  0  0  0  0
   47.2048   13.5886   17.9741 N   0  0  0  0  0  0  0  0  0  0  0  0
   48.1442   13.3074   17.0131 C   0  0  0  0  0  0  0  0  0  0  0  0
   47.4353   12.7329   18.9448 C   0  0  0  0  0  0  0  0  0  0  0  0
   50.2585   11.7599   16.8132 C   0  0  0  0  0  0  0  0  0  0  0  0
   50.0302   10.3859   16.1850 C   0  0  0  0  0  0  0  0  0  0  0  0
   48.9761   10.9211   19.5377 C   0  0  0  0  0  0  0  0  0  0  0  0
   46.7690   12.5297   20.1845 C   0  0  0  0  0  0  0  0  0  0  0  0
   48.2089   14.0327   15.7593 C   0  0  0  0  0  0  0  0  0  0  0  0
   48.3454   10.7259   20.7122 C   0  0  0  0  0  0  0  0  0  0  0  0
   47.1990   11.5737   21.0308 C   0  0  0  0  0  0  0  0  0  0  0  0
   51.1077    9.8215   15.5038 N   0  0  0  0  0  0  0  0  0  0  0  0
   48.9532    9.7949   16.2862 O   0  0  0  0  0  0  0  0  0  0  0  0
   48.1694   15.4308   15.7690 C   0  0  0  0  0  0  0  0  0  0  0  0
   48.2965   13.3607   14.5349 C   0  0  0  0  0  0  0  0  0  0  0  0
   48.2458   16.1498   14.5729 C   0  0  0  0  0  0  0  0  0  0  0  0
   48.3706   14.0793   13.3379 C   0  0  0  0  0  0  0  0  0  0  0  0
   48.3398   15.4791   13.3473 C   0  0  0  0  0  0  0  0  0  0  0  0
   48.7448    9.6829   21.7083 C   0  0  0  0  0  0  0  0  0  0  0  0
   50.9521    8.5010   14.9134 C   0  0  0  0  0  0  0  0  0  0  0  0
   52.4405   10.3999   15.4081 C   0  0  0  0  0  0  0  0  0  0  0  0
   48.4542   16.2543   12.0684 C   0  0  0  0  0  0  0  0  0  0  0  0
   50.3111   10.2565   17.8513 O   0  0  0  0  0  0  0  0  0  0  0  0
   49.3895   12.0598   18.7896 O   0  0  0  0  0  0  0  0  0  0  0  0
   47.6124   14.0251   17.0327 O   0  0  0  0  0  0  0  0  0  0  0  0
   49.6578   14.7478   16.4938 O   0  0  0  0  0  0  0  0  0  0  0  0
   48.6496   10.1401   15.8094 O   0  0  0  0  0  0  0  0  0  0  0  0
   50.3278   12.3437   15.2656 O   0  0  0  0  0  0  0  0  0  0  0  0
   49.4288   11.2787   17.8515 C   0  0  0  0  0  0  0  0  0  0  0  0
   48.5672   11.3390   16.5913 C   0  0  1  0  0  0  0  0  0  0  0  0
   48.9823   12.5324   15.7322 C   0  0  1  0  0  0  0  0  0  0  0  0
   48.8193   13.8586   16.4639 C   0  0  0  0  0  0  0  0  0  0  0  0
   48.7421   10.2081   15.4384 H   0  0  0  0  0  0  0  0  0  0  0  0
   49.1618   11.8708   15.0069 H   0  0  0  0  0  0  0  0  0  0  0  0
   48.5907    8.9226   17.4967 H   0  0  0  0  0  0  0  0  0  0  0  0
   46.1769   11.8020   20.7498 H   0  0  0  0  0  0  0  0  0  0  0  0
   46.3305    9.3792   21.1410 H   0  0  0  0  0  0  0  0  0  0  0  0
   47.0368   13.5993   14.8658 H   0  0  0  0  0  0  0  0  0  0  0  0
   49.5873   14.9755   18.0505 H   0  0  0  0  0  0  0  0  0  0  0  0
   47.5459   15.6335   13.5715 H   0  0  0  0  0  0  0  0  0  0  0  0
   50.1049   17.0133   16.7587 H   0  0  0  0  0  0  0  0  0  0  0  0
   48.0336    7.3297   20.6142 H   0  0  0  0  0  0  0  0  0  0  0  0
   48.1270    6.9362   18.8917 H   0  0  0  0  0  0  0  0  0  0  0  0
   46.5456    7.0575   19.6768 H   0  0  0  0  0  0  0  0  0  0  0  0
   53.4239   11.5607   15.2560 H   0  0  0  0  0  0  0  0  0  0  0  0
   53.1424   10.2962   16.4734 H   0  0  0  0  0  0  0  0  0  0  0  0
   53.4265    9.8370   14.7836 H   0  0  0  0  0  0  0  0  0  0  0  0
   51.3121   11.9917   13.5285 H   0  0  0  0  0  0  0  0  0  0  0  0
   51.8934   10.3589   13.0859 H   0  0  0  0  0  0  0  0  0  0  0  0
   50.1920   10.6028   13.5084 H   0  0  0  0  0  0  0  0  0  0  0  0
   48.3208   18.0078   13.6655 H   0  0  0  0  0  0  0  0  0  0  0  0
   50.0327   17.5124   13.6233 H   0  0  0  0  0  0  0  0  0  0  0  0
   49.4180   18.5465   14.9393 H   0  0  0  0  0  0  0  0  0  0  0  0
   51.0432   11.6739   17.5732 H   0  0  0  0  0  0  0  0  0  0  0  0
   50.6140   12.4479   16.0392 H   0  0  0  0  0  0  0  0  0  0  0  0
   49.8226   10.3258   19.2222 H   0  0  0  0  0  0  0  0  0  0  0  0
   45.9155   13.1552   20.4167 H   0  0  0  0  0  0  0  0  0  0  0  0
   46.6863   11.4144   21.9751 H   0  0  0  0  0  0  0  0  0  0  0  0
   48.0789   15.9641   16.7132 H   0  0  0  0  0  0  0  0  0  0  0  0
   48.2876   12.2739   14.5016 H   0  0  0  0  0  0  0  0  0  0  0  0
   48.2210   17.2366   14.6056 H   0  0  0  0  0  0  0  0  0  0  0  0
   48.4398   13.5363   12.3979 H   0  0  0  0  0  0  0  0  0  0  0  0
   48.9863   10.1434   22.6733 H   0  0  0  0  0  0  0  0  0  0  0  0
   47.9320    8.9632   21.8613 H   0  0  0  0  0  0  0  0  0  0  0  0
   49.6276    9.1231   21.3770 H   0  0  0  0  0  0  0  0  0  0  0  0
   49.9248    8.1336   14.9714 H   0  0  0  0  0  0  0  0  0  0  0  0
   51.2485    8.5484   13.8610 H   0  0  0  0  0  0  0  0  0  0  0  0
   51.6054    7.8010   15.4427 H   0  0  0  0  0  0  0  0  0  0  0  0
   52.5043   11.4076   15.8203 H   0  0  0  0  0  0  0  0  0  0  0  0
   53.1377    9.7539   15.9539 H   0  0  0  0  0  0  0  0  0  0  0  0
   52.7311   10.4359   14.3523 H   0  0  0  0  0  0  0  0  0  0  0  0
   47.8703   17.1800   12.1218 H   0  0  0  0  0  0  0  0  0  0  0  0
   49.5021   16.5060   11.8757 H   0  0  0  0  0  0  0  0  0  0  0  0
   48.0688   15.6754   11.2221 H   0  0  0  0  0  0  0  0  0  0  0  0
   50.7896   10.3443   18.7019 H   0  0  0  0  0  0  0  0  0  0  0  0
   47.6683   14.8956   17.4833 H   0  0  0  0  0  0  0  0  0  0  0  0
   49.6046   10.0291   15.6246 H   0  0  0  0  0  0  0  0  0  0  0  0
   50.6492   13.2249   14.9882 H   0  0  0  0  0  0  0  0  0  0  0  0
   47.5253   11.4201   16.9187 H   0  0  0  0  0  0  0  0  0  0  0  0
   48.3591   12.5761   14.8312 H   0  0  0  0  0  0  0  0  0  0  0  0
 10  4  1  0
 11  8  2  0
 12 11  1  0
 13  7  1  0
 14  7  2  0
 15 10  2  0
 16 10  1  0
 17 15  1  0
 18 16  2  0
 19 18  1  0
 20 11  1  0
 21 13  1  0
 22 13  1  0
 23 19  1  0
  3  5  2  0
  9 12  2  0
 17 19  2  0
  2  1  1  0
  3  4  1  0
  4  1  2  0
  5  2  1  0
  6  1  1  0
  7  6  1  0
  8  2  1  0
  9  5  1  0
 33 27  1  0
 34 31  2  0
 35 34  1  0
 36 30  1  0
 37 30  2  0
 38 33  2  0
 39 33  1  0
 40 38  1  0
 41 39  2  0
 42 41  1  0
 43 34  1  0
 44 36  1  0
 45 36  1  0
 46 42  1  0
 26 28  2  0
 32 35  2  0
 40 42  2  0
 25 24  1  0
 26 27  1  0
 27 24  2  0
 28 25  1  0
 29 24  1  0
 30 29  1  0
 31 25  1  0
 32 28  1  0
 53 48  2  0
 54 51  1  0
 55 52  1  0
 53 47  1  0
 55 56  1  0
 54 55  1  0
 56 49  1  0
 53 54  1  0
 56 50  2  0
  6 57  1  0
  6 58  1  0
  8 59  1  0
  9 60  1  0
 12 61  1  0
 15 62  1  0
 16 63  1  0
 17 64  1  0
 18 65  1  0
 20 66  1  0
 20 67  1  0
 20 68  1  0
 21 69  1  0
 21 70  1  0
 21 71  1  0
 22 72  1  0
 22 73  1  0
 22 74  1  0
 23 75  1  0
 23 76  1  0
 23 77  1  0
 29 78  1  0
 29 79  1  0
 31 80  1  0
 32 81  1  0
 35 82  1  0
 38 83  1  0
 39 84  1  0
 40 85  1  0
 41 86  1  0
 43 87  1  0
 43 88  1  0
 43 89  1  0
 44 90  1  0
 44 91  1  0
 44 92  1  0
 45 93  1  0
 45 94  1  0
 45 95  1  0
 46 96  1  0
 46 97  1  0
 46 98  1  0
 47 99  1  0
 49100  1  0
 51101  1  0
 52102  1  0
 54103  1  6
 55104  1  6
M  END
> <Uni-Dock RESULT> 
ENERGY=   -5.932  LOWER_BOUND=    7.711  UPPER_BOUND=   10.187
INTER + INTRA:          -5.932
INTER:                  -5.932
INTRA:                   0.000
UNBOUND:                 0.000

$$$$

     RDKit          3D

104107  0  0  0  0  0  0  0  0999 V2000
   50.0320    7.0468   15.3856 C   0  0  0  0  0  0  0  0  0  0  0  0
   49.1368    7.0759   14.3299 N   0  0  0  0  0  0  0  0  0  0  0  0
   50.9988    8.0897   13.6011 N   0  0  0  0  0  0  0  0  0  0  0  0
   51.1628    7.6818   14.8997 C   0  0  0  0  0  0  0  0  0  0  0  0
   49.7834    7.7119   13.2722 C   0  0  0  0  0  0  0  0  0  0  0  0
   49.7261    6.4601   16.7270 C   0  0  0  0  0  0  0  0  0  0  0  0
   48.8449    7.3857   17.5714 C   0  0  0  0  0  0  0  0  0  0  0  0
   47.8319    6.5867   14.2352 C   0  0  0  0  0  0  0  0  0  0  0  0
   49.0648    7.8493   12.0525 C   0  0  0  0  0  0  0  0  0  0  0  0
   52.3784    7.9311   15.6428 C   0  0  0  0  0  0  0  0  0  0  0  0
   47.1492    6.7157   13.0808 C   0  0  0  0  0  0  0  0  0  0  0  0
   47.8090    7.3730   11.9553 C   0  0  0  0  0  0  0  0  0  0  0  0
   48.7710    7.1071   18.9391 N   0  0  0  0  0  0  0  0  0  0  0  0
   48.1971    8.3056   17.0676 O   0  0  0  0  0  0  0  0  0  0  0  0
   53.2033    6.8753   16.0447 C   0  0  0  0  0  0  0  0  0  0  0  0
   52.7381    9.2450   15.9541 C   0  0  0  0  0  0  0  0  0  0  0  0
   54.3721    7.1332   16.7661 C   0  0  0  0  0  0  0  0  0  0  0  0
   53.9062    9.5009   16.6774 C   0  0  0  0  0  0  0  0  0  0  0  0
   54.7376    8.4484   17.0793 C   0  0  0  0  0  0  0  0  0  0  0  0
   45.7451    6.2369   12.8884 C   0  0  0  0  0  0  0  0  0  0  0  0
   48.0910    8.0634   19.7979 C   0  0  0  0  0  0  0  0  0  0  0  0
   49.6023    6.1227   19.6146 C   0  0  0  0  0  0  0  0  0  0  0  0
   55.9811    8.7204   17.8733 C   0  0  0  0  0  0  0  0  0  0  0  0
   50.2248    8.0209   15.5536 C   0  0  0  0  0  0  0  0  0  0  0  0
   49.5995    8.3509   14.3638 N   0  0  0  0  0  0  0  0  0  0  0  0
   51.7532    7.9857   13.8628 N   0  0  0  0  0  0  0  0  0  0  0  0
   51.5348    7.7428   15.1964 C   0  0  0  0  0  0  0  0  0  0  0  0
   50.5809    8.3277   13.3765 C   0  0  0  0  0  0  0  0  0  0  0  0
   49.5399    8.0314   16.8821 C   0  0  0  0  0  0  0  0  0  0  0  0
   48.6556    6.8037   17.0952 C   0  0  0  0  0  0  0  0  0  0  0  0
   48.2669    8.6828   14.1025 C   0  0  0  0  0  0  0  0  0  0  0  0
   50.1848    8.6665   12.0535 C   0  0  0  0  0  0  0  0  0  0  0  0
   52.5952    7.3159   16.0883 C   0  0  0  0  0  0  0  0  0  0  0  0
   47.8890    9.0027   12.8495 C   0  0  0  0  0  0  0  0  0  0  0  0
   48.9021    8.9890   11.7969 C   0  0  0  0  0  0  0  0  0  0  0  0
   48.0430    6.6814   18.3416 N   0  0  0  0  0  0  0  0  0  0  0  0
   48.4770    5.9682   16.2067 O   0  0  0  0  0  0  0  0  0  0  0  0
   53.8166    7.9975   16.0829 C   0  0  0  0  0  0  0  0  0  0  0  0
   52.4266    6.2242   16.9475 C   0  0  0  0  0  0  0  0  0  0  0  0
   54.8466    7.6121   16.9454 C   0  0  0  0  0  0  0  0  0  0  0  0
   53.4574    5.8368   17.8089 C   0  0  0  0  0  0  0  0  0  0  0  0
   54.6773    6.5239   17.8102 C   0  0  0  0  0  0  0  0  0  0  0  0
   46.4872    9.3632   12.4691 C   0  0  0  0  0  0  0  0  0  0  0  0
   47.1663    5.5462   18.5854 C   0  0  0  0  0  0  0  0  0  0  0  0
   48.1207    7.6585   19.4183 C   0  0  0  0  0  0  0  0  0  0  0  0
   55.7729    6.1335   18.7572 C   0  0  0  0  0  0  0  0  0  0  0  0
   47.8432    7.9942   16.2035 O   0  0  0  0  0  0  0  0  0  0  0  0
   49.3823    8.9917   14.9317 O   0  0  0  0  0  0  0  0  0  0  0  0
   52.3323    7.8138   14.7998 O   0  0  0  0  0  0  0  0  0  0  0  0
   52.4507    8.9730   16.7072 O   0  0  0  0  0  0  0  0  0  0  0  0
   49.0531    5.6554   16.3010 O   0  0  0  0  0  0  0  0  0  0  0  0
   50.5825    7.3432   17.9684 O   0  0  0  0  0  0  0  0  0  0  0  0
   49.0320    8.0068   15.5632 C   0  0  0  0  0  0  0  0  0  0  0  0
   49.8369    6.7217   15.7492 C   0  0  1  0  0  0  0  0  0  0  0  0
   51.0394    6.9857   16.6541 C   0  0  1  0  0  0  0  0  0  0  0  0
   51.9794    8.0370   16.0778 C   0  0  0  0  0  0  0  0  0  0  0  0
   49.2147    5.4974   16.6168 H   0  0  0  0  0  0  0  0  0  0  0  0
   50.6673    6.2795   17.2531 H   0  0  0  0  0  0  0  0  0  0  0  0
   47.4073    6.1252   15.1164 H   0  0  0  0  0  0  0  0  0  0  0  0
   49.5530    8.3416   11.2198 H   0  0  0  0  0  0  0  0  0  0  0  0
   47.2594    7.4769   11.0239 H   0  0  0  0  0  0  0  0  0  0  0  0
   52.9463    5.8507   15.7884 H   0  0  0  0  0  0  0  0  0  0  0  0
   52.1082   10.0715   15.6319 H   0  0  0  0  0  0  0  0  0  0  0  0
   55.0026    6.3008   17.0694 H   0  0  0  0  0  0  0  0  0  0  0  0
   54.1638   10.5298   16.9178 H   0  0  0  0  0  0  0  0  0  0  0  0
   45.0893    7.0681   12.6056 H   0  0  0  0  0  0  0  0  0  0  0  0
   45.3403    5.7908   13.8040 H   0  0  0  0  0  0  0  0  0  0  0  0
   45.7044    5.4763   12.1009 H   0  0  0  0  0  0  0  0  0  0  0  0
   48.8436    8.6920   20.2825 H   0  0  0  0  0  0  0  0  0  0  0  0
   47.4037    8.7037   19.2399 H   0  0  0  0  0  0  0  0  0  0  0  0
   47.5204    7.5227   20.5585 H   0  0  0  0  0  0  0  0  0  0  0  0
   50.5686    6.5794   19.8463 H   0  0  0  0  0  0  0  0  0  0  0  0
   49.1145    5.8012   20.5392 H   0  0  0  0  0  0  0  0  0  0  0  0
   49.7576    5.2416   18.9880 H   0  0  0  0  0  0  0  0  0  0  0  0
   56.7593    7.9842   17.6414 H   0  0  0  0  0  0  0  0  0  0  0  0
   55.7571    8.6746   18.9439 H   0  0  0  0  0  0  0  0  0  0  0  0
   56.3874    9.7100   17.6363 H   0  0  0  0  0  0  0  0  0  0  0  0
   48.9203    8.9311   16.9679 H   0  0  0  0  0  0  0  0  0  0  0  0
   50.2942    8.0657   17.6750 H   0  0  0  0  0  0  0  0  0  0  0  0
   47.5745    8.6555   14.9334 H   0  0  0  0  0  0  0  0  0  0  0  0
   50.9359    8.6501   11.2730 H   0  0  0  0  0  0  0  0  0  0  0  0
   48.5982    9.2419   10.7851 H   0  0  0  0  0  0  0  0  0  0  0  0
   53.9677    8.8339   15.4034 H   0  0  0  0  0  0  0  0  0  0  0  0
   51.5001    5.6551   16.9390 H   0  0  0  0  0  0  0  0  0  0  0  0
   55.7849    8.1619   16.9291 H   0  0  0  0  0  0  0  0  0  0  0  0
   53.3037    4.9862   18.4694 H   0  0  0  0  0  0  0  0  0  0  0  0
   46.4536   10.3642   12.0237 H   0  0  0  0  0  0  0  0  0  0  0  0
   46.0876    8.6465   11.7420 H   0  0  0  0  0  0  0  0  0  0  0  0
   45.8189    9.3637   13.3385 H   0  0  0  0  0  0  0  0  0  0  0  0
   47.1801    4.8219   17.7677 H   0  0  0  0  0  0  0  0  0  0  0  0
   47.4869    5.0445   19.5037 H   0  0  0  0  0  0  0  0  0  0  0  0
   46.1436    5.9138   18.7114 H   0  0  0  0  0  0  0  0  0  0  0  0
   48.8225    8.4685   19.2161 H   0  0  0  0  0  0  0  0  0  0  0  0
   47.1237    8.0886   19.5674 H   0  0  0  0  0  0  0  0  0  0  0  0
   48.4346    7.1455   20.3341 H   0  0  0  0  0  0  0  0  0  0  0  0
   56.7562    6.3012   18.3038 H   0  0  0  0  0  0  0  0  0  0  0  0
   55.7006    6.7231   19.6768 H   0  0  0  0  0  0  0  0  0  0  0  0
   55.7104    5.0703   19.0137 H   0  0  0  0  0  0  0  0  0  0  0  0
   47.4467    8.8676   16.0034 H   0  0  0  0  0  0  0  0  0  0  0  0
   52.9041    8.5761   14.5634 H   0  0  0  0  0  0  0  0  0  0  0  0
   48.6957    6.0169   17.1376 H   0  0  0  0  0  0  0  0  0  0  0  0
   51.3361    7.7814   18.4121 H   0  0  0  0  0  0  0  0  0  0  0  0
   50.1466    6.3901   14.7525 H   0  0  0  0  0  0  0  0  0  0  0  0
   51.6179    6.0631   16.7818 H   0  0  0  0  0  0  0  0  0  0  0  0
 10  4  1  0
 11  8  2  0
 12 11  1  0
 13  7  1  0
 14  7  2  0
 15 10  2  0
 16 10  1  0
 17 15  1  0
 18 16  2  0
 19 18  1  0
 20 11  1  0
 21 13  1  0
 22 13  1  0
 23 19  1  0
  3  5  2  0
  9 12  2  0
 17 19  2  0
  2  1  1  0
  3  4  1  0
  4  1  2  0
  5  2  1  0
  6  1  1  0
  7  6  1  0
  8  2  1  0
  9  5  1  0
 33 27  1  0
 34 31  2  0
 35 34  1  0
 36 30  1  0
 37 30  2  0
 38 33  2  0
 39 33  1  0
 40 38  1  0
 41 39  2  0
 42 41  1  0
 43 34  1  0
 44 36  1  0
 45 36  1  0
 46 42  1  0
 26 28  2  0
 32 35  2  0
 40 42  2  0
 25 24  1  0
 26 27  1  0
 27 24  2  0
 28 25  1  0
 29 24  1  0
 30 29  1  0
 31 25  1  0
 32 28  1  0
 53 48  2  0
 54 51  1  0
 55 52  1  0
 53 47  1  0
 55 56  1  0
 54 55  1  0
 56 49  1  0
 53 54  1  0
 56 50  2  0
  6 57  1  0
  6 58  1  0
  8 59  1  0
  9 60  1  0
 12 61  1  0
 15 62  1  0
 16 63  1  0
 17 64  1  0
 18 65  1  0
 20 66  1  0
 20 67  1  0
 20 68  1  0
 21 69  1  0
 21 70  1  0
 21 71  1  0
 22 72  1  0
 22 73  1  0
 22 74  1  0
 23 75  1  0
 23 76  1  0
 23 77  1  0
 29 78  1  0
 29 79  1  0
 31 80  1  0
 32 81  1  0
 35 82  1  0
 38 83  1  0
 39 84  1  0
 40 85  1  0
 41 86  1  0
 43 87  1  0
 43 88  1  0
 43 89  1  0
 44 90  1  0
 44 91  1  0
 44 92  1  0
 45 93  1  0
 45 94  1  0
 45 95  1  0
 46 96  1  0
 46 97  1  0
 46 98  1  0
 47 99  1  0
 49100  1  0
 51101  1  0
 52102  1  0
 54103  1  6
 55104  1  6
M  END
> <Uni-Dock RESULT> 
ENERGY=   -5.913  LOWER_BOUND=    6.621  UPPER_BOUND=   10.845
INTER + INTRA:          -5.913
INTER:                  -5.913
INTRA:                   0.000
UNBOUND:                 0.000

$$$$

     RDKit          3D

104107  0  0  0  0  0  0  0  0999 V2000
   48.7116    9.5615   16.1003 C   0  0  0  0  0  0  0  0  0  0  0  0
   48.6413    9.4460   14.7225 N   0  0  0  0  0  0  0  0  0  0  0  0
   48.4039    7.3714   15.5384 N   0  0  0  0  0  0  0  0  0  0  0  0
   48.5645    8.2653   16.5654 C   0  0  0  0  0  0  0  0  0  0  0  0
   48.4439    8.0955   14.4421 C   0  0  0  0  0  0  0  0  0  0  0  0
   48.9342   10.8525   16.8222 C   0  0  0  0  0  0  0  0  0  0  0  0
   50.3987   11.2975   16.7651 C   0  0  0  0  0  0  0  0  0  0  0  0
   48.7274   10.4213   13.7263 C   0  0  0  0  0  0  0  0  0  0  0  0
   48.3202    7.7216   13.0754 C   0  0  0  0  0  0  0  0  0  0  0  0
   48.5980    7.8550   17.9520 C   0  0  0  0  0  0  0  0  0  0  0  0
   48.6105   10.0694   12.4310 C   0  0  0  0  0  0  0  0  0  0  0  0
   48.3959    8.6599   12.1125 C   0  0  0  0  0  0  0  0  0  0  0  0
   50.7890   12.2909   17.6677 N   0  0  0  0  0  0  0  0  0  0  0  0
   51.1872   10.8365   15.9371 O   0  0  0  0  0  0  0  0  0  0  0  0
   47.5848    8.2362   18.8380 C   0  0  0  0  0  0  0  0  0  0  0  0
   49.6512    7.0588   18.4095 C   0  0  0  0  0  0  0  0  0  0  0  0
   47.6346    7.8350   20.1757 C   0  0  0  0  0  0  0  0  0  0  0  0
   49.7005    6.6603   19.7481 C   0  0  0  0  0  0  0  0  0  0  0  0
   48.6875    7.0358   20.6386 C   0  0  0  0  0  0  0  0  0  0  0  0
   48.7028   11.0389   11.2954 C   0  0  0  0  0  0  0  0  0  0  0  0
   52.2039   12.6117   17.7646 C   0  0  0  0  0  0  0  0  0  0  0  0
   49.9483   12.7841   18.7477 C   0  0  0  0  0  0  0  0  0  0  0  0
   48.7499    6.6256   22.0804 C   0  0  0  0  0  0  0  0  0  0  0  0
   49.4952    8.9771   16.3428 C   0  0  0  0  0  0  0  0  0  0  0  0
   49.5029    8.4542   15.0613 N   0  0  0  0  0  0  0  0  0  0  0  0
   48.1296    7.1536   16.2635 N   0  0  0  0  0  0  0  0  0  0  0  0
   48.5920    8.1886   17.0382 C   0  0  0  0  0  0  0  0  0  0  0  0
   48.6678    7.3403   15.0790 C   0  0  0  0  0  0  0  0  0  0  0  0
   50.3476   10.1261   16.7756 C   0  0  0  0  0  0  0  0  0  0  0  0
   49.7991   11.4725   16.3054 C   0  0  0  0  0  0  0  0  0  0  0  0
   50.1936    8.8677   13.9184 C   0  0  0  0  0  0  0  0  0  0  0  0
   48.5336    6.6051   13.8692 C   0  0  0  0  0  0  0  0  0  0  0  0
   48.2039    8.3490   18.4260 C   0  0  0  0  0  0  0  0  0  0  0  0
   50.0669    8.1734   12.7706 C   0  0  0  0  0  0  0  0  0  0  0  0
   49.1986    6.9984   12.7655 C   0  0  0  0  0  0  0  0  0  0  0  0
   50.4798   12.6109   16.7348 N   0  0  0  0  0  0  0  0  0  0  0  0
   48.8132   11.5524   15.5699 O   0  0  0  0  0  0  0  0  0  0  0  0
   48.2642    7.2507   19.2899 C   0  0  0  0  0  0  0  0  0  0  0  0
   47.7557    9.5804   18.9175 C   0  0  0  0  0  0  0  0  0  0  0  0
   47.9092    7.3872   20.6349 C   0  0  0  0  0  0  0  0  0  0  0  0
   47.3983    9.7169   20.2621 C   0  0  0  0  0  0  0  0  0  0  0  0
   47.4666    8.6200   21.1297 C   0  0  0  0  0  0  0  0  0  0  0  0
   50.7573    8.5410   11.4948 C   0  0  0  0  0  0  0  0  0  0  0  0
   50.0163   13.9163   16.2903 C   0  0  0  0  0  0  0  0  0  0  0  0
   51.7014   12.6136   17.5270 C   0  0  0  0  0  0  0  0  0  0  0  0
   47.1174    8.7707   22.5806 C   0  0  0  0  0  0  0  0  0  0  0  0
   50.7064   10.7230   15.0857 O   0  0  0  0  0  0  0  0  0  0  0  0
   50.3523    8.5290   15.2921 O   0  0  0  0  0  0  0  0  0  0  0  0
   48.1601    7.4645   17.3337 O   0  0  0  0  0  0  0  0  0  0  0  0
   49.8690    7.8157   18.7310 O   0  0  0  0  0  0  0  0  0  0  0  0
   48.3695   11.4622   16.0533 O   0  0  0  0  0  0  0  0  0  0  0  0
   49.8383   10.5618   18.2893 O   0  0  0  0  0  0  0  0  0  0  0  0
   49.9658    9.6701   15.4933 C   0  0  0  0  0  0  0  0  0  0  0  0
   48.6824   10.0727   16.2177 C   0  0  1  0  0  0  0  0  0  0  0  0
   48.8023    9.7544   17.7073 C   0  0  1  0  0  0  0  0  0  0  0  0
   49.0300    8.2707   17.9670 C   0  0  0  0  0  0  0  0  0  0  0  0
   48.3122   11.6448   16.3912 H   0  0  0  0  0  0  0  0  0  0  0  0
   48.6364   10.7256   17.8665 H   0  0  0  0  0  0  0  0  0  0  0  0
   48.9015   11.4413   14.0410 H   0  0  0  0  0  0  0  0  0  0  0  0
   48.1662    6.6752   12.8397 H   0  0  0  0  0  0  0  0  0  0  0  0
   48.3010    8.3754   11.0683 H   0  0  0  0  0  0  0  0  0  0  0  0
   46.7482    8.8359   18.4887 H   0  0  0  0  0  0  0  0  0  0  0  0
   50.4347    6.7470   17.7220 H   0  0  0  0  0  0  0  0  0  0  0  0
   46.8380    8.1390   20.8506 H   0  0  0  0  0  0  0  0  0  0  0  0
   50.5335    6.0485   20.0867 H   0  0  0  0  0  0  0  0  0  0  0  0
   49.5174   10.7618   10.6168 H   0  0  0  0  0  0  0  0  0  0  0  0
   48.8963   12.0583   11.6481 H   0  0  0  0  0  0  0  0  0  0  0  0
   47.7656   11.0546   10.7283 H   0  0  0  0  0  0  0  0  0  0  0  0
   52.6192   12.0936   18.6338 H   0  0  0  0  0  0  0  0  0  0  0  0
   52.7586   12.3060   16.8743 H   0  0  0  0  0  0  0  0  0  0  0  0
   52.3207   13.6918   17.8915 H   0  0  0  0  0  0  0  0  0  0  0  0
   50.0304   12.0994   19.5966 H   0  0  0  0  0  0  0  0  0  0  0  0
   50.2798   13.7829   19.0454 H   0  0  0  0  0  0  0  0  0  0  0  0
   48.9041   12.8516   18.4348 H   0  0  0  0  0  0  0  0  0  0  0  0
   47.7425    6.4808   22.4874 H   0  0  0  0  0  0  0  0  0  0  0  0
   49.2615    7.3967   22.6653 H   0  0  0  0  0  0  0  0  0  0  0  0
   49.2868    5.6773   22.1940 H   0  0  0  0  0  0  0  0  0  0  0  0
   51.3612   10.0005   16.3786 H   0  0  0  0  0  0  0  0  0  0  0  0
   50.4131   10.1332   17.8685 H   0  0  0  0  0  0  0  0  0  0  0  0
   50.8050    9.7565   14.0000 H   0  0  0  0  0  0  0  0  0  0  0  0
   47.8848    5.7376   13.8653 H   0  0  0  0  0  0  0  0  0  0  0  0
   49.0915    6.4403   11.8398 H   0  0  0  0  0  0  0  0  0  0  0  0
   48.5897    6.2827   18.9144 H   0  0  0  0  0  0  0  0  0  0  0  0
   47.6624   10.4368   18.2540 H   0  0  0  0  0  0  0  0  0  0  0  0
   47.9715    6.5211   21.2898 H   0  0  0  0  0  0  0  0  0  0  0  0
   47.0542   10.6838   20.6229 H   0  0  0  0  0  0  0  0  0  0  0  0
   51.3905    7.7164   11.1473 H   0  0  0  0  0  0  0  0  0  0  0  0
   50.0254    8.7701   10.7113 H   0  0  0  0  0  0  0  0  0  0  0  0
   51.3982    9.4219   11.6201 H   0  0  0  0  0  0  0  0  0  0  0  0
   49.0737   13.8624   15.7406 H   0  0  0  0  0  0  0  0  0  0  0  0
   49.8752   14.5571   17.1662 H   0  0  0  0  0  0  0  0  0  0  0  0
   50.7777   14.3555   15.6389 H   0  0  0  0  0  0  0  0  0  0  0  0
   51.9895   11.6225   17.8794 H   0  0  0  0  0  0  0  0  0  0  0  0
   52.5130   13.0148   16.9094 H   0  0  0  0  0  0  0  0  0  0  0  0
   51.5529   13.2633   18.3967 H   0  0  0  0  0  0  0  0  0  0  0  0
   46.6649    7.8514   22.9686 H   0  0  0  0  0  0  0  0  0  0  0  0
   48.0180    8.9957   23.1609 H   0  0  0  0  0  0  0  0  0  0  0  0
   46.3915    9.5777   22.7284 H   0  0  0  0  0  0  0  0  0  0  0  0
   51.4867   10.3211   14.6502 H   0  0  0  0  0  0  0  0  0  0  0  0
   48.4470    6.5556   17.5695 H   0  0  0  0  0  0  0  0  0  0  0  0
   49.1641   11.9356   16.3742 H   0  0  0  0  0  0  0  0  0  0  0  0
   50.0815   10.1313   19.1333 H   0  0  0  0  0  0  0  0  0  0  0  0
   47.8625    9.5168   15.7507 H   0  0  0  0  0  0  0  0  0  0  0  0
   47.8782   10.0398   18.2237 H   0  0  0  0  0  0  0  0  0  0  0  0
 10  4  1  0
 11  8  2  0
 12 11  1  0
 13  7  1  0
 14  7  2  0
 15 10  2  0
 16 10  1  0
 17 15  1  0
 18 16  2  0
 19 18  1  0
 20 11  1  0
 21 13  1  0
 22 13  1  0
 23 19  1  0
  3  5  2  0
  9 12  2  0
 17 19  2  0
  2  1  1  0
  3  4  1  0
  4  1  2  0
  5  2  1  0
  6  1  1  0
  7  6  1  0
  8  2  1  0
  9  5  1  0
 33 27  1  0
 34 31  2  0
 35 34  1  0
 36 30  1  0
 37 30  2  0
 38 33  2  0
 39 33  1  0
 40 38  1  0
 41 39  2  0
 42 41  1  0
 43 34  1  0
 44 36  1  0
 45 36  1  0
 46 42  1  0
 26 28  2  0
 32 35  2  0
 40 42  2  0
 25 24  1  0
 26 27  1  0
 27 24  2  0
 28 25  1  0
 29 24  1  0
 30 29  1  0
 31 25  1  0
 32 28  1  0
 53 48  2  0
 54 51  1  0
 55 52  1  0
 53 47  1  0
 55 56  1  0
 54 55  1  0
 56 49  1  0
 53 54  1  0
 56 50  2  0
  6 57  1  0
  6 58  1  0
  8 59  1  0
  9 60  1  0
 12 61  1  0
 15 62  1  0
 16 63  1  0
 17 64  1  0
 18 65  1  0
 20 66  1  0
 20 67  1  0
 20 68  1  0
 21 69  1  0
 21 70  1  0
 21 71  1  0
 22 72  1  0
 22 73  1  0
 22 74  1  0
 23 75  1  0
 23 76  1  0
 23 77  1  0
 29 78  1  0
 29 79  1  0
 31 80  1  0
 32 81  1  0
 35 82  1  0
 38 83  1  0
 39 84  1  0
 40 85  1  0
 41 86  1  0
 43 87  1  0
 43 88  1  0
 43 89  1  0
 44 90  1  0
 44 91  1  0
 44 92  1  0
 45 93  1  0
 45 94  1  0
 45 95  1  0
 46 96  1  0
 46 97  1  0
 46 98  1  0
 47 99  1  0
 49100  1  0
 51101  1  0
 52102  1  0
 54103  1  6
 55104  1  6
M  END
> <Uni-Dock RESULT> 
ENERGY=   -5.834  LOWER_BOUND=    6.983  UPPER_BOUND=    9.931
INTER + INTRA:          -5.834
INTER:                  -5.834
INTRA:                   0.000
UNBOUND:                 0.000

$$$$

     RDKit          3D

104107  0  0  0  0  0  0  0  0999 V2000
   48.5556    8.5145   18.3458 C   0  0  0  0  0  0  0  0  0  0  0  0
   47.9911    8.8572   19.5625 N   0  0  0  0  0  0  0  0  0  0  0  0
   47.5313   10.5452   18.1606 N   0  0  0  0  0  0  0  0  0  0  0  0
   48.2542    9.5779   17.5113 C   0  0  0  0  0  0  0  0  0  0  0  0
   47.3752   10.0944   19.3855 C   0  0  0  0  0  0  0  0  0  0  0  0
   49.3304    7.2577   18.1064 C   0  0  0  0  0  0  0  0  0  0  0  0
   50.7486    7.3391   18.6792 C   0  0  0  0  0  0  0  0  0  0  0  0
   47.9744    8.1704   20.7787 C   0  0  0  0  0  0  0  0  0  0  0  0
   46.7009   10.6566   20.5046 C   0  0  0  0  0  0  0  0  0  0  0  0
   48.6555    9.7080   16.1277 C   0  0  0  0  0  0  0  0  0  0  0  0
   47.3363    8.7010   21.8401 C   0  0  0  0  0  0  0  0  0  0  0  0
   46.6769    9.9944   21.6768 C   0  0  0  0  0  0  0  0  0  0  0  0
   51.6618    6.3789   18.2344 N   0  0  0  0  0  0  0  0  0  0  0  0
   51.0622    8.1811   19.5233 O   0  0  0  0  0  0  0  0  0  0  0  0
   48.1382    8.8549   15.1472 C   0  0  0  0  0  0  0  0  0  0  0  0
   49.5640   10.7056   15.7650 C   0  0  0  0  0  0  0  0  0  0  0  0
   48.5398    8.9911   13.8156 C   0  0  0  0  0  0  0  0  0  0  0  0
   49.9662   10.8390   14.4332 C   0  0  0  0  0  0  0  0  0  0  0  0
   49.4492    9.9904   13.4469 C   0  0  0  0  0  0  0  0  0  0  0  0
   47.2760    8.0479   23.1846 C   0  0  0  0  0  0  0  0  0  0  0  0
   53.0565    6.5300   18.6170 C   0  0  0  0  0  0  0  0  0  0  0  0
   51.3954    5.4426   17.1534 C   0  0  0  0  0  0  0  0  0  0  0  0
   49.8956   10.1194   12.0204 C   0  0  0  0  0  0  0  0  0  0  0  0
   49.2001    9.2678   18.1682 C   0  0  0  0  0  0  0  0  0  0  0  0
   48.6362    9.9951   19.2021 N   0  0  0  0  0  0  0  0  0  0  0  0
   47.4763   10.5200   17.3576 N   0  0  0  0  0  0  0  0  0  0  0  0
   48.4215    9.5691   17.0617 C   0  0  0  0  0  0  0  0  0  0  0  0
   47.6050   10.7472   18.6458 C   0  0  0  0  0  0  0  0  0  0  0  0
   50.4100    8.4042   18.3243 C   0  0  0  0  0  0  0  0  0  0  0  0
   50.0928    7.0661   18.9904 C   0  0  0  0  0  0  0  0  0  0  0  0
   48.9745   10.0549   20.5571 C   0  0  0  0  0  0  0  0  0  0  0  0
   46.8837   11.6107   19.5153 C   0  0  0  0  0  0  0  0  0  0  0  0
   48.5859    9.0319   15.7251 C   0  0  0  0  0  0  0  0  0  0  0  0
   48.2915   10.8713   21.3832 C   0  0  0  0  0  0  0  0  0  0  0  0
   47.2070   11.6734   20.8217 C   0  0  0  0  0  0  0  0  0  0  0  0
   51.1435    6.1563   19.1005 N   0  0  0  0  0  0  0  0  0  0  0  0
   48.9690    6.8056   19.4247 O   0  0  0  0  0  0  0  0  0  0  0  0
   48.6587    9.9056   14.6353 C   0  0  0  0  0  0  0  0  0  0  0  0
   48.6598    7.6526   15.5003 C   0  0  0  0  0  0  0  0  0  0  0  0
   48.8324    9.4095   13.3402 C   0  0  0  0  0  0  0  0  0  0  0  0
   48.8311    7.1557   14.2048 C   0  0  0  0  0  0  0  0  0  0  0  0
   48.9127    8.0300   13.1143 C   0  0  0  0  0  0  0  0  0  0  0  0
   48.5724   10.9985   22.8476 C   0  0  0  0  0  0  0  0  0  0  0  0
   50.9017    4.8793   19.7542 C   0  0  0  0  0  0  0  0  0  0  0  0
   52.5209    6.4074   18.7008 C   0  0  0  0  0  0  0  0  0  0  0  0
   49.1315    7.5028   11.7272 C   0  0  0  0  0  0  0  0  0  0  0  0
   50.3069    8.2877   20.1455 O   0  0  0  0  0  0  0  0  0  0  0  0
   49.5028   10.1623   19.2394 O   0  0  0  0  0  0  0  0  0  0  0  0
   47.9488   10.0412   16.4685 O   0  0  0  0  0  0  0  0  0  0  0  0
   50.0624   10.0166   15.7418 O   0  0  0  0  0  0  0  0  0  0  0  0
   48.7102    6.6520   18.8347 O   0  0  0  0  0  0  0  0  0  0  0  0
   50.5773    7.5487   16.9170 O   0  0  0  0  0  0  0  0  0  0  0  0
   49.5102    8.9414   19.2730 C   0  0  0  0  0  0  0  0  0  0  0  0
   48.6985    8.0098   18.3745 C   0  0  1  0  0  0  0  0  0  0  0  0
   49.2366    8.0638   16.9454 C   0  0  1  0  0  0  0  0  0  0  0  0
   49.1566    9.4629   16.3479 C   0  0  0  0  0  0  0  0  0  0  0  0
   48.8201    6.4006   18.5599 H   0  0  0  0  0  0  0  0  0  0  0  0
   49.3863    7.0807   17.0289 H   0  0  0  0  0  0  0  0  0  0  0  0
   48.4975    7.2249   20.8244 H   0  0  0  0  0  0  0  0  0  0  0  0
   46.2165   11.6183   20.3840 H   0  0  0  0  0  0  0  0  0  0  0  0
   46.1617   10.4226   22.5320 H   0  0  0  0  0  0  0  0  0  0  0  0
   47.4131    8.0900   15.4131 H   0  0  0  0  0  0  0  0  0  0  0  0
   49.9589   11.3815   16.5206 H   0  0  0  0  0  0  0  0  0  0  0  0
   48.1268    8.3204   13.0658 H   0  0  0  0  0  0  0  0  0  0  0  0
   50.6814   11.6159   14.1727 H   0  0  0  0  0  0  0  0  0  0  0  0
   47.7109    8.7003   23.9503 H   0  0  0  0  0  0  0  0  0  0  0  0
   47.8294    7.1021   23.2005 H   0  0  0  0  0  0  0  0  0  0  0  0
   46.2377    7.8312   23.4589 H   0  0  0  0  0  0  0  0  0  0  0  0
   53.5990    6.9829   17.7820 H   0  0  0  0  0  0  0  0  0  0  0  0
   53.1764    7.1630   19.4994 H   0  0  0  0  0  0  0  0  0  0  0  0
   53.4786    5.5453   18.8371 H   0  0  0  0  0  0  0  0  0  0  0  0
   51.5872    5.9435   16.2002 H   0  0  0  0  0  0  0  0  0  0  0  0
   52.0497    4.5717   17.2511 H   0  0  0  0  0  0  0  0  0  0  0  0
   50.3603    5.0949   17.1793 H   0  0  0  0  0  0  0  0  0  0  0  0
   49.0867    9.8450   11.3335 H   0  0  0  0  0  0  0  0  0  0  0  0
   50.7537    9.4646   11.8378 H   0  0  0  0  0  0  0  0  0  0  0  0
   50.1808   11.1524   11.7921 H   0  0  0  0  0  0  0  0  0  0  0  0
   51.1595    8.9290   18.9272 H   0  0  0  0  0  0  0  0  0  0  0  0
   50.8451    8.2137   17.3379 H   0  0  0  0  0  0  0  0  0  0  0  0
   49.7803    9.4186   20.8981 H   0  0  0  0  0  0  0  0  0  0  0  0
   46.0760   12.2004   19.0988 H   0  0  0  0  0  0  0  0  0  0  0  0
   46.6521   12.3285   21.4872 H   0  0  0  0  0  0  0  0  0  0  0  0
   48.5801   10.9791   14.7948 H   0  0  0  0  0  0  0  0  0  0  0  0
   48.5646    6.9541   16.3282 H   0  0  0  0  0  0  0  0  0  0  0  0
   48.8941   10.1083   12.5090 H   0  0  0  0  0  0  0  0  0  0  0  0
   48.8876    6.0799   14.0536 H   0  0  0  0  0  0  0  0  0  0  0  0
   48.8180   12.0354   23.1046 H   0  0  0  0  0  0  0  0  0  0  0  0
   47.6997   10.6927   23.4366 H   0  0  0  0  0  0  0  0  0  0  0  0
   49.4178   10.3710   23.1540 H   0  0  0  0  0  0  0  0  0  0  0  0
   49.8469    4.7220   19.9911 H   0  0  0  0  0  0  0  0  0  0  0  0
   51.2358    4.0753   19.0911 H   0  0  0  0  0  0  0  0  0  0  0  0
   51.4787    4.8462   20.6831 H   0  0  0  0  0  0  0  0  0  0  0  0
   52.6518    7.3531   18.1736 H   0  0  0  0  0  0  0  0  0  0  0  0
   53.1453    6.4196   19.6015 H   0  0  0  0  0  0  0  0  0  0  0  0
   52.8484    5.5938   18.0441 H   0  0  0  0  0  0  0  0  0  0  0  0
   48.6226    8.1314   10.9880 H   0  0  0  0  0  0  0  0  0  0  0  0
   50.2021    7.4822   11.4991 H   0  0  0  0  0  0  0  0  0  0  0  0
   48.7291    6.4891   11.6240 H   0  0  0  0  0  0  0  0  0  0  0  0
   50.7625    8.9986   20.6429 H   0  0  0  0  0  0  0  0  0  0  0  0
   48.0595   10.9324   16.0716 H   0  0  0  0  0  0  0  0  0  0  0  0
   49.6587    6.4155   18.8871 H   0  0  0  0  0  0  0  0  0  0  0  0
   50.9776    7.8684   16.0837 H   0  0  0  0  0  0  0  0  0  0  0  0
   47.6563    8.3418   18.4263 H   0  0  0  0  0  0  0  0  0  0  0  0
   48.6492    7.3982   16.3019 H   0  0  0  0  0  0  0  0  0  0  0  0
 10  4  1  0
 11  8  2  0
 12 11  1  0
 13  7  1  0
 14  7  2  0
 15 10  2  0
 16 10  1  0
 17 15  1  0
 18 16  2  0
 19 18  1  0
 20 11  1  0
 21 13  1  0
 22 13  1  0
 23 19  1  0
  3  5  2  0
  9 12  2  0
 17 19  2  0
  2  1  1  0
  3  4  1  0
  4  1  2  0
  5  2  1  0
  6  1  1  0
  7  6  1  0
  8  2  1  0
  9  5  1  0
 33 27  1  0
 34 31  2  0
 35 34  1  0
 36 30  1  0
 37 30  2  0
 38 33  2  0
 39 33  1  0
 40 38  1  0
 41 39  2  0
 42 41  1  0
 43 34  1  0
 44 36  1  0
 45 36  1  0
 46 42  1  0
 26 28  2  0
 32 35  2  0
 40 42  2  0
 25 24  1  0
 26 27  1  0
 27 24  2  0
 28 25  1  0
 29 24  1  0
 30 29  1  0
 31 25  1  0
 32 28  1  0
 53 48  2  0
 54 51  1  0
 55 52  1  0
 53 47  1  0
 55 56  1  0
 54 55  1  0
 56 49  1  0
 53 54  1  0
 56 50  2  0
  6 57  1  0
  6 58  1  0
  8 59  1  0
  9 60  1  0
 12 61  1  0
 15 62  1  0
 16 63  1  0
 17 64  1  0
 18 65  1  0
 20 66  1  0
 20 67  1  0
 20 68  1  0
 21 69  1  0
 21 70  1  0
 21 71  1  0
 22 72  1  0
 22 73  1  0
 22 74  1  0
 23 75  1  0
 23 76  1  0
 23 77  1  0
 29 78  1  0
 29 79  1  0
 31 80  1  0
 32 81  1  0
 35 82  1  0
 38 83  1  0
 39 84  1  0
 40 85  1  0
 41 86  1  0
 43 87  1  0
 43 88  1  0
 43 89  1  0
 44 90  1  0
 44 91  1  0
 44 92  1  0
 45 93  1  0
 45 94  1  0
 45 95  1  0
 46 96  1  0
 46 97  1  0
 46 98  1  0
 47 99  1  0
 49100  1  0
 51101  1  0
 52102  1  0
 54103  1  6
 55104  1  6
M  END
> <Uni-Dock RESULT> 
ENERGY=   -5.748  LOWER_BOUND=    7.815  UPPER_BOUND=   11.184
INTER + INTRA:          -5.748
INTER:                  -5.748
INTRA:                   0.000
UNBOUND:                 0.000

$$$$

     RDKit          3D

104107  0  0  0  0  0  0  0  0999 V2000
   49.6655    7.7780   18.1009 C   0  0  0  0  0  0  0  0  0  0  0  0
   49.7077    7.0579   19.2826 N   0  0  0  0  0  0  0  0  0  0  0  0
   49.3331    5.5655   17.6522 N   0  0  0  0  0  0  0  0  0  0  0  0
   49.4305    6.8263   17.1226 C   0  0  0  0  0  0  0  0  0  0  0  0
   49.5098    5.7206   18.9455 C   0  0  0  0  0  0  0  0  0  0  0  0
   49.8196    9.2635   18.0195 C   0  0  0  0  0  0  0  0  0  0  0  0
   48.5456    9.9977   18.4484 C   0  0  0  0  0  0  0  0  0  0  0  0
   49.9120    7.4851   20.5967 C   0  0  0  0  0  0  0  0  0  0  0  0
   49.5287    4.7689   20.0024 C   0  0  0  0  0  0  0  0  0  0  0  0
   49.2721    7.0875   15.7088 C   0  0  0  0  0  0  0  0  0  0  0  0
   49.9303    6.5855   21.5995 C   0  0  0  0  0  0  0  0  0  0  0  0
   49.7320    5.1761   21.2697 C   0  0  0  0  0  0  0  0  0  0  0  0
   48.4524   11.3487   18.1022 N   0  0  0  0  0  0  0  0  0  0  0  0
   47.6627    9.4404   19.1039 O   0  0  0  0  0  0  0  0  0  0  0  0
   50.3469    7.5437   14.9383 C   0  0  0  0  0  0  0  0  0  0  0  0
   48.0316    6.8712   15.1032 C   0  0  0  0  0  0  0  0  0  0  0  0
   50.1758    7.7955   13.5744 C   0  0  0  0  0  0  0  0  0  0  0  0
   47.8617    7.1257   13.7395 C   0  0  0  0  0  0  0  0  0  0  0  0
   48.9347    7.5790   12.9626 C   0  0  0  0  0  0  0  0  0  0  0  0
   50.1277    6.9482   23.0373 C   0  0  0  0  0  0  0  0  0  0  0  0
   47.1891   12.0304   18.3343 C   0  0  0  0  0  0  0  0  0  0  0  0
   49.3930   12.0305   17.2267 C   0  0  0  0  0  0  0  0  0  0  0  0
   48.7483    7.8719   11.5031 C   0  0  0  0  0  0  0  0  0  0  0  0
   48.7454    7.5811   17.7417 C   0  0  0  0  0  0  0  0  0  0  0  0
   48.5951    6.5720   18.6770 N   0  0  0  0  0  0  0  0  0  0  0  0
   49.5288    5.6245   16.8733 N   0  0  0  0  0  0  0  0  0  0  0  0
   49.3793    6.9740   16.6690 C   0  0  0  0  0  0  0  0  0  0  0  0
   49.0742    5.4054   18.0870 C   0  0  0  0  0  0  0  0  0  0  0  0
   48.2573    8.9794   17.9435 C   0  0  0  0  0  0  0  0  0  0  0  0
   49.1729    9.7937   18.8562 C   0  0  0  0  0  0  0  0  0  0  0  0
   48.0595    6.6058   19.9678 C   0  0  0  0  0  0  0  0  0  0  0  0
   48.9982    4.2083   18.8506 C   0  0  0  0  0  0  0  0  0  0  0  0
   49.7889    7.6195   15.4371 C   0  0  0  0  0  0  0  0  0  0  0  0
   47.9878    5.4730   20.6937 C   0  0  0  0  0  0  0  0  0  0  0  0
   48.4811    4.2352   20.0944 C   0  0  0  0  0  0  0  0  0  0  0  0
   48.8461   11.1373   19.0342 N   0  0  0  0  0  0  0  0  0  0  0  0
   50.1444    9.2883   19.4219 O   0  0  0  0  0  0  0  0  0  0  0  0
   49.4099    7.0660   14.2098 C   0  0  0  0  0  0  0  0  0  0  0  0
   50.5696    8.7810   15.4501 C   0  0  0  0  0  0  0  0  0  0  0  0
   49.7812    7.6807   13.0107 C   0  0  0  0  0  0  0  0  0  0  0  0
   50.9432    9.3950   14.2510 C   0  0  0  0  0  0  0  0  0  0  0  0
   50.5570    8.8463   13.0221 C   0  0  0  0  0  0  0  0  0  0  0  0
   47.4400    5.4090   22.0849 C   0  0  0  0  0  0  0  0  0  0  0  0
   49.6684   11.9494   19.9179 C   0  0  0  0  0  0  0  0  0  0  0  0
   47.6723   11.7993   18.4829 C   0  0  0  0  0  0  0  0  0  0  0  0
   50.9262    9.5211   11.7344 C   0  0  0  0  0  0  0  0  0  0  0  0
   48.0955    8.8470   19.7593 O   0  0  0  0  0  0  0  0  0  0  0  0
   47.8019    6.9552   18.6118 O   0  0  0  0  0  0  0  0  0  0  0  0
   49.5828    6.3682   16.0445 O   0  0  0  0  0  0  0  0  0  0  0  0
   48.0390    7.7201   15.1584 O   0  0  0  0  0  0  0  0  0  0  0  0
   50.5405    9.3081   18.8915 O   0  0  0  0  0  0  0  0  0  0  0  0
   48.8615    9.8863   16.6973 O   0  0  0  0  0  0  0  0  0  0  0  0
   48.4992    7.9277   18.8564 C   0  0  0  0  0  0  0  0  0  0  0  0
   49.8399    8.2625   18.2048 C   0  0  1  0  0  0  0  0  0  0  0  0
   49.6246    8.6702   16.7481 C   0  0  1  0  0  0  0  0  0  0  0  0
   48.9780    7.5631   15.9254 C   0  0  0  0  0  0  0  0  0  0  0  0
   50.6459    9.5986   18.6563 H   0  0  0  0  0  0  0  0  0  0  0  0
   50.0621    9.5344   16.9884 H   0  0  0  0  0  0  0  0  0  0  0  0
   50.0369    8.5467   20.7621 H   0  0  0  0  0  0  0  0  0  0  0  0
   49.3763    3.7244   19.7576 H   0  0  0  0  0  0  0  0  0  0  0  0
   49.7472    4.4500   22.0776 H   0  0  0  0  0  0  0  0  0  0  0  0
   51.3227    7.6935   15.3931 H   0  0  0  0  0  0  0  0  0  0  0  0
   47.1956    6.5027   15.6939 H   0  0  0  0  0  0  0  0  0  0  0  0
   51.0222    8.1485   12.9900 H   0  0  0  0  0  0  0  0  0  0  0  0
   46.8859    6.9599   13.2889 H   0  0  0  0  0  0  0  0  0  0  0  0
   49.2718    6.6215   23.6387 H   0  0  0  0  0  0  0  0  0  0  0  0
   50.2337    8.0309   23.1708 H   0  0  0  0  0  0  0  0  0  0  0  0
   51.0331    6.4736   23.4312 H   0  0  0  0  0  0  0  0  0  0  0  0
   46.6371   12.0703   17.3908 H   0  0  0  0  0  0  0  0  0  0  0  0
   46.5752   11.5197   19.0800 H   0  0  0  0  0  0  0  0  0  0  0  0
   47.3874   13.0469   18.6860 H   0  0  0  0  0  0  0  0  0  0  0  0
   49.1123   11.8326   16.1883 H   0  0  0  0  0  0  0  0  0  0  0  0
   49.3613   13.1067   17.4191 H   0  0  0  0  0  0  0  0  0  0  0  0
   50.4143   11.6842   17.3995 H   0  0  0  0  0  0  0  0  0  0  0  0
   49.6689    7.6667   10.9447 H   0  0  0  0  0  0  0  0  0  0  0  0
   48.4768    8.9235   11.3657 H   0  0  0  0  0  0  0  0  0  0  0  0
   47.9605    7.2417   11.0756 H   0  0  0  0  0  0  0  0  0  0  0  0
   47.2528    8.9573   18.3809 H   0  0  0  0  0  0  0  0  0  0  0  0
   48.1901    9.4802   16.9721 H   0  0  0  0  0  0  0  0  0  0  0  0
   47.7293    7.5644   20.3454 H   0  0  0  0  0  0  0  0  0  0  0  0
   49.3699    3.2924   18.4071 H   0  0  0  0  0  0  0  0  0  0  0  0
   48.4286    3.3219   20.6800 H   0  0  0  0  0  0  0  0  0  0  0  0
   48.8218    6.1508   14.1862 H   0  0  0  0  0  0  0  0  0  0  0  0
   50.9094    9.2052   16.3919 H   0  0  0  0  0  0  0  0  0  0  0  0
   49.4684    7.2365   12.0685 H   0  0  0  0  0  0  0  0  0  0  0  0
   51.5489   10.2980   14.2849 H   0  0  0  0  0  0  0  0  0  0  0  0
   46.5983    4.7085   22.1362 H   0  0  0  0  0  0  0  0  0  0  0  0
   48.2115    5.0762   22.7892 H   0  0  0  0  0  0  0  0  0  0  0  0
   47.0791    6.3874   22.4237 H   0  0  0  0  0  0  0  0  0  0  0  0
   50.5588   11.4209   20.2663 H   0  0  0  0  0  0  0  0  0  0  0  0
   49.9827   12.8486   19.3790 H   0  0  0  0  0  0  0  0  0  0  0  0
   49.0695   12.2384   20.7867 H   0  0  0  0  0  0  0  0  0  0  0  0
   47.1090   11.1729   17.7902 H   0  0  0  0  0  0  0  0  0  0  0  0
   47.0142   12.0832   19.3120 H   0  0  0  0  0  0  0  0  0  0  0  0
   47.9964   12.7015   17.9524 H   0  0  0  0  0  0  0  0  0  0  0  0
   51.0925    8.7823   10.9426 H   0  0  0  0  0  0  0  0  0  0  0  0
   50.1250   10.1998   11.4243 H   0  0  0  0  0  0  0  0  0  0  0  0
   51.8527   10.0953   11.8431 H   0  0  0  0  0  0  0  0  0  0  0  0
   47.2351    8.5102   20.0855 H   0  0  0  0  0  0  0  0  0  0  0  0
   49.0450    5.7614   15.4909 H   0  0  0  0  0  0  0  0  0  0  0  0
   49.9139   10.0602   18.9044 H   0  0  0  0  0  0  0  0  0  0  0  0
   48.4996    9.9466   15.7905 H   0  0  0  0  0  0  0  0  0  0  0  0
   50.4678    7.3689   18.2855 H   0  0  0  0  0  0  0  0  0  0  0  0
   50.5887    8.9051   16.2818 H   0  0  0  0  0  0  0  0  0  0  0  0
 10  4  1  0
 11  8  2  0
 12 11  1  0
 13  7  1  0
 14  7  2  0
 15 10  2  0
 16 10  1  0
 17 15  1  0
 18 16  2  0
 19 18  1  0
 20 11  1  0
 21 13  1  0
 22 13  1  0
 23 19  1  0
  3  5  2  0
  9 12  2  0
 17 19  2  0
  2  1  1  0
  3  4  1  0
  4  1  2  0
  5  2  1  0
  6  1  1  0
  7  6  1  0
  8  2  1  0
  9  5  1  0
 33 27  1  0
 34 31  2  0
 35 34  1  0
 36 30  1  0
 37 30  2  0
 38 33  2  0
 39 33  1  0
 40 38  1  0
 41 39  2  0
 42 41  1  0
 43 34  1  0
 44 36  1  0
 45 36  1  0
 46 42  1  0
 26 28  2  0
 32 35  2  0
 40 42  2  0
 25 24  1  0
 26 27  1  0
 27 24  2  0
 28 25  1  0
 29 24  1  0
 30 29  1  0
 31 25  1  0
 32 28  1  0
 53 48  2  0
 54 51  1  0
 55 52  1  0
 53 47  1  0
 55 56  1  0
 54 55  1  0
 56 49  1  0
 53 54  1  0
 56 50  2  0
  6 57  1  0
  6 58  1  0
  8 59  1  0
  9 60  1  0
 12 61  1  0
 15 62  1  0
 16 63  1  0
 17 64  1  0
 18 65  1  0
 20 66  1  0
 20 67  1  0
 20 68  1  0
 21 69  1  0
 21 70  1  0
 21 71  1  0
 22 72  1  0
 22 73  1  0
 22 74  1  0
 23 75  1  0
 23 76  1  0
 23 77  1  0
 29 78  1  0
 29 79  1  0
 31 80  1  0
 32 81  1  0
 35 82  1  0
 38 83  1  0
 39 84  1  0
 40 85  1  0
 41 86  1  0
 43 87  1  0
 43 88  1  0
 43 89  1  0
 44 90  1  0
 44 91  1  0
 44 92  1  0
 45 93  1  0
 45 94  1  0
 45 95  1  0
 46 96  1  0
 46 97  1  0
 46 98  1  0
 47 99  1  0
 49100  1  0
 51101  1  0
 52102  1  0
 54103  1  6
 55104  1  6
M  END
> <Uni-Dock RESULT> 
ENERGY=   -5.577  LOWER_BOUND=    7.981  UPPER_BOUND=   11.247
INTER + INTRA:          -5.577
INTER:                  -5.577
INTRA:                   0.000
UNBOUND:                 0.000

$$$$
