
     RDKit          3D

104107  0  0  0  0  0  0  0  0999 V2000
   49.0748    7.9981   13.9763 C   0  0  0  0  0  0  0  0  0  0  0  0
   50.3282    8.4498   13.6027 N   0  0  0  0  0  0  0  0  0  0  0  0
   49.3153    7.7817   11.7195 N   0  0  0  0  0  0  0  0  0  0  0  0
   48.5022    7.5411   12.7999 C   0  0  0  0  0  0  0  0  0  0  0  0
   50.4127    8.3036   12.2208 C   0  0  0  0  0  0  0  0  0  0  0  0
   48.5458    8.0691   15.3743 C   0  0  0  0  0  0  0  0  0  0  0  0
   49.0723    6.9351   16.2544 C   0  0  0  0  0  0  0  0  0  0  0  0
   51.3575    8.9955   14.3743 C   0  0  0  0  0  0  0  0  0  0  0  0
   51.6158    8.7295   11.5923 C   0  0  0  0  0  0  0  0  0  0  0  0
   47.1816    6.9586   12.6616 C   0  0  0  0  0  0  0  0  0  0  0  0
   52.4959    9.4020   13.7796 C   0  0  0  0  0  0  0  0  0  0  0  0
   52.6138    9.2537   12.3303 C   0  0  0  0  0  0  0  0  0  0  0  0
   48.5143    6.8131   17.5252 N   0  0  0  0  0  0  0  0  0  0  0  0
   49.9551    6.1667   15.8628 O   0  0  0  0  0  0  0  0  0  0  0  0
   46.3076    7.4576   11.6906 C   0  0  0  0  0  0  0  0  0  0  0  0
   46.7621    5.9009   13.4774 C   0  0  0  0  0  0  0  0  0  0  0  0
   45.0177    6.9341   11.5627 C   0  0  0  0  0  0  0  0  0  0  0  0
   45.4711    5.3795   13.3522 C   0  0  0  0  0  0  0  0  0  0  0  0
   44.5898    5.8899   12.3919 C   0  0  0  0  0  0  0  0  0  0  0  0
   53.6502   10.0002   14.5201 C   0  0  0  0  0  0  0  0  0  0  0  0
   47.4854    7.6789   18.0819 C   0  0  0  0  0  0  0  0  0  0  0  0
   48.9362    5.7108   18.3737 C   0  0  0  0  0  0  0  0  0  0  0  0
   43.1929    5.3549   12.2782 C   0  0  0  0  0  0  0  0  0  0  0  0
   49.2232    7.3796   13.9166 C   0  0  0  0  0  0  0  0  0  0  0  0
   50.3627    7.9264   13.3448 N   0  0  0  0  0  0  0  0  0  0  0  0
   48.9646    7.4749   11.6503 N   0  0  0  0  0  0  0  0  0  0  0  0
   48.3992    7.0894   12.8399 C   0  0  0  0  0  0  0  0  0  0  0  0
   50.1411    7.9682   11.9700 C   0  0  0  0  0  0  0  0  0  0  0  0
   49.0237    7.1863   15.3895 C   0  0  0  0  0  0  0  0  0  0  0  0
   48.8372    8.5058   16.1424 C   0  0  0  0  0  0  0  0  0  0  0  0
   51.5522    8.3690   13.9329 C   0  0  0  0  0  0  0  0  0  0  0  0
   51.1806    8.4970   11.1543 C   0  0  0  0  0  0  0  0  0  0  0  0
   47.0920    6.4694   12.9141 C   0  0  0  0  0  0  0  0  0  0  0  0
   52.5402    8.8665   13.1632 C   0  0  0  0  0  0  0  0  0  0  0  0
   52.3286    8.9197   11.7182 C   0  0  0  0  0  0  0  0  0  0  0  0
   48.3493    8.4270   17.4501 N   0  0  0  0  0  0  0  0  0  0  0  0
   49.1315    9.5886   15.6337 O   0  0  0  0  0  0  0  0  0  0  0  0
   45.9539    7.1944   12.5507 C   0  0  0  0  0  0  0  0  0  0  0  0
   46.9563    5.1377   13.3247 C   0  0  0  0  0  0  0  0  0  0  0  0
   44.6899    6.5991   12.6173 C   0  0  0  0  0  0  0  0  0  0  0  0
   45.6911    4.5439   13.3895 C   0  0  0  0  0  0  0  0  0  0  0  0
   44.5483    5.2667   13.0247 C   0  0  0  0  0  0  0  0  0  0  0  0
   53.8382    9.3788   13.7051 C   0  0  0  0  0  0  0  0  0  0  0  0
   48.1922    9.6682   18.1969 C   0  0  0  0  0  0  0  0  0  0  0  0
   48.2704    7.2041   18.2371 C   0  0  0  0  0  0  0  0  0  0  0  0
   43.1894    4.6358   13.1100 C   0  0  0  0  0  0  0  0  0  0  0  0
   49.4653    7.8021   16.4445 O   0  0  0  0  0  0  0  0  0  0  0  0
   47.7438    9.1804   16.0864 O   0  0  0  0  0  0  0  0  0  0  0  0
   47.3510    5.9081   14.9263 O   0  0  0  0  0  0  0  0  0  0  0  0
   47.4031    5.5841   12.7172 O   0  0  0  0  0  0  0  0  0  0  0  0
   47.9425    8.9207   13.3178 O   0  0  0  0  0  0  0  0  0  0  0  0
   49.8319    6.8546   12.4405 O   0  0  0  0  0  0  0  0  0  0  0  0
   48.6291    8.4706   15.6277 C   0  0  0  0  0  0  0  0  0  0  0  0
   48.9565    8.3319   14.1454 C   0  0  1  0  0  0  0  0  0  0  0  0
   49.2084    6.8799   13.7375 C   0  0  1  0  0  0  0  0  0  0  0  0
   47.9130    6.0772   13.7136 C   0  0  0  0  0  0  0  0  0  0  0  0
   48.8260    9.0261   15.8275 H   0  0  0  0  0  0  0  0  0  0  0  0
   47.4517    8.0189   15.3481 H   0  0  0  0  0  0  0  0  0  0  0  0
   51.1991    9.0627   15.4429 H   0  0  0  0  0  0  0  0  0  0  0  0
   51.7034    8.6122   10.5192 H   0  0  0  0  0  0  0  0  0  0  0  0
   53.5343    9.5766   11.8500 H   0  0  0  0  0  0  0  0  0  0  0  0
   46.6275    8.2632   11.0322 H   0  0  0  0  0  0  0  0  0  0  0  0
   47.4402    5.4663   14.2084 H   0  0  0  0  0  0  0  0  0  0  0  0
   44.3499    7.3466   10.8091 H   0  0  0  0  0  0  0  0  0  0  0  0
   45.1613    4.5670   14.0062 H   0  0  0  0  0  0  0  0  0  0  0  0
   53.9285   10.9662   14.0853 H   0  0  0  0  0  0  0  0  0  0  0  0
   54.5213    9.3387   14.4804 H   0  0  0  0  0  0  0  0  0  0  0  0
   53.4078   10.1717   15.5744 H   0  0  0  0  0  0  0  0  0  0  0  0
   47.3137    8.5750   17.4871 H   0  0  0  0  0  0  0  0  0  0  0  0
   47.7873    7.9898   19.0858 H   0  0  0  0  0  0  0  0  0  0  0  0
   46.5515    7.1149   18.1451 H   0  0  0  0  0  0  0  0  0  0  0  0
   49.6474    5.0454   17.8776 H   0  0  0  0  0  0  0  0  0  0  0  0
   49.4079    6.1232   19.2711 H   0  0  0  0  0  0  0  0  0  0  0  0
   48.0568    5.1267   18.6623 H   0  0  0  0  0  0  0  0  0  0  0  0
   43.1472    4.3100   12.6020 H   0  0  0  0  0  0  0  0  0  0  0  0
   42.8474    5.3877   11.2399 H   0  0  0  0  0  0  0  0  0  0  0  0
   42.5143    5.9476   12.8997 H   0  0  0  0  0  0  0  0  0  0  0  0
   49.8821    6.6560   15.8149 H   0  0  0  0  0  0  0  0  0  0  0  0
   48.1330    6.5744   15.5456 H   0  0  0  0  0  0  0  0  0  0  0  0
   51.6249    8.3055   15.0095 H   0  0  0  0  0  0  0  0  0  0  0  0
   51.0231    8.5387   10.0825 H   0  0  0  0  0  0  0  0  0  0  0  0
   53.1258    9.3137   11.0944 H   0  0  0  0  0  0  0  0  0  0  0  0
   46.0482    8.2235   12.2116 H   0  0  0  0  0  0  0  0  0  0  0  0
   47.8346    4.5539   13.5881 H   0  0  0  0  0  0  0  0  0  0  0  0
   43.8159    7.1862   12.3430 H   0  0  0  0  0  0  0  0  0  0  0  0
   45.6091    3.5076   13.7112 H   0  0  0  0  0  0  0  0  0  0  0  0
   53.8739    9.3107   14.7993 H   0  0  0  0  0  0  0  0  0  0  0  0
   53.9825   10.4329   13.4338 H   0  0  0  0  0  0  0  0  0  0  0  0
   54.6767    8.7945   13.3101 H   0  0  0  0  0  0  0  0  0  0  0  0
   48.0978   10.5347   17.5370 H   0  0  0  0  0  0  0  0  0  0  0  0
   49.0731    9.7987   18.8350 H   0  0  0  0  0  0  0  0  0  0  0  0
   47.2948    9.6045   18.8174 H   0  0  0  0  0  0  0  0  0  0  0  0
   49.1049    7.1955   18.9478 H   0  0  0  0  0  0  0  0  0  0  0  0
   48.3259    6.3003   17.6289 H   0  0  0  0  0  0  0  0  0  0  0  0
   47.3246    7.1975   18.7873 H   0  0  0  0  0  0  0  0  0  0  0  0
   42.7693    4.7724   14.1120 H   0  0  0  0  0  0  0  0  0  0  0  0
   42.5045    5.0799   12.3794 H   0  0  0  0  0  0  0  0  0  0  0  0
   43.2418    3.5631   12.8922 H   0  0  0  0  0  0  0  0  0  0  0  0
   49.1379    8.0003   17.3473 H   0  0  0  0  0  0  0  0  0  0  0  0
   46.5338    5.3907   14.7433 H   0  0  0  0  0  0  0  0  0  0  0  0
   47.6683    9.7478   13.7622 H   0  0  0  0  0  0  0  0  0  0  0  0
   49.1076    6.7302   11.7891 H   0  0  0  0  0  0  0  0  0  0  0  0
   49.8629    8.9229   13.9697 H   0  0  0  0  0  0  0  0  0  0  0  0
   49.9079    6.3767   14.4160 H   0  0  0  0  0  0  0  0  0  0  0  0
 10  4  1  0
 11  8  2  0
 12 11  1  0
 13  7  1  0
 14  7  2  0
 15 10  2  0
 16 10  1  0
 17 15  1  0
 18 16  2  0
 19 18  1  0
 20 11  1  0
 21 13  1  0
 22 13  1  0
 23 19  1  0
  3  5  2  0
  9 12  2  0
 17 19  2  0
  2  1  1  0
  3  4  1  0
  4  1  2  0
  5  2  1  0
  6  1  1  0
  7  6  1  0
  8  2  1  0
  9  5  1  0
 33 27  1  0
 34 31  2  0
 35 34  1  0
 36 30  1  0
 37 30  2  0
 38 33  2  0
 39 33  1  0
 40 38  1  0
 41 39  2  0
 42 41  1  0
 43 34  1  0
 44 36  1  0
 45 36  1  0
 46 42  1  0
 26 28  2  0
 32 35  2  0
 40 42  2  0
 25 24  1  0
 26 27  1  0
 27 24  2  0
 28 25  1  0
 29 24  1  0
 30 29  1  0
 31 25  1  0
 32 28  1  0
 53 48  2  0
 54 51  1  0
 55 52  1  0
 53 47  1  0
 55 56  1  0
 54 55  1  0
 56 49  1  0
 53 54  1  0
 56 50  2  0
  6 57  1  0
  6 58  1  0
  8 59  1  0
  9 60  1  0
 12 61  1  0
 15 62  1  0
 16 63  1  0
 17 64  1  0
 18 65  1  0
 20 66  1  0
 20 67  1  0
 20 68  1  0
 21 69  1  0
 21 70  1  0
 21 71  1  0
 22 72  1  0
 22 73  1  0
 22 74  1  0
 23 75  1  0
 23 76  1  0
 23 77  1  0
 29 78  1  0
 29 79  1  0
 31 80  1  0
 32 81  1  0
 35 82  1  0
 38 83  1  0
 39 84  1  0
 40 85  1  0
 41 86  1  0
 43 87  1  0
 43 88  1  0
 43 89  1  0
 44 90  1  0
 44 91  1  0
 44 92  1  0
 45 93  1  0
 45 94  1  0
 45 95  1  0
 46 96  1  0
 46 97  1  0
 46 98  1  0
 47 99  1  0
 49100  1  0
 51101  1  0
 52102  1  0
 54103  1  6
 55104  1  6
M  END
> <Uni-Dock RESULT> 
ENERGY=   -7.993  LOWER_BOUND=    0.000  UPPER_BOUND=    0.000
INTER + INTRA:          -7.993
INTER:                  -7.993
INTRA:                   0.000
UNBOUND:                 0.000

$$$$

     RDKit          3D

104107  0  0  0  0  0  0  0  0999 V2000
   49.5271    6.0700   19.2559 C   0  0  0  0  0  0  0  0  0  0  0  0
   49.2679    4.9619   18.4687 N   0  0  0  0  0  0  0  0  0  0  0  0
   47.4098    6.2126   18.4225 N   0  0  0  0  0  0  0  0  0  0  0  0
   48.3418    6.7880   19.2512 C   0  0  0  0  0  0  0  0  0  0  0  0
   47.9720    5.1090   17.9818 C   0  0  0  0  0  0  0  0  0  0  0  0
   50.8511    6.3460   19.8964 C   0  0  0  0  0  0  0  0  0  0  0  0
   51.0527    5.5473   21.1844 C   0  0  0  0  0  0  0  0  0  0  0  0
   50.0869    3.8795   18.1368 C   0  0  0  0  0  0  0  0  0  0  0  0
   47.4814    4.0927   17.1156 C   0  0  0  0  0  0  0  0  0  0  0  0
   48.0965    8.0381   19.9435 C   0  0  0  0  0  0  0  0  0  0  0  0
   49.6243    2.9182   17.3141 C   0  0  0  0  0  0  0  0  0  0  0  0
   48.2644    3.0445   16.7937 C   0  0  0  0  0  0  0  0  0  0  0  0
   52.1792    5.8526   21.9451 N   0  0  0  0  0  0  0  0  0  0  0  0
   50.2601    4.6677   21.5328 O   0  0  0  0  0  0  0  0  0  0  0  0
   47.5621    9.1216   19.2389 C   0  0  0  0  0  0  0  0  0  0  0  0
   48.3788    8.1841   21.3070 C   0  0  0  0  0  0  0  0  0  0  0  0
   47.3497   10.3465   19.8781 C   0  0  0  0  0  0  0  0  0  0  0  0
   48.1699    9.4100   21.9457 C   0  0  0  0  0  0  0  0  0  0  0  0
   47.6508   10.4999   21.2371 C   0  0  0  0  0  0  0  0  0  0  0  0
   50.4264    1.7251   16.8997 C   0  0  0  0  0  0  0  0  0  0  0  0
   53.1779    6.8565   21.6089 C   0  0  0  0  0  0  0  0  0  0  0  0
   52.3788    5.1653   23.2103 C   0  0  0  0  0  0  0  0  0  0  0  0
   47.4574   11.8257   21.9119 C   0  0  0  0  0  0  0  0  0  0  0  0
   49.1756    5.8660   19.7489 C   0  0  0  0  0  0  0  0  0  0  0  0
   48.7972    4.9154   18.8122 N   0  0  0  0  0  0  0  0  0  0  0  0
   47.2465    6.5332   18.7265 N   0  0  0  0  0  0  0  0  0  0  0  0
   48.1817    6.8308   19.6857 C   0  0  0  0  0  0  0  0  0  0  0  0
   47.6267    5.3816   18.2177 C   0  0  0  0  0  0  0  0  0  0  0  0
   50.4092    5.7770   20.5956 C   0  0  0  0  0  0  0  0  0  0  0  0
   51.6971    5.9734   19.7923 C   0  0  0  0  0  0  0  0  0  0  0  0
   49.3899    3.6975   18.4625 C   0  0  0  0  0  0  0  0  0  0  0  0
   47.0356    4.5700   17.2090 C   0  0  0  0  0  0  0  0  0  0  0  0
   48.1055    8.0258   20.5010 C   0  0  0  0  0  0  0  0  0  0  0  0
   48.8307    2.9245   17.5106 C   0  0  0  0  0  0  0  0  0  0  0  0
   47.6023    3.3948   16.8739 C   0  0  0  0  0  0  0  0  0  0  0  0
   52.8685    6.2086   20.5183 N   0  0  0  0  0  0  0  0  0  0  0  0
   51.7111    5.8978   18.5627 O   0  0  0  0  0  0  0  0  0  0  0  0
   48.2394    9.2845   19.9088 C   0  0  0  0  0  0  0  0  0  0  0  0
   47.8741    7.9359   21.8789 C   0  0  0  0  0  0  0  0  0  0  0  0
   48.1632   10.4415   20.6913 C   0  0  0  0  0  0  0  0  0  0  0  0
   47.7970    9.0944   22.6594 C   0  0  0  0  0  0  0  0  0  0  0  0
   47.9291   10.3578   22.0695 C   0  0  0  0  0  0  0  0  0  0  0  0
   49.4025    1.6166   17.0598 C   0  0  0  0  0  0  0  0  0  0  0  0
   54.1121    6.3684   19.7761 C   0  0  0  0  0  0  0  0  0  0  0  0
   53.0129    6.0082   21.9536 C   0  0  0  0  0  0  0  0  0  0  0  0
   47.8634   11.6002   22.9085 C   0  0  0  0  0  0  0  0  0  0  0  0
   51.5742    5.2265   20.4311 O   0  0  0  0  0  0  0  0  0  0  0  0
   52.0745    7.1280   19.3702 O   0  0  0  0  0  0  0  0  0  0  0  0
   49.5973    7.3512   21.8241 O   0  0  0  0  0  0  0  0  0  0  0  0
   47.4934    7.6574   21.1404 O   0  0  0  0  0  0  0  0  0  0  0  0
   49.4902    7.3978   18.3601 O   0  0  0  0  0  0  0  0  0  0  0  0
   47.5666    5.4750   19.4607 O   0  0  0  0  0  0  0  0  0  0  0  0
   51.2493    6.2645   19.6372 C   0  0  0  0  0  0  0  0  0  0  0  0
   49.8418    6.1930   19.0562 C   0  0  1  0  0  0  0  0  0  0  0  0
   48.7907    5.8563   20.1146 C   0  0  1  0  0  0  0  0  0  0  0  0
   48.5431    7.0368   21.0463 C   0  0  0  0  0  0  0  0  0  0  0  0
   51.6581    6.0988   19.1984 H   0  0  0  0  0  0  0  0  0  0  0  0
   50.9235    7.4146   20.1268 H   0  0  0  0  0  0  0  0  0  0  0  0
   51.0782    3.8516   18.5705 H   0  0  0  0  0  0  0  0  0  0  0  0
   46.4710    4.1851   16.7369 H   0  0  0  0  0  0  0  0  0  0  0  0
   47.8881    2.2664   16.1339 H   0  0  0  0  0  0  0  0  0  0  0  0
   47.3144    9.0166   18.1842 H   0  0  0  0  0  0  0  0  0  0  0  0
   48.7520    7.3423   21.8857 H   0  0  0  0  0  0  0  0  0  0  0  0
   46.9453   11.1799   19.3072 H   0  0  0  0  0  0  0  0  0  0  0  0
   48.4094    9.5051   23.0028 H   0  0  0  0  0  0  0  0  0  0  0  0
   50.4540    1.6389   15.8081 H   0  0  0  0  0  0  0  0  0  0  0  0
   49.9946    0.8062   17.3089 H   0  0  0  0  0  0  0  0  0  0  0  0
   51.4618    1.7934   17.2504 H   0  0  0  0  0  0  0  0  0  0  0  0
   53.0810    7.2310   20.5907 H   0  0  0  0  0  0  0  0  0  0  0  0
   54.1736    6.4174   21.7164 H   0  0  0  0  0  0  0  0  0  0  0  0
   53.0772    7.6949   22.3027 H   0  0  0  0  0  0  0  0  0  0  0  0
   51.5596    4.4837   23.4534 H   0  0  0  0  0  0  0  0  0  0  0  0
   53.3084    4.5906   23.1513 H   0  0  0  0  0  0  0  0  0  0  0  0
   52.4619    5.9080   24.0100 H   0  0  0  0  0  0  0  0  0  0  0  0
   47.2705   11.6953   22.9828 H   0  0  0  0  0  0  0  0  0  0  0  0
   46.5931   12.3521   21.4941 H   0  0  0  0  0  0  0  0  0  0  0  0
   48.3504   12.4449   21.7816 H   0  0  0  0  0  0  0  0  0  0  0  0
   50.4493    4.8025   21.0935 H   0  0  0  0  0  0  0  0  0  0  0  0
   50.3639    6.5512   21.3642 H   0  0  0  0  0  0  0  0  0  0  0  0
   50.3033    3.4275   18.9733 H   0  0  0  0  0  0  0  0  0  0  0  0
   46.1255    4.9197   16.7348 H   0  0  0  0  0  0  0  0  0  0  0  0
   47.1452    2.7709   16.1112 H   0  0  0  0  0  0  0  0  0  0  0  0
   48.4002    9.3684   18.8365 H   0  0  0  0  0  0  0  0  0  0  0  0
   47.7446    6.9648   22.3500 H   0  0  0  0  0  0  0  0  0  0  0  0
   48.2840   11.4107   20.2118 H   0  0  0  0  0  0  0  0  0  0  0  0
   47.6163    9.0010   23.7284 H   0  0  0  0  0  0  0  0  0  0  0  0
   50.3335    1.3792   17.5891 H   0  0  0  0  0  0  0  0  0  0  0  0
   49.6292    1.6423   15.9858 H   0  0  0  0  0  0  0  0  0  0  0  0
   48.6959    0.8017   17.2523 H   0  0  0  0  0  0  0  0  0  0  0  0
   53.9358    6.6755   18.7418 H   0  0  0  0  0  0  0  0  0  0  0  0
   54.6396    5.4083   19.7792 H   0  0  0  0  0  0  0  0  0  0  0  0
   54.7280    7.1281   20.2640 H   0  0  0  0  0  0  0  0  0  0  0  0
   53.5460    5.0648   22.1194 H   0  0  0  0  0  0  0  0  0  0  0  0
   52.0569    5.9608   22.4767 H   0  0  0  0  0  0  0  0  0  0  0  0
   53.5980    6.8340   22.3693 H   0  0  0  0  0  0  0  0  0  0  0  0
   48.8559   11.8477   23.2994 H   0  0  0  0  0  0  0  0  0  0  0  0
   47.4956   12.4497   22.3228 H   0  0  0  0  0  0  0  0  0  0  0  0
   47.1752   11.4673   23.7509 H   0  0  0  0  0  0  0  0  0  0  0  0
   52.4972    5.4080   20.7077 H   0  0  0  0  0  0  0  0  0  0  0  0
   49.2878    8.1246   22.3486 H   0  0  0  0  0  0  0  0  0  0  0  0
   50.2902    7.6795   17.8730 H   0  0  0  0  0  0  0  0  0  0  0  0
   47.0132    6.2851   19.4180 H   0  0  0  0  0  0  0  0  0  0  0  0
   49.8586    5.4045   18.2947 H   0  0  0  0  0  0  0  0  0  0  0  0
   49.0839    4.9951   20.7272 H   0  0  0  0  0  0  0  0  0  0  0  0
 10  4  1  0
 11  8  2  0
 12 11  1  0
 13  7  1  0
 14  7  2  0
 15 10  2  0
 16 10  1  0
 17 15  1  0
 18 16  2  0
 19 18  1  0
 20 11  1  0
 21 13  1  0
 22 13  1  0
 23 19  1  0
  3  5  2  0
  9 12  2  0
 17 19  2  0
  2  1  1  0
  3  4  1  0
  4  1  2  0
  5  2  1  0
  6  1  1  0
  7  6  1  0
  8  2  1  0
  9  5  1  0
 33 27  1  0
 34 31  2  0
 35 34  1  0
 36 30  1  0
 37 30  2  0
 38 33  2  0
 39 33  1  0
 40 38  1  0
 41 39  2  0
 42 41  1  0
 43 34  1  0
 44 36  1  0
 45 36  1  0
 46 42  1  0
 26 28  2  0
 32 35  2  0
 40 42  2  0
 25 24  1  0
 26 27  1  0
 27 24  2  0
 28 25  1  0
 29 24  1  0
 30 29  1  0
 31 25  1  0
 32 28  1  0
 53 48  2  0
 54 51  1  0
 55 52  1  0
 53 47  1  0
 55 56  1  0
 54 55  1  0
 56 49  1  0
 53 54  1  0
 56 50  2  0
  6 57  1  0
  6 58  1  0
  8 59  1  0
  9 60  1  0
 12 61  1  0
 15 62  1  0
 16 63  1  0
 17 64  1  0
 18 65  1  0
 20 66  1  0
 20 67  1  0
 20 68  1  0
 21 69  1  0
 21 70  1  0
 21 71  1  0
 22 72  1  0
 22 73  1  0
 22 74  1  0
 23 75  1  0
 23 76  1  0
 23 77  1  0
 29 78  1  0
 29 79  1  0
 31 80  1  0
 32 81  1  0
 35 82  1  0
 38 83  1  0
 39 84  1  0
 40 85  1  0
 41 86  1  0
 43 87  1  0
 43 88  1  0
 43 89  1  0
 44 90  1  0
 44 91  1  0
 44 92  1  0
 45 93  1  0
 45 94  1  0
 45 95  1  0
 46 96  1  0
 46 97  1  0
 46 98  1  0
 47 99  1  0
 49100  1  0
 51101  1  0
 52102  1  0
 54103  1  6
 55104  1  6
M  END
> <Uni-Dock RESULT> 
ENERGY=   -7.152  LOWER_BOUND=    5.297  UPPER_BOUND=    7.685
INTER + INTRA:          -7.152
INTER:                  -7.152
INTRA:                   0.000
UNBOUND:                 0.000

$$$$

     RDKit          3D

104107  0  0  0  0  0  0  0  0999 V2000
   49.8425    8.3248   16.1707 C   0  0  0  0  0  0  0  0  0  0  0  0
   49.7560    8.3938   14.7914 N   0  0  0  0  0  0  0  0  0  0  0  0
   47.8348    9.2314   15.5830 N   0  0  0  0  0  0  0  0  0  0  0  0
   48.6195    8.7949   16.6223 C   0  0  0  0  0  0  0  0  0  0  0  0
   48.5203    8.9619   14.4941 C   0  0  0  0  0  0  0  0  0  0  0  0
   51.0584    7.8576   16.9073 C   0  0  0  0  0  0  0  0  0  0  0  0
   51.1596    6.3328   16.9560 C   0  0  0  0  0  0  0  0  0  0  0  0
   50.6814    8.0289   13.8101 C   0  0  0  0  0  0  0  0  0  0  0  0
   48.2077    9.1614   13.1207 C   0  0  0  0  0  0  0  0  0  0  0  0
   48.2078    8.9144   18.0074 C   0  0  0  0  0  0  0  0  0  0  0  0
   50.3875    8.2203   12.5094 C   0  0  0  0  0  0  0  0  0  0  0  0
   49.0939    8.8091   12.1688 C   0  0  0  0  0  0  0  0  0  0  0  0
   52.1637    5.7934   17.7573 N   0  0  0  0  0  0  0  0  0  0  0  0
   50.3937    5.6111   16.3112 O   0  0  0  0  0  0  0  0  0  0  0  0
   47.6878   10.1279   18.4686 C   0  0  0  0  0  0  0  0  0  0  0  0
   48.3147    7.8372   18.8954 C   0  0  0  0  0  0  0  0  0  0  0  0
   47.3168   10.2760   19.8082 C   0  0  0  0  0  0  0  0  0  0  0  0
   47.9472    7.9859   20.2360 C   0  0  0  0  0  0  0  0  0  0  0  0
   47.4424    9.2054   20.7022 C   0  0  0  0  0  0  0  0  0  0  0  0
   51.3136    7.8650   11.3893 C   0  0  0  0  0  0  0  0  0  0  0  0
   53.1237    6.5599   18.5377 C   0  0  0  0  0  0  0  0  0  0  0  0
   52.2579    4.3486   17.8865 C   0  0  0  0  0  0  0  0  0  0  0  0
   47.0789    9.3776   22.1475 C   0  0  0  0  0  0  0  0  0  0  0  0
   49.4496    7.8236   16.2218 C   0  0  0  0  0  0  0  0  0  0  0  0
   49.2520    8.1108   14.8791 N   0  0  0  0  0  0  0  0  0  0  0  0
   47.6148    9.1627   15.9937 N   0  0  0  0  0  0  0  0  0  0  0  0
   48.4062    8.4652   16.8715 C   0  0  0  0  0  0  0  0  0  0  0  0
   48.1314    8.9352   14.8059 C   0  0  0  0  0  0  0  0  0  0  0  0
   50.5766    6.9904   16.7530 C   0  0  0  0  0  0  0  0  0  0  0  0
   51.9345    7.6882   16.6441 C   0  0  0  0  0  0  0  0  0  0  0  0
   49.9647    7.7010   13.7474 C   0  0  0  0  0  0  0  0  0  0  0  0
   47.7221    9.3719   13.5146 C   0  0  0  0  0  0  0  0  0  0  0  0
   48.1511    8.4413   18.2974 C   0  0  0  0  0  0  0  0  0  0  0  0
   49.5776    8.1093   12.5227 C   0  0  0  0  0  0  0  0  0  0  0  0
   48.4044    8.9748   12.4231 C   0  0  0  0  0  0  0  0  0  0  0  0
   52.9919    7.1367   17.3736 N   0  0  0  0  0  0  0  0  0  0  0  0
   52.1001    8.6733   15.9231 O   0  0  0  0  0  0  0  0  0  0  0  0
   48.2676    9.6148   19.0471 C   0  0  0  0  0  0  0  0  0  0  0  0
   47.7638    7.2554   18.9330 C   0  0  0  0  0  0  0  0  0  0  0  0
   48.0190    9.5975   20.4236 C   0  0  0  0  0  0  0  0  0  0  0  0
   47.5145    7.2407   20.3096 C   0  0  0  0  0  0  0  0  0  0  0  0
   47.6286    8.4150   21.0642 C   0  0  0  0  0  0  0  0  0  0  0  0
   50.2879    7.7361   11.2590 C   0  0  0  0  0  0  0  0  0  0  0  0
   54.3012    7.7663   17.2615 C   0  0  0  0  0  0  0  0  0  0  0  0
   52.9776    5.8191   17.9940 C   0  0  0  0  0  0  0  0  0  0  0  0
   47.3779    8.3964   22.5436 C   0  0  0  0  0  0  0  0  0  0  0  0
   51.7880    6.7544   16.3481 O   0  0  0  0  0  0  0  0  0  0  0  0
   52.2790    8.6476   17.4280 O   0  0  0  0  0  0  0  0  0  0  0  0
   49.5175    6.8742   18.6268 O   0  0  0  0  0  0  0  0  0  0  0  0
   47.4940    7.7442   18.2576 O   0  0  0  0  0  0  0  0  0  0  0  0
   49.8211    9.8004   16.7944 O   0  0  0  0  0  0  0  0  0  0  0  0
   47.9172    7.9516   15.5433 O   0  0  0  0  0  0  0  0  0  0  0  0
   51.4893    8.0047   16.7490 C   0  0  0  0  0  0  0  0  0  0  0  0
   50.1694    8.5391   16.2050 C   0  0  1  0  0  0  0  0  0  0  0  0
   49.0254    7.5368   16.3626 C   0  0  1  0  0  0  0  0  0  0  0  0
   48.5877    7.4184   17.8178 C   0  0  0  0  0  0  0  0  0  0  0  0
   51.9580    8.2552   16.4255 H   0  0  0  0  0  0  0  0  0  0  0  0
   51.0290    8.2440   17.9320 H   0  0  0  0  0  0  0  0  0  0  0  0
   51.6134    7.5892   14.1411 H   0  0  0  0  0  0  0  0  0  0  0  0
   47.2457    9.5915   12.8707 H   0  0  0  0  0  0  0  0  0  0  0  0
   48.8535    8.9592   11.1190 H   0  0  0  0  0  0  0  0  0  0  0  0
   47.5754   10.9673   17.7847 H   0  0  0  0  0  0  0  0  0  0  0  0
   48.6734    6.8708   18.5487 H   0  0  0  0  0  0  0  0  0  0  0  0
   46.9268   11.2332   20.1482 H   0  0  0  0  0  0  0  0  0  0  0  0
   48.0518    7.1397   20.9118 H   0  0  0  0  0  0  0  0  0  0  0  0
   51.4770    8.7282   10.7352 H   0  0  0  0  0  0  0  0  0  0  0  0
   50.9005    7.0485   10.7886 H   0  0  0  0  0  0  0  0  0  0  0  0
   52.2926    7.5445   11.7615 H   0  0  0  0  0  0  0  0  0  0  0  0
   53.1233    7.6211   18.2923 H   0  0  0  0  0  0  0  0  0  0  0  0
   54.1273    6.1681   18.3509 H   0  0  0  0  0  0  0  0  0  0  0  0
   52.8834    6.4443   19.5975 H   0  0  0  0  0  0  0  0  0  0  0  0
   51.4646    3.8246   17.3473 H   0  0  0  0  0  0  0  0  0  0  0  0
   53.2253    4.0260   17.4891 H   0  0  0  0  0  0  0  0  0  0  0  0
   52.1937    4.0809   18.9458 H   0  0  0  0  0  0  0  0  0  0  0  0
   46.7752    8.4233   22.5902 H   0  0  0  0  0  0  0  0  0  0  0  0
   46.2365   10.0681   22.2568 H   0  0  0  0  0  0  0  0  0  0  0  0
   47.9363    9.7686   22.7041 H   0  0  0  0  0  0  0  0  0  0  0  0
   50.6242    6.0399   16.2114 H   0  0  0  0  0  0  0  0  0  0  0  0
   50.3867    6.7737   17.8062 H   0  0  0  0  0  0  0  0  0  0  0  0
   50.8272    7.0697   13.9080 H   0  0  0  0  0  0  0  0  0  0  0  0
   46.8531   10.0159   13.4405 H   0  0  0  0  0  0  0  0  0  0  0  0
   48.0856    9.3000   11.4369 H   0  0  0  0  0  0  0  0  0  0  0  0
   48.5489   10.5465   18.5616 H   0  0  0  0  0  0  0  0  0  0  0  0
   47.6464    6.3398   18.3590 H   0  0  0  0  0  0  0  0  0  0  0  0
   48.1290   10.5197   20.9904 H   0  0  0  0  0  0  0  0  0  0  0  0
   47.2145    6.3078   20.7829 H   0  0  0  0  0  0  0  0  0  0  0  0
   51.1633    7.1060   11.4588 H   0  0  0  0  0  0  0  0  0  0  0  0
   50.6387    8.6332   10.7320 H   0  0  0  0  0  0  0  0  0  0  0  0
   49.6212    7.1746   10.5951 H   0  0  0  0  0  0  0  0  0  0  0  0
   54.2286    8.8091   16.9415 H   0  0  0  0  0  0  0  0  0  0  0  0
   54.8895    7.2064   16.5263 H   0  0  0  0  0  0  0  0  0  0  0  0
   54.8006    7.7348   18.2332 H   0  0  0  0  0  0  0  0  0  0  0  0
   53.5509    5.1322   17.3606 H   0  0  0  0  0  0  0  0  0  0  0  0
   51.9717    5.4160   18.1177 H   0  0  0  0  0  0  0  0  0  0  0  0
   53.4507    5.8860   18.9783 H   0  0  0  0  0  0  0  0  0  0  0  0
   48.2973    8.1429   23.0817 H   0  0  0  0  0  0  0  0  0  0  0  0
   47.0248    9.3726   22.8937 H   0  0  0  0  0  0  0  0  0  0  0  0
   46.6049    7.6631   22.8001 H   0  0  0  0  0  0  0  0  0  0  0  0
   52.6568    6.5646   16.7613 H   0  0  0  0  0  0  0  0  0  0  0  0
   49.0951    6.8776   19.5160 H   0  0  0  0  0  0  0  0  0  0  0  0
   50.6522   10.3111   16.8665 H   0  0  0  0  0  0  0  0  0  0  0  0
   47.3183    8.4641   16.1289 H   0  0  0  0  0  0  0  0  0  0  0  0
   50.3312    8.7438   15.1402 H   0  0  0  0  0  0  0  0  0  0  0  0
   49.3022    6.5365   16.0082 H   0  0  0  0  0  0  0  0  0  0  0  0
 10  4  1  0
 11  8  2  0
 12 11  1  0
 13  7  1  0
 14  7  2  0
 15 10  2  0
 16 10  1  0
 17 15  1  0
 18 16  2  0
 19 18  1  0
 20 11  1  0
 21 13  1  0
 22 13  1  0
 23 19  1  0
  3  5  2  0
  9 12  2  0
 17 19  2  0
  2  1  1  0
  3  4  1  0
  4  1  2  0
  5  2  1  0
  6  1  1  0
  7  6  1  0
  8  2  1  0
  9  5  1  0
 33 27  1  0
 34 31  2  0
 35 34  1  0
 36 30  1  0
 37 30  2  0
 38 33  2  0
 39 33  1  0
 40 38  1  0
 41 39  2  0
 42 41  1  0
 43 34  1  0
 44 36  1  0
 45 36  1  0
 46 42  1  0
 26 28  2  0
 32 35  2  0
 40 42  2  0
 25 24  1  0
 26 27  1  0
 27 24  2  0
 28 25  1  0
 29 24  1  0
 30 29  1  0
 31 25  1  0
 32 28  1  0
 53 48  2  0
 54 51  1  0
 55 52  1  0
 53 47  1  0
 55 56  1  0
 54 55  1  0
 56 49  1  0
 53 54  1  0
 56 50  2  0
  6 57  1  0
  6 58  1  0
  8 59  1  0
  9 60  1  0
 12 61  1  0
 15 62  1  0
 16 63  1  0
 17 64  1  0
 18 65  1  0
 20 66  1  0
 20 67  1  0
 20 68  1  0
 21 69  1  0
 21 70  1  0
 21 71  1  0
 22 72  1  0
 22 73  1  0
 22 74  1  0
 23 75  1  0
 23 76  1  0
 23 77  1  0
 29 78  1  0
 29 79  1  0
 31 80  1  0
 32 81  1  0
 35 82  1  0
 38 83  1  0
 39 84  1  0
 40 85  1  0
 41 86  1  0
 43 87  1  0
 43 88  1  0
 43 89  1  0
 44 90  1  0
 44 91  1  0
 44 92  1  0
 45 93  1  0
 45 94  1  0
 45 95  1  0
 46 96  1  0
 46 97  1  0
 46 98  1  0
 47 99  1  0
 49100  1  0
 51101  1  0
 52102  1  0
 54103  1  6
 55104  1  6
M  END
> <Uni-Dock RESULT> 
ENERGY=   -7.140  LOWER_BOUND=    2.758  UPPER_BOUND=    5.243
INTER + INTRA:          -7.140
INTER:                  -7.140
INTRA:                   0.000
UNBOUND:                 0.000

$$$$

     RDKit          3D

104107  0  0  0  0  0  0  0  0999 V2000
   48.3412    7.6839   19.7003 C   0  0  0  0  0  0  0  0  0  0  0  0
   48.0687    9.0379   19.6149 N   0  0  0  0  0  0  0  0  0  0  0  0
   48.2738    8.3053   17.5077 N   0  0  0  0  0  0  0  0  0  0  0  0
   48.5186    7.2788   18.3868 C   0  0  0  0  0  0  0  0  0  0  0  0
   48.0298    9.3553   18.2600 C   0  0  0  0  0  0  0  0  0  0  0  0
   48.3776    6.9205   20.9868 C   0  0  0  0  0  0  0  0  0  0  0  0
   49.6998    7.0999   21.7332 C   0  0  0  0  0  0  0  0  0  0  0  0
   47.8280    9.9750   20.6231 C   0  0  0  0  0  0  0  0  0  0  0  0
   47.7373   10.7040   17.9143 C   0  0  0  0  0  0  0  0  0  0  0  0
   48.8340    5.9356   17.9414 C   0  0  0  0  0  0  0  0  0  0  0  0
   47.5479   11.2516   20.2966 C   0  0  0  0  0  0  0  0  0  0  0  0
   47.5071   11.6137   18.8812 C   0  0  0  0  0  0  0  0  0  0  0  0
   49.9011    6.3034   22.8585 N   0  0  0  0  0  0  0  0  0  0  0  0
   50.5481    7.9163   21.3627 O   0  0  0  0  0  0  0  0  0  0  0  0
   48.0561    5.3413   16.9426 C   0  0  0  0  0  0  0  0  0  0  0  0
   49.9063    5.2195   18.4868 C   0  0  0  0  0  0  0  0  0  0  0  0
   48.3209    4.0346   16.5222 C   0  0  0  0  0  0  0  0  0  0  0  0
   50.1692    3.9115   18.0693 C   0  0  0  0  0  0  0  0  0  0  0  0
   49.3806    3.3099   17.0816 C   0  0  0  0  0  0  0  0  0  0  0  0
   47.2734   12.3237   21.3035 C   0  0  0  0  0  0  0  0  0  0  0  0
   48.9557    5.3289   23.3827 C   0  0  0  0  0  0  0  0  0  0  0  0
   51.1695    6.3918   23.5628 C   0  0  0  0  0  0  0  0  0  0  0  0
   49.6397    1.8949   16.6560 C   0  0  0  0  0  0  0  0  0  0  0  0
   48.9614    7.7475   19.5604 C   0  0  0  0  0  0  0  0  0  0  0  0
   48.5481    9.0417   19.2803 N   0  0  0  0  0  0  0  0  0  0  0  0
   48.5011    7.9321   17.3320 N   0  0  0  0  0  0  0  0  0  0  0  0
   48.9461    7.1044   18.3321 C   0  0  0  0  0  0  0  0  0  0  0  0
   48.2730    9.0885   17.9154 C   0  0  0  0  0  0  0  0  0  0  0  0
   49.3237    7.2509   20.9274 C   0  0  0  0  0  0  0  0  0  0  0  0
   48.1126    7.1254   21.8547 C   0  0  0  0  0  0  0  0  0  0  0  0
   48.4098   10.1532   20.1182 C   0  0  0  0  0  0  0  0  0  0  0  0
   47.8251   10.3283   17.3791 C   0  0  0  0  0  0  0  0  0  0  0  0
   49.3306    5.7290   18.0890 C   0  0  0  0  0  0  0  0  0  0  0  0
   47.9897   11.3299   19.6131 C   0  0  0  0  0  0  0  0  0  0  0  0
   47.6954   11.4011   18.1834 C   0  0  0  0  0  0  0  0  0  0  0  0
   48.2893    6.3965   23.0345 N   0  0  0  0  0  0  0  0  0  0  0  0
   47.0374    7.6665   21.5922 O   0  0  0  0  0  0  0  0  0  0  0  0
   48.3725    4.7988   17.6772 C   0  0  0  0  0  0  0  0  0  0  0  0
   50.6622    5.3232   18.2391 C   0  0  0  0  0  0  0  0  0  0  0  0
   48.7394    3.4703   17.4378 C   0  0  0  0  0  0  0  0  0  0  0  0
   51.0272    3.9943   17.9981 C   0  0  0  0  0  0  0  0  0  0  0  0
   50.0702    3.0594   17.5837 C   0  0  0  0  0  0  0  0  0  0  0  0
   47.7961   12.5658   20.4352 C   0  0  0  0  0  0  0  0  0  0  0  0
   47.1586    6.2891   23.9473 C   0  0  0  0  0  0  0  0  0  0  0  0
   49.5784    5.9920   23.5783 C   0  0  0  0  0  0  0  0  0  0  0  0
   50.4577    1.6300   17.3414 C   0  0  0  0  0  0  0  0  0  0  0  0
   48.9515    7.5749   22.1289 O   0  0  0  0  0  0  0  0  0  0  0  0
   47.2551    6.1739   21.7403 O   0  0  0  0  0  0  0  0  0  0  0  0
   50.2087    5.5229   19.9910 O   0  0  0  0  0  0  0  0  0  0  0  0
   50.2197    5.9364   17.7963 O   0  0  0  0  0  0  0  0  0  0  0  0
   47.1498    6.8435   19.0362 O   0  0  0  0  0  0  0  0  0  0  0  0
   49.3702    8.5354   18.1332 O   0  0  0  0  0  0  0  0  0  0  0  0
   48.0371    7.0139   21.3150 C   0  0  0  0  0  0  0  0  0  0  0  0
   48.0193    7.5870   19.9026 C   0  0  1  0  0  0  0  0  0  0  0  0
   49.4201    7.6923   19.2986 C   0  0  1  0  0  0  0  0  0  0  0  0
   49.9706    6.3194   18.9308 C   0  0  0  0  0  0  0  0  0  0  0  0
   47.5591    7.2503   21.6356 H   0  0  0  0  0  0  0  0  0  0  0  0
   48.2302    5.8553   20.7775 H   0  0  0  0  0  0  0  0  0  0  0  0
   47.8864    9.6322   21.6481 H   0  0  0  0  0  0  0  0  0  0  0  0
   47.7146   10.9713   16.8651 H   0  0  0  0  0  0  0  0  0  0  0  0
   47.2864   12.6451   18.6168 H   0  0  0  0  0  0  0  0  0  0  0  0
   47.2342    5.8940   16.4912 H   0  0  0  0  0  0  0  0  0  0  0  0
   50.5528    5.6775   19.2318 H   0  0  0  0  0  0  0  0  0  0  0  0
   47.6946    3.5874   15.7530 H   0  0  0  0  0  0  0  0  0  0  0  0
   50.9991    3.3684   18.5167 H   0  0  0  0  0  0  0  0  0  0  0  0
   46.3196   12.8182   21.0904 H   0  0  0  0  0  0  0  0  0  0  0  0
   48.0655   13.0791   21.2916 H   0  0  0  0  0  0  0  0  0  0  0  0
   47.2135   11.9175   22.3190 H   0  0  0  0  0  0  0  0  0  0  0  0
   47.9681    5.4057   22.9299 H   0  0  0  0  0  0  0  0  0  0  0  0
   48.8486    5.4815   24.4601 H   0  0  0  0  0  0  0  0  0  0  0  0
   49.3497    4.3264   23.1983 H   0  0  0  0  0  0  0  0  0  0  0  0
   51.8724    7.0762   23.0809 H   0  0  0  0  0  0  0  0  0  0  0  0
   50.9783    6.7442   24.5812 H   0  0  0  0  0  0  0  0  0  0  0  0
   51.6248    5.3973   23.6028 H   0  0  0  0  0  0  0  0  0  0  0  0
   50.6955    1.6353   16.7851 H   0  0  0  0  0  0  0  0  0  0  0  0
   49.3995    1.7573   15.5968 H   0  0  0  0  0  0  0  0  0  0  0  0
   49.0313    1.2081   17.2527 H   0  0  0  0  0  0  0  0  0  0  0  0
   50.0519    7.9268   21.3880 H   0  0  0  0  0  0  0  0  0  0  0  0
   49.7853    6.2660   20.8321 H   0  0  0  0  0  0  0  0  0  0  0  0
   48.6373   10.0142   21.1656 H   0  0  0  0  0  0  0  0  0  0  0  0
   47.6045   10.3810   16.3189 H   0  0  0  0  0  0  0  0  0  0  0  0
   47.3633   12.3499   17.7719 H   0  0  0  0  0  0  0  0  0  0  0  0
   47.3385    5.1060   17.5382 H   0  0  0  0  0  0  0  0  0  0  0  0
   51.4228    6.0407   18.5363 H   0  0  0  0  0  0  0  0  0  0  0  0
   47.9747    2.7596   17.1313 H   0  0  0  0  0  0  0  0  0  0  0  0
   52.0679    3.7010   18.1209 H   0  0  0  0  0  0  0  0  0  0  0  0
   48.0241   12.3868   21.4932 H   0  0  0  0  0  0  0  0  0  0  0  0
   46.7561   12.9128   20.3746 H   0  0  0  0  0  0  0  0  0  0  0  0
   48.4567   13.3670   20.0858 H   0  0  0  0  0  0  0  0  0  0  0  0
   46.2042    6.4487   23.4385 H   0  0  0  0  0  0  0  0  0  0  0  0
   47.2771    7.0453   24.7311 H   0  0  0  0  0  0  0  0  0  0  0  0
   47.1509    5.2925   24.3959 H   0  0  0  0  0  0  0  0  0  0  0  0
   49.8345    6.6691   24.4015 H   0  0  0  0  0  0  0  0  0  0  0  0
   50.3821    6.0250   22.8416 H   0  0  0  0  0  0  0  0  0  0  0  0
   49.4966    4.9701   23.9605 H   0  0  0  0  0  0  0  0  0  0  0  0
   50.3931    1.0559   18.2716 H   0  0  0  0  0  0  0  0  0  0  0  0
   49.8009    1.1666   16.5971 H   0  0  0  0  0  0  0  0  0  0  0  0
   51.4810    1.5623   16.9549 H   0  0  0  0  0  0  0  0  0  0  0  0
   48.8290    7.1183   22.9881 H   0  0  0  0  0  0  0  0  0  0  0  0
   50.5429    4.6864   19.5938 H   0  0  0  0  0  0  0  0  0  0  0  0
   46.3590    6.6172   19.5655 H   0  0  0  0  0  0  0  0  0  0  0  0
   49.2714    7.9347   17.3626 H   0  0  0  0  0  0  0  0  0  0  0  0
   47.5781    8.5878   19.9779 H   0  0  0  0  0  0  0  0  0  0  0  0
   50.1297    8.1708   19.9844 H   0  0  0  0  0  0  0  0  0  0  0  0
 10  4  1  0
 11  8  2  0
 12 11  1  0
 13  7  1  0
 14  7  2  0
 15 10  2  0
 16 10  1  0
 17 15  1  0
 18 16  2  0
 19 18  1  0
 20 11  1  0
 21 13  1  0
 22 13  1  0
 23 19  1  0
  3  5  2  0
  9 12  2  0
 17 19  2  0
  2  1  1  0
  3  4  1  0
  4  1  2  0
  5  2  1  0
  6  1  1  0
  7  6  1  0
  8  2  1  0
  9  5  1  0
 33 27  1  0
 34 31  2  0
 35 34  1  0
 36 30  1  0
 37 30  2  0
 38 33  2  0
 39 33  1  0
 40 38  1  0
 41 39  2  0
 42 41  1  0
 43 34  1  0
 44 36  1  0
 45 36  1  0
 46 42  1  0
 26 28  2  0
 32 35  2  0
 40 42  2  0
 25 24  1  0
 26 27  1  0
 27 24  2  0
 28 25  1  0
 29 24  1  0
 30 29  1  0
 31 25  1  0
 32 28  1  0
 53 48  2  0
 54 51  1  0
 55 52  1  0
 53 47  1  0
 55 56  1  0
 54 55  1  0
 56 49  1  0
 53 54  1  0
 56 50  2  0
  6 57  1  0
  6 58  1  0
  8 59  1  0
  9 60  1  0
 12 61  1  0
 15 62  1  0
 16 63  1  0
 17 64  1  0
 18 65  1  0
 20 66  1  0
 20 67  1  0
 20 68  1  0
 21 69  1  0
 21 70  1  0
 21 71  1  0
 22 72  1  0
 22 73  1  0
 22 74  1  0
 23 75  1  0
 23 76  1  0
 23 77  1  0
 29 78  1  0
 29 79  1  0
 31 80  1  0
 32 81  1  0
 35 82  1  0
 38 83  1  0
 39 84  1  0
 40 85  1  0
 41 86  1  0
 43 87  1  0
 43 88  1  0
 43 89  1  0
 44 90  1  0
 44 91  1  0
 44 92  1  0
 45 93  1  0
 45 94  1  0
 45 95  1  0
 46 96  1  0
 46 97  1  0
 46 98  1  0
 47 99  1  0
 49100  1  0
 51101  1  0
 52102  1  0
 54103  1  6
 55104  1  6
M  END
> <Uni-Dock RESULT> 
ENERGY=   -6.922  LOWER_BOUND=    4.725  UPPER_BOUND=    6.638
INTER + INTRA:          -6.922
INTER:                  -6.922
INTRA:                   0.000
UNBOUND:                 0.000

$$$$

     RDKit          3D

104107  0  0  0  0  0  0  0  0999 V2000
   49.8340    7.8762   13.7765 C   0  0  0  0  0  0  0  0  0  0  0  0
   50.7103    7.5278   14.7892 N   0  0  0  0  0  0  0  0  0  0  0  0
   48.7607    6.5387   15.2790 N   0  0  0  0  0  0  0  0  0  0  0  0
   48.6289    7.2974   14.1416 C   0  0  0  0  0  0  0  0  0  0  0  0
   50.0057    6.7073   15.6658 C   0  0  0  0  0  0  0  0  0  0  0  0
   50.2243    8.6807   12.5766 C   0  0  0  0  0  0  0  0  0  0  0  0
   50.2727   10.1801   12.8716 C   0  0  0  0  0  0  0  0  0  0  0  0
   52.0581    7.8509   14.9667 C   0  0  0  0  0  0  0  0  0  0  0  0
   50.7119    6.1948   16.7894 C   0  0  0  0  0  0  0  0  0  0  0  0
   47.3831    7.3784   13.4042 C   0  0  0  0  0  0  0  0  0  0  0  0
   52.7285    7.3636   16.0288 C   0  0  0  0  0  0  0  0  0  0  0  0
   52.0108    6.5047   16.9687 C   0  0  0  0  0  0  0  0  0  0  0  0
   50.4642   11.0301   11.7845 N   0  0  0  0  0  0  0  0  0  0  0  0
   50.1552   10.6195   14.0189 O   0  0  0  0  0  0  0  0  0  0  0  0
   46.6822    6.2055   13.1062 C   0  0  0  0  0  0  0  0  0  0  0  0
   46.8616    8.6089   12.9868 C   0  0  0  0  0  0  0  0  0  0  0  0
   45.4971    6.2572   12.3667 C   0  0  0  0  0  0  0  0  0  0  0  0
   45.6783    8.6607   12.2442 C   0  0  0  0  0  0  0  0  0  0  0  0
   44.9851    7.4857   11.9309 C   0  0  0  0  0  0  0  0  0  0  0  0
   54.1713    7.6508   16.3014 C   0  0  0  0  0  0  0  0  0  0  0  0
   50.6312   10.6074   10.4018 C   0  0  0  0  0  0  0  0  0  0  0  0
   50.4523   12.4666   12.0064 C   0  0  0  0  0  0  0  0  0  0  0  0
   43.7334    7.5359   11.1056 C   0  0  0  0  0  0  0  0  0  0  0  0
   49.5141    8.3019   14.1296 C   0  0  0  0  0  0  0  0  0  0  0  0
   50.2831    7.7306   15.1329 N   0  0  0  0  0  0  0  0  0  0  0  0
   48.3201    6.6463   15.1519 N   0  0  0  0  0  0  0  0  0  0  0  0
   48.3046    7.6269   14.1919 C   0  0  0  0  0  0  0  0  0  0  0  0
   49.5088    6.7259   15.7089 C   0  0  0  0  0  0  0  0  0  0  0  0
   49.9811    9.4047   13.2283 C   0  0  0  0  0  0  0  0  0  0  0  0
   51.0456    8.9454   12.2290 C   0  0  0  0  0  0  0  0  0  0  0  0
   51.5779    8.0311   15.5685 C   0  0  0  0  0  0  0  0  0  0  0  0
   50.0871    5.9835   16.7767 C   0  0  0  0  0  0  0  0  0  0  0  0
   47.1464    7.8815   13.3598 C   0  0  0  0  0  0  0  0  0  0  0  0
   52.1272    7.3329   16.5820 C   0  0  0  0  0  0  0  0  0  0  0  0
   51.3321    6.2743   17.2006 C   0  0  0  0  0  0  0  0  0  0  0  0
   51.3251    9.8025   11.1605 N   0  0  0  0  0  0  0  0  0  0  0  0
   51.6532    7.8834   12.3729 O   0  0  0  0  0  0  0  0  0  0  0  0
   46.7149    6.9134   12.4490 C   0  0  0  0  0  0  0  0  0  0  0  0
   46.4357    9.0824   13.4744 C   0  0  0  0  0  0  0  0  0  0  0  0
   45.5950    7.1532   11.6458 C   0  0  0  0  0  0  0  0  0  0  0  0
   45.3152    9.3196   12.6709 C   0  0  0  0  0  0  0  0  0  0  0  0
   44.8786    8.3513   11.7580 C   0  0  0  0  0  0  0  0  0  0  0  0
   53.5100    7.5721   17.1028 C   0  0  0  0  0  0  0  0  0  0  0  0
   52.3565    9.4000   10.2133 C   0  0  0  0  0  0  0  0  0  0  0  0
   50.8984   11.1923   11.0743 C   0  0  0  0  0  0  0  0  0  0  0  0
   43.6871    8.6118   10.8839 C   0  0  0  0  0  0  0  0  0  0  0  0
   51.1448    9.7644   12.7771 O   0  0  0  0  0  0  0  0  0  0  0  0
   50.7587    8.2303   11.1995 O   0  0  0  0  0  0  0  0  0  0  0  0
   47.9297    9.6955   12.6338 O   0  0  0  0  0  0  0  0  0  0  0  0
   46.6961    8.4329   14.0019 O   0  0  0  0  0  0  0  0  0  0  0  0
   49.3860    6.5681   12.9671 O   0  0  0  0  0  0  0  0  0  0  0  0
   48.8544    7.7812   15.5851 O   0  0  0  0  0  0  0  0  0  0  0  0
   50.6467    8.5828   12.3662 C   0  0  0  0  0  0  0  0  0  0  0  0
   50.0489    7.7325   13.4812 C   0  0  1  0  0  0  0  0  0  0  0  0
   49.1092    8.5324   14.3842 C   0  0  1  0  0  0  0  0  0  0  0  0
   47.7978    8.8523   13.6763 C   0  0  0  0  0  0  0  0  0  0  0  0
   51.2090    8.3596   12.2205 H   0  0  0  0  0  0  0  0  0  0  0  0
   49.5025    8.5007   11.7723 H   0  0  0  0  0  0  0  0  0  0  0  0
   52.5168    8.5012   14.2331 H   0  0  0  0  0  0  0  0  0  0  0  0
   50.1761    5.5643   17.4881 H   0  0  0  0  0  0  0  0  0  0  0  0
   52.5496    6.1151   17.8292 H   0  0  0  0  0  0  0  0  0  0  0  0
   47.0618    5.2432   13.4449 H   0  0  0  0  0  0  0  0  0  0  0  0
   47.3652    9.5373   13.2461 H   0  0  0  0  0  0  0  0  0  0  0  0
   44.9752    5.3309   12.1351 H   0  0  0  0  0  0  0  0  0  0  0  0
   45.2986    9.6267   11.9180 H   0  0  0  0  0  0  0  0  0  0  0  0
   54.7323    6.7191   16.4312 H   0  0  0  0  0  0  0  0  0  0  0  0
   54.2824    8.2514   17.2097 H   0  0  0  0  0  0  0  0  0  0  0  0
   54.6357    8.2021   15.4767 H   0  0  0  0  0  0  0  0  0  0  0  0
   50.7928    9.5352   10.2997 H   0  0  0  0  0  0  0  0  0  0  0  0
   51.4949   11.1238    9.9740 H   0  0  0  0  0  0  0  0  0  0  0  0
   49.7336   10.8823    9.8421 H   0  0  0  0  0  0  0  0  0  0  0  0
   50.2417   12.7307   13.0459 H   0  0  0  0  0  0  0  0  0  0  0  0
   51.4327   12.8692   11.7332 H   0  0  0  0  0  0  0  0  0  0  0  0
   49.6847   12.9189   11.3706 H   0  0  0  0  0  0  0  0  0  0  0  0
   43.2142    8.4903   11.2412 H   0  0  0  0  0  0  0  0  0  0  0  0
   43.0389    6.7440   11.4043 H   0  0  0  0  0  0  0  0  0  0  0  0
   43.9796    7.4146   10.0461 H   0  0  0  0  0  0  0  0  0  0  0  0
   50.3898   10.2261   13.8261 H   0  0  0  0  0  0  0  0  0  0  0  0
   49.1255    9.7846   12.6663 H   0  0  0  0  0  0  0  0  0  0  0  0
   52.1029    8.8215   15.0507 H   0  0  0  0  0  0  0  0  0  0  0  0
   49.4984    5.1965   17.2344 H   0  0  0  0  0  0  0  0  0  0  0  0
   51.7693    5.7142   18.0224 H   0  0  0  0  0  0  0  0  0  0  0  0
   47.2469    5.9687   12.3644 H   0  0  0  0  0  0  0  0  0  0  0  0
   46.7455    9.8352   14.1948 H   0  0  0  0  0  0  0  0  0  0  0  0
   45.2847    6.3913   10.9336 H   0  0  0  0  0  0  0  0  0  0  0  0
   44.7778   10.2599   12.7768 H   0  0  0  0  0  0  0  0  0  0  0  0
   54.0177    8.3711   16.5485 H   0  0  0  0  0  0  0  0  0  0  0  0
   54.1214    6.6647   17.0105 H   0  0  0  0  0  0  0  0  0  0  0  0
   53.4774    7.8703   18.1566 H   0  0  0  0  0  0  0  0  0  0  0  0
   52.5163    8.3185   10.2161 H   0  0  0  0  0  0  0  0  0  0  0  0
   53.2909    9.9005   10.4899 H   0  0  0  0  0  0  0  0  0  0  0  0
   52.0600    9.7049    9.2065 H   0  0  0  0  0  0  0  0  0  0  0  0
   51.7530   11.8326   11.3220 H   0  0  0  0  0  0  0  0  0  0  0  0
   50.0799   11.4309   11.7546 H   0  0  0  0  0  0  0  0  0  0  0  0
   50.5735   11.4001   10.0503 H   0  0  0  0  0  0  0  0  0  0  0  0
   43.9945    9.1202    9.9640 H   0  0  0  0  0  0  0  0  0  0  0  0
   43.1853    7.6756   10.6159 H   0  0  0  0  0  0  0  0  0  0  0  0
   42.9502    9.2354   11.4027 H   0  0  0  0  0  0  0  0  0  0  0  0
   51.5000   10.1783   11.9621 H   0  0  0  0  0  0  0  0  0  0  0  0
   47.0146    9.7909   12.2837 H   0  0  0  0  0  0  0  0  0  0  0  0
   49.9425    6.2330   12.2358 H   0  0  0  0  0  0  0  0  0  0  0  0
   48.0145    7.2956   15.4333 H   0  0  0  0  0  0  0  0  0  0  0  0
   50.8918    7.3571   14.0730 H   0  0  0  0  0  0  0  0  0  0  0  0
   49.5583    9.4779   14.7118 H   0  0  0  0  0  0  0  0  0  0  0  0
 10  4  1  0
 11  8  2  0
 12 11  1  0
 13  7  1  0
 14  7  2  0
 15 10  2  0
 16 10  1  0
 17 15  1  0
 18 16  2  0
 19 18  1  0
 20 11  1  0
 21 13  1  0
 22 13  1  0
 23 19  1  0
  3  5  2  0
  9 12  2  0
 17 19  2  0
  2  1  1  0
  3  4  1  0
  4  1  2  0
  5  2  1  0
  6  1  1  0
  7  6  1  0
  8  2  1  0
  9  5  1  0
 33 27  1  0
 34 31  2  0
 35 34  1  0
 36 30  1  0
 37 30  2  0
 38 33  2  0
 39 33  1  0
 40 38  1  0
 41 39  2  0
 42 41  1  0
 43 34  1  0
 44 36  1  0
 45 36  1  0
 46 42  1  0
 26 28  2  0
 32 35  2  0
 40 42  2  0
 25 24  1  0
 26 27  1  0
 27 24  2  0
 28 25  1  0
 29 24  1  0
 30 29  1  0
 31 25  1  0
 32 28  1  0
 53 48  2  0
 54 51  1  0
 55 52  1  0
 53 47  1  0
 55 56  1  0
 54 55  1  0
 56 49  1  0
 53 54  1  0
 56 50  2  0
  6 57  1  0
  6 58  1  0
  8 59  1  0
  9 60  1  0
 12 61  1  0
 15 62  1  0
 16 63  1  0
 17 64  1  0
 18 65  1  0
 20 66  1  0
 20 67  1  0
 20 68  1  0
 21 69  1  0
 21 70  1  0
 21 71  1  0
 22 72  1  0
 22 73  1  0
 22 74  1  0
 23 75  1  0
 23 76  1  0
 23 77  1  0
 29 78  1  0
 29 79  1  0
 31 80  1  0
 32 81  1  0
 35 82  1  0
 38 83  1  0
 39 84  1  0
 40 85  1  0
 41 86  1  0
 43 87  1  0
 43 88  1  0
 43 89  1  0
 44 90  1  0
 44 91  1  0
 44 92  1  0
 45 93  1  0
 45 94  1  0
 45 95  1  0
 46 96  1  0
 46 97  1  0
 46 98  1  0
 47 99  1  0
 49100  1  0
 51101  1  0
 52102  1  0
 54103  1  6
 55104  1  6
M  END
> <Uni-Dock RESULT> 
ENERGY=   -6.852  LOWER_BOUND=    1.879  UPPER_BOUND=    4.309
INTER + INTRA:          -6.852
INTER:                  -6.852
INTRA:                   0.000
UNBOUND:                 0.000

$$$$

     RDKit          3D

104107  0  0  0  0  0  0  0  0999 V2000
   49.8408    8.0656   13.7968 C   0  0  0  0  0  0  0  0  0  0  0  0
   50.8870    8.0194   12.8923 N   0  0  0  0  0  0  0  0  0  0  0  0
   51.8070    8.4194   14.8955 N   0  0  0  0  0  0  0  0  0  0  0  0
   50.4390    8.3713   15.0090 C   0  0  0  0  0  0  0  0  0  0  0  0
   52.0558    8.2305   13.6186 C   0  0  0  0  0  0  0  0  0  0  0  0
   48.4143    7.7938   13.4357 C   0  0  0  0  0  0  0  0  0  0  0  0
   47.7365    9.0027   12.7901 C   0  0  0  0  0  0  0  0  0  0  0  0
   50.8797    7.7784   11.5160 C   0  0  0  0  0  0  0  0  0  0  0  0
   53.2838    8.2024   12.9008 C   0  0  0  0  0  0  0  0  0  0  0  0
   49.7603    8.5397   16.2791 C   0  0  0  0  0  0  0  0  0  0  0  0
   52.0422    7.7485   10.8359 C   0  0  0  0  0  0  0  0  0  0  0  0
   53.2841    7.9737   11.5730 C   0  0  0  0  0  0  0  0  0  0  0  0
   46.3644    8.9107   12.5668 N   0  0  0  0  0  0  0  0  0  0  0  0
   48.3736   10.0113   12.4741 O   0  0  0  0  0  0  0  0  0  0  0  0
   50.2132    7.8365   17.4000 C   0  0  0  0  0  0  0  0  0  0  0  0
   48.6613    9.3970   16.4105 C   0  0  0  0  0  0  0  0  0  0  0  0
   49.5529    7.9573   18.6262 C   0  0  0  0  0  0  0  0  0  0  0  0
   47.9985    9.5153   17.6357 C   0  0  0  0  0  0  0  0  0  0  0  0
   48.4409    8.7989   18.7539 C   0  0  0  0  0  0  0  0  0  0  0  0
   52.1355    7.4955    9.3642 C   0  0  0  0  0  0  0  0  0  0  0  0
   45.5324    7.7602   12.8868 C   0  0  0  0  0  0  0  0  0  0  0  0
   45.6648   10.0594   12.0152 C   0  0  0  0  0  0  0  0  0  0  0  0
   47.7112    8.8984   20.0608 C   0  0  0  0  0  0  0  0  0  0  0  0
   49.8497    8.7020   13.8530 C   0  0  0  0  0  0  0  0  0  0  0  0
   51.0204    8.5378   13.1272 N   0  0  0  0  0  0  0  0  0  0  0  0
   51.6248    8.6104   15.2856 N   0  0  0  0  0  0  0  0  0  0  0  0
   50.2664    8.7704   15.1737 C   0  0  0  0  0  0  0  0  0  0  0  0
   52.0607    8.4783   14.0519 C   0  0  0  0  0  0  0  0  0  0  0  0
   48.4808    8.7776   13.2472 C   0  0  0  0  0  0  0  0  0  0  0  0
   48.0074    7.4377   12.6786 C   0  0  0  0  0  0  0  0  0  0  0  0
   51.2293    8.4489   11.7469 C   0  0  0  0  0  0  0  0  0  0  0  0
   53.3797    8.3098   13.5446 C   0  0  0  0  0  0  0  0  0  0  0  0
   49.4101    8.9714   16.3248 C   0  0  0  0  0  0  0  0  0  0  0  0
   52.4775    8.2934   11.2628 C   0  0  0  0  0  0  0  0  0  0  0  0
   53.5836    8.2284   12.2156 C   0  0  0  0  0  0  0  0  0  0  0  0
   46.6489    7.3241   12.3688 N   0  0  0  0  0  0  0  0  0  0  0  0
   48.7902    6.5089   12.4728 O   0  0  0  0  0  0  0  0  0  0  0  0
   49.2626    7.9538   17.2711 C   0  0  0  0  0  0  0  0  0  0  0  0
   48.7438   10.1881   16.5146 C   0  0  0  0  0  0  0  0  0  0  0  0
   48.4396    8.1443   18.3861 C   0  0  0  0  0  0  0  0  0  0  0  0
   47.9221   10.3768   17.6311 C   0  0  0  0  0  0  0  0  0  0  0  0
   47.7728    9.3600   18.5826 C   0  0  0  0  0  0  0  0  0  0  0  0
   52.7945    8.1718    9.8049 C   0  0  0  0  0  0  0  0  0  0  0  0
   46.1809    6.0678   11.7979 C   0  0  0  0  0  0  0  0  0  0  0  0
   45.7186    8.4412   12.2807 C   0  0  0  0  0  0  0  0  0  0  0  0
   46.8785    9.5556   19.7715 C   0  0  0  0  0  0  0  0  0  0  0  0
   47.9463    8.2856   12.1704 O   0  0  0  0  0  0  0  0  0  0  0  0
   47.6168    6.4712   13.4316 O   0  0  0  0  0  0  0  0  0  0  0  0
   47.7585    9.5163   15.1390 O   0  0  0  0  0  0  0  0  0  0  0  0
   49.5668    9.9152   16.3874 O   0  0  0  0  0  0  0  0  0  0  0  0
   49.9800    6.8711   14.8554 O   0  0  0  0  0  0  0  0  0  0  0  0
   51.2961    9.4334   14.2977 O   0  0  0  0  0  0  0  0  0  0  0  0
   48.3224    7.4268   13.1369 C   0  0  0  0  0  0  0  0  0  0  0  0
   49.7021    7.7062   13.7218 C   0  0  1  0  0  0  0  0  0  0  0  0
   49.8963    9.1804   14.0786 C   0  0  1  0  0  0  0  0  0  0  0  0
   49.0932    9.5626   15.3163 C   0  0  0  0  0  0  0  0  0  0  0  0
   48.3634    6.9485   12.7410 H   0  0  0  0  0  0  0  0  0  0  0  0
   47.8606    7.5176   14.3398 H   0  0  0  0  0  0  0  0  0  0  0  0
   49.9189    7.6312   11.0396 H   0  0  0  0  0  0  0  0  0  0  0  0
   54.2020    8.3765   13.4480 H   0  0  0  0  0  0  0  0  0  0  0  0
   54.2226    7.9552   11.0241 H   0  0  0  0  0  0  0  0  0  0  0  0
   51.0814    7.1849   17.3199 H   0  0  0  0  0  0  0  0  0  0  0  0
   48.3195    9.9885   15.5642 H   0  0  0  0  0  0  0  0  0  0  0  0
   49.9147    7.3908   19.4818 H   0  0  0  0  0  0  0  0  0  0  0  0
   47.1379   10.1768   17.7116 H   0  0  0  0  0  0  0  0  0  0  0  0
   52.8261    6.6709    9.1575 H   0  0  0  0  0  0  0  0  0  0  0  0
   52.4934    8.3869    8.8393 H   0  0  0  0  0  0  0  0  0  0  0  0
   51.1631    7.2245    8.9391 H   0  0  0  0  0  0  0  0  0  0  0  0
   46.1104    6.8740   13.1455 H   0  0  0  0  0  0  0  0  0  0  0  0
   44.9102    7.5194   12.0204 H   0  0  0  0  0  0  0  0  0  0  0  0
   44.8891    8.0189   13.7315 H   0  0  0  0  0  0  0  0  0  0  0  0
   46.3200   10.9223   11.8706 H   0  0  0  0  0  0  0  0  0  0  0  0
   45.2387    9.7757   11.0478 H   0  0  0  0  0  0  0  0  0  0  0  0
   44.8578   10.3459   12.6968 H   0  0  0  0  0  0  0  0  0  0  0  0
   47.2185    9.8711   20.1600 H   0  0  0  0  0  0  0  0  0  0  0  0
   48.4049    8.7994   20.9019 H   0  0  0  0  0  0  0  0  0  0  0  0
   46.9545    8.1104   20.1269 H   0  0  0  0  0  0  0  0  0  0  0  0
   48.4690    9.5243   12.4463 H   0  0  0  0  0  0  0  0  0  0  0  0
   47.7732    9.0918   14.0171 H   0  0  0  0  0  0  0  0  0  0  0  0
   50.3567    8.4948   11.1108 H   0  0  0  0  0  0  0  0  0  0  0  0
   54.2004    8.2593   14.2512 H   0  0  0  0  0  0  0  0  0  0  0  0
   54.5916    8.1102   11.8283 H   0  0  0  0  0  0  0  0  0  0  0  0
   49.7902    7.0111   17.1451 H   0  0  0  0  0  0  0  0  0  0  0  0
   48.8673   10.9972   15.7992 H   0  0  0  0  0  0  0  0  0  0  0  0
   48.3282    7.3336   19.1033 H   0  0  0  0  0  0  0  0  0  0  0  0
   47.4139   11.3306   17.7586 H   0  0  0  0  0  0  0  0  0  0  0  0
   51.8870    8.2106    9.1898 H   0  0  0  0  0  0  0  0  0  0  0  0
   53.2962    7.2178    9.5955 H   0  0  0  0  0  0  0  0  0  0  0  0
   53.4466    8.9916    9.4839 H   0  0  0  0  0  0  0  0  0  0  0  0
   46.8476    5.2351   12.0372 H   0  0  0  0  0  0  0  0  0  0  0  0
   46.1291    6.1834   10.7097 H   0  0  0  0  0  0  0  0  0  0  0  0
   45.1868    5.8413   12.1915 H   0  0  0  0  0  0  0  0  0  0  0  0
   45.5558    8.6733   11.2218 H   0  0  0  0  0  0  0  0  0  0  0  0
   46.0827    9.3406   12.7791 H   0  0  0  0  0  0  0  0  0  0  0  0
   44.7690    8.1482   12.7386 H   0  0  0  0  0  0  0  0  0  0  0  0
   45.8512    9.2668   19.5258 H   0  0  0  0  0  0  0  0  0  0  0  0
   47.2183    8.9530   20.6210 H   0  0  0  0  0  0  0  0  0  0  0  0
   46.8830   10.6022   20.0965 H   0  0  0  0  0  0  0  0  0  0  0  0
   47.0614    7.9689   11.8907 H   0  0  0  0  0  0  0  0  0  0  0  0
   47.3898    9.7735   16.0148 H   0  0  0  0  0  0  0  0  0  0  0  0
   49.6249    5.9855   14.6404 H   0  0  0  0  0  0  0  0  0  0  0  0
   51.4412    9.3588   15.2661 H   0  0  0  0  0  0  0  0  0  0  0  0
   50.4302    7.4173   12.9549 H   0  0  0  0  0  0  0  0  0  0  0  0
   49.5963    9.8456   13.2597 H   0  0  0  0  0  0  0  0  0  0  0  0
 10  4  1  0
 11  8  2  0
 12 11  1  0
 13  7  1  0
 14  7  2  0
 15 10  2  0
 16 10  1  0
 17 15  1  0
 18 16  2  0
 19 18  1  0
 20 11  1  0
 21 13  1  0
 22 13  1  0
 23 19  1  0
  3  5  2  0
  9 12  2  0
 17 19  2  0
  2  1  1  0
  3  4  1  0
  4  1  2  0
  5  2  1  0
  6  1  1  0
  7  6  1  0
  8  2  1  0
  9  5  1  0
 33 27  1  0
 34 31  2  0
 35 34  1  0
 36 30  1  0
 37 30  2  0
 38 33  2  0
 39 33  1  0
 40 38  1  0
 41 39  2  0
 42 41  1  0
 43 34  1  0
 44 36  1  0
 45 36  1  0
 46 42  1  0
 26 28  2  0
 32 35  2  0
 40 42  2  0
 25 24  1  0
 26 27  1  0
 27 24  2  0
 28 25  1  0
 29 24  1  0
 30 29  1  0
 31 25  1  0
 32 28  1  0
 53 48  2  0
 54 51  1  0
 55 52  1  0
 53 47  1  0
 55 56  1  0
 54 55  1  0
 56 49  1  0
 53 54  1  0
 56 50  2  0
  6 57  1  0
  6 58  1  0
  8 59  1  0
  9 60  1  0
 12 61  1  0
 15 62  1  0
 16 63  1  0
 17 64  1  0
 18 65  1  0
 20 66  1  0
 20 67  1  0
 20 68  1  0
 21 69  1  0
 21 70  1  0
 21 71  1  0
 22 72  1  0
 22 73  1  0
 22 74  1  0
 23 75  1  0
 23 76  1  0
 23 77  1  0
 29 78  1  0
 29 79  1  0
 31 80  1  0
 32 81  1  0
 35 82  1  0
 38 83  1  0
 39 84  1  0
 40 85  1  0
 41 86  1  0
 43 87  1  0
 43 88  1  0
 43 89  1  0
 44 90  1  0
 44 91  1  0
 44 92  1  0
 45 93  1  0
 45 94  1  0
 45 95  1  0
 46 96  1  0
 46 97  1  0
 46 98  1  0
 47 99  1  0
 49100  1  0
 51101  1  0
 52102  1  0
 54103  1  6
 55104  1  6
M  END
> <Uni-Dock RESULT> 
ENERGY=   -6.816  LOWER_BOUND=    1.632  UPPER_BOUND=    4.973
INTER + INTRA:          -6.816
INTER:                  -6.816
INTRA:                   0.000
UNBOUND:                 0.000

$$$$

     RDKit          3D

104107  0  0  0  0  0  0  0  0999 V2000
   49.2871   10.6723   18.2956 C   0  0  0  0  0  0  0  0  0  0  0  0
   49.0243   11.8532   17.6239 N   0  0  0  0  0  0  0  0  0  0  0  0
   47.2479   11.4679   18.9335 N   0  0  0  0  0  0  0  0  0  0  0  0
   48.1476   10.4365   19.0483 C   0  0  0  0  0  0  0  0  0  0  0  0
   47.7779   12.2946   18.0596 C   0  0  0  0  0  0  0  0  0  0  0  0
   50.5740    9.9172   18.1815 C   0  0  0  0  0  0  0  0  0  0  0  0
   50.6353    9.0587   16.9179 C   0  0  0  0  0  0  0  0  0  0  0  0
   49.8032   12.5607   16.7045 C   0  0  0  0  0  0  0  0  0  0  0  0
   47.2957   13.5204   17.5222 C   0  0  0  0  0  0  0  0  0  0  0  0
   47.9230    9.3066   19.9287 C   0  0  0  0  0  0  0  0  0  0  0  0
   49.3488   13.7232   16.1974 C   0  0  0  0  0  0  0  0  0  0  0  0
   48.0399   14.2064   16.6328 C   0  0  0  0  0  0  0  0  0  0  0  0
   51.7184    8.1906   16.7980 N   0  0  0  0  0  0  0  0  0  0  0  0
   49.7710    9.1341   16.0400 O   0  0  0  0  0  0  0  0  0  0  0  0
   47.5036    9.5315   21.2438 C   0  0  0  0  0  0  0  0  0  0  0  0
   48.1123    7.9908   19.4892 C   0  0  0  0  0  0  0  0  0  0  0  0
   47.3142    8.4589   22.1200 C   0  0  0  0  0  0  0  0  0  0  0  0
   47.9265    6.9181   20.3662 C   0  0  0  0  0  0  0  0  0  0  0  0
   47.5230    7.1434   21.6875 C   0  0  0  0  0  0  0  0  0  0  0  0
   50.1106   14.5518   15.2118 C   0  0  0  0  0  0  0  0  0  0  0  0
   52.7940    8.0444   17.7675 C   0  0  0  0  0  0  0  0  0  0  0  0
   51.7857    7.3077   15.6453 C   0  0  0  0  0  0  0  0  0  0  0  0
   47.3555    5.9964   22.6397 C   0  0  0  0  0  0  0  0  0  0  0  0
   48.8894   10.3212   17.9395 C   0  0  0  0  0  0  0  0  0  0  0  0
   48.5278   11.5796   17.4813 N   0  0  0  0  0  0  0  0  0  0  0  0
   47.0812   11.0672   19.1165 N   0  0  0  0  0  0  0  0  0  0  0  0
   47.9588   10.0297   18.9252 C   0  0  0  0  0  0  0  0  0  0  0  0
   47.4322   11.9836   18.2409 C   0  0  0  0  0  0  0  0  0  0  0  0
   50.0506    9.5306   17.4169 C   0  0  0  0  0  0  0  0  0  0  0  0
   51.4030   10.1266   17.8151 C   0  0  0  0  0  0  0  0  0  0  0  0
   49.0750   12.3685   16.4639 C   0  0  0  0  0  0  0  0  0  0  0  0
   46.8719   13.2605   17.9558 C   0  0  0  0  0  0  0  0  0  0  0  0
   47.8904    8.8026   19.6920 C   0  0  0  0  0  0  0  0  0  0  0  0
   48.5444   13.5764   16.1885 C   0  0  0  0  0  0  0  0  0  0  0  0
   47.3945   14.0198   16.9736 C   0  0  0  0  0  0  0  0  0  0  0  0
   52.5294    9.3168   17.6416 N   0  0  0  0  0  0  0  0  0  0  0  0
   51.5028   11.2784   18.2407 O   0  0  0  0  0  0  0  0  0  0  0  0
   48.1380    8.8241   21.0672 C   0  0  0  0  0  0  0  0  0  0  0  0
   47.5539    7.5925   19.0734 C   0  0  0  0  0  0  0  0  0  0  0  0
   48.0699    7.6425   21.8127 C   0  0  0  0  0  0  0  0  0  0  0  0
   47.4851    6.4120   19.8211 C   0  0  0  0  0  0  0  0  0  0  0  0
   47.7311    6.4297   21.1998 C   0  0  0  0  0  0  0  0  0  0  0  0
   49.0732   14.4951   15.1316 C   0  0  0  0  0  0  0  0  0  0  0  0
   53.8311    9.8739   17.9855 C   0  0  0  0  0  0  0  0  0  0  0  0
   52.5566    8.0828   16.8687 C   0  0  0  0  0  0  0  0  0  0  0  0
   47.6741    5.1612   21.9994 C   0  0  0  0  0  0  0  0  0  0  0  0
   51.1917    9.8535   16.8868 O   0  0  0  0  0  0  0  0  0  0  0  0
   51.8748   10.0247   19.0070 O   0  0  0  0  0  0  0  0  0  0  0  0
   49.2408    7.8046   18.4226 O   0  0  0  0  0  0  0  0  0  0  0  0
   47.2133    8.3964   19.1482 O   0  0  0  0  0  0  0  0  0  0  0  0
   49.3908   10.9503   19.8701 O   0  0  0  0  0  0  0  0  0  0  0  0
   47.2864   10.8144   17.8300 O   0  0  0  0  0  0  0  0  0  0  0  0
   50.9848   10.1692   18.1793 C   0  0  0  0  0  0  0  0  0  0  0  0
   49.6219   10.7905   18.4627 C   0  0  1  0  0  0  0  0  0  0  0  0
   48.4788   10.0086   17.8145 C   0  0  1  0  0  0  0  0  0  0  0  0
   48.2304    8.6887   18.5352 C   0  0  0  0  0  0  0  0  0  0  0  0
   51.4148   10.6189   18.1720 H   0  0  0  0  0  0  0  0  0  0  0  0
   50.6894    9.2686   19.0569 H   0  0  0  0  0  0  0  0  0  0  0  0
   50.7569   12.1327   16.4237 H   0  0  0  0  0  0  0  0  0  0  0  0
   46.3226   13.8728   17.8411 H   0  0  0  0  0  0  0  0  0  0  0  0
   47.6698   15.1419   16.2201 H   0  0  0  0  0  0  0  0  0  0  0  0
   47.3283   10.5473   21.5933 H   0  0  0  0  0  0  0  0  0  0  0  0
   48.3941    7.7893   18.4583 H   0  0  0  0  0  0  0  0  0  0  0  0
   47.0003    8.6581   23.1426 H   0  0  0  0  0  0  0  0  0  0  0  0
   48.0928    5.9045   20.0073 H   0  0  0  0  0  0  0  0  0  0  0  0
   50.2132   15.5814   15.5710 H   0  0  0  0  0  0  0  0  0  0  0  0
   49.5989   14.5718   14.2443 H   0  0  0  0  0  0  0  0  0  0  0  0
   51.1197   14.1583   15.0486 H   0  0  0  0  0  0  0  0  0  0  0  0
   52.7933    8.8249   18.5272 H   0  0  0  0  0  0  0  0  0  0  0  0
   53.7528    8.0812   17.2431 H   0  0  0  0  0  0  0  0  0  0  0  0
   52.6901    7.0744   18.2603 H   0  0  0  0  0  0  0  0  0  0  0  0
   50.9138    7.3997   14.9925 H   0  0  0  0  0  0  0  0  0  0  0  0
   52.6833    7.5546   15.0697 H   0  0  0  0  0  0  0  0  0  0  0  0
   51.8516    6.2720   15.9932 H   0  0  0  0  0  0  0  0  0  0  0  0
   47.0837    5.0808   22.1043 H   0  0  0  0  0  0  0  0  0  0  0  0
   46.5553    6.2012   23.3581 H   0  0  0  0  0  0  0  0  0  0  0  0
   48.2892    5.8236   23.1841 H   0  0  0  0  0  0  0  0  0  0  0  0
   49.9993    9.4716   16.3247 H   0  0  0  0  0  0  0  0  0  0  0  0
   49.9927    8.5161   17.8165 H   0  0  0  0  0  0  0  0  0  0  0  0
   49.9319   11.9722   15.9377 H   0  0  0  0  0  0  0  0  0  0  0  0
   46.0201   13.5908   18.5396 H   0  0  0  0  0  0  0  0  0  0  0  0
   46.9601   14.9899   16.7494 H   0  0  0  0  0  0  0  0  0  0  0  0
   48.3815    9.7611   21.5628 H   0  0  0  0  0  0  0  0  0  0  0  0
   47.3358    7.5641   18.0088 H   0  0  0  0  0  0  0  0  0  0  0  0
   48.2799    7.6798   22.8796 H   0  0  0  0  0  0  0  0  0  0  0  0
   47.2215    5.4829   19.3197 H   0  0  0  0  0  0  0  0  0  0  0  0
   49.9481   14.0679   14.6261 H   0  0  0  0  0  0  0  0  0  0  0  0
   49.3791   15.4544   15.5694 H   0  0  0  0  0  0  0  0  0  0  0  0
   48.3096   14.6826   14.3685 H   0  0  0  0  0  0  0  0  0  0  0  0
   53.7486   10.7001   18.6967 H   0  0  0  0  0  0  0  0  0  0  0  0
   54.3021   10.2388   17.0662 H   0  0  0  0  0  0  0  0  0  0  0  0
   54.4513    9.0921   18.4313 H   0  0  0  0  0  0  0  0  0  0  0  0
   53.0221    8.2922   15.8986 H   0  0  0  0  0  0  0  0  0  0  0  0
   51.5637    7.6671   16.6923 H   0  0  0  0  0  0  0  0  0  0  0  0
   53.1553    7.3413   17.4063 H   0  0  0  0  0  0  0  0  0  0  0  0
   48.6476    4.6600   21.9868 H   0  0  0  0  0  0  0  0  0  0  0  0
   47.3986    5.3656   23.0398 H   0  0  0  0  0  0  0  0  0  0  0  0
   46.9195    4.4772   21.5946 H   0  0  0  0  0  0  0  0  0  0  0  0
   52.1008    9.4865   16.8657 H   0  0  0  0  0  0  0  0  0  0  0  0
   48.9378    7.0248   18.9412 H   0  0  0  0  0  0  0  0  0  0  0  0
   50.2389   11.2445   20.2582 H   0  0  0  0  0  0  0  0  0  0  0  0
   46.7841   10.5478   18.6306 H   0  0  0  0  0  0  0  0  0  0  0  0
   49.6501   11.8055   18.0496 H   0  0  0  0  0  0  0  0  0  0  0  0
   48.6774    9.7875   16.7588 H   0  0  0  0  0  0  0  0  0  0  0  0
 10  4  1  0
 11  8  2  0
 12 11  1  0
 13  7  1  0
 14  7  2  0
 15 10  2  0
 16 10  1  0
 17 15  1  0
 18 16  2  0
 19 18  1  0
 20 11  1  0
 21 13  1  0
 22 13  1  0
 23 19  1  0
  3  5  2  0
  9 12  2  0
 17 19  2  0
  2  1  1  0
  3  4  1  0
  4  1  2  0
  5  2  1  0
  6  1  1  0
  7  6  1  0
  8  2  1  0
  9  5  1  0
 33 27  1  0
 34 31  2  0
 35 34  1  0
 36 30  1  0
 37 30  2  0
 38 33  2  0
 39 33  1  0
 40 38  1  0
 41 39  2  0
 42 41  1  0
 43 34  1  0
 44 36  1  0
 45 36  1  0
 46 42  1  0
 26 28  2  0
 32 35  2  0
 40 42  2  0
 25 24  1  0
 26 27  1  0
 27 24  2  0
 28 25  1  0
 29 24  1  0
 30 29  1  0
 31 25  1  0
 32 28  1  0
 53 48  2  0
 54 51  1  0
 55 52  1  0
 53 47  1  0
 55 56  1  0
 54 55  1  0
 56 49  1  0
 53 54  1  0
 56 50  2  0
  6 57  1  0
  6 58  1  0
  8 59  1  0
  9 60  1  0
 12 61  1  0
 15 62  1  0
 16 63  1  0
 17 64  1  0
 18 65  1  0
 20 66  1  0
 20 67  1  0
 20 68  1  0
 21 69  1  0
 21 70  1  0
 21 71  1  0
 22 72  1  0
 22 73  1  0
 22 74  1  0
 23 75  1  0
 23 76  1  0
 23 77  1  0
 29 78  1  0
 29 79  1  0
 31 80  1  0
 32 81  1  0
 35 82  1  0
 38 83  1  0
 39 84  1  0
 40 85  1  0
 41 86  1  0
 43 87  1  0
 43 88  1  0
 43 89  1  0
 44 90  1  0
 44 91  1  0
 44 92  1  0
 45 93  1  0
 45 94  1  0
 45 95  1  0
 46 96  1  0
 46 97  1  0
 46 98  1  0
 47 99  1  0
 49100  1  0
 51101  1  0
 52102  1  0
 54103  1  6
 55104  1  6
M  END
> <Uni-Dock RESULT> 
ENERGY=   -6.813  LOWER_BOUND=    4.540  UPPER_BOUND=    6.790
INTER + INTRA:          -6.813
INTER:                  -6.813
INTRA:                   0.000
UNBOUND:                 0.000

$$$$

     RDKit          3D

104107  0  0  0  0  0  0  0  0999 V2000
   49.7251    7.7632   15.9031 C   0  0  0  0  0  0  0  0  0  0  0  0
   51.0483    8.0676   16.1701 N   0  0  0  0  0  0  0  0  0  0  0  0
   50.6623    8.7387   14.0679 N   0  0  0  0  0  0  0  0  0  0  0  0
   49.5395    8.1372   14.5816 C   0  0  0  0  0  0  0  0  0  0  0  0
   51.5621    8.6670   15.0235 C   0  0  0  0  0  0  0  0  0  0  0  0
   48.7822    7.1875   16.9124 C   0  0  0  0  0  0  0  0  0  0  0  0
   48.9589    5.6780   17.0798 C   0  0  0  0  0  0  0  0  0  0  0  0
   51.7985    7.8856   17.3348 C   0  0  0  0  0  0  0  0  0  0  0  0
   52.9177    9.0969   15.0639 C   0  0  0  0  0  0  0  0  0  0  0  0
   48.3107    8.0127   13.8222 C   0  0  0  0  0  0  0  0  0  0  0  0
   53.0813    8.2952   17.3751 C   0  0  0  0  0  0  0  0  0  0  0  0
   53.6481    8.9219   16.1824 C   0  0  0  0  0  0  0  0  0  0  0  0
   48.0218    5.0181   17.8719 N   0  0  0  0  0  0  0  0  0  0  0  0
   49.8910    5.0710   16.5453 O   0  0  0  0  0  0  0  0  0  0  0  0
   47.8099    9.1240   13.1365 C   0  0  0  0  0  0  0  0  0  0  0  0
   47.6144    6.7999   13.7554 C   0  0  0  0  0  0  0  0  0  0  0  0
   46.6090    9.0359   12.4264 C   0  0  0  0  0  0  0  0  0  0  0  0
   46.4116    6.7123   13.0484 C   0  0  0  0  0  0  0  0  0  0  0  0
   45.9010    7.8287   12.3758 C   0  0  0  0  0  0  0  0  0  0  0  0
   53.9618    8.1465   18.5755 C   0  0  0  0  0  0  0  0  0  0  0  0
   46.9024    5.6478   18.5566 C   0  0  0  0  0  0  0  0  0  0  0  0
   48.1106    3.5736   18.0076 C   0  0  0  0  0  0  0  0  0  0  0  0
   44.5937    7.7462   11.6445 C   0  0  0  0  0  0  0  0  0  0  0  0
   49.8617    7.2570   15.5379 C   0  0  0  0  0  0  0  0  0  0  0  0
   51.1434    7.7691   15.6766 N   0  0  0  0  0  0  0  0  0  0  0  0
   50.3406    8.5984   13.7537 N   0  0  0  0  0  0  0  0  0  0  0  0
   49.4124    7.7676   14.3296 C   0  0  0  0  0  0  0  0  0  0  0  0
   51.3720    8.5834   14.5696 C   0  0  0  0  0  0  0  0  0  0  0  0
   49.1972    6.3553   16.5339 C   0  0  0  0  0  0  0  0  0  0  0  0
   48.8304    7.0740   17.8345 C   0  0  0  0  0  0  0  0  0  0  0  0
   52.0998    7.5667   16.6771 C   0  0  0  0  0  0  0  0  0  0  0  0
   52.6359    9.2319   14.4828 C   0  0  0  0  0  0  0  0  0  0  0  0
   48.1272    7.4963   13.7185 C   0  0  0  0  0  0  0  0  0  0  0  0
   53.2992    8.1761   16.5961 C   0  0  0  0  0  0  0  0  0  0  0  0
   53.5600    9.0349   15.4429 C   0  0  0  0  0  0  0  0  0  0  0  0
   47.9496    6.4150   18.6973 N   0  0  0  0  0  0  0  0  0  0  0  0
   49.3115    8.1700   18.1264 O   0  0  0  0  0  0  0  0  0  0  0  0
   47.1916    8.5244   13.5750 C   0  0  0  0  0  0  0  0  0  0  0  0
   47.8184    6.2152   13.2455 C   0  0  0  0  0  0  0  0  0  0  0  0
   45.9506    8.2682   12.9825 C   0  0  0  0  0  0  0  0  0  0  0  0
   46.5770    5.9616   12.6522 C   0  0  0  0  0  0  0  0  0  0  0  0
   45.6373    6.9895   12.5051 C   0  0  0  0  0  0  0  0  0  0  0  0
   54.3758    8.0325   17.6262 C   0  0  0  0  0  0  0  0  0  0  0  0
   47.6097    7.0666   19.9554 C   0  0  0  0  0  0  0  0  0  0  0  0
   47.5790    5.0103   18.5952 C   0  0  0  0  0  0  0  0  0  0  0  0
   44.2991    6.7144   11.8842 C   0  0  0  0  0  0  0  0  0  0  0  0
   49.3032    6.2038   17.8196 O   0  0  0  0  0  0  0  0  0  0  0  0
   47.8376    7.8873   17.9139 O   0  0  0  0  0  0  0  0  0  0  0  0
   47.7120    5.9087   15.0369 O   0  0  0  0  0  0  0  0  0  0  0  0
   48.4514    6.8105   13.1323 O   0  0  0  0  0  0  0  0  0  0  0  0
   48.8962    9.1092   15.6427 O   0  0  0  0  0  0  0  0  0  0  0  0
   50.8879    7.4856   14.2266 O   0  0  0  0  0  0  0  0  0  0  0  0
   48.7956    7.3636   17.3609 C   0  0  0  0  0  0  0  0  0  0  0  0
   49.5718    7.9714   16.1982 C   0  0  1  0  0  0  0  0  0  0  0  0
   49.8859    6.9464   15.1079 C   0  0  1  0  0  0  0  0  0  0  0  0
   48.6362    6.5753   14.3181 C   0  0  0  0  0  0  0  0  0  0  0  0
   48.9394    7.6704   17.8828 H   0  0  0  0  0  0  0  0  0  0  0  0
   47.7522    7.3915   16.6000 H   0  0  0  0  0  0  0  0  0  0  0  0
   51.3112    7.4042   18.1729 H   0  0  0  0  0  0  0  0  0  0  0  0
   53.3373    9.5546   14.1766 H   0  0  0  0  0  0  0  0  0  0  0  0
   54.6850    9.2480   16.2121 H   0  0  0  0  0  0  0  0  0  0  0  0
   48.3524   10.0674   13.1584 H   0  0  0  0  0  0  0  0  0  0  0  0
   48.0082    5.9109   14.2427 H   0  0  0  0  0  0  0  0  0  0  0  0
   46.2313    9.9167   11.9112 H   0  0  0  0  0  0  0  0  0  0  0  0
   45.8799    5.7635   13.0214 H   0  0  0  0  0  0  0  0  0  0  0  0
   54.3997    9.1109   18.8546 H   0  0  0  0  0  0  0  0  0  0  0  0
   54.7750    7.4418   18.3752 H   0  0  0  0  0  0  0  0  0  0  0  0
   53.4034    7.7758   19.4419 H   0  0  0  0  0  0  0  0  0  0  0  0
   46.9622    6.7353   18.5620 H   0  0  0  0  0  0  0  0  0  0  0  0
   46.8809    5.3033   19.5941 H   0  0  0  0  0  0  0  0  0  0  0  0
   45.9764    5.3494   18.0587 H   0  0  0  0  0  0  0  0  0  0  0  0
   48.9172    3.1429   17.4088 H   0  0  0  0  0  0  0  0  0  0  0  0
   48.2876    3.3332   19.0606 H   0  0  0  0  0  0  0  0  0  0  0  0
   47.1638    3.1270   17.6880 H   0  0  0  0  0  0  0  0  0  0  0  0
   44.4085    6.7273   11.2892 H   0  0  0  0  0  0  0  0  0  0  0  0
   44.5977    8.3998   10.7663 H   0  0  0  0  0  0  0  0  0  0  0  0
   43.7755    8.0436   12.3078 H   0  0  0  0  0  0  0  0  0  0  0  0
   49.8554    5.5127   16.7702 H   0  0  0  0  0  0  0  0  0  0  0  0
   48.2809    5.9589   16.0918 H   0  0  0  0  0  0  0  0  0  0  0  0
   51.8242    6.9252   17.5021 H   0  0  0  0  0  0  0  0  0  0  0  0
   52.8289    9.8710   13.6285 H   0  0  0  0  0  0  0  0  0  0  0  0
   54.5283    9.5220   15.3710 H   0  0  0  0  0  0  0  0  0  0  0  0
   47.4271    9.5282   13.9209 H   0  0  0  0  0  0  0  0  0  0  0  0
   48.5449    5.4110   13.3290 H   0  0  0  0  0  0  0  0  0  0  0  0
   45.2318    9.0801   12.8934 H   0  0  0  0  0  0  0  0  0  0  0  0
   46.3583    4.9584   12.2915 H   0  0  0  0  0  0  0  0  0  0  0  0
   54.0593    7.3855   18.4536 H   0  0  0  0  0  0  0  0  0  0  0  0
   54.6381    9.0101   18.0516 H   0  0  0  0  0  0  0  0  0  0  0  0
   55.2739    7.5874   17.1837 H   0  0  0  0  0  0  0  0  0  0  0  0
   47.7625    8.1482   19.9114 H   0  0  0  0  0  0  0  0  0  0  0  0
   48.2463    6.6471   20.7422 H   0  0  0  0  0  0  0  0  0  0  0  0
   46.5599    6.8731   20.1895 H   0  0  0  0  0  0  0  0  0  0  0  0
   48.1434    4.4479   19.3481 H   0  0  0  0  0  0  0  0  0  0  0  0
   47.7911    4.5826   17.6145 H   0  0  0  0  0  0  0  0  0  0  0  0
   46.5078    4.9112   18.7953 H   0  0  0  0  0  0  0  0  0  0  0  0
   43.5878    6.3806   12.6468 H   0  0  0  0  0  0  0  0  0  0  0  0
   43.8991    7.6124   11.4009 H   0  0  0  0  0  0  0  0  0  0  0  0
   44.3779    5.9407   11.1120 H   0  0  0  0  0  0  0  0  0  0  0  0
   48.7134    5.9538   18.5621 H   0  0  0  0  0  0  0  0  0  0  0  0
   46.9766    5.7551   14.4008 H   0  0  0  0  0  0  0  0  0  0  0  0
   48.5261    9.6076   16.3986 H   0  0  0  0  0  0  0  0  0  0  0  0
   50.4041    7.8842   13.4706 H   0  0  0  0  0  0  0  0  0  0  0  0
   50.5084    8.3577   16.6168 H   0  0  0  0  0  0  0  0  0  0  0  0
   50.3141    6.0245   15.5199 H   0  0  0  0  0  0  0  0  0  0  0  0
 10  4  1  0
 11  8  2  0
 12 11  1  0
 13  7  1  0
 14  7  2  0
 15 10  2  0
 16 10  1  0
 17 15  1  0
 18 16  2  0
 19 18  1  0
 20 11  1  0
 21 13  1  0
 22 13  1  0
 23 19  1  0
  3  5  2  0
  9 12  2  0
 17 19  2  0
  2  1  1  0
  3  4  1  0
  4  1  2  0
  5  2  1  0
  6  1  1  0
  7  6  1  0
  8  2  1  0
  9  5  1  0
 33 27  1  0
 34 31  2  0
 35 34  1  0
 36 30  1  0
 37 30  2  0
 38 33  2  0
 39 33  1  0
 40 38  1  0
 41 39  2  0
 42 41  1  0
 43 34  1  0
 44 36  1  0
 45 36  1  0
 46 42  1  0
 26 28  2  0
 32 35  2  0
 40 42  2  0
 25 24  1  0
 26 27  1  0
 27 24  2  0
 28 25  1  0
 29 24  1  0
 30 29  1  0
 31 25  1  0
 32 28  1  0
 53 48  2  0
 54 51  1  0
 55 52  1  0
 53 47  1  0
 55 56  1  0
 54 55  1  0
 56 49  1  0
 53 54  1  0
 56 50  2  0
  6 57  1  0
  6 58  1  0
  8 59  1  0
  9 60  1  0
 12 61  1  0
 15 62  1  0
 16 63  1  0
 17 64  1  0
 18 65  1  0
 20 66  1  0
 20 67  1  0
 20 68  1  0
 21 69  1  0
 21 70  1  0
 21 71  1  0
 22 72  1  0
 22 73  1  0
 22 74  1  0
 23 75  1  0
 23 76  1  0
 23 77  1  0
 29 78  1  0
 29 79  1  0
 31 80  1  0
 32 81  1  0
 35 82  1  0
 38 83  1  0
 39 84  1  0
 40 85  1  0
 41 86  1  0
 43 87  1  0
 43 88  1  0
 43 89  1  0
 44 90  1  0
 44 91  1  0
 44 92  1  0
 45 93  1  0
 45 94  1  0
 45 95  1  0
 46 96  1  0
 46 97  1  0
 46 98  1  0
 47 99  1  0
 49100  1  0
 51101  1  0
 52102  1  0
 54103  1  6
 55104  1  6
M  END
> <Uni-Dock RESULT> 
ENERGY=   -6.724  LOWER_BOUND=    1.691  UPPER_BOUND=    2.547
INTER + INTRA:          -6.724
INTER:                  -6.724
INTRA:                   0.000
UNBOUND:                 0.000

$$$$

     RDKit          3D

104107  0  0  0  0  0  0  0  0999 V2000
   48.4794    7.7372   18.0260 C   0  0  0  0  0  0  0  0  0  0  0  0
   48.0490    8.3242   19.2028 N   0  0  0  0  0  0  0  0  0  0  0  0
   47.8613    9.8928   17.6144 N   0  0  0  0  0  0  0  0  0  0  0  0
   48.4048    8.7492   17.0821 C   0  0  0  0  0  0  0  0  0  0  0  0
   47.6769    9.6284   18.8888 C   0  0  0  0  0  0  0  0  0  0  0  0
   48.8824    6.3007   17.9098 C   0  0  0  0  0  0  0  0  0  0  0  0
   50.3095    6.0548   18.4004 C   0  0  0  0  0  0  0  0  0  0  0  0
   47.9367    7.7897   20.4890 C   0  0  0  0  0  0  0  0  0  0  0  0
   47.1702   10.4345   19.9459 C   0  0  0  0  0  0  0  0  0  0  0  0
   48.7581    8.6389   15.6803 C   0  0  0  0  0  0  0  0  0  0  0  0
   47.4540    8.5513   21.4900 C   0  0  0  0  0  0  0  0  0  0  0  0
   47.0620    9.9268   21.1893 C   0  0  0  0  0  0  0  0  0  0  0  0
   50.8402    4.7851   18.1833 N   0  0  0  0  0  0  0  0  0  0  0  0
   50.9606    6.9357   18.9689 O   0  0  0  0  0  0  0  0  0  0  0  0
   47.8480    9.0608   14.7058 C   0  0  0  0  0  0  0  0  0  0  0  0
   49.9960    8.1224   15.2788 C   0  0  0  0  0  0  0  0  0  0  0  0
   48.1539    8.9318   13.3479 C   0  0  0  0  0  0  0  0  0  0  0  0
   50.3009    7.9899   13.9209 C   0  0  0  0  0  0  0  0  0  0  0  0
   49.3836    8.3964   12.9448 C   0  0  0  0  0  0  0  0  0  0  0  0
   47.2941    8.0675   22.8967 C   0  0  0  0  0  0  0  0  0  0  0  0
   50.1461    3.6788   17.5409 C   0  0  0  0  0  0  0  0  0  0  0  0
   52.2157    4.5234   18.5737 C   0  0  0  0  0  0  0  0  0  0  0  0
   49.6946    8.2242   11.4874 C   0  0  0  0  0  0  0  0  0  0  0  0
   49.0426    8.0390   18.0211 C   0  0  0  0  0  0  0  0  0  0  0  0
   48.4391    8.7348   19.0583 N   0  0  0  0  0  0  0  0  0  0  0  0
   48.0834    9.9418   17.2019 N   0  0  0  0  0  0  0  0  0  0  0  0
   48.8260    8.8275   16.9014 C   0  0  0  0  0  0  0  0  0  0  0  0
   47.8655    9.8736   18.4971 C   0  0  0  0  0  0  0  0  0  0  0  0
   49.7502    6.7273   18.1798 C   0  0  0  0  0  0  0  0  0  0  0  0
   48.7953    5.5686   18.4772 C   0  0  0  0  0  0  0  0  0  0  0  0
   48.3694    8.4485   20.4257 C   0  0  0  0  0  0  0  0  0  0  0  0
   47.1777   10.7604   19.3724 C   0  0  0  0  0  0  0  0  0  0  0  0
   49.2946    8.5445   15.5601 C   0  0  0  0  0  0  0  0  0  0  0  0
   47.7224    9.2880   21.2581 C   0  0  0  0  0  0  0  0  0  0  0  0
   47.1132   10.4887   20.6901 C   0  0  0  0  0  0  0  0  0  0  0  0
   49.3070    4.2744   18.3447 N   0  0  0  0  0  0  0  0  0  0  0  0
   47.6363    5.7635   18.8467 O   0  0  0  0  0  0  0  0  0  0  0  0
   48.3762    8.2678   14.5438 C   0  0  0  0  0  0  0  0  0  0  0  0
   50.6624    8.5686   15.2623 C   0  0  0  0  0  0  0  0  0  0  0  0
   48.8235    7.9973   13.2463 C   0  0  0  0  0  0  0  0  0  0  0  0
   51.1075    8.2989   13.9637 C   0  0  0  0  0  0  0  0  0  0  0  0
   50.1903    8.0226   12.9420 C   0  0  0  0  0  0  0  0  0  0  0  0
   47.5821    9.0549   22.7301 C   0  0  0  0  0  0  0  0  0  0  0  0
   48.4249    3.1560   18.6520 C   0  0  0  0  0  0  0  0  0  0  0  0
   50.7206    3.9463   18.2221 C   0  0  0  0  0  0  0  0  0  0  0  0
   50.6678    7.7166   11.5527 C   0  0  0  0  0  0  0  0  0  0  0  0
   49.6200    5.7297   19.0015 O   0  0  0  0  0  0  0  0  0  0  0  0
   48.0427    5.0491   17.5732 O   0  0  0  0  0  0  0  0  0  0  0  0
   50.5889    7.0193   16.2157 O   0  0  0  0  0  0  0  0  0  0  0  0
   50.0689    9.1070   15.6167 O   0  0  0  0  0  0  0  0  0  0  0  0
   47.2693    7.6607   16.9788 O   0  0  0  0  0  0  0  0  0  0  0  0
   49.0372    9.7180   18.0971 O   0  0  0  0  0  0  0  0  0  0  0  0
   48.6149    5.9714   18.1386 C   0  0  0  0  0  0  0  0  0  0  0  0
   48.2227    7.4404   18.0286 C   0  0  1  0  0  0  0  0  0  0  0  0
   49.4352    8.3560   17.8558 C   0  0  1  0  0  0  0  0  0  0  0  0
   50.0368    8.2235   16.4617 C   0  0  0  0  0  0  0  0  0  0  0  0
   48.1969    5.6762   18.4924 H   0  0  0  0  0  0  0  0  0  0  0  0
   48.8093    5.9901   16.8617 H   0  0  0  0  0  0  0  0  0  0  0  0
   48.2575    6.7663   20.6346 H   0  0  0  0  0  0  0  0  0  0  0  0
   46.8869   11.4554   19.7220 H   0  0  0  0  0  0  0  0  0  0  0  0
   46.6772   10.5440   21.9976 H   0  0  0  0  0  0  0  0  0  0  0  0
   46.8914    9.4872   15.0023 H   0  0  0  0  0  0  0  0  0  0  0  0
   50.7375    7.8304   16.0189 H   0  0  0  0  0  0  0  0  0  0  0  0
   47.4254    9.2545   12.6069 H   0  0  0  0  0  0  0  0  0  0  0  0
   51.2632    7.5730   13.6314 H   0  0  0  0  0  0  0  0  0  0  0  0
   46.2688    8.2294   23.2462 H   0  0  0  0  0  0  0  0  0  0  0  0
   47.9768    8.5968   23.5690 H   0  0  0  0  0  0  0  0  0  0  0  0
   47.5050    6.9959   22.9812 H   0  0  0  0  0  0  0  0  0  0  0  0
   49.0804    3.8618   17.4098 H   0  0  0  0  0  0  0  0  0  0  0  0
   50.2641    2.7811   18.1539 H   0  0  0  0  0  0  0  0  0  0  0  0
   50.5963    3.5068   16.5600 H   0  0  0  0  0  0  0  0  0  0  0  0
   52.7157    5.4089   18.9745 H   0  0  0  0  0  0  0  0  0  0  0  0
   52.2173    3.7418   19.3399 H   0  0  0  0  0  0  0  0  0  0  0  0
   52.7740    4.1749   17.6992 H   0  0  0  0  0  0  0  0  0  0  0  0
   50.7746    8.2612   11.3115 H   0  0  0  0  0  0  0  0  0  0  0  0
   49.2424    9.0268   10.8959 H   0  0  0  0  0  0  0  0  0  0  0  0
   49.3117    7.2613   11.1351 H   0  0  0  0  0  0  0  0  0  0  0  0
   50.4842    6.7959   18.9896 H   0  0  0  0  0  0  0  0  0  0  0  0
   50.2837    6.5021   17.2541 H   0  0  0  0  0  0  0  0  0  0  0  0
   48.8368    7.5344   20.7639 H   0  0  0  0  0  0  0  0  0  0  0  0
   46.7236   11.6502   18.9510 H   0  0  0  0  0  0  0  0  0  0  0  0
   46.5970   11.1711   21.3594 H   0  0  0  0  0  0  0  0  0  0  0  0
   47.3100    8.2652   14.7581 H   0  0  0  0  0  0  0  0  0  0  0  0
   51.3872    8.8052   16.0372 H   0  0  0  0  0  0  0  0  0  0  0  0
   48.0920    7.7707   12.4734 H   0  0  0  0  0  0  0  0  0  0  0  0
   52.1752    8.3232   13.7547 H   0  0  0  0  0  0  0  0  0  0  0  0
   48.0567    8.1148   23.0371 H   0  0  0  0  0  0  0  0  0  0  0  0
   46.5231    8.9998   23.0147 H   0  0  0  0  0  0  0  0  0  0  0  0
   48.0578    9.8648   23.2943 H   0  0  0  0  0  0  0  0  0  0  0  0
   47.3700    3.4314   18.5704 H   0  0  0  0  0  0  0  0  0  0  0  0
   48.6308    2.8278   19.6767 H   0  0  0  0  0  0  0  0  0  0  0  0
   48.6252    2.3373   17.9562 H   0  0  0  0  0  0  0  0  0  0  0  0
   51.0773    3.5839   19.1932 H   0  0  0  0  0  0  0  0  0  0  0  0
   51.3329    4.7991   17.9260 H   0  0  0  0  0  0  0  0  0  0  0  0
   50.8372    3.1561   17.4743 H   0  0  0  0  0  0  0  0  0  0  0  0
   50.8735    6.6461   11.4487 H   0  0  0  0  0  0  0  0  0  0  0  0
   49.9170    8.0032   10.8081 H   0  0  0  0  0  0  0  0  0  0  0  0
   51.5813    8.2760   11.3210 H   0  0  0  0  0  0  0  0  0  0  0  0
   49.7412    4.7570   18.9716 H   0  0  0  0  0  0  0  0  0  0  0  0
   50.9160    7.0888   15.2899 H   0  0  0  0  0  0  0  0  0  0  0  0
   46.6448    6.9086   17.0098 H   0  0  0  0  0  0  0  0  0  0  0  0
   48.8363   10.1061   17.2177 H   0  0  0  0  0  0  0  0  0  0  0  0
   47.7029    7.6948   18.9596 H   0  0  0  0  0  0  0  0  0  0  0  0
   50.2225    8.1398   18.5881 H   0  0  0  0  0  0  0  0  0  0  0  0
 10  4  1  0
 11  8  2  0
 12 11  1  0
 13  7  1  0
 14  7  2  0
 15 10  2  0
 16 10  1  0
 17 15  1  0
 18 16  2  0
 19 18  1  0
 20 11  1  0
 21 13  1  0
 22 13  1  0
 23 19  1  0
  3  5  2  0
  9 12  2  0
 17 19  2  0
  2  1  1  0
  3  4  1  0
  4  1  2  0
  5  2  1  0
  6  1  1  0
  7  6  1  0
  8  2  1  0
  9  5  1  0
 33 27  1  0
 34 31  2  0
 35 34  1  0
 36 30  1  0
 37 30  2  0
 38 33  2  0
 39 33  1  0
 40 38  1  0
 41 39  2  0
 42 41  1  0
 43 34  1  0
 44 36  1  0
 45 36  1  0
 46 42  1  0
 26 28  2  0
 32 35  2  0
 40 42  2  0
 25 24  1  0
 26 27  1  0
 27 24  2  0
 28 25  1  0
 29 24  1  0
 30 29  1  0
 31 25  1  0
 32 28  1  0
 53 48  2  0
 54 51  1  0
 55 52  1  0
 53 47  1  0
 55 56  1  0
 54 55  1  0
 56 49  1  0
 53 54  1  0
 56 50  2  0
  6 57  1  0
  6 58  1  0
  8 59  1  0
  9 60  1  0
 12 61  1  0
 15 62  1  0
 16 63  1  0
 17 64  1  0
 18 65  1  0
 20 66  1  0
 20 67  1  0
 20 68  1  0
 21 69  1  0
 21 70  1  0
 21 71  1  0
 22 72  1  0
 22 73  1  0
 22 74  1  0
 23 75  1  0
 23 76  1  0
 23 77  1  0
 29 78  1  0
 29 79  1  0
 31 80  1  0
 32 81  1  0
 35 82  1  0
 38 83  1  0
 39 84  1  0
 40 85  1  0
 41 86  1  0
 43 87  1  0
 43 88  1  0
 43 89  1  0
 44 90  1  0
 44 91  1  0
 44 92  1  0
 45 93  1  0
 45 94  1  0
 45 95  1  0
 46 96  1  0
 46 97  1  0
 46 98  1  0
 47 99  1  0
 49100  1  0
 51101  1  0
 52102  1  0
 54103  1  6
 55104  1  6
M  END
> <Uni-Dock RESULT> 
ENERGY=   -6.527  LOWER_BOUND=    2.973  UPPER_BOUND=    6.037
INTER + INTRA:          -6.527
INTER:                  -6.527
INTRA:                   0.000
UNBOUND:                 0.000

$$$$
