
     RDKit          3D

104107  0  0  0  0  0  0  0  0999 V2000
   49.6781    6.5371   18.7112 C   0  0  0  0  0  0  0  0  0  0  0  0
   49.3678    5.2595   18.2584 N   0  0  0  0  0  0  0  0  0  0  0  0
   47.4137    6.2580   18.7102 N   0  0  0  0  0  0  0  0  0  0  0  0
   48.4493    7.0957   19.0371 C   0  0  0  0  0  0  0  0  0  0  0  0
   47.9787    5.1619   18.2614 C   0  0  0  0  0  0  0  0  0  0  0  0
   51.0750    7.0637   18.7875 C   0  0  0  0  0  0  0  0  0  0  0  0
   51.6242    7.3654   17.3917 C   0  0  0  0  0  0  0  0  0  0  0  0
   50.1966    4.2067   17.8596 C   0  0  0  0  0  0  0  0  0  0  0  0
   47.4029    3.9404   17.8118 C   0  0  0  0  0  0  0  0  0  0  0  0
   48.2015    8.4033   19.6141 C   0  0  0  0  0  0  0  0  0  0  0  0
   49.6552    3.0454   17.4428 C   0  0  0  0  0  0  0  0  0  0  0  0
   48.1986    2.9273   17.4207 C   0  0  0  0  0  0  0  0  0  0  0  0
   51.5606    8.6632   16.8935 N   0  0  0  0  0  0  0  0  0  0  0  0
   52.1287    6.4472   16.7320 O   0  0  0  0  0  0  0  0  0  0  0  0
   48.8616    8.8288   20.7707 C   0  0  0  0  0  0  0  0  0  0  0  0
   47.2523    9.2442   19.0241 C   0  0  0  0  0  0  0  0  0  0  0  0
   48.6024   10.0923   21.3087 C   0  0  0  0  0  0  0  0  0  0  0  0
   46.9911   10.5078   19.5572 C   0  0  0  0  0  0  0  0  0  0  0  0
   47.6746   10.9456   20.6985 C   0  0  0  0  0  0  0  0  0  0  0  0
   50.4672    1.8718   16.9885 C   0  0  0  0  0  0  0  0  0  0  0  0
   50.7423    9.7188   17.4694 C   0  0  0  0  0  0  0  0  0  0  0  0
   51.9781    8.8785   15.5138 C   0  0  0  0  0  0  0  0  0  0  0  0
   47.3556   12.2804   21.3035 C   0  0  0  0  0  0  0  0  0  0  0  0
   50.2070    7.7245   18.0636 C   0  0  0  0  0  0  0  0  0  0  0  0
   50.8511    8.3225   16.9945 N   0  0  0  0  0  0  0  0  0  0  0  0
   50.2355    9.9842   18.3697 N   0  0  0  0  0  0  0  0  0  0  0  0
   49.8464    8.7774   18.8881 C   0  0  0  0  0  0  0  0  0  0  0  0
   50.8379    9.6937   17.2384 C   0  0  0  0  0  0  0  0  0  0  0  0
   49.9748    6.2536   18.1888 C   0  0  0  0  0  0  0  0  0  0  0  0
   48.8645    5.7701   17.2545 C   0  0  0  0  0  0  0  0  0  0  0  0
   51.4378    7.7601   15.8574 C   0  0  0  0  0  0  0  0  0  0  0  0
   51.4484   10.5371   16.2703 C   0  0  0  0  0  0  0  0  0  0  0  0
   49.1302    8.6713   20.1411 C   0  0  0  0  0  0  0  0  0  0  0  0
   52.0192    8.5571   14.9402 C   0  0  0  0  0  0  0  0  0  0  0  0
   52.0134    9.9997   15.1723 C   0  0  0  0  0  0  0  0  0  0  0  0
   48.2624    4.5486   17.5646 N   0  0  0  0  0  0  0  0  0  0  0  0
   48.5503    6.4001   16.2420 O   0  0  0  0  0  0  0  0  0  0  0  0
   49.7449    8.1066   21.2649 C   0  0  0  0  0  0  0  0  0  0  0  0
   47.8220    9.1517   20.2416 C   0  0  0  0  0  0  0  0  0  0  0  0
   49.0505    8.0102   22.4747 C   0  0  0  0  0  0  0  0  0  0  0  0
   47.1246    9.0512   21.4496 C   0  0  0  0  0  0  0  0  0  0  0  0
   47.7374    8.4890   22.5766 C   0  0  0  0  0  0  0  0  0  0  0  0
   52.6522    8.0510   13.6838 C   0  0  0  0  0  0  0  0  0  0  0  0
   47.0907    4.1451   16.8023 C   0  0  0  0  0  0  0  0  0  0  0  0
   48.5045    3.8264   18.7999 C   0  0  0  0  0  0  0  0  0  0  0  0
   46.9815    8.3651   23.8664 C   0  0  0  0  0  0  0  0  0  0  0  0
   51.6785    6.3087   17.7773 O   0  0  0  0  0  0  0  0  0  0  0  0
   49.9100    6.2684   16.4042 O   0  0  0  0  0  0  0  0  0  0  0  0
   48.2744    5.9053   19.1072 O   0  0  0  0  0  0  0  0  0  0  0  0
   47.3153    7.5723   20.2374 O   0  0  0  0  0  0  0  0  0  0  0  0
   50.6639    8.1253   19.4109 O   0  0  0  0  0  0  0  0  0  0  0  0
   48.1661    9.4915   18.4766 O   0  0  0  0  0  0  0  0  0  0  0  0
   50.4851    6.7930   17.3422 C   0  0  0  0  0  0  0  0  0  0  0  0
   50.0616    8.0397   18.1138 C   0  0  1  0  0  0  0  0  0  0  0  0
   48.5388    8.1267   18.2026 C   0  0  1  0  0  0  0  0  0  0  0  0
   47.9912    7.2071   19.2835 C   0  0  0  0  0  0  0  0  0  0  0  0
   51.7334    6.3120   19.2416 H   0  0  0  0  0  0  0  0  0  0  0  0
   51.1613    7.9315   19.4412 H   0  0  0  0  0  0  0  0  0  0  0  0
   51.2677    4.3703   17.8906 H   0  0  0  0  0  0  0  0  0  0  0  0
   46.3235    3.8442   17.8059 H   0  0  0  0  0  0  0  0  0  0  0  0
   47.7632    1.9914   17.0801 H   0  0  0  0  0  0  0  0  0  0  0  0
   49.5649    8.1754   21.2783 H   0  0  0  0  0  0  0  0  0  0  0  0
   46.6949    8.9024   18.1534 H   0  0  0  0  0  0  0  0  0  0  0  0
   49.1101   10.3965   22.2220 H   0  0  0  0  0  0  0  0  0  0  0  0
   46.2378   11.1368   19.0877 H   0  0  0  0  0  0  0  0  0  0  0  0
   50.2538    0.9916   17.6027 H   0  0  0  0  0  0  0  0  0  0  0  0
   50.2392    1.6282   15.9471 H   0  0  0  0  0  0  0  0  0  0  0  0
   51.5419    2.0742   17.0501 H   0  0  0  0  0  0  0  0  0  0  0  0
   51.1362   10.6919   17.1572 H   0  0  0  0  0  0  0  0  0  0  0  0
   50.7531    9.6914   18.5566 H   0  0  0  0  0  0  0  0  0  0  0  0
   49.7187    9.6086   17.1055 H   0  0  0  0  0  0  0  0  0  0  0  0
   51.0884    8.8803   14.8720 H   0  0  0  0  0  0  0  0  0  0  0  0
   52.4866    9.8467   15.4365 H   0  0  0  0  0  0  0  0  0  0  0  0
   52.6708    8.1012   15.1657 H   0  0  0  0  0  0  0  0  0  0  0  0
   47.1363   13.0218   20.5270 H   0  0  0  0  0  0  0  0  0  0  0  0
   46.4885   12.1895   21.9622 H   0  0  0  0  0  0  0  0  0  0  0  0
   48.1989   12.6591   21.8918 H   0  0  0  0  0  0  0  0  0  0  0  0
   49.7057    6.0308   19.2241 H   0  0  0  0  0  0  0  0  0  0  0  0
   50.8875    5.6953   17.9574 H   0  0  0  0  0  0  0  0  0  0  0  0
   51.3800    6.6845   15.7492 H   0  0  0  0  0  0  0  0  0  0  0  0
   51.4431   11.6075   16.4463 H   0  0  0  0  0  0  0  0  0  0  0  0
   52.4738   10.6466   14.4300 H   0  0  0  0  0  0  0  0  0  0  0  0
   50.7709    7.7516   21.2055 H   0  0  0  0  0  0  0  0  0  0  0  0
   47.3417    9.6071   19.3783 H   0  0  0  0  0  0  0  0  0  0  0  0
   49.5456    7.5671   23.3385 H   0  0  0  0  0  0  0  0  0  0  0  0
   46.1075    9.4307   21.5081 H   0  0  0  0  0  0  0  0  0  0  0  0
   52.5767    6.9612   13.6038 H   0  0  0  0  0  0  0  0  0  0  0  0
   52.1657    8.4787   12.8015 H   0  0  0  0  0  0  0  0  0  0  0  0
   53.7149    8.3142   13.6582 H   0  0  0  0  0  0  0  0  0  0  0  0
   47.0287    4.6548   15.8400 H   0  0  0  0  0  0  0  0  0  0  0  0
   46.1981    4.3849   17.3865 H   0  0  0  0  0  0  0  0  0  0  0  0
   47.1354    3.0677   16.6159 H   0  0  0  0  0  0  0  0  0  0  0  0
   49.5596    3.8691   19.0785 H   0  0  0  0  0  0  0  0  0  0  0  0
   48.2299    2.7745   18.6749 H   0  0  0  0  0  0  0  0  0  0  0  0
   47.8962    4.2732   19.5910 H   0  0  0  0  0  0  0  0  0  0  0  0
   46.3882    7.4448   23.8633 H   0  0  0  0  0  0  0  0  0  0  0  0
   47.6616    8.3422   24.7259 H   0  0  0  0  0  0  0  0  0  0  0  0
   46.3137    9.2224   24.0089 H   0  0  0  0  0  0  0  0  0  0  0  0
   51.8297    5.5165   17.2147 H   0  0  0  0  0  0  0  0  0  0  0  0
   47.8500    5.4640   19.8793 H   0  0  0  0  0  0  0  0  0  0  0  0
   51.6036    7.8817   19.2770 H   0  0  0  0  0  0  0  0  0  0  0  0
   47.8329    9.5154   19.3992 H   0  0  0  0  0  0  0  0  0  0  0  0
   50.4428    8.8951   17.5441 H   0  0  0  0  0  0  0  0  0  0  0  0
   48.0560    7.8665   17.2543 H   0  0  0  0  0  0  0  0  0  0  0  0
 10  4  1  0
 11  8  2  0
 12 11  1  0
 13  7  1  0
 14  7  2  0
 15 10  2  0
 16 10  1  0
 17 15  1  0
 18 16  2  0
 19 18  1  0
 20 11  1  0
 21 13  1  0
 22 13  1  0
 23 19  1  0
  3  5  2  0
  9 12  2  0
 17 19  2  0
  2  1  1  0
  3  4  1  0
  4  1  2  0
  5  2  1  0
  6  1  1  0
  7  6  1  0
  8  2  1  0
  9  5  1  0
 33 27  1  0
 34 31  2  0
 35 34  1  0
 36 30  1  0
 37 30  2  0
 38 33  2  0
 39 33  1  0
 40 38  1  0
 41 39  2  0
 42 41  1  0
 43 34  1  0
 44 36  1  0
 45 36  1  0
 46 42  1  0
 26 28  2  0
 32 35  2  0
 40 42  2  0
 25 24  1  0
 26 27  1  0
 27 24  2  0
 28 25  1  0
 29 24  1  0
 30 29  1  0
 31 25  1  0
 32 28  1  0
 53 48  2  0
 54 51  1  0
 55 52  1  0
 53 47  1  0
 55 56  1  0
 54 55  1  0
 56 49  1  0
 53 54  1  0
 56 50  2  0
  6 57  1  0
  6 58  1  0
  8 59  1  0
  9 60  1  0
 12 61  1  0
 15 62  1  0
 16 63  1  0
 17 64  1  0
 18 65  1  0
 20 66  1  0
 20 67  1  0
 20 68  1  0
 21 69  1  0
 21 70  1  0
 21 71  1  0
 22 72  1  0
 22 73  1  0
 22 74  1  0
 23 75  1  0
 23 76  1  0
 23 77  1  0
 29 78  1  0
 29 79  1  0
 31 80  1  0
 32 81  1  0
 35 82  1  0
 38 83  1  0
 39 84  1  0
 40 85  1  0
 41 86  1  0
 43 87  1  0
 43 88  1  0
 43 89  1  0
 44 90  1  0
 44 91  1  0
 44 92  1  0
 45 93  1  0
 45 94  1  0
 45 95  1  0
 46 96  1  0
 46 97  1  0
 46 98  1  0
 47 99  1  0
 49100  1  0
 51101  1  0
 52102  1  0
 54103  1  6
 55104  1  6
M  END
> <Uni-Dock RESULT> 
ENERGY=   -6.467  LOWER_BOUND=    0.000  UPPER_BOUND=    0.000
INTER + INTRA:          -6.467
INTER:                  -6.467
INTRA:                   0.000
UNBOUND:                 0.000

$$$$

     RDKit          3D

104107  0  0  0  0  0  0  0  0999 V2000
   49.8084    8.2749   15.7589 C   0  0  0  0  0  0  0  0  0  0  0  0
   49.6554    8.4297   14.3856 N   0  0  0  0  0  0  0  0  0  0  0  0
   48.5080    6.5876   14.9421 N   0  0  0  0  0  0  0  0  0  0  0  0
   49.1378    7.0944   16.0501 C   0  0  0  0  0  0  0  0  0  0  0  0
   48.8390    7.3869   13.9553 C   0  0  0  0  0  0  0  0  0  0  0  0
   50.5639    9.2406   16.6142 C   0  0  0  0  0  0  0  0  0  0  0  0
   49.7815   10.5432   16.7927 C   0  0  0  0  0  0  0  0  0  0  0  0
   50.1716    9.3922   13.5128 C   0  0  0  0  0  0  0  0  0  0  0  0
   48.5102    7.3351   12.5715 C   0  0  0  0  0  0  0  0  0  0  0  0
   49.0335    6.4354   17.3381 C   0  0  0  0  0  0  0  0  0  0  0  0
   49.8705    9.3405   12.2005 C   0  0  0  0  0  0  0  0  0  0  0  0
   49.0004    8.2647   11.7300 C   0  0  0  0  0  0  0  0  0  0  0  0
   48.9991   10.7252   17.9290 N   0  0  0  0  0  0  0  0  0  0  0  0
   49.8685   11.4213   15.9243 O   0  0  0  0  0  0  0  0  0  0  0  0
   50.1659    6.1479   18.1058 C   0  0  0  0  0  0  0  0  0  0  0  0
   47.7758    6.0425   17.8072 C   0  0  0  0  0  0  0  0  0  0  0  0
   50.0387    5.5089   19.3422 C   0  0  0  0  0  0  0  0  0  0  0  0
   47.6437    5.4052   19.0423 C   0  0  0  0  0  0  0  0  0  0  0  0
   48.7756    5.1444   19.8248 C   0  0  0  0  0  0  0  0  0  0  0  0
   50.3706   10.3354   11.1989 C   0  0  0  0  0  0  0  0  0  0  0  0
   48.6192    9.6549   18.8377 C   0  0  0  0  0  0  0  0  0  0  0  0
   48.1734   11.9243   17.9959 C   0  0  0  0  0  0  0  0  0  0  0  0
   48.6406    4.4115   21.1263 C   0  0  0  0  0  0  0  0  0  0  0  0
   49.3091    9.0095   16.9078 C   0  0  0  0  0  0  0  0  0  0  0  0
   48.7398   10.1490   17.4491 N   0  0  0  0  0  0  0  0  0  0  0  0
   48.8974    8.6659   19.1245 N   0  0  0  0  0  0  0  0  0  0  0  0
   49.3924    8.1225   17.9684 C   0  0  0  0  0  0  0  0  0  0  0  0
   48.5144    9.8795   18.7968 C   0  0  0  0  0  0  0  0  0  0  0  0
   49.6861    8.8602   15.4696 C   0  0  0  0  0  0  0  0  0  0  0  0
   48.4600    8.6674   14.5758 C   0  0  0  0  0  0  0  0  0  0  0  0
   48.4216   11.3744   16.8571 C   0  0  0  0  0  0  0  0  0  0  0  0
   47.9279   10.9099   19.5816 C   0  0  0  0  0  0  0  0  0  0  0  0
   49.9109    6.7727   17.9112 C   0  0  0  0  0  0  0  0  0  0  0  0
   47.8684   12.3530   17.5994 C   0  0  0  0  0  0  0  0  0  0  0  0
   47.6181   12.0916   19.0150 C   0  0  0  0  0  0  0  0  0  0  0  0
   48.6756    8.1003   13.3178 N   0  0  0  0  0  0  0  0  0  0  0  0
   47.3388    9.0446   14.9245 O   0  0  0  0  0  0  0  0  0  0  0  0
   51.2784    6.5448   17.7173 C   0  0  0  0  0  0  0  0  0  0  0  0
   49.0482    5.6850   18.0692 C   0  0  0  0  0  0  0  0  0  0  0  0
   51.7755    5.2388   17.6670 C   0  0  0  0  0  0  0  0  0  0  0  0
   49.5433    4.3783   18.0140 C   0  0  0  0  0  0  0  0  0  0  0  0
   50.9113    4.1467   17.8226 C   0  0  0  0  0  0  0  0  0  0  0  0
   47.4741   13.6871   17.0516 C   0  0  0  0  0  0  0  0  0  0  0  0
   47.5158    7.7430   12.5153 C   0  0  0  0  0  0  0  0  0  0  0  0
   49.9439    7.5301   12.9023 C   0  0  0  0  0  0  0  0  0  0  0  0
   51.4379    2.7441   17.7450 C   0  0  0  0  0  0  0  0  0  0  0  0
   50.4053   10.4100   15.8646 O   0  0  0  0  0  0  0  0  0  0  0  0
   48.3258    9.9743   15.1574 O   0  0  0  0  0  0  0  0  0  0  0  0
   49.4278    7.0039   14.8838 O   0  0  0  0  0  0  0  0  0  0  0  0
   49.1938    5.4210   16.4382 O   0  0  0  0  0  0  0  0  0  0  0  0
   50.4655    8.4460   17.6358 O   0  0  0  0  0  0  0  0  0  0  0  0
   47.8574    7.0709   18.1700 O   0  0  0  0  0  0  0  0  0  0  0  0
   49.2164    9.7580   15.9610 C   0  0  0  0  0  0  0  0  0  0  0  0
   49.1661    8.8439   17.1821 C   0  0  1  0  0  0  0  0  0  0  0  0
   48.2780    7.6308   16.9105 C   0  0  1  0  0  0  0  0  0  0  0  0
   49.0080    6.5799   16.0879 C   0  0  0  0  0  0  0  0  0  0  0  0
   51.5182    9.4961   16.1359 H   0  0  0  0  0  0  0  0  0  0  0  0
   50.8473    8.8157   17.5770 H   0  0  0  0  0  0  0  0  0  0  0  0
   50.8001   10.1680   13.9347 H   0  0  0  0  0  0  0  0  0  0  0  0
   47.8757    6.5317   12.2164 H   0  0  0  0  0  0  0  0  0  0  0  0
   48.7548    8.2269   10.6718 H   0  0  0  0  0  0  0  0  0  0  0  0
   51.1586    6.3952   17.7415 H   0  0  0  0  0  0  0  0  0  0  0  0
   46.8926    6.2149   17.1941 H   0  0  0  0  0  0  0  0  0  0  0  0
   50.9339    5.2740   19.9148 H   0  0  0  0  0  0  0  0  0  0  0  0
   46.6558    5.0971   19.3778 H   0  0  0  0  0  0  0  0  0  0  0  0
   50.9487    9.8383   10.4139 H   0  0  0  0  0  0  0  0  0  0  0  0
   49.5339   10.8605   10.7299 H   0  0  0  0  0  0  0  0  0  0  0  0
   51.0126   11.0912   11.6639 H   0  0  0  0  0  0  0  0  0  0  0  0
   48.3470   10.0844   19.8078 H   0  0  0  0  0  0  0  0  0  0  0  0
   49.4358    8.9559   19.0034 H   0  0  0  0  0  0  0  0  0  0  0  0
   47.7585    9.1281   18.4206 H   0  0  0  0  0  0  0  0  0  0  0  0
   47.1569   11.6716   17.6698 H   0  0  0  0  0  0  0  0  0  0  0  0
   48.1458   12.2875   19.0300 H   0  0  0  0  0  0  0  0  0  0  0  0
   48.5642   12.7309   17.3619 H   0  0  0  0  0  0  0  0  0  0  0  0
   47.7192    4.6982   21.6454 H   0  0  0  0  0  0  0  0  0  0  0  0
   48.6242    3.3343   20.9435 H   0  0  0  0  0  0  0  0  0  0  0  0
   49.4790    4.6362   21.7950 H   0  0  0  0  0  0  0  0  0  0  0  0
   50.3504    7.9983   15.3717 H   0  0  0  0  0  0  0  0  0  0  0  0
   50.2337    9.7406   15.1183 H   0  0  0  0  0  0  0  0  0  0  0  0
   48.6182   11.4801   15.7978 H   0  0  0  0  0  0  0  0  0  0  0  0
   47.7443   10.7127   20.6324 H   0  0  0  0  0  0  0  0  0  0  0  0
   47.1637   12.8757   19.6151 H   0  0  0  0  0  0  0  0  0  0  0  0
   51.9630    7.3836   17.6175 H   0  0  0  0  0  0  0  0  0  0  0  0
   47.9864    5.8523   18.2369 H   0  0  0  0  0  0  0  0  0  0  0  0
   52.8431    5.0814   17.5147 H   0  0  0  0  0  0  0  0  0  0  0  0
   48.8564    3.5450   18.1392 H   0  0  0  0  0  0  0  0  0  0  0  0
   47.6848   13.7621   15.9794 H   0  0  0  0  0  0  0  0  0  0  0  0
   46.4026   13.8642   17.1880 H   0  0  0  0  0  0  0  0  0  0  0  0
   48.0268   14.4863   17.5565 H   0  0  0  0  0  0  0  0  0  0  0  0
   46.6203    8.2866   12.8192 H   0  0  0  0  0  0  0  0  0  0  0  0
   47.3330    6.6711   12.6289 H   0  0  0  0  0  0  0  0  0  0  0  0
   47.7177    7.9772   11.4657 H   0  0  0  0  0  0  0  0  0  0  0  0
   50.7803    8.1413   13.2479 H   0  0  0  0  0  0  0  0  0  0  0  0
   49.9891    7.4814   11.8100 H   0  0  0  0  0  0  0  0  0  0  0  0
   50.0271    6.5224   13.3185 H   0  0  0  0  0  0  0  0  0  0  0  0
   51.3405    2.3659   16.7221 H   0  0  0  0  0  0  0  0  0  0  0  0
   52.4933    2.6983   18.0380 H   0  0  0  0  0  0  0  0  0  0  0  0
   50.8874    2.0846   18.4257 H   0  0  0  0  0  0  0  0  0  0  0  0
   50.3120   10.9490   15.0475 H   0  0  0  0  0  0  0  0  0  0  0  0
   49.8666    6.2124   14.4939 H   0  0  0  0  0  0  0  0  0  0  0  0
   51.0102    9.2602   17.6085 H   0  0  0  0  0  0  0  0  0  0  0  0
   48.3280    6.2161   18.2724 H   0  0  0  0  0  0  0  0  0  0  0  0
   48.7304    9.4405   17.9919 H   0  0  0  0  0  0  0  0  0  0  0  0
   47.3594    7.9041   16.3799 H   0  0  0  0  0  0  0  0  0  0  0  0
 10  4  1  0
 11  8  2  0
 12 11  1  0
 13  7  1  0
 14  7  2  0
 15 10  2  0
 16 10  1  0
 17 15  1  0
 18 16  2  0
 19 18  1  0
 20 11  1  0
 21 13  1  0
 22 13  1  0
 23 19  1  0
  3  5  2  0
  9 12  2  0
 17 19  2  0
  2  1  1  0
  3  4  1  0
  4  1  2  0
  5  2  1  0
  6  1  1  0
  7  6  1  0
  8  2  1  0
  9  5  1  0
 33 27  1  0
 34 31  2  0
 35 34  1  0
 36 30  1  0
 37 30  2  0
 38 33  2  0
 39 33  1  0
 40 38  1  0
 41 39  2  0
 42 41  1  0
 43 34  1  0
 44 36  1  0
 45 36  1  0
 46 42  1  0
 26 28  2  0
 32 35  2  0
 40 42  2  0
 25 24  1  0
 26 27  1  0
 27 24  2  0
 28 25  1  0
 29 24  1  0
 30 29  1  0
 31 25  1  0
 32 28  1  0
 53 48  2  0
 54 51  1  0
 55 52  1  0
 53 47  1  0
 55 56  1  0
 54 55  1  0
 56 49  1  0
 53 54  1  0
 56 50  2  0
  6 57  1  0
  6 58  1  0
  8 59  1  0
  9 60  1  0
 12 61  1  0
 15 62  1  0
 16 63  1  0
 17 64  1  0
 18 65  1  0
 20 66  1  0
 20 67  1  0
 20 68  1  0
 21 69  1  0
 21 70  1  0
 21 71  1  0
 22 72  1  0
 22 73  1  0
 22 74  1  0
 23 75  1  0
 23 76  1  0
 23 77  1  0
 29 78  1  0
 29 79  1  0
 31 80  1  0
 32 81  1  0
 35 82  1  0
 38 83  1  0
 39 84  1  0
 40 85  1  0
 41 86  1  0
 43 87  1  0
 43 88  1  0
 43 89  1  0
 44 90  1  0
 44 91  1  0
 44 92  1  0
 45 93  1  0
 45 94  1  0
 45 95  1  0
 46 96  1  0
 46 97  1  0
 46 98  1  0
 47 99  1  0
 49100  1  0
 51101  1  0
 52102  1  0
 54103  1  6
 55104  1  6
M  END
> <Uni-Dock RESULT> 
ENERGY=   -5.952  LOWER_BOUND=    2.416  UPPER_BOUND=    5.096
INTER + INTRA:          -5.952
INTER:                  -5.952
INTRA:                   0.000
UNBOUND:                 0.000

$$$$

     RDKit          3D

104107  0  0  0  0  0  0  0  0999 V2000
   50.2634    8.5952   17.2675 C   0  0  0  0  0  0  0  0  0  0  0  0
   51.3806    9.3548   17.5963 N   0  0  0  0  0  0  0  0  0  0  0  0
   51.7636    7.2963   18.3934 N   0  0  0  0  0  0  0  0  0  0  0  0
   50.5137    7.3511   17.8312 C   0  0  0  0  0  0  0  0  0  0  0  0
   52.2611    8.5031   18.2583 C   0  0  0  0  0  0  0  0  0  0  0  0
   49.1103    9.1300   16.4806 C   0  0  0  0  0  0  0  0  0  0  0  0
   49.4880    9.3117   15.0092 C   0  0  0  0  0  0  0  0  0  0  0  0
   51.6672   10.7034   17.3647 C   0  0  0  0  0  0  0  0  0  0  0  0
   53.5069    9.0441   18.6838 C   0  0  0  0  0  0  0  0  0  0  0  0
   49.6391    6.1939   17.8355 C   0  0  0  0  0  0  0  0  0  0  0  0
   52.8414   11.2215   17.7749 C   0  0  0  0  0  0  0  0  0  0  0  0
   53.7883   10.3408   18.4560 C   0  0  0  0  0  0  0  0  0  0  0  0
   49.1709    8.3163   14.0899 N   0  0  0  0  0  0  0  0  0  0  0  0
   50.0610   10.3518   14.6590 O   0  0  0  0  0  0  0  0  0  0  0  0
   48.3130    6.2817   18.2695 C   0  0  0  0  0  0  0  0  0  0  0  0
   50.1425    4.9526   17.4335 C   0  0  0  0  0  0  0  0  0  0  0  0
   47.4916    5.1510   18.2670 C   0  0  0  0  0  0  0  0  0  0  0  0
   49.3254    3.8206   17.4281 C   0  0  0  0  0  0  0  0  0  0  0  0
   47.9885    3.9152   17.8344 C   0  0  0  0  0  0  0  0  0  0  0  0
   53.2339   12.6505   17.5588 C   0  0  0  0  0  0  0  0  0  0  0  0
   48.7674    6.9674   14.4550 C   0  0  0  0  0  0  0  0  0  0  0  0
   49.6616    8.4744   12.7267 C   0  0  0  0  0  0  0  0  0  0  0  0
   47.1254    2.6896   17.8806 C   0  0  0  0  0  0  0  0  0  0  0  0
   49.7397    8.0809   16.0144 C   0  0  0  0  0  0  0  0  0  0  0  0
   49.7077    8.0952   14.6308 N   0  0  0  0  0  0  0  0  0  0  0  0
   48.3805    6.4055   15.2750 N   0  0  0  0  0  0  0  0  0  0  0  0
   48.9100    7.0312   16.3725 C   0  0  0  0  0  0  0  0  0  0  0  0
   48.8653    7.0566   14.2415 C   0  0  0  0  0  0  0  0  0  0  0  0
   50.5523    9.0195   16.8459 C   0  0  0  0  0  0  0  0  0  0  0  0
   52.0408    8.6688   16.8118 C   0  0  0  0  0  0  0  0  0  0  0  0
   50.3443    8.9387   13.7161 C   0  0  0  0  0  0  0  0  0  0  0  0
   48.6660    6.8626   12.8472 C   0  0  0  0  0  0  0  0  0  0  0  0
   48.6207    6.5966   17.7223 C   0  0  0  0  0  0  0  0  0  0  0  0
   50.1547    8.7584   12.3947 C   0  0  0  0  0  0  0  0  0  0  0  0
   49.2788    7.6719   11.9623 C   0  0  0  0  0  0  0  0  0  0  0  0
   52.8338    9.1699   17.8466 N   0  0  0  0  0  0  0  0  0  0  0  0
   52.5319    8.0198   15.8853 O   0  0  0  0  0  0  0  0  0  0  0  0
   47.8474    7.3936   18.5746 C   0  0  0  0  0  0  0  0  0  0  0  0
   49.0976    5.3647   18.1775 C   0  0  0  0  0  0  0  0  0  0  0  0
   47.5667    6.9675   19.8765 C   0  0  0  0  0  0  0  0  0  0  0  0
   48.8218    4.9397   19.4809 C   0  0  0  0  0  0  0  0  0  0  0  0
   48.0465    5.7335   20.3356 C   0  0  0  0  0  0  0  0  0  0  0  0
   50.8084    9.5943   11.3416 C   0  0  0  0  0  0  0  0  0  0  0  0
   54.2121    8.7135   17.9409 C   0  0  0  0  0  0  0  0  0  0  0  0
   52.2955    9.8331   19.0199 C   0  0  0  0  0  0  0  0  0  0  0  0
   47.7674    5.2847   21.7396 C   0  0  0  0  0  0  0  0  0  0  0  0
   49.7569   10.1245   15.7408 O   0  0  0  0  0  0  0  0  0  0  0  0
   51.6841    9.0182   15.4645 O   0  0  0  0  0  0  0  0  0  0  0  0
   51.1829    8.1204   18.4738 O   0  0  0  0  0  0  0  0  0  0  0  0
   50.2099    6.2054   19.0758 O   0  0  0  0  0  0  0  0  0  0  0  0
   48.4304    8.0461   16.6994 O   0  0  0  0  0  0  0  0  0  0  0  0
   49.8062    5.3925   16.4905 O   0  0  0  0  0  0  0  0  0  0  0  0
   50.4933    8.9820   15.7220 C   0  0  0  0  0  0  0  0  0  0  0  0
   49.6350    7.7475   15.9835 C   0  0  1  0  0  0  0  0  0  0  0  0
   50.4484    6.6665   16.6935 C   0  0  1  0  0  0  0  0  0  0  0  0
   50.5795    6.9559   18.1811 C   0  0  0  0  0  0  0  0  0  0  0  0
   48.8193   10.1153   16.8669 H   0  0  0  0  0  0  0  0  0  0  0  0
   48.2125    8.5208   16.5850 H   0  0  0  0  0  0  0  0  0  0  0  0
   50.9226   11.2933   16.8426 H   0  0  0  0  0  0  0  0  0  0  0  0
   54.2065    8.3976   19.2004 H   0  0  0  0  0  0  0  0  0  0  0  0
   54.7370   10.7590   18.7824 H   0  0  0  0  0  0  0  0  0  0  0  0
   47.9120    7.2221   18.6358 H   0  0  0  0  0  0  0  0  0  0  0  0
   51.1881    4.8622   17.1428 H   0  0  0  0  0  0  0  0  0  0  0  0
   46.4689    5.2350   18.6294 H   0  0  0  0  0  0  0  0  0  0  0  0
   49.7454    2.8640   17.1245 H   0  0  0  0  0  0  0  0  0  0  0  0
   53.4323   13.1468   18.5138 H   0  0  0  0  0  0  0  0  0  0  0  0
   54.1371   12.7113   16.9453 H   0  0  0  0  0  0  0  0  0  0  0  0
   52.4485   13.2131   17.0426 H   0  0  0  0  0  0  0  0  0  0  0  0
   48.2271    6.5130   13.6175 H   0  0  0  0  0  0  0  0  0  0  0  0
   48.1044    6.9628   15.3171 H   0  0  0  0  0  0  0  0  0  0  0  0
   49.6615    6.3791   14.6711 H   0  0  0  0  0  0  0  0  0  0  0  0
   50.5896    7.8999   12.6167 H   0  0  0  0  0  0  0  0  0  0  0  0
   48.9103    8.0931   12.0251 H   0  0  0  0  0  0  0  0  0  0  0  0
   49.8578    9.5255   12.4775 H   0  0  0  0  0  0  0  0  0  0  0  0
   47.3572    2.0137   17.0499 H   0  0  0  0  0  0  0  0  0  0  0  0
   47.2852    2.1607   18.8234 H   0  0  0  0  0  0  0  0  0  0  0  0
   46.0639    2.9510   17.8062 H   0  0  0  0  0  0  0  0  0  0  0  0
   50.1889    8.9760   17.8755 H   0  0  0  0  0  0  0  0  0  0  0  0
   50.4330   10.0502   16.4970 H   0  0  0  0  0  0  0  0  0  0  0  0
   50.9947    9.7056   14.1173 H   0  0  0  0  0  0  0  0  0  0  0  0
   48.0143    6.0555   12.5297 H   0  0  0  0  0  0  0  0  0  0  0  0
   49.1304    7.5178   10.8966 H   0  0  0  0  0  0  0  0  0  0  0  0
   47.4503    8.3429   18.2236 H   0  0  0  0  0  0  0  0  0  0  0  0
   49.6853    4.7309   17.5170 H   0  0  0  0  0  0  0  0  0  0  0  0
   46.9635    7.6020   20.5255 H   0  0  0  0  0  0  0  0  0  0  0  0
   49.2017    3.9781   19.8169 H   0  0  0  0  0  0  0  0  0  0  0  0
   51.4593   10.3592   11.7788 H   0  0  0  0  0  0  0  0  0  0  0  0
   51.4258    8.9777   10.6808 H   0  0  0  0  0  0  0  0  0  0  0  0
   50.0531   10.1061   10.7360 H   0  0  0  0  0  0  0  0  0  0  0  0
   54.5825    8.3206   16.9932 H   0  0  0  0  0  0  0  0  0  0  0  0
   54.2645    7.9233   18.6947 H   0  0  0  0  0  0  0  0  0  0  0  0
   54.8501    9.5523   18.2356 H   0  0  0  0  0  0  0  0  0  0  0  0
   51.4696   10.4952   18.7514 H   0  0  0  0  0  0  0  0  0  0  0  0
   53.0741   10.4385   19.4941 H   0  0  0  0  0  0  0  0  0  0  0  0
   51.9443    9.0715   19.7215 H   0  0  0  0  0  0  0  0  0  0  0  0
   48.5946    5.5762   22.3951 H   0  0  0  0  0  0  0  0  0  0  0  0
   46.8415    5.7289   22.1231 H   0  0  0  0  0  0  0  0  0  0  0  0
   47.6422    4.1966   21.7817 H   0  0  0  0  0  0  0  0  0  0  0  0
   50.4176   10.8326   15.5702 H   0  0  0  0  0  0  0  0  0  0  0  0
   51.1863    8.1442   19.4589 H   0  0  0  0  0  0  0  0  0  0  0  0
   48.0741    8.8572   16.2804 H   0  0  0  0  0  0  0  0  0  0  0  0
   49.4248    5.1256   17.3542 H   0  0  0  0  0  0  0  0  0  0  0  0
   49.3212    7.3802   14.9996 H   0  0  0  0  0  0  0  0  0  0  0  0
   51.4554    6.5673   16.2737 H   0  0  0  0  0  0  0  0  0  0  0  0
 10  4  1  0
 11  8  2  0
 12 11  1  0
 13  7  1  0
 14  7  2  0
 15 10  2  0
 16 10  1  0
 17 15  1  0
 18 16  2  0
 19 18  1  0
 20 11  1  0
 21 13  1  0
 22 13  1  0
 23 19  1  0
  3  5  2  0
  9 12  2  0
 17 19  2  0
  2  1  1  0
  3  4  1  0
  4  1  2  0
  5  2  1  0
  6  1  1  0
  7  6  1  0
  8  2  1  0
  9  5  1  0
 33 27  1  0
 34 31  2  0
 35 34  1  0
 36 30  1  0
 37 30  2  0
 38 33  2  0
 39 33  1  0
 40 38  1  0
 41 39  2  0
 42 41  1  0
 43 34  1  0
 44 36  1  0
 45 36  1  0
 46 42  1  0
 26 28  2  0
 32 35  2  0
 40 42  2  0
 25 24  1  0
 26 27  1  0
 27 24  2  0
 28 25  1  0
 29 24  1  0
 30 29  1  0
 31 25  1  0
 32 28  1  0
 53 48  2  0
 54 51  1  0
 55 52  1  0
 53 47  1  0
 55 56  1  0
 54 55  1  0
 56 49  1  0
 53 54  1  0
 56 50  2  0
  6 57  1  0
  6 58  1  0
  8 59  1  0
  9 60  1  0
 12 61  1  0
 15 62  1  0
 16 63  1  0
 17 64  1  0
 18 65  1  0
 20 66  1  0
 20 67  1  0
 20 68  1  0
 21 69  1  0
 21 70  1  0
 21 71  1  0
 22 72  1  0
 22 73  1  0
 22 74  1  0
 23 75  1  0
 23 76  1  0
 23 77  1  0
 29 78  1  0
 29 79  1  0
 31 80  1  0
 32 81  1  0
 35 82  1  0
 38 83  1  0
 39 84  1  0
 40 85  1  0
 41 86  1  0
 43 87  1  0
 43 88  1  0
 43 89  1  0
 44 90  1  0
 44 91  1  0
 44 92  1  0
 45 93  1  0
 45 94  1  0
 45 95  1  0
 46 96  1  0
 46 97  1  0
 46 98  1  0
 47 99  1  0
 49100  1  0
 51101  1  0
 52102  1  0
 54103  1  6
 55104  1  6
M  END
> <Uni-Dock RESULT> 
ENERGY=   -5.359  LOWER_BOUND=    2.189  UPPER_BOUND=    5.131
INTER + INTRA:          -5.359
INTER:                  -5.359
INTRA:                   0.000
UNBOUND:                 0.000

$$$$

     RDKit          3D

104107  0  0  0  0  0  0  0  0999 V2000
   52.9691    5.4149   19.1818 C   0  0  0  0  0  0  0  0  0  0  0  0
   53.6727    5.9629   20.2486 N   0  0  0  0  0  0  0  0  0  0  0  0
   51.5032    6.0971   20.7914 N   0  0  0  0  0  0  0  0  0  0  0  0
   51.6345    5.5742   19.5303 C   0  0  0  0  0  0  0  0  0  0  0  0
   52.7271    6.3373   21.1997 C   0  0  0  0  0  0  0  0  0  0  0  0
   53.6316    4.8242   17.9789 C   0  0  0  0  0  0  0  0  0  0  0  0
   54.2788    3.4791   18.3145 C   0  0  0  0  0  0  0  0  0  0  0  0
   55.0452    6.1535   20.4345 C   0  0  0  0  0  0  0  0  0  0  0  0
   53.2031    6.9112   22.4120 C   0  0  0  0  0  0  0  0  0  0  0  0
   50.4698    5.2233   18.7399 C   0  0  0  0  0  0  0  0  0  0  0  0
   55.4987    6.7057   21.5768 C   0  0  0  0  0  0  0  0  0  0  0  0
   54.5247    7.0897   22.5965 C   0  0  0  0  0  0  0  0  0  0  0  0
   53.5891    2.2995   18.0511 N   0  0  0  0  0  0  0  0  0  0  0  0
   55.4151    3.4638   18.8057 O   0  0  0  0  0  0  0  0  0  0  0  0
   50.3243    5.6591   17.4195 C   0  0  0  0  0  0  0  0  0  0  0  0
   49.4495    4.4644   19.3222 C   0  0  0  0  0  0  0  0  0  0  0  0
   49.1908    5.3101   16.6804 C   0  0  0  0  0  0  0  0  0  0  0  0
   48.3160    4.1121   18.5873 C   0  0  0  0  0  0  0  0  0  0  0  0
   48.1846    4.5236   17.2551 C   0  0  0  0  0  0  0  0  0  0  0  0
   56.9506    6.9360   21.8630 C   0  0  0  0  0  0  0  0  0  0  0  0
   52.1673    2.2355   17.7511 C   0  0  0  0  0  0  0  0  0  0  0  0
   54.1892    1.0507   18.5031 C   0  0  0  0  0  0  0  0  0  0  0  0
   46.9430    4.1919   16.4818 C   0  0  0  0  0  0  0  0  0  0  0  0
   52.8227    4.0630   18.6719 C   0  0  0  0  0  0  0  0  0  0  0  0
   53.2541    2.7493   18.6124 N   0  0  0  0  0  0  0  0  0  0  0  0
   51.3562    2.8444   17.4207 N   0  0  0  0  0  0  0  0  0  0  0  0
   51.6561    4.0821   17.9256 C   0  0  0  0  0  0  0  0  0  0  0  0
   52.3240    2.0596   17.8384 C   0  0  0  0  0  0  0  0  0  0  0  0
   53.5214    5.1434   19.4319 C   0  0  0  0  0  0  0  0  0  0  0  0
   53.3076    5.0091   20.9405 C   0  0  0  0  0  0  0  0  0  0  0  0
   54.3798    2.1367   19.1702 C   0  0  0  0  0  0  0  0  0  0  0  0
   52.5485    0.6718   17.6266 C   0  0  0  0  0  0  0  0  0  0  0  0
   50.8122    5.2346   17.6936 C   0  0  0  0  0  0  0  0  0  0  0  0
   54.5959    0.8225   18.9685 C   0  0  0  0  0  0  0  0  0  0  0  0
   53.6309    0.0770   18.1635 C   0  0  0  0  0  0  0  0  0  0  0  0
   53.5275    6.1498   21.7158 N   0  0  0  0  0  0  0  0  0  0  0  0
   53.0083    3.9306   21.4584 O   0  0  0  0  0  0  0  0  0  0  0  0
   51.2538    6.2865   16.8824 C   0  0  0  0  0  0  0  0  0  0  0  0
   49.5386    5.2950   18.2651 C   0  0  0  0  0  0  0  0  0  0  0  0
   50.4332    7.3961   16.6575 C   0  0  0  0  0  0  0  0  0  0  0  0
   48.7189    6.4065   18.0452 C   0  0  0  0  0  0  0  0  0  0  0  0
   49.1566    7.4596   17.2322 C   0  0  0  0  0  0  0  0  0  0  0  0
   55.7577    0.0757   19.5411 C   0  0  0  0  0  0  0  0  0  0  0  0
   53.1662    6.1053   23.1244 C   0  0  0  0  0  0  0  0  0  0  0  0
   53.7618    7.4675   21.1545 C   0  0  0  0  0  0  0  0  0  0  0  0
   48.2835    8.6596   17.0125 C   0  0  0  0  0  0  0  0  0  0  0  0
   54.8484    4.4242   18.5392 O   0  0  0  0  0  0  0  0  0  0  0  0
   54.0225    3.8308   20.5342 O   0  0  0  0  0  0  0  0  0  0  0  0
   52.2191    6.4226   20.1555 O   0  0  0  0  0  0  0  0  0  0  0  0
   50.1459    6.4102   19.3322 O   0  0  0  0  0  0  0  0  0  0  0  0
   52.4858    4.7007   17.3817 O   0  0  0  0  0  0  0  0  0  0  0  0
   50.1292    3.6988   18.9376 O   0  0  0  0  0  0  0  0  0  0  0  0
   53.8227    4.0611   19.3541 C   0  0  0  0  0  0  0  0  0  0  0  0
   52.5077    3.9318   18.5905 C   0  0  1  0  0  0  0  0  0  0  0  0
   51.3248    4.2819   19.4918 C   0  0  1  0  0  0  0  0  0  0  0  0
   51.1576    5.7875   19.6305 C   0  0  0  0  0  0  0  0  0  0  0  0
   54.4291    5.4910   17.6264 H   0  0  0  0  0  0  0  0  0  0  0  0
   52.9556    4.7354   17.1286 H   0  0  0  0  0  0  0  0  0  0  0  0
   55.7095    5.8332   19.6402 H   0  0  0  0  0  0  0  0  0  0  0  0
   52.4833    7.2090   23.1654 H   0  0  0  0  0  0  0  0  0  0  0  0
   54.8923    7.5310   23.5193 H   0  0  0  0  0  0  0  0  0  0  0  0
   51.0770    6.2928   16.9601 H   0  0  0  0  0  0  0  0  0  0  0  0
   49.5285    4.1634   20.3657 H   0  0  0  0  0  0  0  0  0  0  0  0
   49.0857    5.6775   15.6613 H   0  0  0  0  0  0  0  0  0  0  0  0
   47.5303    3.5332   19.0679 H   0  0  0  0  0  0  0  0  0  0  0  0
   57.1466    7.9973   22.0440 H   0  0  0  0  0  0  0  0  0  0  0  0
   57.2608    6.3730   22.7476 H   0  0  0  0  0  0  0  0  0  0  0  0
   57.5843    6.6128   21.0300 H   0  0  0  0  0  0  0  0  0  0  0  0
   51.9504    1.2978   17.2284 H   0  0  0  0  0  0  0  0  0  0  0  0
   51.8526    3.0532   17.1068 H   0  0  0  0  0  0  0  0  0  0  0  0
   51.6082    2.2654   18.6886 H   0  0  0  0  0  0  0  0  0  0  0  0
   53.7448    0.7741   19.4672 H   0  0  0  0  0  0  0  0  0  0  0  0
   53.9850    0.2638   17.7675 H   0  0  0  0  0  0  0  0  0  0  0  0
   55.2777    1.1337   18.6197 H   0  0  0  0  0  0  0  0  0  0  0  0
   46.5702    3.1957   16.7450 H   0  0  0  0  0  0  0  0  0  0  0  0
   46.1661    4.9296   16.6967 H   0  0  0  0  0  0  0  0  0  0  0  0
   47.1362    4.1971   15.4033 H   0  0  0  0  0  0  0  0  0  0  0  0
   53.1408    6.1097   19.0922 H   0  0  0  0  0  0  0  0  0  0  0  0
   54.5977    5.1242   19.2333 H   0  0  0  0  0  0  0  0  0  0  0  0
   55.0341    2.7543   19.7722 H   0  0  0  0  0  0  0  0  0  0  0  0
   51.8305    0.1216   17.0277 H   0  0  0  0  0  0  0  0  0  0  0  0
   53.7972   -0.9855   18.0060 H   0  0  0  0  0  0  0  0  0  0  0  0
   52.2332    6.2396   16.4124 H   0  0  0  0  0  0  0  0  0  0  0  0
   49.1801    4.4749   18.8835 H   0  0  0  0  0  0  0  0  0  0  0  0
   50.7946    8.2054   16.0235 H   0  0  0  0  0  0  0  0  0  0  0  0
   47.7311    6.4352   18.4985 H   0  0  0  0  0  0  0  0  0  0  0  0
   56.3992    0.7270   20.1445 H   0  0  0  0  0  0  0  0  0  0  0  0
   55.4178   -0.7393   20.1878 H   0  0  0  0  0  0  0  0  0  0  0  0
   56.3724   -0.3479   18.7400 H   0  0  0  0  0  0  0  0  0  0  0  0
   53.1079    5.0842   23.5035 H   0  0  0  0  0  0  0  0  0  0  0  0
   52.1905    6.5832   23.2470 H   0  0  0  0  0  0  0  0  0  0  0  0
   53.9202    6.6433   23.7070 H   0  0  0  0  0  0  0  0  0  0  0  0
   54.4118    7.4105   20.2788 H   0  0  0  0  0  0  0  0  0  0  0  0
   54.2499    8.1060   21.8972 H   0  0  0  0  0  0  0  0  0  0  0  0
   52.7996    7.9030   20.8715 H   0  0  0  0  0  0  0  0  0  0  0  0
   48.4219    9.3753   17.8294 H   0  0  0  0  0  0  0  0  0  0  0  0
   48.5212    9.1569   16.0650 H   0  0  0  0  0  0  0  0  0  0  0  0
   47.2279    8.3682   16.9654 H   0  0  0  0  0  0  0  0  0  0  0  0
   55.6212    4.4792   19.1447 H   0  0  0  0  0  0  0  0  0  0  0  0
   51.9429    7.3682   20.1762 H   0  0  0  0  0  0  0  0  0  0  0  0
   53.3574    4.5471   16.9609 H   0  0  0  0  0  0  0  0  0  0  0  0
   49.5854    4.4391   18.5927 H   0  0  0  0  0  0  0  0  0  0  0  0
   52.4346    2.8817   18.2847 H   0  0  0  0  0  0  0  0  0  0  0  0
   51.4318    3.8551   20.4951 H   0  0  0  0  0  0  0  0  0  0  0  0
 10  4  1  0
 11  8  2  0
 12 11  1  0
 13  7  1  0
 14  7  2  0
 15 10  2  0
 16 10  1  0
 17 15  1  0
 18 16  2  0
 19 18  1  0
 20 11  1  0
 21 13  1  0
 22 13  1  0
 23 19  1  0
  3  5  2  0
  9 12  2  0
 17 19  2  0
  2  1  1  0
  3  4  1  0
  4  1  2  0
  5  2  1  0
  6  1  1  0
  7  6  1  0
  8  2  1  0
  9  5  1  0
 33 27  1  0
 34 31  2  0
 35 34  1  0
 36 30  1  0
 37 30  2  0
 38 33  2  0
 39 33  1  0
 40 38  1  0
 41 39  2  0
 42 41  1  0
 43 34  1  0
 44 36  1  0
 45 36  1  0
 46 42  1  0
 26 28  2  0
 32 35  2  0
 40 42  2  0
 25 24  1  0
 26 27  1  0
 27 24  2  0
 28 25  1  0
 29 24  1  0
 30 29  1  0
 31 25  1  0
 32 28  1  0
 53 48  2  0
 54 51  1  0
 55 52  1  0
 53 47  1  0
 55 56  1  0
 54 55  1  0
 56 49  1  0
 53 54  1  0
 56 50  2  0
  6 57  1  0
  6 58  1  0
  8 59  1  0
  9 60  1  0
 12 61  1  0
 15 62  1  0
 16 63  1  0
 17 64  1  0
 18 65  1  0
 20 66  1  0
 20 67  1  0
 20 68  1  0
 21 69  1  0
 21 70  1  0
 21 71  1  0
 22 72  1  0
 22 73  1  0
 22 74  1  0
 23 75  1  0
 23 76  1  0
 23 77  1  0
 29 78  1  0
 29 79  1  0
 31 80  1  0
 32 81  1  0
 35 82  1  0
 38 83  1  0
 39 84  1  0
 40 85  1  0
 41 86  1  0
 43 87  1  0
 43 88  1  0
 43 89  1  0
 44 90  1  0
 44 91  1  0
 44 92  1  0
 45 93  1  0
 45 94  1  0
 45 95  1  0
 46 96  1  0
 46 97  1  0
 46 98  1  0
 47 99  1  0
 49100  1  0
 51101  1  0
 52102  1  0
 54103  1  6
 55104  1  6
M  END
> <Uni-Dock RESULT> 
ENERGY=   -5.254  LOWER_BOUND=    3.365  UPPER_BOUND=    6.450
INTER + INTRA:          -5.254
INTER:                  -5.254
INTRA:                   0.000
UNBOUND:                 0.000

$$$$

     RDKit          3D

104107  0  0  0  0  0  0  0  0999 V2000
   48.4729    9.5681   13.6225 C   0  0  0  0  0  0  0  0  0  0  0  0
   48.6598   10.4000   12.5241 N   0  0  0  0  0  0  0  0  0  0  0  0
   50.7061    9.8746   13.2699 N   0  0  0  0  0  0  0  0  0  0  0  0
   49.7567    9.3185   14.0889 C   0  0  0  0  0  0  0  0  0  0  0  0
   50.0355   10.5285   12.3507 C   0  0  0  0  0  0  0  0  0  0  0  0
   47.1262    9.1237   14.0953 C   0  0  0  0  0  0  0  0  0  0  0  0
   46.5235    8.0907   13.1410 C   0  0  0  0  0  0  0  0  0  0  0  0
   47.7327   11.0363   11.6933 C   0  0  0  0  0  0  0  0  0  0  0  0
   50.4911   11.3238   11.2618 C   0  0  0  0  0  0  0  0  0  0  0  0
   50.1348    8.5474   15.2579 C   0  0  0  0  0  0  0  0  0  0  0  0
   48.1605   11.7981   10.6677 C   0  0  0  0  0  0  0  0  0  0  0  0
   49.6004   11.9322   10.4563 C   0  0  0  0  0  0  0  0  0  0  0  0
   46.6566    6.7345   13.4226 N   0  0  0  0  0  0  0  0  0  0  0  0
   45.9146    8.4824   12.1367 O   0  0  0  0  0  0  0  0  0  0  0  0
   49.5750    8.8018   16.5135 C   0  0  0  0  0  0  0  0  0  0  0  0
   51.1098    7.5522   15.1368 C   0  0  0  0  0  0  0  0  0  0  0  0
   49.9588    8.0467   17.6251 C   0  0  0  0  0  0  0  0  0  0  0  0
   51.4954    6.7944   16.2441 C   0  0  0  0  0  0  0  0  0  0  0  0
   50.9124    7.0294   17.4957 C   0  0  0  0  0  0  0  0  0  0  0  0
   47.2379   12.5057    9.7237 C   0  0  0  0  0  0  0  0  0  0  0  0
   47.5834    6.1923   14.4037 C   0  0  0  0  0  0  0  0  0  0  0  0
   46.1793    5.7870   12.4234 C   0  0  0  0  0  0  0  0  0  0  0  0
   51.3649    6.2531   18.6965 C   0  0  0  0  0  0  0  0  0  0  0  0
   47.9994    8.2033   13.7717 C   0  0  0  0  0  0  0  0  0  0  0  0
   47.3428    7.0978   13.2596 N   0  0  0  0  0  0  0  0  0  0  0  0
   48.1588    6.4784   15.2551 N   0  0  0  0  0  0  0  0  0  0  0  0
   48.4844    7.7843   14.9996 C   0  0  0  0  0  0  0  0  0  0  0  0
   47.4733    6.0839   14.2056 C   0  0  0  0  0  0  0  0  0  0  0  0
   48.1266    9.5103   13.0585 C   0  0  0  0  0  0  0  0  0  0  0  0
   49.1427    9.4405   11.9174 C   0  0  0  0  0  0  0  0  0  0  0  0
   46.6521    6.9282   12.0564 C   0  0  0  0  0  0  0  0  0  0  0  0
   46.8745    4.8293   13.9078 C   0  0  0  0  0  0  0  0  0  0  0  0
   49.2602    8.5810   15.9258 C   0  0  0  0  0  0  0  0  0  0  0  0
   46.0817    5.7411   11.7735 C   0  0  0  0  0  0  0  0  0  0  0  0
   46.2094    4.6608   12.7490 C   0  0  0  0  0  0  0  0  0  0  0  0
   49.6674   10.6518   11.4610 N   0  0  0  0  0  0  0  0  0  0  0  0
   49.4459    8.3702   11.3850 O   0  0  0  0  0  0  0  0  0  0  0  0
   48.6690    9.6476   16.6132 C   0  0  0  0  0  0  0  0  0  0  0  0
   50.6045    8.2763   16.1544 C   0  0  0  0  0  0  0  0  0  0  0  0
   49.4213   10.4118   17.5105 C   0  0  0  0  0  0  0  0  0  0  0  0
   51.3593    9.0430   17.0477 C   0  0  0  0  0  0  0  0  0  0  0  0
   50.7705   10.1094   17.7389 C   0  0  0  0  0  0  0  0  0  0  0  0
   45.3424    5.4578   10.5053 C   0  0  0  0  0  0  0  0  0  0  0  0
   50.7604   10.6111   10.5016 C   0  0  0  0  0  0  0  0  0  0  0  0
   49.4416   11.9233   12.1233 C   0  0  0  0  0  0  0  0  0  0  0  0
   51.5865   10.9424   18.6827 C   0  0  0  0  0  0  0  0  0  0  0  0
   46.4114    9.1840   12.8953 O   0  0  0  0  0  0  0  0  0  0  0  0
   48.0914    8.5250   11.5695 O   0  0  0  0  0  0  0  0  0  0  0  0
   49.8450   10.3587   13.4866 O   0  0  0  0  0  0  0  0  0  0  0  0
   50.9895    9.6123   15.2499 O   0  0  0  0  0  0  0  0  0  0  0  0
   47.6508    8.5892   15.1554 O   0  0  0  0  0  0  0  0  0  0  0  0
   50.1878    7.0164   14.8942 O   0  0  0  0  0  0  0  0  0  0  0  0
   47.6114    8.5797   12.6886 C   0  0  0  0  0  0  0  0  0  0  0  0
   48.1708    7.9716   13.9717 C   0  0  1  0  0  0  0  0  0  0  0  0
   49.6983    7.9968   13.9584 C   0  0  1  0  0  0  0  0  0  0  0  0
   50.2351    9.3748   14.3146 C   0  0  0  0  0  0  0  0  0  0  0  0
   46.4396    9.9796   14.1255 H   0  0  0  0  0  0  0  0  0  0  0  0
   47.1427    8.7518   15.1197 H   0  0  0  0  0  0  0  0  0  0  0  0
   46.6805   10.8816   11.9028 H   0  0  0  0  0  0  0  0  0  0  0  0
   51.5581   11.4361   11.1093 H   0  0  0  0  0  0  0  0  0  0  0  0
   49.9440   12.5434    9.6257 H   0  0  0  0  0  0  0  0  0  0  0  0
   48.8542    9.6032   16.6457 H   0  0  0  0  0  0  0  0  0  0  0  0
   51.5898    7.3806   14.1745 H   0  0  0  0  0  0  0  0  0  0  0  0
   49.5278    8.2747   18.5982 H   0  0  0  0  0  0  0  0  0  0  0  0
   52.2663    6.0359   16.1261 H   0  0  0  0  0  0  0  0  0  0  0  0
   47.4185   13.5849    9.7409 H   0  0  0  0  0  0  0  0  0  0  0  0
   47.3876   12.1480    8.7012 H   0  0  0  0  0  0  0  0  0  0  0  0
   46.1867   12.3351    9.9800 H   0  0  0  0  0  0  0  0  0  0  0  0
   47.2471    5.1945   14.7053 H   0  0  0  0  0  0  0  0  0  0  0  0
   47.6320    6.8088   15.2984 H   0  0  0  0  0  0  0  0  0  0  0  0
   48.5736    6.1188   13.9493 H   0  0  0  0  0  0  0  0  0  0  0  0
   47.0289    5.4636   11.8093 H   0  0  0  0  0  0  0  0  0  0  0  0
   45.7417    4.9179   12.9286 H   0  0  0  0  0  0  0  0  0  0  0  0
   45.4113    6.2248   11.7724 H   0  0  0  0  0  0  0  0  0  0  0  0
   51.5953    5.2155   18.4302 H   0  0  0  0  0  0  0  0  0  0  0  0
   52.2585    6.7172   19.1210 H   0  0  0  0  0  0  0  0  0  0  0  0
   50.5872    6.2302   19.4681 H   0  0  0  0  0  0  0  0  0  0  0  0
   48.4361   10.2712   13.7791 H   0  0  0  0  0  0  0  0  0  0  0  0
   47.1628    9.8215   12.6432 H   0  0  0  0  0  0  0  0  0  0  0  0
   46.6224    7.7712   11.3778 H   0  0  0  0  0  0  0  0  0  0  0  0
   46.9705    4.0298   14.6346 H   0  0  0  0  0  0  0  0  0  0  0  0
   45.7580    3.6989   12.5201 H   0  0  0  0  0  0  0  0  0  0  0  0
   47.6174    9.8790   16.4619 H   0  0  0  0  0  0  0  0  0  0  0  0
   51.0683    7.4390   15.6374 H   0  0  0  0  0  0  0  0  0  0  0  0
   48.9438   11.2386   18.0359 H   0  0  0  0  0  0  0  0  0  0  0  0
   52.4039    8.7904   17.2123 H   0  0  0  0  0  0  0  0  0  0  0  0
   45.3308    6.3286    9.8409 H   0  0  0  0  0  0  0  0  0  0  0  0
   45.8092    4.6336    9.9567 H   0  0  0  0  0  0  0  0  0  0  0  0
   44.3028    5.1890   10.7205 H   0  0  0  0  0  0  0  0  0  0  0  0
   50.8062    9.6607    9.9683 H   0  0  0  0  0  0  0  0  0  0  0  0
   51.7001   10.7585   11.0408 H   0  0  0  0  0  0  0  0  0  0  0  0
   50.6240   11.4094    9.7658 H   0  0  0  0  0  0  0  0  0  0  0  0
   48.4102   12.0055   12.4725 H   0  0  0  0  0  0  0  0  0  0  0  0
   49.6285   12.7443   11.4243 H   0  0  0  0  0  0  0  0  0  0  0  0
   50.1257   12.0014   12.9727 H   0  0  0  0  0  0  0  0  0  0  0  0
   52.1076   11.7301   18.1287 H   0  0  0  0  0  0  0  0  0  0  0  0
   50.9563   11.4090   19.4487 H   0  0  0  0  0  0  0  0  0  0  0  0
   52.3241   10.3244   19.2074 H   0  0  0  0  0  0  0  0  0  0  0  0
   46.1693    9.5347   12.0091 H   0  0  0  0  0  0  0  0  0  0  0  0
   50.2777   11.1637   13.8551 H   0  0  0  0  0  0  0  0  0  0  0  0
   46.6894    8.6894   14.9946 H   0  0  0  0  0  0  0  0  0  0  0  0
   50.5735    7.5113   15.6486 H   0  0  0  0  0  0  0  0  0  0  0  0
   47.8236    6.9321   13.9931 H   0  0  0  0  0  0  0  0  0  0  0  0
   50.1058    7.7121   12.9821 H   0  0  0  0  0  0  0  0  0  0  0  0
 10  4  1  0
 11  8  2  0
 12 11  1  0
 13  7  1  0
 14  7  2  0
 15 10  2  0
 16 10  1  0
 17 15  1  0
 18 16  2  0
 19 18  1  0
 20 11  1  0
 21 13  1  0
 22 13  1  0
 23 19  1  0
  3  5  2  0
  9 12  2  0
 17 19  2  0
  2  1  1  0
  3  4  1  0
  4  1  2  0
  5  2  1  0
  6  1  1  0
  7  6  1  0
  8  2  1  0
  9  5  1  0
 33 27  1  0
 34 31  2  0
 35 34  1  0
 36 30  1  0
 37 30  2  0
 38 33  2  0
 39 33  1  0
 40 38  1  0
 41 39  2  0
 42 41  1  0
 43 34  1  0
 44 36  1  0
 45 36  1  0
 46 42  1  0
 26 28  2  0
 32 35  2  0
 40 42  2  0
 25 24  1  0
 26 27  1  0
 27 24  2  0
 28 25  1  0
 29 24  1  0
 30 29  1  0
 31 25  1  0
 32 28  1  0
 53 48  2  0
 54 51  1  0
 55 52  1  0
 53 47  1  0
 55 56  1  0
 54 55  1  0
 56 49  1  0
 53 54  1  0
 56 50  2  0
  6 57  1  0
  6 58  1  0
  8 59  1  0
  9 60  1  0
 12 61  1  0
 15 62  1  0
 16 63  1  0
 17 64  1  0
 18 65  1  0
 20 66  1  0
 20 67  1  0
 20 68  1  0
 21 69  1  0
 21 70  1  0
 21 71  1  0
 22 72  1  0
 22 73  1  0
 22 74  1  0
 23 75  1  0
 23 76  1  0
 23 77  1  0
 29 78  1  0
 29 79  1  0
 31 80  1  0
 32 81  1  0
 35 82  1  0
 38 83  1  0
 39 84  1  0
 40 85  1  0
 41 86  1  0
 43 87  1  0
 43 88  1  0
 43 89  1  0
 44 90  1  0
 44 91  1  0
 44 92  1  0
 45 93  1  0
 45 94  1  0
 45 95  1  0
 46 96  1  0
 46 97  1  0
 46 98  1  0
 47 99  1  0
 49100  1  0
 51101  1  0
 52102  1  0
 54103  1  6
 55104  1  6
M  END
> <Uni-Dock RESULT> 
ENERGY=   -5.245  LOWER_BOUND=    4.029  UPPER_BOUND=    7.034
INTER + INTRA:          -5.245
INTER:                  -5.245
INTRA:                   0.000
UNBOUND:                 0.000

$$$$

     RDKit          3D

104107  0  0  0  0  0  0  0  0999 V2000
   49.2850    9.8203   18.7363 C   0  0  0  0  0  0  0  0  0  0  0  0
   48.7239   10.7242   19.6316 N   0  0  0  0  0  0  0  0  0  0  0  0
   47.6688   11.0357   17.6798 N   0  0  0  0  0  0  0  0  0  0  0  0
   48.6498   10.0886   17.5311 C   0  0  0  0  0  0  0  0  0  0  0  0
   47.7363   11.4152   18.9342 C   0  0  0  0  0  0  0  0  0  0  0  0
   50.3414    8.8345   19.1196 C   0  0  0  0  0  0  0  0  0  0  0  0
   49.7564    7.7087   19.9747 C   0  0  0  0  0  0  0  0  0  0  0  0
   49.0147   10.9772   20.9755 C   0  0  0  0  0  0  0  0  0  0  0  0
   46.9894   12.3951   19.6467 C   0  0  0  0  0  0  0  0  0  0  0  0
   48.9017    9.4668   16.2451 C   0  0  0  0  0  0  0  0  0  0  0  0
   48.3165   11.9112   21.6504 C   0  0  0  0  0  0  0  0  0  0  0  0
   47.2629   12.6359   20.9428 C   0  0  0  0  0  0  0  0  0  0  0  0
   49.3838    6.5107   19.3727 N   0  0  0  0  0  0  0  0  0  0  0  0
   49.6357    7.8803   21.1949 O   0  0  0  0  0  0  0  0  0  0  0  0
   50.1914    9.3889   15.7110 C   0  0  0  0  0  0  0  0  0  0  0  0
   47.8267    8.9676   15.5026 C   0  0  0  0  0  0  0  0  0  0  0  0
   50.4072    8.7876   14.4681 C   0  0  0  0  0  0  0  0  0  0  0  0
   48.0376    8.3648   14.2611 C   0  0  0  0  0  0  0  0  0  0  0  0
   49.3333    8.2601   13.7402 C   0  0  0  0  0  0  0  0  0  0  0  0
   48.5544   12.2381   23.0924 C   0  0  0  0  0  0  0  0  0  0  0  0
   49.2248    6.3337   17.9378 C   0  0  0  0  0  0  0  0  0  0  0  0
   48.7150    5.5169   20.2028 C   0  0  0  0  0  0  0  0  0  0  0  0
   49.5549    7.6619   12.3828 C   0  0  0  0  0  0  0  0  0  0  0  0
   49.2268    8.3748   18.6092 C   0  0  0  0  0  0  0  0  0  0  0  0
   48.9442    7.1327   19.1502 N   0  0  0  0  0  0  0  0  0  0  0  0
   49.5016    6.7752   17.0071 N   0  0  0  0  0  0  0  0  0  0  0  0
   49.5681    8.1134   17.2925 C   0  0  0  0  0  0  0  0  0  0  0  0
   49.1301    6.2027   18.1302 C   0  0  0  0  0  0  0  0  0  0  0  0
   49.1240    9.6621   19.3611 C   0  0  0  0  0  0  0  0  0  0  0  0
   47.6693   10.0873   19.5673 C   0  0  0  0  0  0  0  0  0  0  0  0
   48.5527    6.7726   20.4427 C   0  0  0  0  0  0  0  0  0  0  0  0
   48.8988    4.8348   18.4409 C   0  0  0  0  0  0  0  0  0  0  0  0
   49.9373    9.0967   16.2970 C   0  0  0  0  0  0  0  0  0  0  0  0
   48.3355    5.4768   20.7399 C   0  0  0  0  0  0  0  0  0  0  0  0
   48.5197    4.4834   19.6844 C   0  0  0  0  0  0  0  0  0  0  0  0
   47.4377   11.4337   19.8577 N   0  0  0  0  0  0  0  0  0  0  0  0
   46.7453    9.2712   19.5340 O   0  0  0  0  0  0  0  0  0  0  0  0
   51.1544    9.7817   16.3926 C   0  0  0  0  0  0  0  0  0  0  0  0
   49.0858    9.3548   15.2197 C   0  0  0  0  0  0  0  0  0  0  0  0
   51.5090   10.7277   15.4260 C   0  0  0  0  0  0  0  0  0  0  0  0
   49.4369   10.3044   14.2551 C   0  0  0  0  0  0  0  0  0  0  0  0
   50.6549   10.9899   14.3463 C   0  0  0  0  0  0  0  0  0  0  0  0
   47.8941    4.9974   22.0855 C   0  0  0  0  0  0  0  0  0  0  0  0
   46.0616   11.9052   19.8865 C   0  0  0  0  0  0  0  0  0  0  0  0
   48.4654   12.4563   19.7912 C   0  0  0  0  0  0  0  0  0  0  0  0
   51.0215   12.0217   13.3208 C   0  0  0  0  0  0  0  0  0  0  0  0
   50.0476    8.6737   20.4769 O   0  0  0  0  0  0  0  0  0  0  0  0
   47.8242    8.8461   20.2742 O   0  0  0  0  0  0  0  0  0  0  0  0
   48.5538   11.1101   18.1636 O   0  0  0  0  0  0  0  0  0  0  0  0
   48.6949   10.7862   15.9610 O   0  0  0  0  0  0  0  0  0  0  0  0
   50.5056    8.4949   17.8776 O   0  0  0  0  0  0  0  0  0  0  0  0
   48.0963    8.1182   16.1365 O   0  0  0  0  0  0  0  0  0  0  0  0
   48.9015    8.6279   19.7474 C   0  0  0  0  0  0  0  0  0  0  0  0
   49.1642    8.2212   18.3001 C   0  0  1  0  0  0  0  0  0  0  0  0
   48.1451    8.8701   17.3649 C   0  0  1  0  0  0  0  0  0  0  0  0
   48.4990   10.3212   17.0771 C   0  0  0  0  0  0  0  0  0  0  0  0
   51.1157    9.3307   19.7188 H   0  0  0  0  0  0  0  0  0  0  0  0
   50.8773    8.4373   18.2577 H   0  0  0  0  0  0  0  0  0  0  0  0
   49.8012   10.3924   21.4384 H   0  0  0  0  0  0  0  0  0  0  0  0
   46.2159   12.9437   19.1223 H   0  0  0  0  0  0  0  0  0  0  0  0
   46.6975   13.3860   21.4898 H   0  0  0  0  0  0  0  0  0  0  0  0
   51.0370    9.8150   16.2429 H   0  0  0  0  0  0  0  0  0  0  0  0
   46.8124    9.0693   15.8854 H   0  0  0  0  0  0  0  0  0  0  0  0
   51.4154    8.7565   14.0594 H   0  0  0  0  0  0  0  0  0  0  0  0
   47.1828    7.9974   13.6972 H   0  0  0  0  0  0  0  0  0  0  0  0
   48.8188   13.2932   23.2124 H   0  0  0  0  0  0  0  0  0  0  0  0
   47.6562   12.0392   23.6836 H   0  0  0  0  0  0  0  0  0  0  0  0
   49.3656   11.6363   23.5161 H   0  0  0  0  0  0  0  0  0  0  0  0
   49.3026    5.2686   17.6946 H   0  0  0  0  0  0  0  0  0  0  0  0
   49.9960    6.8575   17.3777 H   0  0  0  0  0  0  0  0  0  0  0  0
   48.2392    6.7011   17.6450 H   0  0  0  0  0  0  0  0  0  0  0  0
   47.6313    5.6094   20.0604 H   0  0  0  0  0  0  0  0  0  0  0  0
   49.0392    4.5145   19.8994 H   0  0  0  0  0  0  0  0  0  0  0  0
   48.9495    5.6427   21.2680 H   0  0  0  0  0  0  0  0  0  0  0  0
   48.8662    6.8288   12.2030 H   0  0  0  0  0  0  0  0  0  0  0  0
   49.3994    8.4228   11.6141 H   0  0  0  0  0  0  0  0  0  0  0  0
   50.5747    7.2735   12.2839 H   0  0  0  0  0  0  0  0  0  0  0  0
   49.6563   10.4352   18.8017 H   0  0  0  0  0  0  0  0  0  0  0  0
   49.6009    9.5775   20.3428 H   0  0  0  0  0  0  0  0  0  0  0  0
   48.4168    7.5711   21.1609 H   0  0  0  0  0  0  0  0  0  0  0  0
   49.0373    4.0998   17.6550 H   0  0  0  0  0  0  0  0  0  0  0  0
   48.3368    3.4377   19.9181 H   0  0  0  0  0  0  0  0  0  0  0  0
   51.8363    9.5717   17.2131 H   0  0  0  0  0  0  0  0  0  0  0  0
   48.1455    8.8156   15.1279 H   0  0  0  0  0  0  0  0  0  0  0  0
   52.4604   11.2513   15.5177 H   0  0  0  0  0  0  0  0  0  0  0  0
   48.7612   10.4914   13.4241 H   0  0  0  0  0  0  0  0  0  0  0  0
   47.7651    5.8278   22.7882 H   0  0  0  0  0  0  0  0  0  0  0  0
   46.9355    4.4733   22.0184 H   0  0  0  0  0  0  0  0  0  0  0  0
   48.6365    4.3137   22.5103 H   0  0  0  0  0  0  0  0  0  0  0  0
   45.3502   11.0931   20.0413 H   0  0  0  0  0  0  0  0  0  0  0  0
   45.8414   12.3895   18.9313 H   0  0  0  0  0  0  0  0  0  0  0  0
   45.9436   12.6231   20.7039 H   0  0  0  0  0  0  0  0  0  0  0  0
   49.4123   12.0867   20.1904 H   0  0  0  0  0  0  0  0  0  0  0  0
   48.1639   13.3248   20.3849 H   0  0  0  0  0  0  0  0  0  0  0  0
   48.5963   12.7529   18.7470 H   0  0  0  0  0  0  0  0  0  0  0  0
   50.5812   12.9873   13.5904 H   0  0  0  0  0  0  0  0  0  0  0  0
   52.1087   12.1396   13.2455 H   0  0  0  0  0  0  0  0  0  0  0  0
   50.6616   11.7274   12.3282 H   0  0  0  0  0  0  0  0  0  0  0  0
   49.7460    8.9505   21.3710 H   0  0  0  0  0  0  0  0  0  0  0  0
   48.7869   11.9963   17.8012 H   0  0  0  0  0  0  0  0  0  0  0  0
   51.0756    8.2029   18.6194 H   0  0  0  0  0  0  0  0  0  0  0  0
   48.5080    8.6782   15.4439 H   0  0  0  0  0  0  0  0  0  0  0  0
   49.0500    7.1317   18.2639 H   0  0  0  0  0  0  0  0  0  0  0  0
   47.1307    8.8401   17.7776 H   0  0  0  0  0  0  0  0  0  0  0  0
 10  4  1  0
 11  8  2  0
 12 11  1  0
 13  7  1  0
 14  7  2  0
 15 10  2  0
 16 10  1  0
 17 15  1  0
 18 16  2  0
 19 18  1  0
 20 11  1  0
 21 13  1  0
 22 13  1  0
 23 19  1  0
  3  5  2  0
  9 12  2  0
 17 19  2  0
  2  1  1  0
  3  4  1  0
  4  1  2  0
  5  2  1  0
  6  1  1  0
  7  6  1  0
  8  2  1  0
  9  5  1  0
 33 27  1  0
 34 31  2  0
 35 34  1  0
 36 30  1  0
 37 30  2  0
 38 33  2  0
 39 33  1  0
 40 38  1  0
 41 39  2  0
 42 41  1  0
 43 34  1  0
 44 36  1  0
 45 36  1  0
 46 42  1  0
 26 28  2  0
 32 35  2  0
 40 42  2  0
 25 24  1  0
 26 27  1  0
 27 24  2  0
 28 25  1  0
 29 24  1  0
 30 29  1  0
 31 25  1  0
 32 28  1  0
 53 48  2  0
 54 51  1  0
 55 52  1  0
 53 47  1  0
 55 56  1  0
 54 55  1  0
 56 49  1  0
 53 54  1  0
 56 50  2  0
  6 57  1  0
  6 58  1  0
  8 59  1  0
  9 60  1  0
 12 61  1  0
 15 62  1  0
 16 63  1  0
 17 64  1  0
 18 65  1  0
 20 66  1  0
 20 67  1  0
 20 68  1  0
 21 69  1  0
 21 70  1  0
 21 71  1  0
 22 72  1  0
 22 73  1  0
 22 74  1  0
 23 75  1  0
 23 76  1  0
 23 77  1  0
 29 78  1  0
 29 79  1  0
 31 80  1  0
 32 81  1  0
 35 82  1  0
 38 83  1  0
 39 84  1  0
 40 85  1  0
 41 86  1  0
 43 87  1  0
 43 88  1  0
 43 89  1  0
 44 90  1  0
 44 91  1  0
 44 92  1  0
 45 93  1  0
 45 94  1  0
 45 95  1  0
 46 96  1  0
 46 97  1  0
 46 98  1  0
 47 99  1  0
 49100  1  0
 51101  1  0
 52102  1  0
 54103  1  6
 55104  1  6
M  END
> <Uni-Dock RESULT> 
ENERGY=   -5.159  LOWER_BOUND=    1.931  UPPER_BOUND=    6.236
INTER + INTRA:          -5.159
INTER:                  -5.159
INTRA:                   0.000
UNBOUND:                 0.000

$$$$

     RDKit          3D

104107  0  0  0  0  0  0  0  0999 V2000
   49.7034    7.9378   16.0258 C   0  0  0  0  0  0  0  0  0  0  0  0
   49.9666    6.9150   16.9303 N   0  0  0  0  0  0  0  0  0  0  0  0
   51.9302    7.4422   15.9891 N   0  0  0  0  0  0  0  0  0  0  0  0
   50.9289    8.1897   15.4234 C   0  0  0  0  0  0  0  0  0  0  0  0
   51.3374    6.6767   16.8750 C   0  0  0  0  0  0  0  0  0  0  0  0
   48.3472    8.5377   15.8375 C   0  0  0  0  0  0  0  0  0  0  0  0
   47.9674    9.4191   17.0290 C   0  0  0  0  0  0  0  0  0  0  0  0
   49.1101    6.1975   17.7707 C   0  0  0  0  0  0  0  0  0  0  0  0
   51.8677    5.6757   17.7367 C   0  0  0  0  0  0  0  0  0  0  0  0
   51.2089    9.1318   14.3566 C   0  0  0  0  0  0  0  0  0  0  0  0
   49.6072    5.2423   18.5804 C   0  0  0  0  0  0  0  0  0  0  0  0
   51.0461    4.9880   18.5519 C   0  0  0  0  0  0  0  0  0  0  0  0
   48.1744   10.7935   16.9611 N   0  0  0  0  0  0  0  0  0  0  0  0
   47.4691    8.8925   18.0326 O   0  0  0  0  0  0  0  0  0  0  0  0
   50.4654    9.1373   13.1726 C   0  0  0  0  0  0  0  0  0  0  0  0
   52.2712   10.0305   14.4970 C   0  0  0  0  0  0  0  0  0  0  0  0
   50.7575   10.0533   12.1583 C   0  0  0  0  0  0  0  0  0  0  0  0
   52.5658   10.9482   13.4870 C   0  0  0  0  0  0  0  0  0  0  0  0
   51.8017   10.9734   12.3136 C   0  0  0  0  0  0  0  0  0  0  0  0
   48.7645    4.4345   19.5187 C   0  0  0  0  0  0  0  0  0  0  0  0
   49.0024   11.4452   15.9585 C   0  0  0  0  0  0  0  0  0  0  0  0
   47.9174   11.5757   18.1637 C   0  0  0  0  0  0  0  0  0  0  0  0
   52.1513   11.9219   11.2057 C   0  0  0  0  0  0  0  0  0  0  0  0
   49.3300    9.3329   16.1777 C   0  0  0  0  0  0  0  0  0  0  0  0
   48.8435   10.3671   16.9583 N   0  0  0  0  0  0  0  0  0  0  0  0
   49.4316   11.2807   14.9959 N   0  0  0  0  0  0  0  0  0  0  0  0
   49.6782    9.9333   14.9791 C   0  0  0  0  0  0  0  0  0  0  0  0
   48.9295   11.5230   16.1859 C   0  0  0  0  0  0  0  0  0  0  0  0
   49.4425    7.9152   16.6363 C   0  0  0  0  0  0  0  0  0  0  0  0
   50.6056    7.7216   17.6106 C   0  0  0  0  0  0  0  0  0  0  0  0
   48.3382   10.3616   18.2614 C   0  0  0  0  0  0  0  0  0  0  0  0
   48.4835   12.7382   16.7739 C   0  0  0  0  0  0  0  0  0  0  0  0
   50.2524    9.2688   13.8289 C   0  0  0  0  0  0  0  0  0  0  0  0
   47.9126   11.5114   18.8193 C   0  0  0  0  0  0  0  0  0  0  0  0
   47.9975   12.7379   18.0297 C   0  0  0  0  0  0  0  0  0  0  0  0
   51.0838    6.4198   17.7760 N   0  0  0  0  0  0  0  0  0  0  0  0
   51.0664    8.6609   18.2634 O   0  0  0  0  0  0  0  0  0  0  0  0
   49.4867    8.3776   13.0679 C   0  0  0  0  0  0  0  0  0  0  0  0
   51.5743    9.5292   13.4586 C   0  0  0  0  0  0  0  0  0  0  0  0
   50.0443    7.7412   11.9548 C   0  0  0  0  0  0  0  0  0  0  0  0
   52.1348    8.8895   12.3486 C   0  0  0  0  0  0  0  0  0  0  0  0
   51.3708    7.9991   11.5836 C   0  0  0  0  0  0  0  0  0  0  0  0
   47.3776   11.6090   20.2120 C   0  0  0  0  0  0  0  0  0  0  0  0
   52.2959    6.2254   18.5570 C   0  0  0  0  0  0  0  0  0  0  0  0
   50.6650    5.3012   16.9516 C   0  0  0  0  0  0  0  0  0  0  0  0
   51.9794    7.2996   10.4042 C   0  0  0  0  0  0  0  0  0  0  0  0
   47.7984    8.3082   17.1027 O   0  0  0  0  0  0  0  0  0  0  0  0
   49.6912    8.6216   18.2575 O   0  0  0  0  0  0  0  0  0  0  0  0
   51.0102    7.0559   15.8240 O   0  0  0  0  0  0  0  0  0  0  0  0
   51.9647    8.0338   14.0607 O   0  0  0  0  0  0  0  0  0  0  0  0
   48.7668    9.2194   14.8158 O   0  0  0  0  0  0  0  0  0  0  0  0
   51.4386   10.5684   14.9588 O   0  0  0  0  0  0  0  0  0  0  0  0
   49.0617    8.7943   17.2281 C   0  0  0  0  0  0  0  0  0  0  0  0
   49.4916    9.5859   15.9962 C   0  0  1  0  0  0  0  0  0  0  0  0
   50.9995    9.4685   15.7797 C   0  0  1  0  0  0  0  0  0  0  0  0
   51.3660    8.1460   15.1234 C   0  0  0  0  0  0  0  0  0  0  0  0
   47.5936    7.7428   15.7665 H   0  0  0  0  0  0  0  0  0  0  0  0
   48.2564    9.0834   14.8984 H   0  0  0  0  0  0  0  0  0  0  0  0
   48.0559    6.4488   17.7474 H   0  0  0  0  0  0  0  0  0  0  0  0
   52.9323    5.4753   17.7093 H   0  0  0  0  0  0  0  0  0  0  0  0
   51.4463    4.2201   19.2089 H   0  0  0  0  0  0  0  0  0  0  0  0
   49.6688    8.4160   13.0163 H   0  0  0  0  0  0  0  0  0  0  0  0
   52.8894   10.0004   15.3929 H   0  0  0  0  0  0  0  0  0  0  0  0
   50.1816   10.0271   11.2352 H   0  0  0  0  0  0  0  0  0  0  0  0
   53.4064   11.6270   13.6149 H   0  0  0  0  0  0  0  0  0  0  0  0
   48.8501    3.3666   19.2953 H   0  0  0  0  0  0  0  0  0  0  0  0
   49.0803    4.5960   20.5531 H   0  0  0  0  0  0  0  0  0  0  0  0
   47.7063    4.7096   19.4523 H   0  0  0  0  0  0  0  0  0  0  0  0
   48.7132   12.4987   15.8805 H   0  0  0  0  0  0  0  0  0  0  0  0
   48.8780   10.9950   14.9762 H   0  0  0  0  0  0  0  0  0  0  0  0
   50.0475   11.3783   16.2677 H   0  0  0  0  0  0  0  0  0  0  0  0
   48.8661   11.7344   18.6910 H   0  0  0  0  0  0  0  0  0  0  0  0
   47.4899   12.5448   17.8807 H   0  0  0  0  0  0  0  0  0  0  0  0
   47.2103   11.0757   18.8386 H   0  0  0  0  0  0  0  0  0  0  0  0
   52.5016   12.8806   11.6045 H   0  0  0  0  0  0  0  0  0  0  0  0
   52.9374   11.4883   10.5827 H   0  0  0  0  0  0  0  0  0  0  0  0
   51.2812   12.1270   10.5720 H   0  0  0  0  0  0  0  0  0  0  0  0
   49.5871    7.2769   15.7612 H   0  0  0  0  0  0  0  0  0  0  0  0
   48.5209    7.5928   17.1313 H   0  0  0  0  0  0  0  0  0  0  0  0
   48.3298    9.4151   18.7867 H   0  0  0  0  0  0  0  0  0  0  0  0
   48.5472   13.6468   16.1845 H   0  0  0  0  0  0  0  0  0  0  0  0
   47.6632   13.6691   18.4799 H   0  0  0  0  0  0  0  0  0  0  0  0
   48.4495    8.1856   13.3319 H   0  0  0  0  0  0  0  0  0  0  0  0
   52.1721   10.2328   14.0339 H   0  0  0  0  0  0  0  0  0  0  0  0
   49.4327    7.0502   11.3750 H   0  0  0  0  0  0  0  0  0  0  0  0
   53.1650    9.1050   12.0762 H   0  0  0  0  0  0  0  0  0  0  0  0
   47.3829   10.6365   20.7162 H   0  0  0  0  0  0  0  0  0  0  0  0
   47.9815   12.2940   20.8154 H   0  0  0  0  0  0  0  0  0  0  0  0
   46.3447   11.9726   20.2003 H   0  0  0  0  0  0  0  0  0  0  0  0
   52.4927    7.0619   19.2287 H   0  0  0  0  0  0  0  0  0  0  0  0
   53.1385    6.1204   17.8683 H   0  0  0  0  0  0  0  0  0  0  0  0
   52.1937    5.3188   19.1613 H   0  0  0  0  0  0  0  0  0  0  0  0
   49.5927    5.3433   16.7495 H   0  0  0  0  0  0  0  0  0  0  0  0
   50.8752    4.3599   17.4685 H   0  0  0  0  0  0  0  0  0  0  0  0
   51.2192    5.3345   16.0096 H   0  0  0  0  0  0  0  0  0  0  0  0
   52.5026    6.3968   10.7361 H   0  0  0  0  0  0  0  0  0  0  0  0
   51.2147    7.0140    9.6725 H   0  0  0  0  0  0  0  0  0  0  0  0
   52.6885    7.9560    9.8870 H   0  0  0  0  0  0  0  0  0  0  0  0
   47.6497    7.8210   17.9439 H   0  0  0  0  0  0  0  0  0  0  0  0
   51.3204    6.3047   15.2667 H   0  0  0  0  0  0  0  0  0  0  0  0
   47.8309    9.1494   15.0976 H   0  0  0  0  0  0  0  0  0  0  0  0
   51.6760   10.1930   14.0839 H   0  0  0  0  0  0  0  0  0  0  0  0
   49.2330   10.6314   16.1999 H   0  0  0  0  0  0  0  0  0  0  0  0
   51.5574    9.5512   16.7189 H   0  0  0  0  0  0  0  0  0  0  0  0
 10  4  1  0
 11  8  2  0
 12 11  1  0
 13  7  1  0
 14  7  2  0
 15 10  2  0
 16 10  1  0
 17 15  1  0
 18 16  2  0
 19 18  1  0
 20 11  1  0
 21 13  1  0
 22 13  1  0
 23 19  1  0
  3  5  2  0
  9 12  2  0
 17 19  2  0
  2  1  1  0
  3  4  1  0
  4  1  2  0
  5  2  1  0
  6  1  1  0
  7  6  1  0
  8  2  1  0
  9  5  1  0
 33 27  1  0
 34 31  2  0
 35 34  1  0
 36 30  1  0
 37 30  2  0
 38 33  2  0
 39 33  1  0
 40 38  1  0
 41 39  2  0
 42 41  1  0
 43 34  1  0
 44 36  1  0
 45 36  1  0
 46 42  1  0
 26 28  2  0
 32 35  2  0
 40 42  2  0
 25 24  1  0
 26 27  1  0
 27 24  2  0
 28 25  1  0
 29 24  1  0
 30 29  1  0
 31 25  1  0
 32 28  1  0
 53 48  2  0
 54 51  1  0
 55 52  1  0
 53 47  1  0
 55 56  1  0
 54 55  1  0
 56 49  1  0
 53 54  1  0
 56 50  2  0
  6 57  1  0
  6 58  1  0
  8 59  1  0
  9 60  1  0
 12 61  1  0
 15 62  1  0
 16 63  1  0
 17 64  1  0
 18 65  1  0
 20 66  1  0
 20 67  1  0
 20 68  1  0
 21 69  1  0
 21 70  1  0
 21 71  1  0
 22 72  1  0
 22 73  1  0
 22 74  1  0
 23 75  1  0
 23 76  1  0
 23 77  1  0
 29 78  1  0
 29 79  1  0
 31 80  1  0
 32 81  1  0
 35 82  1  0
 38 83  1  0
 39 84  1  0
 40 85  1  0
 41 86  1  0
 43 87  1  0
 43 88  1  0
 43 89  1  0
 44 90  1  0
 44 91  1  0
 44 92  1  0
 45 93  1  0
 45 94  1  0
 45 95  1  0
 46 96  1  0
 46 97  1  0
 46 98  1  0
 47 99  1  0
 49100  1  0
 51101  1  0
 52102  1  0
 54103  1  6
 55104  1  6
M  END
> <Uni-Dock RESULT> 
ENERGY=   -4.970  LOWER_BOUND=    2.218  UPPER_BOUND=    6.051
INTER + INTRA:          -4.970
INTER:                  -4.970
INTRA:                   0.000
UNBOUND:                 0.000

$$$$

     RDKit          3D

104107  0  0  0  0  0  0  0  0999 V2000
   49.7313    8.8703   16.5714 C   0  0  0  0  0  0  0  0  0  0  0  0
   50.5863    7.8084   16.8448 N   0  0  0  0  0  0  0  0  0  0  0  0
   51.8945    9.5473   16.3113 N   0  0  0  0  0  0  0  0  0  0  0  0
   50.5758    9.9033   16.1868 C   0  0  0  0  0  0  0  0  0  0  0  0
   51.8834    8.2908   16.6899 C   0  0  0  0  0  0  0  0  0  0  0  0
   48.2445    8.7796   16.6966 C   0  0  0  0  0  0  0  0  0  0  0  0
   47.8192    8.7439   18.1659 C   0  0  0  0  0  0  0  0  0  0  0  0
   50.3121    6.4859   17.2057 C   0  0  0  0  0  0  0  0  0  0  0  0
   52.9561    7.3893   16.9395 C   0  0  0  0  0  0  0  0  0  0  0  0
   50.1972   11.2295   15.7373 C   0  0  0  0  0  0  0  0  0  0  0  0
   51.3250    5.6270   17.4330 C   0  0  0  0  0  0  0  0  0  0  0  0
   52.6948    6.1170   17.2938 C   0  0  0  0  0  0  0  0  0  0  0  0
   47.4263    9.9203   18.7968 N   0  0  0  0  0  0  0  0  0  0  0  0
   47.8209    7.6614   18.7667 O   0  0  0  0  0  0  0  0  0  0  0  0
   49.2690   11.4151   14.7085 C   0  0  0  0  0  0  0  0  0  0  0  0
   50.8021   12.3488   16.3180 C   0  0  0  0  0  0  0  0  0  0  0  0
   48.9237   12.7035   14.2914 C   0  0  0  0  0  0  0  0  0  0  0  0
   50.4593   13.6378   15.9055 C   0  0  0  0  0  0  0  0  0  0  0  0
   49.5071   13.8241   14.8956 C   0  0  0  0  0  0  0  0  0  0  0  0
   51.1219    4.1983   17.8335 C   0  0  0  0  0  0  0  0  0  0  0  0
   47.6655   11.2517   18.2623 C   0  0  0  0  0  0  0  0  0  0  0  0
   47.1527    9.8610   20.2271 C   0  0  0  0  0  0  0  0  0  0  0  0
   49.1782   15.2059   14.4143 C   0  0  0  0  0  0  0  0  0  0  0  0
   48.8665    9.6937   17.3979 C   0  0  0  0  0  0  0  0  0  0  0  0
   48.1914    9.9082   18.5869 N   0  0  0  0  0  0  0  0  0  0  0  0
   47.8939   11.7560   17.3505 N   0  0  0  0  0  0  0  0  0  0  0  0
   48.6578   10.8496   16.6638 C   0  0  0  0  0  0  0  0  0  0  0  0
   47.6208   11.1756   18.4975 C   0  0  0  0  0  0  0  0  0  0  0  0
   49.6482    8.4589   17.0862 C   0  0  0  0  0  0  0  0  0  0  0  0
   50.9768    8.4190   17.8431 C   0  0  0  0  0  0  0  0  0  0  0  0
   48.0422    9.0867   19.7077 C   0  0  0  0  0  0  0  0  0  0  0  0
   46.8640   11.6332   19.6107 C   0  0  0  0  0  0  0  0  0  0  0  0
   49.1758   11.1233   15.3405 C   0  0  0  0  0  0  0  0  0  0  0  0
   47.3234    9.5172   20.7625 C   0  0  0  0  0  0  0  0  0  0  0  0
   46.7191   10.8457   20.6935 C   0  0  0  0  0  0  0  0  0  0  0  0
   51.9682    7.5742   17.3391 N   0  0  0  0  0  0  0  0  0  0  0  0
   51.1492    9.0600   18.8825 O   0  0  0  0  0  0  0  0  0  0  0  0
   48.6895   10.4250   14.2290 C   0  0  0  0  0  0  0  0  0  0  0  0
   50.1547   12.1042   15.1620 C   0  0  0  0  0  0  0  0  0  0  0  0
   49.1899   10.6960   12.9517 C   0  0  0  0  0  0  0  0  0  0  0  0
   50.6597   12.3726   13.8858 C   0  0  0  0  0  0  0  0  0  0  0  0
   50.1737   11.6775   12.7712 C   0  0  0  0  0  0  0  0  0  0  0  0
   47.1262    8.7205   22.0122 C   0  0  0  0  0  0  0  0  0  0  0  0
   53.2966    7.6427   17.9286 C   0  0  0  0  0  0  0  0  0  0  0  0
   51.8671    6.8925   16.0618 C   0  0  0  0  0  0  0  0  0  0  0  0
   50.7298   11.9535   11.4055 C   0  0  0  0  0  0  0  0  0  0  0  0
   48.1396    7.7838   17.6722 O   0  0  0  0  0  0  0  0  0  0  0  0
   49.9477    8.3910   18.8455 O   0  0  0  0  0  0  0  0  0  0  0  0
   51.2010    8.8967   15.9669 O   0  0  0  0  0  0  0  0  0  0  0  0
   51.2465   10.8757   14.9383 O   0  0  0  0  0  0  0  0  0  0  0  0
   48.1058    9.9520   16.1571 O   0  0  0  0  0  0  0  0  0  0  0  0
   49.9510   12.1650   16.9796 O   0  0  0  0  0  0  0  0  0  0  0  0
   49.0871    8.6885   18.0352 C   0  0  0  0  0  0  0  0  0  0  0  0
   48.8651   10.0433   17.3687 C   0  0  1  0  0  0  0  0  0  0  0  0
   50.1975   10.7538   17.1359 C   0  0  1  0  0  0  0  0  0  0  0  0
   50.9122   10.2078   15.9092 C   0  0  0  0  0  0  0  0  0  0  0  0
   47.8861    7.8527   16.2306 H   0  0  0  0  0  0  0  0  0  0  0  0
   47.7286    9.5731   16.1560 H   0  0  0  0  0  0  0  0  0  0  0  0
   49.2719    6.1964   17.3020 H   0  0  0  0  0  0  0  0  0  0  0  0
   53.9732    7.7452   16.8250 H   0  0  0  0  0  0  0  0  0  0  0  0
   53.5109    5.4241   17.4818 H   0  0  0  0  0  0  0  0  0  0  0  0
   48.8232   10.5624   14.2051 H   0  0  0  0  0  0  0  0  0  0  0  0
   51.5643   12.2144   17.0840 H   0  0  0  0  0  0  0  0  0  0  0  0
   48.2157   12.8267   13.4740 H   0  0  0  0  0  0  0  0  0  0  0  0
   50.9549   14.4912   16.3634 H   0  0  0  0  0  0  0  0  0  0  0  0
   51.5826    3.5225   17.1065 H   0  0  0  0  0  0  0  0  0  0  0  0
   51.5699    4.0074   18.8127 H   0  0  0  0  0  0  0  0  0  0  0  0
   50.0588    3.9442   17.9044 H   0  0  0  0  0  0  0  0  0  0  0  0
   46.9623   11.9561   18.7195 H   0  0  0  0  0  0  0  0  0  0  0  0
   47.5163   11.2882   17.1856 H   0  0  0  0  0  0  0  0  0  0  0  0
   48.6871   11.5503   18.5058 H   0  0  0  0  0  0  0  0  0  0  0  0
   48.0466   10.1896   20.7714 H   0  0  0  0  0  0  0  0  0  0  0  0
   46.3151   10.5280   20.4633 H   0  0  0  0  0  0  0  0  0  0  0  0
   46.8843    8.8482   20.5548 H   0  0  0  0  0  0  0  0  0  0  0  0
   49.1875   15.9235   15.2424 H   0  0  0  0  0  0  0  0  0  0  0  0
   49.9090   15.5196   13.6649 H   0  0  0  0  0  0  0  0  0  0  0  0
   48.1813   15.2393   13.9606 H   0  0  0  0  0  0  0  0  0  0  0  0
   49.8380    8.4295   16.0106 H   0  0  0  0  0  0  0  0  0  0  0  0
   49.0768    7.5618   17.3453 H   0  0  0  0  0  0  0  0  0  0  0  0
   48.5400    8.1255   19.6887 H   0  0  0  0  0  0  0  0  0  0  0  0
   46.4161   12.6197   19.5557 H   0  0  0  0  0  0  0  0  0  0  0  0
   46.1457   11.2000   21.5462 H   0  0  0  0  0  0  0  0  0  0  0  0
   47.9103    9.6767   14.3522 H   0  0  0  0  0  0  0  0  0  0  0  0
   50.5269   12.6637   16.0175 H   0  0  0  0  0  0  0  0  0  0  0  0
   48.7993   10.1416   12.0986 H   0  0  0  0  0  0  0  0  0  0  0  0
   51.4211   13.1394   13.7670 H   0  0  0  0  0  0  0  0  0  0  0  0
   47.6418    7.7554   21.9620 H   0  0  0  0  0  0  0  0  0  0  0  0
   47.5177    9.2561   22.8827 H   0  0  0  0  0  0  0  0  0  0  0  0
   46.0617    8.5215   22.1749 H   0  0  0  0  0  0  0  0  0  0  0  0
   53.2818    8.0736   18.9305 H   0  0  0  0  0  0  0  0  0  0  0  0
   53.9285    8.2631   17.2873 H   0  0  0  0  0  0  0  0  0  0  0  0
   53.7130    6.6331   17.9971 H   0  0  0  0  0  0  0  0  0  0  0  0
   50.8557    6.5145   15.8984 H   0  0  0  0  0  0  0  0  0  0  0  0
   52.5542    6.0410   16.0401 H   0  0  0  0  0  0  0  0  0  0  0  0
   52.1301    7.5969   15.2679 H   0  0  0  0  0  0  0  0  0  0  0  0
   51.6360   11.3602   11.2456 H   0  0  0  0  0  0  0  0  0  0  0  0
   50.0041   11.7052   10.6224 H   0  0  0  0  0  0  0  0  0  0  0  0
   50.9719   13.0165   11.2926 H   0  0  0  0  0  0  0  0  0  0  0  0
   48.3975    6.9670   18.1553 H   0  0  0  0  0  0  0  0  0  0  0  0
   51.6554    8.7165   15.1112 H   0  0  0  0  0  0  0  0  0  0  0  0
   47.3705    9.3361   16.3577 H   0  0  0  0  0  0  0  0  0  0  0  0
   50.1157   12.3795   16.0364 H   0  0  0  0  0  0  0  0  0  0  0  0
   48.2561   10.6301   18.0661 H   0  0  0  0  0  0  0  0  0  0  0  0
   50.8701   10.6582   17.9953 H   0  0  0  0  0  0  0  0  0  0  0  0
 10  4  1  0
 11  8  2  0
 12 11  1  0
 13  7  1  0
 14  7  2  0
 15 10  2  0
 16 10  1  0
 17 15  1  0
 18 16  2  0
 19 18  1  0
 20 11  1  0
 21 13  1  0
 22 13  1  0
 23 19  1  0
  3  5  2  0
  9 12  2  0
 17 19  2  0
  2  1  1  0
  3  4  1  0
  4  1  2  0
  5  2  1  0
  6  1  1  0
  7  6  1  0
  8  2  1  0
  9  5  1  0
 33 27  1  0
 34 31  2  0
 35 34  1  0
 36 30  1  0
 37 30  2  0
 38 33  2  0
 39 33  1  0
 40 38  1  0
 41 39  2  0
 42 41  1  0
 43 34  1  0
 44 36  1  0
 45 36  1  0
 46 42  1  0
 26 28  2  0
 32 35  2  0
 40 42  2  0
 25 24  1  0
 26 27  1  0
 27 24  2  0
 28 25  1  0
 29 24  1  0
 30 29  1  0
 31 25  1  0
 32 28  1  0
 53 48  2  0
 54 51  1  0
 55 52  1  0
 53 47  1  0
 55 56  1  0
 54 55  1  0
 56 49  1  0
 53 54  1  0
 56 50  2  0
  6 57  1  0
  6 58  1  0
  8 59  1  0
  9 60  1  0
 12 61  1  0
 15 62  1  0
 16 63  1  0
 17 64  1  0
 18 65  1  0
 20 66  1  0
 20 67  1  0
 20 68  1  0
 21 69  1  0
 21 70  1  0
 21 71  1  0
 22 72  1  0
 22 73  1  0
 22 74  1  0
 23 75  1  0
 23 76  1  0
 23 77  1  0
 29 78  1  0
 29 79  1  0
 31 80  1  0
 32 81  1  0
 35 82  1  0
 38 83  1  0
 39 84  1  0
 40 85  1  0
 41 86  1  0
 43 87  1  0
 43 88  1  0
 43 89  1  0
 44 90  1  0
 44 91  1  0
 44 92  1  0
 45 93  1  0
 45 94  1  0
 45 95  1  0
 46 96  1  0
 46 97  1  0
 46 98  1  0
 47 99  1  0
 49100  1  0
 51101  1  0
 52102  1  0
 54103  1  6
 55104  1  6
M  END
> <Uni-Dock RESULT> 
ENERGY=   -4.907  LOWER_BOUND=    2.293  UPPER_BOUND=    5.820
INTER + INTRA:          -4.907
INTER:                  -4.907
INTRA:                   0.000
UNBOUND:                 0.000

$$$$

     RDKit          3D

104107  0  0  0  0  0  0  0  0999 V2000
   49.3460    8.1962   17.7012 C   0  0  0  0  0  0  0  0  0  0  0  0
   50.3182    8.5244   16.7628 N   0  0  0  0  0  0  0  0  0  0  0  0
   51.0289    9.3519   18.7198 N   0  0  0  0  0  0  0  0  0  0  0  0
   49.7933    8.7784   18.8797 C   0  0  0  0  0  0  0  0  0  0  0  0
   51.3208    9.2052   17.4487 C   0  0  0  0  0  0  0  0  0  0  0  0
   48.1286    7.3925   17.3744 C   0  0  0  0  0  0  0  0  0  0  0  0
   48.4865    5.9221   17.1496 C   0  0  0  0  0  0  0  0  0  0  0  0
   50.3795    8.2775   15.3881 C   0  0  0  0  0  0  0  0  0  0  0  0
   52.4549    9.6340   16.7034 C   0  0  0  0  0  0  0  0  0  0  0  0
   49.1228    8.7905   20.1660 C   0  0  0  0  0  0  0  0  0  0  0  0
   51.4470    8.6908   14.6775 C   0  0  0  0  0  0  0  0  0  0  0  0
   52.5196    9.3915   15.3807 C   0  0  0  0  0  0  0  0  0  0  0  0
   48.3487    5.0133   18.1945 N   0  0  0  0  0  0  0  0  0  0  0  0
   48.8827    5.5631   16.0329 O   0  0  0  0  0  0  0  0  0  0  0  0
   47.7960    9.2120   20.2946 C   0  0  0  0  0  0  0  0  0  0  0  0
   49.8295    8.4093   21.3111 C   0  0  0  0  0  0  0  0  0  0  0  0
   47.1738    9.2175   21.5459 C   0  0  0  0  0  0  0  0  0  0  0  0
   49.2117    8.4118   22.5630 C   0  0  0  0  0  0  0  0  0  0  0  0
   47.8734    8.8055   22.6870 C   0  0  0  0  0  0  0  0  0  0  0  0
   51.5992    8.4592   13.2057 C   0  0  0  0  0  0  0  0  0  0  0  0
   48.1708    5.3928   19.5873 C   0  0  0  0  0  0  0  0  0  0  0  0
   48.8208    3.6524   17.9729 C   0  0  0  0  0  0  0  0  0  0  0  0
   47.2251    8.8605   24.0383 C   0  0  0  0  0  0  0  0  0  0  0  0
   48.9283    6.9455   18.3098 C   0  0  0  0  0  0  0  0  0  0  0  0
   48.9090    5.5617   18.3170 N   0  0  0  0  0  0  0  0  0  0  0  0
   47.8738    6.2168   20.1961 N   0  0  0  0  0  0  0  0  0  0  0  0
   48.2805    7.3105   19.4784 C   0  0  0  0  0  0  0  0  0  0  0  0
   48.2548    5.1789   19.4856 C   0  0  0  0  0  0  0  0  0  0  0  0
   49.5650    7.7715   17.2396 C   0  0  0  0  0  0  0  0  0  0  0  0
   51.0913    7.7548   17.3387 C   0  0  0  0  0  0  0  0  0  0  0  0
   49.4065    4.6414   17.3902 C   0  0  0  0  0  0  0  0  0  0  0  0
   48.1052    3.7857   19.7261 C   0  0  0  0  0  0  0  0  0  0  0  0
   48.0530    8.6633   19.9394 C   0  0  0  0  0  0  0  0  0  0  0  0
   49.2635    3.3210   17.6149 C   0  0  0  0  0  0  0  0  0  0  0  0
   48.5846    2.8954   18.8367 C   0  0  0  0  0  0  0  0  0  0  0  0
   51.7792    8.7895   16.7009 N   0  0  0  0  0  0  0  0  0  0  0  0
   51.6931    6.8411   17.9079 O   0  0  0  0  0  0  0  0  0  0  0  0
   47.1493    9.4984   19.2720 C   0  0  0  0  0  0  0  0  0  0  0  0
   48.7228    9.1388   21.0696 C   0  0  0  0  0  0  0  0  0  0  0  0
   46.9293   10.8033   19.7236 C   0  0  0  0  0  0  0  0  0  0  0  0
   48.5077   10.4453   21.5193 C   0  0  0  0  0  0  0  0  0  0  0  0
   47.6023   11.2829   20.8554 C   0  0  0  0  0  0  0  0  0  0  0  0
   49.7805    2.2625   16.6942 C   0  0  0  0  0  0  0  0  0  0  0  0
   53.2131    8.9016   16.9209 C   0  0  0  0  0  0  0  0  0  0  0  0
   51.1259    9.9493   16.1227 C   0  0  0  0  0  0  0  0  0  0  0  0
   47.3867   12.6902   21.3280 C   0  0  0  0  0  0  0  0  0  0  0  0
   48.6091    6.6452   16.2950 O   0  0  0  0  0  0  0  0  0  0  0  0
   50.6959    6.4000   17.0690 O   0  0  0  0  0  0  0  0  0  0  0  0
   50.3187    9.4165   18.0026 O   0  0  0  0  0  0  0  0  0  0  0  0
   49.6707   10.0354   20.0455 O   0  0  0  0  0  0  0  0  0  0  0  0
   47.6357    7.6198   18.5535 O   0  0  0  0  0  0  0  0  0  0  0  0
   49.4349    7.4577   20.9441 O   0  0  0  0  0  0  0  0  0  0  0  0
   49.5250    6.6477   17.2995 C   0  0  0  0  0  0  0  0  0  0  0  0
   48.8807    6.9182   18.6563 C   0  0  1  0  0  0  0  0  0  0  0  0
   49.8546    7.6493   19.5788 C   0  0  1  0  0  0  0  0  0  0  0  0
   49.9201    9.1340   19.2545 C   0  0  0  0  0  0  0  0  0  0  0  0
   47.6741    7.7632   16.4467 H   0  0  0  0  0  0  0  0  0  0  0  0
   47.3433    7.4973   18.1229 H   0  0  0  0  0  0  0  0  0  0  0  0
   49.5529    7.7414   14.9361 H   0  0  0  0  0  0  0  0  0  0  0  0
   53.2466   10.1651   17.2187 H   0  0  0  0  0  0  0  0  0  0  0  0
   53.3823    9.7204   14.8070 H   0  0  0  0  0  0  0  0  0  0  0  0
   47.2407    9.5624   19.4297 H   0  0  0  0  0  0  0  0  0  0  0  0
   50.8786    8.1287   21.2299 H   0  0  0  0  0  0  0  0  0  0  0  0
   46.1475    9.5700   21.6287 H   0  0  0  0  0  0  0  0  0  0  0  0
   49.7877    8.1245   23.4400 H   0  0  0  0  0  0  0  0  0  0  0  0
   51.7024    9.4092   12.6723 H   0  0  0  0  0  0  0  0  0  0  0  0
   52.4862    7.8527   13.0030 H   0  0  0  0  0  0  0  0  0  0  0  0
   50.7369    7.9289   12.7874 H   0  0  0  0  0  0  0  0  0  0  0  0
   47.7223    4.5568   20.1348 H   0  0  0  0  0  0  0  0  0  0  0  0
   47.5087    6.2492   19.6919 H   0  0  0  0  0  0  0  0  0  0  0  0
   49.1478    5.6243   20.0164 H   0  0  0  0  0  0  0  0  0  0  0  0
   49.8324    3.5579   18.3865 H   0  0  0  0  0  0  0  0  0  0  0  0
   48.1507    2.9495   18.4818 H   0  0  0  0  0  0  0  0  0  0  0  0
   48.8425    3.3910   16.9068 H   0  0  0  0  0  0  0  0  0  0  0  0
   47.5747    8.0408   24.6760 H   0  0  0  0  0  0  0  0  0  0  0  0
   47.4605    9.8115   24.5223 H   0  0  0  0  0  0  0  0  0  0  0  0
   46.1358    8.7736   23.9577 H   0  0  0  0  0  0  0  0  0  0  0  0
   49.2030    8.7984   17.3310 H   0  0  0  0  0  0  0  0  0  0  0  0
   49.2801    7.4080   16.2472 H   0  0  0  0  0  0  0  0  0  0  0  0
   49.9163    5.0379   16.5213 H   0  0  0  0  0  0  0  0  0  0  0  0
   47.5999    3.4733   20.6338 H   0  0  0  0  0  0  0  0  0  0  0  0
   48.4751    1.8306   19.0257 H   0  0  0  0  0  0  0  0  0  0  0  0
   46.6038    9.1315   18.4059 H   0  0  0  0  0  0  0  0  0  0  0  0
   49.4146    8.4918   21.6046 H   0  0  0  0  0  0  0  0  0  0  0  0
   46.2224   11.4388   19.1906 H   0  0  0  0  0  0  0  0  0  0  0  0
   49.0382   10.7972   22.4006 H   0  0  0  0  0  0  0  0  0  0  0  0
   50.2908    2.6951   15.8269 H   0  0  0  0  0  0  0  0  0  0  0  0
   50.4987    1.6151   17.2074 H   0  0  0  0  0  0  0  0  0  0  0  0
   48.9572    1.6438   16.3221 H   0  0  0  0  0  0  0  0  0  0  0  0
   53.6535    7.9624   17.2579 H   0  0  0  0  0  0  0  0  0  0  0  0
   53.3878    9.6662   17.6826 H   0  0  0  0  0  0  0  0  0  0  0  0
   53.6999    9.1906   15.9845 H   0  0  0  0  0  0  0  0  0  0  0  0
   50.2045    9.6651   15.6101 H   0  0  0  0  0  0  0  0  0  0  0  0
   51.7882   10.4221   15.3910 H   0  0  0  0  0  0  0  0  0  0  0  0
   50.8985   10.6579   16.9238 H   0  0  0  0  0  0  0  0  0  0  0  0
   48.1471   13.3488   20.8956 H   0  0  0  0  0  0  0  0  0  0  0  0
   46.3959   13.0598   21.0393 H   0  0  0  0  0  0  0  0  0  0  0  0
   47.4433   12.7455   22.4212 H   0  0  0  0  0  0  0  0  0  0  0  0
   49.1448    6.4708   15.4891 H   0  0  0  0  0  0  0  0  0  0  0  0
   50.3077   10.4012   17.9671 H   0  0  0  0  0  0  0  0  0  0  0  0
   47.1542    7.1871   17.8178 H   0  0  0  0  0  0  0  0  0  0  0  0
   49.0940    8.3216   21.2605 H   0  0  0  0  0  0  0  0  0  0  0  0
   48.6427    5.9366   19.0820 H   0  0  0  0  0  0  0  0  0  0  0  0
   50.8685    7.2394   19.5144 H   0  0  0  0  0  0  0  0  0  0  0  0
 10  4  1  0
 11  8  2  0
 12 11  1  0
 13  7  1  0
 14  7  2  0
 15 10  2  0
 16 10  1  0
 17 15  1  0
 18 16  2  0
 19 18  1  0
 20 11  1  0
 21 13  1  0
 22 13  1  0
 23 19  1  0
  3  5  2  0
  9 12  2  0
 17 19  2  0
  2  1  1  0
  3  4  1  0
  4  1  2  0
  5  2  1  0
  6  1  1  0
  7  6  1  0
  8  2  1  0
  9  5  1  0
 33 27  1  0
 34 31  2  0
 35 34  1  0
 36 30  1  0
 37 30  2  0
 38 33  2  0
 39 33  1  0
 40 38  1  0
 41 39  2  0
 42 41  1  0
 43 34  1  0
 44 36  1  0
 45 36  1  0
 46 42  1  0
 26 28  2  0
 32 35  2  0
 40 42  2  0
 25 24  1  0
 26 27  1  0
 27 24  2  0
 28 25  1  0
 29 24  1  0
 30 29  1  0
 31 25  1  0
 32 28  1  0
 53 48  2  0
 54 51  1  0
 55 52  1  0
 53 47  1  0
 55 56  1  0
 54 55  1  0
 56 49  1  0
 53 54  1  0
 56 50  2  0
  6 57  1  0
  6 58  1  0
  8 59  1  0
  9 60  1  0
 12 61  1  0
 15 62  1  0
 16 63  1  0
 17 64  1  0
 18 65  1  0
 20 66  1  0
 20 67  1  0
 20 68  1  0
 21 69  1  0
 21 70  1  0
 21 71  1  0
 22 72  1  0
 22 73  1  0
 22 74  1  0
 23 75  1  0
 23 76  1  0
 23 77  1  0
 29 78  1  0
 29 79  1  0
 31 80  1  0
 32 81  1  0
 35 82  1  0
 38 83  1  0
 39 84  1  0
 40 85  1  0
 41 86  1  0
 43 87  1  0
 43 88  1  0
 43 89  1  0
 44 90  1  0
 44 91  1  0
 44 92  1  0
 45 93  1  0
 45 94  1  0
 45 95  1  0
 46 96  1  0
 46 97  1  0
 46 98  1  0
 47 99  1  0
 49100  1  0
 51101  1  0
 52102  1  0
 54103  1  6
 55104  1  6
M  END
> <Uni-Dock RESULT> 
ENERGY=   -4.882  LOWER_BOUND=    0.964  UPPER_BOUND=    4.572
INTER + INTRA:          -4.882
INTER:                  -4.882
INTRA:                   0.000
UNBOUND:                 0.000

$$$$
