
     RDKit          3D

104107  0  0  0  0  0  0  0  0999 V2000
   49.8331    9.3389   15.9865 C   0  0  0  0  0  0  0  0  0  0  0  0
   49.5612    9.5009   14.6321 N   0  0  0  0  0  0  0  0  0  0  0  0
   47.6196    8.9301   15.6001 N   0  0  0  0  0  0  0  0  0  0  0  0
   48.5971    9.0484   16.5525 C   0  0  0  0  0  0  0  0  0  0  0  0
   48.2142    9.1818   14.4576 C   0  0  0  0  0  0  0  0  0  0  0  0
   51.1653    9.5529   16.6387 C   0  0  0  0  0  0  0  0  0  0  0  0
   52.3619    9.0101   15.8642 C   0  0  0  0  0  0  0  0  0  0  0  0
   50.3700    9.9176   13.5698 C   0  0  0  0  0  0  0  0  0  0  0  0
   47.6907    9.2161   13.1356 C   0  0  0  0  0  0  0  0  0  0  0  0
   48.2827    8.9522   17.9656 C   0  0  0  0  0  0  0  0  0  0  0  0
   49.8692    9.9752   12.3199 C   0  0  0  0  0  0  0  0  0  0  0  0
   48.4764    9.5938   12.1106 C   0  0  0  0  0  0  0  0  0  0  0  0
   52.5171    7.6366   15.7110 N   0  0  0  0  0  0  0  0  0  0  0  0
   53.1858    9.8071   15.4018 O   0  0  0  0  0  0  0  0  0  0  0  0
   48.8957    8.0162   18.8036 C   0  0  0  0  0  0  0  0  0  0  0  0
   47.3121    9.8068   18.5000 C   0  0  0  0  0  0  0  0  0  0  0  0
   48.5626    7.9537   20.1608 C   0  0  0  0  0  0  0  0  0  0  0  0
   46.9774    9.7444   19.8552 C   0  0  0  0  0  0  0  0  0  0  0  0
   47.5947    8.8120   20.6952 C   0  0  0  0  0  0  0  0  0  0  0  0
   50.6624   10.4125   11.1287 C   0  0  0  0  0  0  0  0  0  0  0  0
   51.7456    6.6517   16.4480 C   0  0  0  0  0  0  0  0  0  0  0  0
   53.7434    7.1529   15.0947 C   0  0  0  0  0  0  0  0  0  0  0  0
   47.2524    8.7645   22.1547 C   0  0  0  0  0  0  0  0  0  0  0  0
   50.0085    9.1806   15.5245 C   0  0  0  0  0  0  0  0  0  0  0  0
   50.0104    9.0522   14.1465 N   0  0  0  0  0  0  0  0  0  0  0  0
   48.3000   10.4106   14.6499 N   0  0  0  0  0  0  0  0  0  0  0  0
   48.9082    9.9766   15.8024 C   0  0  0  0  0  0  0  0  0  0  0  0
   48.9602    9.8329   13.6709 C   0  0  0  0  0  0  0  0  0  0  0  0
   51.0439    8.5710   16.4163 C   0  0  0  0  0  0  0  0  0  0  0  0
   50.8094    7.0769   16.6432 C   0  0  0  0  0  0  0  0  0  0  0  0
   50.8664    8.3347   13.3058 C   0  0  0  0  0  0  0  0  0  0  0  0
   48.7740    9.8861   12.2621 C   0  0  0  0  0  0  0  0  0  0  0  0
   48.4564   10.3892   17.1175 C   0  0  0  0  0  0  0  0  0  0  0  0
   50.6928    8.3862   11.9710 C   0  0  0  0  0  0  0  0  0  0  0  0
   49.5982    9.2003   11.4473 C   0  0  0  0  0  0  0  0  0  0  0  0
   51.6272    6.4465   17.5818 N   0  0  0  0  0  0  0  0  0  0  0  0
   49.9576    6.4503   16.0112 O   0  0  0  0  0  0  0  0  0  0  0  0
   48.1876   11.7404   17.3621 C   0  0  0  0  0  0  0  0  0  0  0  0
   48.2624    9.4591   18.1450 C   0  0  0  0  0  0  0  0  0  0  0  0
   47.7682   12.1634   18.6268 C   0  0  0  0  0  0  0  0  0  0  0  0
   47.8439    9.8809   19.4105 C   0  0  0  0  0  0  0  0  0  0  0  0
   47.5896   11.2355   19.6600 C   0  0  0  0  0  0  0  0  0  0  0  0
   51.5480    7.6451   10.9931 C   0  0  0  0  0  0  0  0  0  0  0  0
   51.3923    5.0432   17.8906 C   0  0  0  0  0  0  0  0  0  0  0  0
   52.6372    7.1119   18.3928 C   0  0  0  0  0  0  0  0  0  0  0  0
   47.1663   11.6894   21.0256 C   0  0  0  0  0  0  0  0  0  0  0  0
   50.7410    7.7653   14.3802 O   0  0  0  0  0  0  0  0  0  0  0  0
   48.8640    6.6578   14.8511 O   0  0  0  0  0  0  0  0  0  0  0  0
   49.3121   11.3770   17.0627 O   0  0  0  0  0  0  0  0  0  0  0  0
   48.7086   10.1943   15.2614 O   0  0  0  0  0  0  0  0  0  0  0  0
   48.7556    7.7097   17.4290 O   0  0  0  0  0  0  0  0  0  0  0  0
   50.9057    9.5963   18.0811 O   0  0  0  0  0  0  0  0  0  0  0  0
   49.7671    7.3925   15.2300 C   0  0  0  0  0  0  0  0  0  0  0  0
   49.9601    7.8705   16.6651 C   0  0  1  0  0  0  0  0  0  0  0  0
   50.4718    9.3105   16.7413 C   0  0  1  0  0  0  0  0  0  0  0  0
   49.3999   10.2859   16.2621 C   0  0  0  0  0  0  0  0  0  0  0  0
   51.1981    9.1240   17.6450 H   0  0  0  0  0  0  0  0  0  0  0  0
   51.3129   10.6326   16.7650 H   0  0  0  0  0  0  0  0  0  0  0  0
   51.3907   10.2044   13.7839 H   0  0  0  0  0  0  0  0  0  0  0  0
   46.6532    8.9404   12.9863 H   0  0  0  0  0  0  0  0  0  0  0  0
   48.0766    9.6251   11.1003 H   0  0  0  0  0  0  0  0  0  0  0  0
   49.6267    7.3181   18.4129 H   0  0  0  0  0  0  0  0  0  0  0  0
   46.8099   10.5281   17.8573 H   0  0  0  0  0  0  0  0  0  0  0  0
   49.0560    7.2210   20.7955 H   0  0  0  0  0  0  0  0  0  0  0  0
   46.2246   10.4250   20.2460 H   0  0  0  0  0  0  0  0  0  0  0  0
   50.7172    9.6087   10.3863 H   0  0  0  0  0  0  0  0  0  0  0  0
   51.6877   10.6848   11.4016 H   0  0  0  0  0  0  0  0  0  0  0  0
   50.2003   11.2872   10.6597 H   0  0  0  0  0  0  0  0  0  0  0  0
   50.6824    6.8798   16.3996 H   0  0  0  0  0  0  0  0  0  0  0  0
   51.8956    5.6559   16.0192 H   0  0  0  0  0  0  0  0  0  0  0  0
   52.0740    6.6538   17.4910 H   0  0  0  0  0  0  0  0  0  0  0  0
   54.2063    7.9105   14.4576 H   0  0  0  0  0  0  0  0  0  0  0  0
   53.5139    6.2783   14.4789 H   0  0  0  0  0  0  0  0  0  0  0  0
   54.4483    6.8733   15.8839 H   0  0  0  0  0  0  0  0  0  0  0  0
   47.4629    7.7755   22.5777 H   0  0  0  0  0  0  0  0  0  0  0  0
   46.1862    8.9646   22.3113 H   0  0  0  0  0  0  0  0  0  0  0  0
   47.8404    9.5116   22.6991 H   0  0  0  0  0  0  0  0  0  0  0  0
   52.0366    8.7036   15.9723 H   0  0  0  0  0  0  0  0  0  0  0  0
   51.0378    9.0855   17.3840 H   0  0  0  0  0  0  0  0  0  0  0  0
   51.6459    7.7460   13.7719 H   0  0  0  0  0  0  0  0  0  0  0  0
   47.9604   10.4878   11.8758 H   0  0  0  0  0  0  0  0  0  0  0  0
   49.4552    9.2410   10.3711 H   0  0  0  0  0  0  0  0  0  0  0  0
   48.3097   12.4697   16.5638 H   0  0  0  0  0  0  0  0  0  0  0  0
   48.4199    8.3985   17.9643 H   0  0  0  0  0  0  0  0  0  0  0  0
   47.5777   13.2212   18.7951 H   0  0  0  0  0  0  0  0  0  0  0  0
   47.7071    9.1429   20.1976 H   0  0  0  0  0  0  0  0  0  0  0  0
   50.9453    6.9442   10.4056 H   0  0  0  0  0  0  0  0  0  0  0  0
   52.0376    8.3428   10.3060 H   0  0  0  0  0  0  0  0  0  0  0  0
   52.3331    7.0691   11.4947 H   0  0  0  0  0  0  0  0  0  0  0  0
   51.1044    4.9586   18.9434 H   0  0  0  0  0  0  0  0  0  0  0  0
   50.6031    4.6043   17.2738 H   0  0  0  0  0  0  0  0  0  0  0  0
   52.3208    4.4901   17.7183 H   0  0  0  0  0  0  0  0  0  0  0  0
   52.2398    7.2411   19.4046 H   0  0  0  0  0  0  0  0  0  0  0  0
   52.9225    8.0859   17.9933 H   0  0  0  0  0  0  0  0  0  0  0  0
   53.5329    6.4834   18.4295 H   0  0  0  0  0  0  0  0  0  0  0  0
   46.5203   12.5717   20.9637 H   0  0  0  0  0  0  0  0  0  0  0  0
   48.0480   11.9356   21.6248 H   0  0  0  0  0  0  0  0  0  0  0  0
   46.5985   10.9064   21.5395 H   0  0  0  0  0  0  0  0  0  0  0  0
   50.4671    7.3803   13.5190 H   0  0  0  0  0  0  0  0  0  0  0  0
   48.5827   11.8997   16.6635 H   0  0  0  0  0  0  0  0  0  0  0  0
   48.3698    6.8533   17.1566 H   0  0  0  0  0  0  0  0  0  0  0  0
   50.6488   10.5262   18.2491 H   0  0  0  0  0  0  0  0  0  0  0  0
   50.6978    7.1999   17.1232 H   0  0  0  0  0  0  0  0  0  0  0  0
   51.3493    9.4642   16.1049 H   0  0  0  0  0  0  0  0  0  0  0  0
 10  4  1  0
 11  8  2  0
 12 11  1  0
 13  7  1  0
 14  7  2  0
 15 10  2  0
 16 10  1  0
 17 15  1  0
 18 16  2  0
 19 18  1  0
 20 11  1  0
 21 13  1  0
 22 13  1  0
 23 19  1  0
  3  5  2  0
  9 12  2  0
 17 19  2  0
  2  1  1  0
  3  4  1  0
  4  1  2  0
  5  2  1  0
  6  1  1  0
  7  6  1  0
  8  2  1  0
  9  5  1  0
 33 27  1  0
 34 31  2  0
 35 34  1  0
 36 30  1  0
 37 30  2  0
 38 33  2  0
 39 33  1  0
 40 38  1  0
 41 39  2  0
 42 41  1  0
 43 34  1  0
 44 36  1  0
 45 36  1  0
 46 42  1  0
 26 28  2  0
 32 35  2  0
 40 42  2  0
 25 24  1  0
 26 27  1  0
 27 24  2  0
 28 25  1  0
 29 24  1  0
 30 29  1  0
 31 25  1  0
 32 28  1  0
 53 48  2  0
 54 51  1  0
 55 52  1  0
 53 47  1  0
 55 56  1  0
 54 55  1  0
 56 49  1  0
 53 54  1  0
 56 50  2  0
  6 57  1  0
  6 58  1  0
  8 59  1  0
  9 60  1  0
 12 61  1  0
 15 62  1  0
 16 63  1  0
 17 64  1  0
 18 65  1  0
 20 66  1  0
 20 67  1  0
 20 68  1  0
 21 69  1  0
 21 70  1  0
 21 71  1  0
 22 72  1  0
 22 73  1  0
 22 74  1  0
 23 75  1  0
 23 76  1  0
 23 77  1  0
 29 78  1  0
 29 79  1  0
 31 80  1  0
 32 81  1  0
 35 82  1  0
 38 83  1  0
 39 84  1  0
 40 85  1  0
 41 86  1  0
 43 87  1  0
 43 88  1  0
 43 89  1  0
 44 90  1  0
 44 91  1  0
 44 92  1  0
 45 93  1  0
 45 94  1  0
 45 95  1  0
 46 96  1  0
 46 97  1  0
 46 98  1  0
 47 99  1  0
 49100  1  0
 51101  1  0
 52102  1  0
 54103  1  6
 55104  1  6
M  END
> <Uni-Dock RESULT> 
ENERGY=   -6.335  LOWER_BOUND=    0.000  UPPER_BOUND=    0.000
INTER + INTRA:          -6.335
INTER:                  -6.335
INTRA:                   0.000
UNBOUND:                 0.000

$$$$

     RDKit          3D

104107  0  0  0  0  0  0  0  0999 V2000
   50.2197    8.5767   13.4511 C   0  0  0  0  0  0  0  0  0  0  0  0
   50.9896    8.1203   14.5157 N   0  0  0  0  0  0  0  0  0  0  0  0
   48.9854    8.6531   15.3712 N   0  0  0  0  0  0  0  0  0  0  0  0
   48.9749    8.8349   14.0134 C   0  0  0  0  0  0  0  0  0  0  0  0
   50.1999    8.2473   15.6588 C   0  0  0  0  0  0  0  0  0  0  0  0
   50.6642    8.6452   12.0215 C   0  0  0  0  0  0  0  0  0  0  0  0
   52.0866    9.1528   11.8076 C   0  0  0  0  0  0  0  0  0  0  0  0
   52.2845    7.5934   14.5617 C   0  0  0  0  0  0  0  0  0  0  0  0
   50.7803    7.8938   16.9083 C   0  0  0  0  0  0  0  0  0  0  0  0
   47.7511    9.1739   13.3118 C   0  0  0  0  0  0  0  0  0  0  0  0
   52.8276    7.2341   15.7417 C   0  0  0  0  0  0  0  0  0  0  0  0
   52.0350    7.4098   16.9541 C   0  0  0  0  0  0  0  0  0  0  0  0
   52.3957   10.4771   12.0980 N   0  0  0  0  0  0  0  0  0  0  0  0
   52.9369    8.3762   11.3588 O   0  0  0  0  0  0  0  0  0  0  0  0
   47.6395   10.3195   12.5185 C   0  0  0  0  0  0  0  0  0  0  0  0
   46.6370    8.3401   13.4582 C   0  0  0  0  0  0  0  0  0  0  0  0
   46.4405   10.6125   11.8603 C   0  0  0  0  0  0  0  0  0  0  0  0
   45.4382    8.6324   12.8024 C   0  0  0  0  0  0  0  0  0  0  0  0
   45.3280    9.7754   12.0040 C   0  0  0  0  0  0  0  0  0  0  0  0
   54.2025    6.6600   15.8805 C   0  0  0  0  0  0  0  0  0  0  0  0
   51.3976   11.4970   12.3667 C   0  0  0  0  0  0  0  0  0  0  0  0
   53.7214   10.9619   11.7443 C   0  0  0  0  0  0  0  0  0  0  0  0
   44.0483   10.0731   11.2805 C   0  0  0  0  0  0  0  0  0  0  0  0
   50.6829    8.6587   13.6700 C   0  0  0  0  0  0  0  0  0  0  0  0
   51.6795    8.5108   14.6189 N   0  0  0  0  0  0  0  0  0  0  0  0
   50.0398    7.0982   15.2024 N   0  0  0  0  0  0  0  0  0  0  0  0
   49.6662    7.8168   14.0930 C   0  0  0  0  0  0  0  0  0  0  0  0
   51.2381    7.5398   15.5141 C   0  0  0  0  0  0  0  0  0  0  0  0
   50.8046    9.5438   12.4697 C   0  0  0  0  0  0  0  0  0  0  0  0
   50.5789   11.0179   12.8088 C   0  0  0  0  0  0  0  0  0  0  0  0
   52.9241    9.1377   14.7293 C   0  0  0  0  0  0  0  0  0  0  0  0
   52.1138    7.1882   16.5778 C   0  0  0  0  0  0  0  0  0  0  0  0
   48.3832    7.6256   13.4442 C   0  0  0  0  0  0  0  0  0  0  0  0
   53.7557    8.8037   15.7349 C   0  0  0  0  0  0  0  0  0  0  0  0
   53.3157    7.7858   16.6865 C   0  0  0  0  0  0  0  0  0  0  0  0
   50.5173   11.9085   11.7364 N   0  0  0  0  0  0  0  0  0  0  0  0
   50.4813   11.4085   13.9731 O   0  0  0  0  0  0  0  0  0  0  0  0
   47.9311    6.3284   13.1781 C   0  0  0  0  0  0  0  0  0  0  0  0
   47.5747    8.7136   13.0961 C   0  0  0  0  0  0  0  0  0  0  0  0
   46.7059    6.1207   12.5377 C   0  0  0  0  0  0  0  0  0  0  0  0
   46.3497    8.5073   12.4548 C   0  0  0  0  0  0  0  0  0  0  0  0
   45.9040    7.2094   12.1744 C   0  0  0  0  0  0  0  0  0  0  0  0
   55.0997    9.4262   15.9428 C   0  0  0  0  0  0  0  0  0  0  0  0
   50.2265   13.3103   12.0012 C   0  0  0  0  0  0  0  0  0  0  0  0
   50.5941   11.5331   10.3314 C   0  0  0  0  0  0  0  0  0  0  0  0
   44.6018    6.9912   11.4626 C   0  0  0  0  0  0  0  0  0  0  0  0
   52.1057    9.8913   14.2228 O   0  0  0  0  0  0  0  0  0  0  0  0
   50.5381   10.8553   15.4816 O   0  0  0  0  0  0  0  0  0  0  0  0
   48.9512    6.7475   12.6584 O   0  0  0  0  0  0  0  0  0  0  0  0
   49.9004    7.4754   14.5497 O   0  0  0  0  0  0  0  0  0  0  0  0
   48.5468   10.3300   13.6047 O   0  0  0  0  0  0  0  0  0  0  0  0
   49.4482    8.8601   11.2311 O   0  0  0  0  0  0  0  0  0  0  0  0
   50.8454   10.3150   14.4269 C   0  0  0  0  0  0  0  0  0  0  0  0
   49.9201   10.1553   13.2254 C   0  0  1  0  0  0  0  0  0  0  0  0
   50.1250    8.8248   12.4982 C   0  0  1  0  0  0  0  0  0  0  0  0
   49.6581    7.6611   13.3688 C   0  0  0  0  0  0  0  0  0  0  0  0
   49.9951    9.2660   11.4177 H   0  0  0  0  0  0  0  0  0  0  0  0
   50.6043    7.6351   11.5977 H   0  0  0  0  0  0  0  0  0  0  0  0
   52.8214    7.4697   13.6308 H   0  0  0  0  0  0  0  0  0  0  0  0
   50.1846    8.0178   17.8051 H   0  0  0  0  0  0  0  0  0  0  0  0
   52.4784    7.1348   17.9077 H   0  0  0  0  0  0  0  0  0  0  0  0
   48.4739   11.0029   12.4122 H   0  0  0  0  0  0  0  0  0  0  0  0
   46.7001    7.4546   14.0887 H   0  0  0  0  0  0  0  0  0  0  0  0
   46.3778   11.5066   11.2439 H   0  0  0  0  0  0  0  0  0  0  0  0
   44.5899    7.9637   12.9279 H   0  0  0  0  0  0  0  0  0  0  0  0
   54.8258    7.3016   16.5130 H   0  0  0  0  0  0  0  0  0  0  0  0
   54.7015    6.5625   14.9103 H   0  0  0  0  0  0  0  0  0  0  0  0
   54.1588    5.6640   16.3329 H   0  0  0  0  0  0  0  0  0  0  0  0
   50.6781   11.1475   13.1049 H   0  0  0  0  0  0  0  0  0  0  0  0
   51.8752   12.3984   12.7633 H   0  0  0  0  0  0  0  0  0  0  0  0
   50.8789   11.7382   11.4347 H   0  0  0  0  0  0  0  0  0  0  0  0
   54.4487   10.1490   11.6773 H   0  0  0  0  0  0  0  0  0  0  0  0
   54.0611   11.6662   12.5094 H   0  0  0  0  0  0  0  0  0  0  0  0
   53.6648   11.4688   10.7758 H   0  0  0  0  0  0  0  0  0  0  0  0
   43.9578   11.1434   11.0625 H   0  0  0  0  0  0  0  0  0  0  0  0
   43.1819    9.7911   11.8898 H   0  0  0  0  0  0  0  0  0  0  0  0
   44.0173    9.5186   10.3362 H   0  0  0  0  0  0  0  0  0  0  0  0
   51.8035    9.4366   12.0329 H   0  0  0  0  0  0  0  0  0  0  0  0
   50.0732    9.2339   11.7147 H   0  0  0  0  0  0  0  0  0  0  0  0
   53.1713    9.8897   13.9913 H   0  0  0  0  0  0  0  0  0  0  0  0
   51.7848    6.4355   17.2839 H   0  0  0  0  0  0  0  0  0  0  0  0
   53.9841    7.5169   17.4996 H   0  0  0  0  0  0  0  0  0  0  0  0
   48.5389    5.4734   13.4674 H   0  0  0  0  0  0  0  0  0  0  0  0
   47.8843    9.7281   13.3354 H   0  0  0  0  0  0  0  0  0  0  0  0
   46.3824    5.1029   12.3308 H   0  0  0  0  0  0  0  0  0  0  0  0
   45.7403    9.3670   12.1853 H   0  0  0  0  0  0  0  0  0  0  0  0
   55.1482    9.9256   16.9164 H   0  0  0  0  0  0  0  0  0  0  0  0
   55.8853    8.6648   15.9034 H   0  0  0  0  0  0  0  0  0  0  0  0
   55.3245   10.1736   15.1742 H   0  0  0  0  0  0  0  0  0  0  0  0
   49.2783   13.5696   11.5194 H   0  0  0  0  0  0  0  0  0  0  0  0
   50.1490   13.5280   13.0700 H   0  0  0  0  0  0  0  0  0  0  0  0
   51.0320   13.9177   11.5769 H   0  0  0  0  0  0  0  0  0  0  0  0
   49.5848   11.5639    9.9085 H   0  0  0  0  0  0  0  0  0  0  0  0
   51.0133   10.5370   10.1847 H   0  0  0  0  0  0  0  0  0  0  0  0
   51.2321   12.2517    9.8069 H   0  0  0  0  0  0  0  0  0  0  0  0
   44.1384    6.0481   11.7714 H   0  0  0  0  0  0  0  0  0  0  0  0
   44.7690    6.9679   10.3816 H   0  0  0  0  0  0  0  0  0  0  0  0
   43.8914    7.7927   11.6919 H   0  0  0  0  0  0  0  0  0  0  0  0
   52.5577   10.0652   15.0775 H   0  0  0  0  0  0  0  0  0  0  0  0
   48.6952    6.0785   13.3305 H   0  0  0  0  0  0  0  0  0  0  0  0
   48.5309   11.0672   14.2470 H   0  0  0  0  0  0  0  0  0  0  0  0
   49.0873    7.9593   11.0993 H   0  0  0  0  0  0  0  0  0  0  0  0
   50.1494   10.9809   12.5401 H   0  0  0  0  0  0  0  0  0  0  0  0
   51.1802    8.6461   12.2673 H   0  0  0  0  0  0  0  0  0  0  0  0
 10  4  1  0
 11  8  2  0
 12 11  1  0
 13  7  1  0
 14  7  2  0
 15 10  2  0
 16 10  1  0
 17 15  1  0
 18 16  2  0
 19 18  1  0
 20 11  1  0
 21 13  1  0
 22 13  1  0
 23 19  1  0
  3  5  2  0
  9 12  2  0
 17 19  2  0
  2  1  1  0
  3  4  1  0
  4  1  2  0
  5  2  1  0
  6  1  1  0
  7  6  1  0
  8  2  1  0
  9  5  1  0
 33 27  1  0
 34 31  2  0
 35 34  1  0
 36 30  1  0
 37 30  2  0
 38 33  2  0
 39 33  1  0
 40 38  1  0
 41 39  2  0
 42 41  1  0
 43 34  1  0
 44 36  1  0
 45 36  1  0
 46 42  1  0
 26 28  2  0
 32 35  2  0
 40 42  2  0
 25 24  1  0
 26 27  1  0
 27 24  2  0
 28 25  1  0
 29 24  1  0
 30 29  1  0
 31 25  1  0
 32 28  1  0
 53 48  2  0
 54 51  1  0
 55 52  1  0
 53 47  1  0
 55 56  1  0
 54 55  1  0
 56 49  1  0
 53 54  1  0
 56 50  2  0
  6 57  1  0
  6 58  1  0
  8 59  1  0
  9 60  1  0
 12 61  1  0
 15 62  1  0
 16 63  1  0
 17 64  1  0
 18 65  1  0
 20 66  1  0
 20 67  1  0
 20 68  1  0
 21 69  1  0
 21 70  1  0
 21 71  1  0
 22 72  1  0
 22 73  1  0
 22 74  1  0
 23 75  1  0
 23 76  1  0
 23 77  1  0
 29 78  1  0
 29 79  1  0
 31 80  1  0
 32 81  1  0
 35 82  1  0
 38 83  1  0
 39 84  1  0
 40 85  1  0
 41 86  1  0
 43 87  1  0
 43 88  1  0
 43 89  1  0
 44 90  1  0
 44 91  1  0
 44 92  1  0
 45 93  1  0
 45 94  1  0
 45 95  1  0
 46 96  1  0
 46 97  1  0
 46 98  1  0
 47 99  1  0
 49100  1  0
 51101  1  0
 52102  1  0
 54103  1  6
 55104  1  6
M  END
> <Uni-Dock RESULT> 
ENERGY=   -6.278  LOWER_BOUND=    2.694  UPPER_BOUND=    5.859
INTER + INTRA:          -6.278
INTER:                  -6.278
INTRA:                   0.000
UNBOUND:                 0.000

$$$$

     RDKit          3D

104107  0  0  0  0  0  0  0  0999 V2000
   48.7432    7.3928   19.8723 C   0  0  0  0  0  0  0  0  0  0  0  0
   48.2357    8.6385   19.5187 N   0  0  0  0  0  0  0  0  0  0  0  0
   49.6328    8.0368   17.8698 N   0  0  0  0  0  0  0  0  0  0  0  0
   49.5507    7.0337   18.7992 C   0  0  0  0  0  0  0  0  0  0  0  0
   48.8600    8.9957   18.3232 C   0  0  0  0  0  0  0  0  0  0  0  0
   48.3736    6.6189   21.1013 C   0  0  0  0  0  0  0  0  0  0  0  0
   48.2587    7.4450   22.3785 C   0  0  0  0  0  0  0  0  0  0  0  0
   47.2781    9.4544   20.1299 C   0  0  0  0  0  0  0  0  0  0  0  0
   48.5515   10.2687   17.7688 C   0  0  0  0  0  0  0  0  0  0  0  0
   50.1898    5.7505   18.5759 C   0  0  0  0  0  0  0  0  0  0  0  0
   46.9655   10.6503   19.5927 C   0  0  0  0  0  0  0  0  0  0  0  0
   47.6478   11.0634   18.3708 C   0  0  0  0  0  0  0  0  0  0  0  0
   49.3980    8.0200   22.9310 N   0  0  0  0  0  0  0  0  0  0  0  0
   47.1504    7.5711   22.9108 O   0  0  0  0  0  0  0  0  0  0  0  0
   51.1249    5.2182   19.4683 C   0  0  0  0  0  0  0  0  0  0  0  0
   49.8799    5.0363   17.4132 C   0  0  0  0  0  0  0  0  0  0  0  0
   51.7211    3.9782   19.2152 C   0  0  0  0  0  0  0  0  0  0  0  0
   50.4757    3.7983   17.1585 C   0  0  0  0  0  0  0  0  0  0  0  0
   51.4070    3.2626   18.0540 C   0  0  0  0  0  0  0  0  0  0  0  0
   45.9520   11.5824   20.1784 C   0  0  0  0  0  0  0  0  0  0  0  0
   50.7494    7.6912   22.5139 C   0  0  0  0  0  0  0  0  0  0  0  0
   49.2729    8.6755   24.2241 C   0  0  0  0  0  0  0  0  0  0  0  0
   52.0257    1.9218   17.7912 C   0  0  0  0  0  0  0  0  0  0  0  0
   48.6836    7.8683   20.0712 C   0  0  0  0  0  0  0  0  0  0  0  0
   48.3493    9.2112   20.0647 N   0  0  0  0  0  0  0  0  0  0  0  0
   47.7929    8.4141   18.0449 N   0  0  0  0  0  0  0  0  0  0  0  0
   48.3808    7.4238   18.7937 C   0  0  0  0  0  0  0  0  0  0  0  0
   47.7999    9.4803   18.8138 C   0  0  0  0  0  0  0  0  0  0  0  0
   49.2192    7.1521   21.2709 C   0  0  0  0  0  0  0  0  0  0  0  0
   50.7049    7.4328   21.5007 C   0  0  0  0  0  0  0  0  0  0  0  0
   48.4697   10.1786   21.0667 C   0  0  0  0  0  0  0  0  0  0  0  0
   47.3474   10.8066   18.5726 C   0  0  0  0  0  0  0  0  0  0  0  0
   48.5708    6.0792   18.2841 C   0  0  0  0  0  0  0  0  0  0  0  0
   48.0391   11.4347   20.8405 C   0  0  0  0  0  0  0  0  0  0  0  0
   47.4570   11.7414   19.5357 C   0  0  0  0  0  0  0  0  0  0  0  0
   51.3381    6.6938   22.5006 N   0  0  0  0  0  0  0  0  0  0  0  0
   51.3115    8.2879   20.8537 O   0  0  0  0  0  0  0  0  0  0  0  0
   47.5146    5.4325   17.6329 C   0  0  0  0  0  0  0  0  0  0  0  0
   49.7986    5.4198   18.4114 C   0  0  0  0  0  0  0  0  0  0  0  0
   47.6693    4.1299   17.1496 C   0  0  0  0  0  0  0  0  0  0  0  0
   49.9545    4.1167   17.9293 C   0  0  0  0  0  0  0  0  0  0  0  0
   48.8925    3.4634   17.2910 C   0  0  0  0  0  0  0  0  0  0  0  0
   48.1361   12.5393   21.8442 C   0  0  0  0  0  0  0  0  0  0  0  0
   52.7690    6.8680   22.7056 C   0  0  0  0  0  0  0  0  0  0  0  0
   50.7086    5.6466   23.2930 C   0  0  0  0  0  0  0  0  0  0  0  0
   49.0536    2.0559   16.7982 C   0  0  0  0  0  0  0  0  0  0  0  0
   49.3684    9.3546   21.1534 O   0  0  0  0  0  0  0  0  0  0  0  0
   51.0669    9.3904   19.7093 O   0  0  0  0  0  0  0  0  0  0  0  0
   47.4144    5.7568   18.8039 O   0  0  0  0  0  0  0  0  0  0  0  0
   48.0671    7.8784   18.5200 O   0  0  0  0  0  0  0  0  0  0  0  0
   50.9935    6.6246   19.3795 O   0  0  0  0  0  0  0  0  0  0  0  0
   48.8807    5.2596   20.8896 O   0  0  0  0  0  0  0  0  0  0  0  0
   50.2656    8.7364   20.3644 C   0  0  0  0  0  0  0  0  0  0  0  0
   50.2473    7.2143   20.4545 C   0  0  1  0  0  0  0  0  0  0  0  0
   48.8279    6.6461   20.5156 C   0  0  1  0  0  0  0  0  0  0  0  0
   48.1086    6.8574   19.1859 C   0  0  0  0  0  0  0  0  0  0  0  0
   49.0775    5.8036   21.2946 H   0  0  0  0  0  0  0  0  0  0  0  0
   47.4009    6.1433   20.9243 H   0  0  0  0  0  0  0  0  0  0  0  0
   46.7913    9.0919   21.0253 H   0  0  0  0  0  0  0  0  0  0  0  0
   49.0544   10.5674   16.8564 H   0  0  0  0  0  0  0  0  0  0  0  0
   47.4074   12.0346   17.9459 H   0  0  0  0  0  0  0  0  0  0  0  0
   51.4112    5.7625   20.3606 H   0  0  0  0  0  0  0  0  0  0  0  0
   49.1691    5.4456   16.6973 H   0  0  0  0  0  0  0  0  0  0  0  0
   52.4422    3.5807   19.9259 H   0  0  0  0  0  0  0  0  0  0  0  0
   50.2117    3.2610   16.2507 H   0  0  0  0  0  0  0  0  0  0  0  0
   46.4164   12.5381   20.4453 H   0  0  0  0  0  0  0  0  0  0  0  0
   45.4960   11.1688   21.0845 H   0  0  0  0  0  0  0  0  0  0  0  0
   45.1481   11.7757   19.4608 H   0  0  0  0  0  0  0  0  0  0  0  0
   50.8398    7.7347   21.4300 H   0  0  0  0  0  0  0  0  0  0  0  0
   51.4609    8.4058   22.9395 H   0  0  0  0  0  0  0  0  0  0  0  0
   50.9914    6.6832   22.8619 H   0  0  0  0  0  0  0  0  0  0  0  0
   48.2487    9.0034   24.4180 H   0  0  0  0  0  0  0  0  0  0  0  0
   49.9256    9.5533   24.2453 H   0  0  0  0  0  0  0  0  0  0  0  0
   49.5752    7.9725   25.0067 H   0  0  0  0  0  0  0  0  0  0  0  0
   52.9909    1.8255   18.3013 H   0  0  0  0  0  0  0  0  0  0  0  0
   52.2089    1.7809   16.7197 H   0  0  0  0  0  0  0  0  0  0  0  0
   51.3595    1.1285   18.1475 H   0  0  0  0  0  0  0  0  0  0  0  0
   48.6646    7.4628   22.1632 H   0  0  0  0  0  0  0  0  0  0  0  0
   49.0739    6.0733   21.1444 H   0  0  0  0  0  0  0  0  0  0  0  0
   48.9226    9.8751   22.0016 H   0  0  0  0  0  0  0  0  0  0  0  0
   46.9188   11.0328   17.6039 H   0  0  0  0  0  0  0  0  0  0  0  0
   47.1114   12.7546   19.3508 H   0  0  0  0  0  0  0  0  0  0  0  0
   46.5630    5.9445   17.5048 H   0  0  0  0  0  0  0  0  0  0  0  0
   50.6470    5.9203   18.8720 H   0  0  0  0  0  0  0  0  0  0  0  0
   46.8292    3.6442   16.6580 H   0  0  0  0  0  0  0  0  0  0  0  0
   50.9145    3.6190   18.0456 H   0  0  0  0  0  0  0  0  0  0  0  0
   48.7511   13.3595   21.4585 H   0  0  0  0  0  0  0  0  0  0  0  0
   47.1417   12.9319   22.0798 H   0  0  0  0  0  0  0  0  0  0  0  0
   48.5876   12.1978   22.7819 H   0  0  0  0  0  0  0  0  0  0  0  0
   53.2725    5.9197   22.4920 H   0  0  0  0  0  0  0  0  0  0  0  0
   53.1935    7.6442   22.0629 H   0  0  0  0  0  0  0  0  0  0  0  0
   52.9383    7.1462   23.7505 H   0  0  0  0  0  0  0  0  0  0  0  0
   51.0387    4.6758   22.9097 H   0  0  0  0  0  0  0  0  0  0  0  0
   49.6194    5.6925   23.2610 H   0  0  0  0  0  0  0  0  0  0  0  0
   51.0234    5.7538   24.3361 H   0  0  0  0  0  0  0  0  0  0  0  0
   48.4293    1.8744   15.9167 H   0  0  0  0  0  0  0  0  0  0  0  0
   48.7695    1.3518   17.5860 H   0  0  0  0  0  0  0  0  0  0  0  0
   50.0911    1.8594   16.5075 H   0  0  0  0  0  0  0  0  0  0  0  0
   49.5140   10.3101   20.9777 H   0  0  0  0  0  0  0  0  0  0  0  0
   47.0280    6.0150   17.9386 H   0  0  0  0  0  0  0  0  0  0  0  0
   51.7873    7.1825   19.2578 H   0  0  0  0  0  0  0  0  0  0  0  0
   48.1747    4.8197   20.3728 H   0  0  0  0  0  0  0  0  0  0  0  0
   50.7834    6.9473   21.3738 H   0  0  0  0  0  0  0  0  0  0  0  0
   48.2254    7.1394   21.2852 H   0  0  0  0  0  0  0  0  0  0  0  0
 10  4  1  0
 11  8  2  0
 12 11  1  0
 13  7  1  0
 14  7  2  0
 15 10  2  0
 16 10  1  0
 17 15  1  0
 18 16  2  0
 19 18  1  0
 20 11  1  0
 21 13  1  0
 22 13  1  0
 23 19  1  0
  3  5  2  0
  9 12  2  0
 17 19  2  0
  2  1  1  0
  3  4  1  0
  4  1  2  0
  5  2  1  0
  6  1  1  0
  7  6  1  0
  8  2  1  0
  9  5  1  0
 33 27  1  0
 34 31  2  0
 35 34  1  0
 36 30  1  0
 37 30  2  0
 38 33  2  0
 39 33  1  0
 40 38  1  0
 41 39  2  0
 42 41  1  0
 43 34  1  0
 44 36  1  0
 45 36  1  0
 46 42  1  0
 26 28  2  0
 32 35  2  0
 40 42  2  0
 25 24  1  0
 26 27  1  0
 27 24  2  0
 28 25  1  0
 29 24  1  0
 30 29  1  0
 31 25  1  0
 32 28  1  0
 53 48  2  0
 54 51  1  0
 55 52  1  0
 53 47  1  0
 55 56  1  0
 54 55  1  0
 56 49  1  0
 53 54  1  0
 56 50  2  0
  6 57  1  0
  6 58  1  0
  8 59  1  0
  9 60  1  0
 12 61  1  0
 15 62  1  0
 16 63  1  0
 17 64  1  0
 18 65  1  0
 20 66  1  0
 20 67  1  0
 20 68  1  0
 21 69  1  0
 21 70  1  0
 21 71  1  0
 22 72  1  0
 22 73  1  0
 22 74  1  0
 23 75  1  0
 23 76  1  0
 23 77  1  0
 29 78  1  0
 29 79  1  0
 31 80  1  0
 32 81  1  0
 35 82  1  0
 38 83  1  0
 39 84  1  0
 40 85  1  0
 41 86  1  0
 43 87  1  0
 43 88  1  0
 43 89  1  0
 44 90  1  0
 44 91  1  0
 44 92  1  0
 45 93  1  0
 45 94  1  0
 45 95  1  0
 46 96  1  0
 46 97  1  0
 46 98  1  0
 47 99  1  0
 49100  1  0
 51101  1  0
 52102  1  0
 54103  1  6
 55104  1  6
M  END
> <Uni-Dock RESULT> 
ENERGY=   -5.986  LOWER_BOUND=    3.529  UPPER_BOUND=    6.561
INTER + INTRA:          -5.986
INTER:                  -5.986
INTRA:                   0.000
UNBOUND:                 0.000

$$$$

     RDKit          3D

104107  0  0  0  0  0  0  0  0999 V2000
   48.7513    9.3480   13.6638 C   0  0  0  0  0  0  0  0  0  0  0  0
   49.5220   10.2967   13.0003 N   0  0  0  0  0  0  0  0  0  0  0  0
   49.3336    8.5508   11.6043 N   0  0  0  0  0  0  0  0  0  0  0  0
   48.6094    8.3161   12.7431 C   0  0  0  0  0  0  0  0  0  0  0  0
   49.8896    9.7263   11.7812 C   0  0  0  0  0  0  0  0  0  0  0  0
   48.1490    9.5135   15.0260 C   0  0  0  0  0  0  0  0  0  0  0  0
   49.0562   10.1706   16.0614 C   0  0  0  0  0  0  0  0  0  0  0  0
   49.8990   11.5957   13.3568 C   0  0  0  0  0  0  0  0  0  0  0  0
   50.7377   10.4815   10.9248 C   0  0  0  0  0  0  0  0  0  0  0  0
   47.7558    7.1489   12.8617 C   0  0  0  0  0  0  0  0  0  0  0  0
   50.6819   12.3228   12.5354 C   0  0  0  0  0  0  0  0  0  0  0  0
   51.1196   11.7219   11.2799 C   0  0  0  0  0  0  0  0  0  0  0  0
   50.1903    9.5004   16.5069 N   0  0  0  0  0  0  0  0  0  0  0  0
   48.7521   11.2850   16.5009 O   0  0  0  0  0  0  0  0  0  0  0  0
   47.9045    6.2184   13.8942 C   0  0  0  0  0  0  0  0  0  0  0  0
   46.7695    6.9338   11.8927 C   0  0  0  0  0  0  0  0  0  0  0  0
   47.0625    5.1040   13.9716 C   0  0  0  0  0  0  0  0  0  0  0  0
   45.9287    5.8204   11.9680 C   0  0  0  0  0  0  0  0  0  0  0  0
   46.0733    4.8922   13.0042 C   0  0  0  0  0  0  0  0  0  0  0  0
   51.1282   13.7189   12.8371 C   0  0  0  0  0  0  0  0  0  0  0  0
   50.4551    8.0982   16.2380 C   0  0  0  0  0  0  0  0  0  0  0  0
   50.9487   10.0932   17.5982 C   0  0  0  0  0  0  0  0  0  0  0  0
   45.1528    3.7117   13.0974 C   0  0  0  0  0  0  0  0  0  0  0  0
   49.1726    9.6410   13.7399 C   0  0  0  0  0  0  0  0  0  0  0  0
   50.1752   10.5312   13.3969 N   0  0  0  0  0  0  0  0  0  0  0  0
   48.8365   10.3703   11.6063 N   0  0  0  0  0  0  0  0  0  0  0  0
   48.4003    9.5224   12.5950 C   0  0  0  0  0  0  0  0  0  0  0  0
   49.9093   10.9510   12.0962 C   0  0  0  0  0  0  0  0  0  0  0  0
   49.0361    9.0277   15.0979 C   0  0  0  0  0  0  0  0  0  0  0  0
   50.0149    7.8730   15.3156 C   0  0  0  0  0  0  0  0  0  0  0  0
   51.2607   11.0023   14.1413 C   0  0  0  0  0  0  0  0  0  0  0  0
   50.7971   11.9035   11.5247 C   0  0  0  0  0  0  0  0  0  0  0  0
   47.2290    8.6826   12.4318 C   0  0  0  0  0  0  0  0  0  0  0  0
   52.1009   11.9066   13.6022 C   0  0  0  0  0  0  0  0  0  0  0  0
   51.8419   12.3639   12.2387 C   0  0  0  0  0  0  0  0  0  0  0  0
   49.8654    7.1335   16.4895 N   0  0  0  0  0  0  0  0  0  0  0  0
   50.9104    7.6202   14.5082 O   0  0  0  0  0  0  0  0  0  0  0  0
   46.0525    9.2329   11.9114 C   0  0  0  0  0  0  0  0  0  0  0  0
   47.2561    7.3236   12.7652 C   0  0  0  0  0  0  0  0  0  0  0  0
   44.9063    8.4468   11.7620 C   0  0  0  0  0  0  0  0  0  0  0  0
   46.1102    6.5365   12.6172 C   0  0  0  0  0  0  0  0  0  0  0  0
   44.9278    7.0910   12.1106 C   0  0  0  0  0  0  0  0  0  0  0  0
   53.2944   12.4594   14.3143 C   0  0  0  0  0  0  0  0  0  0  0  0
   50.7219    5.9763   16.7064 C   0  0  0  0  0  0  0  0  0  0  0  0
   48.8216    7.3428   17.4831 C   0  0  0  0  0  0  0  0  0  0  0  0
   43.6920    6.2513   11.9775 C   0  0  0  0  0  0  0  0  0  0  0  0
   50.9845    9.8552   14.4611 O   0  0  0  0  0  0  0  0  0  0  0  0
   51.5267    8.1559   13.1233 O   0  0  0  0  0  0  0  0  0  0  0  0
   46.5128    9.6387   12.9648 O   0  0  0  0  0  0  0  0  0  0  0  0
   48.5937    9.9608   12.2072 O   0  0  0  0  0  0  0  0  0  0  0  0
   49.0404    6.9452   13.4647 O   0  0  0  0  0  0  0  0  0  0  0  0
   47.1705    8.4310   15.1685 O   0  0  0  0  0  0  0  0  0  0  0  0
   50.7158    8.6711   13.8821 C   0  0  0  0  0  0  0  0  0  0  0  0
   49.4104    8.0256   14.3343 C   0  0  1  0  0  0  0  0  0  0  0  0
   48.2706    9.0373   14.4706 C   0  0  1  0  0  0  0  0  0  0  0  0
   47.8604    9.5698   13.1001 C   0  0  0  0  0  0  0  0  0  0  0  0
   47.8103    8.5583   15.4389 H   0  0  0  0  0  0  0  0  0  0  0  0
   47.2511   10.1361   14.9278 H   0  0  0  0  0  0  0  0  0  0  0  0
   49.5327   11.9978   14.2918 H   0  0  0  0  0  0  0  0  0  0  0  0
   51.0531   10.0344    9.9893 H   0  0  0  0  0  0  0  0  0  0  0  0
   51.7639   12.3022   10.6243 H   0  0  0  0  0  0  0  0  0  0  0  0
   48.6807    6.3390   14.6408 H   0  0  0  0  0  0  0  0  0  0  0  0
   46.6532    7.6377   11.0702 H   0  0  0  0  0  0  0  0  0  0  0  0
   47.1928    4.3955   14.7866 H   0  0  0  0  0  0  0  0  0  0  0  0
   45.1658    5.6810   11.2056 H   0  0  0  0  0  0  0  0  0  0  0  0
   52.2214   13.7717   12.8858 H   0  0  0  0  0  0  0  0  0  0  0  0
   50.7342   14.0727   13.7960 H   0  0  0  0  0  0  0  0  0  0  0  0
   50.7817   14.4089   12.0609 H   0  0  0  0  0  0  0  0  0  0  0  0
   50.3247    7.8771   15.1802 H   0  0  0  0  0  0  0  0  0  0  0  0
   51.4859    7.8493   16.5090 H   0  0  0  0  0  0  0  0  0  0  0  0
   49.7648    7.4888   16.8278 H   0  0  0  0  0  0  0  0  0  0  0  0
   50.7924   11.1727   17.6646 H   0  0  0  0  0  0  0  0  0  0  0  0
   52.0146    9.9087   17.4353 H   0  0  0  0  0  0  0  0  0  0  0  0
   50.6341    9.6301   18.5387 H   0  0  0  0  0  0  0  0  0  0  0  0
   45.6180    2.8913   13.6558 H   0  0  0  0  0  0  0  0  0  0  0  0
   44.9089    3.3286   12.0998 H   0  0  0  0  0  0  0  0  0  0  0  0
   44.2266    4.0015   13.6056 H   0  0  0  0  0  0  0  0  0  0  0  0
   49.2190    9.7878   15.8653 H   0  0  0  0  0  0  0  0  0  0  0  0
   48.0124    8.6589   15.2283 H   0  0  0  0  0  0  0  0  0  0  0  0
   51.3907   10.6058   15.1399 H   0  0  0  0  0  0  0  0  0  0  0  0
   50.6051   12.2393   10.5129 H   0  0  0  0  0  0  0  0  0  0  0  0
   52.5200   13.0913   11.8014 H   0  0  0  0  0  0  0  0  0  0  0  0
   46.0267   10.2822   11.6242 H   0  0  0  0  0  0  0  0  0  0  0  0
   48.1726    6.8639   13.1272 H   0  0  0  0  0  0  0  0  0  0  0  0
   44.0003    8.9012   11.3667 H   0  0  0  0  0  0  0  0  0  0  0  0
   46.1501    5.4844   12.8898 H   0  0  0  0  0  0  0  0  0  0  0  0
   54.2143   12.2224   13.7690 H   0  0  0  0  0  0  0  0  0  0  0  0
   53.2159   13.5474   14.4067 H   0  0  0  0  0  0  0  0  0  0  0  0
   53.3914   12.0477   15.3247 H   0  0  0  0  0  0  0  0  0  0  0  0
   50.0962    5.0790   16.7482 H   0  0  0  0  0  0  0  0  0  0  0  0
   51.4653    5.8502   15.9145 H   0  0  0  0  0  0  0  0  0  0  0  0
   51.2434    6.1048   17.6600 H   0  0  0  0  0  0  0  0  0  0  0  0
   48.0628    6.5637   17.3584 H   0  0  0  0  0  0  0  0  0  0  0  0
   48.3477    8.3212   17.3953 H   0  0  0  0  0  0  0  0  0  0  0  0
   49.2628    7.2666   18.4821 H   0  0  0  0  0  0  0  0  0  0  0  0
   43.0738    6.5920   11.1400 H   0  0  0  0  0  0  0  0  0  0  0  0
   43.1044    6.3068   12.8988 H   0  0  0  0  0  0  0  0  0  0  0  0
   43.9493    5.2040   11.7864 H   0  0  0  0  0  0  0  0  0  0  0  0
   51.8434   10.1244   14.0673 H   0  0  0  0  0  0  0  0  0  0  0  0
   46.3882    9.9667   12.0474 H   0  0  0  0  0  0  0  0  0  0  0  0
   49.8683    6.4729   13.2460 H   0  0  0  0  0  0  0  0  0  0  0  0
   46.3617    8.7834   14.7434 H   0  0  0  0  0  0  0  0  0  0  0  0
   49.6077    7.5694   15.3125 H   0  0  0  0  0  0  0  0  0  0  0  0
   48.5651    9.9026   15.0732 H   0  0  0  0  0  0  0  0  0  0  0  0
 10  4  1  0
 11  8  2  0
 12 11  1  0
 13  7  1  0
 14  7  2  0
 15 10  2  0
 16 10  1  0
 17 15  1  0
 18 16  2  0
 19 18  1  0
 20 11  1  0
 21 13  1  0
 22 13  1  0
 23 19  1  0
  3  5  2  0
  9 12  2  0
 17 19  2  0
  2  1  1  0
  3  4  1  0
  4  1  2  0
  5  2  1  0
  6  1  1  0
  7  6  1  0
  8  2  1  0
  9  5  1  0
 33 27  1  0
 34 31  2  0
 35 34  1  0
 36 30  1  0
 37 30  2  0
 38 33  2  0
 39 33  1  0
 40 38  1  0
 41 39  2  0
 42 41  1  0
 43 34  1  0
 44 36  1  0
 45 36  1  0
 46 42  1  0
 26 28  2  0
 32 35  2  0
 40 42  2  0
 25 24  1  0
 26 27  1  0
 27 24  2  0
 28 25  1  0
 29 24  1  0
 30 29  1  0
 31 25  1  0
 32 28  1  0
 53 48  2  0
 54 51  1  0
 55 52  1  0
 53 47  1  0
 55 56  1  0
 54 55  1  0
 56 49  1  0
 53 54  1  0
 56 50  2  0
  6 57  1  0
  6 58  1  0
  8 59  1  0
  9 60  1  0
 12 61  1  0
 15 62  1  0
 16 63  1  0
 17 64  1  0
 18 65  1  0
 20 66  1  0
 20 67  1  0
 20 68  1  0
 21 69  1  0
 21 70  1  0
 21 71  1  0
 22 72  1  0
 22 73  1  0
 22 74  1  0
 23 75  1  0
 23 76  1  0
 23 77  1  0
 29 78  1  0
 29 79  1  0
 31 80  1  0
 32 81  1  0
 35 82  1  0
 38 83  1  0
 39 84  1  0
 40 85  1  0
 41 86  1  0
 43 87  1  0
 43 88  1  0
 43 89  1  0
 44 90  1  0
 44 91  1  0
 44 92  1  0
 45 93  1  0
 45 94  1  0
 45 95  1  0
 46 96  1  0
 46 97  1  0
 46 98  1  0
 47 99  1  0
 49100  1  0
 51101  1  0
 52102  1  0
 54103  1  6
 55104  1  6
M  END
> <Uni-Dock RESULT> 
ENERGY=   -5.635  LOWER_BOUND=    2.362  UPPER_BOUND=    4.878
INTER + INTRA:          -5.635
INTER:                  -5.635
INTRA:                   0.000
UNBOUND:                 0.000

$$$$

     RDKit          3D

104107  0  0  0  0  0  0  0  0999 V2000
   49.1978    9.4600   19.1415 C   0  0  0  0  0  0  0  0  0  0  0  0
   48.6667   10.5694   19.7908 N   0  0  0  0  0  0  0  0  0  0  0  0
   46.9171    9.3503   19.0942 N   0  0  0  0  0  0  0  0  0  0  0  0
   48.0858    8.7066   18.7836 C   0  0  0  0  0  0  0  0  0  0  0  0
   47.2798   10.4697   19.6752 C   0  0  0  0  0  0  0  0  0  0  0  0
   50.6574    9.1540   18.9932 C   0  0  0  0  0  0  0  0  0  0  0  0
   51.5398   10.3501   18.6506 C   0  0  0  0  0  0  0  0  0  0  0  0
   49.2815   11.6209   20.4784 C   0  0  0  0  0  0  0  0  0  0  0  0
   46.4920   11.5229   20.2166 C   0  0  0  0  0  0  0  0  0  0  0  0
   48.0788    7.3665   18.2277 C   0  0  0  0  0  0  0  0  0  0  0  0
   48.5355   12.6071   21.0143 C   0  0  0  0  0  0  0  0  0  0  0  0
   47.0862   12.5464   20.8569 C   0  0  0  0  0  0  0  0  0  0  0  0
   51.4145   10.9648   17.4096 N   0  0  0  0  0  0  0  0  0  0  0  0
   52.3679   10.7391   19.4816 O   0  0  0  0  0  0  0  0  0  0  0  0
   48.6879    7.0628   17.0067 C   0  0  0  0  0  0  0  0  0  0  0  0
   47.4149    6.3510   18.9248 C   0  0  0  0  0  0  0  0  0  0  0  0
   48.6565    5.7579   16.5035 C   0  0  0  0  0  0  0  0  0  0  0  0
   47.3816    5.0474   18.4226 C   0  0  0  0  0  0  0  0  0  0  0  0
   47.9959    4.7419   17.2038 C   0  0  0  0  0  0  0  0  0  0  0  0
   49.1105   13.7651   21.7676 C   0  0  0  0  0  0  0  0  0  0  0  0
   50.6642   10.3991   16.3025 C   0  0  0  0  0  0  0  0  0  0  0  0
   52.3706   12.0060   17.0640 C   0  0  0  0  0  0  0  0  0  0  0  0
   47.9809    3.3367   16.6796 C   0  0  0  0  0  0  0  0  0  0  0  0
   49.2366    9.9774   19.1397 C   0  0  0  0  0  0  0  0  0  0  0  0
   48.9122   11.2732   19.5019 N   0  0  0  0  0  0  0  0  0  0  0  0
   47.6197    9.9293   20.7461 N   0  0  0  0  0  0  0  0  0  0  0  0
   48.3815    9.1794   19.8835 C   0  0  0  0  0  0  0  0  0  0  0  0
   47.9362   11.1794   20.4906 C   0  0  0  0  0  0  0  0  0  0  0  0
   50.3200    9.6343   18.1664 C   0  0  0  0  0  0  0  0  0  0  0  0
   49.8834    9.8371   16.7148 C   0  0  0  0  0  0  0  0  0  0  0  0
   49.4225   12.4938   19.0501 C   0  0  0  0  0  0  0  0  0  0  0  0
   47.4563   12.3956   21.0497 C   0  0  0  0  0  0  0  0  0  0  0  0
   48.3100    7.7311   19.8488 C   0  0  0  0  0  0  0  0  0  0  0  0
   48.9707   13.6465   19.5807 C   0  0  0  0  0  0  0  0  0  0  0  0
   47.9474   13.5740   20.6213 C   0  0  0  0  0  0  0  0  0  0  0  0
   50.7647    9.4000   15.7252 N   0  0  0  0  0  0  0  0  0  0  0  0
   48.8170   10.3833   16.4281 O   0  0  0  0  0  0  0  0  0  0  0  0
   48.3427    7.0098   21.0474 C   0  0  0  0  0  0  0  0  0  0  0  0
   48.1876    7.0376   18.6394 C   0  0  0  0  0  0  0  0  0  0  0  0
   48.2932    5.6128   21.0370 C   0  0  0  0  0  0  0  0  0  0  0  0
   48.1389    5.6404   18.6276 C   0  0  0  0  0  0  0  0  0  0  0  0
   48.1871    4.9175   19.8264 C   0  0  0  0  0  0  0  0  0  0  0  0
   49.4459   14.9992   19.1550 C   0  0  0  0  0  0  0  0  0  0  0  0
   50.3616    9.4994   14.3297 C   0  0  0  0  0  0  0  0  0  0  0  0
   52.0291    8.7209   15.9713 C   0  0  0  0  0  0  0  0  0  0  0  0
   48.1615    3.4178   19.8098 C   0  0  0  0  0  0  0  0  0  0  0  0
   49.4394   11.6619   18.1545 O   0  0  0  0  0  0  0  0  0  0  0  0
   47.5482   11.0821   17.1256 O   0  0  0  0  0  0  0  0  0  0  0  0
   49.2921    7.6973   20.7123 O   0  0  0  0  0  0  0  0  0  0  0  0
   48.1088    9.5500   20.2937 O   0  0  0  0  0  0  0  0  0  0  0  0
   48.1967    8.3737   17.2143 O   0  0  0  0  0  0  0  0  0  0  0  0
   50.7339    7.7578   18.5524 O   0  0  0  0  0  0  0  0  0  0  0  0
   48.6269   10.7461   17.5970 C   0  0  0  0  0  0  0  0  0  0  0  0
   49.2122    9.3400   17.5234 C   0  0  1  0  0  0  0  0  0  0  0  0
   49.9721    8.9522   18.7936 C   0  0  1  0  0  0  0  0  0  0  0  0
   49.0087    8.7943   19.9671 C   0  0  0  0  0  0  0  0  0  0  0  0
   50.8356    8.3820   18.2383 H   0  0  0  0  0  0  0  0  0  0  0  0
   51.0159    8.7374   19.9426 H   0  0  0  0  0  0  0  0  0  0  0  0
   50.3584   11.6077   20.5793 H   0  0  0  0  0  0  0  0  0  0  0  0
   45.4154   11.4690   20.1049 H   0  0  0  0  0  0  0  0  0  0  0  0
   46.4852   13.3498   21.2754 H   0  0  0  0  0  0  0  0  0  0  0  0
   49.1809    7.8341   16.4267 H   0  0  0  0  0  0  0  0  0  0  0  0
   46.9176    6.5743   19.8673 H   0  0  0  0  0  0  0  0  0  0  0  0
   49.1416    5.5431   15.5539 H   0  0  0  0  0  0  0  0  0  0  0  0
   46.8646    4.2758   18.9881 H   0  0  0  0  0  0  0  0  0  0  0  0
   48.8587   14.7097   21.2729 H   0  0  0  0  0  0  0  0  0  0  0  0
   50.2022   13.7043   21.8340 H   0  0  0  0  0  0  0  0  0  0  0  0
   48.7169   13.7926   22.7888 H   0  0  0  0  0  0  0  0  0  0  0  0
   49.6733   10.0873   16.6276 H   0  0  0  0  0  0  0  0  0  0  0  0
   50.5392   11.1440   15.5105 H   0  0  0  0  0  0  0  0  0  0  0  0
   51.2096    9.5364   15.9101 H   0  0  0  0  0  0  0  0  0  0  0  0
   52.8070   12.4702   17.9518 H   0  0  0  0  0  0  0  0  0  0  0  0
   51.8615   12.7817   16.4844 H   0  0  0  0  0  0  0  0  0  0  0  0
   53.1720   11.5638   16.4639 H   0  0  0  0  0  0  0  0  0  0  0  0
   48.1030    3.3202   15.5905 H   0  0  0  0  0  0  0  0  0  0  0  0
   47.0274    2.8464   16.9072 H   0  0  0  0  0  0  0  0  0  0  0  0
   48.7959    2.7619   17.1330 H   0  0  0  0  0  0  0  0  0  0  0  0
   51.1978   10.2616   18.3563 H   0  0  0  0  0  0  0  0  0  0  0  0
   50.6176    8.5891   18.3082 H   0  0  0  0  0  0  0  0  0  0  0  0
   50.1701   12.4633   18.2682 H   0  0  0  0  0  0  0  0  0  0  0  0
   46.6957   12.3401   21.8190 H   0  0  0  0  0  0  0  0  0  0  0  0
   47.5801   14.5028   21.0486 H   0  0  0  0  0  0  0  0  0  0  0  0
   48.4115    7.5388   21.9958 H   0  0  0  0  0  0  0  0  0  0  0  0
   48.1132    7.5792   17.6995 H   0  0  0  0  0  0  0  0  0  0  0  0
   48.3326    5.0745   21.9816 H   0  0  0  0  0  0  0  0  0  0  0  0
   48.0519    5.1204   17.6763 H   0  0  0  0  0  0  0  0  0  0  0  0
   48.6153   15.5947   18.7611 H   0  0  0  0  0  0  0  0  0  0  0  0
   49.8864   15.5350   20.0020 H   0  0  0  0  0  0  0  0  0  0  0  0
   50.2090   14.9339   18.3719 H   0  0  0  0  0  0  0  0  0  0  0  0
   50.3027    8.4907   13.9083 H   0  0  0  0  0  0  0  0  0  0  0  0
   49.3915    9.9890   14.2070 H   0  0  0  0  0  0  0  0  0  0  0  0
   51.1177   10.0788   13.7908 H   0  0  0  0  0  0  0  0  0  0  0  0
   51.8935    7.6528   15.7734 H   0  0  0  0  0  0  0  0  0  0  0  0
   52.3853    8.8530   16.9936 H   0  0  0  0  0  0  0  0  0  0  0  0
   52.7866    9.1250   15.2920 H   0  0  0  0  0  0  0  0  0  0  0  0
   47.6825    3.0231   20.7122 H   0  0  0  0  0  0  0  0  0  0  0  0
   49.1827    3.0297   19.7506 H   0  0  0  0  0  0  0  0  0  0  0  0
   47.5928    3.0457   18.9509 H   0  0  0  0  0  0  0  0  0  0  0  0
   48.9192   12.4946   18.1214 H   0  0  0  0  0  0  0  0  0  0  0  0
   48.5956    7.7010   21.4049 H   0  0  0  0  0  0  0  0  0  0  0  0
   47.6165    8.7894   16.5457 H   0  0  0  0  0  0  0  0  0  0  0  0
   50.6873    7.2425   19.3839 H   0  0  0  0  0  0  0  0  0  0  0  0
   49.9037    9.3315   16.6716 H   0  0  0  0  0  0  0  0  0  0  0  0
   50.7008    9.7172   19.0807 H   0  0  0  0  0  0  0  0  0  0  0  0
 10  4  1  0
 11  8  2  0
 12 11  1  0
 13  7  1  0
 14  7  2  0
 15 10  2  0
 16 10  1  0
 17 15  1  0
 18 16  2  0
 19 18  1  0
 20 11  1  0
 21 13  1  0
 22 13  1  0
 23 19  1  0
  3  5  2  0
  9 12  2  0
 17 19  2  0
  2  1  1  0
  3  4  1  0
  4  1  2  0
  5  2  1  0
  6  1  1  0
  7  6  1  0
  8  2  1  0
  9  5  1  0
 33 27  1  0
 34 31  2  0
 35 34  1  0
 36 30  1  0
 37 30  2  0
 38 33  2  0
 39 33  1  0
 40 38  1  0
 41 39  2  0
 42 41  1  0
 43 34  1  0
 44 36  1  0
 45 36  1  0
 46 42  1  0
 26 28  2  0
 32 35  2  0
 40 42  2  0
 25 24  1  0
 26 27  1  0
 27 24  2  0
 28 25  1  0
 29 24  1  0
 30 29  1  0
 31 25  1  0
 32 28  1  0
 53 48  2  0
 54 51  1  0
 55 52  1  0
 53 47  1  0
 55 56  1  0
 54 55  1  0
 56 49  1  0
 53 54  1  0
 56 50  2  0
  6 57  1  0
  6 58  1  0
  8 59  1  0
  9 60  1  0
 12 61  1  0
 15 62  1  0
 16 63  1  0
 17 64  1  0
 18 65  1  0
 20 66  1  0
 20 67  1  0
 20 68  1  0
 21 69  1  0
 21 70  1  0
 21 71  1  0
 22 72  1  0
 22 73  1  0
 22 74  1  0
 23 75  1  0
 23 76  1  0
 23 77  1  0
 29 78  1  0
 29 79  1  0
 31 80  1  0
 32 81  1  0
 35 82  1  0
 38 83  1  0
 39 84  1  0
 40 85  1  0
 41 86  1  0
 43 87  1  0
 43 88  1  0
 43 89  1  0
 44 90  1  0
 44 91  1  0
 44 92  1  0
 45 93  1  0
 45 94  1  0
 45 95  1  0
 46 96  1  0
 46 97  1  0
 46 98  1  0
 47 99  1  0
 49100  1  0
 51101  1  0
 52102  1  0
 54103  1  6
 55104  1  6
M  END
> <Uni-Dock RESULT> 
ENERGY=   -5.568  LOWER_BOUND=    2.348  UPPER_BOUND=    5.713
INTER + INTRA:          -5.568
INTER:                  -5.568
INTRA:                   0.000
UNBOUND:                 0.000

$$$$

     RDKit          3D

104107  0  0  0  0  0  0  0  0999 V2000
   49.3988    7.4125   19.0169 C   0  0  0  0  0  0  0  0  0  0  0  0
   48.7107    6.3296   18.4800 N   0  0  0  0  0  0  0  0  0  0  0  0
   47.6523    6.8667   20.3837 N   0  0  0  0  0  0  0  0  0  0  0  0
   48.6756    7.7485   20.1556 C   0  0  0  0  0  0  0  0  0  0  0  0
   47.6992    6.0136   19.3875 C   0  0  0  0  0  0  0  0  0  0  0  0
   50.5845    8.0858   18.3950 C   0  0  0  0  0  0  0  0  0  0  0  0
   51.6180    7.1454   17.7833 C   0  0  0  0  0  0  0  0  0  0  0  0
   48.8781    5.6302   17.2803 C   0  0  0  0  0  0  0  0  0  0  0  0
   46.8735    4.8928   19.0961 C   0  0  0  0  0  0  0  0  0  0  0  0
   48.8628    8.9142   20.9988 C   0  0  0  0  0  0  0  0  0  0  0  0
   48.0805    4.5833   16.9902 C   0  0  0  0  0  0  0  0  0  0  0  0
   47.0512    4.2056   17.9529 C   0  0  0  0  0  0  0  0  0  0  0  0
   52.3659    6.3135   18.6095 N   0  0  0  0  0  0  0  0  0  0  0  0
   51.7847    7.1560   16.5587 O   0  0  0  0  0  0  0  0  0  0  0  0
   50.0603    9.1590   21.6771 C   0  0  0  0  0  0  0  0  0  0  0  0
   47.7979    9.8075   21.1602 C   0  0  0  0  0  0  0  0  0  0  0  0
   50.1999   10.2938   22.4831 C   0  0  0  0  0  0  0  0  0  0  0  0
   47.9355   10.9406   21.9662 C   0  0  0  0  0  0  0  0  0  0  0  0
   49.1354   11.1890   22.6403 C   0  0  0  0  0  0  0  0  0  0  0  0
   48.1885    3.7835   15.7300 C   0  0  0  0  0  0  0  0  0  0  0  0
   52.4112    6.4433   20.0550 C   0  0  0  0  0  0  0  0  0  0  0  0
   53.4404    5.5395   18.0062 C   0  0  0  0  0  0  0  0  0  0  0  0
   49.2892   12.4194   23.4841 C   0  0  0  0  0  0  0  0  0  0  0  0
   49.4893    6.9349   18.8357 C   0  0  0  0  0  0  0  0  0  0  0  0
   49.1617    5.6841   18.3422 N   0  0  0  0  0  0  0  0  0  0  0  0
   47.2318    6.8060   18.5459 N   0  0  0  0  0  0  0  0  0  0  0  0
   48.2725    7.5774   19.0027 C   0  0  0  0  0  0  0  0  0  0  0  0
   47.7797    5.6707   18.1728 C   0  0  0  0  0  0  0  0  0  0  0  0
   50.8946    7.3934   19.0678 C   0  0  0  0  0  0  0  0  0  0  0  0
   51.4858    6.8260   20.3591 C   0  0  0  0  0  0  0  0  0  0  0  0
   49.9784    4.5969   18.0177 C   0  0  0  0  0  0  0  0  0  0  0  0
   47.1997    4.4857   17.6424 C   0  0  0  0  0  0  0  0  0  0  0  0
   48.0724    8.9179   19.5190 C   0  0  0  0  0  0  0  0  0  0  0  0
   49.4307    3.4747   17.5126 C   0  0  0  0  0  0  0  0  0  0  0  0
   47.9821    3.4369   17.3240 C   0  0  0  0  0  0  0  0  0  0  0  0
   52.7341    7.3137   20.7477 N   0  0  0  0  0  0  0  0  0  0  0  0
   50.9030    5.9608   21.0144 O   0  0  0  0  0  0  0  0  0  0  0  0
   47.2671    9.8169   18.8111 C   0  0  0  0  0  0  0  0  0  0  0  0
   48.6523    9.3270   20.7253 C   0  0  0  0  0  0  0  0  0  0  0  0
   47.0746   11.1195   19.2805 C   0  0  0  0  0  0  0  0  0  0  0  0
   48.4613   10.6297   21.1954 C   0  0  0  0  0  0  0  0  0  0  0  0
   47.6677   11.5346   20.4789 C   0  0  0  0  0  0  0  0  0  0  0  0
   50.2192    2.2574   17.1472 C   0  0  0  0  0  0  0  0  0  0  0  0
   53.3043    6.8631   22.0093 C   0  0  0  0  0  0  0  0  0  0  0  0
   53.4801    8.3529   20.0520 C   0  0  0  0  0  0  0  0  0  0  0  0
   47.4858   12.9398   20.9713 C   0  0  0  0  0  0  0  0  0  0  0  0
   50.4543    5.2304   18.9485 O   0  0  0  0  0  0  0  0  0  0  0  0
   49.5673    5.0664   20.9875 O   0  0  0  0  0  0  0  0  0  0  0  0
   48.2892    9.3766   18.3133 O   0  0  0  0  0  0  0  0  0  0  0  0
   47.8484    7.2226   18.7302 O   0  0  0  0  0  0  0  0  0  0  0  0
   49.7019    7.8200   21.3915 O   0  0  0  0  0  0  0  0  0  0  0  0
   50.7580    9.3479   19.1205 O   0  0  0  0  0  0  0  0  0  0  0  0
   50.0686    5.7690   20.1193 C   0  0  0  0  0  0  0  0  0  0  0  0
   50.4053    7.2476   20.2789 C   0  0  1  0  0  0  0  0  0  0  0  0
   50.1560    8.0487   18.9993 C   0  0  1  0  0  0  0  0  0  0  0  0
   48.6611    8.1317   18.7019 C   0  0  0  0  0  0  0  0  0  0  0  0
   51.1044    8.7327   19.1083 H   0  0  0  0  0  0  0  0  0  0  0  0
   50.2216    8.7454   17.5970 H   0  0  0  0  0  0  0  0  0  0  0  0
   49.6463    5.9630   16.5953 H   0  0  0  0  0  0  0  0  0  0  0  0
   46.1045    4.6215   19.8100 H   0  0  0  0  0  0  0  0  0  0  0  0
   46.4179    3.3516   17.7265 H   0  0  0  0  0  0  0  0  0  0  0  0
   50.8920    8.4685   21.5994 H   0  0  0  0  0  0  0  0  0  0  0  0
   46.8513    9.6214   20.6555 H   0  0  0  0  0  0  0  0  0  0  0  0
   51.1425   10.4672   22.9975 H   0  0  0  0  0  0  0  0  0  0  0  0
   47.0943   11.6222   22.0686 H   0  0  0  0  0  0  0  0  0  0  0  0
   48.4110    2.7351   15.9571 H   0  0  0  0  0  0  0  0  0  0  0  0
   48.9841    4.1594   15.0777 H   0  0  0  0  0  0  0  0  0  0  0  0
   47.2503    3.8251   15.1673 H   0  0  0  0  0  0  0  0  0  0  0  0
   51.4065    6.5157   20.4674 H   0  0  0  0  0  0  0  0  0  0  0  0
   52.8943    5.5670   20.4984 H   0  0  0  0  0  0  0  0  0  0  0  0
   52.9785    7.3423   20.3116 H   0  0  0  0  0  0  0  0  0  0  0  0
   53.2774    5.3790   16.9376 H   0  0  0  0  0  0  0  0  0  0  0  0
   53.4974    4.5632   18.4966 H   0  0  0  0  0  0  0  0  0  0  0  0
   54.3834    6.0773   18.1450 H   0  0  0  0  0  0  0  0  0  0  0  0
   50.0610   12.2793   24.2496 H   0  0  0  0  0  0  0  0  0  0  0  0
   48.3537   12.6537   24.0049 H   0  0  0  0  0  0  0  0  0  0  0  0
   49.5704   13.2701   22.8537 H   0  0  0  0  0  0  0  0  0  0  0  0
   51.5270    7.0814   18.2295 H   0  0  0  0  0  0  0  0  0  0  0  0
   50.9161    8.4881   19.1148 H   0  0  0  0  0  0  0  0  0  0  0  0
   51.0406    4.6994   18.1978 H   0  0  0  0  0  0  0  0  0  0  0  0
   46.1255    4.4584   17.5058 H   0  0  0  0  0  0  0  0  0  0  0  0
   47.5385    2.5317   16.9191 H   0  0  0  0  0  0  0  0  0  0  0  0
   46.7897    9.5025   17.8852 H   0  0  0  0  0  0  0  0  0  0  0  0
   49.2433    8.6310   21.3157 H   0  0  0  0  0  0  0  0  0  0  0  0
   46.4541   11.8033   18.7053 H   0  0  0  0  0  0  0  0  0  0  0  0
   48.9276   10.9300   22.1310 H   0  0  0  0  0  0  0  0  0  0  0  0
   49.8913    1.3933   17.7348 H   0  0  0  0  0  0  0  0  0  0  0  0
   50.0931    2.0234   16.0852 H   0  0  0  0  0  0  0  0  0  0  0  0
   51.2901    2.3970   17.3303 H   0  0  0  0  0  0  0  0  0  0  0  0
   53.4056    7.7248   22.6768 H   0  0  0  0  0  0  0  0  0  0  0  0
   52.6871    6.1069   22.5024 H   0  0  0  0  0  0  0  0  0  0  0  0
   54.2916    6.4349   21.8103 H   0  0  0  0  0  0  0  0  0  0  0  0
   53.3758    9.2882   20.6112 H   0  0  0  0  0  0  0  0  0  0  0  0
   53.1330    8.5067   19.0296 H   0  0  0  0  0  0  0  0  0  0  0  0
   54.5359    8.0660   20.0136 H   0  0  0  0  0  0  0  0  0  0  0  0
   46.5072   13.3350   20.6785 H   0  0  0  0  0  0  0  0  0  0  0  0
   48.2676   13.5828   20.5562 H   0  0  0  0  0  0  0  0  0  0  0  0
   47.5391   12.9812   22.0645 H   0  0  0  0  0  0  0  0  0  0  0  0
   50.1686    4.2926   19.0111 H   0  0  0  0  0  0  0  0  0  0  0  0
   47.3192    9.2981   18.1804 H   0  0  0  0  0  0  0  0  0  0  0  0
   49.7181    7.1480   22.1018 H   0  0  0  0  0  0  0  0  0  0  0  0
   50.1441    9.9662   18.6734 H   0  0  0  0  0  0  0  0  0  0  0  0
   51.4703    7.3014   20.5374 H   0  0  0  0  0  0  0  0  0  0  0  0
   50.6283    7.5818   18.1289 H   0  0  0  0  0  0  0  0  0  0  0  0
 10  4  1  0
 11  8  2  0
 12 11  1  0
 13  7  1  0
 14  7  2  0
 15 10  2  0
 16 10  1  0
 17 15  1  0
 18 16  2  0
 19 18  1  0
 20 11  1  0
 21 13  1  0
 22 13  1  0
 23 19  1  0
  3  5  2  0
  9 12  2  0
 17 19  2  0
  2  1  1  0
  3  4  1  0
  4  1  2  0
  5  2  1  0
  6  1  1  0
  7  6  1  0
  8  2  1  0
  9  5  1  0
 33 27  1  0
 34 31  2  0
 35 34  1  0
 36 30  1  0
 37 30  2  0
 38 33  2  0
 39 33  1  0
 40 38  1  0
 41 39  2  0
 42 41  1  0
 43 34  1  0
 44 36  1  0
 45 36  1  0
 46 42  1  0
 26 28  2  0
 32 35  2  0
 40 42  2  0
 25 24  1  0
 26 27  1  0
 27 24  2  0
 28 25  1  0
 29 24  1  0
 30 29  1  0
 31 25  1  0
 32 28  1  0
 53 48  2  0
 54 51  1  0
 55 52  1  0
 53 47  1  0
 55 56  1  0
 54 55  1  0
 56 49  1  0
 53 54  1  0
 56 50  2  0
  6 57  1  0
  6 58  1  0
  8 59  1  0
  9 60  1  0
 12 61  1  0
 15 62  1  0
 16 63  1  0
 17 64  1  0
 18 65  1  0
 20 66  1  0
 20 67  1  0
 20 68  1  0
 21 69  1  0
 21 70  1  0
 21 71  1  0
 22 72  1  0
 22 73  1  0
 22 74  1  0
 23 75  1  0
 23 76  1  0
 23 77  1  0
 29 78  1  0
 29 79  1  0
 31 80  1  0
 32 81  1  0
 35 82  1  0
 38 83  1  0
 39 84  1  0
 40 85  1  0
 41 86  1  0
 43 87  1  0
 43 88  1  0
 43 89  1  0
 44 90  1  0
 44 91  1  0
 44 92  1  0
 45 93  1  0
 45 94  1  0
 45 95  1  0
 46 96  1  0
 46 97  1  0
 46 98  1  0
 47 99  1  0
 49100  1  0
 51101  1  0
 52102  1  0
 54103  1  6
 55104  1  6
M  END
> <Uni-Dock RESULT> 
ENERGY=   -5.255  LOWER_BOUND=    3.587  UPPER_BOUND=    4.722
INTER + INTRA:          -5.255
INTER:                  -5.255
INTRA:                   0.000
UNBOUND:                 0.000

$$$$

     RDKit          3D

104107  0  0  0  0  0  0  0  0999 V2000
   49.3352   12.6297   18.7031 C   0  0  0  0  0  0  0  0  0  0  0  0
   48.4469   11.7407   19.2987 N   0  0  0  0  0  0  0  0  0  0  0  0
   47.2063   13.4320   18.5032 N   0  0  0  0  0  0  0  0  0  0  0  0
   48.5217   13.6245   18.1729 C   0  0  0  0  0  0  0  0  0  0  0  0
   47.1801   12.3158   19.1928 C   0  0  0  0  0  0  0  0  0  0  0  0
   50.8180   12.4396   18.5977 C   0  0  0  0  0  0  0  0  0  0  0  0
   51.4926   11.8898   19.8504 C   0  0  0  0  0  0  0  0  0  0  0  0
   48.6479   10.4892   19.8902 C   0  0  0  0  0  0  0  0  0  0  0  0
   46.0860   11.6223   19.7801 C   0  0  0  0  0  0  0  0  0  0  0  0
   48.9245   14.7119   17.3008 C   0  0  0  0  0  0  0  0  0  0  0  0
   47.6085    9.8185   20.4251 C   0  0  0  0  0  0  0  0  0  0  0  0
   46.2845   10.4295   20.3704 C   0  0  0  0  0  0  0  0  0  0  0  0
   51.5482   12.6694   21.0007 N   0  0  0  0  0  0  0  0  0  0  0  0
   51.9970   10.7621   19.8114 O   0  0  0  0  0  0  0  0  0  0  0  0
   49.8599   15.6740   17.6923 C   0  0  0  0  0  0  0  0  0  0  0  0
   48.3343   14.8158   16.0364 C   0  0  0  0  0  0  0  0  0  0  0  0
   50.2196   16.7089   16.8225 C   0  0  0  0  0  0  0  0  0  0  0  0
   48.6915   15.8499   15.1671 C   0  0  0  0  0  0  0  0  0  0  0  0
   49.6318   16.8094   15.5562 C   0  0  0  0  0  0  0  0  0  0  0  0
   47.7340    8.4754   21.0728 C   0  0  0  0  0  0  0  0  0  0  0  0
   51.2206   14.0837   21.0318 C   0  0  0  0  0  0  0  0  0  0  0  0
   52.3251   12.1713   22.1258 C   0  0  0  0  0  0  0  0  0  0  0  0
   50.0326   17.9034   14.6117 C   0  0  0  0  0  0  0  0  0  0  0  0
   49.2663   12.3778   19.1514 C   0  0  0  0  0  0  0  0  0  0  0  0
   48.6053   11.5749   20.0646 N   0  0  0  0  0  0  0  0  0  0  0  0
   47.3539   11.5754   18.2049 N   0  0  0  0  0  0  0  0  0  0  0  0
   48.4389   12.4014   18.0395 C   0  0  0  0  0  0  0  0  0  0  0  0
   47.4597   11.1050   19.4278 C   0  0  0  0  0  0  0  0  0  0  0  0
   50.5998   13.0053   19.4105 C   0  0  0  0  0  0  0  0  0  0  0  0
   50.4956   14.2483   20.2952 C   0  0  0  0  0  0  0  0  0  0  0  0
   48.9484   11.2202   21.3725 C   0  0  0  0  0  0  0  0  0  0  0  0
   46.6198   10.2248   20.1639 C   0  0  0  0  0  0  0  0  0  0  0  0
   48.6765   13.1279   16.8069 C   0  0  0  0  0  0  0  0  0  0  0  0
   48.1552   10.3844   22.0701 C   0  0  0  0  0  0  0  0  0  0  0  0
   46.9476    9.8764   21.4228 C   0  0  0  0  0  0  0  0  0  0  0  0
   51.6605   14.9962   20.4702 N   0  0  0  0  0  0  0  0  0  0  0  0
   49.4417   14.5638   20.8498 O   0  0  0  0  0  0  0  0  0  0  0  0
   48.5652   12.4622   15.5812 C   0  0  0  0  0  0  0  0  0  0  0  0
   48.9954   14.4905   16.8155 C   0  0  0  0  0  0  0  0  0  0  0  0
   48.8072   13.1378   14.3815 C   0  0  0  0  0  0  0  0  0  0  0  0
   49.2385   15.1672   15.6165 C   0  0  0  0  0  0  0  0  0  0  0  0
   49.1422   14.4972   14.3903 C   0  0  0  0  0  0  0  0  0  0  0  0
   48.4316    9.9574   23.4766 C   0  0  0  0  0  0  0  0  0  0  0  0
   51.5957   16.2306   21.2394 C   0  0  0  0  0  0  0  0  0  0  0  0
   52.9393   14.7146   19.8330 C   0  0  0  0  0  0  0  0  0  0  0  0
   49.4294   15.2184   13.1067 C   0  0  0  0  0  0  0  0  0  0  0  0
   49.3518   12.3442   21.1111 O   0  0  0  0  0  0  0  0  0  0  0  0
   47.9263   14.0565   21.0259 O   0  0  0  0  0  0  0  0  0  0  0  0
   49.4057   12.1225   16.3963 O   0  0  0  0  0  0  0  0  0  0  0  0
   48.0050   11.9741   18.1352 O   0  0  0  0  0  0  0  0  0  0  0  0
   49.0751   15.0440   18.6874 O   0  0  0  0  0  0  0  0  0  0  0  0
   51.2835   13.4318   17.6238 O   0  0  0  0  0  0  0  0  0  0  0  0
   48.9041   13.4864   20.5593 C   0  0  0  0  0  0  0  0  0  0  0  0
   49.7652   14.0205   19.4199 C   0  0  1  0  0  0  0  0  0  0  0  0
   50.2579   12.9129   18.4862 C   0  0  1  0  0  0  0  0  0  0  0  0
   49.0925   12.3160   17.7015 C   0  0  0  0  0  0  0  0  0  0  0  0
   51.3281   13.3689   18.3258 H   0  0  0  0  0  0  0  0  0  0  0  0
   51.0136   11.7363   17.7788 H   0  0  0  0  0  0  0  0  0  0  0  0
   49.6475   10.0758   19.8889 H   0  0  0  0  0  0  0  0  0  0  0  0
   45.1030   12.0760   19.7292 H   0  0  0  0  0  0  0  0  0  0  0  0
   45.4486    9.8960   20.8156 H   0  0  0  0  0  0  0  0  0  0  0  0
   50.3098   15.6403   18.6777 H   0  0  0  0  0  0  0  0  0  0  0  0
   47.5887   14.0868   15.7231 H   0  0  0  0  0  0  0  0  0  0  0  0
   50.9535   17.4436   17.1460 H   0  0  0  0  0  0  0  0  0  0  0  0
   48.2226   15.9032   14.1874 H   0  0  0  0  0  0  0  0  0  0  0  0
   47.4213    8.5229   22.1217 H   0  0  0  0  0  0  0  0  0  0  0  0
   48.7657    8.1081   21.0488 H   0  0  0  0  0  0  0  0  0  0  0  0
   47.1078    7.7403   20.5570 H   0  0  0  0  0  0  0  0  0  0  0  0
   50.2661   14.2694   20.5427 H   0  0  0  0  0  0  0  0  0  0  0  0
   51.1411   14.4308   22.0668 H   0  0  0  0  0  0  0  0  0  0  0  0
   52.0098   14.6407   20.5192 H   0  0  0  0  0  0  0  0  0  0  0  0
   52.4288   11.0838   22.1005 H   0  0  0  0  0  0  0  0  0  0  0  0
   51.8235   12.4481   23.0578 H   0  0  0  0  0  0  0  0  0  0  0  0
   53.3211   12.6241   22.0947 H   0  0  0  0  0  0  0  0  0  0  0  0
   50.4155   18.7743   15.1558 H   0  0  0  0  0  0  0  0  0  0  0  0
   49.1738   18.2413   14.0204 H   0  0  0  0  0  0  0  0  0  0  0  0
   50.8136   17.5418   13.9337 H   0  0  0  0  0  0  0  0  0  0  0  0
   51.2577   12.2815   19.9039 H   0  0  0  0  0  0  0  0  0  0  0  0
   51.0619   13.2825   18.4562 H   0  0  0  0  0  0  0  0  0  0  0  0
   49.8530   11.6482   21.7847 H   0  0  0  0  0  0  0  0  0  0  0  0
   45.7237    9.8513   19.6835 H   0  0  0  0  0  0  0  0  0  0  0  0
   46.3054    9.2041   21.9848 H   0  0  0  0  0  0  0  0  0  0  0  0
   48.2924   11.4090   15.5601 H   0  0  0  0  0  0  0  0  0  0  0  0
   49.0414   15.0391   17.7533 H   0  0  0  0  0  0  0  0  0  0  0  0
   48.7263   12.5948   13.4424 H   0  0  0  0  0  0  0  0  0  0  0  0
   49.4930   16.2243   15.6458 H   0  0  0  0  0  0  0  0  0  0  0  0
   47.6172   10.2650   24.1413 H   0  0  0  0  0  0  0  0  0  0  0  0
   48.5344    8.8690   23.5338 H   0  0  0  0  0  0  0  0  0  0  0  0
   49.3582   10.3979   23.8602 H   0  0  0  0  0  0  0  0  0  0  0  0
   51.8487   17.0683   20.5815 H   0  0  0  0  0  0  0  0  0  0  0  0
   50.6051   16.4066   21.6678 H   0  0  0  0  0  0  0  0  0  0  0  0
   52.3245   16.1704   22.0537 H   0  0  0  0  0  0  0  0  0  0  0  0
   53.0776   15.4189   19.0064 H   0  0  0  0  0  0  0  0  0  0  0  0
   53.0025   13.6957   19.4492 H   0  0  0  0  0  0  0  0  0  0  0  0
   53.7393   14.8519   20.5677 H   0  0  0  0  0  0  0  0  0  0  0  0
   48.8376   14.8052   12.2830 H   0  0  0  0  0  0  0  0  0  0  0  0
   50.4918   15.1297   12.8607 H   0  0  0  0  0  0  0  0  0  0  0  0
   49.1744   16.2804   13.1892 H   0  0  0  0  0  0  0  0  0  0  0  0
   48.6958   12.1456   21.8149 H   0  0  0  0  0  0  0  0  0  0  0  0
   48.5768   11.7649   16.0093 H   0  0  0  0  0  0  0  0  0  0  0  0
   48.6016   15.5846   19.3506 H   0  0  0  0  0  0  0  0  0  0  0  0
   51.1437   12.9986   16.7568 H   0  0  0  0  0  0  0  0  0  0  0  0
   50.6290   14.5136   19.8831 H   0  0  0  0  0  0  0  0  0  0  0  0
   50.7225   12.0910   19.0405 H   0  0  0  0  0  0  0  0  0  0  0  0
 10  4  1  0
 11  8  2  0
 12 11  1  0
 13  7  1  0
 14  7  2  0
 15 10  2  0
 16 10  1  0
 17 15  1  0
 18 16  2  0
 19 18  1  0
 20 11  1  0
 21 13  1  0
 22 13  1  0
 23 19  1  0
  3  5  2  0
  9 12  2  0
 17 19  2  0
  2  1  1  0
  3  4  1  0
  4  1  2  0
  5  2  1  0
  6  1  1  0
  7  6  1  0
  8  2  1  0
  9  5  1  0
 33 27  1  0
 34 31  2  0
 35 34  1  0
 36 30  1  0
 37 30  2  0
 38 33  2  0
 39 33  1  0
 40 38  1  0
 41 39  2  0
 42 41  1  0
 43 34  1  0
 44 36  1  0
 45 36  1  0
 46 42  1  0
 26 28  2  0
 32 35  2  0
 40 42  2  0
 25 24  1  0
 26 27  1  0
 27 24  2  0
 28 25  1  0
 29 24  1  0
 30 29  1  0
 31 25  1  0
 32 28  1  0
 53 48  2  0
 54 51  1  0
 55 52  1  0
 53 47  1  0
 55 56  1  0
 54 55  1  0
 56 49  1  0
 53 54  1  0
 56 50  2  0
  6 57  1  0
  6 58  1  0
  8 59  1  0
  9 60  1  0
 12 61  1  0
 15 62  1  0
 16 63  1  0
 17 64  1  0
 18 65  1  0
 20 66  1  0
 20 67  1  0
 20 68  1  0
 21 69  1  0
 21 70  1  0
 21 71  1  0
 22 72  1  0
 22 73  1  0
 22 74  1  0
 23 75  1  0
 23 76  1  0
 23 77  1  0
 29 78  1  0
 29 79  1  0
 31 80  1  0
 32 81  1  0
 35 82  1  0
 38 83  1  0
 39 84  1  0
 40 85  1  0
 41 86  1  0
 43 87  1  0
 43 88  1  0
 43 89  1  0
 44 90  1  0
 44 91  1  0
 44 92  1  0
 45 93  1  0
 45 94  1  0
 45 95  1  0
 46 96  1  0
 46 97  1  0
 46 98  1  0
 47 99  1  0
 49100  1  0
 51101  1  0
 52102  1  0
 54103  1  6
 55104  1  6
M  END
> <Uni-Dock RESULT> 
ENERGY=   -5.158  LOWER_BOUND=    4.084  UPPER_BOUND=    7.322
INTER + INTRA:          -5.158
INTER:                  -5.158
INTRA:                   0.000
UNBOUND:                 0.000

$$$$

     RDKit          3D

104107  0  0  0  0  0  0  0  0999 V2000
   48.8114   12.7655   16.9007 C   0  0  0  0  0  0  0  0  0  0  0  0
   48.1547   12.5425   18.1063 N   0  0  0  0  0  0  0  0  0  0  0  0
   48.8694   14.6682   18.1627 N   0  0  0  0  0  0  0  0  0  0  0  0
   49.1806   14.1047   16.9534 C   0  0  0  0  0  0  0  0  0  0  0  0
   48.2771   13.7182   18.8475 C   0  0  0  0  0  0  0  0  0  0  0  0
   48.9560   11.7691   15.7907 C   0  0  0  0  0  0  0  0  0  0  0  0
   49.2844   10.3469   16.2338 C   0  0  0  0  0  0  0  0  0  0  0  0
   47.4553   11.4305   18.5867 C   0  0  0  0  0  0  0  0  0  0  0  0
   47.7299   13.7344   20.1602 C   0  0  0  0  0  0  0  0  0  0  0  0
   49.7482   14.8988   15.8800 C   0  0  0  0  0  0  0  0  0  0  0  0
   46.9140   11.4526   19.8207 C   0  0  0  0  0  0  0  0  0  0  0  0
   47.0781   12.6552   20.6305 C   0  0  0  0  0  0  0  0  0  0  0  0
   50.5206   10.0734   16.8090 N   0  0  0  0  0  0  0  0  0  0  0  0
   48.4465    9.4564   16.0534 O   0  0  0  0  0  0  0  0  0  0  0  0
   50.9691   14.5772   15.2802 C   0  0  0  0  0  0  0  0  0  0  0  0
   49.0628   16.0410   15.4515 C   0  0  0  0  0  0  0  0  0  0  0  0
   51.4838   15.3706   14.2494 C   0  0  0  0  0  0  0  0  0  0  0  0
   49.5765   16.8351   14.4229 C   0  0  0  0  0  0  0  0  0  0  0  0
   50.7952   16.5104   13.8185 C   0  0  0  0  0  0  0  0  0  0  0  0
   46.1482   10.3101   20.4102 C   0  0  0  0  0  0  0  0  0  0  0  0
   51.6357   11.0035   16.8022 C   0  0  0  0  0  0  0  0  0  0  0  0
   50.8529    8.6836   17.0837 C   0  0  0  0  0  0  0  0  0  0  0  0
   51.3318   17.3498   12.6972 C   0  0  0  0  0  0  0  0  0  0  0  0
   48.8084   12.4280   17.2948 C   0  0  0  0  0  0  0  0  0  0  0  0
   48.4364   11.9256   18.5295 N   0  0  0  0  0  0  0  0  0  0  0  0
   47.2095   13.7734   18.2060 N   0  0  0  0  0  0  0  0  0  0  0  0
   48.0753   13.5960   17.1545 C   0  0  0  0  0  0  0  0  0  0  0  0
   47.4527   12.7762   19.0272 C   0  0  0  0  0  0  0  0  0  0  0  0
   49.7801   11.7496   16.3813 C   0  0  0  0  0  0  0  0  0  0  0  0
   51.2317   11.9689   16.8097 C   0  0  0  0  0  0  0  0  0  0  0  0
   48.8753   10.7879   19.2131 C   0  0  0  0  0  0  0  0  0  0  0  0
   46.8851   12.4479   20.2890 C   0  0  0  0  0  0  0  0  0  0  0  0
   48.1229   14.5106   16.0297 C   0  0  0  0  0  0  0  0  0  0  0  0
   48.3366   10.4742   20.4072 C   0  0  0  0  0  0  0  0  0  0  0  0
   47.3011   11.3508   20.9499 C   0  0  0  0  0  0  0  0  0  0  0  0
   52.2214   11.5089   15.9401 N   0  0  0  0  0  0  0  0  0  0  0  0
   51.5182   12.5026   17.8825 O   0  0  0  0  0  0  0  0  0  0  0  0
   46.9306   14.9215   15.4237 C   0  0  0  0  0  0  0  0  0  0  0  0
   49.3389   15.0093   15.5487 C   0  0  0  0  0  0  0  0  0  0  0  0
   46.9534   15.7883   14.3271 C   0  0  0  0  0  0  0  0  0  0  0  0
   49.3631   15.8755   14.4516 C   0  0  0  0  0  0  0  0  0  0  0  0
   48.1705   16.2750   13.8351 C   0  0  0  0  0  0  0  0  0  0  0  0
   48.7485    9.2868   21.2180 C   0  0  0  0  0  0  0  0  0  0  0  0
   53.6176   11.7629   16.2652 C   0  0  0  0  0  0  0  0  0  0  0  0
   51.9757   10.8940   14.6432 C   0  0  0  0  0  0  0  0  0  0  0  0
   48.2002   17.1832   12.6416 C   0  0  0  0  0  0  0  0  0  0  0  0
   49.7780   11.2590   18.5367 O   0  0  0  0  0  0  0  0  0  0  0  0
   50.8201   13.1175   19.1937 O   0  0  0  0  0  0  0  0  0  0  0  0
   47.2556   13.7465   15.4172 O   0  0  0  0  0  0  0  0  0  0  0  0
   47.6630   13.5999   17.6127 O   0  0  0  0  0  0  0  0  0  0  0  0
   50.7522   14.1988   16.6266 O   0  0  0  0  0  0  0  0  0  0  0  0
   49.4087   12.5301   14.6222 O   0  0  0  0  0  0  0  0  0  0  0  0
   50.3470   12.4511   18.2821 C   0  0  0  0  0  0  0  0  0  0  0  0
   50.4304   12.8111   16.8027 C   0  0  1  0  0  0  0  0  0  0  0  0
   49.1604   12.4391   16.0346 C   0  0  1  0  0  0  0  0  0  0  0  0
   47.9924   13.3191   16.4724 C   0  0  0  0  0  0  0  0  0  0  0  0
   49.7169   12.0759   15.0664 H   0  0  0  0  0  0  0  0  0  0  0  0
   48.0088   11.7350   15.2384 H   0  0  0  0  0  0  0  0  0  0  0  0
   47.3500   10.5713   17.9381 H   0  0  0  0  0  0  0  0  0  0  0  0
   47.8467   14.6330   20.7547 H   0  0  0  0  0  0  0  0  0  0  0  0
   46.6552   12.6676   21.6318 H   0  0  0  0  0  0  0  0  0  0  0  0
   51.5403   13.7182   15.6126 H   0  0  0  0  0  0  0  0  0  0  0  0
   48.1205   16.3177   15.9216 H   0  0  0  0  0  0  0  0  0  0  0  0
   52.4332   15.0986   13.7934 H   0  0  0  0  0  0  0  0  0  0  0  0
   49.0200   17.7134   14.1045 H   0  0  0  0  0  0  0  0  0  0  0  0
   46.6357    9.9497   21.3227 H   0  0  0  0  0  0  0  0  0  0  0  0
   46.0777    9.4669   19.7146 H   0  0  0  0  0  0  0  0  0  0  0  0
   45.1285   10.6200   20.6608 H   0  0  0  0  0  0  0  0  0  0  0  0
   51.3176   11.9894   17.1361 H   0  0  0  0  0  0  0  0  0  0  0  0
   52.4218   10.6564   17.4801 H   0  0  0  0  0  0  0  0  0  0  0  0
   52.0333   11.0711   15.7858 H   0  0  0  0  0  0  0  0  0  0  0  0
   49.9593    8.0647   17.1955 H   0  0  0  0  0  0  0  0  0  0  0  0
   51.4279    8.6297   18.0129 H   0  0  0  0  0  0  0  0  0  0  0  0
   51.4535    8.2942   16.2556 H   0  0  0  0  0  0  0  0  0  0  0  0
   52.4204   17.2518   12.6165 H   0  0  0  0  0  0  0  0  0  0  0  0
   51.1125   18.4104   12.8656 H   0  0  0  0  0  0  0  0  0  0  0  0
   50.8799   17.0371   11.7495 H   0  0  0  0  0  0  0  0  0  0  0  0
   49.5810   10.6724   16.3663 H   0  0  0  0  0  0  0  0  0  0  0  0
   49.6462   12.1297   15.3621 H   0  0  0  0  0  0  0  0  0  0  0  0
   49.6543   10.1966   18.7495 H   0  0  0  0  0  0  0  0  0  0  0  0
   46.1195   13.1003   20.6911 H   0  0  0  0  0  0  0  0  0  0  0  0
   46.8673   11.1007   21.9140 H   0  0  0  0  0  0  0  0  0  0  0  0
   45.9774   14.5611   15.8050 H   0  0  0  0  0  0  0  0  0  0  0  0
   50.2743   14.7406   16.0335 H   0  0  0  0  0  0  0  0  0  0  0  0
   46.0134   16.0833   13.8657 H   0  0  0  0  0  0  0  0  0  0  0  0
   50.3192   16.2453   14.0882 H   0  0  0  0  0  0  0  0  0  0  0  0
   49.1408    9.6003   22.1914 H   0  0  0  0  0  0  0  0  0  0  0  0
   47.8950    8.6220   21.3853 H   0  0  0  0  0  0  0  0  0  0  0  0
   49.5289    8.7037   20.7171 H   0  0  0  0  0  0  0  0  0  0  0  0
   54.0480   12.4038   15.4890 H   0  0  0  0  0  0  0  0  0  0  0  0
   53.7401   12.2538   17.2346 H   0  0  0  0  0  0  0  0  0  0  0  0
   54.1482   10.8059   16.2869 H   0  0  0  0  0  0  0  0  0  0  0  0
   52.1835   11.6338   13.8635 H   0  0  0  0  0  0  0  0  0  0  0  0
   50.9508   10.5375   14.5342 H   0  0  0  0  0  0  0  0  0  0  0  0
   52.6482   10.0384   14.5235 H   0  0  0  0  0  0  0  0  0  0  0  0
   47.3033   17.8106   12.6030 H   0  0  0  0  0  0  0  0  0  0  0  0
   48.2584   16.5894   11.7245 H   0  0  0  0  0  0  0  0  0  0  0  0
   49.0648   17.8544   12.6822 H   0  0  0  0  0  0  0  0  0  0  0  0
   49.8061   11.1850   19.5159 H   0  0  0  0  0  0  0  0  0  0  0  0
   46.5660   14.3116   15.8294 H   0  0  0  0  0  0  0  0  0  0  0  0
   51.4196   14.4146   17.3080 H   0  0  0  0  0  0  0  0  0  0  0  0
   48.5819   12.8799   14.2307 H   0  0  0  0  0  0  0  0  0  0  0  0
   51.2793   12.2515   16.3903 H   0  0  0  0  0  0  0  0  0  0  0  0
   48.8634   11.4015   16.2186 H   0  0  0  0  0  0  0  0  0  0  0  0
 10  4  1  0
 11  8  2  0
 12 11  1  0
 13  7  1  0
 14  7  2  0
 15 10  2  0
 16 10  1  0
 17 15  1  0
 18 16  2  0
 19 18  1  0
 20 11  1  0
 21 13  1  0
 22 13  1  0
 23 19  1  0
  3  5  2  0
  9 12  2  0
 17 19  2  0
  2  1  1  0
  3  4  1  0
  4  1  2  0
  5  2  1  0
  6  1  1  0
  7  6  1  0
  8  2  1  0
  9  5  1  0
 33 27  1  0
 34 31  2  0
 35 34  1  0
 36 30  1  0
 37 30  2  0
 38 33  2  0
 39 33  1  0
 40 38  1  0
 41 39  2  0
 42 41  1  0
 43 34  1  0
 44 36  1  0
 45 36  1  0
 46 42  1  0
 26 28  2  0
 32 35  2  0
 40 42  2  0
 25 24  1  0
 26 27  1  0
 27 24  2  0
 28 25  1  0
 29 24  1  0
 30 29  1  0
 31 25  1  0
 32 28  1  0
 53 48  2  0
 54 51  1  0
 55 52  1  0
 53 47  1  0
 55 56  1  0
 54 55  1  0
 56 49  1  0
 53 54  1  0
 56 50  2  0
  6 57  1  0
  6 58  1  0
  8 59  1  0
  9 60  1  0
 12 61  1  0
 15 62  1  0
 16 63  1  0
 17 64  1  0
 18 65  1  0
 20 66  1  0
 20 67  1  0
 20 68  1  0
 21 69  1  0
 21 70  1  0
 21 71  1  0
 22 72  1  0
 22 73  1  0
 22 74  1  0
 23 75  1  0
 23 76  1  0
 23 77  1  0
 29 78  1  0
 29 79  1  0
 31 80  1  0
 32 81  1  0
 35 82  1  0
 38 83  1  0
 39 84  1  0
 40 85  1  0
 41 86  1  0
 43 87  1  0
 43 88  1  0
 43 89  1  0
 44 90  1  0
 44 91  1  0
 44 92  1  0
 45 93  1  0
 45 94  1  0
 45 95  1  0
 46 96  1  0
 46 97  1  0
 46 98  1  0
 47 99  1  0
 49100  1  0
 51101  1  0
 52102  1  0
 54103  1  6
 55104  1  6
M  END
> <Uni-Dock RESULT> 
ENERGY=   -5.137  LOWER_BOUND=    3.385  UPPER_BOUND=    6.772
INTER + INTRA:          -5.137
INTER:                  -5.137
INTRA:                   0.000
UNBOUND:                 0.000

$$$$

     RDKit          3D

104107  0  0  0  0  0  0  0  0999 V2000
   43.8369   12.9122    9.9540 C   0  0  0  0  0  0  0  0  0  0  0  0
   42.7777   12.1673   10.4616 N   0  0  0  0  0  0  0  0  0  0  0  0
   44.4105   10.7019    9.9938 N   0  0  0  0  0  0  0  0  0  0  0  0
   44.8421   11.9766    9.7377 C   0  0  0  0  0  0  0  0  0  0  0  0
   43.1706   10.8298   10.4043 C   0  0  0  0  0  0  0  0  0  0  0  0
   43.8596   14.4030    9.8032 C   0  0  0  0  0  0  0  0  0  0  0  0
   42.5702   15.0215    9.2725 C   0  0  0  0  0  0  0  0  0  0  0  0
   41.5378   12.5562   10.9791 C   0  0  0  0  0  0  0  0  0  0  0  0
   42.2329    9.8449   10.8209 C   0  0  0  0  0  0  0  0  0  0  0  0
   46.2205   12.2421    9.3711 C   0  0  0  0  0  0  0  0  0  0  0  0
   40.6572   11.6259   11.3980 C   0  0  0  0  0  0  0  0  0  0  0  0
   41.0308   10.2191   11.2960 C   0  0  0  0  0  0  0  0  0  0  0  0
   42.1740   14.7697    7.9635 N   0  0  0  0  0  0  0  0  0  0  0  0
   41.9091   15.7549   10.0160 O   0  0  0  0  0  0  0  0  0  0  0  0
   46.5634   12.8970    8.1847 C   0  0  0  0  0  0  0  0  0  0  0  0
   47.2409   11.8017   10.2212 C   0  0  0  0  0  0  0  0  0  0  0  0
   47.9052   13.1315    7.8662 C   0  0  0  0  0  0  0  0  0  0  0  0
   48.5817   12.0340    9.9036 C   0  0  0  0  0  0  0  0  0  0  0  0
   48.9250   12.6944    8.7194 C   0  0  0  0  0  0  0  0  0  0  0  0
   39.3128   11.9542   11.9672 C   0  0  0  0  0  0  0  0  0  0  0  0
   43.0294   14.1478    6.9685 C   0  0  0  0  0  0  0  0  0  0  0  0
   41.0203   15.4919    7.4488 C   0  0  0  0  0  0  0  0  0  0  0  0
   50.3637   12.9655    8.3933 C   0  0  0  0  0  0  0  0  0  0  0  0
   43.3278   12.8443    9.8802 C   0  0  0  0  0  0  0  0  0  0  0  0
   42.0865   12.2630   10.0714 N   0  0  0  0  0  0  0  0  0  0  0  0
   43.4753   11.2759   11.5280 N   0  0  0  0  0  0  0  0  0  0  0  0
   44.1696   12.1725   10.7527 C   0  0  0  0  0  0  0  0  0  0  0  0
   42.2356   11.3296   11.0939 C   0  0  0  0  0  0  0  0  0  0  0  0
   43.5783   13.9723    8.9294 C   0  0  0  0  0  0  0  0  0  0  0  0
   43.6738   13.4995    7.4781 C   0  0  0  0  0  0  0  0  0  0  0  0
   40.8639   12.5118    9.4409 C   0  0  0  0  0  0  0  0  0  0  0  0
   41.0752   10.6128   11.4959 C   0  0  0  0  0  0  0  0  0  0  0  0
   45.5926   12.3984   10.9189 C   0  0  0  0  0  0  0  0  0  0  0  0
   39.7633   11.8355    9.8226 C   0  0  0  0  0  0  0  0  0  0  0  0
   39.8940   10.8514   10.8950 C   0  0  0  0  0  0  0  0  0  0  0  0
   44.0586   14.4487    6.5305 N   0  0  0  0  0  0  0  0  0  0  0  0
   43.4001   12.3431    7.1530 O   0  0  0  0  0  0  0  0  0  0  0  0
   46.1168   12.5811   12.2034 C   0  0  0  0  0  0  0  0  0  0  0  0
   46.4594   12.4169    9.8204 C   0  0  0  0  0  0  0  0  0  0  0  0
   47.4823   12.8181   12.3860 C   0  0  0  0  0  0  0  0  0  0  0  0
   47.8252   12.6548   10.0016 C   0  0  0  0  0  0  0  0  0  0  0  0
   48.3477   12.8530   11.2859 C   0  0  0  0  0  0  0  0  0  0  0  0
   38.4160   12.0230    9.2009 C   0  0  0  0  0  0  0  0  0  0  0  0
   44.2397   14.0299    5.1480 C   0  0  0  0  0  0  0  0  0  0  0  0
   44.4269   15.8259    6.8275 C   0  0  0  0  0  0  0  0  0  0  0  0
   49.8088   13.1344   11.4758 C   0  0  0  0  0  0  0  0  0  0  0  0
   41.7926   12.6959    8.6677 O   0  0  0  0  0  0  0  0  0  0  0  0
   42.8810   10.9602    7.7877 O   0  0  0  0  0  0  0  0  0  0  0  0
   45.3058   13.3691   11.7477 O   0  0  0  0  0  0  0  0  0  0  0  0
   43.8078   11.8309   11.1167 O   0  0  0  0  0  0  0  0  0  0  0  0
   45.3628   12.1488    8.2261 O   0  0  0  0  0  0  0  0  0  0  0  0
   45.2593   14.7620    9.5556 O   0  0  0  0  0  0  0  0  0  0  0  0
   42.9226   12.0862    8.2666 C   0  0  0  0  0  0  0  0  0  0  0  0
   44.1777   12.9463    8.3679 C   0  0  1  0  0  0  0  0  0  0  0  0
   44.2216   13.7729    9.6547 C   0  0  1  0  0  0  0  0  0  0  0  0
   44.4044   12.8654   10.8685 C   0  0  0  0  0  0  0  0  0  0  0  0
   44.6779   14.7332    9.1560 H   0  0  0  0  0  0  0  0  0  0  0  0
   44.0576   14.8418   10.7890 H   0  0  0  0  0  0  0  0  0  0  0  0
   41.3189   13.6134   11.0469 H   0  0  0  0  0  0  0  0  0  0  0  0
   42.5182    8.8017   10.7515 H   0  0  0  0  0  0  0  0  0  0  0  0
   40.3148    9.4678   11.6192 H   0  0  0  0  0  0  0  0  0  0  0  0
   45.7976   13.2204    7.4893 H   0  0  0  0  0  0  0  0  0  0  0  0
   46.9925   11.2719   11.1394 H   0  0  0  0  0  0  0  0  0  0  0  0
   48.1488   13.6476    6.9402 H   0  0  0  0  0  0  0  0  0  0  0  0
   49.3546   11.6873   10.5854 H   0  0  0  0  0  0  0  0  0  0  0  0
   38.5177   11.5133   11.3559 H   0  0  0  0  0  0  0  0  0  0  0  0
   39.1420   13.0355   12.0069 H   0  0  0  0  0  0  0  0  0  0  0  0
   39.2223   11.5661   12.9868 H   0  0  0  0  0  0  0  0  0  0  0  0
   43.4860   13.2424    7.3642 H   0  0  0  0  0  0  0  0  0  0  0  0
   42.4439   13.8710    6.0862 H   0  0  0  0  0  0  0  0  0  0  0  0
   43.8106   14.8569    6.6810 H   0  0  0  0  0  0  0  0  0  0  0  0
   40.3575   15.8266    8.2505 H   0  0  0  0  0  0  0  0  0  0  0  0
   40.4527   14.8333    6.7847 H   0  0  0  0  0  0  0  0  0  0  0  0
   41.3713   16.3651    6.8900 H   0  0  0  0  0  0  0  0  0  0  0  0
   50.5080   13.0854    7.3135 H   0  0  0  0  0  0  0  0  0  0  0  0
   50.9995   12.1329    8.7158 H   0  0  0  0  0  0  0  0  0  0  0  0
   50.6925   13.8820    8.8954 H   0  0  0  0  0  0  0  0  0  0  0  0
   42.7663   14.7039    9.0039 H   0  0  0  0  0  0  0  0  0  0  0  0
   44.5114   14.4776    9.2036 H   0  0  0  0  0  0  0  0  0  0  0  0
   40.8522   13.2477    8.6474 H   0  0  0  0  0  0  0  0  0  0  0  0
   41.1745    9.8817   12.2891 H   0  0  0  0  0  0  0  0  0  0  0  0
   39.0079   10.3033   11.2024 H   0  0  0  0  0  0  0  0  0  0  0  0
   45.4569   12.5431   13.0677 H   0  0  0  0  0  0  0  0  0  0  0  0
   46.0815   12.2308    8.8179 H   0  0  0  0  0  0  0  0  0  0  0  0
   47.8634   12.9694   13.3937 H   0  0  0  0  0  0  0  0  0  0  0  0
   48.4804   12.6733    9.1337 H   0  0  0  0  0  0  0  0  0  0  0  0
   38.0619   11.0872    8.7554 H   0  0  0  0  0  0  0  0  0  0  0  0
   37.6887   12.3470    9.9523 H   0  0  0  0  0  0  0  0  0  0  0  0
   38.4352   12.7812    8.4106 H   0  0  0  0  0  0  0  0  0  0  0  0
   45.2885   14.1772    4.8707 H   0  0  0  0  0  0  0  0  0  0  0  0
   43.9783   12.9799    4.9899 H   0  0  0  0  0  0  0  0  0  0  0  0
   43.6012   14.6502    4.5113 H   0  0  0  0  0  0  0  0  0  0  0  0
   45.5174   15.9109    6.7821 H   0  0  0  0  0  0  0  0  0  0  0  0
   44.0833   16.1504    7.8104 H   0  0  0  0  0  0  0  0  0  0  0  0
   43.9776   16.4829    6.0758 H   0  0  0  0  0  0  0  0  0  0  0  0
   50.1614   12.7487   12.4383 H   0  0  0  0  0  0  0  0  0  0  0  0
   49.9871   14.2132   11.4382 H   0  0  0  0  0  0  0  0  0  0  0  0
   50.4051   12.6514   10.6942 H   0  0  0  0  0  0  0  0  0  0  0  0
   41.0952   12.0164    8.5371 H   0  0  0  0  0  0  0  0  0  0  0  0
   45.3455   12.6885   12.4547 H   0  0  0  0  0  0  0  0  0  0  0  0
   45.1710   11.4941    7.5254 H   0  0  0  0  0  0  0  0  0  0  0  0
   45.6514   14.8240   10.4509 H   0  0  0  0  0  0  0  0  0  0  0  0
   44.1660   13.6225    7.5040 H   0  0  0  0  0  0  0  0  0  0  0  0
   43.2926   14.3307    9.8114 H   0  0  0  0  0  0  0  0  0  0  0  0
 10  4  1  0
 11  8  2  0
 12 11  1  0
 13  7  1  0
 14  7  2  0
 15 10  2  0
 16 10  1  0
 17 15  1  0
 18 16  2  0
 19 18  1  0
 20 11  1  0
 21 13  1  0
 22 13  1  0
 23 19  1  0
  3  5  2  0
  9 12  2  0
 17 19  2  0
  2  1  1  0
  3  4  1  0
  4  1  2  0
  5  2  1  0
  6  1  1  0
  7  6  1  0
  8  2  1  0
  9  5  1  0
 33 27  1  0
 34 31  2  0
 35 34  1  0
 36 30  1  0
 37 30  2  0
 38 33  2  0
 39 33  1  0
 40 38  1  0
 41 39  2  0
 42 41  1  0
 43 34  1  0
 44 36  1  0
 45 36  1  0
 46 42  1  0
 26 28  2  0
 32 35  2  0
 40 42  2  0
 25 24  1  0
 26 27  1  0
 27 24  2  0
 28 25  1  0
 29 24  1  0
 30 29  1  0
 31 25  1  0
 32 28  1  0
 53 48  2  0
 54 51  1  0
 55 52  1  0
 53 47  1  0
 55 56  1  0
 54 55  1  0
 56 49  1  0
 53 54  1  0
 56 50  2  0
  6 57  1  0
  6 58  1  0
  8 59  1  0
  9 60  1  0
 12 61  1  0
 15 62  1  0
 16 63  1  0
 17 64  1  0
 18 65  1  0
 20 66  1  0
 20 67  1  0
 20 68  1  0
 21 69  1  0
 21 70  1  0
 21 71  1  0
 22 72  1  0
 22 73  1  0
 22 74  1  0
 23 75  1  0
 23 76  1  0
 23 77  1  0
 29 78  1  0
 29 79  1  0
 31 80  1  0
 32 81  1  0
 35 82  1  0
 38 83  1  0
 39 84  1  0
 40 85  1  0
 41 86  1  0
 43 87  1  0
 43 88  1  0
 43 89  1  0
 44 90  1  0
 44 91  1  0
 44 92  1  0
 45 93  1  0
 45 94  1  0
 45 95  1  0
 46 96  1  0
 46 97  1  0
 46 98  1  0
 47 99  1  0
 49100  1  0
 51101  1  0
 52102  1  0
 54103  1  6
 55104  1  6
M  END
> <Uni-Dock RESULT> 
ENERGY=   -4.939  LOWER_BOUND=    7.084  UPPER_BOUND=   10.858
INTER + INTRA:          -4.939
INTER:                  -4.939
INTRA:                   0.000
UNBOUND:                 0.000

$$$$
