
     RDKit          3D

104107  0  0  0  0  0  0  0  0999 V2000
   49.1328    6.9681   17.7683 C   0  0  0  0  0  0  0  0  0  0  0  0
   48.8161    5.6247   17.6541 N   0  0  0  0  0  0  0  0  0  0  0  0
   47.1244    6.5782   18.7753 N   0  0  0  0  0  0  0  0  0  0  0  0
   48.0476    7.5296   18.4224 C   0  0  0  0  0  0  0  0  0  0  0  0
   47.5927    5.4468   18.2958 C   0  0  0  0  0  0  0  0  0  0  0  0
   50.4179    7.5721   17.2951 C   0  0  0  0  0  0  0  0  0  0  0  0
   50.4158    7.8156   15.7835 C   0  0  0  0  0  0  0  0  0  0  0  0
   49.5192    4.5737   17.0585 C   0  0  0  0  0  0  0  0  0  0  0  0
   47.0588    4.1279   18.3341 C   0  0  0  0  0  0  0  0  0  0  0  0
   47.8968    8.9282   18.7691 C   0  0  0  0  0  0  0  0  0  0  0  0
   49.0162    3.3240   17.0947 C   0  0  0  0  0  0  0  0  0  0  0  0
   47.7332    3.1118   17.7619 C   0  0  0  0  0  0  0  0  0  0  0  0
   51.2950    8.7819   15.2979 N   0  0  0  0  0  0  0  0  0  0  0  0
   49.6925    7.1655   15.0263 O   0  0  0  0  0  0  0  0  0  0  0  0
   47.6559    9.2919   20.0973 C   0  0  0  0  0  0  0  0  0  0  0  0
   47.9804    9.9259   17.7907 C   0  0  0  0  0  0  0  0  0  0  0  0
   47.5302   10.6391   20.4491 C   0  0  0  0  0  0  0  0  0  0  0  0
   47.8582   11.2734   18.1439 C   0  0  0  0  0  0  0  0  0  0  0  0
   47.6457   11.6405   19.4772 C   0  0  0  0  0  0  0  0  0  0  0  0
   49.6879    2.1385   16.4761 C   0  0  0  0  0  0  0  0  0  0  0  0
   51.2306    9.1476   13.8921 C   0  0  0  0  0  0  0  0  0  0  0  0
   52.2587    9.5167   16.1047 C   0  0  0  0  0  0  0  0  0  0  0  0
   47.4833   13.0800   19.8624 C   0  0  0  0  0  0  0  0  0  0  0  0
   48.7616    7.1493   17.6435 C   0  0  0  0  0  0  0  0  0  0  0  0
   48.8028    5.8043   17.9692 N   0  0  0  0  0  0  0  0  0  0  0  0
   48.0884    6.8731   19.8045 N   0  0  0  0  0  0  0  0  0  0  0  0
   48.3739    7.7815   18.8147 C   0  0  0  0  0  0  0  0  0  0  0  0
   48.3738    5.6977   19.2895 C   0  0  0  0  0  0  0  0  0  0  0  0
   49.0627    7.6882   16.2803 C   0  0  0  0  0  0  0  0  0  0  0  0
   50.5622    7.7157   15.9739 C   0  0  0  0  0  0  0  0  0  0  0  0
   49.1590    4.6967   17.1965 C   0  0  0  0  0  0  0  0  0  0  0  0
   48.3023    4.3918   19.8510 C   0  0  0  0  0  0  0  0  0  0  0  0
   48.1962    9.2096   18.9947 C   0  0  0  0  0  0  0  0  0  0  0  0
   49.0874    3.4594   17.7240 C   0  0  0  0  0  0  0  0  0  0  0  0
   48.6363    3.3204   19.1057 C   0  0  0  0  0  0  0  0  0  0  0  0
   50.9468    8.2801   14.7570 N   0  0  0  0  0  0  0  0  0  0  0  0
   51.3958    7.2479   16.7535 O   0  0  0  0  0  0  0  0  0  0  0  0
   49.2158   10.1125   18.6703 C   0  0  0  0  0  0  0  0  0  0  0  0
   46.9882    9.6965   19.5046 C   0  0  0  0  0  0  0  0  0  0  0  0
   49.0165   11.4881   18.8241 C   0  0  0  0  0  0  0  0  0  0  0  0
   46.7903   11.0719   19.6583 C   0  0  0  0  0  0  0  0  0  0  0  0
   47.8045   11.9785   19.3260 C   0  0  0  0  0  0  0  0  0  0  0  0
   49.4516    2.2183   16.9744 C   0  0  0  0  0  0  0  0  0  0  0  0
   50.0352    8.7594   13.7289 C   0  0  0  0  0  0  0  0  0  0  0  0
   52.3544    8.2649   14.3875 C   0  0  0  0  0  0  0  0  0  0  0  0
   47.5711   13.4545   19.4627 C   0  0  0  0  0  0  0  0  0  0  0  0
   48.6527    6.6942   19.0507 O   0  0  0  0  0  0  0  0  0  0  0  0
   48.0434    8.6990   19.8001 O   0  0  0  0  0  0  0  0  0  0  0  0
   48.5577    6.2105   15.7436 O   0  0  0  0  0  0  0  0  0  0  0  0
   50.6687    6.1495   16.5030 O   0  0  0  0  0  0  0  0  0  0  0  0
   49.9149   10.0010   18.2121 O   0  0  0  0  0  0  0  0  0  0  0  0
   48.0809    8.7210   16.3568 O   0  0  0  0  0  0  0  0  0  0  0  0
   48.7450    8.0401   19.0490 C   0  0  0  0  0  0  0  0  0  0  0  0
   49.7883    8.5780   18.0726 C   0  0  1  0  0  0  0  0  0  0  0  0
   49.4071    8.2602   16.6295 C   0  0  1  0  0  0  0  0  0  0  0  0
   49.6424    6.7849   16.3202 C   0  0  0  0  0  0  0  0  0  0  0  0
   51.2645    6.9184   17.5394 H   0  0  0  0  0  0  0  0  0  0  0  0
   50.5650    8.5195   17.8280 H   0  0  0  0  0  0  0  0  0  0  0  0
   50.4519    4.8163   16.5650 H   0  0  0  0  0  0  0  0  0  0  0  0
   46.1022    3.9755   18.8204 H   0  0  0  0  0  0  0  0  0  0  0  0
   47.3220    2.1058   17.7789 H   0  0  0  0  0  0  0  0  0  0  0  0
   47.5599    8.5216   20.8591 H   0  0  0  0  0  0  0  0  0  0  0  0
   48.1281    9.6610   16.7456 H   0  0  0  0  0  0  0  0  0  0  0  0
   47.3417   10.9021   21.4881 H   0  0  0  0  0  0  0  0  0  0  0  0
   47.9144   12.0330   17.3670 H   0  0  0  0  0  0  0  0  0  0  0  0
   49.0396    1.6812   15.7219 H   0  0  0  0  0  0  0  0  0  0  0  0
   49.9191    1.3852   17.2362 H   0  0  0  0  0  0  0  0  0  0  0  0
   50.6274    2.4127   15.9856 H   0  0  0  0  0  0  0  0  0  0  0  0
   51.0900   10.2315   13.8135 H   0  0  0  0  0  0  0  0  0  0  0  0
   50.4117    8.6479   13.3677 H   0  0  0  0  0  0  0  0  0  0  0  0
   52.1758    8.8692   13.4165 H   0  0  0  0  0  0  0  0  0  0  0  0
   53.1813    9.6437   15.5308 H   0  0  0  0  0  0  0  0  0  0  0  0
   51.8356   10.4969   16.3403 H   0  0  0  0  0  0  0  0  0  0  0  0
   52.5051    8.9924   17.0290 H   0  0  0  0  0  0  0  0  0  0  0  0
   46.4223   13.3173   19.9988 H   0  0  0  0  0  0  0  0  0  0  0  0
   48.0173   13.2904   20.7961 H   0  0  0  0  0  0  0  0  0  0  0  0
   47.8936   13.7472   19.0967 H   0  0  0  0  0  0  0  0  0  0  0  0
   48.5593    7.0790   15.5212 H   0  0  0  0  0  0  0  0  0  0  0  0
   48.6706    8.7084   16.2026 H   0  0  0  0  0  0  0  0  0  0  0  0
   49.4908    4.8832   16.1844 H   0  0  0  0  0  0  0  0  0  0  0  0
   47.9747    4.2907   20.8791 H   0  0  0  0  0  0  0  0  0  0  0  0
   48.5884    2.3241   19.5345 H   0  0  0  0  0  0  0  0  0  0  0  0
   50.1763    9.7483   18.3107 H   0  0  0  0  0  0  0  0  0  0  0  0
   46.1977    9.0015   19.7817 H   0  0  0  0  0  0  0  0  0  0  0  0
   49.8198   12.1716   18.5589 H   0  0  0  0  0  0  0  0  0  0  0  0
   45.8382   11.4291   20.0444 H   0  0  0  0  0  0  0  0  0  0  0  0
   49.7817    2.4433   15.9544 H   0  0  0  0  0  0  0  0  0  0  0  0
   48.5897    1.5463   16.9031 H   0  0  0  0  0  0  0  0  0  0  0  0
   50.2661    1.6858   17.4775 H   0  0  0  0  0  0  0  0  0  0  0  0
   49.0201    8.9110   14.0969 H   0  0  0  0  0  0  0  0  0  0  0  0
   50.0090    8.0180   12.9219 H   0  0  0  0  0  0  0  0  0  0  0  0
   50.4085    9.7118   13.3357 H   0  0  0  0  0  0  0  0  0  0  0  0
   52.4768    7.6323   13.5036 H   0  0  0  0  0  0  0  0  0  0  0  0
   52.6693    9.2864   14.1517 H   0  0  0  0  0  0  0  0  0  0  0  0
   52.9917    7.8778   15.1847 H   0  0  0  0  0  0  0  0  0  0  0  0
   48.5107   13.9802   19.6674 H   0  0  0  0  0  0  0  0  0  0  0  0
   47.1357   13.8488   18.5389 H   0  0  0  0  0  0  0  0  0  0  0  0
   46.8898   13.6647   20.2954 H   0  0  0  0  0  0  0  0  0  0  0  0
   47.9792    6.5102   19.7415 H   0  0  0  0  0  0  0  0  0  0  0  0
   48.8344    5.2776   15.5996 H   0  0  0  0  0  0  0  0  0  0  0  0
   49.0280   10.3681   18.0330 H   0  0  0  0  0  0  0  0  0  0  0  0
   47.6770    8.0426   15.7735 H   0  0  0  0  0  0  0  0  0  0  0  0
   50.7592    8.1521   18.3472 H   0  0  0  0  0  0  0  0  0  0  0  0
   50.0542    8.8208   15.9470 H   0  0  0  0  0  0  0  0  0  0  0  0
 10  4  1  0
 11  8  2  0
 12 11  1  0
 13  7  1  0
 14  7  2  0
 15 10  2  0
 16 10  1  0
 17 15  1  0
 18 16  2  0
 19 18  1  0
 20 11  1  0
 21 13  1  0
 22 13  1  0
 23 19  1  0
  3  5  2  0
  9 12  2  0
 17 19  2  0
  2  1  1  0
  3  4  1  0
  4  1  2  0
  5  2  1  0
  6  1  1  0
  7  6  1  0
  8  2  1  0
  9  5  1  0
 33 27  1  0
 34 31  2  0
 35 34  1  0
 36 30  1  0
 37 30  2  0
 38 33  2  0
 39 33  1  0
 40 38  1  0
 41 39  2  0
 42 41  1  0
 43 34  1  0
 44 36  1  0
 45 36  1  0
 46 42  1  0
 26 28  2  0
 32 35  2  0
 40 42  2  0
 25 24  1  0
 26 27  1  0
 27 24  2  0
 28 25  1  0
 29 24  1  0
 30 29  1  0
 31 25  1  0
 32 28  1  0
 53 48  2  0
 54 51  1  0
 55 52  1  0
 53 47  1  0
 55 56  1  0
 54 55  1  0
 56 49  1  0
 53 54  1  0
 56 50  2  0
  6 57  1  0
  6 58  1  0
  8 59  1  0
  9 60  1  0
 12 61  1  0
 15 62  1  0
 16 63  1  0
 17 64  1  0
 18 65  1  0
 20 66  1  0
 20 67  1  0
 20 68  1  0
 21 69  1  0
 21 70  1  0
 21 71  1  0
 22 72  1  0
 22 73  1  0
 22 74  1  0
 23 75  1  0
 23 76  1  0
 23 77  1  0
 29 78  1  0
 29 79  1  0
 31 80  1  0
 32 81  1  0
 35 82  1  0
 38 83  1  0
 39 84  1  0
 40 85  1  0
 41 86  1  0
 43 87  1  0
 43 88  1  0
 43 89  1  0
 44 90  1  0
 44 91  1  0
 44 92  1  0
 45 93  1  0
 45 94  1  0
 45 95  1  0
 46 96  1  0
 46 97  1  0
 46 98  1  0
 47 99  1  0
 49100  1  0
 51101  1  0
 52102  1  0
 54103  1  1
 55104  1  1
M  END
> <Uni-Dock RESULT> 
ENERGY=   -7.460  LOWER_BOUND=    0.000  UPPER_BOUND=    0.000
INTER + INTRA:          -7.460
INTER:                  -7.460
INTRA:                   0.000
UNBOUND:                 0.000

$$$$

     RDKit          3D

104107  0  0  0  0  0  0  0  0999 V2000
   48.8968    7.5498   16.7274 C   0  0  0  0  0  0  0  0  0  0  0  0
   49.3133    8.0374   15.5000 N   0  0  0  0  0  0  0  0  0  0  0  0
   49.1083    9.8171   16.8488 N   0  0  0  0  0  0  0  0  0  0  0  0
   48.8266    8.6680   17.5433 C   0  0  0  0  0  0  0  0  0  0  0  0
   49.4110    9.4207   15.6320 C   0  0  0  0  0  0  0  0  0  0  0  0
   48.5740    6.1131   16.9957 C   0  0  0  0  0  0  0  0  0  0  0  0
   49.8347    5.2724   17.2148 C   0  0  0  0  0  0  0  0  0  0  0  0
   49.5858    7.3695   14.3028 C   0  0  0  0  0  0  0  0  0  0  0  0
   49.8054   10.1621   14.4828 C   0  0  0  0  0  0  0  0  0  0  0  0
   48.4439    8.6760   18.9406 C   0  0  0  0  0  0  0  0  0  0  0  0
   49.9581    8.0696   13.2132 C   0  0  0  0  0  0  0  0  0  0  0  0
   50.0685    9.5226   13.3267 C   0  0  0  0  0  0  0  0  0  0  0  0
   49.6870    4.0871   17.9330 N   0  0  0  0  0  0  0  0  0  0  0  0
   50.9252    5.6117   16.7510 O   0  0  0  0  0  0  0  0  0  0  0  0
   47.3921    9.4921   19.3673 C   0  0  0  0  0  0  0  0  0  0  0  0
   49.1180    7.8829   19.8766 C   0  0  0  0  0  0  0  0  0  0  0  0
   46.9982    9.4930   20.7087 C   0  0  0  0  0  0  0  0  0  0  0  0
   48.7210    7.8816   21.2175 C   0  0  0  0  0  0  0  0  0  0  0  0
   47.6500    8.6761   21.6407 C   0  0  0  0  0  0  0  0  0  0  0  0
   50.2821    7.4441   11.8929 C   0  0  0  0  0  0  0  0  0  0  0  0
   50.8749    3.3271   18.2869 C   0  0  0  0  0  0  0  0  0  0  0  0
   48.4217    3.5573   18.4211 C   0  0  0  0  0  0  0  0  0  0  0  0
   47.2355    8.7051   23.0809 C   0  0  0  0  0  0  0  0  0  0  0  0
   49.1711    7.7523   16.9919 C   0  0  0  0  0  0  0  0  0  0  0  0
   49.0304    8.1750   15.6810 N   0  0  0  0  0  0  0  0  0  0  0  0
   47.7050    9.4970   16.9127 N   0  0  0  0  0  0  0  0  0  0  0  0
   48.2964    8.5503   17.7130 C   0  0  0  0  0  0  0  0  0  0  0  0
   48.1365    9.2424   15.6972 C   0  0  0  0  0  0  0  0  0  0  0  0
   50.1161    6.6761   17.4256 C   0  0  0  0  0  0  0  0  0  0  0  0
   49.6095    5.2724   17.0846 C   0  0  0  0  0  0  0  0  0  0  0  0
   49.6374    7.7127   14.5112 C   0  0  0  0  0  0  0  0  0  0  0  0
   47.8477    9.8730   14.4544 C   0  0  0  0  0  0  0  0  0  0  0  0
   48.0660    8.4870   19.1435 C   0  0  0  0  0  0  0  0  0  0  0  0
   49.3697    8.3112   13.3345 C   0  0  0  0  0  0  0  0  0  0  0  0
   48.4384    9.4357   13.3253 C   0  0  0  0  0  0  0  0  0  0  0  0
   50.3844    4.1984   17.5245 N   0  0  0  0  0  0  0  0  0  0  0  0
   48.5751    5.0918   16.4374 O   0  0  0  0  0  0  0  0  0  0  0  0
   47.7166    7.2836   19.7678 C   0  0  0  0  0  0  0  0  0  0  0  0
   48.1900    9.6470   19.9150 C   0  0  0  0  0  0  0  0  0  0  0  0
   47.5257    7.2356   21.1524 C   0  0  0  0  0  0  0  0  0  0  0  0
   47.9984    9.5978   21.2990 C   0  0  0  0  0  0  0  0  0  0  0  0
   47.6582    8.3940   21.9282 C   0  0  0  0  0  0  0  0  0  0  0  0
   49.9685    7.8828   12.0335 C   0  0  0  0  0  0  0  0  0  0  0  0
   51.6690    4.3110   18.1988 C   0  0  0  0  0  0  0  0  0  0  0  0
   49.9834    2.8467   17.1636 C   0  0  0  0  0  0  0  0  0  0  0  0
   47.4874    8.3439   23.4182 C   0  0  0  0  0  0  0  0  0  0  0  0
   48.0808    8.6751   16.5933 O   0  0  0  0  0  0  0  0  0  0  0  0
   47.5174    9.1430   18.6946 O   0  0  0  0  0  0  0  0  0  0  0  0
   51.0045    7.1268   16.1086 O   0  0  0  0  0  0  0  0  0  0  0  0
   49.2882    5.7947   15.5457 O   0  0  0  0  0  0  0  0  0  0  0  0
   47.7638    6.4907   19.4846 O   0  0  0  0  0  0  0  0  0  0  0  0
   50.4303    7.3065   18.6668 O   0  0  0  0  0  0  0  0  0  0  0  0
   47.8772    8.3114   17.8764 C   0  0  0  0  0  0  0  0  0  0  0  0
   48.1143    6.8252   18.1334 C   0  0  1  0  0  0  0  0  0  0  0  0
   49.5758    6.4528   17.9009 C   0  0  1  0  0  0  0  0  0  0  0  0
   49.8927    6.4108   16.4091 C   0  0  0  0  0  0  0  0  0  0  0  0
   48.0110    5.6814   16.1589 H   0  0  0  0  0  0  0  0  0  0  0  0
   47.9337    6.0688   17.8851 H   0  0  0  0  0  0  0  0  0  0  0  0
   49.5024    6.2900   14.3059 H   0  0  0  0  0  0  0  0  0  0  0  0
   49.8966   11.2384   14.5729 H   0  0  0  0  0  0  0  0  0  0  0  0
   50.3817   10.0850   12.4510 H   0  0  0  0  0  0  0  0  0  0  0  0
   46.8822   10.1337   18.6523 H   0  0  0  0  0  0  0  0  0  0  0  0
   49.9645    7.2708   19.5716 H   0  0  0  0  0  0  0  0  0  0  0  0
   46.1779   10.1360   21.0217 H   0  0  0  0  0  0  0  0  0  0  0  0
   49.2653    7.2671   21.9316 H   0  0  0  0  0  0  0  0  0  0  0  0
   51.3090    7.6821   11.5980 H   0  0  0  0  0  0  0  0  0  0  0  0
   49.6049    7.8113   11.1150 H   0  0  0  0  0  0  0  0  0  0  0  0
   50.1890    6.3538   11.9250 H   0  0  0  0  0  0  0  0  0  0  0  0
   50.8863    3.1713   19.3715 H   0  0  0  0  0  0  0  0  0  0  0  0
   51.7980    3.8351   17.9950 H   0  0  0  0  0  0  0  0  0  0  0  0
   50.8311    2.3575   17.7818 H   0  0  0  0  0  0  0  0  0  0  0  0
   48.4256    2.4686   18.3135 H   0  0  0  0  0  0  0  0  0  0  0  0
   48.3216    3.8210   19.4774 H   0  0  0  0  0  0  0  0  0  0  0  0
   47.5700    3.9490   17.8634 H   0  0  0  0  0  0  0  0  0  0  0  0
   47.6323    9.6016   23.5704 H   0  0  0  0  0  0  0  0  0  0  0  0
   46.1428    8.7080   23.1662 H   0  0  0  0  0  0  0  0  0  0  0  0
   47.6006    7.8240   23.6196 H   0  0  0  0  0  0  0  0  0  0  0  0
   51.0912    6.8243   16.9481 H   0  0  0  0  0  0  0  0  0  0  0  0
   50.2625    6.7418   18.5095 H   0  0  0  0  0  0  0  0  0  0  0  0
   50.3089    6.8698   14.5997 H   0  0  0  0  0  0  0  0  0  0  0  0
   47.1504   10.7027   14.4479 H   0  0  0  0  0  0  0  0  0  0  0  0
   48.2143    9.9116   12.3756 H   0  0  0  0  0  0  0  0  0  0  0  0
   47.5762    6.3803   19.1771 H   0  0  0  0  0  0  0  0  0  0  0  0
   48.4385   10.5923   19.4361 H   0  0  0  0  0  0  0  0  0  0  0  0
   47.2619    6.2885   21.6172 H   0  0  0  0  0  0  0  0  0  0  0  0
   48.1129   10.5095   21.8812 H   0  0  0  0  0  0  0  0  0  0  0  0
   50.6431    7.0290   12.1597 H   0  0  0  0  0  0  0  0  0  0  0  0
   50.5476    8.6999   11.5902 H   0  0  0  0  0  0  0  0  0  0  0  0
   49.1871    7.5871   11.3250 H   0  0  0  0  0  0  0  0  0  0  0  0
   51.8550    5.3089   18.5966 H   0  0  0  0  0  0  0  0  0  0  0  0
   52.4571    4.0684   17.4767 H   0  0  0  0  0  0  0  0  0  0  0  0
   51.7020    3.5945   19.0273 H   0  0  0  0  0  0  0  0  0  0  0  0
   50.7486    2.4181   16.5099 H   0  0  0  0  0  0  0  0  0  0  0  0
   49.9040    2.2460   18.0752 H   0  0  0  0  0  0  0  0  0  0  0  0
   49.0246    2.8201   16.6426 H   0  0  0  0  0  0  0  0  0  0  0  0
   46.7722    7.5635   23.7023 H   0  0  0  0  0  0  0  0  0  0  0  0
   48.4504    8.1361   23.8957 H   0  0  0  0  0  0  0  0  0  0  0  0
   47.1003    9.2969   23.7973 H   0  0  0  0  0  0  0  0  0  0  0  0
   47.8571    9.6314   16.5864 H   0  0  0  0  0  0  0  0  0  0  0  0
   51.0957    7.0218   15.1349 H   0  0  0  0  0  0  0  0  0  0  0  0
   48.3254    7.0508   20.0540 H   0  0  0  0  0  0  0  0  0  0  0  0
   51.2129    7.4792   18.1000 H   0  0  0  0  0  0  0  0  0  0  0  0
   47.4353    6.2583   17.4877 H   0  0  0  0  0  0  0  0  0  0  0  0
   49.7618    5.4424   18.2795 H   0  0  0  0  0  0  0  0  0  0  0  0
 10  4  1  0
 11  8  2  0
 12 11  1  0
 13  7  1  0
 14  7  2  0
 15 10  2  0
 16 10  1  0
 17 15  1  0
 18 16  2  0
 19 18  1  0
 20 11  1  0
 21 13  1  0
 22 13  1  0
 23 19  1  0
  3  5  2  0
  9 12  2  0
 17 19  2  0
  2  1  1  0
  3  4  1  0
  4  1  2  0
  5  2  1  0
  6  1  1  0
  7  6  1  0
  8  2  1  0
  9  5  1  0
 33 27  1  0
 34 31  2  0
 35 34  1  0
 36 30  1  0
 37 30  2  0
 38 33  2  0
 39 33  1  0
 40 38  1  0
 41 39  2  0
 42 41  1  0
 43 34  1  0
 44 36  1  0
 45 36  1  0
 46 42  1  0
 26 28  2  0
 32 35  2  0
 40 42  2  0
 25 24  1  0
 26 27  1  0
 27 24  2  0
 28 25  1  0
 29 24  1  0
 30 29  1  0
 31 25  1  0
 32 28  1  0
 53 48  2  0
 54 51  1  0
 55 52  1  0
 53 47  1  0
 55 56  1  0
 54 55  1  0
 56 49  1  0
 53 54  1  0
 56 50  2  0
  6 57  1  0
  6 58  1  0
  8 59  1  0
  9 60  1  0
 12 61  1  0
 15 62  1  0
 16 63  1  0
 17 64  1  0
 18 65  1  0
 20 66  1  0
 20 67  1  0
 20 68  1  0
 21 69  1  0
 21 70  1  0
 21 71  1  0
 22 72  1  0
 22 73  1  0
 22 74  1  0
 23 75  1  0
 23 76  1  0
 23 77  1  0
 29 78  1  0
 29 79  1  0
 31 80  1  0
 32 81  1  0
 35 82  1  0
 38 83  1  0
 39 84  1  0
 40 85  1  0
 41 86  1  0
 43 87  1  0
 43 88  1  0
 43 89  1  0
 44 90  1  0
 44 91  1  0
 44 92  1  0
 45 93  1  0
 45 94  1  0
 45 95  1  0
 46 96  1  0
 46 97  1  0
 46 98  1  0
 47 99  1  0
 49100  1  0
 51101  1  0
 52102  1  0
 54103  1  1
 55104  1  1
M  END
> <Uni-Dock RESULT> 
ENERGY=   -6.858  LOWER_BOUND=    1.681  UPPER_BOUND=    4.503
INTER + INTRA:          -6.858
INTER:                  -6.858
INTRA:                   0.000
UNBOUND:                 0.000

$$$$

     RDKit          3D

104107  0  0  0  0  0  0  0  0999 V2000
   48.0823    9.7228   19.1444 C   0  0  0  0  0  0  0  0  0  0  0  0
   48.2250   11.0261   18.6985 N   0  0  0  0  0  0  0  0  0  0  0  0
   48.1572   11.1295   20.9375 N   0  0  0  0  0  0  0  0  0  0  0  0
   48.0912    9.8223   20.5267 C   0  0  0  0  0  0  0  0  0  0  0  0
   48.2510   11.8354   19.8320 C   0  0  0  0  0  0  0  0  0  0  0  0
   47.9151    8.5394   18.2432 C   0  0  0  0  0  0  0  0  0  0  0  0
   49.2490    8.0736   17.6535 C   0  0  0  0  0  0  0  0  0  0  0  0
   48.3115   11.5372   17.4005 C   0  0  0  0  0  0  0  0  0  0  0  0
   48.3695   13.2396   19.6316 C   0  0  0  0  0  0  0  0  0  0  0  0
   47.9797    8.7176   21.4575 C   0  0  0  0  0  0  0  0  0  0  0  0
   48.4224   12.8665   17.2084 C   0  0  0  0  0  0  0  0  0  0  0  0
   48.4526   13.7367   18.3823 C   0  0  0  0  0  0  0  0  0  0  0  0
   49.3210    6.7507   17.2208 N   0  0  0  0  0  0  0  0  0  0  0  0
   50.2063    8.8413   17.5374 O   0  0  0  0  0  0  0  0  0  0  0  0
   46.9741    8.7273   22.4287 C   0  0  0  0  0  0  0  0  0  0  0  0
   48.8711    7.6396   21.4061 C   0  0  0  0  0  0  0  0  0  0  0  0
   46.8416    7.6576   23.3189 C   0  0  0  0  0  0  0  0  0  0  0  0
   48.7357    6.5682   22.2945 C   0  0  0  0  0  0  0  0  0  0  0  0
   47.7121    6.5630   23.2483 C   0  0  0  0  0  0  0  0  0  0  0  0
   48.5332   13.5060   15.8601 C   0  0  0  0  0  0  0  0  0  0  0  0
   50.6036    6.2229   16.7843 C   0  0  0  0  0  0  0  0  0  0  0  0
   48.2101    5.8097   17.2194 C   0  0  0  0  0  0  0  0  0  0  0  0
   47.5762    5.4341   24.2249 C   0  0  0  0  0  0  0  0  0  0  0  0
   48.3871    9.7081   19.4494 C   0  0  0  0  0  0  0  0  0  0  0  0
   47.9727   10.9269   18.9398 N   0  0  0  0  0  0  0  0  0  0  0  0
   46.8166   10.6124   20.8334 N   0  0  0  0  0  0  0  0  0  0  0  0
   47.6119    9.5208   20.5834 C   0  0  0  0  0  0  0  0  0  0  0  0
   47.0270   11.4326   19.8278 C   0  0  0  0  0  0  0  0  0  0  0  0
   49.4684    8.8721   18.8401 C   0  0  0  0  0  0  0  0  0  0  0  0
   49.0038    8.1280   17.5857 C   0  0  0  0  0  0  0  0  0  0  0  0
   48.3779   11.6128   17.7926 C   0  0  0  0  0  0  0  0  0  0  0  0
   46.4662   12.7066   19.5310 C   0  0  0  0  0  0  0  0  0  0  0  0
   47.6607    8.3744   21.4703 C   0  0  0  0  0  0  0  0  0  0  0  0
   47.8523   12.8209   17.5123 C   0  0  0  0  0  0  0  0  0  0  0  0
   46.8614   13.3752   18.4302 C   0  0  0  0  0  0  0  0  0  0  0  0
   49.9194    7.2568   16.9940 N   0  0  0  0  0  0  0  0  0  0  0  0
   47.8805    8.2979   17.1051 O   0  0  0  0  0  0  0  0  0  0  0  0
   47.5188    7.0716   20.9778 C   0  0  0  0  0  0  0  0  0  0  0  0
   47.8487    8.5702   22.8424 C   0  0  0  0  0  0  0  0  0  0  0  0
   47.5966    5.9765   21.8441 C   0  0  0  0  0  0  0  0  0  0  0  0
   47.9258    7.4747   23.7076 C   0  0  0  0  0  0  0  0  0  0  0  0
   47.7937    6.1697   23.2172 C   0  0  0  0  0  0  0  0  0  0  0  0
   48.2225   13.6245   16.3073 C   0  0  0  0  0  0  0  0  0  0  0  0
   51.2975    7.0700   17.4224 C   0  0  0  0  0  0  0  0  0  0  0  0
   49.5509    6.5807   15.7590 C   0  0  0  0  0  0  0  0  0  0  0  0
   47.9113    4.9988   24.1482 C   0  0  0  0  0  0  0  0  0  0  0  0
   47.1806   10.3920   19.9745 O   0  0  0  0  0  0  0  0  0  0  0  0
   46.9937    9.0262   21.7213 O   0  0  0  0  0  0  0  0  0  0  0  0
   50.0590   10.3070   18.2753 O   0  0  0  0  0  0  0  0  0  0  0  0
   48.3625    9.5462   17.0183 O   0  0  0  0  0  0  0  0  0  0  0  0
   47.5657    6.7812   20.1875 O   0  0  0  0  0  0  0  0  0  0  0  0
   49.9675    8.4145   20.0964 O   0  0  0  0  0  0  0  0  0  0  0  0
   47.2484    9.1671   20.5357 C   0  0  0  0  0  0  0  0  0  0  0  0
   47.6309    8.0656   19.5500 C   0  0  1  0  0  0  0  0  0  0  0  0
   49.0441    8.2740   19.0132 C   0  0  1  0  0  0  0  0  0  0  0  0
   49.0756    9.4145   18.0004 C   0  0  0  0  0  0  0  0  0  0  0  0
   47.2349    8.7776   17.4159 H   0  0  0  0  0  0  0  0  0  0  0  0
   47.4588    7.7299   18.8260 H   0  0  0  0  0  0  0  0  0  0  0  0
   48.3042   10.8255   16.5846 H   0  0  0  0  0  0  0  0  0  0  0  0
   48.4022   13.8815   20.5043 H   0  0  0  0  0  0  0  0  0  0  0  0
   48.5555   14.8075   18.2268 H   0  0  0  0  0  0  0  0  0  0  0  0
   46.2956    9.5748   22.4949 H   0  0  0  0  0  0  0  0  0  0  0  0
   49.6846    7.6319   20.6833 H   0  0  0  0  0  0  0  0  0  0  0  0
   46.0532    7.6840   24.0686 H   0  0  0  0  0  0  0  0  0  0  0  0
   49.4458    5.7454   22.2460 H   0  0  0  0  0  0  0  0  0  0  0  0
   49.4671   14.0711   15.7797 H   0  0  0  0  0  0  0  0  0  0  0  0
   47.6977   14.1923   15.6883 H   0  0  0  0  0  0  0  0  0  0  0  0
   48.5226   12.7640   15.0553 H   0  0  0  0  0  0  0  0  0  0  0  0
   50.8304    5.3194   17.3614 H   0  0  0  0  0  0  0  0  0  0  0  0
   51.4179    6.9398   16.9192 H   0  0  0  0  0  0  0  0  0  0  0  0
   50.5316    5.9667   15.7231 H   0  0  0  0  0  0  0  0  0  0  0  0
   48.2680    5.1907   16.3192 H   0  0  0  0  0  0  0  0  0  0  0  0
   48.2935    5.1758   18.1062 H   0  0  0  0  0  0  0  0  0  0  0  0
   47.2435    6.3153   17.2201 H   0  0  0  0  0  0  0  0  0  0  0  0
   47.9960    5.7213   25.1955 H   0  0  0  0  0  0  0  0  0  0  0  0
   46.5217    5.1669   24.3591 H   0  0  0  0  0  0  0  0  0  0  0  0
   48.0958    4.5364   23.8729 H   0  0  0  0  0  0  0  0  0  0  0  0
   50.3232    9.5055   18.5776 H   0  0  0  0  0  0  0  0  0  0  0  0
   49.8121    8.1369   19.5762 H   0  0  0  0  0  0  0  0  0  0  0  0
   49.1101   11.1316   17.1589 H   0  0  0  0  0  0  0  0  0  0  0  0
   45.7251   13.1135   20.2091 H   0  0  0  0  0  0  0  0  0  0  0  0
   46.4299   14.3443   18.1990 H   0  0  0  0  0  0  0  0  0  0  0  0
   47.3314    6.9034   19.9190 H   0  0  0  0  0  0  0  0  0  0  0  0
   47.9369    9.5802   23.2385 H   0  0  0  0  0  0  0  0  0  0  0  0
   47.4909    4.9730   21.4386 H   0  0  0  0  0  0  0  0  0  0  0  0
   48.0855    7.6497   24.7692 H   0  0  0  0  0  0  0  0  0  0  0  0
   48.9656   13.1090   15.6892 H   0  0  0  0  0  0  0  0  0  0  0  0
   48.6501   14.5878   16.6051 H   0  0  0  0  0  0  0  0  0  0  0  0
   47.3434   13.8136   15.6816 H   0  0  0  0  0  0  0  0  0  0  0  0
   51.4866    7.4509   18.4264 H   0  0  0  0  0  0  0  0  0  0  0  0
   51.9497    7.5988   16.7178 H   0  0  0  0  0  0  0  0  0  0  0  0
   51.5354    6.0005   17.4056 H   0  0  0  0  0  0  0  0  0  0  0  0
   50.2063    6.9347   14.9579 H   0  0  0  0  0  0  0  0  0  0  0  0
   49.6864    5.5027   15.8919 H   0  0  0  0  0  0  0  0  0  0  0  0
   48.5150    6.7702   15.4717 H   0  0  0  0  0  0  0  0  0  0  0  0
   47.3178    4.1517   23.7858 H   0  0  0  0  0  0  0  0  0  0  0  0
   48.9592    4.6918   24.2284 H   0  0  0  0  0  0  0  0  0  0  0  0
   47.5386    5.2569   25.1463 H   0  0  0  0  0  0  0  0  0  0  0  0
   46.8947   10.9696   20.7156 H   0  0  0  0  0  0  0  0  0  0  0  0
   49.9715   10.9798   17.5631 H   0  0  0  0  0  0  0  0  0  0  0  0
   48.1852    6.8240   20.9410 H   0  0  0  0  0  0  0  0  0  0  0  0
   50.6152    9.0937   19.8088 H   0  0  0  0  0  0  0  0  0  0  0  0
   46.8825    8.0531   18.7504 H   0  0  0  0  0  0  0  0  0  0  0  0
   49.3671    7.3784   18.4723 H   0  0  0  0  0  0  0  0  0  0  0  0
 10  4  1  0
 11  8  2  0
 12 11  1  0
 13  7  1  0
 14  7  2  0
 15 10  2  0
 16 10  1  0
 17 15  1  0
 18 16  2  0
 19 18  1  0
 20 11  1  0
 21 13  1  0
 22 13  1  0
 23 19  1  0
  3  5  2  0
  9 12  2  0
 17 19  2  0
  2  1  1  0
  3  4  1  0
  4  1  2  0
  5  2  1  0
  6  1  1  0
  7  6  1  0
  8  2  1  0
  9  5  1  0
 33 27  1  0
 34 31  2  0
 35 34  1  0
 36 30  1  0
 37 30  2  0
 38 33  2  0
 39 33  1  0
 40 38  1  0
 41 39  2  0
 42 41  1  0
 43 34  1  0
 44 36  1  0
 45 36  1  0
 46 42  1  0
 26 28  2  0
 32 35  2  0
 40 42  2  0
 25 24  1  0
 26 27  1  0
 27 24  2  0
 28 25  1  0
 29 24  1  0
 30 29  1  0
 31 25  1  0
 32 28  1  0
 53 48  2  0
 54 51  1  0
 55 52  1  0
 53 47  1  0
 55 56  1  0
 54 55  1  0
 56 49  1  0
 53 54  1  0
 56 50  2  0
  6 57  1  0
  6 58  1  0
  8 59  1  0
  9 60  1  0
 12 61  1  0
 15 62  1  0
 16 63  1  0
 17 64  1  0
 18 65  1  0
 20 66  1  0
 20 67  1  0
 20 68  1  0
 21 69  1  0
 21 70  1  0
 21 71  1  0
 22 72  1  0
 22 73  1  0
 22 74  1  0
 23 75  1  0
 23 76  1  0
 23 77  1  0
 29 78  1  0
 29 79  1  0
 31 80  1  0
 32 81  1  0
 35 82  1  0
 38 83  1  0
 39 84  1  0
 40 85  1  0
 41 86  1  0
 43 87  1  0
 43 88  1  0
 43 89  1  0
 44 90  1  0
 44 91  1  0
 44 92  1  0
 45 93  1  0
 45 94  1  0
 45 95  1  0
 46 96  1  0
 46 97  1  0
 46 98  1  0
 47 99  1  0
 49100  1  0
 51101  1  0
 52102  1  0
 54103  1  1
 55104  1  1
M  END
> <Uni-Dock RESULT> 
ENERGY=   -6.744  LOWER_BOUND=    2.279  UPPER_BOUND=    5.786
INTER + INTRA:          -6.744
INTER:                  -6.744
INTRA:                   0.000
UNBOUND:                 0.000

$$$$

     RDKit          3D

104107  0  0  0  0  0  0  0  0999 V2000
   48.6127    9.4590   18.3187 C   0  0  0  0  0  0  0  0  0  0  0  0
   48.4688   10.5209   19.1959 N   0  0  0  0  0  0  0  0  0  0  0  0
   47.9441    8.6724   20.3520 N   0  0  0  0  0  0  0  0  0  0  0  0
   48.3266    8.3356   19.0783 C   0  0  0  0  0  0  0  0  0  0  0  0
   48.0484    9.9821   20.4097 C   0  0  0  0  0  0  0  0  0  0  0  0
   48.9600    9.6062   16.8702 C   0  0  0  0  0  0  0  0  0  0  0  0
   50.4586    9.8385   16.6597 C   0  0  0  0  0  0  0  0  0  0  0  0
   48.6577   11.8919   19.0004 C   0  0  0  0  0  0  0  0  0  0  0  0
   47.8060   10.8887   21.4799 C   0  0  0  0  0  0  0  0  0  0  0  0
   48.3508    6.9653   18.6086 C   0  0  0  0  0  0  0  0  0  0  0  0
   48.4277   12.7522   20.0119 C   0  0  0  0  0  0  0  0  0  0  0  0
   47.9863   12.2110   21.2959 C   0  0  0  0  0  0  0  0  0  0  0  0
   50.9796    9.5095   15.4095 N   0  0  0  0  0  0  0  0  0  0  0  0
   51.1670   10.3234   17.5442 O   0  0  0  0  0  0  0  0  0  0  0  0
   47.2149    6.1628   18.7508 C   0  0  0  0  0  0  0  0  0  0  0  0
   49.5005    6.4259   18.0197 C   0  0  0  0  0  0  0  0  0  0  0  0
   47.2175    4.8456   18.2822 C   0  0  0  0  0  0  0  0  0  0  0  0
   49.5011    5.1095   17.5479 C   0  0  0  0  0  0  0  0  0  0  0  0
   48.3557    4.3143   17.6635 C   0  0  0  0  0  0  0  0  0  0  0  0
   48.6133   14.2330   19.9033 C   0  0  0  0  0  0  0  0  0  0  0  0
   52.4177    9.5798   15.2068 C   0  0  0  0  0  0  0  0  0  0  0  0
   50.1979    9.0361   14.2761 C   0  0  0  0  0  0  0  0  0  0  0  0
   48.3550    2.8926   17.1885 C   0  0  0  0  0  0  0  0  0  0  0  0
   48.8446    9.1863   18.5596 C   0  0  0  0  0  0  0  0  0  0  0  0
   48.2126   10.2681   19.1487 N   0  0  0  0  0  0  0  0  0  0  0  0
   46.8477    8.5135   19.4309 N   0  0  0  0  0  0  0  0  0  0  0  0
   47.9491    8.1377   18.7013 C   0  0  0  0  0  0  0  0  0  0  0  0
   47.0105    9.7962   19.6690 C   0  0  0  0  0  0  0  0  0  0  0  0
   50.2129    9.2452   17.9564 C   0  0  0  0  0  0  0  0  0  0  0  0
   50.2259    9.9292   16.5870 C   0  0  0  0  0  0  0  0  0  0  0  0
   48.6234   11.5970   19.2756 C   0  0  0  0  0  0  0  0  0  0  0  0
   46.1842   10.7287   20.3570 C   0  0  0  0  0  0  0  0  0  0  0  0
   48.1443    6.7797   18.2310 C   0  0  0  0  0  0  0  0  0  0  0  0
   47.8455   12.4802   19.9308 C   0  0  0  0  0  0  0  0  0  0  0  0
   46.5814   12.0091   20.4893 C   0  0  0  0  0  0  0  0  0  0  0  0
   51.4447    9.9575   15.9081 N   0  0  0  0  0  0  0  0  0  0  0  0
   49.2146   10.4476   16.1074 O   0  0  0  0  0  0  0  0  0  0  0  0
   48.4699    6.5160   16.8952 C   0  0  0  0  0  0  0  0  0  0  0  0
   48.0016    5.7124   19.1237 C   0  0  0  0  0  0  0  0  0  0  0  0
   48.6820    5.2021   16.4658 C   0  0  0  0  0  0  0  0  0  0  0  0
   48.2134    4.3992   18.6932 C   0  0  0  0  0  0  0  0  0  0  0  0
   48.5485    4.1325   17.3600 C   0  0  0  0  0  0  0  0  0  0  0  0
   48.2016   13.9207   20.1120 C   0  0  0  0  0  0  0  0  0  0  0  0
   52.7105    9.4699   16.4350 C   0  0  0  0  0  0  0  0  0  0  0  0
   51.5254   10.6590   14.6354 C   0  0  0  0  0  0  0  0  0  0  0  0
   48.8067    2.7229   16.9149 C   0  0  0  0  0  0  0  0  0  0  0  0
   47.4174    9.1214   18.9569 O   0  0  0  0  0  0  0  0  0  0  0  0
   47.2863    6.9211   18.6512 O   0  0  0  0  0  0  0  0  0  0  0  0
   50.4764   10.4693   19.0330 O   0  0  0  0  0  0  0  0  0  0  0  0
   49.3359   11.1691   17.2311 O   0  0  0  0  0  0  0  0  0  0  0  0
   48.7477    7.0346   16.2910 O   0  0  0  0  0  0  0  0  0  0  0  0
   50.5678    7.9272   18.3730 O   0  0  0  0  0  0  0  0  0  0  0  0
   47.7152    7.9988   18.2705 C   0  0  0  0  0  0  0  0  0  0  0  0
   48.5730    8.2509   17.0329 C   0  0  1  0  0  0  0  0  0  0  0  0
   49.9477    8.7912   17.4167 C   0  0  1  0  0  0  0  0  0  0  0  0
   49.8539   10.2516   17.8480 C   0  0  0  0  0  0  0  0  0  0  0  0
   48.4134   10.4473   16.4259 H   0  0  0  0  0  0  0  0  0  0  0  0
   48.6447    8.6932   16.3504 H   0  0  0  0  0  0  0  0  0  0  0  0
   49.0072   12.2116   18.0269 H   0  0  0  0  0  0  0  0  0  0  0  0
   47.4890   10.4835   22.4339 H   0  0  0  0  0  0  0  0  0  0  0  0
   47.8139   12.9044   22.1149 H   0  0  0  0  0  0  0  0  0  0  0  0
   46.3271    6.5644   19.2339 H   0  0  0  0  0  0  0  0  0  0  0  0
   50.4072    7.0217   17.9356 H   0  0  0  0  0  0  0  0  0  0  0  0
   46.3239    4.2364   18.4030 H   0  0  0  0  0  0  0  0  0  0  0  0
   50.4083    4.7051   17.1039 H   0  0  0  0  0  0  0  0  0  0  0  0
   49.3493   14.5815   20.6347 H   0  0  0  0  0  0  0  0  0  0  0  0
   47.6687   14.7553   20.0872 H   0  0  0  0  0  0  0  0  0  0  0  0
   48.9660   14.5275   18.9097 H   0  0  0  0  0  0  0  0  0  0  0  0
   52.7721    8.6097   14.8403 H   0  0  0  0  0  0  0  0  0  0  0  0
   52.9572    9.8271   16.1249 H   0  0  0  0  0  0  0  0  0  0  0  0
   52.6263   10.3488   14.4570 H   0  0  0  0  0  0  0  0  0  0  0  0
   50.5991    9.4750   13.3578 H   0  0  0  0  0  0  0  0  0  0  0  0
   50.2824    7.9471   14.2292 H   0  0  0  0  0  0  0  0  0  0  0  0
   49.1474    9.3189   14.3549 H   0  0  0  0  0  0  0  0  0  0  0  0
   48.4823    2.2107   18.0367 H   0  0  0  0  0  0  0  0  0  0  0  0
   47.4119    2.6573   16.6820 H   0  0  0  0  0  0  0  0  0  0  0  0
   49.1626    2.7105   16.4713 H   0  0  0  0  0  0  0  0  0  0  0  0
   50.8906    9.7859   18.6266 H   0  0  0  0  0  0  0  0  0  0  0  0
   50.5996    8.2263   17.8426 H   0  0  0  0  0  0  0  0  0  0  0  0
   49.5688   11.8695   18.8272 H   0  0  0  0  0  0  0  0  0  0  0  0
   45.2426   10.3794   20.7645 H   0  0  0  0  0  0  0  0  0  0  0  0
   45.9494   12.7231   21.0084 H   0  0  0  0  0  0  0  0  0  0  0  0
   48.5450    7.3315   16.1782 H   0  0  0  0  0  0  0  0  0  0  0  0
   47.7259    5.9050   20.1588 H   0  0  0  0  0  0  0  0  0  0  0  0
   48.9412    5.0212   15.4253 H   0  0  0  0  0  0  0  0  0  0  0  0
   48.1099    3.5855   19.4077 H   0  0  0  0  0  0  0  0  0  0  0  0
   49.1639   14.1617   19.6473 H   0  0  0  0  0  0  0  0  0  0  0  0
   48.2772   14.1662   21.1767 H   0  0  0  0  0  0  0  0  0  0  0  0
   47.4426   14.5683   19.6596 H   0  0  0  0  0  0  0  0  0  0  0  0
   52.5882    8.8130   17.2966 H   0  0  0  0  0  0  0  0  0  0  0  0
   53.3122   10.3353   16.7360 H   0  0  0  0  0  0  0  0  0  0  0  0
   53.2364    8.9174   15.6482 H   0  0  0  0  0  0  0  0  0  0  0  0
   52.1975   11.5144   14.7499 H   0  0  0  0  0  0  0  0  0  0  0  0
   51.9285    9.9767   13.8803 H   0  0  0  0  0  0  0  0  0  0  0  0
   50.5536   11.0218   14.2957 H   0  0  0  0  0  0  0  0  0  0  0  0
   48.5551    2.5965   15.8557 H   0  0  0  0  0  0  0  0  0  0  0  0
   49.8625    2.4742   17.0629 H   0  0  0  0  0  0  0  0  0  0  0  0
   48.1914    2.0166   17.4844 H   0  0  0  0  0  0  0  0  0  0  0  0
   46.8441    8.8001   19.6867 H   0  0  0  0  0  0  0  0  0  0  0  0
   50.3435   11.4303   19.1952 H   0  0  0  0  0  0  0  0  0  0  0  0
   49.1730    6.4050   16.9042 H   0  0  0  0  0  0  0  0  0  0  0  0
   51.0428    8.5171   18.9975 H   0  0  0  0  0  0  0  0  0  0  0  0
   48.0269    8.9379   16.3776 H   0  0  0  0  0  0  0  0  0  0  0  0
   50.6060    8.7744   16.5420 H   0  0  0  0  0  0  0  0  0  0  0  0
 10  4  1  0
 11  8  2  0
 12 11  1  0
 13  7  1  0
 14  7  2  0
 15 10  2  0
 16 10  1  0
 17 15  1  0
 18 16  2  0
 19 18  1  0
 20 11  1  0
 21 13  1  0
 22 13  1  0
 23 19  1  0
  3  5  2  0
  9 12  2  0
 17 19  2  0
  2  1  1  0
  3  4  1  0
  4  1  2  0
  5  2  1  0
  6  1  1  0
  7  6  1  0
  8  2  1  0
  9  5  1  0
 33 27  1  0
 34 31  2  0
 35 34  1  0
 36 30  1  0
 37 30  2  0
 38 33  2  0
 39 33  1  0
 40 38  1  0
 41 39  2  0
 42 41  1  0
 43 34  1  0
 44 36  1  0
 45 36  1  0
 46 42  1  0
 26 28  2  0
 32 35  2  0
 40 42  2  0
 25 24  1  0
 26 27  1  0
 27 24  2  0
 28 25  1  0
 29 24  1  0
 30 29  1  0
 31 25  1  0
 32 28  1  0
 53 48  2  0
 54 51  1  0
 55 52  1  0
 53 47  1  0
 55 56  1  0
 54 55  1  0
 56 49  1  0
 53 54  1  0
 56 50  2  0
  6 57  1  0
  6 58  1  0
  8 59  1  0
  9 60  1  0
 12 61  1  0
 15 62  1  0
 16 63  1  0
 17 64  1  0
 18 65  1  0
 20 66  1  0
 20 67  1  0
 20 68  1  0
 21 69  1  0
 21 70  1  0
 21 71  1  0
 22 72  1  0
 22 73  1  0
 22 74  1  0
 23 75  1  0
 23 76  1  0
 23 77  1  0
 29 78  1  0
 29 79  1  0
 31 80  1  0
 32 81  1  0
 35 82  1  0
 38 83  1  0
 39 84  1  0
 40 85  1  0
 41 86  1  0
 43 87  1  0
 43 88  1  0
 43 89  1  0
 44 90  1  0
 44 91  1  0
 44 92  1  0
 45 93  1  0
 45 94  1  0
 45 95  1  0
 46 96  1  0
 46 97  1  0
 46 98  1  0
 47 99  1  0
 49100  1  0
 51101  1  0
 52102  1  0
 54103  1  1
 55104  1  1
M  END
> <Uni-Dock RESULT> 
ENERGY=   -6.481  LOWER_BOUND=    1.326  UPPER_BOUND=    5.688
INTER + INTRA:          -6.481
INTER:                  -6.481
INTRA:                   0.000
UNBOUND:                 0.000

$$$$

     RDKit          3D

104107  0  0  0  0  0  0  0  0999 V2000
   50.3725    7.1717   15.8438 C   0  0  0  0  0  0  0  0  0  0  0  0
   50.1627    7.7714   14.6132 N   0  0  0  0  0  0  0  0  0  0  0  0
   48.1635    7.6941   15.6260 N   0  0  0  0  0  0  0  0  0  0  0  0
   49.1292    7.1840   16.4562 C   0  0  0  0  0  0  0  0  0  0  0  0
   48.8010    8.0537   14.5335 C   0  0  0  0  0  0  0  0  0  0  0  0
   51.6884    6.6210   16.2973 C   0  0  0  0  0  0  0  0  0  0  0  0
   52.6292    7.7204   16.7976 C   0  0  0  0  0  0  0  0  0  0  0  0
   51.0582    8.0602   13.5796 C   0  0  0  0  0  0  0  0  0  0  0  0
   48.3269    8.6605   13.3364 C   0  0  0  0  0  0  0  0  0  0  0  0
   48.8296    6.6722   17.7781 C   0  0  0  0  0  0  0  0  0  0  0  0
   50.6113    8.6335   12.4449 C   0  0  0  0  0  0  0  0  0  0  0  0
   49.1862    8.9402   12.3374 C   0  0  0  0  0  0  0  0  0  0  0  0
   53.6430    7.3345   17.6728 N   0  0  0  0  0  0  0  0  0  0  0  0
   52.5155    8.8882   16.4200 O   0  0  0  0  0  0  0  0  0  0  0  0
   47.8262    5.7122   17.9395 C   0  0  0  0  0  0  0  0  0  0  0  0
   49.5253    7.1310   18.9028 C   0  0  0  0  0  0  0  0  0  0  0  0
   47.5419    5.1939   19.2064 C   0  0  0  0  0  0  0  0  0  0  0  0
   49.2429    6.6094   20.1692 C   0  0  0  0  0  0  0  0  0  0  0  0
   48.2588    5.6277   20.3283 C   0  0  0  0  0  0  0  0  0  0  0  0
   51.4931    8.9911   11.2900 C   0  0  0  0  0  0  0  0  0  0  0  0
   54.4724    8.3607   18.2836 C   0  0  0  0  0  0  0  0  0  0  0  0
   53.9166    5.9648   18.0837 C   0  0  0  0  0  0  0  0  0  0  0  0
   47.9271    5.0836   21.6851 C   0  0  0  0  0  0  0  0  0  0  0  0
   50.1630    7.4452   16.1035 C   0  0  0  0  0  0  0  0  0  0  0  0
   49.9613    7.4950   14.7347 N   0  0  0  0  0  0  0  0  0  0  0  0
   48.2891    6.2600   15.5712 N   0  0  0  0  0  0  0  0  0  0  0  0
   49.1481    6.6284   16.5776 C   0  0  0  0  0  0  0  0  0  0  0  0
   48.8040    6.7665   14.4727 C   0  0  0  0  0  0  0  0  0  0  0  0
   51.2568    8.1788   16.8138 C   0  0  0  0  0  0  0  0  0  0  0  0
   52.6237    7.5113   16.6429 C   0  0  0  0  0  0  0  0  0  0  0  0
   50.6930    8.1401   13.7352 C   0  0  0  0  0  0  0  0  0  0  0  0
   48.3687    6.6938   13.1196 C   0  0  0  0  0  0  0  0  0  0  0  0
   48.9314    6.2531   17.9616 C   0  0  0  0  0  0  0  0  0  0  0  0
   50.2803    8.0769   12.4545 C   0  0  0  0  0  0  0  0  0  0  0  0
   49.0669    7.3224   12.1541 C   0  0  0  0  0  0  0  0  0  0  0  0
   53.6930    8.0771   17.3386 N   0  0  0  0  0  0  0  0  0  0  0  0
   52.7833    6.5296   15.9135 O   0  0  0  0  0  0  0  0  0  0  0  0
   49.9539    5.6753   18.7236 C   0  0  0  0  0  0  0  0  0  0  0  0
   47.6794    6.4671   18.5473 C   0  0  0  0  0  0  0  0  0  0  0  0
   49.7352    5.3456   20.0650 C   0  0  0  0  0  0  0  0  0  0  0  0
   47.4618    6.1366   19.8882 C   0  0  0  0  0  0  0  0  0  0  0  0
   48.4851    5.5672   20.6561 C   0  0  0  0  0  0  0  0  0  0  0  0
   51.0009    8.7316   11.3201 C   0  0  0  0  0  0  0  0  0  0  0  0
   53.6265    9.2928   18.1356 C   0  0  0  0  0  0  0  0  0  0  0  0
   55.0259    7.5230   17.1526 C   0  0  0  0  0  0  0  0  0  0  0  0
   48.2526    5.2468   22.1035 C   0  0  0  0  0  0  0  0  0  0  0  0
   49.1947    6.5430   15.4347 O   0  0  0  0  0  0  0  0  0  0  0  0
   48.3003    5.8509   17.3512 O   0  0  0  0  0  0  0  0  0  0  0  0
   51.1578    9.2467   15.5582 O   0  0  0  0  0  0  0  0  0  0  0  0
   52.3419    7.4197   15.0131 O   0  0  0  0  0  0  0  0  0  0  0  0
   50.7836    5.6353   18.5783 O   0  0  0  0  0  0  0  0  0  0  0  0
   50.4639    8.4581   17.9671 O   0  0  0  0  0  0  0  0  0  0  0  0
   49.3003    6.1652   16.7255 C   0  0  0  0  0  0  0  0  0  0  0  0
   50.7367    6.1600   17.2431 C   0  0  1  0  0  0  0  0  0  0  0  0
   51.3243    7.5684   17.2503 C   0  0  1  0  0  0  0  0  0  0  0  0
   51.6653    8.0196   15.8334 C   0  0  0  0  0  0  0  0  0  0  0  0
   52.1855    6.0859   15.4786 H   0  0  0  0  0  0  0  0  0  0  0  0
   51.4962    5.8975   17.0989 H   0  0  0  0  0  0  0  0  0  0  0  0
   52.1014    7.8225   13.7450 H   0  0  0  0  0  0  0  0  0  0  0  0
   47.2715    8.8963   13.2638 H   0  0  0  0  0  0  0  0  0  0  0  0
   48.8290    9.4147   11.4271 H   0  0  0  0  0  0  0  0  0  0  0  0
   47.2605    5.3720   17.0752 H   0  0  0  0  0  0  0  0  0  0  0  0
   50.2825    7.9062   18.8034 H   0  0  0  0  0  0  0  0  0  0  0  0
   46.7564    4.4481   19.3119 H   0  0  0  0  0  0  0  0  0  0  0  0
   49.7865    6.9875   21.0324 H   0  0  0  0  0  0  0  0  0  0  0  0
   51.4409   10.0653   11.0864 H   0  0  0  0  0  0  0  0  0  0  0  0
   51.1854    8.4527   10.3878 H   0  0  0  0  0  0  0  0  0  0  0  0
   52.5407    8.7395   11.4843 H   0  0  0  0  0  0  0  0  0  0  0  0
   54.4367    8.2440   19.3727 H   0  0  0  0  0  0  0  0  0  0  0  0
   54.1430    9.3712   18.0274 H   0  0  0  0  0  0  0  0  0  0  0  0
   55.5020    8.2272   17.9383 H   0  0  0  0  0  0  0  0  0  0  0  0
   54.9991    5.8226   18.1526 H   0  0  0  0  0  0  0  0  0  0  0  0
   53.4622    5.8014   19.0645 H   0  0  0  0  0  0  0  0  0  0  0  0
   53.5246    5.2366   17.3724 H   0  0  0  0  0  0  0  0  0  0  0  0
   47.0159    5.5556   22.0692 H   0  0  0  0  0  0  0  0  0  0  0  0
   47.7724    3.9996   21.6370 H   0  0  0  0  0  0  0  0  0  0  0  0
   48.7394    5.2639   22.3974 H   0  0  0  0  0  0  0  0  0  0  0  0
   51.3177    9.2069   16.4394 H   0  0  0  0  0  0  0  0  0  0  0  0
   51.0218    8.2270   17.8830 H   0  0  0  0  0  0  0  0  0  0  0  0
   51.5850    8.6715   14.0372 H   0  0  0  0  0  0  0  0  0  0  0  0
   47.4722    6.1270   12.8970 H   0  0  0  0  0  0  0  0  0  0  0  0
   48.7398    7.2626   11.1206 H   0  0  0  0  0  0  0  0  0  0  0  0
   50.9216    5.4645   18.2721 H   0  0  0  0  0  0  0  0  0  0  0  0
   46.8709    6.8943   17.9570 H   0  0  0  0  0  0  0  0  0  0  0  0
   50.5461    4.9044   20.6399 H   0  0  0  0  0  0  0  0  0  0  0  0
   46.4842    6.3238   20.3269 H   0  0  0  0  0  0  0  0  0  0  0  0
   51.8973    9.2610   11.6611 H   0  0  0  0  0  0  0  0  0  0  0  0
   50.3528    9.4626   10.8248 H   0  0  0  0  0  0  0  0  0  0  0  0
   51.3154    7.9885   10.5792 H   0  0  0  0  0  0  0  0  0  0  0  0
   52.6057    9.5808   18.3884 H   0  0  0  0  0  0  0  0  0  0  0  0
   54.0882   10.1044   17.5614 H   0  0  0  0  0  0  0  0  0  0  0  0
   54.1857    9.1416   19.0658 H   0  0  0  0  0  0  0  0  0  0  0  0
   55.6545    8.2785   16.6725 H   0  0  0  0  0  0  0  0  0  0  0  0
   55.4435    7.2696   18.1322 H   0  0  0  0  0  0  0  0  0  0  0  0
   55.0225    6.6256   16.5312 H   0  0  0  0  0  0  0  0  0  0  0  0
   48.8755    4.4026   22.4206 H   0  0  0  0  0  0  0  0  0  0  0  0
   48.4929    6.1189   22.7202 H   0  0  0  0  0  0  0  0  0  0  0  0
   47.2072    4.9658   22.2763 H   0  0  0  0  0  0  0  0  0  0  0  0
   48.2338    6.4608   15.2483 H   0  0  0  0  0  0  0  0  0  0  0  0
   51.4418    9.4161   14.6318 H   0  0  0  0  0  0  0  0  0  0  0  0
   50.2076    6.2135   19.1143 H   0  0  0  0  0  0  0  0  0  0  0  0
   50.4923    9.3088   17.4781 H   0  0  0  0  0  0  0  0  0  0  0  0
   51.3180    5.4726   16.6194 H   0  0  0  0  0  0  0  0  0  0  0  0
   52.2683    7.5694   17.8050 H   0  0  0  0  0  0  0  0  0  0  0  0
 10  4  1  0
 11  8  2  0
 12 11  1  0
 13  7  1  0
 14  7  2  0
 15 10  2  0
 16 10  1  0
 17 15  1  0
 18 16  2  0
 19 18  1  0
 20 11  1  0
 21 13  1  0
 22 13  1  0
 23 19  1  0
  3  5  2  0
  9 12  2  0
 17 19  2  0
  2  1  1  0
  3  4  1  0
  4  1  2  0
  5  2  1  0
  6  1  1  0
  7  6  1  0
  8  2  1  0
  9  5  1  0
 33 27  1  0
 34 31  2  0
 35 34  1  0
 36 30  1  0
 37 30  2  0
 38 33  2  0
 39 33  1  0
 40 38  1  0
 41 39  2  0
 42 41  1  0
 43 34  1  0
 44 36  1  0
 45 36  1  0
 46 42  1  0
 26 28  2  0
 32 35  2  0
 40 42  2  0
 25 24  1  0
 26 27  1  0
 27 24  2  0
 28 25  1  0
 29 24  1  0
 30 29  1  0
 31 25  1  0
 32 28  1  0
 53 48  2  0
 54 51  1  0
 55 52  1  0
 53 47  1  0
 55 56  1  0
 54 55  1  0
 56 49  1  0
 53 54  1  0
 56 50  2  0
  6 57  1  0
  6 58  1  0
  8 59  1  0
  9 60  1  0
 12 61  1  0
 15 62  1  0
 16 63  1  0
 17 64  1  0
 18 65  1  0
 20 66  1  0
 20 67  1  0
 20 68  1  0
 21 69  1  0
 21 70  1  0
 21 71  1  0
 22 72  1  0
 22 73  1  0
 22 74  1  0
 23 75  1  0
 23 76  1  0
 23 77  1  0
 29 78  1  0
 29 79  1  0
 31 80  1  0
 32 81  1  0
 35 82  1  0
 38 83  1  0
 39 84  1  0
 40 85  1  0
 41 86  1  0
 43 87  1  0
 43 88  1  0
 43 89  1  0
 44 90  1  0
 44 91  1  0
 44 92  1  0
 45 93  1  0
 45 94  1  0
 45 95  1  0
 46 96  1  0
 46 97  1  0
 46 98  1  0
 47 99  1  0
 49100  1  0
 51101  1  0
 52102  1  0
 54103  1  1
 55104  1  1
M  END
> <Uni-Dock RESULT> 
ENERGY=   -6.351  LOWER_BOUND=    2.775  UPPER_BOUND=    4.924
INTER + INTRA:          -6.351
INTER:                  -6.351
INTRA:                   0.000
UNBOUND:                 0.000

$$$$

     RDKit          3D

104107  0  0  0  0  0  0  0  0999 V2000
   48.4536    8.8254   17.5493 C   0  0  0  0  0  0  0  0  0  0  0  0
   48.2943   10.0254   18.2219 N   0  0  0  0  0  0  0  0  0  0  0  0
   48.7769    8.4879   19.7812 N   0  0  0  0  0  0  0  0  0  0  0  0
   48.7951    7.9135   18.5355 C   0  0  0  0  0  0  0  0  0  0  0  0
   48.4895    9.7544   19.5742 C   0  0  0  0  0  0  0  0  0  0  0  0
   48.2342    8.6500   16.0791 C   0  0  0  0  0  0  0  0  0  0  0  0
   49.4292    9.1409   15.2575 C   0  0  0  0  0  0  0  0  0  0  0  0
   47.9790   11.2999   17.7424 C   0  0  0  0  0  0  0  0  0  0  0  0
   48.3544   10.8391   20.4858 C   0  0  0  0  0  0  0  0  0  0  0  0
   49.0780    6.5076   18.3298 C   0  0  0  0  0  0  0  0  0  0  0  0
   47.8493   12.3281   18.6039 C   0  0  0  0  0  0  0  0  0  0  0  0
   48.0501   12.0691   20.0283 C   0  0  0  0  0  0  0  0  0  0  0  0
   49.5764    8.6107   13.9770 N   0  0  0  0  0  0  0  0  0  0  0  0
   50.2085    9.9895   15.6957 O   0  0  0  0  0  0  0  0  0  0  0  0
   48.3575    5.5434   19.0410 C   0  0  0  0  0  0  0  0  0  0  0  0
   50.0710    6.0964   17.4329 C   0  0  0  0  0  0  0  0  0  0  0  0
   48.6053    4.1829   18.8359 C   0  0  0  0  0  0  0  0  0  0  0  0
   50.3156    4.7352   17.2255 C   0  0  0  0  0  0  0  0  0  0  0  0
   49.5756    3.7687   17.9153 C   0  0  0  0  0  0  0  0  0  0  0  0
   47.5265   13.7282   18.1859 C   0  0  0  0  0  0  0  0  0  0  0  0
   50.7695    8.9385   13.2135 C   0  0  0  0  0  0  0  0  0  0  0  0
   48.6450    7.6898   13.3412 C   0  0  0  0  0  0  0  0  0  0  0  0
   49.8501    2.3077   17.7232 C   0  0  0  0  0  0  0  0  0  0  0  0
   48.8241    8.6856   17.7205 C   0  0  0  0  0  0  0  0  0  0  0  0
   48.1272    9.7194   18.3226 N   0  0  0  0  0  0  0  0  0  0  0  0
   47.5400    7.8497   19.4093 N   0  0  0  0  0  0  0  0  0  0  0  0
   48.3929    7.5434   18.3773 C   0  0  0  0  0  0  0  0  0  0  0  0
   47.3732    9.1523   19.3465 C   0  0  0  0  0  0  0  0  0  0  0  0
   49.8246    8.8796   16.6248 C   0  0  0  0  0  0  0  0  0  0  0  0
   49.1697    9.1552   15.2689 C   0  0  0  0  0  0  0  0  0  0  0  0
   48.1304   11.0899   18.0536 C   0  0  0  0  0  0  0  0  0  0  0  0
   46.5817   10.0299   20.1397 C   0  0  0  0  0  0  0  0  0  0  0  0
   48.8243    6.1865   18.1013 C   0  0  0  0  0  0  0  0  0  0  0  0
   47.3861   11.9232   18.8061 C   0  0  0  0  0  0  0  0  0  0  0  0
   46.5894   11.3536   19.8890 C   0  0  0  0  0  0  0  0  0  0  0  0
   50.0210    9.2673   14.1688 N   0  0  0  0  0  0  0  0  0  0  0  0
   47.9495    9.2897   15.1494 O   0  0  0  0  0  0  0  0  0  0  0  0
   48.7486    5.6515   16.8098 C   0  0  0  0  0  0  0  0  0  0  0  0
   49.3211    5.3946   19.1416 C   0  0  0  0  0  0  0  0  0  0  0  0
   49.1953    4.3506   16.5567 C   0  0  0  0  0  0  0  0  0  0  0  0
   49.7669    4.0941   18.8876 C   0  0  0  0  0  0  0  0  0  0  0  0
   49.7015    3.5589   17.5952 C   0  0  0  0  0  0  0  0  0  0  0  0
   47.3245   13.4010   18.5892 C   0  0  0  0  0  0  0  0  0  0  0  0
   51.4747    9.2305   14.2253 C   0  0  0  0  0  0  0  0  0  0  0  0
   49.4535    9.6003   12.8706 C   0  0  0  0  0  0  0  0  0  0  0  0
   50.2133    2.1743   17.3256 C   0  0  0  0  0  0  0  0  0  0  0  0
   47.7040    8.4176   18.6547 O   0  0  0  0  0  0  0  0  0  0  0  0
   48.1565    6.2434   18.7967 O   0  0  0  0  0  0  0  0  0  0  0  0
   50.0458   10.3750   17.2892 O   0  0  0  0  0  0  0  0  0  0  0  0
   48.2130   10.2953   15.9963 O   0  0  0  0  0  0  0  0  0  0  0  0
   48.6361    6.0362   16.0678 O   0  0  0  0  0  0  0  0  0  0  0  0
   50.6826    7.8340   17.0800 O   0  0  0  0  0  0  0  0  0  0  0  0
   48.0828    7.2458   18.1037 C   0  0  0  0  0  0  0  0  0  0  0  0
   48.3571    7.3379   16.6046 C   0  0  1  0  0  0  0  0  0  0  0  0
   49.5463    8.2503   16.3177 C   0  0  1  0  0  0  0  0  0  0  0  0
   49.1611    9.7150   16.5013 C   0  0  0  0  0  0  0  0  0  0  0  0
   47.3416    9.1988   15.7540 H   0  0  0  0  0  0  0  0  0  0  0  0
   48.0580    7.5847   15.8862 H   0  0  0  0  0  0  0  0  0  0  0  0
   47.8677   11.4146   16.6716 H   0  0  0  0  0  0  0  0  0  0  0  0
   48.5142   10.6461   21.5403 H   0  0  0  0  0  0  0  0  0  0  0  0
   47.9584   12.9017   20.7209 H   0  0  0  0  0  0  0  0  0  0  0  0
   47.6048    5.8547   19.7617 H   0  0  0  0  0  0  0  0  0  0  0  0
   50.6696    6.8319   16.8991 H   0  0  0  0  0  0  0  0  0  0  0  0
   48.0348    3.4475   19.3999 H   0  0  0  0  0  0  0  0  0  0  0  0
   51.0996    4.4363   16.5330 H   0  0  0  0  0  0  0  0  0  0  0  0
   48.3209   14.4138   18.4975 H   0  0  0  0  0  0  0  0  0  0  0  0
   46.5864   14.0595   18.6387 H   0  0  0  0  0  0  0  0  0  0  0  0
   47.4191   13.8145   17.0999 H   0  0  0  0  0  0  0  0  0  0  0  0
   51.2591    8.0084   12.9036 H   0  0  0  0  0  0  0  0  0  0  0  0
   51.4820    9.5363   13.7882 H   0  0  0  0  0  0  0  0  0  0  0  0
   50.4702    9.5037   12.3257 H   0  0  0  0  0  0  0  0  0  0  0  0
   48.5619    7.9425   12.2800 H   0  0  0  0  0  0  0  0  0  0  0  0
   49.0371    6.6747   13.4467 H   0  0  0  0  0  0  0  0  0  0  0  0
   47.6483    7.7450   13.7808 H   0  0  0  0  0  0  0  0  0  0  0  0
   50.4553    1.9246   18.5524 H   0  0  0  0  0  0  0  0  0  0  0  0
   48.9117    1.7432   17.6778 H   0  0  0  0  0  0  0  0  0  0  0  0
   50.3861    2.1216   16.7862 H   0  0  0  0  0  0  0  0  0  0  0  0
   50.4879    9.7160   16.8721 H   0  0  0  0  0  0  0  0  0  0  0  0
   50.4424    7.9787   16.5386 H   0  0  0  0  0  0  0  0  0  0  0  0
   48.7403   11.4328   17.2293 H   0  0  0  0  0  0  0  0  0  0  0  0
   45.9849    9.6049   20.9382 H   0  0  0  0  0  0  0  0  0  0  0  0
   45.9814   12.0236   20.4889 H   0  0  0  0  0  0  0  0  0  0  0  0
   48.3271    6.2396   15.9967 H   0  0  0  0  0  0  0  0  0  0  0  0
   49.3625    5.7931   20.1536 H   0  0  0  0  0  0  0  0  0  0  0  0
   49.1339    3.9580   15.5444 H   0  0  0  0  0  0  0  0  0  0  0  0
   50.1618    3.5006   19.7093 H   0  0  0  0  0  0  0  0  0  0  0  0
   47.9538   13.7136   17.7488 H   0  0  0  0  0  0  0  0  0  0  0  0
   47.6728   13.9343   19.4802 H   0  0  0  0  0  0  0  0  0  0  0  0
   46.2989   13.7193   18.3730 H   0  0  0  0  0  0  0  0  0  0  0  0
   51.8541    8.8194   15.1612 H   0  0  0  0  0  0  0  0  0  0  0  0
   51.8476   10.2553   14.1152 H   0  0  0  0  0  0  0  0  0  0  0  0
   51.8492    8.6164   13.3986 H   0  0  0  0  0  0  0  0  0  0  0  0
   49.8300   10.5811   12.5659 H   0  0  0  0  0  0  0  0  0  0  0  0
   49.7688    8.8460   12.1427 H   0  0  0  0  0  0  0  0  0  0  0  0
   48.3626    9.6351   12.8878 H   0  0  0  0  0  0  0  0  0  0  0  0
   49.6735    1.7154   16.4894 H   0  0  0  0  0  0  0  0  0  0  0  0
   51.2801    2.2133   17.0831 H   0  0  0  0  0  0  0  0  0  0  0  0
   50.0705    1.5299   18.2009 H   0  0  0  0  0  0  0  0  0  0  0  0
   47.5348    8.1865   19.5942 H   0  0  0  0  0  0  0  0  0  0  0  0
   49.6882   11.2905   17.3284 H   0  0  0  0  0  0  0  0  0  0  0  0
   49.4125    5.7045   16.5583 H   0  0  0  0  0  0  0  0  0  0  0  0
   51.1348    8.6597   17.3581 H   0  0  0  0  0  0  0  0  0  0  0  0
   47.4415    7.6855   16.1145 H   0  0  0  0  0  0  0  0  0  0  0  0
   49.8461    8.1440   15.2700 H   0  0  0  0  0  0  0  0  0  0  0  0
 10  4  1  0
 11  8  2  0
 12 11  1  0
 13  7  1  0
 14  7  2  0
 15 10  2  0
 16 10  1  0
 17 15  1  0
 18 16  2  0
 19 18  1  0
 20 11  1  0
 21 13  1  0
 22 13  1  0
 23 19  1  0
  3  5  2  0
  9 12  2  0
 17 19  2  0
  2  1  1  0
  3  4  1  0
  4  1  2  0
  5  2  1  0
  6  1  1  0
  7  6  1  0
  8  2  1  0
  9  5  1  0
 33 27  1  0
 34 31  2  0
 35 34  1  0
 36 30  1  0
 37 30  2  0
 38 33  2  0
 39 33  1  0
 40 38  1  0
 41 39  2  0
 42 41  1  0
 43 34  1  0
 44 36  1  0
 45 36  1  0
 46 42  1  0
 26 28  2  0
 32 35  2  0
 40 42  2  0
 25 24  1  0
 26 27  1  0
 27 24  2  0
 28 25  1  0
 29 24  1  0
 30 29  1  0
 31 25  1  0
 32 28  1  0
 53 48  2  0
 54 51  1  0
 55 52  1  0
 53 47  1  0
 55 56  1  0
 54 55  1  0
 56 49  1  0
 53 54  1  0
 56 50  2  0
  6 57  1  0
  6 58  1  0
  8 59  1  0
  9 60  1  0
 12 61  1  0
 15 62  1  0
 16 63  1  0
 17 64  1  0
 18 65  1  0
 20 66  1  0
 20 67  1  0
 20 68  1  0
 21 69  1  0
 21 70  1  0
 21 71  1  0
 22 72  1  0
 22 73  1  0
 22 74  1  0
 23 75  1  0
 23 76  1  0
 23 77  1  0
 29 78  1  0
 29 79  1  0
 31 80  1  0
 32 81  1  0
 35 82  1  0
 38 83  1  0
 39 84  1  0
 40 85  1  0
 41 86  1  0
 43 87  1  0
 43 88  1  0
 43 89  1  0
 44 90  1  0
 44 91  1  0
 44 92  1  0
 45 93  1  0
 45 94  1  0
 45 95  1  0
 46 96  1  0
 46 97  1  0
 46 98  1  0
 47 99  1  0
 49100  1  0
 51101  1  0
 52102  1  0
 54103  1  1
 55104  1  1
M  END
> <Uni-Dock RESULT> 
ENERGY=   -6.272  LOWER_BOUND=    1.235  UPPER_BOUND=    5.617
INTER + INTRA:          -6.272
INTER:                  -6.272
INTRA:                   0.000
UNBOUND:                 0.000

$$$$

     RDKit          3D

104107  0  0  0  0  0  0  0  0999 V2000
   48.9364    8.7030   18.3018 C   0  0  0  0  0  0  0  0  0  0  0  0
   48.9846    8.7502   16.9185 N   0  0  0  0  0  0  0  0  0  0  0  0
   48.4272    6.6464   17.4587 N   0  0  0  0  0  0  0  0  0  0  0  0
   48.5452    7.4061   18.5948 C   0  0  0  0  0  0  0  0  0  0  0  0
   48.6795    7.4692   16.4643 C   0  0  0  0  0  0  0  0  0  0  0  0
   49.2946    9.8494   19.1951 C   0  0  0  0  0  0  0  0  0  0  0  0
   48.1592   10.8710   19.3016 C   0  0  0  0  0  0  0  0  0  0  0  0
   49.2889    9.8073   16.0563 C   0  0  0  0  0  0  0  0  0  0  0  0
   48.6868    7.2541   15.0573 C   0  0  0  0  0  0  0  0  0  0  0  0
   48.3404    6.8611   19.9215 C   0  0  0  0  0  0  0  0  0  0  0  0
   49.2977    9.6056   14.7239 C   0  0  0  0  0  0  0  0  0  0  0  0
   48.9801    8.2699   14.2225 C   0  0  0  0  0  0  0  0  0  0  0  0
   48.1503   11.6907   20.4288 N   0  0  0  0  0  0  0  0  0  0  0  0
   47.3092   10.9856   18.4163 O   0  0  0  0  0  0  0  0  0  0  0  0
   49.0330    5.7119   20.3141 C   0  0  0  0  0  0  0  0  0  0  0  0
   47.4502    7.4637   20.8182 C   0  0  0  0  0  0  0  0  0  0  0  0
   48.8612    5.1881   21.5989 C   0  0  0  0  0  0  0  0  0  0  0  0
   47.2818    6.9413   22.1044 C   0  0  0  0  0  0  0  0  0  0  0  0
   47.9959    5.8080   22.5086 C   0  0  0  0  0  0  0  0  0  0  0  0
   49.5987   10.6757   13.7222 C   0  0  0  0  0  0  0  0  0  0  0  0
   47.0184   12.5776   20.6439 C   0  0  0  0  0  0  0  0  0  0  0  0
   49.1725   11.6979   21.4655 C   0  0  0  0  0  0  0  0  0  0  0  0
   47.8004    5.2221   23.8744 C   0  0  0  0  0  0  0  0  0  0  0  0
   48.5580    8.5048   18.3625 C   0  0  0  0  0  0  0  0  0  0  0  0
   49.1544    8.4951   17.1131 N   0  0  0  0  0  0  0  0  0  0  0  0
   49.7179    6.5602   18.0928 N   0  0  0  0  0  0  0  0  0  0  0  0
   48.9750    7.3248   18.9588 C   0  0  0  0  0  0  0  0  0  0  0  0
   49.8357    7.2859   17.0029 C   0  0  0  0  0  0  0  0  0  0  0  0
   47.6533    9.5935   18.8478 C   0  0  0  0  0  0  0  0  0  0  0  0
   48.4159   10.8545   19.2621 C   0  0  0  0  0  0  0  0  0  0  0  0
   49.1188    9.4412   16.0862 C   0  0  0  0  0  0  0  0  0  0  0  0
   50.5154    7.0269   15.7795 C   0  0  0  0  0  0  0  0  0  0  0  0
   48.6268    6.8734   20.2923 C   0  0  0  0  0  0  0  0  0  0  0  0
   49.7571    9.1961   14.9256 C   0  0  0  0  0  0  0  0  0  0  0  0
   50.4757    7.9331   14.7835 C   0  0  0  0  0  0  0  0  0  0  0  0
   47.6634   11.8958   19.8071 N   0  0  0  0  0  0  0  0  0  0  0  0
   49.6353   10.9589   19.1091 O   0  0  0  0  0  0  0  0  0  0  0  0
   48.8407    7.6875   21.4110 C   0  0  0  0  0  0  0  0  0  0  0  0
   48.0712    5.6018   20.4680 C   0  0  0  0  0  0  0  0  0  0  0  0
   48.4729    7.2467   22.6862 C   0  0  0  0  0  0  0  0  0  0  0  0
   47.7043    5.1621   21.7434 C   0  0  0  0  0  0  0  0  0  0  0  0
   47.9081    5.9774   22.8634 C   0  0  0  0  0  0  0  0  0  0  0  0
   49.7768   10.1504   13.7751 C   0  0  0  0  0  0  0  0  0  0  0  0
   46.2134   11.9090   19.9289 C   0  0  0  0  0  0  0  0  0  0  0  0
   48.3315   13.1425   20.1499 C   0  0  0  0  0  0  0  0  0  0  0  0
   47.4805    5.5105   24.2239 C   0  0  0  0  0  0  0  0  0  0  0  0
   49.5993    7.5081   18.0141 O   0  0  0  0  0  0  0  0  0  0  0  0
   49.2262    6.2748   19.8284 O   0  0  0  0  0  0  0  0  0  0  0  0
   47.3114    9.8232   17.2487 O   0  0  0  0  0  0  0  0  0  0  0  0
   49.2551   10.7795   17.8359 O   0  0  0  0  0  0  0  0  0  0  0  0
   49.0037    8.5135   21.4588 O   0  0  0  0  0  0  0  0  0  0  0  0
   46.8017    8.7068   19.5725 O   0  0  0  0  0  0  0  0  0  0  0  0
   49.3206    7.3845   19.3283 C   0  0  0  0  0  0  0  0  0  0  0  0
   49.1791    8.7227   20.0496 C   0  0  1  0  0  0  0  0  0  0  0  0
   47.9840    9.5099   19.5197 C   0  0  1  0  0  0  0  0  0  0  0  0
   48.2902   10.0989   18.1461 C   0  0  0  0  0  0  0  0  0  0  0  0
   50.1894   10.3635   18.8229 H   0  0  0  0  0  0  0  0  0  0  0  0
   49.5314    9.4462   20.1873 H   0  0  0  0  0  0  0  0  0  0  0  0
   49.4915   10.7718   16.5046 H   0  0  0  0  0  0  0  0  0  0  0  0
   48.4406    6.2652   14.6882 H   0  0  0  0  0  0  0  0  0  0  0  0
   48.9744    8.1115   13.1473 H   0  0  0  0  0  0  0  0  0  0  0  0
   49.7041    5.2202   19.6136 H   0  0  0  0  0  0  0  0  0  0  0  0
   46.8724    8.3355   20.5181 H   0  0  0  0  0  0  0  0  0  0  0  0
   49.4084    4.2922   21.8855 H   0  0  0  0  0  0  0  0  0  0  0  0
   46.5765    7.4172   22.7825 H   0  0  0  0  0  0  0  0  0  0  0  0
   48.7518   10.8135   13.0426 H   0  0  0  0  0  0  0  0  0  0  0  0
   50.4797   10.4120   13.1281 H   0  0  0  0  0  0  0  0  0  0  0  0
   49.8000   11.6385   14.2029 H   0  0  0  0  0  0  0  0  0  0  0  0
   46.5976   12.3814   21.6365 H   0  0  0  0  0  0  0  0  0  0  0  0
   46.2329   12.4411   19.8958 H   0  0  0  0  0  0  0  0  0  0  0  0
   47.3729   13.6117   20.5983 H   0  0  0  0  0  0  0  0  0  0  0  0
   49.3405   12.7279   21.7937 H   0  0  0  0  0  0  0  0  0  0  0  0
   48.8148   11.0987   22.3072 H   0  0  0  0  0  0  0  0  0  0  0  0
   50.1224   11.2978   21.1085 H   0  0  0  0  0  0  0  0  0  0  0  0
   47.1393    4.3500   23.8205 H   0  0  0  0  0  0  0  0  0  0  0  0
   48.7616    4.9134   24.3011 H   0  0  0  0  0  0  0  0  0  0  0  0
   47.3594    5.9512   24.5626 H   0  0  0  0  0  0  0  0  0  0  0  0
   46.9364    9.8576   18.0623 H   0  0  0  0  0  0  0  0  0  0  0  0
   47.0836    9.2296   19.7102 H   0  0  0  0  0  0  0  0  0  0  0  0
   48.5721   10.3554   16.2719 H   0  0  0  0  0  0  0  0  0  0  0  0
   51.0548    6.0923   15.6782 H   0  0  0  0  0  0  0  0  0  0  0  0
   50.9989    7.7398   13.8520 H   0  0  0  0  0  0  0  0  0  0  0  0
   49.3092    8.6633   21.2971 H   0  0  0  0  0  0  0  0  0  0  0  0
   47.9223    4.9521   19.6076 H   0  0  0  0  0  0  0  0  0  0  0  0
   48.6415    7.8987   23.5401 H   0  0  0  0  0  0  0  0  0  0  0  0
   47.2618    4.1747   21.8551 H   0  0  0  0  0  0  0  0  0  0  0  0
   49.2136   11.0635   13.9964 H   0  0  0  0  0  0  0  0  0  0  0  0
   49.3278    9.6911   12.8880 H   0  0  0  0  0  0  0  0  0  0  0  0
   50.8038   10.4440   13.5317 H   0  0  0  0  0  0  0  0  0  0  0  0
   45.7684   10.9190   19.8249 H   0  0  0  0  0  0  0  0  0  0  0  0
   45.8098   12.5594   19.1444 H   0  0  0  0  0  0  0  0  0  0  0  0
   45.9406   12.3114   20.9110 H   0  0  0  0  0  0  0  0  0  0  0  0
   47.9438   13.9357   19.5040 H   0  0  0  0  0  0  0  0  0  0  0  0
   48.1146   13.3843   21.1952 H   0  0  0  0  0  0  0  0  0  0  0  0
   49.4140   13.0857   20.0215 H   0  0  0  0  0  0  0  0  0  0  0  0
   48.1120    5.9516   25.0035 H   0  0  0  0  0  0  0  0  0  0  0  0
   46.4391    5.7962   24.4043 H   0  0  0  0  0  0  0  0  0  0  0  0
   47.5702    4.4211   24.3069 H   0  0  0  0  0  0  0  0  0  0  0  0
   49.6925    6.5789   17.7099 H   0  0  0  0  0  0  0  0  0  0  0  0
   47.6259   10.2491   16.4197 H   0  0  0  0  0  0  0  0  0  0  0  0
   48.2006    7.9658   21.5509 H   0  0  0  0  0  0  0  0  0  0  0  0
   46.2925    8.9274   18.7628 H   0  0  0  0  0  0  0  0  0  0  0  0
   50.1200    9.2707   19.9324 H   0  0  0  0  0  0  0  0  0  0  0  0
   47.7845   10.3618   20.1780 H   0  0  0  0  0  0  0  0  0  0  0  0
 10  4  1  0
 11  8  2  0
 12 11  1  0
 13  7  1  0
 14  7  2  0
 15 10  2  0
 16 10  1  0
 17 15  1  0
 18 16  2  0
 19 18  1  0
 20 11  1  0
 21 13  1  0
 22 13  1  0
 23 19  1  0
  3  5  2  0
  9 12  2  0
 17 19  2  0
  2  1  1  0
  3  4  1  0
  4  1  2  0
  5  2  1  0
  6  1  1  0
  7  6  1  0
  8  2  1  0
  9  5  1  0
 33 27  1  0
 34 31  2  0
 35 34  1  0
 36 30  1  0
 37 30  2  0
 38 33  2  0
 39 33  1  0
 40 38  1  0
 41 39  2  0
 42 41  1  0
 43 34  1  0
 44 36  1  0
 45 36  1  0
 46 42  1  0
 26 28  2  0
 32 35  2  0
 40 42  2  0
 25 24  1  0
 26 27  1  0
 27 24  2  0
 28 25  1  0
 29 24  1  0
 30 29  1  0
 31 25  1  0
 32 28  1  0
 53 48  2  0
 54 51  1  0
 55 52  1  0
 53 47  1  0
 55 56  1  0
 54 55  1  0
 56 49  1  0
 53 54  1  0
 56 50  2  0
  6 57  1  0
  6 58  1  0
  8 59  1  0
  9 60  1  0
 12 61  1  0
 15 62  1  0
 16 63  1  0
 17 64  1  0
 18 65  1  0
 20 66  1  0
 20 67  1  0
 20 68  1  0
 21 69  1  0
 21 70  1  0
 21 71  1  0
 22 72  1  0
 22 73  1  0
 22 74  1  0
 23 75  1  0
 23 76  1  0
 23 77  1  0
 29 78  1  0
 29 79  1  0
 31 80  1  0
 32 81  1  0
 35 82  1  0
 38 83  1  0
 39 84  1  0
 40 85  1  0
 41 86  1  0
 43 87  1  0
 43 88  1  0
 43 89  1  0
 44 90  1  0
 44 91  1  0
 44 92  1  0
 45 93  1  0
 45 94  1  0
 45 95  1  0
 46 96  1  0
 46 97  1  0
 46 98  1  0
 47 99  1  0
 49100  1  0
 51101  1  0
 52102  1  0
 54103  1  1
 55104  1  1
M  END
> <Uni-Dock RESULT> 
ENERGY=   -6.232  LOWER_BOUND=    2.033  UPPER_BOUND=    5.245
INTER + INTRA:          -6.232
INTER:                  -6.232
INTRA:                   0.000
UNBOUND:                 0.000

$$$$

     RDKit          3D

104107  0  0  0  0  0  0  0  0999 V2000
   48.4042   10.6368   17.6522 C   0  0  0  0  0  0  0  0  0  0  0  0
   48.5959   11.9086   17.1388 N   0  0  0  0  0  0  0  0  0  0  0  0
   48.3821   12.1501   19.3579 N   0  0  0  0  0  0  0  0  0  0  0  0
   48.3234   10.8209   19.0235 C   0  0  0  0  0  0  0  0  0  0  0  0
   48.5594   12.7857   18.2203 C   0  0  0  0  0  0  0  0  0  0  0  0
   48.2788    9.4023   16.8152 C   0  0  0  0  0  0  0  0  0  0  0  0
   49.6414    8.8862   16.3451 C   0  0  0  0  0  0  0  0  0  0  0  0
   48.7757   12.3380   15.8208 C   0  0  0  0  0  0  0  0  0  0  0  0
   48.7123   14.1735   17.9436 C   0  0  0  0  0  0  0  0  0  0  0  0
   48.1339    9.7768   20.0099 C   0  0  0  0  0  0  0  0  0  0  0  0
   48.9193   13.6516   15.5565 C   0  0  0  0  0  0  0  0  0  0  0  0
   48.8852   14.5919   16.6749 C   0  0  0  0  0  0  0  0  0  0  0  0
   49.7217    7.5384   15.9991 N   0  0  0  0  0  0  0  0  0  0  0  0
   50.6160    9.6345   16.2470 O   0  0  0  0  0  0  0  0  0  0  0  0
   47.0667    9.8574   20.9094 C   0  0  0  0  0  0  0  0  0  0  0  0
   49.0102    8.6878   20.0835 C   0  0  0  0  0  0  0  0  0  0  0  0
   46.8594    8.8459   21.8519 C   0  0  0  0  0  0  0  0  0  0  0  0
   48.8001    7.6745   21.0242 C   0  0  0  0  0  0  0  0  0  0  0  0
   47.7158    7.7394   21.9060 C   0  0  0  0  0  0  0  0  0  0  0  0
   49.1285   14.2058   14.1824 C   0  0  0  0  0  0  0  0  0  0  0  0
   51.0221    6.9705   15.6821 C   0  0  0  0  0  0  0  0  0  0  0  0
   48.5990    6.6116   15.9805 C   0  0  0  0  0  0  0  0  0  0  0  0
   47.4986    6.6742   22.9380 C   0  0  0  0  0  0  0  0  0  0  0  0
   48.6880   10.6375   17.9773 C   0  0  0  0  0  0  0  0  0  0  0  0
   48.3268   11.8272   17.3682 N   0  0  0  0  0  0  0  0  0  0  0  0
   47.0435   11.6425   19.1960 N   0  0  0  0  0  0  0  0  0  0  0  0
   47.8368   10.5289   19.0661 C   0  0  0  0  0  0  0  0  0  0  0  0
   47.3324   12.3971   18.1588 C   0  0  0  0  0  0  0  0  0  0  0  0
   49.7942    9.7536   17.4933 C   0  0  0  0  0  0  0  0  0  0  0  0
   49.4021    8.9390   16.2580 C   0  0  0  0  0  0  0  0  0  0  0  0
   48.8172   12.4367   16.2113 C   0  0  0  0  0  0  0  0  0  0  0  0
   46.8118   13.6567   17.7486 C   0  0  0  0  0  0  0  0  0  0  0  0
   47.8096    9.4386   20.0222 C   0  0  0  0  0  0  0  0  0  0  0  0
   48.3298   13.6312   15.8238 C   0  0  0  0  0  0  0  0  0  0  0  0
   47.2890   14.2519   16.6383 C   0  0  0  0  0  0  0  0  0  0  0  0
   50.3414    8.0230   15.7827 N   0  0  0  0  0  0  0  0  0  0  0  0
   48.3158    9.0917   15.6941 O   0  0  0  0  0  0  0  0  0  0  0  0
   47.6806    8.1097   19.6011 C   0  0  0  0  0  0  0  0  0  0  0  0
   47.9095    9.7163   21.3894 C   0  0  0  0  0  0  0  0  0  0  0  0
   47.6843    7.0691   20.5354 C   0  0  0  0  0  0  0  0  0  0  0  0
   47.9127    8.6751   22.3225 C   0  0  0  0  0  0  0  0  0  0  0  0
   47.7934    7.3441   21.9043 C   0  0  0  0  0  0  0  0  0  0  0  0
   48.7909   14.3550   14.5997 C   0  0  0  0  0  0  0  0  0  0  0  0
   51.6852    7.8474   16.3126 C   0  0  0  0  0  0  0  0  0  0  0  0
   50.0450    7.2764   14.5690 C   0  0  0  0  0  0  0  0  0  0  0  0
   47.8314    6.2313   22.9103 C   0  0  0  0  0  0  0  0  0  0  0  0
   47.4601   11.3658   18.3782 O   0  0  0  0  0  0  0  0  0  0  0  0
   47.1374   10.1120   20.1881 O   0  0  0  0  0  0  0  0  0  0  0  0
   50.4427   11.1443   16.8833 O   0  0  0  0  0  0  0  0  0  0  0  0
   48.8214   10.3267   15.5642 O   0  0  0  0  0  0  0  0  0  0  0  0
   47.7752    7.7708   18.8347 O   0  0  0  0  0  0  0  0  0  0  0  0
   50.2023    9.3684   18.8055 O   0  0  0  0  0  0  0  0  0  0  0  0
   47.4720   10.1770   19.0158 C   0  0  0  0  0  0  0  0  0  0  0  0
   47.9018    9.0128   18.1263 C   0  0  1  0  0  0  0  0  0  0  0  0
   49.3504    9.1719   17.6735 C   0  0  1  0  0  0  0  0  0  0  0  0
   49.4660   10.2477   16.5979 C   0  0  0  0  0  0  0  0  0  0  0  0
   47.6585    9.5967   15.9314 H   0  0  0  0  0  0  0  0  0  0  0  0
   47.7728    8.6352   17.4141 H   0  0  0  0  0  0  0  0  0  0  0  0
   48.8114   11.5776   15.0509 H   0  0  0  0  0  0  0  0  0  0  0  0
   48.6971   14.8674   18.7762 H   0  0  0  0  0  0  0  0  0  0  0  0
   49.0145   15.6499   16.4621 H   0  0  0  0  0  0  0  0  0  0  0  0
   46.3983   10.7149   20.8787 H   0  0  0  0  0  0  0  0  0  0  0  0
   49.8694    8.6266   19.4185 H   0  0  0  0  0  0  0  0  0  0  0  0
   46.0238    8.9272   22.5443 H   0  0  0  0  0  0  0  0  0  0  0  0
   49.4993    6.8424   21.0731 H   0  0  0  0  0  0  0  0  0  0  0  0
   50.0743   14.7544   14.1305 H   0  0  0  0  0  0  0  0  0  0  0  0
   48.3168   14.8896   13.9138 H   0  0  0  0  0  0  0  0  0  0  0  0
   49.1598   13.4159   13.4250 H   0  0  0  0  0  0  0  0  0  0  0  0
   51.1965    6.1016   16.3267 H   0  0  0  0  0  0  0  0  0  0  0  0
   51.8366    7.6852   15.8274 H   0  0  0  0  0  0  0  0  0  0  0  0
   51.0163    6.6504   14.6359 H   0  0  0  0  0  0  0  0  0  0  0  0
   48.7068    5.9378   15.1254 H   0  0  0  0  0  0  0  0  0  0  0  0
   48.6140    6.0325   16.9077 H   0  0  0  0  0  0  0  0  0  0  0  0
   47.6424    7.1272   15.8861 H   0  0  0  0  0  0  0  0  0  0  0  0
   47.8578    7.0158   23.9152 H   0  0  0  0  0  0  0  0  0  0  0  0
   46.4336    6.4277   23.0173 H   0  0  0  0  0  0  0  0  0  0  0  0
   48.0266    5.7509   22.6764 H   0  0  0  0  0  0  0  0  0  0  0  0
   50.6741   10.3599   17.2506 H   0  0  0  0  0  0  0  0  0  0  0  0
   50.0773    9.0611   18.2939 H   0  0  0  0  0  0  0  0  0  0  0  0
   49.5822   11.9094   15.6582 H   0  0  0  0  0  0  0  0  0  0  0  0
   46.0339   14.1127   18.3499 H   0  0  0  0  0  0  0  0  0  0  0  0
   46.8885   15.2097   16.3205 H   0  0  0  0  0  0  0  0  0  0  0  0
   47.5609    7.8789   18.5442 H   0  0  0  0  0  0  0  0  0  0  0  0
   47.9869   10.7476   21.7286 H   0  0  0  0  0  0  0  0  0  0  0  0
   47.5903    6.0438   20.1852 H   0  0  0  0  0  0  0  0  0  0  0  0
   48.0047    8.9133   23.3799 H   0  0  0  0  0  0  0  0  0  0  0  0
   49.5652   13.7942   14.0651 H   0  0  0  0  0  0  0  0  0  0  0  0
   49.2126   15.3299   14.8666 H   0  0  0  0  0  0  0  0  0  0  0  0
   47.9579   14.5152   13.9065 H   0  0  0  0  0  0  0  0  0  0  0  0
   51.8135    8.2871   17.3021 H   0  0  0  0  0  0  0  0  0  0  0  0
   52.3905    8.3245   15.6224 H   0  0  0  0  0  0  0  0  0  0  0  0
   51.9073    6.7762   16.3766 H   0  0  0  0  0  0  0  0  0  0  0  0
   50.7571    7.5731   13.7935 H   0  0  0  0  0  0  0  0  0  0  0  0
   50.1549    6.2071   14.7756 H   0  0  0  0  0  0  0  0  0  0  0  0
   49.0333    7.4595   14.2022 H   0  0  0  0  0  0  0  0  0  0  0  0
   47.2503    5.3703   22.5610 H   0  0  0  0  0  0  0  0  0  0  0  0
   48.8668    5.9182   23.0787 H   0  0  0  0  0  0  0  0  0  0  0  0
   47.3976    6.5544   23.8638 H   0  0  0  0  0  0  0  0  0  0  0  0
   47.1347   11.9910   19.0622 H   0  0  0  0  0  0  0  0  0  0  0  0
   50.4127   11.7731   16.1275 H   0  0  0  0  0  0  0  0  0  0  0  0
   48.3441    7.8529   19.6240 H   0  0  0  0  0  0  0  0  0  0  0  0
   50.8779   10.0214   18.5212 H   0  0  0  0  0  0  0  0  0  0  0  0
   47.2078    8.9596   17.2809 H   0  0  0  0  0  0  0  0  0  0  0  0
   49.6946    8.2413   17.2106 H   0  0  0  0  0  0  0  0  0  0  0  0
 10  4  1  0
 11  8  2  0
 12 11  1  0
 13  7  1  0
 14  7  2  0
 15 10  2  0
 16 10  1  0
 17 15  1  0
 18 16  2  0
 19 18  1  0
 20 11  1  0
 21 13  1  0
 22 13  1  0
 23 19  1  0
  3  5  2  0
  9 12  2  0
 17 19  2  0
  2  1  1  0
  3  4  1  0
  4  1  2  0
  5  2  1  0
  6  1  1  0
  7  6  1  0
  8  2  1  0
  9  5  1  0
 33 27  1  0
 34 31  2  0
 35 34  1  0
 36 30  1  0
 37 30  2  0
 38 33  2  0
 39 33  1  0
 40 38  1  0
 41 39  2  0
 42 41  1  0
 43 34  1  0
 44 36  1  0
 45 36  1  0
 46 42  1  0
 26 28  2  0
 32 35  2  0
 40 42  2  0
 25 24  1  0
 26 27  1  0
 27 24  2  0
 28 25  1  0
 29 24  1  0
 30 29  1  0
 31 25  1  0
 32 28  1  0
 53 48  2  0
 54 51  1  0
 55 52  1  0
 53 47  1  0
 55 56  1  0
 54 55  1  0
 56 49  1  0
 53 54  1  0
 56 50  2  0
  6 57  1  0
  6 58  1  0
  8 59  1  0
  9 60  1  0
 12 61  1  0
 15 62  1  0
 16 63  1  0
 17 64  1  0
 18 65  1  0
 20 66  1  0
 20 67  1  0
 20 68  1  0
 21 69  1  0
 21 70  1  0
 21 71  1  0
 22 72  1  0
 22 73  1  0
 22 74  1  0
 23 75  1  0
 23 76  1  0
 23 77  1  0
 29 78  1  0
 29 79  1  0
 31 80  1  0
 32 81  1  0
 35 82  1  0
 38 83  1  0
 39 84  1  0
 40 85  1  0
 41 86  1  0
 43 87  1  0
 43 88  1  0
 43 89  1  0
 44 90  1  0
 44 91  1  0
 44 92  1  0
 45 93  1  0
 45 94  1  0
 45 95  1  0
 46 96  1  0
 46 97  1  0
 46 98  1  0
 47 99  1  0
 49100  1  0
 51101  1  0
 52102  1  0
 54103  1  1
 55104  1  1
M  END
> <Uni-Dock RESULT> 
ENERGY=   -6.228  LOWER_BOUND=    2.417  UPPER_BOUND=    5.755
INTER + INTRA:          -6.228
INTER:                  -6.228
INTRA:                   0.000
UNBOUND:                 0.000

$$$$

     RDKit          3D

104107  0  0  0  0  0  0  0  0999 V2000
   49.4437    7.6929   13.4369 C   0  0  0  0  0  0  0  0  0  0  0  0
   50.5392    8.4765   13.1147 N   0  0  0  0  0  0  0  0  0  0  0  0
   49.0741    8.7194   11.4345 N   0  0  0  0  0  0  0  0  0  0  0  0
   48.5452    7.9046   12.4032 C   0  0  0  0  0  0  0  0  0  0  0  0
   50.2616    9.0639   11.8825 C   0  0  0  0  0  0  0  0  0  0  0  0
   49.3679    6.8088   14.6423 C   0  0  0  0  0  0  0  0  0  0  0  0
   49.0376    7.5968   15.9127 C   0  0  0  0  0  0  0  0  0  0  0  0
   51.7381    8.6873   13.8016 C   0  0  0  0  0  0  0  0  0  0  0  0
   51.2592    9.9091   11.3202 C   0  0  0  0  0  0  0  0  0  0  0  0
   47.2299    7.3082   12.2870 C   0  0  0  0  0  0  0  0  0  0  0  0
   52.6846    9.4862   13.2704 C   0  0  0  0  0  0  0  0  0  0  0  0
   52.4164   10.1148   11.9784 C   0  0  0  0  0  0  0  0  0  0  0  0
   48.4681    6.8856   16.9674 N   0  0  0  0  0  0  0  0  0  0  0  0
   49.2919    8.7989   16.0108 O   0  0  0  0  0  0  0  0  0  0  0  0
   46.8952    6.5843   11.1388 C   0  0  0  0  0  0  0  0  0  0  0  0
   46.2811    7.4524   13.3061 C   0  0  0  0  0  0  0  0  0  0  0  0
   45.6373    5.9853   11.0232 C   0  0  0  0  0  0  0  0  0  0  0  0
   45.0244    6.8498   13.1914 C   0  0  0  0  0  0  0  0  0  0  0  0
   44.6982    6.1008   12.0555 C   0  0  0  0  0  0  0  0  0  0  0  0
   53.9924    9.7821   13.9345 C   0  0  0  0  0  0  0  0  0  0  0  0
   48.0088    7.6137   18.1391 C   0  0  0  0  0  0  0  0  0  0  0  0
   48.2353    5.4484   16.9776 C   0  0  0  0  0  0  0  0  0  0  0  0
   43.3437    5.4760   11.9088 C   0  0  0  0  0  0  0  0  0  0  0  0
   49.1218    7.9709   13.3646 C   0  0  0  0  0  0  0  0  0  0  0  0
   50.3919    8.2389   12.8832 N   0  0  0  0  0  0  0  0  0  0  0  0
   49.2596    7.3126   11.1858 N   0  0  0  0  0  0  0  0  0  0  0  0
   48.4719    7.3480   12.3104 C   0  0  0  0  0  0  0  0  0  0  0  0
   50.4122    7.8272   11.5533 C   0  0  0  0  0  0  0  0  0  0  0  0
   48.6520    8.3446   14.7354 C   0  0  0  0  0  0  0  0  0  0  0  0
   49.2006    7.4158   15.8215 C   0  0  0  0  0  0  0  0  0  0  0  0
   51.4923    8.8263   13.5114 C   0  0  0  0  0  0  0  0  0  0  0  0
   51.6185    8.0270   10.8247 C   0  0  0  0  0  0  0  0  0  0  0  0
   47.1072    6.8571   12.3200 C   0  0  0  0  0  0  0  0  0  0  0  0
   52.6334    9.0211   12.8226 C   0  0  0  0  0  0  0  0  0  0  0  0
   52.6789    8.6016   11.4248 C   0  0  0  0  0  0  0  0  0  0  0  0
   48.7509    7.6346   17.1243 N   0  0  0  0  0  0  0  0  0  0  0  0
   50.0146    6.5246   15.5673 O   0  0  0  0  0  0  0  0  0  0  0  0
   46.6630    5.9728   13.3103 C   0  0  0  0  0  0  0  0  0  0  0  0
   46.2180    7.2689   11.3219 C   0  0  0  0  0  0  0  0  0  0  0  0
   45.3358    5.5318   13.3198 C   0  0  0  0  0  0  0  0  0  0  0  0
   44.8917    6.8270   11.3323 C   0  0  0  0  0  0  0  0  0  0  0  0
   44.4413    5.9500   12.3267 C   0  0  0  0  0  0  0  0  0  0  0  0
   53.8608    9.6375   13.4127 C   0  0  0  0  0  0  0  0  0  0  0  0
   47.8779    8.7224   17.5392 C   0  0  0  0  0  0  0  0  0  0  0  0
   49.2976    6.8249   18.2031 C   0  0  0  0  0  0  0  0  0  0  0  0
   43.0076    5.5075   12.3490 C   0  0  0  0  0  0  0  0  0  0  0  0
   49.5942    7.4010   12.0797 O   0  0  0  0  0  0  0  0  0  0  0  0
   47.5706    6.6875   11.4898 O   0  0  0  0  0  0  0  0  0  0  0  0
   49.7658    9.5589   14.6279 O   0  0  0  0  0  0  0  0  0  0  0  0
   50.7134    7.5984   15.1717 O   0  0  0  0  0  0  0  0  0  0  0  0
   47.0102    5.7672   14.0508 O   0  0  0  0  0  0  0  0  0  0  0  0
   47.3224    8.6444   14.3124 O   0  0  0  0  0  0  0  0  0  0  0  0
   48.3991    6.8475   12.3721 C   0  0  0  0  0  0  0  0  0  0  0  0
   48.2522    6.4552   13.8403 C   0  0  1  0  0  0  0  0  0  0  0  0
   48.2899    7.6839   14.7447 C   0  0  1  0  0  0  0  0  0  0  0  0
   49.7115    8.2245   14.8638 C   0  0  0  0  0  0  0  0  0  0  0  0
   50.3194    6.2851   14.7972 H   0  0  0  0  0  0  0  0  0  0  0  0
   48.5969    6.0502   14.4597 H   0  0  0  0  0  0  0  0  0  0  0  0
   51.8516    8.2034   14.7634 H   0  0  0  0  0  0  0  0  0  0  0  0
   51.0532   10.3822   10.3670 H   0  0  0  0  0  0  0  0  0  0  0  0
   53.1749   10.7695   11.5571 H   0  0  0  0  0  0  0  0  0  0  0  0
   47.6157    6.4924   10.3294 H   0  0  0  0  0  0  0  0  0  0  0  0
   46.5084    8.0449   14.1901 H   0  0  0  0  0  0  0  0  0  0  0  0
   45.3950    5.4267   10.1212 H   0  0  0  0  0  0  0  0  0  0  0  0
   44.2969    6.9834   13.9891 H   0  0  0  0  0  0  0  0  0  0  0  0
   54.1003   10.8577   14.1061 H   0  0  0  0  0  0  0  0  0  0  0  0
   54.8272    9.4458   13.3110 H   0  0  0  0  0  0  0  0  0  0  0  0
   54.0800    9.2799   14.9034 H   0  0  0  0  0  0  0  0  0  0  0  0
   46.9555    7.3699   18.3181 H   0  0  0  0  0  0  0  0  0  0  0  0
   48.1039    8.6965   18.0217 H   0  0  0  0  0  0  0  0  0  0  0  0
   48.6052    7.2987   19.0006 H   0  0  0  0  0  0  0  0  0  0  0  0
   48.4449    5.0602   17.9786 H   0  0  0  0  0  0  0  0  0  0  0  0
   47.1870    5.2668   16.7260 H   0  0  0  0  0  0  0  0  0  0  0  0
   48.8781    4.9232   16.2699 H   0  0  0  0  0  0  0  0  0  0  0  0
   42.7148    6.0868   11.2514 H   0  0  0  0  0  0  0  0  0  0  0  0
   43.4290    4.4692   11.4840 H   0  0  0  0  0  0  0  0  0  0  0  0
   42.8420    5.3777   12.8775 H   0  0  0  0  0  0  0  0  0  0  0  0
   48.9560    9.3722   14.9642 H   0  0  0  0  0  0  0  0  0  0  0  0
   47.5573    8.3071   14.7627 H   0  0  0  0  0  0  0  0  0  0  0  0
   51.3820    9.1019   14.5512 H   0  0  0  0  0  0  0  0  0  0  0  0
   51.6534    7.7082    9.7895 H   0  0  0  0  0  0  0  0  0  0  0  0
   53.6018    8.7490   10.8723 H   0  0  0  0  0  0  0  0  0  0  0  0
   47.3522    5.6105   14.0707 H   0  0  0  0  0  0  0  0  0  0  0  0
   46.5597    7.9379   10.5343 H   0  0  0  0  0  0  0  0  0  0  0  0
   45.0106    4.8509   14.1029 H   0  0  0  0  0  0  0  0  0  0  0  0
   44.2140    7.1705   10.5538 H   0  0  0  0  0  0  0  0  0  0  0  0
   53.7140    9.9051   14.4648 H   0  0  0  0  0  0  0  0  0  0  0  0
   54.1284   10.5520   12.8726 H   0  0  0  0  0  0  0  0  0  0  0  0
   54.7070    8.9438   13.3611 H   0  0  0  0  0  0  0  0  0  0  0  0
   47.3621    9.1966   16.7038 H   0  0  0  0  0  0  0  0  0  0  0  0
   48.4889    9.4767   18.0482 H   0  0  0  0  0  0  0  0  0  0  0  0
   47.1269    8.3325   18.2355 H   0  0  0  0  0  0  0  0  0  0  0  0
   49.8628    7.4758   18.8765 H   0  0  0  0  0  0  0  0  0  0  0  0
   48.4713    6.3617   18.7514 H   0  0  0  0  0  0  0  0  0  0  0  0
   49.9612    6.0379   17.8400 H   0  0  0  0  0  0  0  0  0  0  0  0
   42.9141    4.5121   12.7978 H   0  0  0  0  0  0  0  0  0  0  0  0
   42.4087    6.2177   12.9283 H   0  0  0  0  0  0  0  0  0  0  0  0
   42.6035    5.4477   11.3318 H   0  0  0  0  0  0  0  0  0  0  0  0
   49.5439    7.5602   11.1118 H   0  0  0  0  0  0  0  0  0  0  0  0
   50.7192    9.7775   14.7323 H   0  0  0  0  0  0  0  0  0  0  0  0
   46.3095    6.3863   13.7694 H   0  0  0  0  0  0  0  0  0  0  0  0
   47.7418    9.5226   14.4413 H   0  0  0  0  0  0  0  0  0  0  0  0
   49.0468    5.7407   14.0801 H   0  0  0  0  0  0  0  0  0  0  0  0
   47.9857    7.4030   15.7583 H   0  0  0  0  0  0  0  0  0  0  0  0
 10  4  1  0
 11  8  2  0
 12 11  1  0
 13  7  1  0
 14  7  2  0
 15 10  2  0
 16 10  1  0
 17 15  1  0
 18 16  2  0
 19 18  1  0
 20 11  1  0
 21 13  1  0
 22 13  1  0
 23 19  1  0
  3  5  2  0
  9 12  2  0
 17 19  2  0
  2  1  1  0
  3  4  1  0
  4  1  2  0
  5  2  1  0
  6  1  1  0
  7  6  1  0
  8  2  1  0
  9  5  1  0
 33 27  1  0
 34 31  2  0
 35 34  1  0
 36 30  1  0
 37 30  2  0
 38 33  2  0
 39 33  1  0
 40 38  1  0
 41 39  2  0
 42 41  1  0
 43 34  1  0
 44 36  1  0
 45 36  1  0
 46 42  1  0
 26 28  2  0
 32 35  2  0
 40 42  2  0
 25 24  1  0
 26 27  1  0
 27 24  2  0
 28 25  1  0
 29 24  1  0
 30 29  1  0
 31 25  1  0
 32 28  1  0
 53 48  2  0
 54 51  1  0
 55 52  1  0
 53 47  1  0
 55 56  1  0
 54 55  1  0
 56 49  1  0
 53 54  1  0
 56 50  2  0
  6 57  1  0
  6 58  1  0
  8 59  1  0
  9 60  1  0
 12 61  1  0
 15 62  1  0
 16 63  1  0
 17 64  1  0
 18 65  1  0
 20 66  1  0
 20 67  1  0
 20 68  1  0
 21 69  1  0
 21 70  1  0
 21 71  1  0
 22 72  1  0
 22 73  1  0
 22 74  1  0
 23 75  1  0
 23 76  1  0
 23 77  1  0
 29 78  1  0
 29 79  1  0
 31 80  1  0
 32 81  1  0
 35 82  1  0
 38 83  1  0
 39 84  1  0
 40 85  1  0
 41 86  1  0
 43 87  1  0
 43 88  1  0
 43 89  1  0
 44 90  1  0
 44 91  1  0
 44 92  1  0
 45 93  1  0
 45 94  1  0
 45 95  1  0
 46 96  1  0
 46 97  1  0
 46 98  1  0
 47 99  1  0
 49100  1  0
 51101  1  0
 52102  1  0
 54103  1  1
 55104  1  1
M  END
> <Uni-Dock RESULT> 
ENERGY=   -6.158  LOWER_BOUND=    3.301  UPPER_BOUND=    7.078
INTER + INTRA:          -6.158
INTER:                  -6.158
INTRA:                   0.000
UNBOUND:                 0.000

$$$$
