
     RDKit          3D

104107  0  0  0  0  0  0  0  0999 V2000
   49.2755    6.4514   19.1397 C   0  0  0  0  0  0  0  0  0  0  0  0
   48.9814    5.2607   18.4971 N   0  0  0  0  0  0  0  0  0  0  0  0
   47.1201    6.5072   18.3919 N   0  0  0  0  0  0  0  0  0  0  0  0
   48.1022    7.1851   19.0678 C   0  0  0  0  0  0  0  0  0  0  0  0
   47.6595    5.3536   18.0658 C   0  0  0  0  0  0  0  0  0  0  0  0
   50.6146    6.7769   19.7220 C   0  0  0  0  0  0  0  0  0  0  0  0
   51.6602    7.0803   18.6452 C   0  0  0  0  0  0  0  0  0  0  0  0
   49.7710    4.1280   18.2797 C   0  0  0  0  0  0  0  0  0  0  0  0
   47.1180    4.2359   17.3720 C   0  0  0  0  0  0  0  0  0  0  0  0
   47.8985    8.5158   19.6001 C   0  0  0  0  0  0  0  0  0  0  0  0
   49.2581    3.0669   17.6269 C   0  0  0  0  0  0  0  0  0  0  0  0
   47.8750    3.1422   17.1631 C   0  0  0  0  0  0  0  0  0  0  0  0
   52.8796    7.6000   19.0837 N   0  0  0  0  0  0  0  0  0  0  0  0
   51.4511    6.8582   17.4503 O   0  0  0  0  0  0  0  0  0  0  0  0
   47.6012    9.5691   18.7315 C   0  0  0  0  0  0  0  0  0  0  0  0
   47.9763    8.7617   20.9751 C   0  0  0  0  0  0  0  0  0  0  0  0
   47.4106   10.8616   19.2285 C   0  0  0  0  0  0  0  0  0  0  0  0
   47.7810   10.0540   21.4726 C   0  0  0  0  0  0  0  0  0  0  0  0
   47.5139   11.1167   20.6010 C   0  0  0  0  0  0  0  0  0  0  0  0
   50.0271    1.8155   17.3404 C   0  0  0  0  0  0  0  0  0  0  0  0
   53.3124    7.6601   20.4728 C   0  0  0  0  0  0  0  0  0  0  0  0
   53.9056    7.8759   18.0908 C   0  0  0  0  0  0  0  0  0  0  0  0
   47.2747   12.4963   21.1391 C   0  0  0  0  0  0  0  0  0  0  0  0
   49.5286    6.5361   18.4385 C   0  0  0  0  0  0  0  0  0  0  0  0
   49.4136    5.1926   18.1263 N   0  0  0  0  0  0  0  0  0  0  0  0
   47.3288    5.9350   18.4822 N   0  0  0  0  0  0  0  0  0  0  0  0
   48.2264    6.9569   18.6512 C   0  0  0  0  0  0  0  0  0  0  0  0
   48.0541    4.8889   18.1557 C   0  0  0  0  0  0  0  0  0  0  0  0
   50.8308    7.2644   18.5320 C   0  0  0  0  0  0  0  0  0  0  0  0
   51.5654    6.9648   19.8418 C   0  0  0  0  0  0  0  0  0  0  0  0
   50.3931    4.2460   17.8167 C   0  0  0  0  0  0  0  0  0  0  0  0
   47.6726    3.5551   17.8405 C   0  0  0  0  0  0  0  0  0  0  0  0
   47.8160    8.2897   19.0347 C   0  0  0  0  0  0  0  0  0  0  0  0
   50.0344    2.9812   17.5214 C   0  0  0  0  0  0  0  0  0  0  0  0
   48.6138    2.6412   17.5365 C   0  0  0  0  0  0  0  0  0  0  0  0
   52.5867    7.8454   20.2049 N   0  0  0  0  0  0  0  0  0  0  0  0
   51.2977    5.9725   20.5226 O   0  0  0  0  0  0  0  0  0  0  0  0
   47.1922    8.4919   20.2681 C   0  0  0  0  0  0  0  0  0  0  0  0
   48.0202    9.3775   18.1803 C   0  0  0  0  0  0  0  0  0  0  0  0
   46.7923    9.7737   20.6527 C   0  0  0  0  0  0  0  0  0  0  0  0
   47.6186   10.6596   18.5646 C   0  0  0  0  0  0  0  0  0  0  0  0
   46.9941   10.8657   19.8003 C   0  0  0  0  0  0  0  0  0  0  0  0
   51.0105    1.8974   17.1891 C   0  0  0  0  0  0  0  0  0  0  0  0
   52.9196    9.0596   19.4767 C   0  0  0  0  0  0  0  0  0  0  0  0
   53.1989    7.7012   21.5164 C   0  0  0  0  0  0  0  0  0  0  0  0
   46.5858   12.2437   20.2296 C   0  0  0  0  0  0  0  0  0  0  0  0
   47.6283    8.2681   20.6338 O   0  0  0  0  0  0  0  0  0  0  0  0
   47.4828    8.7907   18.4633 O   0  0  0  0  0  0  0  0  0  0  0  0
   51.8761    6.3967   17.8735 O   0  0  0  0  0  0  0  0  0  0  0  0
   51.5780    5.2521   19.7690 O   0  0  0  0  0  0  0  0  0  0  0  0
   50.2426    8.8009   18.3389 O   0  0  0  0  0  0  0  0  0  0  0  0
   48.9037    5.6497   19.7570 O   0  0  0  0  0  0  0  0  0  0  0  0
   48.1501    8.3654   19.3972 C   0  0  0  0  0  0  0  0  0  0  0  0
   49.6055    7.9406   19.2969 C   0  0  1  0  0  0  0  0  0  0  0  0
   49.6786    6.4735   18.8693 C   0  0  1  0  0  0  0  0  0  0  0  0
   51.1219    5.9936   18.9090 C   0  0  0  0  0  0  0  0  0  0  0  0
   50.5221    7.6544   20.3685 H   0  0  0  0  0  0  0  0  0  0  0  0
   50.9680    5.9374   20.3306 H   0  0  0  0  0  0  0  0  0  0  0  0
   50.7900    4.1555   18.6419 H   0  0  0  0  0  0  0  0  0  0  0  0
   46.0928    4.2940   17.0242 H   0  0  0  0  0  0  0  0  0  0  0  0
   47.4628    2.2887   16.6316 H   0  0  0  0  0  0  0  0  0  0  0  0
   47.5182    9.3839   17.6629 H   0  0  0  0  0  0  0  0  0  0  0  0
   48.1710    7.9471   21.6684 H   0  0  0  0  0  0  0  0  0  0  0  0
   47.1754   11.6658   18.5353 H   0  0  0  0  0  0  0  0  0  0  0  0
   47.8320   10.2237   22.5454 H   0  0  0  0  0  0  0  0  0  0  0  0
   51.0397    1.8587   17.7575 H   0  0  0  0  0  0  0  0  0  0  0  0
   50.1179    1.6607   16.2598 H   0  0  0  0  0  0  0  0  0  0  0  0
   49.5242    0.9441   17.7757 H   0  0  0  0  0  0  0  0  0  0  0  0
   52.5015    7.4943   21.1830 H   0  0  0  0  0  0  0  0  0  0  0  0
   54.0735    6.8889   20.6300 H   0  0  0  0  0  0  0  0  0  0  0  0
   53.7485    8.6457   20.6626 H   0  0  0  0  0  0  0  0  0  0  0  0
   54.6155    7.0433   18.0843 H   0  0  0  0  0  0  0  0  0  0  0  0
   53.4849    7.9938   17.0886 H   0  0  0  0  0  0  0  0  0  0  0  0
   54.4271    8.7998   18.3595 H   0  0  0  0  0  0  0  0  0  0  0  0
   46.2251   12.6082   21.4232 H   0  0  0  0  0  0  0  0  0  0  0  0
   47.9018   12.6858   22.0162 H   0  0  0  0  0  0  0  0  0  0  0  0
   47.5227   13.2582   20.3932 H   0  0  0  0  0  0  0  0  0  0  0  0
   51.4851    6.9900   17.6978 H   0  0  0  0  0  0  0  0  0  0  0  0
   50.6381    8.3381   18.4646 H   0  0  0  0  0  0  0  0  0  0  0  0
   51.4254    4.5701   17.8407 H   0  0  0  0  0  0  0  0  0  0  0  0
   46.6176    3.3055   17.8552 H   0  0  0  0  0  0  0  0  0  0  0  0
   48.3244    1.6210   17.2996 H   0  0  0  0  0  0  0  0  0  0  0  0
   47.0182    7.6477   20.9323 H   0  0  0  0  0  0  0  0  0  0  0  0
   48.4791    9.2310   17.2066 H   0  0  0  0  0  0  0  0  0  0  0  0
   46.3164    9.9109   21.6212 H   0  0  0  0  0  0  0  0  0  0  0  0
   47.7835   11.4927   17.8857 H   0  0  0  0  0  0  0  0  0  0  0  0
   52.0442    2.2507   17.2549 H   0  0  0  0  0  0  0  0  0  0  0  0
   50.8485    1.5333   16.1695 H   0  0  0  0  0  0  0  0  0  0  0  0
   50.9020    1.0565   17.8802 H   0  0  0  0  0  0  0  0  0  0  0  0
   52.2884    9.8723   19.8460 H   0  0  0  0  0  0  0  0  0  0  0  0
   52.7630    8.9357   18.4029 H   0  0  0  0  0  0  0  0  0  0  0  0
   53.9717    9.3079   19.6418 H   0  0  0  0  0  0  0  0  0  0  0  0
   52.9147    6.7704   22.0117 H   0  0  0  0  0  0  0  0  0  0  0  0
   54.2867    7.7173   21.4032 H   0  0  0  0  0  0  0  0  0  0  0  0
   52.8846    8.5424   22.1423 H   0  0  0  0  0  0  0  0  0  0  0  0
   47.3639   12.6859   20.8588 H   0  0  0  0  0  0  0  0  0  0  0  0
   45.6472   12.2106   20.7925 H   0  0  0  0  0  0  0  0  0  0  0  0
   46.4220   12.8927   19.3637 H   0  0  0  0  0  0  0  0  0  0  0  0
   46.6954    8.5512   20.5333 H   0  0  0  0  0  0  0  0  0  0  0  0
   52.7662    6.0230   18.0433 H   0  0  0  0  0  0  0  0  0  0  0  0
   49.6141    8.9161   17.5972 H   0  0  0  0  0  0  0  0  0  0  0  0
   49.5193    5.0118   20.1792 H   0  0  0  0  0  0  0  0  0  0  0  0
   50.0913    8.1098   20.2645 H   0  0  0  0  0  0  0  0  0  0  0  0
   49.2910    6.3171   17.8568 H   0  0  0  0  0  0  0  0  0  0  0  0
 10  4  1  0
 11  8  2  0
 12 11  1  0
 13  7  1  0
 14  7  2  0
 15 10  2  0
 16 10  1  0
 17 15  1  0
 18 16  2  0
 19 18  1  0
 20 11  1  0
 21 13  1  0
 22 13  1  0
 23 19  1  0
  3  5  2  0
  9 12  2  0
 17 19  2  0
  2  1  1  0
  3  4  1  0
  4  1  2  0
  5  2  1  0
  6  1  1  0
  7  6  1  0
  8  2  1  0
  9  5  1  0
 33 27  1  0
 34 31  2  0
 35 34  1  0
 36 30  1  0
 37 30  2  0
 38 33  2  0
 39 33  1  0
 40 38  1  0
 41 39  2  0
 42 41  1  0
 43 34  1  0
 44 36  1  0
 45 36  1  0
 46 42  1  0
 26 28  2  0
 32 35  2  0
 40 42  2  0
 25 24  1  0
 26 27  1  0
 27 24  2  0
 28 25  1  0
 29 24  1  0
 30 29  1  0
 31 25  1  0
 32 28  1  0
 53 48  2  0
 54 51  1  0
 55 52  1  0
 53 47  1  0
 55 56  1  0
 54 55  1  0
 56 49  1  0
 53 54  1  0
 56 50  2  0
  6 57  1  0
  6 58  1  0
  8 59  1  0
  9 60  1  0
 12 61  1  0
 15 62  1  0
 16 63  1  0
 17 64  1  0
 18 65  1  0
 20 66  1  0
 20 67  1  0
 20 68  1  0
 21 69  1  0
 21 70  1  0
 21 71  1  0
 22 72  1  0
 22 73  1  0
 22 74  1  0
 23 75  1  0
 23 76  1  0
 23 77  1  0
 29 78  1  0
 29 79  1  0
 31 80  1  0
 32 81  1  0
 35 82  1  0
 38 83  1  0
 39 84  1  0
 40 85  1  0
 41 86  1  0
 43 87  1  0
 43 88  1  0
 43 89  1  0
 44 90  1  0
 44 91  1  0
 44 92  1  0
 45 93  1  0
 45 94  1  0
 45 95  1  0
 46 96  1  0
 46 97  1  0
 46 98  1  0
 47 99  1  0
 49100  1  0
 51101  1  0
 52102  1  0
 54103  1  1
 55104  1  6
M  END
> <Uni-Dock RESULT> 
ENERGY=   -8.102  LOWER_BOUND=    0.000  UPPER_BOUND=    0.000
INTER + INTRA:          -8.102
INTER:                  -8.102
INTRA:                   0.000
UNBOUND:                 0.000

$$$$

     RDKit          3D

104107  0  0  0  0  0  0  0  0999 V2000
   48.1362    8.1017   18.0719 C   0  0  0  0  0  0  0  0  0  0  0  0
   47.8140    9.0167   19.0600 N   0  0  0  0  0  0  0  0  0  0  0  0
   47.9990    7.0289   20.0815 N   0  0  0  0  0  0  0  0  0  0  0  0
   48.2263    6.8890   18.7363 C   0  0  0  0  0  0  0  0  0  0  0  0
   47.7442    8.3066   20.2570 C   0  0  0  0  0  0  0  0  0  0  0  0
   48.3455    8.4635   16.6355 C   0  0  0  0  0  0  0  0  0  0  0  0
   49.6680    9.2010   16.4071 C   0  0  0  0  0  0  0  0  0  0  0  0
   47.5750   10.3915   18.9801 C   0  0  0  0  0  0  0  0  0  0  0  0
   47.4198    9.0379   21.4332 C   0  0  0  0  0  0  0  0  0  0  0  0
   48.5452    5.6120   18.1336 C   0  0  0  0  0  0  0  0  0  0  0  0
   47.2631   11.0848   20.0925 C   0  0  0  0  0  0  0  0  0  0  0  0
   47.1864   10.3620   21.3596 C   0  0  0  0  0  0  0  0  0  0  0  0
   50.0573    9.3945   15.0803 N   0  0  0  0  0  0  0  0  0  0  0  0
   50.3495    9.6256   17.3430 O   0  0  0  0  0  0  0  0  0  0  0  0
   49.7038    4.9348   18.5225 C   0  0  0  0  0  0  0  0  0  0  0  0
   47.7008    5.0344   17.1795 C   0  0  0  0  0  0  0  0  0  0  0  0
   50.0308    3.7052   17.9438 C   0  0  0  0  0  0  0  0  0  0  0  0
   48.0256    3.8020   16.6040 C   0  0  0  0  0  0  0  0  0  0  0  0
   49.2022    3.1367   16.9693 C   0  0  0  0  0  0  0  0  0  0  0  0
   46.9986   12.5577   20.1078 C   0  0  0  0  0  0  0  0  0  0  0  0
   49.2124    9.1595   13.9178 C   0  0  0  0  0  0  0  0  0  0  0  0
   51.2951   10.1138   14.8255 C   0  0  0  0  0  0  0  0  0  0  0  0
   49.5335    1.8006   16.3733 C   0  0  0  0  0  0  0  0  0  0  0  0
   48.7879    8.4133   18.2746 C   0  0  0  0  0  0  0  0  0  0  0  0
   48.1925    9.4412   18.9849 N   0  0  0  0  0  0  0  0  0  0  0  0
   47.6669    7.5470   20.0621 N   0  0  0  0  0  0  0  0  0  0  0  0
   48.4416    7.2650   18.9671 C   0  0  0  0  0  0  0  0  0  0  0  0
   47.5376    8.8548   20.0660 C   0  0  0  0  0  0  0  0  0  0  0  0
   49.5817    8.6117   17.0234 C   0  0  0  0  0  0  0  0  0  0  0  0
   48.6856    8.8467   15.8041 C   0  0  0  0  0  0  0  0  0  0  0  0
   48.1941   10.8197   18.7592 C   0  0  0  0  0  0  0  0  0  0  0  0
   46.8608    9.7192   20.9707 C   0  0  0  0  0  0  0  0  0  0  0  0
   48.8023    5.9123   18.6041 C   0  0  0  0  0  0  0  0  0  0  0  0
   47.5506   11.6401   19.6128 C   0  0  0  0  0  0  0  0  0  0  0  0
   46.8646   11.0492   20.7591 C   0  0  0  0  0  0  0  0  0  0  0  0
   49.2757    8.6800   14.5493 N   0  0  0  0  0  0  0  0  0  0  0  0
   47.5120    9.2056   15.9219 O   0  0  0  0  0  0  0  0  0  0  0  0
   47.8018    4.9987   18.2639 C   0  0  0  0  0  0  0  0  0  0  0  0
   50.1386    5.5008   18.6048 C   0  0  0  0  0  0  0  0  0  0  0  0
   48.1353    3.6896   17.9091 C   0  0  0  0  0  0  0  0  0  0  0  0
   50.4719    4.1905   18.2514 C   0  0  0  0  0  0  0  0  0  0  0  0
   49.4718    3.2729   17.9090 C   0  0  0  0  0  0  0  0  0  0  0  0
   47.4876   13.1256   19.4481 C   0  0  0  0  0  0  0  0  0  0  0  0
   50.6360    8.2103   14.3391 C   0  0  0  0  0  0  0  0  0  0  0  0
   48.4284    8.7273   13.3680 C   0  0  0  0  0  0  0  0  0  0  0  0
   49.8259    1.8733   17.5024 C   0  0  0  0  0  0  0  0  0  0  0  0
   47.5468    5.3044   17.7996 O   0  0  0  0  0  0  0  0  0  0  0  0
   49.4060    5.5279   19.0240 O   0  0  0  0  0  0  0  0  0  0  0  0
   49.9091   10.0825   16.9307 O   0  0  0  0  0  0  0  0  0  0  0  0
   47.7399   10.1466   16.3995 O   0  0  0  0  0  0  0  0  0  0  0  0
   50.4277    7.1881   17.0666 O   0  0  0  0  0  0  0  0  0  0  0  0
   47.0863    8.2784   18.2414 O   0  0  0  0  0  0  0  0  0  0  0  0
   48.6910    5.9370   18.1186 C   0  0  0  0  0  0  0  0  0  0  0  0
   49.0034    7.1424   17.2479 C   0  0  1  0  0  0  0  0  0  0  0  0
   48.4836    8.4099   17.9291 C   0  0  1  0  0  0  0  0  0  0  0  0
   48.6563    9.6041   17.0022 C   0  0  0  0  0  0  0  0  0  0  0  0
   48.3518    7.5513   16.0319 H   0  0  0  0  0  0  0  0  0  0  0  0
   47.5228    9.0988   16.2896 H   0  0  0  0  0  0  0  0  0  0  0  0
   47.6650   10.8561   18.0072 H   0  0  0  0  0  0  0  0  0  0  0  0
   47.3673    8.5018   22.3740 H   0  0  0  0  0  0  0  0  0  0  0  0
   46.9404   10.9219   22.2579 H   0  0  0  0  0  0  0  0  0  0  0  0
   50.3560    5.3660   19.2788 H   0  0  0  0  0  0  0  0  0  0  0  0
   46.7770    5.5305   16.8918 H   0  0  0  0  0  0  0  0  0  0  0  0
   50.9348    3.1929   18.2646 H   0  0  0  0  0  0  0  0  0  0  0  0
   47.3505    3.3620   15.8738 H   0  0  0  0  0  0  0  0  0  0  0  0
   47.0552   12.9890   19.1019 H   0  0  0  0  0  0  0  0  0  0  0  0
   47.7357   13.0727   20.7334 H   0  0  0  0  0  0  0  0  0  0  0  0
   45.9984   12.7670   20.5045 H   0  0  0  0  0  0  0  0  0  0  0  0
   48.3197    8.5762   14.1463 H   0  0  0  0  0  0  0  0  0  0  0  0
   48.8992   10.1295   13.5179 H   0  0  0  0  0  0  0  0  0  0  0  0
   49.7960    8.6255   13.1615 H   0  0  0  0  0  0  0  0  0  0  0  0
   51.0496   11.1516   14.5806 H   0  0  0  0  0  0  0  0  0  0  0  0
   51.9628   10.0999   15.6911 H   0  0  0  0  0  0  0  0  0  0  0  0
   51.8128    9.6506   13.9798 H   0  0  0  0  0  0  0  0  0  0  0  0
   49.0380    1.0074   16.9393 H   0  0  0  0  0  0  0  0  0  0  0  0
   49.2073    1.7487   15.3296 H   0  0  0  0  0  0  0  0  0  0  0  0
   50.6134    1.6216   16.3842 H   0  0  0  0  0  0  0  0  0  0  0  0
   50.2555    9.4686   17.1279 H   0  0  0  0  0  0  0  0  0  0  0  0
   50.1962    7.7240   16.8531 H   0  0  0  0  0  0  0  0  0  0  0  0
   48.7119   11.1808   17.8802 H   0  0  0  0  0  0  0  0  0  0  0  0
   46.3505    9.2772   21.8190 H   0  0  0  0  0  0  0  0  0  0  0  0
   46.3447   11.7105   21.4469 H   0  0  0  0  0  0  0  0  0  0  0  0
   46.7587    5.3085   18.2741 H   0  0  0  0  0  0  0  0  0  0  0  0
   50.9249    6.1925   18.8938 H   0  0  0  0  0  0  0  0  0  0  0  0
   47.3418    2.9964   17.6388 H   0  0  0  0  0  0  0  0  0  0  0  0
   51.5163    3.8884   18.2602 H   0  0  0  0  0  0  0  0  0  0  0  0
   47.9921   13.4524   18.5337 H   0  0  0  0  0  0  0  0  0  0  0  0
   47.9722   13.6270   20.2920 H   0  0  0  0  0  0  0  0  0  0  0  0
   46.4485   13.4629   19.3932 H   0  0  0  0  0  0  0  0  0  0  0  0
   50.6285    7.1174   14.3172 H   0  0  0  0  0  0  0  0  0  0  0  0
   51.3033    8.5544   15.1323 H   0  0  0  0  0  0  0  0  0  0  0  0
   51.0119    8.5940   13.3866 H   0  0  0  0  0  0  0  0  0  0  0  0
   47.4223    9.0904   13.5879 H   0  0  0  0  0  0  0  0  0  0  0  0
   48.8855    9.3933   12.6306 H   0  0  0  0  0  0  0  0  0  0  0  0
   48.3544    7.7177   12.9515 H   0  0  0  0  0  0  0  0  0  0  0  0
   49.8812    1.8026   16.4120 H   0  0  0  0  0  0  0  0  0  0  0  0
   49.0768    1.1635   17.8687 H   0  0  0  0  0  0  0  0  0  0  0  0
   50.7903    1.5735   17.9241 H   0  0  0  0  0  0  0  0  0  0  0  0
   47.4745    4.5766   18.4520 H   0  0  0  0  0  0  0  0  0  0  0  0
   49.8628   10.8300   16.2984 H   0  0  0  0  0  0  0  0  0  0  0  0
   50.8321    6.9700   17.9311 H   0  0  0  0  0  0  0  0  0  0  0  0
   46.6071    8.9787   17.7475 H   0  0  0  0  0  0  0  0  0  0  0  0
   48.5512    6.9931   16.2610 H   0  0  0  0  0  0  0  0  0  0  0  0
   49.0092    8.6220   18.8664 H   0  0  0  0  0  0  0  0  0  0  0  0
 10  4  1  0
 11  8  2  0
 12 11  1  0
 13  7  1  0
 14  7  2  0
 15 10  2  0
 16 10  1  0
 17 15  1  0
 18 16  2  0
 19 18  1  0
 20 11  1  0
 21 13  1  0
 22 13  1  0
 23 19  1  0
  3  5  2  0
  9 12  2  0
 17 19  2  0
  2  1  1  0
  3  4  1  0
  4  1  2  0
  5  2  1  0
  6  1  1  0
  7  6  1  0
  8  2  1  0
  9  5  1  0
 33 27  1  0
 34 31  2  0
 35 34  1  0
 36 30  1  0
 37 30  2  0
 38 33  2  0
 39 33  1  0
 40 38  1  0
 41 39  2  0
 42 41  1  0
 43 34  1  0
 44 36  1  0
 45 36  1  0
 46 42  1  0
 26 28  2  0
 32 35  2  0
 40 42  2  0
 25 24  1  0
 26 27  1  0
 27 24  2  0
 28 25  1  0
 29 24  1  0
 30 29  1  0
 31 25  1  0
 32 28  1  0
 53 48  2  0
 54 51  1  0
 55 52  1  0
 53 47  1  0
 55 56  1  0
 54 55  1  0
 56 49  1  0
 53 54  1  0
 56 50  2  0
  6 57  1  0
  6 58  1  0
  8 59  1  0
  9 60  1  0
 12 61  1  0
 15 62  1  0
 16 63  1  0
 17 64  1  0
 18 65  1  0
 20 66  1  0
 20 67  1  0
 20 68  1  0
 21 69  1  0
 21 70  1  0
 21 71  1  0
 22 72  1  0
 22 73  1  0
 22 74  1  0
 23 75  1  0
 23 76  1  0
 23 77  1  0
 29 78  1  0
 29 79  1  0
 31 80  1  0
 32 81  1  0
 35 82  1  0
 38 83  1  0
 39 84  1  0
 40 85  1  0
 41 86  1  0
 43 87  1  0
 43 88  1  0
 43 89  1  0
 44 90  1  0
 44 91  1  0
 44 92  1  0
 45 93  1  0
 45 94  1  0
 45 95  1  0
 46 96  1  0
 46 97  1  0
 46 98  1  0
 47 99  1  0
 49100  1  0
 51101  1  0
 52102  1  0
 54103  1  1
 55104  1  6
M  END
> <Uni-Dock RESULT> 
ENERGY=   -7.570  LOWER_BOUND=    2.029  UPPER_BOUND=    6.208
INTER + INTRA:          -7.570
INTER:                  -7.570
INTRA:                   0.000
UNBOUND:                 0.000

$$$$

     RDKit          3D

104107  0  0  0  0  0  0  0  0999 V2000
   48.8446    7.5424   14.7946 C   0  0  0  0  0  0  0  0  0  0  0  0
   48.2656    6.2938   14.9471 N   0  0  0  0  0  0  0  0  0  0  0  0
   48.1308    6.7858   12.7633 N   0  0  0  0  0  0  0  0  0  0  0  0
   48.7290    7.8170   13.4413 C   0  0  0  0  0  0  0  0  0  0  0  0
   47.8510    5.8866   13.6805 C   0  0  0  0  0  0  0  0  0  0  0  0
   49.4570    8.3209   15.9157 C   0  0  0  0  0  0  0  0  0  0  0  0
   50.7980    7.7356   16.3672 C   0  0  0  0  0  0  0  0  0  0  0  0
   48.0745    5.5163   16.0928 C   0  0  0  0  0  0  0  0  0  0  0  0
   47.2144    4.6186   13.5771 C   0  0  0  0  0  0  0  0  0  0  0  0
   49.1914    9.0164   12.7754 C   0  0  0  0  0  0  0  0  0  0  0  0
   47.4676    4.3172   15.9972 C   0  0  0  0  0  0  0  0  0  0  0  0
   47.0264    3.8681   14.6791 C   0  0  0  0  0  0  0  0  0  0  0  0
   51.5500    8.5043   17.2578 N   0  0  0  0  0  0  0  0  0  0  0  0
   51.1907    6.6309   15.9851 O   0  0  0  0  0  0  0  0  0  0  0  0
   50.1844    8.9238   11.7969 C   0  0  0  0  0  0  0  0  0  0  0  0
   48.6460   10.2673   13.0831 C   0  0  0  0  0  0  0  0  0  0  0  0
   50.6483   10.0733   11.1509 C   0  0  0  0  0  0  0  0  0  0  0  0
   49.1069   11.4167   12.4334 C   0  0  0  0  0  0  0  0  0  0  0  0
   50.1239   11.3301   11.4750 C   0  0  0  0  0  0  0  0  0  0  0  0
   47.2261    3.4120   17.1641 C   0  0  0  0  0  0  0  0  0  0  0  0
   51.0671    9.6877   17.9557 C   0  0  0  0  0  0  0  0  0  0  0  0
   52.8172    7.9679   17.7279 C   0  0  0  0  0  0  0  0  0  0  0  0
   50.5957   12.5600   10.7575 C   0  0  0  0  0  0  0  0  0  0  0  0
   49.4155    7.0557   14.7833 C   0  0  0  0  0  0  0  0  0  0  0  0
   48.6545    5.9959   15.2454 N   0  0  0  0  0  0  0  0  0  0  0  0
   47.8237    6.5358   13.2347 N   0  0  0  0  0  0  0  0  0  0  0  0
   48.8740    7.3597   13.5454 C   0  0  0  0  0  0  0  0  0  0  0  0
   47.7133    5.7169   14.2566 C   0  0  0  0  0  0  0  0  0  0  0  0
   50.5338    7.6807   15.5538 C   0  0  0  0  0  0  0  0  0  0  0  0
   50.0233    8.6135   16.6556 C   0  0  0  0  0  0  0  0  0  0  0  0
   48.7355    5.2727   16.4377 C   0  0  0  0  0  0  0  0  0  0  0  0
   46.8173    4.6367   14.4896 C   0  0  0  0  0  0  0  0  0  0  0  0
   49.3077    8.4230   12.6661 C   0  0  0  0  0  0  0  0  0  0  0  0
   47.8856    4.2514   16.6620 C   0  0  0  0  0  0  0  0  0  0  0  0
   46.8959    3.9339   15.6356 C   0  0  0  0  0  0  0  0  0  0  0  0
   50.9432    9.5193   17.1881 N   0  0  0  0  0  0  0  0  0  0  0  0
   48.8686    8.5420   17.0818 O   0  0  0  0  0  0  0  0  0  0  0  0
   48.4348    9.4721   12.3686 C   0  0  0  0  0  0  0  0  0  0  0  0
   50.5842    8.4072   12.0957 C   0  0  0  0  0  0  0  0  0  0  0  0
   48.8405   10.5069   11.5227 C   0  0  0  0  0  0  0  0  0  0  0  0
   50.9894    9.4417   11.2481 C   0  0  0  0  0  0  0  0  0  0  0  0
   50.1174   10.4950   10.9489 C   0  0  0  0  0  0  0  0  0  0  0  0
   47.8885    3.4280   17.9109 C   0  0  0  0  0  0  0  0  0  0  0  0
   52.3019    9.6911   16.6986 C   0  0  0  0  0  0  0  0  0  0  0  0
   50.4665   10.5351   18.1137 C   0  0  0  0  0  0  0  0  0  0  0  0
   50.5566   11.6219   10.0618 C   0  0  0  0  0  0  0  0  0  0  0  0
   48.3254    9.6698   12.9369 O   0  0  0  0  0  0  0  0  0  0  0  0
   49.7631    8.2354   11.9983 O   0  0  0  0  0  0  0  0  0  0  0  0
   50.8905    6.7318   16.6724 O   0  0  0  0  0  0  0  0  0  0  0  0
   48.9621    7.5364   17.4633 O   0  0  0  0  0  0  0  0  0  0  0  0
   51.3168    8.3892   14.2774 O   0  0  0  0  0  0  0  0  0  0  0  0
   47.7918    7.5243   15.0260 O   0  0  0  0  0  0  0  0  0  0  0  0
   49.3391    8.7873   13.0052 C   0  0  0  0  0  0  0  0  0  0  0  0
   49.8992    8.5845   14.4030 C   0  0  1  0  0  0  0  0  0  0  0  0
   49.2217    7.3757   15.0517 C   0  0  1  0  0  0  0  0  0  0  0  0
   49.6637    7.2508   16.5022 C   0  0  0  0  0  0  0  0  0  0  0  0
   49.6240    9.3514   15.5890 H   0  0  0  0  0  0  0  0  0  0  0  0
   48.7734    8.3383   16.7716 H   0  0  0  0  0  0  0  0  0  0  0  0
   48.4421    5.9130   17.0297 H   0  0  0  0  0  0  0  0  0  0  0  0
   46.8911    4.2838   12.5980 H   0  0  0  0  0  0  0  0  0  0  0  0
   46.5419    2.8985   14.6008 H   0  0  0  0  0  0  0  0  0  0  0  0
   50.6000    7.9531   11.5360 H   0  0  0  0  0  0  0  0  0  0  0  0
   47.8474   10.3529   13.8160 H   0  0  0  0  0  0  0  0  0  0  0  0
   51.4183    9.9780   10.3890 H   0  0  0  0  0  0  0  0  0  0  0  0
   48.6619   12.3788   12.6759 H   0  0  0  0  0  0  0  0  0  0  0  0
   47.5707    3.8613   18.1025 H   0  0  0  0  0  0  0  0  0  0  0  0
   47.7612    2.4653   17.0315 H   0  0  0  0  0  0  0  0  0  0  0  0
   46.1569    3.1954   17.2711 H   0  0  0  0  0  0  0  0  0  0  0  0
   50.1397   10.0833   17.5398 H   0  0  0  0  0  0  0  0  0  0  0  0
   50.8911    9.4220   19.0031 H   0  0  0  0  0  0  0  0  0  0  0  0
   51.8353   10.4653   17.9017 H   0  0  0  0  0  0  0  0  0  0  0  0
   52.6629    7.5304   18.7188 H   0  0  0  0  0  0  0  0  0  0  0  0
   53.2117    7.2005   17.0565 H   0  0  0  0  0  0  0  0  0  0  0  0
   53.5484    8.7794   17.7957 H   0  0  0  0  0  0  0  0  0  0  0  0
   49.9512   12.7595    9.8974 H   0  0  0  0  0  0  0  0  0  0  0  0
   50.5785   13.4291   11.4229 H   0  0  0  0  0  0  0  0  0  0  0  0
   51.6261   12.4407   10.4076 H   0  0  0  0  0  0  0  0  0  0  0  0
   51.1598    6.9099   16.0155 H   0  0  0  0  0  0  0  0  0  0  0  0
   51.1614    8.2492   14.8627 H   0  0  0  0  0  0  0  0  0  0  0  0
   49.4856    5.5772   17.1560 H   0  0  0  0  0  0  0  0  0  0  0  0
   46.0824    4.4053   13.7269 H   0  0  0  0  0  0  0  0  0  0  0  0
   46.2097    3.1112   15.8168 H   0  0  0  0  0  0  0  0  0  0  0  0
   47.4351    9.4839   12.7985 H   0  0  0  0  0  0  0  0  0  0  0  0
   51.2639    7.5837   12.2961 H   0  0  0  0  0  0  0  0  0  0  0  0
   48.1486   11.3191   11.3111 H   0  0  0  0  0  0  0  0  0  0  0  0
   51.9849    9.4107   10.8121 H   0  0  0  0  0  0  0  0  0  0  0  0
   48.6354    3.7834   18.6274 H   0  0  0  0  0  0  0  0  0  0  0  0
   48.1194    2.3827   17.6818 H   0  0  0  0  0  0  0  0  0  0  0  0
   46.9115    3.4691   18.4013 H   0  0  0  0  0  0  0  0  0  0  0  0
   52.2887   10.4134   15.8781 H   0  0  0  0  0  0  0  0  0  0  0  0
   52.7206    8.7461   16.3454 H   0  0  0  0  0  0  0  0  0  0  0  0
   52.9370   10.0649   17.5066 H   0  0  0  0  0  0  0  0  0  0  0  0
   49.4436   10.3506   18.4482 H   0  0  0  0  0  0  0  0  0  0  0  0
   51.1215   10.5517   18.9895 H   0  0  0  0  0  0  0  0  0  0  0  0
   50.5024   11.5077   17.6127 H   0  0  0  0  0  0  0  0  0  0  0  0
   50.9182   12.4572   10.6687 H   0  0  0  0  0  0  0  0  0  0  0  0
   49.7264   11.9676    9.4369 H   0  0  0  0  0  0  0  0  0  0  0  0
   51.3583   11.3027    9.3886 H   0  0  0  0  0  0  0  0  0  0  0  0
   48.0628    9.6747   11.9927 H   0  0  0  0  0  0  0  0  0  0  0  0
   51.0340    6.7244   17.6420 H   0  0  0  0  0  0  0  0  0  0  0  0
   51.4568    7.8095   13.5009 H   0  0  0  0  0  0  0  0  0  0  0  0
   47.4803    7.5365   15.9570 H   0  0  0  0  0  0  0  0  0  0  0  0
   49.7440    9.5010   14.9832 H   0  0  0  0  0  0  0  0  0  0  0  0
   49.4621    6.4397   14.5361 H   0  0  0  0  0  0  0  0  0  0  0  0
 10  4  1  0
 11  8  2  0
 12 11  1  0
 13  7  1  0
 14  7  2  0
 15 10  2  0
 16 10  1  0
 17 15  1  0
 18 16  2  0
 19 18  1  0
 20 11  1  0
 21 13  1  0
 22 13  1  0
 23 19  1  0
  3  5  2  0
  9 12  2  0
 17 19  2  0
  2  1  1  0
  3  4  1  0
  4  1  2  0
  5  2  1  0
  6  1  1  0
  7  6  1  0
  8  2  1  0
  9  5  1  0
 33 27  1  0
 34 31  2  0
 35 34  1  0
 36 30  1  0
 37 30  2  0
 38 33  2  0
 39 33  1  0
 40 38  1  0
 41 39  2  0
 42 41  1  0
 43 34  1  0
 44 36  1  0
 45 36  1  0
 46 42  1  0
 26 28  2  0
 32 35  2  0
 40 42  2  0
 25 24  1  0
 26 27  1  0
 27 24  2  0
 28 25  1  0
 29 24  1  0
 30 29  1  0
 31 25  1  0
 32 28  1  0
 53 48  2  0
 54 51  1  0
 55 52  1  0
 53 47  1  0
 55 56  1  0
 54 55  1  0
 56 49  1  0
 53 54  1  0
 56 50  2  0
  6 57  1  0
  6 58  1  0
  8 59  1  0
  9 60  1  0
 12 61  1  0
 15 62  1  0
 16 63  1  0
 17 64  1  0
 18 65  1  0
 20 66  1  0
 20 67  1  0
 20 68  1  0
 21 69  1  0
 21 70  1  0
 21 71  1  0
 22 72  1  0
 22 73  1  0
 22 74  1  0
 23 75  1  0
 23 76  1  0
 23 77  1  0
 29 78  1  0
 29 79  1  0
 31 80  1  0
 32 81  1  0
 35 82  1  0
 38 83  1  0
 39 84  1  0
 40 85  1  0
 41 86  1  0
 43 87  1  0
 43 88  1  0
 43 89  1  0
 44 90  1  0
 44 91  1  0
 44 92  1  0
 45 93  1  0
 45 94  1  0
 45 95  1  0
 46 96  1  0
 46 97  1  0
 46 98  1  0
 47 99  1  0
 49100  1  0
 51101  1  0
 52102  1  0
 54103  1  1
 55104  1  6
M  END
> <Uni-Dock RESULT> 
ENERGY=   -7.053  LOWER_BOUND=    4.516  UPPER_BOUND=    5.634
INTER + INTRA:          -7.053
INTER:                  -7.053
INTRA:                   0.000
UNBOUND:                 0.000

$$$$

     RDKit          3D

104107  0  0  0  0  0  0  0  0999 V2000
   48.7805   11.9898   17.4804 C   0  0  0  0  0  0  0  0  0  0  0  0
   48.0400   11.3593   18.4660 N   0  0  0  0  0  0  0  0  0  0  0  0
   47.1744   13.4168   18.2499 N   0  0  0  0  0  0  0  0  0  0  0  0
   48.2283   13.2573   17.3870 C   0  0  0  0  0  0  0  0  0  0  0  0
   47.0812   12.2751   18.8949 C   0  0  0  0  0  0  0  0  0  0  0  0
   49.8948   11.3355   16.7265 C   0  0  0  0  0  0  0  0  0  0  0  0
   49.3868   10.3081   15.7110 C   0  0  0  0  0  0  0  0  0  0  0  0
   48.1539   10.0743   19.0039 C   0  0  0  0  0  0  0  0  0  0  0  0
   46.1895   11.8560   19.9210 C   0  0  0  0  0  0  0  0  0  0  0  0
   48.6578   14.3067   16.4870 C   0  0  0  0  0  0  0  0  0  0  0  0
   47.3130    9.6774   19.9790 C   0  0  0  0  0  0  0  0  0  0  0  0
   46.2980   10.6197   20.4433 C   0  0  0  0  0  0  0  0  0  0  0  0
   50.3252    9.7978   14.8119 N   0  0  0  0  0  0  0  0  0  0  0  0
   48.2135    9.9286   15.6964 O   0  0  0  0  0  0  0  0  0  0  0  0
   47.7769   14.7853   15.5138 C   0  0  0  0  0  0  0  0  0  0  0  0
   49.9370   14.8639   16.5879 C   0  0  0  0  0  0  0  0  0  0  0  0
   48.1790   15.7919   14.6313 C   0  0  0  0  0  0  0  0  0  0  0  0
   50.3376   15.8741   15.7078 C   0  0  0  0  0  0  0  0  0  0  0  0
   49.4674   16.3334   14.7117 C   0  0  0  0  0  0  0  0  0  0  0  0
   47.3523    8.3210   20.6100 C   0  0  0  0  0  0  0  0  0  0  0  0
   51.7657    9.9878   14.9085 C   0  0  0  0  0  0  0  0  0  0  0  0
   49.8835    8.8007   13.8500 C   0  0  0  0  0  0  0  0  0  0  0  0
   49.8881   17.4381   13.7883 C   0  0  0  0  0  0  0  0  0  0  0  0
   48.2611   11.5910   17.1143 C   0  0  0  0  0  0  0  0  0  0  0  0
   47.8914   10.8585   18.2290 N   0  0  0  0  0  0  0  0  0  0  0  0
   47.3297   12.9852   18.6606 N   0  0  0  0  0  0  0  0  0  0  0  0
   47.9004   12.8933   17.4179 C   0  0  0  0  0  0  0  0  0  0  0  0
   47.3199   11.7569   19.1278 C   0  0  0  0  0  0  0  0  0  0  0  0
   48.9307   11.0050   15.9130 C   0  0  0  0  0  0  0  0  0  0  0  0
   50.4202   10.7440   16.1539 C   0  0  0  0  0  0  0  0  0  0  0  0
   48.0099    9.4929   18.4975 C   0  0  0  0  0  0  0  0  0  0  0  0
   46.8323   11.2341   20.3577 C   0  0  0  0  0  0  0  0  0  0  0  0
   48.1063   14.0505   16.5751 C   0  0  0  0  0  0  0  0  0  0  0  0
   47.5520    8.9960   19.6633 C   0  0  0  0  0  0  0  0  0  0  0  0
   46.9402    9.9172   20.6177 C   0  0  0  0  0  0  0  0  0  0  0  0
   51.2153   10.5507   15.0222 N   0  0  0  0  0  0  0  0  0  0  0  0
   50.8889   10.6668   17.2916 O   0  0  0  0  0  0  0  0  0  0  0  0
   48.9526   15.0754   17.0045 C   0  0  0  0  0  0  0  0  0  0  0  0
   47.4565   14.1657   15.3424 C   0  0  0  0  0  0  0  0  0  0  0  0
   49.1626   16.1980   16.2004 C   0  0  0  0  0  0  0  0  0  0  0  0
   47.6654   15.2896   14.5388 C   0  0  0  0  0  0  0  0  0  0  0  0
   48.5137   16.3179   14.9657 C   0  0  0  0  0  0  0  0  0  0  0  0
   47.6446    7.5523   20.0439 C   0  0  0  0  0  0  0  0  0  0  0  0
   50.7385   10.6781   13.6540 C   0  0  0  0  0  0  0  0  0  0  0  0
   52.6578   10.4668   15.1889 C   0  0  0  0  0  0  0  0  0  0  0  0
   48.7631   17.5136   14.0951 C   0  0  0  0  0  0  0  0  0  0  0  0
   49.4646   14.7503   17.0829 O   0  0  0  0  0  0  0  0  0  0  0  0
   47.4616   14.3700   16.1618 O   0  0  0  0  0  0  0  0  0  0  0  0
   48.7656    9.5067   15.9961 O   0  0  0  0  0  0  0  0  0  0  0  0
   50.3108    9.8027   17.5825 O   0  0  0  0  0  0  0  0  0  0  0  0
   48.5460   12.2028   14.8354 O   0  0  0  0  0  0  0  0  0  0  0  0
   49.1523   12.0712   18.4890 O   0  0  0  0  0  0  0  0  0  0  0  0
   48.5797   13.9612   16.4463 C   0  0  0  0  0  0  0  0  0  0  0  0
   49.1080   12.5786   16.1029 C   0  0  1  0  0  0  0  0  0  0  0  0
   48.7123   11.5948   17.2058 C   0  0  1  0  0  0  0  0  0  0  0  0
   49.3598   10.2420   16.9500 C   0  0  0  0  0  0  0  0  0  0  0  0
   50.4622   12.0999   16.1878 H   0  0  0  0  0  0  0  0  0  0  0  0
   50.5720   10.8345   17.4268 H   0  0  0  0  0  0  0  0  0  0  0  0
   48.9226    9.4312   18.5966 H   0  0  0  0  0  0  0  0  0  0  0  0
   45.4335   12.5541   20.2622 H   0  0  0  0  0  0  0  0  0  0  0  0
   45.6160   10.2979   21.2258 H   0  0  0  0  0  0  0  0  0  0  0  0
   46.7730   14.3729   15.4409 H   0  0  0  0  0  0  0  0  0  0  0  0
   50.6225   14.5284   17.3624 H   0  0  0  0  0  0  0  0  0  0  0  0
   47.4759   16.1531   13.8845 H   0  0  0  0  0  0  0  0  0  0  0  0
   51.3310   16.3046   15.8098 H   0  0  0  0  0  0  0  0  0  0  0  0
   48.1681    7.7107   20.2061 H   0  0  0  0  0  0  0  0  0  0  0  0
   46.4138    7.7863   20.4272 H   0  0  0  0  0  0  0  0  0  0  0  0
   47.5014    8.4022   21.6929 H   0  0  0  0  0  0  0  0  0  0  0  0
   52.0492   10.7771   15.6056 H   0  0  0  0  0  0  0  0  0  0  0  0
   52.2151    9.0487   15.2473 H   0  0  0  0  0  0  0  0  0  0  0  0
   52.1541   10.2399   13.9168 H   0  0  0  0  0  0  0  0  0  0  0  0
   50.1615    7.8105   14.2236 H   0  0  0  0  0  0  0  0  0  0  0  0
   48.8018    8.8325   13.6942 H   0  0  0  0  0  0  0  0  0  0  0  0
   50.3782    8.9823   12.8908 H   0  0  0  0  0  0  0  0  0  0  0  0
   49.6922   18.4074   14.2542 H   0  0  0  0  0  0  0  0  0  0  0  0
   50.9553   17.3654   13.5558 H   0  0  0  0  0  0  0  0  0  0  0  0
   49.3457   17.3855   12.8390 H   0  0  0  0  0  0  0  0  0  0  0  0
   48.4550   10.0598   15.6310 H   0  0  0  0  0  0  0  0  0  0  0  0
   48.8173   11.6976   15.0751 H   0  0  0  0  0  0  0  0  0  0  0  0
   48.4882    8.8766   17.7474 H   0  0  0  0  0  0  0  0  0  0  0  0
   46.3811   11.9209   21.0649 H   0  0  0  0  0  0  0  0  0  0  0  0
   46.5719    9.5169   21.5584 H   0  0  0  0  0  0  0  0  0  0  0  0
   49.4512   14.9984   17.9687 H   0  0  0  0  0  0  0  0  0  0  0  0
   46.7741   13.3893   15.0079 H   0  0  0  0  0  0  0  0  0  0  0  0
   49.8326   16.9807   16.5493 H   0  0  0  0  0  0  0  0  0  0  0  0
   47.1494   15.3624   13.5846 H   0  0  0  0  0  0  0  0  0  0  0  0
   48.1620    6.9652   19.2790 H   0  0  0  0  0  0  0  0  0  0  0  0
   46.6456    7.1235   20.1721 H   0  0  0  0  0  0  0  0  0  0  0  0
   48.1959    7.4361   20.9816 H   0  0  0  0  0  0  0  0  0  0  0  0
   50.8210   11.7255   13.3518 H   0  0  0  0  0  0  0  0  0  0  0  0
   49.6999   10.3530   13.5621 H   0  0  0  0  0  0  0  0  0  0  0  0
   51.3504   10.0564   12.9945 H   0  0  0  0  0  0  0  0  0  0  0  0
   52.9539   10.3691   16.2353 H   0  0  0  0  0  0  0  0  0  0  0  0
   53.0277    9.5963   14.6397 H   0  0  0  0  0  0  0  0  0  0  0  0
   53.1095   11.3758   14.7791 H   0  0  0  0  0  0  0  0  0  0  0  0
   49.6798   17.3703   13.5155 H   0  0  0  0  0  0  0  0  0  0  0  0
   48.8623   18.4195   14.7023 H   0  0  0  0  0  0  0  0  0  0  0  0
   47.9308   17.6765   13.4033 H   0  0  0  0  0  0  0  0  0  0  0  0
   48.9779   15.5839   17.2525 H   0  0  0  0  0  0  0  0  0  0  0  0
   49.2936    8.6827   15.9409 H   0  0  0  0  0  0  0  0  0  0  0  0
   47.6088   12.4858   14.8442 H   0  0  0  0  0  0  0  0  0  0  0  0
   49.7811   11.4087   18.8492 H   0  0  0  0  0  0  0  0  0  0  0  0
   50.1949   12.6361   15.9762 H   0  0  0  0  0  0  0  0  0  0  0  0
   47.6278   11.4524   17.2646 H   0  0  0  0  0  0  0  0  0  0  0  0
 10  4  1  0
 11  8  2  0
 12 11  1  0
 13  7  1  0
 14  7  2  0
 15 10  2  0
 16 10  1  0
 17 15  1  0
 18 16  2  0
 19 18  1  0
 20 11  1  0
 21 13  1  0
 22 13  1  0
 23 19  1  0
  3  5  2  0
  9 12  2  0
 17 19  2  0
  2  1  1  0
  3  4  1  0
  4  1  2  0
  5  2  1  0
  6  1  1  0
  7  6  1  0
  8  2  1  0
  9  5  1  0
 33 27  1  0
 34 31  2  0
 35 34  1  0
 36 30  1  0
 37 30  2  0
 38 33  2  0
 39 33  1  0
 40 38  1  0
 41 39  2  0
 42 41  1  0
 43 34  1  0
 44 36  1  0
 45 36  1  0
 46 42  1  0
 26 28  2  0
 32 35  2  0
 40 42  2  0
 25 24  1  0
 26 27  1  0
 27 24  2  0
 28 25  1  0
 29 24  1  0
 30 29  1  0
 31 25  1  0
 32 28  1  0
 53 48  2  0
 54 51  1  0
 55 52  1  0
 53 47  1  0
 55 56  1  0
 54 55  1  0
 56 49  1  0
 53 54  1  0
 56 50  2  0
  6 57  1  0
  6 58  1  0
  8 59  1  0
  9 60  1  0
 12 61  1  0
 15 62  1  0
 16 63  1  0
 17 64  1  0
 18 65  1  0
 20 66  1  0
 20 67  1  0
 20 68  1  0
 21 69  1  0
 21 70  1  0
 21 71  1  0
 22 72  1  0
 22 73  1  0
 22 74  1  0
 23 75  1  0
 23 76  1  0
 23 77  1  0
 29 78  1  0
 29 79  1  0
 31 80  1  0
 32 81  1  0
 35 82  1  0
 38 83  1  0
 39 84  1  0
 40 85  1  0
 41 86  1  0
 43 87  1  0
 43 88  1  0
 43 89  1  0
 44 90  1  0
 44 91  1  0
 44 92  1  0
 45 93  1  0
 45 94  1  0
 45 95  1  0
 46 96  1  0
 46 97  1  0
 46 98  1  0
 47 99  1  0
 49100  1  0
 51101  1  0
 52102  1  0
 54103  1  1
 55104  1  6
M  END
> <Uni-Dock RESULT> 
ENERGY=   -6.967  LOWER_BOUND=    4.338  UPPER_BOUND=    6.628
INTER + INTRA:          -6.967
INTER:                  -6.967
INTRA:                   0.000
UNBOUND:                 0.000

$$$$

     RDKit          3D

104107  0  0  0  0  0  0  0  0999 V2000
   44.1888   12.2848   10.4434 C   0  0  0  0  0  0  0  0  0  0  0  0
   45.4910   11.8906   10.7004 N   0  0  0  0  0  0  0  0  0  0  0  0
   44.1884   10.6885   12.0743 N   0  0  0  0  0  0  0  0  0  0  0  0
   43.4188   11.5348   11.3179 C   0  0  0  0  0  0  0  0  0  0  0  0
   45.4268   10.9209   11.6992 C   0  0  0  0  0  0  0  0  0  0  0  0
   43.8114   13.2907    9.4023 C   0  0  0  0  0  0  0  0  0  0  0  0
   43.9416   12.7355    7.9812 C   0  0  0  0  0  0  0  0  0  0  0  0
   46.6966   12.3207   10.1390 C   0  0  0  0  0  0  0  0  0  0  0  0
   46.6551   10.3573   12.1434 C   0  0  0  0  0  0  0  0  0  0  0  0
   41.9767   11.5835   11.4359 C   0  0  0  0  0  0  0  0  0  0  0  0
   47.8611   11.7912   10.5619 C   0  0  0  0  0  0  0  0  0  0  0  0
   47.8186   10.7711   11.6066 C   0  0  0  0  0  0  0  0  0  0  0  0
   43.4145   13.5174    6.9515 N   0  0  0  0  0  0  0  0  0  0  0  0
   44.5028   11.6625    7.7477 O   0  0  0  0  0  0  0  0  0  0  0  0
   41.2214   10.4440   11.1476 C   0  0  0  0  0  0  0  0  0  0  0  0
   41.3267   12.7500   11.8527 C   0  0  0  0  0  0  0  0  0  0  0  0
   39.8276   10.4769   11.2478 C   0  0  0  0  0  0  0  0  0  0  0  0
   39.9326   12.7814   11.9575 C   0  0  0  0  0  0  0  0  0  0  0  0
   39.1716   11.6501   11.6388 C   0  0  0  0  0  0  0  0  0  0  0  0
   49.1989   12.1814   10.0163 C   0  0  0  0  0  0  0  0  0  0  0  0
   42.9655   14.8954    7.0933 C   0  0  0  0  0  0  0  0  0  0  0  0
   43.5433   13.0332    5.5864 C   0  0  0  0  0  0  0  0  0  0  0  0
   37.6786   11.6765   11.7810 C   0  0  0  0  0  0  0  0  0  0  0  0
   44.3453   11.7654    9.9250 C   0  0  0  0  0  0  0  0  0  0  0  0
   45.7054   11.7728   10.1816 N   0  0  0  0  0  0  0  0  0  0  0  0
   44.7202   10.9970   12.0396 N   0  0  0  0  0  0  0  0  0  0  0  0
   43.7735   11.2830   11.0905 C   0  0  0  0  0  0  0  0  0  0  0  0
   45.8721   11.2834   11.4755 C   0  0  0  0  0  0  0  0  0  0  0  0
   43.7336   12.2330    8.6436 C   0  0  0  0  0  0  0  0  0  0  0  0
   43.6748   13.7607    8.5573 C   0  0  0  0  0  0  0  0  0  0  0  0
   46.7786   12.1598    9.3757 C   0  0  0  0  0  0  0  0  0  0  0  0
   47.2019   11.1703   11.9682 C   0  0  0  0  0  0  0  0  0  0  0  0
   42.3584   11.1125   11.3355 C   0  0  0  0  0  0  0  0  0  0  0  0
   48.0389   12.0570    9.8415 C   0  0  0  0  0  0  0  0  0  0  0  0
   48.2393   11.5376   11.1920 C   0  0  0  0  0  0  0  0  0  0  0  0
   42.8125   14.3033    7.6020 N   0  0  0  0  0  0  0  0  0  0  0  0
   44.3836   14.4777    9.2669 O   0  0  0  0  0  0  0  0  0  0  0  0
   41.7355   11.8628   12.3356 C   0  0  0  0  0  0  0  0  0  0  0  0
   41.6072   10.1941   10.5956 C   0  0  0  0  0  0  0  0  0  0  0  0
   40.3692   11.7102   12.5820 C   0  0  0  0  0  0  0  0  0  0  0  0
   40.2406   10.0404   10.8433 C   0  0  0  0  0  0  0  0  0  0  0  0
   39.6132   10.7915   11.8441 C   0  0  0  0  0  0  0  0  0  0  0  0
   49.2489   12.4562    9.0578 C   0  0  0  0  0  0  0  0  0  0  0  0
   41.9133   13.5193    6.7700 C   0  0  0  0  0  0  0  0  0  0  0  0
   42.5958   15.7416    7.5944 C   0  0  0  0  0  0  0  0  0  0  0  0
   38.1413   10.6506   12.0958 C   0  0  0  0  0  0  0  0  0  0  0  0
   41.8709   12.4237   12.1329 O   0  0  0  0  0  0  0  0  0  0  0  0
   42.0320   10.3500   11.3086 O   0  0  0  0  0  0  0  0  0  0  0  0
   44.8449   12.3265    7.6261 O   0  0  0  0  0  0  0  0  0  0  0  0
   45.3216   14.1212    8.8685 O   0  0  0  0  0  0  0  0  0  0  0  0
   42.2882   11.4355    8.7811 O   0  0  0  0  0  0  0  0  0  0  0  0
   44.7279   12.8550   11.1825 O   0  0  0  0  0  0  0  0  0  0  0  0
   42.2026   11.5532   11.1617 C   0  0  0  0  0  0  0  0  0  0  0  0
   42.7560   12.2005    9.9034 C   0  0  1  0  0  0  0  0  0  0  0  0
   44.2844   12.2195    9.9715 C   0  0  1  0  0  0  0  0  0  0  0  0
   44.8460   12.9965    8.7900 C   0  0  0  0  0  0  0  0  0  0  0  0
   42.7729   13.5972    9.5580 H   0  0  0  0  0  0  0  0  0  0  0  0
   44.4488   14.1768    9.4949 H   0  0  0  0  0  0  0  0  0  0  0  0
   46.6431   13.0697    9.3603 H   0  0  0  0  0  0  0  0  0  0  0  0
   46.6227    9.5971   12.9157 H   0  0  0  0  0  0  0  0  0  0  0  0
   48.7572   10.3398   11.9439 H   0  0  0  0  0  0  0  0  0  0  0  0
   41.7191    9.5262   10.8427 H   0  0  0  0  0  0  0  0  0  0  0  0
   41.9014   13.6347   12.1158 H   0  0  0  0  0  0  0  0  0  0  0  0
   39.2594    9.5773   11.0234 H   0  0  0  0  0  0  0  0  0  0  0  0
   39.4455   13.6929   12.2959 H   0  0  0  0  0  0  0  0  0  0  0  0
   49.1129   12.9714    9.2616 H   0  0  0  0  0  0  0  0  0  0  0  0
   49.6858   11.3210    9.5444 H   0  0  0  0  0  0  0  0  0  0  0  0
   49.8493   12.5539   10.8162 H   0  0  0  0  0  0  0  0  0  0  0  0
   42.8371   15.2006    8.1325 H   0  0  0  0  0  0  0  0  0  0  0  0
   43.7108   15.5499    6.6297 H   0  0  0  0  0  0  0  0  0  0  0  0
   42.0088   15.0083    6.5740 H   0  0  0  0  0  0  0  0  0  0  0  0
   44.3930   13.5385    5.1174 H   0  0  0  0  0  0  0  0  0  0  0  0
   43.7056   11.9527    5.5484 H   0  0  0  0  0  0  0  0  0  0  0  0
   42.6279   13.2668    5.0339 H   0  0  0  0  0  0  0  0  0  0  0  0
   37.3986   11.4408   12.8110 H   0  0  0  0  0  0  0  0  0  0  0  0
   37.2806   12.6628   11.5219 H   0  0  0  0  0  0  0  0  0  0  0  0
   37.2066   10.9508   11.1109 H   0  0  0  0  0  0  0  0  0  0  0  0
   44.3045   11.8598    7.7868 H   0  0  0  0  0  0  0  0  0  0  0  0
   42.7208   11.8288    8.5701 H   0  0  0  0  0  0  0  0  0  0  0  0
   46.5492   12.5488    8.3921 H   0  0  0  0  0  0  0  0  0  0  0  0
   47.3470   10.7869   12.9718 H   0  0  0  0  0  0  0  0  0  0  0  0
   49.2553   11.4557   11.5683 H   0  0  0  0  0  0  0  0  0  0  0  0
   42.3168   12.5697   12.9242 H   0  0  0  0  0  0  0  0  0  0  0  0
   42.0838    9.5839    9.8334 H   0  0  0  0  0  0  0  0  0  0  0  0
   39.9016   12.3106   13.3592 H   0  0  0  0  0  0  0  0  0  0  0  0
   39.6737    9.3195   10.2594 H   0  0  0  0  0  0  0  0  0  0  0  0
   48.9790   12.8750    8.0834 H   0  0  0  0  0  0  0  0  0  0  0  0
   49.8946   11.5904    8.8797 H   0  0  0  0  0  0  0  0  0  0  0  0
   49.8241   13.2141    9.5975 H   0  0  0  0  0  0  0  0  0  0  0  0
   40.9773   13.3678    7.3141 H   0  0  0  0  0  0  0  0  0  0  0  0
   42.3485   12.5502    6.5165 H   0  0  0  0  0  0  0  0  0  0  0  0
   41.7139   14.0578    5.8394 H   0  0  0  0  0  0  0  0  0  0  0  0
   43.3021   16.2753    8.2336 H   0  0  0  0  0  0  0  0  0  0  0  0
   42.7051   16.1108    6.5707 H   0  0  0  0  0  0  0  0  0  0  0  0
   41.5798   15.9429    7.9484 H   0  0  0  0  0  0  0  0  0  0  0  0
   37.5925   11.4257   11.5526 H   0  0  0  0  0  0  0  0  0  0  0  0
   37.9219   10.7403   13.1649 H   0  0  0  0  0  0  0  0  0  0  0  0
   37.7792    9.6700   11.7716 H   0  0  0  0  0  0  0  0  0  0  0  0
   41.5567   11.8631   12.8729 H   0  0  0  0  0  0  0  0  0  0  0  0
   45.2202   12.9507    6.9702 H   0  0  0  0  0  0  0  0  0  0  0  0
   42.3555   10.4915    9.0319 H   0  0  0  0  0  0  0  0  0  0  0  0
   45.2533   13.6437   10.9257 H   0  0  0  0  0  0  0  0  0  0  0  0
   42.3378   13.2091    9.8106 H   0  0  0  0  0  0  0  0  0  0  0  0
   44.7124   11.2113    9.9560 H   0  0  0  0  0  0  0  0  0  0  0  0
 10  4  1  0
 11  8  2  0
 12 11  1  0
 13  7  1  0
 14  7  2  0
 15 10  2  0
 16 10  1  0
 17 15  1  0
 18 16  2  0
 19 18  1  0
 20 11  1  0
 21 13  1  0
 22 13  1  0
 23 19  1  0
  3  5  2  0
  9 12  2  0
 17 19  2  0
  2  1  1  0
  3  4  1  0
  4  1  2  0
  5  2  1  0
  6  1  1  0
  7  6  1  0
  8  2  1  0
  9  5  1  0
 33 27  1  0
 34 31  2  0
 35 34  1  0
 36 30  1  0
 37 30  2  0
 38 33  2  0
 39 33  1  0
 40 38  1  0
 41 39  2  0
 42 41  1  0
 43 34  1  0
 44 36  1  0
 45 36  1  0
 46 42  1  0
 26 28  2  0
 32 35  2  0
 40 42  2  0
 25 24  1  0
 26 27  1  0
 27 24  2  0
 28 25  1  0
 29 24  1  0
 30 29  1  0
 31 25  1  0
 32 28  1  0
 53 48  2  0
 54 51  1  0
 55 52  1  0
 53 47  1  0
 55 56  1  0
 54 55  1  0
 56 49  1  0
 53 54  1  0
 56 50  2  0
  6 57  1  0
  6 58  1  0
  8 59  1  0
  9 60  1  0
 12 61  1  0
 15 62  1  0
 16 63  1  0
 17 64  1  0
 18 65  1  0
 20 66  1  0
 20 67  1  0
 20 68  1  0
 21 69  1  0
 21 70  1  0
 21 71  1  0
 22 72  1  0
 22 73  1  0
 22 74  1  0
 23 75  1  0
 23 76  1  0
 23 77  1  0
 29 78  1  0
 29 79  1  0
 31 80  1  0
 32 81  1  0
 35 82  1  0
 38 83  1  0
 39 84  1  0
 40 85  1  0
 41 86  1  0
 43 87  1  0
 43 88  1  0
 43 89  1  0
 44 90  1  0
 44 91  1  0
 44 92  1  0
 45 93  1  0
 45 94  1  0
 45 95  1  0
 46 96  1  0
 46 97  1  0
 46 98  1  0
 47 99  1  0
 49100  1  0
 51101  1  0
 52102  1  0
 54103  1  1
 55104  1  6
M  END
> <Uni-Dock RESULT> 
ENERGY=   -6.858  LOWER_BOUND=   10.085  UPPER_BOUND=   12.428
INTER + INTRA:          -6.858
INTER:                  -6.858
INTRA:                   0.000
UNBOUND:                 0.000

$$$$

     RDKit          3D

104107  0  0  0  0  0  0  0  0999 V2000
   48.1958    7.1249   13.7032 C   0  0  0  0  0  0  0  0  0  0  0  0
   47.2840    6.1228   13.4172 N   0  0  0  0  0  0  0  0  0  0  0  0
   48.1247    5.6477   15.4412 N   0  0  0  0  0  0  0  0  0  0  0  0
   48.7026    6.7896   14.9485 C   0  0  0  0  0  0  0  0  0  0  0  0
   47.2853    5.2561   14.5084 C   0  0  0  0  0  0  0  0  0  0  0  0
   48.4710    8.2854   12.8002 C   0  0  0  0  0  0  0  0  0  0  0  0
   47.3277    9.3041   12.7955 C   0  0  0  0  0  0  0  0  0  0  0  0
   46.4821    5.9206   12.2904 C   0  0  0  0  0  0  0  0  0  0  0  0
   46.4196    4.1287   14.4491 C   0  0  0  0  0  0  0  0  0  0  0  0
   49.6983    7.5351   15.6892 C   0  0  0  0  0  0  0  0  0  0  0  0
   45.6651    4.8508   12.2307 C   0  0  0  0  0  0  0  0  0  0  0  0
   45.6476    3.9294   13.3640 C   0  0  0  0  0  0  0  0  0  0  0  0
   47.5734   10.5200   12.1548 N   0  0  0  0  0  0  0  0  0  0  0  0
   46.2338    9.0610   13.3104 O   0  0  0  0  0  0  0  0  0  0  0  0
   49.3647    8.0931   16.9259 C   0  0  0  0  0  0  0  0  0  0  0  0
   50.9976    7.6907   15.1945 C   0  0  0  0  0  0  0  0  0  0  0  0
   50.3118    8.8233   17.6495 C   0  0  0  0  0  0  0  0  0  0  0  0
   51.9463    8.4174   15.9207 C   0  0  0  0  0  0  0  0  0  0  0  0
   51.6052    9.0039   17.1455 C   0  0  0  0  0  0  0  0  0  0  0  0
   44.7654    4.5552   11.0720 C   0  0  0  0  0  0  0  0  0  0  0  0
   48.7251   10.8025   11.3096 C   0  0  0  0  0  0  0  0  0  0  0  0
   46.5012   11.5012   12.1086 C   0  0  0  0  0  0  0  0  0  0  0  0
   52.6326    9.7573   17.9372 C   0  0  0  0  0  0  0  0  0  0  0  0
   47.5273    7.4018   13.9017 C   0  0  0  0  0  0  0  0  0  0  0  0
   46.8108    6.4064   13.2602 N   0  0  0  0  0  0  0  0  0  0  0  0
   47.9506    5.3981   14.9060 N   0  0  0  0  0  0  0  0  0  0  0  0
   48.2158    6.7428   14.9067 C   0  0  0  0  0  0  0  0  0  0  0  0
   47.0981    5.2148   13.9228 C   0  0  0  0  0  0  0  0  0  0  0  0
   47.5136    8.8391   13.4910 C   0  0  0  0  0  0  0  0  0  0  0  0
   48.3876    9.0947   12.2600 C   0  0  0  0  0  0  0  0  0  0  0  0
   45.9397    6.4743   12.1704 C   0  0  0  0  0  0  0  0  0  0  0  0
   46.4541    4.0342   13.4589 C   0  0  0  0  0  0  0  0  0  0  0  0
   49.1342    7.3483   15.8456 C   0  0  0  0  0  0  0  0  0  0  0  0
   45.3313    5.3567   11.7269 C   0  0  0  0  0  0  0  0  0  0  0  0
   45.6096    4.0968   12.4117 C   0  0  0  0  0  0  0  0  0  0  0  0
   48.7447   10.4210   12.0074 N   0  0  0  0  0  0  0  0  0  0  0  0
   48.7261    8.1811   11.5045 O   0  0  0  0  0  0  0  0  0  0  0  0
   50.4802    6.9751   15.8331 C   0  0  0  0  0  0  0  0  0  0  0  0
   48.6902    8.2909   16.7780 C   0  0  0  0  0  0  0  0  0  0  0  0
   51.3792    7.5528   16.7325 C   0  0  0  0  0  0  0  0  0  0  0  0
   49.5893    8.8677   17.6789 C   0  0  0  0  0  0  0  0  0  0  0  0
   50.9390    8.4966   17.6681 C   0  0  0  0  0  0  0  0  0  0  0  0
   44.3929    5.3287   10.5623 C   0  0  0  0  0  0  0  0  0  0  0  0
   48.4232   11.5374   12.8825 C   0  0  0  0  0  0  0  0  0  0  0  0
   49.7072   10.6956   10.9520 C   0  0  0  0  0  0  0  0  0  0  0  0
   51.9137    9.1325   18.6143 C   0  0  0  0  0  0  0  0  0  0  0  0
   50.6133    7.1162   15.2531 O   0  0  0  0  0  0  0  0  0  0  0  0
   48.8851    7.4835   16.6255 O   0  0  0  0  0  0  0  0  0  0  0  0
   46.3388    9.0269   12.5617 O   0  0  0  0  0  0  0  0  0  0  0  0
   47.7233    7.9240   11.1984 O   0  0  0  0  0  0  0  0  0  0  0  0
   48.0330    9.4867   14.9246 O   0  0  0  0  0  0  0  0  0  0  0  0
   48.5716    6.2712   13.1628 O   0  0  0  0  0  0  0  0  0  0  0  0
   49.3960    7.6229   15.5219 C   0  0  0  0  0  0  0  0  0  0  0  0
   48.7659    8.3839   14.3676 C   0  0  1  0  0  0  0  0  0  0  0  0
   47.8520    7.4446   13.5780 C   0  0  1  0  0  0  0  0  0  0  0  0
   47.3318    8.1516   12.3353 C   0  0  0  0  0  0  0  0  0  0  0  0
   49.3816    8.7921   13.1328 H   0  0  0  0  0  0  0  0  0  0  0  0
   48.6303    7.9290   11.7766 H   0  0  0  0  0  0  0  0  0  0  0  0
   46.5422    6.6557   11.4991 H   0  0  0  0  0  0  0  0  0  0  0  0
   46.4037    3.4475   15.2923 H   0  0  0  0  0  0  0  0  0  0  0  0
   44.9846    3.0696   13.3186 H   0  0  0  0  0  0  0  0  0  0  0  0
   48.3630    7.9599   17.3286 H   0  0  0  0  0  0  0  0  0  0  0  0
   51.2844    7.2326   14.2511 H   0  0  0  0  0  0  0  0  0  0  0  0
   50.0324    9.2450   18.6122 H   0  0  0  0  0  0  0  0  0  0  0  0
   52.9551    8.5166   15.5269 H   0  0  0  0  0  0  0  0  0  0  0  0
   44.8821    5.2938   10.2708 H   0  0  0  0  0  0  0  0  0  0  0  0
   43.7167    4.5691   11.3882 H   0  0  0  0  0  0  0  0  0  0  0  0
   44.9889    3.5682   10.6506 H   0  0  0  0  0  0  0  0  0  0  0  0
   49.5238   10.0669   11.4118 H   0  0  0  0  0  0  0  0  0  0  0  0
   48.3930   10.8103   10.2663 H   0  0  0  0  0  0  0  0  0  0  0  0
   49.1207   11.7883   11.5728 H   0  0  0  0  0  0  0  0  0  0  0  0
   46.0145   11.4380   11.1306 H   0  0  0  0  0  0  0  0  0  0  0  0
   45.7556   11.3306   12.8898 H   0  0  0  0  0  0  0  0  0  0  0  0
   46.9232   12.5019   12.2436 H   0  0  0  0  0  0  0  0  0  0  0  0
   53.2095    9.0632   18.5540 H   0  0  0  0  0  0  0  0  0  0  0  0
   53.3171   10.2954   17.2737 H   0  0  0  0  0  0  0  0  0  0  0  0
   52.1609   10.5008   18.5876 H   0  0  0  0  0  0  0  0  0  0  0  0
   46.4927    9.1639   13.2641 H   0  0  0  0  0  0  0  0  0  0  0  0
   47.8783    9.4456   14.3240 H   0  0  0  0  0  0  0  0  0  0  0  0
   45.7956    7.4414   11.7063 H   0  0  0  0  0  0  0  0  0  0  0  0
   46.6648    3.1003   13.9677 H   0  0  0  0  0  0  0  0  0  0  0  0
   45.1201    3.1953   12.0536 H   0  0  0  0  0  0  0  0  0  0  0  0
   50.8300    6.2322   15.1189 H   0  0  0  0  0  0  0  0  0  0  0  0
   47.6411    8.5704   16.8177 H   0  0  0  0  0  0  0  0  0  0  0  0
   52.4248    7.2550   16.7001 H   0  0  0  0  0  0  0  0  0  0  0  0
   49.2249    9.5971   18.3981 H   0  0  0  0  0  0  0  0  0  0  0  0
   44.2962    6.3147   10.0975 H   0  0  0  0  0  0  0  0  0  0  0  0
   43.3944    5.0123   10.8805 H   0  0  0  0  0  0  0  0  0  0  0  0
   44.7504    4.6339    9.7967 H   0  0  0  0  0  0  0  0  0  0  0  0
   49.2075   11.6250   13.6390 H   0  0  0  0  0  0  0  0  0  0  0  0
   47.4580   11.3938   13.3731 H   0  0  0  0  0  0  0  0  0  0  0  0
   48.3742   12.4590   12.2960 H   0  0  0  0  0  0  0  0  0  0  0  0
   49.9049    9.8222   10.3272 H   0  0  0  0  0  0  0  0  0  0  0  0
   49.3180   11.4968   10.3173 H   0  0  0  0  0  0  0  0  0  0  0  0
   50.6465   11.0184   11.4122 H   0  0  0  0  0  0  0  0  0  0  0  0
   52.4228    9.9669   18.1229 H   0  0  0  0  0  0  0  0  0  0  0  0
   52.6608    8.4041   18.9466 H   0  0  0  0  0  0  0  0  0  0  0  0
   51.4060    9.5073   19.5086 H   0  0  0  0  0  0  0  0  0  0  0  0
   50.8729    6.6443   16.0719 H   0  0  0  0  0  0  0  0  0  0  0  0
   46.1214    9.4017   11.6826 H   0  0  0  0  0  0  0  0  0  0  0  0
   47.5765    9.1511   15.7230 H   0  0  0  0  0  0  0  0  0  0  0  0
   48.5630    6.2526   12.1811 H   0  0  0  0  0  0  0  0  0  0  0  0
   49.5626    8.8015   13.7418 H   0  0  0  0  0  0  0  0  0  0  0  0
   46.9929    7.1088   14.1688 H   0  0  0  0  0  0  0  0  0  0  0  0
 10  4  1  0
 11  8  2  0
 12 11  1  0
 13  7  1  0
 14  7  2  0
 15 10  2  0
 16 10  1  0
 17 15  1  0
 18 16  2  0
 19 18  1  0
 20 11  1  0
 21 13  1  0
 22 13  1  0
 23 19  1  0
  3  5  2  0
  9 12  2  0
 17 19  2  0
  2  1  1  0
  3  4  1  0
  4  1  2  0
  5  2  1  0
  6  1  1  0
  7  6  1  0
  8  2  1  0
  9  5  1  0
 33 27  1  0
 34 31  2  0
 35 34  1  0
 36 30  1  0
 37 30  2  0
 38 33  2  0
 39 33  1  0
 40 38  1  0
 41 39  2  0
 42 41  1  0
 43 34  1  0
 44 36  1  0
 45 36  1  0
 46 42  1  0
 26 28  2  0
 32 35  2  0
 40 42  2  0
 25 24  1  0
 26 27  1  0
 27 24  2  0
 28 25  1  0
 29 24  1  0
 30 29  1  0
 31 25  1  0
 32 28  1  0
 53 48  2  0
 54 51  1  0
 55 52  1  0
 53 47  1  0
 55 56  1  0
 54 55  1  0
 56 49  1  0
 53 54  1  0
 56 50  2  0
  6 57  1  0
  6 58  1  0
  8 59  1  0
  9 60  1  0
 12 61  1  0
 15 62  1  0
 16 63  1  0
 17 64  1  0
 18 65  1  0
 20 66  1  0
 20 67  1  0
 20 68  1  0
 21 69  1  0
 21 70  1  0
 21 71  1  0
 22 72  1  0
 22 73  1  0
 22 74  1  0
 23 75  1  0
 23 76  1  0
 23 77  1  0
 29 78  1  0
 29 79  1  0
 31 80  1  0
 32 81  1  0
 35 82  1  0
 38 83  1  0
 39 84  1  0
 40 85  1  0
 41 86  1  0
 43 87  1  0
 43 88  1  0
 43 89  1  0
 44 90  1  0
 44 91  1  0
 44 92  1  0
 45 93  1  0
 45 94  1  0
 45 95  1  0
 46 96  1  0
 46 97  1  0
 46 98  1  0
 47 99  1  0
 49100  1  0
 51101  1  0
 52102  1  0
 54103  1  1
 55104  1  6
M  END
> <Uni-Dock RESULT> 
ENERGY=   -6.842  LOWER_BOUND=    4.730  UPPER_BOUND=    6.584
INTER + INTRA:          -6.842
INTER:                  -6.842
INTRA:                   0.000
UNBOUND:                 0.000

$$$$

     RDKit          3D

104107  0  0  0  0  0  0  0  0999 V2000
   49.9182    8.4093   15.6933 C   0  0  0  0  0  0  0  0  0  0  0  0
   49.7070    8.2951   14.3296 N   0  0  0  0  0  0  0  0  0  0  0  0
   47.7089    8.7552   15.2378 N   0  0  0  0  0  0  0  0  0  0  0  0
   48.6642    8.6772   16.2187 C   0  0  0  0  0  0  0  0  0  0  0  0
   48.3478    8.5144   14.1145 C   0  0  0  0  0  0  0  0  0  0  0  0
   51.2592    8.2807   16.3439 C   0  0  0  0  0  0  0  0  0  0  0  0
   52.1508    9.4988   16.0869 C   0  0  0  0  0  0  0  0  0  0  0  0
   50.6013    8.0098   13.2940 C   0  0  0  0  0  0  0  0  0  0  0  0
   47.8785    8.4450   12.7733 C   0  0  0  0  0  0  0  0  0  0  0  0
   48.3560    8.8841   17.6179 C   0  0  0  0  0  0  0  0  0  0  0  0
   50.1576    7.9391   12.0238 C   0  0  0  0  0  0  0  0  0  0  0  0
   48.7367    8.1679   11.7735 C   0  0  0  0  0  0  0  0  0  0  0  0
   53.3364    9.5743   16.8205 N   0  0  0  0  0  0  0  0  0  0  0  0
   51.8541   10.3627   15.2585 O   0  0  0  0  0  0  0  0  0  0  0  0
   47.8516   10.1172   18.0390 C   0  0  0  0  0  0  0  0  0  0  0  0
   48.5377    7.8612   18.5548 C   0  0  0  0  0  0  0  0  0  0  0  0
   47.5574   10.3361   19.3878 C   0  0  0  0  0  0  0  0  0  0  0  0
   48.2389    8.0790   19.9035 C   0  0  0  0  0  0  0  0  0  0  0  0
   47.7630    9.3239   20.3326 C   0  0  0  0  0  0  0  0  0  0  0  0
   51.0389    7.6479   10.8499 C   0  0  0  0  0  0  0  0  0  0  0  0
   53.8925    8.4955   17.6251 C   0  0  0  0  0  0  0  0  0  0  0  0
   54.2201   10.7045   16.5834 C   0  0  0  0  0  0  0  0  0  0  0  0
   47.4144    9.5459   21.7746 C   0  0  0  0  0  0  0  0  0  0  0  0
   50.0896    9.0819   15.4086 C   0  0  0  0  0  0  0  0  0  0  0  0
   50.1060    8.6361   14.0983 N   0  0  0  0  0  0  0  0  0  0  0  0
   47.9922    8.4143   14.8105 N   0  0  0  0  0  0  0  0  0  0  0  0
   48.7735    8.9294   15.8119 C   0  0  0  0  0  0  0  0  0  0  0  0
   48.8019    8.2564   13.7875 C   0  0  0  0  0  0  0  0  0  0  0  0
   51.2983    9.5683   16.1416 C   0  0  0  0  0  0  0  0  0  0  0  0
   52.1878    8.4151   16.6145 C   0  0  0  0  0  0  0  0  0  0  0  0
   51.1567    8.5522   13.1816 C   0  0  0  0  0  0  0  0  0  0  0  0
   48.5536    7.7793   12.4705 C   0  0  0  0  0  0  0  0  0  0  0  0
   48.2463    9.2329   17.1241 C   0  0  0  0  0  0  0  0  0  0  0  0
   50.9245    8.0972   11.9347 C   0  0  0  0  0  0  0  0  0  0  0  0
   49.5631    7.7020   11.5825 C   0  0  0  0  0  0  0  0  0  0  0  0
   53.1271    8.7114   17.6046 N   0  0  0  0  0  0  0  0  0  0  0  0
   52.1084    7.2895   16.1177 O   0  0  0  0  0  0  0  0  0  0  0  0
   47.7262    8.2048   17.9138 C   0  0  0  0  0  0  0  0  0  0  0  0
   48.2345   10.5449   17.6073 C   0  0  0  0  0  0  0  0  0  0  0  0
   47.2155    8.4825   19.1838 C   0  0  0  0  0  0  0  0  0  0  0  0
   47.7221   10.8229   18.8772 C   0  0  0  0  0  0  0  0  0  0  0  0
   47.2012    9.7947   19.6715 C   0  0  0  0  0  0  0  0  0  0  0  0
   51.9860    7.9614   10.8895 C   0  0  0  0  0  0  0  0  0  0  0  0
   53.2398   10.0008   18.2680 C   0  0  0  0  0  0  0  0  0  0  0  0
   53.8773    7.6189   18.2040 C   0  0  0  0  0  0  0  0  0  0  0  0
   46.6751   10.0831   21.0462 C   0  0  0  0  0  0  0  0  0  0  0  0
   48.2195    7.8442   17.9387 O   0  0  0  0  0  0  0  0  0  0  0  0
   47.8014    9.9251   17.2313 O   0  0  0  0  0  0  0  0  0  0  0  0
   52.3705    9.8294   15.1113 O   0  0  0  0  0  0  0  0  0  0  0  0
   52.3979    7.5954   15.1236 O   0  0  0  0  0  0  0  0  0  0  0  0
   50.5147   10.4377   17.3138 O   0  0  0  0  0  0  0  0  0  0  0  0
   49.7069    7.4205   15.3195 O   0  0  0  0  0  0  0  0  0  0  0  0
   48.6027    9.0145   17.3961 C   0  0  0  0  0  0  0  0  0  0  0  0
   50.0816    9.0925   17.0564 C   0  0  1  0  0  0  0  0  0  0  0  0
   50.2874    8.7078   15.5900 C   0  0  1  0  0  0  0  0  0  0  0  0
   51.7746    8.6373   15.2767 C   0  0  0  0  0  0  0  0  0  0  0  0
   51.1261    8.1738   17.4244 H   0  0  0  0  0  0  0  0  0  0  0  0
   51.7681    7.3855   15.9701 H   0  0  0  0  0  0  0  0  0  0  0  0
   51.6402    7.8667   13.5596 H   0  0  0  0  0  0  0  0  0  0  0  0
   46.8247    8.6192   12.5875 H   0  0  0  0  0  0  0  0  0  0  0  0
   48.3795    8.1165   10.7484 H   0  0  0  0  0  0  0  0  0  0  0  0
   47.6873   10.9119   17.3147 H   0  0  0  0  0  0  0  0  0  0  0  0
   48.8951    6.8842   18.2387 H   0  0  0  0  0  0  0  0  0  0  0  0
   47.1612   11.3017   19.6931 H   0  0  0  0  0  0  0  0  0  0  0  0
   48.3738    7.2680   20.6153 H   0  0  0  0  0  0  0  0  0  0  0  0
   52.0749    7.4658   11.1575 H   0  0  0  0  0  0  0  0  0  0  0  0
   51.0416    8.4939   10.1539 H   0  0  0  0  0  0  0  0  0  0  0  0
   50.6887    6.7578   10.3145 H   0  0  0  0  0  0  0  0  0  0  0  0
   53.1805    7.6921   17.8176 H   0  0  0  0  0  0  0  0  0  0  0  0
   54.7520    8.0761   17.0921 H   0  0  0  0  0  0  0  0  0  0  0  0
   54.2242    8.9070   18.5834 H   0  0  0  0  0  0  0  0  0  0  0  0
   55.0204   10.3842   15.9094 H   0  0  0  0  0  0  0  0  0  0  0  0
   53.6925   11.5501   16.1341 H   0  0  0  0  0  0  0  0  0  0  0  0
   54.6513   11.0299   17.5352 H   0  0  0  0  0  0  0  0  0  0  0  0
   46.3917    9.2106   21.9660 H   0  0  0  0  0  0  0  0  0  0  0  0
   48.0969    8.9944   22.4290 H   0  0  0  0  0  0  0  0  0  0  0  0
   47.4955   10.6046   22.0406 H   0  0  0  0  0  0  0  0  0  0  0  0
   51.8960   10.2266   15.5024 H   0  0  0  0  0  0  0  0  0  0  0  0
   50.9731   10.1507   17.0073 H   0  0  0  0  0  0  0  0  0  0  0  0
   52.1402    8.8496   13.5214 H   0  0  0  0  0  0  0  0  0  0  0  0
   47.5425    7.4844   12.2131 H   0  0  0  0  0  0  0  0  0  0  0  0
   49.3758    7.3339   10.5774 H   0  0  0  0  0  0  0  0  0  0  0  0
   47.7200    7.1833   17.5386 H   0  0  0  0  0  0  0  0  0  0  0  0
   48.6104   11.3585   16.9931 H   0  0  0  0  0  0  0  0  0  0  0  0
   46.8235    7.6662   19.7864 H   0  0  0  0  0  0  0  0  0  0  0  0
   47.7193   11.8496   19.2348 H   0  0  0  0  0  0  0  0  0  0  0  0
   52.9715    8.2387   11.2761 H   0  0  0  0  0  0  0  0  0  0  0  0
   51.7698    8.6109   10.0352 H   0  0  0  0  0  0  0  0  0  0  0  0
   52.0467    6.9285   10.5346 H   0  0  0  0  0  0  0  0  0  0  0  0
   52.5552   10.0159   19.1202 H   0  0  0  0  0  0  0  0  0  0  0  0
   52.9951   10.8207   17.5893 H   0  0  0  0  0  0  0  0  0  0  0  0
   54.2658   10.1428   18.6188 H   0  0  0  0  0  0  0  0  0  0  0  0
   53.7562    6.6794   17.6609 H   0  0  0  0  0  0  0  0  0  0  0  0
   54.9391    7.8814   18.2130 H   0  0  0  0  0  0  0  0  0  0  0  0
   53.5275    7.4784   19.2317 H   0  0  0  0  0  0  0  0  0  0  0  0
   47.4525    9.8933   21.7923 H   0  0  0  0  0  0  0  0  0  0  0  0
   45.8066    9.4539   21.2673 H   0  0  0  0  0  0  0  0  0  0  0  0
   46.3511   11.1250   21.1325 H   0  0  0  0  0  0  0  0  0  0  0  0
   47.2542    7.9389   18.0788 H   0  0  0  0  0  0  0  0  0  0  0  0
   53.3111    9.6232   14.9286 H   0  0  0  0  0  0  0  0  0  0  0  0
   49.8075   11.0318   16.9891 H   0  0  0  0  0  0  0  0  0  0  0  0
   50.4325    6.8249   15.0318 H   0  0  0  0  0  0  0  0  0  0  0  0
   50.6359    8.4335   17.7342 H   0  0  0  0  0  0  0  0  0  0  0  0
   49.8242    9.4255   14.9043 H   0  0  0  0  0  0  0  0  0  0  0  0
 10  4  1  0
 11  8  2  0
 12 11  1  0
 13  7  1  0
 14  7  2  0
 15 10  2  0
 16 10  1  0
 17 15  1  0
 18 16  2  0
 19 18  1  0
 20 11  1  0
 21 13  1  0
 22 13  1  0
 23 19  1  0
  3  5  2  0
  9 12  2  0
 17 19  2  0
  2  1  1  0
  3  4  1  0
  4  1  2  0
  5  2  1  0
  6  1  1  0
  7  6  1  0
  8  2  1  0
  9  5  1  0
 33 27  1  0
 34 31  2  0
 35 34  1  0
 36 30  1  0
 37 30  2  0
 38 33  2  0
 39 33  1  0
 40 38  1  0
 41 39  2  0
 42 41  1  0
 43 34  1  0
 44 36  1  0
 45 36  1  0
 46 42  1  0
 26 28  2  0
 32 35  2  0
 40 42  2  0
 25 24  1  0
 26 27  1  0
 27 24  2  0
 28 25  1  0
 29 24  1  0
 30 29  1  0
 31 25  1  0
 32 28  1  0
 53 48  2  0
 54 51  1  0
 55 52  1  0
 53 47  1  0
 55 56  1  0
 54 55  1  0
 56 49  1  0
 53 54  1  0
 56 50  2  0
  6 57  1  0
  6 58  1  0
  8 59  1  0
  9 60  1  0
 12 61  1  0
 15 62  1  0
 16 63  1  0
 17 64  1  0
 18 65  1  0
 20 66  1  0
 20 67  1  0
 20 68  1  0
 21 69  1  0
 21 70  1  0
 21 71  1  0
 22 72  1  0
 22 73  1  0
 22 74  1  0
 23 75  1  0
 23 76  1  0
 23 77  1  0
 29 78  1  0
 29 79  1  0
 31 80  1  0
 32 81  1  0
 35 82  1  0
 38 83  1  0
 39 84  1  0
 40 85  1  0
 41 86  1  0
 43 87  1  0
 43 88  1  0
 43 89  1  0
 44 90  1  0
 44 91  1  0
 44 92  1  0
 45 93  1  0
 45 94  1  0
 45 95  1  0
 46 96  1  0
 46 97  1  0
 46 98  1  0
 47 99  1  0
 49100  1  0
 51101  1  0
 52102  1  0
 54103  1  1
 55104  1  6
M  END
> <Uni-Dock RESULT> 
ENERGY=   -6.809  LOWER_BOUND=    3.609  UPPER_BOUND=    4.402
INTER + INTRA:          -6.809
INTER:                  -6.809
INTRA:                   0.000
UNBOUND:                 0.000

$$$$

     RDKit          3D

104107  0  0  0  0  0  0  0  0999 V2000
   48.2732    8.9157   17.9091 C   0  0  0  0  0  0  0  0  0  0  0  0
   48.1039    8.1937   19.0784 N   0  0  0  0  0  0  0  0  0  0  0  0
   48.6389    6.7021   17.4916 N   0  0  0  0  0  0  0  0  0  0  0  0
   48.5862    7.9624   16.9534 C   0  0  0  0  0  0  0  0  0  0  0  0
   48.3383    6.8570   18.7619 C   0  0  0  0  0  0  0  0  0  0  0  0
   48.1486   10.4040   17.8217 C   0  0  0  0  0  0  0  0  0  0  0  0
   49.3381   11.1268   18.4600 C   0  0  0  0  0  0  0  0  0  0  0  0
   47.7580    8.6180   20.3645 C   0  0  0  0  0  0  0  0  0  0  0  0
   48.2194    5.9056   19.8128 C   0  0  0  0  0  0  0  0  0  0  0  0
   48.8590    8.2192   15.5550 C   0  0  0  0  0  0  0  0  0  0  0  0
   47.6405    7.7176   21.3599 C   0  0  0  0  0  0  0  0  0  0  0  0
   47.8838    6.3105   21.0524 C   0  0  0  0  0  0  0  0  0  0  0  0
   49.4239   12.5038   18.2457 N   0  0  0  0  0  0  0  0  0  0  0  0
   50.1706   10.5328   19.1490 O   0  0  0  0  0  0  0  0  0  0  0  0
   50.1181    7.9168   15.0301 C   0  0  0  0  0  0  0  0  0  0  0  0
   47.8745    8.7491   14.7141 C   0  0  0  0  0  0  0  0  0  0  0  0
   50.4005    8.1670   13.6842 C   0  0  0  0  0  0  0  0  0  0  0  0
   48.1558    8.9951   13.3666 C   0  0  0  0  0  0  0  0  0  0  0  0
   49.4265    8.7220   12.8459 C   0  0  0  0  0  0  0  0  0  0  0  0
   47.2828    8.0765   22.7680 C   0  0  0  0  0  0  0  0  0  0  0  0
   48.3710   13.3278   17.6687 C   0  0  0  0  0  0  0  0  0  0  0  0
   50.5266   13.2271   18.8585 C   0  0  0  0  0  0  0  0  0  0  0  0
   49.7170    8.9581   11.3933 C   0  0  0  0  0  0  0  0  0  0  0  0
   48.9297    8.9637   18.2692 C   0  0  0  0  0  0  0  0  0  0  0  0
   48.4273    8.4722   19.4616 N   0  0  0  0  0  0  0  0  0  0  0  0
   48.2748    6.7982   17.9787 N   0  0  0  0  0  0  0  0  0  0  0  0
   48.8185    7.9059   17.3821 C   0  0  0  0  0  0  0  0  0  0  0  0
   48.0582    7.1494   19.2264 C   0  0  0  0  0  0  0  0  0  0  0  0
   49.4254   10.3618   18.0836 C   0  0  0  0  0  0  0  0  0  0  0  0
   48.2778   11.3650   17.9374 C   0  0  0  0  0  0  0  0  0  0  0  0
   48.2849    9.0866   20.7079 C   0  0  0  0  0  0  0  0  0  0  0  0
   47.5291    6.4111   20.3213 C   0  0  0  0  0  0  0  0  0  0  0  0
   49.1880    7.9270   15.9839 C   0  0  0  0  0  0  0  0  0  0  0  0
   47.7806    8.3904   21.7456 C   0  0  0  0  0  0  0  0  0  0  0  0
   47.3952    6.9987   21.5257 C   0  0  0  0  0  0  0  0  0  0  0  0
   48.5996   12.6141   17.4020 N   0  0  0  0  0  0  0  0  0  0  0  0
   47.1334   11.0997   18.3116 O   0  0  0  0  0  0  0  0  0  0  0  0
   48.2046    7.7529   15.0073 C   0  0  0  0  0  0  0  0  0  0  0  0
   50.5197    8.1030   15.5958 C   0  0  0  0  0  0  0  0  0  0  0  0
   48.5462    7.7730   13.6532 C   0  0  0  0  0  0  0  0  0  0  0  0
   50.8616    8.1215   14.2410 C   0  0  0  0  0  0  0  0  0  0  0  0
   49.8784    7.9483   13.2599 C   0  0  0  0  0  0  0  0  0  0  0  0
   47.5806    8.9651   23.1121 C   0  0  0  0  0  0  0  0  0  0  0  0
   49.9143   12.9745   16.8949 C   0  0  0  0  0  0  0  0  0  0  0  0
   47.5207   13.5378   17.0884 C   0  0  0  0  0  0  0  0  0  0  0  0
   50.2355    7.9947   11.8038 C   0  0  0  0  0  0  0  0  0  0  0  0
   47.8366    8.2175   15.1580 O   0  0  0  0  0  0  0  0  0  0  0  0
   49.8921    7.5582   15.7458 O   0  0  0  0  0  0  0  0  0  0  0  0
   49.6222   10.9521   19.4591 O   0  0  0  0  0  0  0  0  0  0  0  0
   47.3907   10.9823   19.3535 O   0  0  0  0  0  0  0  0  0  0  0  0
   50.3588   10.0924   16.7418 O   0  0  0  0  0  0  0  0  0  0  0  0
   47.2732    8.5764   18.1255 O   0  0  0  0  0  0  0  0  0  0  0  0
   48.9752    8.3609   15.8608 C   0  0  0  0  0  0  0  0  0  0  0  0
   49.0117    9.5935   16.7486 C   0  0  1  0  0  0  0  0  0  0  0  0
   48.5602    9.2162   18.1609 C   0  0  1  0  0  0  0  0  0  0  0  0
   48.4494   10.4666   19.0207 C   0  0  0  0  0  0  0  0  0  0  0  0
   48.0910   10.6990   16.7699 H   0  0  0  0  0  0  0  0  0  0  0  0
   47.2291   10.7288   18.3207 H   0  0  0  0  0  0  0  0  0  0  0  0
   47.6078    9.6788   20.5144 H   0  0  0  0  0  0  0  0  0  0  0  0
   48.4044    4.8619   19.5851 H   0  0  0  0  0  0  0  0  0  0  0  0
   47.7946    5.5847   21.8563 H   0  0  0  0  0  0  0  0  0  0  0  0
   50.8835    7.4852   15.6711 H   0  0  0  0  0  0  0  0  0  0  0  0
   46.8785    8.9566   15.0976 H   0  0  0  0  0  0  0  0  0  0  0  0
   51.3854    7.9196   13.2952 H   0  0  0  0  0  0  0  0  0  0  0  0
   47.3741    9.3948   12.7249 H   0  0  0  0  0  0  0  0  0  0  0  0
   47.0954    9.1508   22.8762 H   0  0  0  0  0  0  0  0  0  0  0  0
   48.0977    7.8098   23.4499 H   0  0  0  0  0  0  0  0  0  0  0  0
   46.3769    7.5465   23.0842 H   0  0  0  0  0  0  0  0  0  0  0  0
   47.5897   12.7457   17.1786 H   0  0  0  0  0  0  0  0  0  0  0  0
   47.9135   13.9144   18.4720 H   0  0  0  0  0  0  0  0  0  0  0  0
   48.8176   14.0043   16.9333 H   0  0  0  0  0  0  0  0  0  0  0  0
   50.1630   13.7045   19.7734 H   0  0  0  0  0  0  0  0  0  0  0  0
   51.3614   12.5667   19.1082 H   0  0  0  0  0  0  0  0  0  0  0  0
   50.8851   13.9927   18.1634 H   0  0  0  0  0  0  0  0  0  0  0  0
   49.4089    8.0890   10.8061 H   0  0  0  0  0  0  0  0  0  0  0  0
   49.1821    9.8407   11.0282 H   0  0  0  0  0  0  0  0  0  0  0  0
   50.7846    9.1357   11.2292 H   0  0  0  0  0  0  0  0  0  0  0  0
   50.0445   10.6658   18.9342 H   0  0  0  0  0  0  0  0  0  0  0  0
   50.0505   10.3965   17.1877 H   0  0  0  0  0  0  0  0  0  0  0  0
   48.5789   10.1251   20.7888 H   0  0  0  0  0  0  0  0  0  0  0  0
   47.2417    5.3792   20.1541 H   0  0  0  0  0  0  0  0  0  0  0  0
   46.9874    6.4374   22.3619 H   0  0  0  0  0  0  0  0  0  0  0  0
   47.1682    7.6021   15.3026 H   0  0  0  0  0  0  0  0  0  0  0  0
   51.2990    8.2121   16.3449 H   0  0  0  0  0  0  0  0  0  0  0  0
   47.7640    7.6445   12.9083 H   0  0  0  0  0  0  0  0  0  0  0  0
   51.9028    8.2570   13.9587 H   0  0  0  0  0  0  0  0  0  0  0  0
   47.8565   10.0235   23.1496 H   0  0  0  0  0  0  0  0  0  0  0  0
   48.1963    8.4354   23.8460 H   0  0  0  0  0  0  0  0  0  0  0  0
   46.5323    8.8840   23.4140 H   0  0  0  0  0  0  0  0  0  0  0  0
   49.9787   12.6726   15.8462 H   0  0  0  0  0  0  0  0  0  0  0  0
   50.7084   12.4863   17.4641 H   0  0  0  0  0  0  0  0  0  0  0  0
   50.0528   14.0563   16.9748 H   0  0  0  0  0  0  0  0  0  0  0  0
   46.5610   13.2161   17.4979 H   0  0  0  0  0  0  0  0  0  0  0  0
   47.7641   14.5204   17.5025 H   0  0  0  0  0  0  0  0  0  0  0  0
   47.4312   13.6125   16.0000 H   0  0  0  0  0  0  0  0  0  0  0  0
   50.0641    9.0000   11.4079 H   0  0  0  0  0  0  0  0  0  0  0  0
   49.6322    7.2792   11.2352 H   0  0  0  0  0  0  0  0  0  0  0  0
   51.2858    7.7292   11.6481 H   0  0  0  0  0  0  0  0  0  0  0  0
   47.9547    7.3813   14.6606 H   0  0  0  0  0  0  0  0  0  0  0  0
   49.3913   11.7489   19.9810 H   0  0  0  0  0  0  0  0  0  0  0  0
   50.9509    9.3146   16.7956 H   0  0  0  0  0  0  0  0  0  0  0  0
   46.6526    9.1343   18.6428 H   0  0  0  0  0  0  0  0  0  0  0  0
   48.3728   10.3668   16.3074 H   0  0  0  0  0  0  0  0  0  0  0  0
   49.2559    8.5239   18.6473 H   0  0  0  0  0  0  0  0  0  0  0  0
 10  4  1  0
 11  8  2  0
 12 11  1  0
 13  7  1  0
 14  7  2  0
 15 10  2  0
 16 10  1  0
 17 15  1  0
 18 16  2  0
 19 18  1  0
 20 11  1  0
 21 13  1  0
 22 13  1  0
 23 19  1  0
  3  5  2  0
  9 12  2  0
 17 19  2  0
  2  1  1  0
  3  4  1  0
  4  1  2  0
  5  2  1  0
  6  1  1  0
  7  6  1  0
  8  2  1  0
  9  5  1  0
 33 27  1  0
 34 31  2  0
 35 34  1  0
 36 30  1  0
 37 30  2  0
 38 33  2  0
 39 33  1  0
 40 38  1  0
 41 39  2  0
 42 41  1  0
 43 34  1  0
 44 36  1  0
 45 36  1  0
 46 42  1  0
 26 28  2  0
 32 35  2  0
 40 42  2  0
 25 24  1  0
 26 27  1  0
 27 24  2  0
 28 25  1  0
 29 24  1  0
 30 29  1  0
 31 25  1  0
 32 28  1  0
 53 48  2  0
 54 51  1  0
 55 52  1  0
 53 47  1  0
 55 56  1  0
 54 55  1  0
 56 49  1  0
 53 54  1  0
 56 50  2  0
  6 57  1  0
  6 58  1  0
  8 59  1  0
  9 60  1  0
 12 61  1  0
 15 62  1  0
 16 63  1  0
 17 64  1  0
 18 65  1  0
 20 66  1  0
 20 67  1  0
 20 68  1  0
 21 69  1  0
 21 70  1  0
 21 71  1  0
 22 72  1  0
 22 73  1  0
 22 74  1  0
 23 75  1  0
 23 76  1  0
 23 77  1  0
 29 78  1  0
 29 79  1  0
 31 80  1  0
 32 81  1  0
 35 82  1  0
 38 83  1  0
 39 84  1  0
 40 85  1  0
 41 86  1  0
 43 87  1  0
 43 88  1  0
 43 89  1  0
 44 90  1  0
 44 91  1  0
 44 92  1  0
 45 93  1  0
 45 94  1  0
 45 95  1  0
 46 96  1  0
 46 97  1  0
 46 98  1  0
 47 99  1  0
 49100  1  0
 51101  1  0
 52102  1  0
 54103  1  1
 55104  1  6
M  END
> <Uni-Dock RESULT> 
ENERGY=   -6.721  LOWER_BOUND=    3.117  UPPER_BOUND=    5.705
INTER + INTRA:          -6.721
INTER:                  -6.721
INTRA:                   0.000
UNBOUND:                 0.000

$$$$

     RDKit          3D

104107  0  0  0  0  0  0  0  0999 V2000
   48.7058    8.1201   19.7665 C   0  0  0  0  0  0  0  0  0  0  0  0
   48.3203    9.4300   19.5364 N   0  0  0  0  0  0  0  0  0  0  0  0
   48.1050    8.3589   17.5779 N   0  0  0  0  0  0  0  0  0  0  0  0
   48.5744    7.4970   18.5358 C   0  0  0  0  0  0  0  0  0  0  0  0
   47.9674    9.5137   18.1909 C   0  0  0  0  0  0  0  0  0  0  0  0
   49.1264    7.5965   21.1033 C   0  0  0  0  0  0  0  0  0  0  0  0
   47.9450    7.4352   22.0640 C   0  0  0  0  0  0  0  0  0  0  0  0
   48.2689   10.5259   20.4024 C   0  0  0  0  0  0  0  0  0  0  0  0
   47.5344   10.7790   17.7060 C   0  0  0  0  0  0  0  0  0  0  0  0
   48.8583    6.1059   18.2533 C   0  0  0  0  0  0  0  0  0  0  0  0
   47.8633   11.7260   19.9436 C   0  0  0  0  0  0  0  0  0  0  0  0
   47.4861   11.8376   18.5368 C   0  0  0  0  0  0  0  0  0  0  0  0
   48.1961    6.7575   23.2587 N   0  0  0  0  0  0  0  0  0  0  0  0
   46.8300    7.8977   21.8121 O   0  0  0  0  0  0  0  0  0  0  0  0
   47.8281    5.2633   17.8278 C   0  0  0  0  0  0  0  0  0  0  0  0
   50.1540    5.5943   18.3819 C   0  0  0  0  0  0  0  0  0  0  0  0
   48.0838    3.9155   17.5597 C   0  0  0  0  0  0  0  0  0  0  0  0
   50.4105    4.2469   18.1091 C   0  0  0  0  0  0  0  0  0  0  0  0
   49.3736    3.3936   17.7128 C   0  0  0  0  0  0  0  0  0  0  0  0
   47.7680   12.9530   20.7950 C   0  0  0  0  0  0  0  0  0  0  0  0
   49.5172    6.4005   23.7563 C   0  0  0  0  0  0  0  0  0  0  0  0
   47.1034    6.6083   24.2065 C   0  0  0  0  0  0  0  0  0  0  0  0
   49.6563    1.9559   17.3913 C   0  0  0  0  0  0  0  0  0  0  0  0
   47.9860    8.1551   19.9754 C   0  0  0  0  0  0  0  0  0  0  0  0
   47.9412    9.5383   19.9530 N   0  0  0  0  0  0  0  0  0  0  0  0
   48.2876    8.8871   17.8363 N   0  0  0  0  0  0  0  0  0  0  0  0
   48.2011    7.7922   18.6563 C   0  0  0  0  0  0  0  0  0  0  0  0
   48.1172    9.9239   18.6257 C   0  0  0  0  0  0  0  0  0  0  0  0
   47.8542    7.3342   21.2178 C   0  0  0  0  0  0  0  0  0  0  0  0
   49.1455    7.3236   22.0408 C   0  0  0  0  0  0  0  0  0  0  0  0
   47.7519   10.4568   20.9883 C   0  0  0  0  0  0  0  0  0  0  0  0
   48.0853   11.3166   18.3370 C   0  0  0  0  0  0  0  0  0  0  0  0
   48.3525    6.4421   18.1603 C   0  0  0  0  0  0  0  0  0  0  0  0
   47.7248   11.7766   20.7178 C   0  0  0  0  0  0  0  0  0  0  0  0
   47.8977   12.2046   19.3319 C   0  0  0  0  0  0  0  0  0  0  0  0
   49.2677    6.3210   23.0052 N   0  0  0  0  0  0  0  0  0  0  0  0
   50.0176    8.1819   21.8893 O   0  0  0  0  0  0  0  0  0  0  0  0
   49.5640    6.0491   17.5867 C   0  0  0  0  0  0  0  0  0  0  0  0
   47.2966    5.5283   18.2318 C   0  0  0  0  0  0  0  0  0  0  0  0
   49.7254    4.7480   17.1052 C   0  0  0  0  0  0  0  0  0  0  0  0
   47.4577    4.2271   17.7486 C   0  0  0  0  0  0  0  0  0  0  0  0
   48.6708    3.8298   17.1742 C   0  0  0  0  0  0  0  0  0  0  0  0
   47.5392   12.8340   21.7596 C   0  0  0  0  0  0  0  0  0  0  0  0
   48.3031    5.2503   23.2012 C   0  0  0  0  0  0  0  0  0  0  0  0
   50.5395    6.1665   23.6939 C   0  0  0  0  0  0  0  0  0  0  0  0
   48.8584    2.4265   16.6790 C   0  0  0  0  0  0  0  0  0  0  0  0
   49.9357    6.1673   18.0576 O   0  0  0  0  0  0  0  0  0  0  0  0
   47.7200    6.0852   17.7588 O   0  0  0  0  0  0  0  0  0  0  0  0
   47.3036    8.2383   22.2942 O   0  0  0  0  0  0  0  0  0  0  0  0
   49.3965    9.0131   22.1875 O   0  0  0  0  0  0  0  0  0  0  0  0
   47.4139    5.9084   20.4987 O   0  0  0  0  0  0  0  0  0  0  0  0
   49.4865    8.8112   19.4928 O   0  0  0  0  0  0  0  0  0  0  0  0
   48.6713    6.2749   18.5054 C   0  0  0  0  0  0  0  0  0  0  0  0
   48.5570    6.6093   19.9832 C   0  0  1  0  0  0  0  0  0  0  0  0
   48.4100    8.1228   20.1520 C   0  0  1  0  0  0  0  0  0  0  0  0
   48.4441    8.4850   21.6294 C   0  0  0  0  0  0  0  0  0  0  0  0
   49.6004    6.6191   20.9739 H   0  0  0  0  0  0  0  0  0  0  0  0
   49.8578    8.2761   21.5541 H   0  0  0  0  0  0  0  0  0  0  0  0
   48.5512   10.3586   21.4332 H   0  0  0  0  0  0  0  0  0  0  0  0
   47.2503   10.8603   16.6629 H   0  0  0  0  0  0  0  0  0  0  0  0
   47.1535   12.8041   18.1678 H   0  0  0  0  0  0  0  0  0  0  0  0
   46.8216    5.6567   17.7049 H   0  0  0  0  0  0  0  0  0  0  0  0
   50.9741    6.2442   18.6771 H   0  0  0  0  0  0  0  0  0  0  0  0
   47.2684    3.2786   17.2250 H   0  0  0  0  0  0  0  0  0  0  0  0
   51.4263    3.8700   18.2016 H   0  0  0  0  0  0  0  0  0  0  0  0
   48.1016   12.7600   21.8210 H   0  0  0  0  0  0  0  0  0  0  0  0
   46.7323   13.3069   20.8421 H   0  0  0  0  0  0  0  0  0  0  0  0
   48.3921   13.7565   20.3871 H   0  0  0  0  0  0  0  0  0  0  0  0
   50.2979    6.4817   22.9992 H   0  0  0  0  0  0  0  0  0  0  0  0
   49.7665    7.0723   24.5842 H   0  0  0  0  0  0  0  0  0  0  0  0
   49.4883    5.3690   24.1209 H   0  0  0  0  0  0  0  0  0  0  0  0
   47.2072    7.3753   24.9799 H   0  0  0  0  0  0  0  0  0  0  0  0
   46.1269    6.7156   23.7265 H   0  0  0  0  0  0  0  0  0  0  0  0
   47.1579    5.6161   24.6651 H   0  0  0  0  0  0  0  0  0  0  0  0
   49.9829    1.8642   16.3522 H   0  0  0  0  0  0  0  0  0  0  0  0
   50.4385    1.5577   18.0455 H   0  0  0  0  0  0  0  0  0  0  0  0
   48.7654    1.3371   17.5384 H   0  0  0  0  0  0  0  0  0  0  0  0
   47.0454    7.7186   21.8481 H   0  0  0  0  0  0  0  0  0  0  0  0
   47.5982    6.3097   20.9361 H   0  0  0  0  0  0  0  0  0  0  0  0
   47.6460   10.0636   21.9910 H   0  0  0  0  0  0  0  0  0  0  0  0
   48.2164   11.6310   17.3078 H   0  0  0  0  0  0  0  0  0  0  0  0
   47.8771   13.2689   19.1137 H   0  0  0  0  0  0  0  0  0  0  0  0
   50.3856    6.7591   17.5157 H   0  0  0  0  0  0  0  0  0  0  0  0
   46.3398    5.8281   18.6502 H   0  0  0  0  0  0  0  0  0  0  0  0
   50.6798    4.4595   16.6704 H   0  0  0  0  0  0  0  0  0  0  0  0
   46.6244    3.5314   17.8107 H   0  0  0  0  0  0  0  0  0  0  0  0
   47.4687   12.4040   22.7635 H   0  0  0  0  0  0  0  0  0  0  0  0
   46.6197   13.3985   21.5749 H   0  0  0  0  0  0  0  0  0  0  0  0
   48.3823   13.5310   21.7549 H   0  0  0  0  0  0  0  0  0  0  0  0
   48.5533    4.4272   22.5266 H   0  0  0  0  0  0  0  0  0  0  0  0
   47.2847    5.5897   23.0000 H   0  0  0  0  0  0  0  0  0  0  0  0
   48.3485    4.9027   24.2370 H   0  0  0  0  0  0  0  0  0  0  0  0
   51.2192    7.0015   23.5116 H   0  0  0  0  0  0  0  0  0  0  0  0
   50.3537    6.0974   24.7696 H   0  0  0  0  0  0  0  0  0  0  0  0
   51.0147    5.2440   23.3457 H   0  0  0  0  0  0  0  0  0  0  0  0
   49.3401    1.8183   17.4504 H   0  0  0  0  0  0  0  0  0  0  0  0
   49.4782    2.4150   15.7764 H   0  0  0  0  0  0  0  0  0  0  0  0
   47.8984    1.9698   16.4190 H   0  0  0  0  0  0  0  0  0  0  0  0
   49.8455    5.9742   17.1010 H   0  0  0  0  0  0  0  0  0  0  0  0
   47.4817    8.5097   23.2190 H   0  0  0  0  0  0  0  0  0  0  0  0
   46.7070    5.9823   19.8254 H   0  0  0  0  0  0  0  0  0  0  0  0
   49.9798    9.3114   20.1787 H   0  0  0  0  0  0  0  0  0  0  0  0
   49.4410    6.2233   20.5031 H   0  0  0  0  0  0  0  0  0  0  0  0
   47.4731    8.4982   19.7265 H   0  0  0  0  0  0  0  0  0  0  0  0
 10  4  1  0
 11  8  2  0
 12 11  1  0
 13  7  1  0
 14  7  2  0
 15 10  2  0
 16 10  1  0
 17 15  1  0
 18 16  2  0
 19 18  1  0
 20 11  1  0
 21 13  1  0
 22 13  1  0
 23 19  1  0
  3  5  2  0
  9 12  2  0
 17 19  2  0
  2  1  1  0
  3  4  1  0
  4  1  2  0
  5  2  1  0
  6  1  1  0
  7  6  1  0
  8  2  1  0
  9  5  1  0
 33 27  1  0
 34 31  2  0
 35 34  1  0
 36 30  1  0
 37 30  2  0
 38 33  2  0
 39 33  1  0
 40 38  1  0
 41 39  2  0
 42 41  1  0
 43 34  1  0
 44 36  1  0
 45 36  1  0
 46 42  1  0
 26 28  2  0
 32 35  2  0
 40 42  2  0
 25 24  1  0
 26 27  1  0
 27 24  2  0
 28 25  1  0
 29 24  1  0
 30 29  1  0
 31 25  1  0
 32 28  1  0
 53 48  2  0
 54 51  1  0
 55 52  1  0
 53 47  1  0
 55 56  1  0
 54 55  1  0
 56 49  1  0
 53 54  1  0
 56 50  2  0
  6 57  1  0
  6 58  1  0
  8 59  1  0
  9 60  1  0
 12 61  1  0
 15 62  1  0
 16 63  1  0
 17 64  1  0
 18 65  1  0
 20 66  1  0
 20 67  1  0
 20 68  1  0
 21 69  1  0
 21 70  1  0
 21 71  1  0
 22 72  1  0
 22 73  1  0
 22 74  1  0
 23 75  1  0
 23 76  1  0
 23 77  1  0
 29 78  1  0
 29 79  1  0
 31 80  1  0
 32 81  1  0
 35 82  1  0
 38 83  1  0
 39 84  1  0
 40 85  1  0
 41 86  1  0
 43 87  1  0
 43 88  1  0
 43 89  1  0
 44 90  1  0
 44 91  1  0
 44 92  1  0
 45 93  1  0
 45 94  1  0
 45 95  1  0
 46 96  1  0
 46 97  1  0
 46 98  1  0
 47 99  1  0
 49100  1  0
 51101  1  0
 52102  1  0
 54103  1  1
 55104  1  6
M  END
> <Uni-Dock RESULT> 
ENERGY=   -6.598  LOWER_BOUND=    2.007  UPPER_BOUND=    6.156
INTER + INTRA:          -6.598
INTER:                  -6.598
INTRA:                   0.000
UNBOUND:                 0.000

$$$$
