
     RDKit          3D

104107  0  0  0  0  0  0  0  0999 V2000
   49.1302   10.1775   16.1738 C   0  0  0  0  0  0  0  0  0  0  0  0
   48.8865   10.2127   14.8126 N   0  0  0  0  0  0  0  0  0  0  0  0
   47.4755    8.6943   15.6654 N   0  0  0  0  0  0  0  0  0  0  0  0
   48.1984    9.2816   16.6739 C   0  0  0  0  0  0  0  0  0  0  0  0
   47.8858    9.2781   14.5614 C   0  0  0  0  0  0  0  0  0  0  0  0
   50.2155   10.9579   16.8429 C   0  0  0  0  0  0  0  0  0  0  0  0
   49.8253   12.4184   17.0724 C   0  0  0  0  0  0  0  0  0  0  0  0
   49.4835   10.9755   13.8061 C   0  0  0  0  0  0  0  0  0  0  0  0
   47.4822    9.1003   13.2100 C   0  0  0  0  0  0  0  0  0  0  0  0
   48.0148    8.9274   18.0675 C   0  0  0  0  0  0  0  0  0  0  0  0
   49.0965   10.8155   12.5256 C   0  0  0  0  0  0  0  0  0  0  0  0
   48.0579    9.8291   12.2354 C   0  0  0  0  0  0  0  0  0  0  0  0
   50.7081   13.1885   17.8350 N   0  0  0  0  0  0  0  0  0  0  0  0
   48.7994   12.9028   16.5903 O   0  0  0  0  0  0  0  0  0  0  0  0
   47.9719    7.5805   18.4397 C   0  0  0  0  0  0  0  0  0  0  0  0
   47.8501    9.9120   19.0485 C   0  0  0  0  0  0  0  0  0  0  0  0
   47.8066    7.2214   19.7801 C   0  0  0  0  0  0  0  0  0  0  0  0
   47.6840    9.5543   20.3891 C   0  0  0  0  0  0  0  0  0  0  0  0
   47.6790    8.2065   20.7668 C   0  0  0  0  0  0  0  0  0  0  0  0
   49.6609   11.5988   11.3823 C   0  0  0  0  0  0  0  0  0  0  0  0
   50.3034   14.5394   18.1920 C   0  0  0  0  0  0  0  0  0  0  0  0
   51.8125   12.6294   18.6012 C   0  0  0  0  0  0  0  0  0  0  0  0
   47.4680    7.8227   22.2008 C   0  0  0  0  0  0  0  0  0  0  0  0
   48.7467   10.1399   16.2641 C   0  0  0  0  0  0  0  0  0  0  0  0
   48.9958    9.5497   15.0349 N   0  0  0  0  0  0  0  0  0  0  0  0
   48.6812    7.8708   16.4867 N   0  0  0  0  0  0  0  0  0  0  0  0
   48.5438    9.0760   17.1286 C   0  0  0  0  0  0  0  0  0  0  0  0
   48.9423    8.1724   15.2338 C   0  0  0  0  0  0  0  0  0  0  0  0
   48.7442   11.6183   16.4930 C   0  0  0  0  0  0  0  0  0  0  0  0
   50.1531   12.2187   16.4586 C   0  0  0  0  0  0  0  0  0  0  0  0
   49.2492   10.1262   13.7864 C   0  0  0  0  0  0  0  0  0  0  0  0
   49.1680    7.3389   14.1028 C   0  0  0  0  0  0  0  0  0  0  0  0
   48.2499    9.1659   18.5441 C   0  0  0  0  0  0  0  0  0  0  0  0
   49.4574    9.3398   12.7119 C   0  0  0  0  0  0  0  0  0  0  0  0
   49.4114    7.8907   12.8982 C   0  0  0  0  0  0  0  0  0  0  0  0
   50.2833   13.5376   16.8997 N   0  0  0  0  0  0  0  0  0  0  0  0
   51.1195   11.5887   16.0261 O   0  0  0  0  0  0  0  0  0  0  0  0
   47.0915    9.8029   19.0022 C   0  0  0  0  0  0  0  0  0  0  0  0
   49.1256    8.5884   19.4683 C   0  0  0  0  0  0  0  0  0  0  0  0
   46.8211    9.8774   20.3713 C   0  0  0  0  0  0  0  0  0  0  0  0
   48.8570    8.6671   20.8379 C   0  0  0  0  0  0  0  0  0  0  0  0
   47.6982    9.3033   21.2989 C   0  0  0  0  0  0  0  0  0  0  0  0
   49.7492    9.8637   11.3402 C   0  0  0  0  0  0  0  0  0  0  0  0
   51.6189   14.1028   17.0159 C   0  0  0  0  0  0  0  0  0  0  0  0
   49.2092   14.3143   17.4997 C   0  0  0  0  0  0  0  0  0  0  0  0
   47.4220    9.4082   22.7698 C   0  0  0  0  0  0  0  0  0  0  0  0
   50.7300   11.3055   15.1595 O   0  0  0  0  0  0  0  0  0  0  0  0
   48.5287   11.6244   14.9285 O   0  0  0  0  0  0  0  0  0  0  0  0
   48.4825    8.7075   16.3061 O   0  0  0  0  0  0  0  0  0  0  0  0
   47.9736    8.3701   18.4529 O   0  0  0  0  0  0  0  0  0  0  0  0
   50.6226   10.6480   17.7102 O   0  0  0  0  0  0  0  0  0  0  0  0
   47.9492   11.0438   19.0518 O   0  0  0  0  0  0  0  0  0  0  0  0
   49.4778   11.4179   15.6653 C   0  0  0  0  0  0  0  0  0  0  0  0
   49.4713   11.3208   17.1886 C   0  0  1  0  0  0  0  0  0  0  0  0
   48.1763   10.6726   17.6783 C   0  0  1  0  0  0  0  0  0  0  0  0
   48.2184    9.1558   17.5467 C   0  0  0  0  0  0  0  0  0  0  0  0
   51.1251   10.9320   16.2322 H   0  0  0  0  0  0  0  0  0  0  0  0
   50.4470   10.4893   17.8049 H   0  0  0  0  0  0  0  0  0  0  0  0
   50.2382   11.6905   14.1055 H   0  0  0  0  0  0  0  0  0  0  0  0
   46.7072    8.3740   12.9963 H   0  0  0  0  0  0  0  0  0  0  0  0
   47.7487    9.6946   11.2031 H   0  0  0  0  0  0  0  0  0  0  0  0
   48.0639    6.8054   17.6820 H   0  0  0  0  0  0  0  0  0  0  0  0
   47.8222   10.9638   18.7731 H   0  0  0  0  0  0  0  0  0  0  0  0
   47.7725    6.1672   20.0451 H   0  0  0  0  0  0  0  0  0  0  0  0
   47.5458   10.3356   21.1337 H   0  0  0  0  0  0  0  0  0  0  0  0
   48.8727   12.1702   10.8807 H   0  0  0  0  0  0  0  0  0  0  0  0
   50.1256   10.9316   10.6487 H   0  0  0  0  0  0  0  0  0  0  0  0
   50.4256   12.3093   11.7146 H   0  0  0  0  0  0  0  0  0  0  0  0
   51.1831   15.1890   18.1853 H   0  0  0  0  0  0  0  0  0  0  0  0
   49.5671   14.9436   17.4925 H   0  0  0  0  0  0  0  0  0  0  0  0
   49.8688   14.5181   19.1955 H   0  0  0  0  0  0  0  0  0  0  0  0
   52.5819   13.3936   18.7404 H   0  0  0  0  0  0  0  0  0  0  0  0
   51.4304   12.3064   19.5740 H   0  0  0  0  0  0  0  0  0  0  0  0
   52.2654   11.7779   18.0892 H   0  0  0  0  0  0  0  0  0  0  0  0
   46.3973    7.7577   22.4187 H   0  0  0  0  0  0  0  0  0  0  0  0
   47.9233    8.5592   22.8711 H   0  0  0  0  0  0  0  0  0  0  0  0
   47.9327    6.8557   22.4207 H   0  0  0  0  0  0  0  0  0  0  0  0
   48.3009   11.8294   17.4698 H   0  0  0  0  0  0  0  0  0  0  0  0
   48.1330   12.1122   15.7292 H   0  0  0  0  0  0  0  0  0  0  0  0
   49.2805   11.2065   13.7350 H   0  0  0  0  0  0  0  0  0  0  0  0
   49.1384    6.2644   14.2424 H   0  0  0  0  0  0  0  0  0  0  0  0
   49.5861    7.2531   12.0356 H   0  0  0  0  0  0  0  0  0  0  0  0
   46.3839   10.2268   18.2949 H   0  0  0  0  0  0  0  0  0  0  0  0
   50.0206    8.0751   19.1223 H   0  0  0  0  0  0  0  0  0  0  0  0
   45.9156   10.3766   20.7087 H   0  0  0  0  0  0  0  0  0  0  0  0
   49.5580    8.2219   21.5404 H   0  0  0  0  0  0  0  0  0  0  0  0
   50.7217    9.5032   10.9883 H   0  0  0  0  0  0  0  0  0  0  0  0
   49.7747   10.9586   11.3206 H   0  0  0  0  0  0  0  0  0  0  0  0
   48.9806    9.5360   10.6319 H   0  0  0  0  0  0  0  0  0  0  0  0
   51.6230   15.0996   16.5626 H   0  0  0  0  0  0  0  0  0  0  0  0
   51.8723   14.1848   18.0781 H   0  0  0  0  0  0  0  0  0  0  0  0
   52.3763   13.4893   16.5185 H   0  0  0  0  0  0  0  0  0  0  0  0
   49.2291   14.1569   18.5825 H   0  0  0  0  0  0  0  0  0  0  0  0
   48.2305   14.0256   17.1092 H   0  0  0  0  0  0  0  0  0  0  0  0
   49.3642   15.3765   17.2810 H   0  0  0  0  0  0  0  0  0  0  0  0
   47.8507   10.3330   23.1682 H   0  0  0  0  0  0  0  0  0  0  0  0
   46.3443    9.4048   22.9650 H   0  0  0  0  0  0  0  0  0  0  0  0
   47.8503    8.5582   23.3096 H   0  0  0  0  0  0  0  0  0  0  0  0
   50.5992   11.3792   14.1896 H   0  0  0  0  0  0  0  0  0  0  0  0
   48.4531    7.7298   16.3933 H   0  0  0  0  0  0  0  0  0  0  0  0
   51.3730   10.9460   17.1592 H   0  0  0  0  0  0  0  0  0  0  0  0
   47.7956   10.2095   19.5439 H   0  0  0  0  0  0  0  0  0  0  0  0
   49.5281   12.3502   17.5621 H   0  0  0  0  0  0  0  0  0  0  0  0
   47.3019   11.0296   17.1245 H   0  0  0  0  0  0  0  0  0  0  0  0
 10  4  1  0
 11  8  2  0
 12 11  1  0
 13  7  1  0
 14  7  2  0
 15 10  2  0
 16 10  1  0
 17 15  1  0
 18 16  2  0
 19 18  1  0
 20 11  1  0
 21 13  1  0
 22 13  1  0
 23 19  1  0
  3  5  2  0
  9 12  2  0
 17 19  2  0
  2  1  1  0
  3  4  1  0
  4  1  2  0
  5  2  1  0
  6  1  1  0
  7  6  1  0
  8  2  1  0
  9  5  1  0
 33 27  1  0
 34 31  2  0
 35 34  1  0
 36 30  1  0
 37 30  2  0
 38 33  2  0
 39 33  1  0
 40 38  1  0
 41 39  2  0
 42 41  1  0
 43 34  1  0
 44 36  1  0
 45 36  1  0
 46 42  1  0
 26 28  2  0
 32 35  2  0
 40 42  2  0
 25 24  1  0
 26 27  1  0
 27 24  2  0
 28 25  1  0
 29 24  1  0
 30 29  1  0
 31 25  1  0
 32 28  1  0
 53 48  2  0
 54 51  1  0
 55 52  1  0
 53 47  1  0
 55 56  1  0
 54 55  1  0
 56 49  1  0
 53 54  1  0
 56 50  2  0
  6 57  1  0
  6 58  1  0
  8 59  1  0
  9 60  1  0
 12 61  1  0
 15 62  1  0
 16 63  1  0
 17 64  1  0
 18 65  1  0
 20 66  1  0
 20 67  1  0
 20 68  1  0
 21 69  1  0
 21 70  1  0
 21 71  1  0
 22 72  1  0
 22 73  1  0
 22 74  1  0
 23 75  1  0
 23 76  1  0
 23 77  1  0
 29 78  1  0
 29 79  1  0
 31 80  1  0
 32 81  1  0
 35 82  1  0
 38 83  1  0
 39 84  1  0
 40 85  1  0
 41 86  1  0
 43 87  1  0
 43 88  1  0
 43 89  1  0
 44 90  1  0
 44 91  1  0
 44 92  1  0
 45 93  1  0
 45 94  1  0
 45 95  1  0
 46 96  1  0
 46 97  1  0
 46 98  1  0
 47 99  1  0
 49100  1  0
 51101  1  0
 52102  1  0
 54103  1  6
 55104  1  6
M  END
> <Uni-Dock RESULT> 
ENERGY=   -6.071  LOWER_BOUND=    0.000  UPPER_BOUND=    0.000
INTER + INTRA:          -6.071
INTER:                  -6.071
INTRA:                   0.000
UNBOUND:                 0.000

$$$$

     RDKit          3D

104107  0  0  0  0  0  0  0  0999 V2000
   48.7168    9.2450   16.5453 C   0  0  0  0  0  0  0  0  0  0  0  0
   48.9874   10.5570   16.8903 N   0  0  0  0  0  0  0  0  0  0  0  0
   49.1583    9.3616   18.7786 N   0  0  0  0  0  0  0  0  0  0  0  0
   48.8967    8.5295   17.7185 C   0  0  0  0  0  0  0  0  0  0  0  0
   49.2293   10.5679   18.2612 C   0  0  0  0  0  0  0  0  0  0  0  0
   48.2972    8.8169   15.1759 C   0  0  0  0  0  0  0  0  0  0  0  0
   49.4807    8.6991   14.2150 C   0  0  0  0  0  0  0  0  0  0  0  0
   49.0140   11.7120   16.1050 C   0  0  0  0  0  0  0  0  0  0  0  0
   49.4982   11.8254   18.8672 C   0  0  0  0  0  0  0  0  0  0  0  0
   48.7721    7.0934   17.8721 C   0  0  0  0  0  0  0  0  0  0  0  0
   49.2775   12.9038   16.6753 C   0  0  0  0  0  0  0  0  0  0  0  0
   49.5200   12.9424   18.1159 C   0  0  0  0  0  0  0  0  0  0  0  0
   49.2124    8.1506   12.9575 N   0  0  0  0  0  0  0  0  0  0  0  0
   50.6094    9.0899   14.5195 O   0  0  0  0  0  0  0  0  0  0  0  0
   47.9774    6.5732   18.8979 C   0  0  0  0  0  0  0  0  0  0  0  0
   49.4581    6.2133   17.0272 C   0  0  0  0  0  0  0  0  0  0  0  0
   47.8375    5.1915   19.0535 C   0  0  0  0  0  0  0  0  0  0  0  0
   49.3196    4.8315   17.1821 C   0  0  0  0  0  0  0  0  0  0  0  0
   48.4939    4.3108   18.1854 C   0  0  0  0  0  0  0  0  0  0  0  0
   49.3481   14.1913   15.9160 C   0  0  0  0  0  0  0  0  0  0  0  0
   50.3359    7.8933   12.0702 C   0  0  0  0  0  0  0  0  0  0  0  0
   47.9644    7.4823   12.6177 C   0  0  0  0  0  0  0  0  0  0  0  0
   48.3717    2.8280   18.3717 C   0  0  0  0  0  0  0  0  0  0  0  0
   48.9956    9.1007   16.7862 C   0  0  0  0  0  0  0  0  0  0  0  0
   48.4907   10.2798   17.3117 N   0  0  0  0  0  0  0  0  0  0  0  0
   47.6678    8.6234   18.5785 N   0  0  0  0  0  0  0  0  0  0  0  0
   48.4791    8.1052   17.6004 C   0  0  0  0  0  0  0  0  0  0  0  0
   47.6932    9.9255   18.3970 C   0  0  0  0  0  0  0  0  0  0  0  0
   49.8813    9.0373   15.5823 C   0  0  0  0  0  0  0  0  0  0  0  0
   49.1242    9.3255   14.2822 C   0  0  0  0  0  0  0  0  0  0  0  0
   48.6882   11.6067   16.9171 C   0  0  0  0  0  0  0  0  0  0  0  0
   47.0561   10.9781   19.1118 C   0  0  0  0  0  0  0  0  0  0  0  0
   48.7097    6.6817   17.4649 C   0  0  0  0  0  0  0  0  0  0  0  0
   48.0911   12.6065   17.5955 C   0  0  0  0  0  0  0  0  0  0  0  0
   47.2448   12.2577   18.7352 C   0  0  0  0  0  0  0  0  0  0  0  0
   49.7994    9.0533   13.0901 N   0  0  0  0  0  0  0  0  0  0  0  0
   47.9920    9.8116   14.2815 O   0  0  0  0  0  0  0  0  0  0  0  0
   49.9978    6.1455   17.5691 C   0  0  0  0  0  0  0  0  0  0  0  0
   47.6263    5.8251   17.2481 C   0  0  0  0  0  0  0  0  0  0  0  0
   50.2023    4.7691   17.4397 C   0  0  0  0  0  0  0  0  0  0  0  0
   47.8319    4.4489   17.1143 C   0  0  0  0  0  0  0  0  0  0  0  0
   49.1196    3.9097   17.2188 C   0  0  0  0  0  0  0  0  0  0  0  0
   48.2313   14.0541   17.2404 C   0  0  0  0  0  0  0  0  0  0  0  0
   49.0731    9.1796   11.8357 C   0  0  0  0  0  0  0  0  0  0  0  0
   51.0990    8.4041   13.0104 C   0  0  0  0  0  0  0  0  0  0  0  0
   49.3429    2.4356   17.0517 C   0  0  0  0  0  0  0  0  0  0  0  0
   48.1663   10.5819   14.8808 O   0  0  0  0  0  0  0  0  0  0  0  0
   50.1202   10.5500   15.9679 O   0  0  0  0  0  0  0  0  0  0  0  0
   48.3388    8.8667   18.0658 O   0  0  0  0  0  0  0  0  0  0  0  0
   48.4525    6.6471   18.2715 O   0  0  0  0  0  0  0  0  0  0  0  0
   47.7507    7.9831   15.0342 O   0  0  0  0  0  0  0  0  0  0  0  0
   50.0628    6.3477   16.0748 O   0  0  0  0  0  0  0  0  0  0  0  0
   49.2102    9.9286   15.4465 C   0  0  0  0  0  0  0  0  0  0  0  0
   49.0947    8.4167   15.2708 C   0  0  1  0  0  0  0  0  0  0  0  0
   49.7137    7.6900   16.4647 C   0  0  1  0  0  0  0  0  0  0  0  0
   48.7692    7.6587   17.6592 C   0  0  0  0  0  0  0  0  0  0  0  0
   47.5825    9.5372   14.7618 H   0  0  0  0  0  0  0  0  0  0  0  0
   47.7907    7.8489   15.2472 H   0  0  0  0  0  0  0  0  0  0  0  0
   48.8331   11.5965   15.0446 H   0  0  0  0  0  0  0  0  0  0  0  0
   49.6848   11.8525   19.9341 H   0  0  0  0  0  0  0  0  0  0  0  0
   49.7268   13.9030   18.5783 H   0  0  0  0  0  0  0  0  0  0  0  0
   47.4668    7.2466   19.5829 H   0  0  0  0  0  0  0  0  0  0  0  0
   50.1269    6.5964   16.2598 H   0  0  0  0  0  0  0  0  0  0  0  0
   47.2169    4.8101   19.8612 H   0  0  0  0  0  0  0  0  0  0  0  0
   49.8712    4.1654   16.5219 H   0  0  0  0  0  0  0  0  0  0  0  0
   50.3410   14.6427   16.0149 H   0  0  0  0  0  0  0  0  0  0  0  0
   48.6050   14.9027   16.2916 H   0  0  0  0  0  0  0  0  0  0  0  0
   49.1552   14.0444   14.8477 H   0  0  0  0  0  0  0  0  0  0  0  0
   50.0286    8.0889   11.0391 H   0  0  0  0  0  0  0  0  0  0  0  0
   51.1946    8.5281   12.3036 H   0  0  0  0  0  0  0  0  0  0  0  0
   50.6281    6.8444   12.1748 H   0  0  0  0  0  0  0  0  0  0  0  0
   47.8081    7.5321   11.5368 H   0  0  0  0  0  0  0  0  0  0  0  0
   48.0338    6.4375   12.9347 H   0  0  0  0  0  0  0  0  0  0  0  0
   47.1104    7.9536   13.1084 H   0  0  0  0  0  0  0  0  0  0  0  0
   49.1756    2.4631   19.0187 H   0  0  0  0  0  0  0  0  0  0  0  0
   48.4270    2.3096   17.4088 H   0  0  0  0  0  0  0  0  0  0  0  0
   47.4087    2.5674   18.8235 H   0  0  0  0  0  0  0  0  0  0  0  0
   50.3219    8.0392   15.5132 H   0  0  0  0  0  0  0  0  0  0  0  0
   50.6972    9.7621   15.6819 H   0  0  0  0  0  0  0  0  0  0  0  0
   49.3180   11.7802   16.0545 H   0  0  0  0  0  0  0  0  0  0  0  0
   46.4249   10.7187   19.9539 H   0  0  0  0  0  0  0  0  0  0  0  0
   46.7557   13.0606   19.2803 H   0  0  0  0  0  0  0  0  0  0  0  0
   50.8459    6.7940   17.7714 H   0  0  0  0  0  0  0  0  0  0  0  0
   46.6180    6.2293   17.1829 H   0  0  0  0  0  0  0  0  0  0  0  0
   51.2107    4.3705   17.5236 H   0  0  0  0  0  0  0  0  0  0  0  0
   46.9764    3.8018   16.9335 H   0  0  0  0  0  0  0  0  0  0  0  0
   47.2539   14.4911   17.0099 H   0  0  0  0  0  0  0  0  0  0  0  0
   48.8732   14.1970   16.3645 H   0  0  0  0  0  0  0  0  0  0  0  0
   48.6739   14.6128   18.0721 H   0  0  0  0  0  0  0  0  0  0  0  0
   49.6905    9.7361   11.1228 H   0  0  0  0  0  0  0  0  0  0  0  0
   48.8777    8.1764   11.4427 H   0  0  0  0  0  0  0  0  0  0  0  0
   48.1200    9.7034   11.9564 H   0  0  0  0  0  0  0  0  0  0  0  0
   50.9439    7.3230   12.9408 H   0  0  0  0  0  0  0  0  0  0  0  0
   51.7194    8.6260   13.8820 H   0  0  0  0  0  0  0  0  0  0  0  0
   51.6262    8.7569   12.1173 H   0  0  0  0  0  0  0  0  0  0  0  0
   49.5442    2.2021   16.0016 H   0  0  0  0  0  0  0  0  0  0  0  0
   50.1906    2.0989   17.6580 H   0  0  0  0  0  0  0  0  0  0  0  0
   48.4666    1.8679   17.3789 H   0  0  0  0  0  0  0  0  0  0  0  0
   48.3543   11.5277   15.0630 H   0  0  0  0  0  0  0  0  0  0  0  0
   47.7680    8.6695   18.8401 H   0  0  0  0  0  0  0  0  0  0  0  0
   47.3559    8.6589   14.4485 H   0  0  0  0  0  0  0  0  0  0  0  0
   49.6610    5.7509   16.7412 H   0  0  0  0  0  0  0  0  0  0  0  0
   49.6560    8.1696   14.3619 H   0  0  0  0  0  0  0  0  0  0  0  0
   50.6478    8.1577   16.7925 H   0  0  0  0  0  0  0  0  0  0  0  0
 10  4  1  0
 11  8  2  0
 12 11  1  0
 13  7  1  0
 14  7  2  0
 15 10  2  0
 16 10  1  0
 17 15  1  0
 18 16  2  0
 19 18  1  0
 20 11  1  0
 21 13  1  0
 22 13  1  0
 23 19  1  0
  3  5  2  0
  9 12  2  0
 17 19  2  0
  2  1  1  0
  3  4  1  0
  4  1  2  0
  5  2  1  0
  6  1  1  0
  7  6  1  0
  8  2  1  0
  9  5  1  0
 33 27  1  0
 34 31  2  0
 35 34  1  0
 36 30  1  0
 37 30  2  0
 38 33  2  0
 39 33  1  0
 40 38  1  0
 41 39  2  0
 42 41  1  0
 43 34  1  0
 44 36  1  0
 45 36  1  0
 46 42  1  0
 26 28  2  0
 32 35  2  0
 40 42  2  0
 25 24  1  0
 26 27  1  0
 27 24  2  0
 28 25  1  0
 29 24  1  0
 30 29  1  0
 31 25  1  0
 32 28  1  0
 53 48  2  0
 54 51  1  0
 55 52  1  0
 53 47  1  0
 55 56  1  0
 54 55  1  0
 56 49  1  0
 53 54  1  0
 56 50  2  0
  6 57  1  0
  6 58  1  0
  8 59  1  0
  9 60  1  0
 12 61  1  0
 15 62  1  0
 16 63  1  0
 17 64  1  0
 18 65  1  0
 20 66  1  0
 20 67  1  0
 20 68  1  0
 21 69  1  0
 21 70  1  0
 21 71  1  0
 22 72  1  0
 22 73  1  0
 22 74  1  0
 23 75  1  0
 23 76  1  0
 23 77  1  0
 29 78  1  0
 29 79  1  0
 31 80  1  0
 32 81  1  0
 35 82  1  0
 38 83  1  0
 39 84  1  0
 40 85  1  0
 41 86  1  0
 43 87  1  0
 43 88  1  0
 43 89  1  0
 44 90  1  0
 44 91  1  0
 44 92  1  0
 45 93  1  0
 45 94  1  0
 45 95  1  0
 46 96  1  0
 46 97  1  0
 46 98  1  0
 47 99  1  0
 49100  1  0
 51101  1  0
 52102  1  0
 54103  1  6
 55104  1  6
M  END
> <Uni-Dock RESULT> 
ENERGY=   -5.681  LOWER_BOUND=    2.087  UPPER_BOUND=    4.935
INTER + INTRA:          -5.681
INTER:                  -5.681
INTRA:                   0.000
UNBOUND:                 0.000

$$$$

     RDKit          3D

104107  0  0  0  0  0  0  0  0999 V2000
   48.6855    8.6531   18.1705 C   0  0  0  0  0  0  0  0  0  0  0  0
   48.0378    9.0408   19.3297 N   0  0  0  0  0  0  0  0  0  0  0  0
   47.5090   10.5648   17.7736 N   0  0  0  0  0  0  0  0  0  0  0  0
   48.2834    9.5765   17.2184 C   0  0  0  0  0  0  0  0  0  0  0  0
   47.3554   10.2171   19.0319 C   0  0  0  0  0  0  0  0  0  0  0  0
   49.6207    7.4895   18.0920 C   0  0  0  0  0  0  0  0  0  0  0  0
   48.8816    6.1555   17.9822 C   0  0  0  0  0  0  0  0  0  0  0  0
   48.0255    8.4558   20.5982 C   0  0  0  0  0  0  0  0  0  0  0  0
   46.6338   10.8389   20.0872 C   0  0  0  0  0  0  0  0  0  0  0  0
   48.6574    9.5790   15.8179 C   0  0  0  0  0  0  0  0  0  0  0  0
   47.3352    9.0382   21.5978 C   0  0  0  0  0  0  0  0  0  0  0  0
   46.6230   10.2822   21.3129 C   0  0  0  0  0  0  0  0  0  0  0  0
   49.6668    5.0243   17.7415 N   0  0  0  0  0  0  0  0  0  0  0  0
   47.6599    6.0732   18.1235 O   0  0  0  0  0  0  0  0  0  0  0  0
   49.1563   10.7484   15.2366 C   0  0  0  0  0  0  0  0  0  0  0  0
   48.5012    8.4360   15.0254 C   0  0  0  0  0  0  0  0  0  0  0  0
   49.5319   10.7654   13.8906 C   0  0  0  0  0  0  0  0  0  0  0  0
   48.8757    8.4517   13.6792 C   0  0  0  0  0  0  0  0  0  0  0  0
   49.4107    9.6117   13.1068 C   0  0  0  0  0  0  0  0  0  0  0  0
   47.2452    8.4782   22.9825 C   0  0  0  0  0  0  0  0  0  0  0  0
   48.9883    3.7620   17.4915 C   0  0  0  0  0  0  0  0  0  0  0  0
   51.0699    5.0820   17.3573 C   0  0  0  0  0  0  0  0  0  0  0  0
   49.7817    9.6375   11.6542 C   0  0  0  0  0  0  0  0  0  0  0  0
   48.3805    8.7545   17.9396 C   0  0  0  0  0  0  0  0  0  0  0  0
   48.4126    9.5753   19.0561 N   0  0  0  0  0  0  0  0  0  0  0  0
   49.1029   10.8311   17.3322 N   0  0  0  0  0  0  0  0  0  0  0  0
   48.7978    9.5659   16.8965 C   0  0  0  0  0  0  0  0  0  0  0  0
   48.8583   10.8219   18.6241 C   0  0  0  0  0  0  0  0  0  0  0  0
   47.9840    7.3126   17.9770 C   0  0  0  0  0  0  0  0  0  0  0  0
   49.0505    6.4286   18.6310 C   0  0  0  0  0  0  0  0  0  0  0  0
   48.0759    9.3100   20.3871 C   0  0  0  0  0  0  0  0  0  0  0  0
   48.9758   11.8494   19.6015 C   0  0  0  0  0  0  0  0  0  0  0  0
   48.9399    9.1736   15.5095 C   0  0  0  0  0  0  0  0  0  0  0  0
   48.1803   10.2825   21.3144 C   0  0  0  0  0  0  0  0  0  0  0  0
   48.6514   11.5978   20.8846 C   0  0  0  0  0  0  0  0  0  0  0  0
   48.8884    5.0477   18.4970 N   0  0  0  0  0  0  0  0  0  0  0  0
   49.9840    6.9049   19.2789 O   0  0  0  0  0  0  0  0  0  0  0  0
   47.8397    8.7291   14.7682 C   0  0  0  0  0  0  0  0  0  0  0  0
   50.1917    9.2602   14.8931 C   0  0  0  0  0  0  0  0  0  0  0  0
   47.9935    8.3579   13.4297 C   0  0  0  0  0  0  0  0  0  0  0  0
   50.3460    8.8846   13.5555 C   0  0  0  0  0  0  0  0  0  0  0  0
   49.2466    8.4402   12.8113 C   0  0  0  0  0  0  0  0  0  0  0  0
   47.8569   10.0901   22.7634 C   0  0  0  0  0  0  0  0  0  0  0  0
   49.9465    4.1737   18.9804 C   0  0  0  0  0  0  0  0  0  0  0  0
   47.8636    4.4150   17.6808 C   0  0  0  0  0  0  0  0  0  0  0  0
   49.4169    8.0149   11.3827 C   0  0  0  0  0  0  0  0  0  0  0  0
   49.4570    7.4926   19.8789 O   0  0  0  0  0  0  0  0  0  0  0  0
   47.3084    7.7750   19.3274 O   0  0  0  0  0  0  0  0  0  0  0  0
   48.6061   10.1442   17.5636 O   0  0  0  0  0  0  0  0  0  0  0  0
   48.9138   10.0067   15.3572 O   0  0  0  0  0  0  0  0  0  0  0  0
   50.3499    7.4519   17.3987 O   0  0  0  0  0  0  0  0  0  0  0  0
   48.2355    7.3541   15.2485 O   0  0  0  0  0  0  0  0  0  0  0  0
   48.4520    7.5478   18.9715 C   0  0  0  0  0  0  0  0  0  0  0  0
   48.9441    7.2336   17.5611 C   0  0  1  0  0  0  0  0  0  0  0  0
   48.1347    8.0139   16.5254 C   0  0  1  0  0  0  0  0  0  0  0  0
   48.6088    9.4565   16.4073 C   0  0  0  0  0  0  0  0  0  0  0  0
   50.2586    7.4622   18.9828 H   0  0  0  0  0  0  0  0  0  0  0  0
   50.2711    7.6162   17.2205 H   0  0  0  0  0  0  0  0  0  0  0  0
   48.5708    7.5299   20.7240 H   0  0  0  0  0  0  0  0  0  0  0  0
   46.1003   11.7573   19.8737 H   0  0  0  0  0  0  0  0  0  0  0  0
   46.0707   10.7562   22.1189 H   0  0  0  0  0  0  0  0  0  0  0  0
   49.2500   11.6533   15.8331 H   0  0  0  0  0  0  0  0  0  0  0  0
   48.0611    7.5331   15.4427 H   0  0  0  0  0  0  0  0  0  0  0  0
   49.9139   11.6879   13.4594 H   0  0  0  0  0  0  0  0  0  0  0  0
   48.7346    7.5556   13.0785 H   0  0  0  0  0  0  0  0  0  0  0  0
   46.2037    8.2638   23.2443 H   0  0  0  0  0  0  0  0  0  0  0  0
   47.6472    9.1879   23.7133 H   0  0  0  0  0  0  0  0  0  0  0  0
   47.8110    7.5454   23.0813 H   0  0  0  0  0  0  0  0  0  0  0  0
   49.5725    2.9494   17.9324 H   0  0  0  0  0  0  0  0  0  0  0  0
   47.9852    3.7444   17.9253 H   0  0  0  0  0  0  0  0  0  0  0  0
   48.9126    3.6166   16.4101 H   0  0  0  0  0  0  0  0  0  0  0  0
   51.5636    4.1494   17.6432 H   0  0  0  0  0  0  0  0  0  0  0  0
   51.1265    5.2144   16.2729 H   0  0  0  0  0  0  0  0  0  0  0  0
   51.5871    5.9076   17.8504 H   0  0  0  0  0  0  0  0  0  0  0  0
   48.9071    9.8924   11.0474 H   0  0  0  0  0  0  0  0  0  0  0  0
   50.1651    8.6630   11.3338 H   0  0  0  0  0  0  0  0  0  0  0  0
   50.5705   10.3729   11.4637 H   0  0  0  0  0  0  0  0  0  0  0  0
   47.8192    6.9592   16.9557 H   0  0  0  0  0  0  0  0  0  0  0  0
   47.0453    7.1989   18.5309 H   0  0  0  0  0  0  0  0  0  0  0  0
   47.7488    8.3067   20.6265 H   0  0  0  0  0  0  0  0  0  0  0  0
   49.3296   12.8232   19.2832 H   0  0  0  0  0  0  0  0  0  0  0  0
   48.7440   12.3825   21.6307 H   0  0  0  0  0  0  0  0  0  0  0  0
   46.8537    8.6884   15.2231 H   0  0  0  0  0  0  0  0  0  0  0  0
   51.0509    9.6213   15.4550 H   0  0  0  0  0  0  0  0  0  0  0  0
   47.1267    8.0148   12.8695 H   0  0  0  0  0  0  0  0  0  0  0  0
   51.3313    8.9479   13.0989 H   0  0  0  0  0  0  0  0  0  0  0  0
   48.7358   10.2916   23.3849 H   0  0  0  0  0  0  0  0  0  0  0  0
   47.5297    9.0661   22.9739 H   0  0  0  0  0  0  0  0  0  0  0  0
   47.0519   10.7664   23.0707 H   0  0  0  0  0  0  0  0  0  0  0  0
   49.4978    3.3623   19.5629 H   0  0  0  0  0  0  0  0  0  0  0  0
   50.4743    3.7540   18.1177 H   0  0  0  0  0  0  0  0  0  0  0  0
   50.6669    4.7012   19.6129 H   0  0  0  0  0  0  0  0  0  0  0  0
   48.2633    4.2685   16.6726 H   0  0  0  0  0  0  0  0  0  0  0  0
   46.9552    5.0197   17.6265 H   0  0  0  0  0  0  0  0  0  0  0  0
   47.6020    3.4441   18.1159 H   0  0  0  0  0  0  0  0  0  0  0  0
   49.6337    6.9433   11.3324 H   0  0  0  0  0  0  0  0  0  0  0  0
   48.5097    8.2200   10.8044 H   0  0  0  0  0  0  0  0  0  0  0  0
   50.2344    8.5642   10.9060 H   0  0  0  0  0  0  0  0  0  0  0  0
   49.0188    7.7133   20.7288 H   0  0  0  0  0  0  0  0  0  0  0  0
   48.9137   11.0415   17.3094 H   0  0  0  0  0  0  0  0  0  0  0  0
   50.7614    7.1435   18.2301 H   0  0  0  0  0  0  0  0  0  0  0  0
   48.5107    8.0386   14.6024 H   0  0  0  0  0  0  0  0  0  0  0  0
   48.7864    6.1586   17.4133 H   0  0  0  0  0  0  0  0  0  0  0  0
   47.0670    8.0341   16.7670 H   0  0  0  0  0  0  0  0  0  0  0  0
 10  4  1  0
 11  8  2  0
 12 11  1  0
 13  7  1  0
 14  7  2  0
 15 10  2  0
 16 10  1  0
 17 15  1  0
 18 16  2  0
 19 18  1  0
 20 11  1  0
 21 13  1  0
 22 13  1  0
 23 19  1  0
  3  5  2  0
  9 12  2  0
 17 19  2  0
  2  1  1  0
  3  4  1  0
  4  1  2  0
  5  2  1  0
  6  1  1  0
  7  6  1  0
  8  2  1  0
  9  5  1  0
 33 27  1  0
 34 31  2  0
 35 34  1  0
 36 30  1  0
 37 30  2  0
 38 33  2  0
 39 33  1  0
 40 38  1  0
 41 39  2  0
 42 41  1  0
 43 34  1  0
 44 36  1  0
 45 36  1  0
 46 42  1  0
 26 28  2  0
 32 35  2  0
 40 42  2  0
 25 24  1  0
 26 27  1  0
 27 24  2  0
 28 25  1  0
 29 24  1  0
 30 29  1  0
 31 25  1  0
 32 28  1  0
 53 48  2  0
 54 51  1  0
 55 52  1  0
 53 47  1  0
 55 56  1  0
 54 55  1  0
 56 49  1  0
 53 54  1  0
 56 50  2  0
  6 57  1  0
  6 58  1  0
  8 59  1  0
  9 60  1  0
 12 61  1  0
 15 62  1  0
 16 63  1  0
 17 64  1  0
 18 65  1  0
 20 66  1  0
 20 67  1  0
 20 68  1  0
 21 69  1  0
 21 70  1  0
 21 71  1  0
 22 72  1  0
 22 73  1  0
 22 74  1  0
 23 75  1  0
 23 76  1  0
 23 77  1  0
 29 78  1  0
 29 79  1  0
 31 80  1  0
 32 81  1  0
 35 82  1  0
 38 83  1  0
 39 84  1  0
 40 85  1  0
 41 86  1  0
 43 87  1  0
 43 88  1  0
 43 89  1  0
 44 90  1  0
 44 91  1  0
 44 92  1  0
 45 93  1  0
 45 94  1  0
 45 95  1  0
 46 96  1  0
 46 97  1  0
 46 98  1  0
 47 99  1  0
 49100  1  0
 51101  1  0
 52102  1  0
 54103  1  6
 55104  1  6
M  END
> <Uni-Dock RESULT> 
ENERGY=   -5.665  LOWER_BOUND=    1.866  UPPER_BOUND=    6.722
INTER + INTRA:          -5.665
INTER:                  -5.665
INTRA:                   0.000
UNBOUND:                 0.000

$$$$

     RDKit          3D

104107  0  0  0  0  0  0  0  0999 V2000
   49.3017    7.2532   17.9249 C   0  0  0  0  0  0  0  0  0  0  0  0
   48.8831    5.9462   17.7513 N   0  0  0  0  0  0  0  0  0  0  0  0
   47.2060    7.0115   18.7886 N   0  0  0  0  0  0  0  0  0  0  0  0
   48.2187    7.8941   18.5057 C   0  0  0  0  0  0  0  0  0  0  0  0
   47.6121    5.8558   18.3119 C   0  0  0  0  0  0  0  0  0  0  0  0
   50.6649    7.7437   17.5567 C   0  0  0  0  0  0  0  0  0  0  0  0
   50.7966    8.0273   16.0600 C   0  0  0  0  0  0  0  0  0  0  0  0
   49.5353    4.8572   17.1680 C   0  0  0  0  0  0  0  0  0  0  0  0
   46.9775    4.5838   18.2905 C   0  0  0  0  0  0  0  0  0  0  0  0
   48.1406    9.3002   18.8493 C   0  0  0  0  0  0  0  0  0  0  0  0
   48.9325    3.6527   17.1384 C   0  0  0  0  0  0  0  0  0  0  0  0
   47.6038    3.5298   17.7344 C   0  0  0  0  0  0  0  0  0  0  0  0
   51.9807    8.6416   15.6423 N   0  0  0  0  0  0  0  0  0  0  0  0
   49.9180    7.7090   15.2561 O   0  0  0  0  0  0  0  0  0  0  0  0
   47.7283    9.6779   20.1306 C   0  0  0  0  0  0  0  0  0  0  0  0
   48.4439   10.2924   17.9099 C   0  0  0  0  0  0  0  0  0  0  0  0
   47.6579   11.0286   20.4821 C   0  0  0  0  0  0  0  0  0  0  0  0
   48.3733   11.6434   18.2598 C   0  0  0  0  0  0  0  0  0  0  0  0
   47.9970   12.0207   19.5542 C   0  0  0  0  0  0  0  0  0  0  0  0
   49.5404    2.4338   16.5189 C   0  0  0  0  0  0  0  0  0  0  0  0
   52.0830    9.0537   14.2510 C   0  0  0  0  0  0  0  0  0  0  0  0
   52.9514    9.2285   16.5550 C   0  0  0  0  0  0  0  0  0  0  0  0
   47.8898   13.4711   19.9192 C   0  0  0  0  0  0  0  0  0  0  0  0
   48.9439    7.4020   17.8445 C   0  0  0  0  0  0  0  0  0  0  0  0
   48.8081    6.1505   18.4248 N   0  0  0  0  0  0  0  0  0  0  0  0
   48.1957    7.6378   19.9863 N   0  0  0  0  0  0  0  0  0  0  0  0
   48.5443    8.2902   18.8303 C   0  0  0  0  0  0  0  0  0  0  0  0
   48.3505    6.3588   19.7235 C   0  0  0  0  0  0  0  0  0  0  0  0
   49.4444    7.6247   16.4525 C   0  0  0  0  0  0  0  0  0  0  0  0
   50.9495    7.3705   16.3234 C   0  0  0  0  0  0  0  0  0  0  0  0
   49.0435    4.8763   17.8991 C   0  0  0  0  0  0  0  0  0  0  0  0
   48.1301    5.2086   20.5317 C   0  0  0  0  0  0  0  0  0  0  0  0
   48.5070    9.7339   18.7192 C   0  0  0  0  0  0  0  0  0  0  0  0
   48.8301    3.7845   18.6598 C   0  0  0  0  0  0  0  0  0  0  0  0
   48.3549    3.9793   20.0284 C   0  0  0  0  0  0  0  0  0  0  0  0
   51.5551    7.7827   15.1341 N   0  0  0  0  0  0  0  0  0  0  0  0
   51.5909    6.7948   17.2039 O   0  0  0  0  0  0  0  0  0  0  0  0
   47.6918   10.3647   17.7731 C   0  0  0  0  0  0  0  0  0  0  0  0
   49.2809   10.5124   19.5849 C   0  0  0  0  0  0  0  0  0  0  0  0
   47.6648   11.7590   17.6818 C   0  0  0  0  0  0  0  0  0  0  0  0
   49.2570   11.9069   19.4902 C   0  0  0  0  0  0  0  0  0  0  0  0
   48.4416   12.5406   18.5449 C   0  0  0  0  0  0  0  0  0  0  0  0
   49.0666    2.3828   18.1902 C   0  0  0  0  0  0  0  0  0  0  0  0
   53.0028    7.6888   15.0227 C   0  0  0  0  0  0  0  0  0  0  0  0
   50.8842    8.5402   14.0887 C   0  0  0  0  0  0  0  0  0  0  0  0
   48.4339   14.0363   18.4278 C   0  0  0  0  0  0  0  0  0  0  0  0
   51.0080    5.9999   17.3096 O   0  0  0  0  0  0  0  0  0  0  0  0
   49.0129    6.1127   16.3057 O   0  0  0  0  0  0  0  0  0  0  0  0
   48.2483    7.4881   19.1220 O   0  0  0  0  0  0  0  0  0  0  0  0
   47.9823    9.6888   19.3830 O   0  0  0  0  0  0  0  0  0  0  0  0
   51.0763    8.5380   18.0190 O   0  0  0  0  0  0  0  0  0  0  0  0
   48.8962   10.2774   16.8677 O   0  0  0  0  0  0  0  0  0  0  0  0
   49.9455    6.6937   16.8338 C   0  0  0  0  0  0  0  0  0  0  0  0
   50.1340    8.1998   16.9953 C   0  0  1  0  0  0  0  0  0  0  0  0
   48.7879    8.8862   17.2267 C   0  0  1  0  0  0  0  0  0  0  0  0
   48.3267    8.7536   18.6722 C   0  0  0  0  0  0  0  0  0  0  0  0
   51.4184    6.9992   17.8380 H   0  0  0  0  0  0  0  0  0  0  0  0
   50.8755    8.6593   18.1188 H   0  0  0  0  0  0  0  0  0  0  0  0
   50.5134    5.0340   16.7407 H   0  0  0  0  0  0  0  0  0  0  0  0
   45.9896    4.4948   18.7263 H   0  0  0  0  0  0  0  0  0  0  0  0
   47.1187    2.5583   17.7165 H   0  0  0  0  0  0  0  0  0  0  0  0
   47.4564    8.9172   20.8591 H   0  0  0  0  0  0  0  0  0  0  0  0
   48.7106   10.0220   16.8907 H   0  0  0  0  0  0  0  0  0  0  0  0
   47.3308   11.2984   21.4837 H   0  0  0  0  0  0  0  0  0  0  0  0
   48.6018   12.3985   17.5105 H   0  0  0  0  0  0  0  0  0  0  0  0
   48.9091    2.0592   15.7063 H   0  0  0  0  0  0  0  0  0  0  0  0
   49.6555    1.6386   17.2631 H   0  0  0  0  0  0  0  0  0  0  0  0
   50.5313    2.6415   16.1007 H   0  0  0  0  0  0  0  0  0  0  0  0
   53.1121    8.9088   13.9106 H   0  0  0  0  0  0  0  0  0  0  0  0
   51.4180    8.4759   13.6039 H   0  0  0  0  0  0  0  0  0  0  0  0
   51.8177   10.1125   14.1819 H   0  0  0  0  0  0  0  0  0  0  0  0
   53.9351    9.2446   16.0782 H   0  0  0  0  0  0  0  0  0  0  0  0
   52.6349   10.2497   16.7870 H   0  0  0  0  0  0  0  0  0  0  0  0
   53.0297    8.6546   17.4806 H   0  0  0  0  0  0  0  0  0  0  0  0
   46.8985   13.8527   19.6551 H   0  0  0  0  0  0  0  0  0  0  0  0
   48.6492   14.0607   19.3949 H   0  0  0  0  0  0  0  0  0  0  0  0
   48.0509   13.6186   20.9923 H   0  0  0  0  0  0  0  0  0  0  0  0
   49.2407    8.6579   16.1590 H   0  0  0  0  0  0  0  0  0  0  0  0
   48.9155    6.9638   15.7565 H   0  0  0  0  0  0  0  0  0  0  0  0
   49.4079    4.8179   16.8819 H   0  0  0  0  0  0  0  0  0  0  0  0
   47.7822    5.3538   21.5480 H   0  0  0  0  0  0  0  0  0  0  0  0
   48.1886    3.1018   20.6473 H   0  0  0  0  0  0  0  0  0  0  0  0
   47.0587    9.7748   17.1160 H   0  0  0  0  0  0  0  0  0  0  0  0
   49.9053   10.0329   20.3363 H   0  0  0  0  0  0  0  0  0  0  0  0
   47.0249   12.2315   16.9401 H   0  0  0  0  0  0  0  0  0  0  0  0
   49.8765   12.4932   20.1653 H   0  0  0  0  0  0  0  0  0  0  0  0
   49.8111    1.8851   18.8207 H   0  0  0  0  0  0  0  0  0  0  0  0
   49.4348    2.3567   17.1589 H   0  0  0  0  0  0  0  0  0  0  0  0
   48.1378    1.8033   18.2266 H   0  0  0  0  0  0  0  0  0  0  0  0
   53.2557    7.2377   14.0574 H   0  0  0  0  0  0  0  0  0  0  0  0
   53.4233    8.6985   15.0742 H   0  0  0  0  0  0  0  0  0  0  0  0
   53.4439    7.0813   15.8187 H   0  0  0  0  0  0  0  0  0  0  0  0
   51.0132    9.6072   14.2950 H   0  0  0  0  0  0  0  0  0  0  0  0
   49.8180    8.3071   14.0372 H   0  0  0  0  0  0  0  0  0  0  0  0
   51.3340    8.2974   13.1198 H   0  0  0  0  0  0  0  0  0  0  0  0
   49.1878   14.3610   17.7039 H   0  0  0  0  0  0  0  0  0  0  0  0
   47.4522   14.3964   18.1020 H   0  0  0  0  0  0  0  0  0  0  0  0
   48.6454   14.5052   19.3935 H   0  0  0  0  0  0  0  0  0  0  0  0
   50.7653    5.0619   17.1532 H   0  0  0  0  0  0  0  0  0  0  0  0
   47.9235    7.5813   20.0441 H   0  0  0  0  0  0  0  0  0  0  0  0
   51.7923    7.8765   17.9460 H   0  0  0  0  0  0  0  0  0  0  0  0
   48.5605   10.7894   17.6338 H   0  0  0  0  0  0  0  0  0  0  0  0
   50.5691    8.5573   16.0544 H   0  0  0  0  0  0  0  0  0  0  0  0
   48.0001    8.4740   16.5878 H   0  0  0  0  0  0  0  0  0  0  0  0
 10  4  1  0
 11  8  2  0
 12 11  1  0
 13  7  1  0
 14  7  2  0
 15 10  2  0
 16 10  1  0
 17 15  1  0
 18 16  2  0
 19 18  1  0
 20 11  1  0
 21 13  1  0
 22 13  1  0
 23 19  1  0
  3  5  2  0
  9 12  2  0
 17 19  2  0
  2  1  1  0
  3  4  1  0
  4  1  2  0
  5  2  1  0
  6  1  1  0
  7  6  1  0
  8  2  1  0
  9  5  1  0
 33 27  1  0
 34 31  2  0
 35 34  1  0
 36 30  1  0
 37 30  2  0
 38 33  2  0
 39 33  1  0
 40 38  1  0
 41 39  2  0
 42 41  1  0
 43 34  1  0
 44 36  1  0
 45 36  1  0
 46 42  1  0
 26 28  2  0
 32 35  2  0
 40 42  2  0
 25 24  1  0
 26 27  1  0
 27 24  2  0
 28 25  1  0
 29 24  1  0
 30 29  1  0
 31 25  1  0
 32 28  1  0
 53 48  2  0
 54 51  1  0
 55 52  1  0
 53 47  1  0
 55 56  1  0
 54 55  1  0
 56 49  1  0
 53 54  1  0
 56 50  2  0
  6 57  1  0
  6 58  1  0
  8 59  1  0
  9 60  1  0
 12 61  1  0
 15 62  1  0
 16 63  1  0
 17 64  1  0
 18 65  1  0
 20 66  1  0
 20 67  1  0
 20 68  1  0
 21 69  1  0
 21 70  1  0
 21 71  1  0
 22 72  1  0
 22 73  1  0
 22 74  1  0
 23 75  1  0
 23 76  1  0
 23 77  1  0
 29 78  1  0
 29 79  1  0
 31 80  1  0
 32 81  1  0
 35 82  1  0
 38 83  1  0
 39 84  1  0
 40 85  1  0
 41 86  1  0
 43 87  1  0
 43 88  1  0
 43 89  1  0
 44 90  1  0
 44 91  1  0
 44 92  1  0
 45 93  1  0
 45 94  1  0
 45 95  1  0
 46 96  1  0
 46 97  1  0
 46 98  1  0
 47 99  1  0
 49100  1  0
 51101  1  0
 52102  1  0
 54103  1  6
 55104  1  6
M  END
> <Uni-Dock RESULT> 
ENERGY=   -5.534  LOWER_BOUND=    2.554  UPPER_BOUND=    5.160
INTER + INTRA:          -5.534
INTER:                  -5.534
INTRA:                   0.000
UNBOUND:                 0.000

$$$$

     RDKit          3D

104107  0  0  0  0  0  0  0  0999 V2000
   50.0308    8.6522   13.4275 C   0  0  0  0  0  0  0  0  0  0  0  0
   51.0417    8.3064   12.5487 N   0  0  0  0  0  0  0  0  0  0  0  0
   52.0482    8.9308   14.4516 N   0  0  0  0  0  0  0  0  0  0  0  0
   50.6848    8.9670   14.6082 C   0  0  0  0  0  0  0  0  0  0  0  0
   52.2433    8.5139   13.2203 C   0  0  0  0  0  0  0  0  0  0  0  0
   48.5825    8.6757   13.0583 C   0  0  0  0  0  0  0  0  0  0  0  0
   47.9553    7.2813   13.0744 C   0  0  0  0  0  0  0  0  0  0  0  0
   50.9774    7.8539   11.2287 C   0  0  0  0  0  0  0  0  0  0  0  0
   53.4445    8.2610   12.5033 C   0  0  0  0  0  0  0  0  0  0  0  0
   50.0576    9.3537   15.8565 C   0  0  0  0  0  0  0  0  0  0  0  0
   52.1142    7.6049   10.5499 C   0  0  0  0  0  0  0  0  0  0  0  0
   53.3885    7.8298   11.2292 C   0  0  0  0  0  0  0  0  0  0  0  0
   46.5697    7.2174   12.9009 N   0  0  0  0  0  0  0  0  0  0  0  0
   48.6353    6.2618   13.2071 O   0  0  0  0  0  0  0  0  0  0  0  0
   50.4923   10.5034   16.5227 C   0  0  0  0  0  0  0  0  0  0  0  0
   49.0398    8.5793   16.4250 C   0  0  0  0  0  0  0  0  0  0  0  0
   49.8913   10.8968   17.7214 C   0  0  0  0  0  0  0  0  0  0  0  0
   48.4384    8.9711   17.6240 C   0  0  0  0  0  0  0  0  0  0  0  0
   48.8478   10.1426   18.2716 C   0  0  0  0  0  0  0  0  0  0  0  0
   52.1480    7.0990    9.1420 C   0  0  0  0  0  0  0  0  0  0  0  0
   45.9211    5.9240   13.0504 C   0  0  0  0  0  0  0  0  0  0  0  0
   45.6950    8.3801   12.9527 C   0  0  0  0  0  0  0  0  0  0  0  0
   48.2247   10.5448   19.5747 C   0  0  0  0  0  0  0  0  0  0  0  0
   50.2150    8.4902   13.7381 C   0  0  0  0  0  0  0  0  0  0  0  0
   51.1538    8.9477   12.8267 N   0  0  0  0  0  0  0  0  0  0  0  0
   51.2063   10.3754   14.5542 N   0  0  0  0  0  0  0  0  0  0  0  0
   50.2864    9.3855   14.7934 C   0  0  0  0  0  0  0  0  0  0  0  0
   51.7221   10.0932   13.3780 C   0  0  0  0  0  0  0  0  0  0  0  0
   49.3524    7.2888   13.5133 C   0  0  0  0  0  0  0  0  0  0  0  0
   48.2590    7.5396   12.4701 C   0  0  0  0  0  0  0  0  0  0  0  0
   51.5384    8.4330   11.5847 C   0  0  0  0  0  0  0  0  0  0  0  0
   52.7287   10.7541   12.6197 C   0  0  0  0  0  0  0  0  0  0  0  0
   49.4946    9.3463   16.0057 C   0  0  0  0  0  0  0  0  0  0  0  0
   52.4955    9.0529   10.8665 C   0  0  0  0  0  0  0  0  0  0  0  0
   53.1024   10.2607   11.4232 C   0  0  0  0  0  0  0  0  0  0  0  0
   47.2578    6.5712   12.3662 N   0  0  0  0  0  0  0  0  0  0  0  0
   48.2789    8.5237   11.7290 O   0  0  0  0  0  0  0  0  0  0  0  0
   49.5671    8.2569   16.8808 C   0  0  0  0  0  0  0  0  0  0  0  0
   48.6600   10.4230   16.3195 C   0  0  0  0  0  0  0  0  0  0  0  0
   48.7992    8.2367   18.0482 C   0  0  0  0  0  0  0  0  0  0  0  0
   47.8888   10.4004   17.4852 C   0  0  0  0  0  0  0  0  0  0  0  0
   47.9600    9.3119   18.3628 C   0  0  0  0  0  0  0  0  0  0  0  0
   52.9631    8.5858    9.5232 C   0  0  0  0  0  0  0  0  0  0  0  0
   46.1264    6.8327   11.4895 C   0  0  0  0  0  0  0  0  0  0  0  0
   47.1211    5.4301   13.2584 C   0  0  0  0  0  0  0  0  0  0  0  0
   47.1146    9.2773   19.6017 C   0  0  0  0  0  0  0  0  0  0  0  0
   49.2075    8.4323   11.3941 O   0  0  0  0  0  0  0  0  0  0  0  0
   50.4929    6.9546   12.4733 O   0  0  0  0  0  0  0  0  0  0  0  0
   51.0354    9.5473   14.3150 O   0  0  0  0  0  0  0  0  0  0  0  0
   50.1007    9.8485   16.3193 O   0  0  0  0  0  0  0  0  0  0  0  0
   47.9300    9.2706   13.5424 O   0  0  0  0  0  0  0  0  0  0  0  0
   48.4321    7.6902   16.0631 O   0  0  0  0  0  0  0  0  0  0  0  0
   49.5578    7.7362   12.5028 C   0  0  0  0  0  0  0  0  0  0  0  0
   48.6181    8.0215   13.6713 C   0  0  1  0  0  0  0  0  0  0  0  0
   49.3718    7.9337   14.9984 C   0  0  1  0  0  0  0  0  0  0  0  0
   50.1665    9.2017   15.2822 C   0  0  0  0  0  0  0  0  0  0  0  0
   48.4592    9.1018   12.0561 H   0  0  0  0  0  0  0  0  0  0  0  0
   48.0480    9.3215   13.7626 H   0  0  0  0  0  0  0  0  0  0  0  0
   49.9947    7.7040   10.8017 H   0  0  0  0  0  0  0  0  0  0  0  0
   54.3888    8.4212   13.0097 H   0  0  0  0  0  0  0  0  0  0  0  0
   54.3059    7.6350   10.6817 H   0  0  0  0  0  0  0  0  0  0  0  0
   51.3061   11.0949   16.1090 H   0  0  0  0  0  0  0  0  0  0  0  0
   48.7264    7.6507   15.9534 H   0  0  0  0  0  0  0  0  0  0  0  0
   50.2489   11.7928   18.2236 H   0  0  0  0  0  0  0  0  0  0  0  0
   47.6573    8.3479   18.0545 H   0  0  0  0  0  0  0  0  0  0  0  0
   52.6595    6.1319    9.0925 H   0  0  0  0  0  0  0  0  0  0  0  0
   52.6757    7.8039    8.4907 H   0  0  0  0  0  0  0  0  0  0  0  0
   51.1403    6.9628    8.7347 H   0  0  0  0  0  0  0  0  0  0  0  0
   45.0959    5.8538   12.3363 H   0  0  0  0  0  0  0  0  0  0  0  0
   46.6117    5.0970   12.8664 H   0  0  0  0  0  0  0  0  0  0  0  0
   45.5334    5.8456   14.0702 H   0  0  0  0  0  0  0  0  0  0  0  0
   44.7841    8.1753   12.3838 H   0  0  0  0  0  0  0  0  0  0  0  0
   45.4425    8.5769   13.9988 H   0  0  0  0  0  0  0  0  0  0  0  0
   46.1745    9.2623   12.5237 H   0  0  0  0  0  0  0  0  0  0  0  0
   48.7416   10.0544   20.4056 H   0  0  0  0  0  0  0  0  0  0  0  0
   47.1657   10.2670   19.6011 H   0  0  0  0  0  0  0  0  0  0  0  0
   48.2773   11.6295   19.7166 H   0  0  0  0  0  0  0  0  0  0  0  0
   48.8748    7.0086   14.4559 H   0  0  0  0  0  0  0  0  0  0  0  0
   49.9681    6.4454   13.1811 H   0  0  0  0  0  0  0  0  0  0  0  0
   51.0308    7.5429   11.2368 H   0  0  0  0  0  0  0  0  0  0  0  0
   53.1750   11.6522   13.0308 H   0  0  0  0  0  0  0  0  0  0  0  0
   53.8694   10.7676   10.8438 H   0  0  0  0  0  0  0  0  0  0  0  0
   50.2364    7.4278   16.6682 H   0  0  0  0  0  0  0  0  0  0  0  0
   48.6091   11.2834   15.6551 H   0  0  0  0  0  0  0  0  0  0  0  0
   48.8687    7.3814   18.7163 H   0  0  0  0  0  0  0  0  0  0  0  0
   47.2366   11.2431   17.7039 H   0  0  0  0  0  0  0  0  0  0  0  0
   52.7967    9.3596    8.7662 H   0  0  0  0  0  0  0  0  0  0  0  0
   52.4312    7.6849    9.1988 H   0  0  0  0  0  0  0  0  0  0  0  0
   54.0324    8.3499    9.5490 H   0  0  0  0  0  0  0  0  0  0  0  0
   45.9366    5.9428   10.8803 H   0  0  0  0  0  0  0  0  0  0  0  0
   45.2477    7.0453   12.1073 H   0  0  0  0  0  0  0  0  0  0  0  0
   46.3031    7.6819   10.8225 H   0  0  0  0  0  0  0  0  0  0  0  0
   46.4815    5.7198   14.0978 H   0  0  0  0  0  0  0  0  0  0  0  0
   48.0880    5.0924   13.6389 H   0  0  0  0  0  0  0  0  0  0  0  0
   46.6586    4.5987   12.7152 H   0  0  0  0  0  0  0  0  0  0  0  0
   46.1570    8.7913   19.3904 H   0  0  0  0  0  0  0  0  0  0  0  0
   47.6206    8.7287   20.4034 H   0  0  0  0  0  0  0  0  0  0  0  0
   46.9239   10.2886   19.9734 H   0  0  0  0  0  0  0  0  0  0  0  0
   49.8792    8.1684   10.7289 H   0  0  0  0  0  0  0  0  0  0  0  0
   51.4688   10.3577   14.6608 H   0  0  0  0  0  0  0  0  0  0  0  0
   47.7045    9.3496   12.5945 H   0  0  0  0  0  0  0  0  0  0  0  0
   48.6057    8.3698   16.7484 H   0  0  0  0  0  0  0  0  0  0  0  0
   47.8439    7.2456   13.6392 H   0  0  0  0  0  0  0  0  0  0  0  0
   50.0714    7.0918   15.0198 H   0  0  0  0  0  0  0  0  0  0  0  0
 10  4  1  0
 11  8  2  0
 12 11  1  0
 13  7  1  0
 14  7  2  0
 15 10  2  0
 16 10  1  0
 17 15  1  0
 18 16  2  0
 19 18  1  0
 20 11  1  0
 21 13  1  0
 22 13  1  0
 23 19  1  0
  3  5  2  0
  9 12  2  0
 17 19  2  0
  2  1  1  0
  3  4  1  0
  4  1  2  0
  5  2  1  0
  6  1  1  0
  7  6  1  0
  8  2  1  0
  9  5  1  0
 33 27  1  0
 34 31  2  0
 35 34  1  0
 36 30  1  0
 37 30  2  0
 38 33  2  0
 39 33  1  0
 40 38  1  0
 41 39  2  0
 42 41  1  0
 43 34  1  0
 44 36  1  0
 45 36  1  0
 46 42  1  0
 26 28  2  0
 32 35  2  0
 40 42  2  0
 25 24  1  0
 26 27  1  0
 27 24  2  0
 28 25  1  0
 29 24  1  0
 30 29  1  0
 31 25  1  0
 32 28  1  0
 53 48  2  0
 54 51  1  0
 55 52  1  0
 53 47  1  0
 55 56  1  0
 54 55  1  0
 56 49  1  0
 53 54  1  0
 56 50  2  0
  6 57  1  0
  6 58  1  0
  8 59  1  0
  9 60  1  0
 12 61  1  0
 15 62  1  0
 16 63  1  0
 17 64  1  0
 18 65  1  0
 20 66  1  0
 20 67  1  0
 20 68  1  0
 21 69  1  0
 21 70  1  0
 21 71  1  0
 22 72  1  0
 22 73  1  0
 22 74  1  0
 23 75  1  0
 23 76  1  0
 23 77  1  0
 29 78  1  0
 29 79  1  0
 31 80  1  0
 32 81  1  0
 35 82  1  0
 38 83  1  0
 39 84  1  0
 40 85  1  0
 41 86  1  0
 43 87  1  0
 43 88  1  0
 43 89  1  0
 44 90  1  0
 44 91  1  0
 44 92  1  0
 45 93  1  0
 45 94  1  0
 45 95  1  0
 46 96  1  0
 46 97  1  0
 46 98  1  0
 47 99  1  0
 49100  1  0
 51101  1  0
 52102  1  0
 54103  1  6
 55104  1  6
M  END
> <Uni-Dock RESULT> 
ENERGY=   -5.437  LOWER_BOUND=    2.533  UPPER_BOUND=    5.264
INTER + INTRA:          -5.437
INTER:                  -5.437
INTRA:                   0.000
UNBOUND:                 0.000

$$$$

     RDKit          3D

104107  0  0  0  0  0  0  0  0999 V2000
   49.2281   11.5020   19.7757 C   0  0  0  0  0  0  0  0  0  0  0  0
   48.9700   12.5667   18.9311 N   0  0  0  0  0  0  0  0  0  0  0  0
   47.3860   11.0361   18.5164 N   0  0  0  0  0  0  0  0  0  0  0  0
   48.1951   10.6086   19.5397 C   0  0  0  0  0  0  0  0  0  0  0  0
   47.8519   12.2179   18.1786 C   0  0  0  0  0  0  0  0  0  0  0  0
   50.4164   11.4291   20.6797 C   0  0  0  0  0  0  0  0  0  0  0  0
   50.2242   12.2424   21.9601 C   0  0  0  0  0  0  0  0  0  0  0  0
   49.6458   13.7786   18.7706 C   0  0  0  0  0  0  0  0  0  0  0  0
   47.4074   13.1477   17.1994 C   0  0  0  0  0  0  0  0  0  0  0  0
   47.9885    9.3424   20.2146 C   0  0  0  0  0  0  0  0  0  0  0  0
   49.2213   14.6654   17.8495 C   0  0  0  0  0  0  0  0  0  0  0  0
   48.0583   14.3149   17.0369 C   0  0  0  0  0  0  0  0  0  0  0  0
   51.2119   12.1076   22.9401 N   0  0  0  0  0  0  0  0  0  0  0  0
   49.2631   12.9987   22.1142 O   0  0  0  0  0  0  0  0  0  0  0  0
   47.7757    8.1835   19.4622 C   0  0  0  0  0  0  0  0  0  0  0  0
   47.9693    9.2621   21.6117 C   0  0  0  0  0  0  0  0  0  0  0  0
   47.5857    6.9528   20.0964 C   0  0  0  0  0  0  0  0  0  0  0  0
   47.7787    8.0322   22.2472 C   0  0  0  0  0  0  0  0  0  0  0  0
   47.6034    6.8657   21.4936 C   0  0  0  0  0  0  0  0  0  0  0  0
   49.8654   15.9961   17.6177 C   0  0  0  0  0  0  0  0  0  0  0  0
   50.9929   12.7543   24.2245 C   0  0  0  0  0  0  0  0  0  0  0  0
   52.2456   11.0829   22.9091 C   0  0  0  0  0  0  0  0  0  0  0  0
   47.3664    5.5518   22.1761 C   0  0  0  0  0  0  0  0  0  0  0  0
   48.8444   11.4381   19.8488 C   0  0  0  0  0  0  0  0  0  0  0  0
   48.9951   11.9570   18.5724 N   0  0  0  0  0  0  0  0  0  0  0  0
   48.4863    9.7891   18.3140 N   0  0  0  0  0  0  0  0  0  0  0  0
   48.5177   10.1062   19.6489 C   0  0  0  0  0  0  0  0  0  0  0  0
   48.7650   10.9093   17.6843 C   0  0  0  0  0  0  0  0  0  0  0  0
   49.0389   12.2345   21.1001 C   0  0  0  0  0  0  0  0  0  0  0  0
   50.5135   12.5486   21.3714 C   0  0  0  0  0  0  0  0  0  0  0  0
   49.3022   13.2545   18.1510 C   0  0  0  0  0  0  0  0  0  0  0  0
   48.8621   11.1968   16.2941 C   0  0  0  0  0  0  0  0  0  0  0  0
   48.2601    9.1228   20.6806 C   0  0  0  0  0  0  0  0  0  0  0  0
   49.3891   13.5318   16.8349 C   0  0  0  0  0  0  0  0  0  0  0  0
   49.1568   12.4459   15.8843 C   0  0  0  0  0  0  0  0  0  0  0  0
   50.8219   13.0712   22.6295 N   0  0  0  0  0  0  0  0  0  0  0  0
   51.3824   12.3890   20.5126 O   0  0  0  0  0  0  0  0  0  0  0  0
   47.2022    9.2820   21.5824 C   0  0  0  0  0  0  0  0  0  0  0  0
   49.0671    7.9843   20.7650 C   0  0  0  0  0  0  0  0  0  0  0  0
   46.9653    8.3216   22.5696 C   0  0  0  0  0  0  0  0  0  0  0  0
   48.8324    7.0261   21.7554 C   0  0  0  0  0  0  0  0  0  0  0  0
   47.7741    7.1826   22.6585 C   0  0  0  0  0  0  0  0  0  0  0  0
   49.7255   14.8846   16.2891 C   0  0  0  0  0  0  0  0  0  0  0  0
   52.2216   13.2544   22.9817 C   0  0  0  0  0  0  0  0  0  0  0  0
   49.8681   13.2090   23.7195 C   0  0  0  0  0  0  0  0  0  0  0  0
   47.5370    6.1660   23.7360 C   0  0  0  0  0  0  0  0  0  0  0  0
   50.9457   12.8842   19.7730 O   0  0  0  0  0  0  0  0  0  0  0  0
   48.8017   13.4309   20.0969 O   0  0  0  0  0  0  0  0  0  0  0  0
   48.3959   10.4879   18.8392 O   0  0  0  0  0  0  0  0  0  0  0  0
   47.8808    8.6906   20.0583 O   0  0  0  0  0  0  0  0  0  0  0  0
   50.7930   10.5436   20.9764 O   0  0  0  0  0  0  0  0  0  0  0  0
   48.2155    9.9936   22.4454 O   0  0  0  0  0  0  0  0  0  0  0  0
   49.7270   12.6709   20.3258 C   0  0  0  0  0  0  0  0  0  0  0  0
   49.7315   11.4624   21.2583 C   0  0  1  0  0  0  0  0  0  0  0  0
   48.3707   10.7662   21.2393 C   0  0  1  0  0  0  0  0  0  0  0  0
   48.2121    9.8684   20.0192 C   0  0  0  0  0  0  0  0  0  0  0  0
   51.3053   11.8035   20.1592 H   0  0  0  0  0  0  0  0  0  0  0  0
   50.5996   10.3815   20.9399 H   0  0  0  0  0  0  0  0  0  0  0  0
   50.4922   13.9656   19.4181 H   0  0  0  0  0  0  0  0  0  0  0  0
   46.5410   12.8904   16.6021 H   0  0  0  0  0  0  0  0  0  0  0  0
   47.7181   15.0261   16.2899 H   0  0  0  0  0  0  0  0  0  0  0  0
   47.7536    8.2385   18.3760 H   0  0  0  0  0  0  0  0  0  0  0  0
   48.0749   10.1602   22.2160 H   0  0  0  0  0  0  0  0  0  0  0  0
   47.4182    6.0654   19.4902 H   0  0  0  0  0  0  0  0  0  0  0  0
   47.7555    7.9944   23.3344 H   0  0  0  0  0  0  0  0  0  0  0  0
   49.1510   16.8063   17.7978 H   0  0  0  0  0  0  0  0  0  0  0  0
   50.2274   16.0759   16.5872 H   0  0  0  0  0  0  0  0  0  0  0  0
   50.7216   16.1546   18.2824 H   0  0  0  0  0  0  0  0  0  0  0  0
   51.9498   13.1193   24.6081 H   0  0  0  0  0  0  0  0  0  0  0  0
   50.3050   13.5999   24.1442 H   0  0  0  0  0  0  0  0  0  0  0  0
   50.5750   12.0182   24.9173 H   0  0  0  0  0  0  0  0  0  0  0  0
   53.1103   11.4214   23.4860 H   0  0  0  0  0  0  0  0  0  0  0  0
   51.8396   10.1683   23.3515 H   0  0  0  0  0  0  0  0  0  0  0  0
   52.5752   10.8763   21.8889 H   0  0  0  0  0  0  0  0  0  0  0  0
   46.2999    5.4252   22.3875 H   0  0  0  0  0  0  0  0  0  0  0  0
   47.9245    5.4963   23.1166 H   0  0  0  0  0  0  0  0  0  0  0  0
   47.7040    4.7184   21.5510 H   0  0  0  0  0  0  0  0  0  0  0  0
   48.6423   11.6715   21.9491 H   0  0  0  0  0  0  0  0  0  0  0  0
   48.4857   13.1780   21.0306 H   0  0  0  0  0  0  0  0  0  0  0  0
   49.4737   13.9985   18.9177 H   0  0  0  0  0  0  0  0  0  0  0  0
   48.6945   10.3903   15.5897 H   0  0  0  0  0  0  0  0  0  0  0  0
   49.2332   12.6637   14.8224 H   0  0  0  0  0  0  0  0  0  0  0  0
   46.5452   10.1443   21.5085 H   0  0  0  0  0  0  0  0  0  0  0  0
   49.8818    7.8415   20.0579 H   0  0  0  0  0  0  0  0  0  0  0  0
   46.1382    8.4625   23.2617 H   0  0  0  0  0  0  0  0  0  0  0  0
   49.4801    6.1539   21.8112 H   0  0  0  0  0  0  0  0  0  0  0  0
   50.6368   14.8404   15.6833 H   0  0  0  0  0  0  0  0  0  0  0  0
   49.8936   15.6146   17.0882 H   0  0  0  0  0  0  0  0  0  0  0  0
   48.9096   15.2597   15.6618 H   0  0  0  0  0  0  0  0  0  0  0  0
   52.3489   14.2479   23.4242 H   0  0  0  0  0  0  0  0  0  0  0  0
   52.5001   12.4906   23.7153 H   0  0  0  0  0  0  0  0  0  0  0  0
   52.8844   13.1701   22.1151 H   0  0  0  0  0  0  0  0  0  0  0  0
   49.8841   12.2903   24.3138 H   0  0  0  0  0  0  0  0  0  0  0  0
   48.8540   13.3865   23.3535 H   0  0  0  0  0  0  0  0  0  0  0  0
   50.1572   14.0577   24.3490 H   0  0  0  0  0  0  0  0  0  0  0  0
   48.0891    6.4403   24.6403 H   0  0  0  0  0  0  0  0  0  0  0  0
   46.4713    6.0974   23.9791 H   0  0  0  0  0  0  0  0  0  0  0  0
   47.8588    5.1714   23.4128 H   0  0  0  0  0  0  0  0  0  0  0  0
   50.8106   13.6714   19.2027 H   0  0  0  0  0  0  0  0  0  0  0  0
   48.2403    9.7841   18.1723 H   0  0  0  0  0  0  0  0  0  0  0  0
   51.5673   11.0971   20.7536 H   0  0  0  0  0  0  0  0  0  0  0  0
   47.9619    9.0886   22.1656 H   0  0  0  0  0  0  0  0  0  0  0  0
   49.9283   11.8517   22.2643 H   0  0  0  0  0  0  0  0  0  0  0  0
   47.5420   11.4817   21.2348 H   0  0  0  0  0  0  0  0  0  0  0  0
 10  4  1  0
 11  8  2  0
 12 11  1  0
 13  7  1  0
 14  7  2  0
 15 10  2  0
 16 10  1  0
 17 15  1  0
 18 16  2  0
 19 18  1  0
 20 11  1  0
 21 13  1  0
 22 13  1  0
 23 19  1  0
  3  5  2  0
  9 12  2  0
 17 19  2  0
  2  1  1  0
  3  4  1  0
  4  1  2  0
  5  2  1  0
  6  1  1  0
  7  6  1  0
  8  2  1  0
  9  5  1  0
 33 27  1  0
 34 31  2  0
 35 34  1  0
 36 30  1  0
 37 30  2  0
 38 33  2  0
 39 33  1  0
 40 38  1  0
 41 39  2  0
 42 41  1  0
 43 34  1  0
 44 36  1  0
 45 36  1  0
 46 42  1  0
 26 28  2  0
 32 35  2  0
 40 42  2  0
 25 24  1  0
 26 27  1  0
 27 24  2  0
 28 25  1  0
 29 24  1  0
 30 29  1  0
 31 25  1  0
 32 28  1  0
 53 48  2  0
 54 51  1  0
 55 52  1  0
 53 47  1  0
 55 56  1  0
 54 55  1  0
 56 49  1  0
 53 54  1  0
 56 50  2  0
  6 57  1  0
  6 58  1  0
  8 59  1  0
  9 60  1  0
 12 61  1  0
 15 62  1  0
 16 63  1  0
 17 64  1  0
 18 65  1  0
 20 66  1  0
 20 67  1  0
 20 68  1  0
 21 69  1  0
 21 70  1  0
 21 71  1  0
 22 72  1  0
 22 73  1  0
 22 74  1  0
 23 75  1  0
 23 76  1  0
 23 77  1  0
 29 78  1  0
 29 79  1  0
 31 80  1  0
 32 81  1  0
 35 82  1  0
 38 83  1  0
 39 84  1  0
 40 85  1  0
 41 86  1  0
 43 87  1  0
 43 88  1  0
 43 89  1  0
 44 90  1  0
 44 91  1  0
 44 92  1  0
 45 93  1  0
 45 94  1  0
 45 95  1  0
 46 96  1  0
 46 97  1  0
 46 98  1  0
 47 99  1  0
 49100  1  0
 51101  1  0
 52102  1  0
 54103  1  6
 55104  1  6
M  END
> <Uni-Dock RESULT> 
ENERGY=   -5.375  LOWER_BOUND=    2.576  UPPER_BOUND=    4.369
INTER + INTRA:          -5.375
INTER:                  -5.375
INTRA:                   0.000
UNBOUND:                 0.000

$$$$

     RDKit          3D

104107  0  0  0  0  0  0  0  0999 V2000
   48.8074   11.8453   17.5069 C   0  0  0  0  0  0  0  0  0  0  0  0
   48.0405   11.2742   18.5065 N   0  0  0  0  0  0  0  0  0  0  0  0
   47.0872   13.2462   18.0309 N   0  0  0  0  0  0  0  0  0  0  0  0
   48.1528   13.0261   17.1937 C   0  0  0  0  0  0  0  0  0  0  0  0
   47.0227   12.1789   18.7955 C   0  0  0  0  0  0  0  0  0  0  0  0
   50.0698   11.2408   16.9818 C   0  0  0  0  0  0  0  0  0  0  0  0
   49.8039   10.1229   15.9731 C   0  0  0  0  0  0  0  0  0  0  0  0
   48.1861   10.0558   19.1741 C   0  0  0  0  0  0  0  0  0  0  0  0
   46.1129   11.8300   19.8306 C   0  0  0  0  0  0  0  0  0  0  0  0
   48.5408   13.9728   16.1669 C   0  0  0  0  0  0  0  0  0  0  0  0
   47.3199    9.7187   20.1494 C   0  0  0  0  0  0  0  0  0  0  0  0
   46.2517   10.6594   20.4808 C   0  0  0  0  0  0  0  0  0  0  0  0
   50.9178    9.6055   15.3057 N   0  0  0  0  0  0  0  0  0  0  0  0
   48.6709    9.6797   15.7744 O   0  0  0  0  0  0  0  0  0  0  0  0
   48.6499   15.3303   16.4824 C   0  0  0  0  0  0  0  0  0  0  0  0
   48.7817   13.5562   14.8526 C   0  0  0  0  0  0  0  0  0  0  0  0
   49.0335   16.2551   15.5074 C   0  0  0  0  0  0  0  0  0  0  0  0
   49.1646   14.4799   13.8765 C   0  0  0  0  0  0  0  0  0  0  0  0
   49.3107   15.8336   14.2014 C   0  0  0  0  0  0  0  0  0  0  0  0
   47.3810    8.4294   20.9065 C   0  0  0  0  0  0  0  0  0  0  0  0
   50.6895    8.6420   14.2402 C   0  0  0  0  0  0  0  0  0  0  0  0
   52.2363   10.2221   15.3373 C   0  0  0  0  0  0  0  0  0  0  0  0
   49.6897   16.8290   13.1460 C   0  0  0  0  0  0  0  0  0  0  0  0
   48.4919   11.9891   17.3162 C   0  0  0  0  0  0  0  0  0  0  0  0
   48.2294   11.9349   18.6762 N   0  0  0  0  0  0  0  0  0  0  0  0
   48.5204   14.1011   18.1775 N   0  0  0  0  0  0  0  0  0  0  0  0
   48.6509   13.3386   17.0439 C   0  0  0  0  0  0  0  0  0  0  0  0
   48.2596   13.2468   19.1425 C   0  0  0  0  0  0  0  0  0  0  0  0
   48.5812   10.7826   16.4364 C   0  0  0  0  0  0  0  0  0  0  0  0
   49.8593    9.9737   16.6794 C   0  0  0  0  0  0  0  0  0  0  0  0
   47.9633   10.8413   19.5059 C   0  0  0  0  0  0  0  0  0  0  0  0
   48.0147   13.4540   20.5288 C   0  0  0  0  0  0  0  0  0  0  0  0
   48.9466   13.9232   15.7521 C   0  0  0  0  0  0  0  0  0  0  0  0
   47.7250   11.0344   20.8182 C   0  0  0  0  0  0  0  0  0  0  0  0
   47.7570   12.4029   21.3311 C   0  0  0  0  0  0  0  0  0  0  0  0
   50.1550    8.9744   15.7493 N   0  0  0  0  0  0  0  0  0  0  0  0
   50.5726   10.1631   17.6660 O   0  0  0  0  0  0  0  0  0  0  0  0
   48.0676   13.7746   14.6737 C   0  0  0  0  0  0  0  0  0  0  0  0
   50.1185   14.6668   15.5836 C   0  0  0  0  0  0  0  0  0  0  0  0
   48.3664   14.3484   13.4350 C   0  0  0  0  0  0  0  0  0  0  0  0
   50.4191   15.2368   14.3431 C   0  0  0  0  0  0  0  0  0  0  0  0
   49.5409   15.0903   13.2627 C   0  0  0  0  0  0  0  0  0  0  0  0
   47.4449    9.9270   21.7859 C   0  0  0  0  0  0  0  0  0  0  0  0
   51.4260    8.2752   15.8611 C   0  0  0  0  0  0  0  0  0  0  0  0
   49.4099    8.7477   14.5204 C   0  0  0  0  0  0  0  0  0  0  0  0
   49.8750   15.6822   11.9252 C   0  0  0  0  0  0  0  0  0  0  0  0
   49.8693   10.1133   18.3631 O   0  0  0  0  0  0  0  0  0  0  0  0
   47.7590   10.1444   17.6241 O   0  0  0  0  0  0  0  0  0  0  0  0
   48.2662   13.3216   17.8611 O   0  0  0  0  0  0  0  0  0  0  0  0
   48.6569   14.6385   16.1019 O   0  0  0  0  0  0  0  0  0  0  0  0
   50.7892   11.8114   16.5686 O   0  0  0  0  0  0  0  0  0  0  0  0
   48.8740   12.5395   14.3539 O   0  0  0  0  0  0  0  0  0  0  0  0
   48.9232   10.4661   17.4592 C   0  0  0  0  0  0  0  0  0  0  0  0
   49.5255   11.2084   16.2692 C   0  0  1  0  0  0  0  0  0  0  0  0
   48.5337   12.2339   15.7201 C   0  0  1  0  0  0  0  0  0  0  0  0
   48.5196   13.5090   16.5532 C   0  0  0  0  0  0  0  0  0  0  0  0
   50.6599   10.8306   17.8092 H   0  0  0  0  0  0  0  0  0  0  0  0
   50.6660   12.0252   16.5045 H   0  0  0  0  0  0  0  0  0  0  0  0
   48.9977    9.4118   18.8624 H   0  0  0  0  0  0  0  0  0  0  0  0
   45.3170   12.5246   20.0712 H   0  0  0  0  0  0  0  0  0  0  0  0
   45.5560   10.3919   21.2707 H   0  0  0  0  0  0  0  0  0  0  0  0
   48.4316   15.6717   17.4920 H   0  0  0  0  0  0  0  0  0  0  0  0
   48.6463   12.5141   14.5723 H   0  0  0  0  0  0  0  0  0  0  0  0
   49.1080   17.3065   15.7755 H   0  0  0  0  0  0  0  0  0  0  0  0
   49.3353   14.1362   12.8584 H   0  0  0  0  0  0  0  0  0  0  0  0
   46.4581    7.8566   20.7665 H   0  0  0  0  0  0  0  0  0  0  0  0
   47.5140    8.6160   21.9774 H   0  0  0  0  0  0  0  0  0  0  0  0
   48.2149    7.8017   20.5738 H   0  0  0  0  0  0  0  0  0  0  0  0
   51.4935    7.9007   14.2511 H   0  0  0  0  0  0  0  0  0  0  0  0
   49.7353    8.1219   14.3572 H   0  0  0  0  0  0  0  0  0  0  0  0
   50.6918    9.1738   13.2844 H   0  0  0  0  0  0  0  0  0  0  0  0
   52.9974    9.4631   15.1374 H   0  0  0  0  0  0  0  0  0  0  0  0
   52.2743   10.9974   14.5664 H   0  0  0  0  0  0  0  0  0  0  0  0
   52.4469   10.6690   16.3110 H   0  0  0  0  0  0  0  0  0  0  0  0
   48.7951   17.1806   12.6225 H   0  0  0  0  0  0  0  0  0  0  0  0
   50.3749   16.3817   12.4183 H   0  0  0  0  0  0  0  0  0  0  0  0
   50.2035   17.6905   13.5856 H   0  0  0  0  0  0  0  0  0  0  0  0
   48.5649   11.0994   15.3902 H   0  0  0  0  0  0  0  0  0  0  0  0
   47.7159   10.1322   16.6075 H   0  0  0  0  0  0  0  0  0  0  0  0
   47.9716    9.8592   19.0516 H   0  0  0  0  0  0  0  0  0  0  0  0
   48.0432   14.4685   20.9095 H   0  0  0  0  0  0  0  0  0  0  0  0
   47.5727   12.5621   22.3901 H   0  0  0  0  0  0  0  0  0  0  0  0
   47.1365   13.2285   14.7979 H   0  0  0  0  0  0  0  0  0  0  0  0
   50.8008   14.8036   16.4202 H   0  0  0  0  0  0  0  0  0  0  0  0
   47.6711   14.2223   12.6083 H   0  0  0  0  0  0  0  0  0  0  0  0
   51.3423   15.8010   14.2304 H   0  0  0  0  0  0  0  0  0  0  0  0
   48.1959    9.9119   22.5829 H   0  0  0  0  0  0  0  0  0  0  0  0
   47.4606    8.9469   21.2970 H   0  0  0  0  0  0  0  0  0  0  0  0
   46.4573   10.0556   22.2419 H   0  0  0  0  0  0  0  0  0  0  0  0
   51.2489    7.1992   15.7619 H   0  0  0  0  0  0  0  0  0  0  0  0
   52.0824    8.6123   15.0521 H   0  0  0  0  0  0  0  0  0  0  0  0
   51.9216    8.4612   16.8188 H   0  0  0  0  0  0  0  0  0  0  0  0
   49.8605    9.3489   13.7246 H   0  0  0  0  0  0  0  0  0  0  0  0
   48.3566    9.0180   14.6268 H   0  0  0  0  0  0  0  0  0  0  0  0
   49.4649    7.6866   14.2537 H   0  0  0  0  0  0  0  0  0  0  0  0
   50.4273   14.9566   11.3199 H   0  0  0  0  0  0  0  0  0  0  0  0
   48.9649   15.9710   11.3887 H   0  0  0  0  0  0  0  0  0  0  0  0
   50.4831   16.5849   12.0381 H   0  0  0  0  0  0  0  0  0  0  0  0
   49.3622    9.6554   19.0676 H   0  0  0  0  0  0  0  0  0  0  0  0
   48.2740   14.2280   18.2388 H   0  0  0  0  0  0  0  0  0  0  0  0
   51.2573   11.1707   17.1395 H   0  0  0  0  0  0  0  0  0  0  0  0
   48.9295   13.5167   14.2928 H   0  0  0  0  0  0  0  0  0  0  0  0
   49.7269   10.4494   15.5039 H   0  0  0  0  0  0  0  0  0  0  0  0
   47.5110   11.8441   15.6926 H   0  0  0  0  0  0  0  0  0  0  0  0
 10  4  1  0
 11  8  2  0
 12 11  1  0
 13  7  1  0
 14  7  2  0
 15 10  2  0
 16 10  1  0
 17 15  1  0
 18 16  2  0
 19 18  1  0
 20 11  1  0
 21 13  1  0
 22 13  1  0
 23 19  1  0
  3  5  2  0
  9 12  2  0
 17 19  2  0
  2  1  1  0
  3  4  1  0
  4  1  2  0
  5  2  1  0
  6  1  1  0
  7  6  1  0
  8  2  1  0
  9  5  1  0
 33 27  1  0
 34 31  2  0
 35 34  1  0
 36 30  1  0
 37 30  2  0
 38 33  2  0
 39 33  1  0
 40 38  1  0
 41 39  2  0
 42 41  1  0
 43 34  1  0
 44 36  1  0
 45 36  1  0
 46 42  1  0
 26 28  2  0
 32 35  2  0
 40 42  2  0
 25 24  1  0
 26 27  1  0
 27 24  2  0
 28 25  1  0
 29 24  1  0
 30 29  1  0
 31 25  1  0
 32 28  1  0
 53 48  2  0
 54 51  1  0
 55 52  1  0
 53 47  1  0
 55 56  1  0
 54 55  1  0
 56 49  1  0
 53 54  1  0
 56 50  2  0
  6 57  1  0
  6 58  1  0
  8 59  1  0
  9 60  1  0
 12 61  1  0
 15 62  1  0
 16 63  1  0
 17 64  1  0
 18 65  1  0
 20 66  1  0
 20 67  1  0
 20 68  1  0
 21 69  1  0
 21 70  1  0
 21 71  1  0
 22 72  1  0
 22 73  1  0
 22 74  1  0
 23 75  1  0
 23 76  1  0
 23 77  1  0
 29 78  1  0
 29 79  1  0
 31 80  1  0
 32 81  1  0
 35 82  1  0
 38 83  1  0
 39 84  1  0
 40 85  1  0
 41 86  1  0
 43 87  1  0
 43 88  1  0
 43 89  1  0
 44 90  1  0
 44 91  1  0
 44 92  1  0
 45 93  1  0
 45 94  1  0
 45 95  1  0
 46 96  1  0
 46 97  1  0
 46 98  1  0
 47 99  1  0
 49100  1  0
 51101  1  0
 52102  1  0
 54103  1  6
 55104  1  6
M  END
> <Uni-Dock RESULT> 
ENERGY=   -5.313  LOWER_BOUND=    2.179  UPPER_BOUND=    6.556
INTER + INTRA:          -5.313
INTER:                  -5.313
INTRA:                   0.000
UNBOUND:                 0.000

$$$$

     RDKit          3D

104107  0  0  0  0  0  0  0  0999 V2000
   50.2815    7.2376   16.4192 C   0  0  0  0  0  0  0  0  0  0  0  0
   50.1523    7.8650   15.1931 N   0  0  0  0  0  0  0  0  0  0  0  0
   48.1038    7.8322   16.1021 N   0  0  0  0  0  0  0  0  0  0  0  0
   49.0145    7.2953   16.9780 C   0  0  0  0  0  0  0  0  0  0  0  0
   48.8055    8.1860   15.0484 C   0  0  0  0  0  0  0  0  0  0  0  0
   51.5577    6.6358   16.9129 C   0  0  0  0  0  0  0  0  0  0  0  0
   52.5126    7.6844   17.4843 C   0  0  0  0  0  0  0  0  0  0  0  0
   51.1096    8.1460   14.2153 C   0  0  0  0  0  0  0  0  0  0  0  0
   48.4101    8.8137   13.8357 C   0  0  0  0  0  0  0  0  0  0  0  0
   48.6348    6.8068   18.2889 C   0  0  0  0  0  0  0  0  0  0  0  0
   50.7390    8.7488   13.0689 C   0  0  0  0  0  0  0  0  0  0  0  0
   49.3276    9.0820   12.8878 C   0  0  0  0  0  0  0  0  0  0  0  0
   53.6625    7.2034   18.1170 N   0  0  0  0  0  0  0  0  0  0  0  0
   52.2968    8.8928   17.3723 O   0  0  0  0  0  0  0  0  0  0  0  0
   47.5238    5.9686   18.4204 C   0  0  0  0  0  0  0  0  0  0  0  0
   49.3452    7.1829   19.4347 C   0  0  0  0  0  0  0  0  0  0  0  0
   47.1503    5.4797   19.6751 C   0  0  0  0  0  0  0  0  0  0  0  0
   48.9725    6.6954   20.6902 C   0  0  0  0  0  0  0  0  0  0  0  0
   47.8830    5.8258   20.8169 C   0  0  0  0  0  0  0  0  0  0  0  0
   51.6923    9.1086   11.9729 C   0  0  0  0  0  0  0  0  0  0  0  0
   54.5217    8.1622   18.7942 C   0  0  0  0  0  0  0  0  0  0  0  0
   53.8671    5.8049   18.4660 C   0  0  0  0  0  0  0  0  0  0  0  0
   47.4637    5.3292   22.1682 C   0  0  0  0  0  0  0  0  0  0  0  0
   50.0267    7.4830   16.5967 C   0  0  0  0  0  0  0  0  0  0  0  0
   49.6824    7.3401   15.2616 N   0  0  0  0  0  0  0  0  0  0  0  0
   48.1545    6.1905   16.4319 N   0  0  0  0  0  0  0  0  0  0  0  0
   49.0558    6.7743   17.2864 C   0  0  0  0  0  0  0  0  0  0  0  0
   48.5386    6.5465   15.2257 C   0  0  0  0  0  0  0  0  0  0  0  0
   51.2239    8.2441   17.0713 C   0  0  0  0  0  0  0  0  0  0  0  0
   52.5371    7.5103   16.7820 C   0  0  0  0  0  0  0  0  0  0  0  0
   50.2844    7.8550   14.1093 C   0  0  0  0  0  0  0  0  0  0  0  0
   47.9847    6.2548   13.9479 C   0  0  0  0  0  0  0  0  0  0  0  0
   48.9710    6.6130   18.7233 C   0  0  0  0  0  0  0  0  0  0  0  0
   49.7590    7.5857   12.8978 C   0  0  0  0  0  0  0  0  0  0  0  0
   48.5613    6.7499   12.8356 C   0  0  0  0  0  0  0  0  0  0  0  0
   53.6855    8.0145   17.3968 N   0  0  0  0  0  0  0  0  0  0  0  0
   52.5905    6.5483   16.0140 O   0  0  0  0  0  0  0  0  0  0  0  0
   48.8108    7.7184   19.5660 C   0  0  0  0  0  0  0  0  0  0  0  0
   49.0280    5.3310   19.2780 C   0  0  0  0  0  0  0  0  0  0  0  0
   48.7268    7.5447   20.9501 C   0  0  0  0  0  0  0  0  0  0  0  0
   48.9485    5.1582   20.6628 C   0  0  0  0  0  0  0  0  0  0  0  0
   48.7874    6.2625   21.5082 C   0  0  0  0  0  0  0  0  0  0  0  0
   50.3397    8.0797   11.6095 C   0  0  0  0  0  0  0  0  0  0  0  0
   54.9287    7.2706   17.2634 C   0  0  0  0  0  0  0  0  0  0  0  0
   53.6894    9.0897   18.3769 C   0  0  0  0  0  0  0  0  0  0  0  0
   48.7257    6.0789   22.9959 C   0  0  0  0  0  0  0  0  0  0  0  0
   52.1233    6.9561   15.2405 O   0  0  0  0  0  0  0  0  0  0  0  0
   51.0856    8.8964   15.6397 O   0  0  0  0  0  0  0  0  0  0  0  0
   48.7129    6.8686   16.4559 O   0  0  0  0  0  0  0  0  0  0  0  0
   48.1638    6.4064   18.5694 O   0  0  0  0  0  0  0  0  0  0  0  0
   51.5552    5.8813   17.5798 O   0  0  0  0  0  0  0  0  0  0  0  0
   50.3193    7.7413   19.6087 O   0  0  0  0  0  0  0  0  0  0  0  0
   51.4839    7.8242   16.0616 C   0  0  0  0  0  0  0  0  0  0  0  0
   51.4177    7.3040   17.4951 C   0  0  1  0  0  0  0  0  0  0  0  0
   50.1377    7.7829   18.1800 C   0  0  1  0  0  0  0  0  0  0  0  0
   48.9337    6.9396   17.7811 C   0  0  0  0  0  0  0  0  0  0  0  0
   52.0646    6.1116   16.0948 H   0  0  0  0  0  0  0  0  0  0  0  0
   51.3247    5.8977   17.6873 H   0  0  0  0  0  0  0  0  0  0  0  0
   52.1347    7.8755   14.4308 H   0  0  0  0  0  0  0  0  0  0  0  0
   47.3648    9.0668   13.7049 H   0  0  0  0  0  0  0  0  0  0  0  0
   49.0262    9.5628   11.9619 H   0  0  0  0  0  0  0  0  0  0  0  0
   46.9425    5.6969   17.5419 H   0  0  0  0  0  0  0  0  0  0  0  0
   50.1770    7.8799   19.3623 H   0  0  0  0  0  0  0  0  0  0  0  0
   46.2801    4.8321   19.7532 H   0  0  0  0  0  0  0  0  0  0  0  0
   49.5314    7.0100   21.5691 H   0  0  0  0  0  0  0  0  0  0  0  0
   51.6862   10.1895   11.7967 H   0  0  0  0  0  0  0  0  0  0  0  0
   51.4175    8.6039   11.0406 H   0  0  0  0  0  0  0  0  0  0  0  0
   52.7200    8.8178   12.2163 H   0  0  0  0  0  0  0  0  0  0  0  0
   55.5641    7.8537   18.6752 H   0  0  0  0  0  0  0  0  0  0  0  0
   54.4088    9.1705   18.3876 H   0  0  0  0  0  0  0  0  0  0  0  0
   54.2598    8.1738   19.8562 H   0  0  0  0  0  0  0  0  0  0  0  0
   54.9390    5.6003   18.5338 H   0  0  0  0  0  0  0  0  0  0  0  0
   53.3916    5.6164   19.4330 H   0  0  0  0  0  0  0  0  0  0  0  0
   53.4388    5.1374   17.7155 H   0  0  0  0  0  0  0  0  0  0  0  0
   46.7844    6.0474   22.6383 H   0  0  0  0  0  0  0  0  0  0  0  0
   48.3343    5.1861   22.8168 H   0  0  0  0  0  0  0  0  0  0  0  0
   46.9566    4.3616   22.0907 H   0  0  0  0  0  0  0  0  0  0  0  0
   51.1447    8.4011   18.1503 H   0  0  0  0  0  0  0  0  0  0  0  0
   51.2563    9.2266   16.5870 H   0  0  0  0  0  0  0  0  0  0  0  0
   51.1765    8.4534   14.2397 H   0  0  0  0  0  0  0  0  0  0  0  0
   47.0993    5.6311   13.9019 H   0  0  0  0  0  0  0  0  0  0  0  0
   48.1389    6.5244   11.8601 H   0  0  0  0  0  0  0  0  0  0  0  0
   48.7305    8.7181   19.1480 H   0  0  0  0  0  0  0  0  0  0  0  0
   49.1348    4.4626   18.6308 H   0  0  0  0  0  0  0  0  0  0  0  0
   48.6024    8.4159   21.5893 H   0  0  0  0  0  0  0  0  0  0  0  0
   49.0076    4.1530   21.0744 H   0  0  0  0  0  0  0  0  0  0  0  0
   50.6156    7.2394   10.9634 H   0  0  0  0  0  0  0  0  0  0  0  0
   51.2404    8.6809   11.7741 H   0  0  0  0  0  0  0  0  0  0  0  0
   49.6154    8.7046   11.0759 H   0  0  0  0  0  0  0  0  0  0  0  0
   55.7329    7.9671   17.0039 H   0  0  0  0  0  0  0  0  0  0  0  0
   55.1553    6.7939   18.2228 H   0  0  0  0  0  0  0  0  0  0  0  0
   54.8719    6.4985   16.4900 H   0  0  0  0  0  0  0  0  0  0  0  0
   53.5852    8.6515   19.3743 H   0  0  0  0  0  0  0  0  0  0  0  0
   52.8766    9.7996   18.2061 H   0  0  0  0  0  0  0  0  0  0  0  0
   54.6376    9.6347   18.3134 H   0  0  0  0  0  0  0  0  0  0  0  0
   49.7301    6.1459   23.4254 H   0  0  0  0  0  0  0  0  0  0  0  0
   48.0919    6.8440   23.4569 H   0  0  0  0  0  0  0  0  0  0  0  0
   48.2953    5.1061   23.2523 H   0  0  0  0  0  0  0  0  0  0  0  0
   52.0957    7.3976   14.3644 H   0  0  0  0  0  0  0  0  0  0  0  0
   47.9055    6.3153   16.3770 H   0  0  0  0  0  0  0  0  0  0  0  0
   52.2314    5.6427   16.9153 H   0  0  0  0  0  0  0  0  0  0  0  0
   49.5592    7.2387   19.9713 H   0  0  0  0  0  0  0  0  0  0  0  0
   52.2881    7.7229   18.0142 H   0  0  0  0  0  0  0  0  0  0  0  0
   49.9070    8.8257   17.9390 H   0  0  0  0  0  0  0  0  0  0  0  0
 10  4  1  0
 11  8  2  0
 12 11  1  0
 13  7  1  0
 14  7  2  0
 15 10  2  0
 16 10  1  0
 17 15  1  0
 18 16  2  0
 19 18  1  0
 20 11  1  0
 21 13  1  0
 22 13  1  0
 23 19  1  0
  3  5  2  0
  9 12  2  0
 17 19  2  0
  2  1  1  0
  3  4  1  0
  4  1  2  0
  5  2  1  0
  6  1  1  0
  7  6  1  0
  8  2  1  0
  9  5  1  0
 33 27  1  0
 34 31  2  0
 35 34  1  0
 36 30  1  0
 37 30  2  0
 38 33  2  0
 39 33  1  0
 40 38  1  0
 41 39  2  0
 42 41  1  0
 43 34  1  0
 44 36  1  0
 45 36  1  0
 46 42  1  0
 26 28  2  0
 32 35  2  0
 40 42  2  0
 25 24  1  0
 26 27  1  0
 27 24  2  0
 28 25  1  0
 29 24  1  0
 30 29  1  0
 31 25  1  0
 32 28  1  0
 53 48  2  0
 54 51  1  0
 55 52  1  0
 53 47  1  0
 55 56  1  0
 54 55  1  0
 56 49  1  0
 53 54  1  0
 56 50  2  0
  6 57  1  0
  6 58  1  0
  8 59  1  0
  9 60  1  0
 12 61  1  0
 15 62  1  0
 16 63  1  0
 17 64  1  0
 18 65  1  0
 20 66  1  0
 20 67  1  0
 20 68  1  0
 21 69  1  0
 21 70  1  0
 21 71  1  0
 22 72  1  0
 22 73  1  0
 22 74  1  0
 23 75  1  0
 23 76  1  0
 23 77  1  0
 29 78  1  0
 29 79  1  0
 31 80  1  0
 32 81  1  0
 35 82  1  0
 38 83  1  0
 39 84  1  0
 40 85  1  0
 41 86  1  0
 43 87  1  0
 43 88  1  0
 43 89  1  0
 44 90  1  0
 44 91  1  0
 44 92  1  0
 45 93  1  0
 45 94  1  0
 45 95  1  0
 46 96  1  0
 46 97  1  0
 46 98  1  0
 47 99  1  0
 49100  1  0
 51101  1  0
 52102  1  0
 54103  1  6
 55104  1  6
M  END
> <Uni-Dock RESULT> 
ENERGY=   -5.304  LOWER_BOUND=    2.983  UPPER_BOUND=    3.799
INTER + INTRA:          -5.304
INTER:                  -5.304
INTRA:                   0.000
UNBOUND:                 0.000

$$$$

     RDKit          3D

104107  0  0  0  0  0  0  0  0999 V2000
   44.5154   12.4627    9.8252 C   0  0  0  0  0  0  0  0  0  0  0  0
   45.8855   12.3442    9.9752 N   0  0  0  0  0  0  0  0  0  0  0  0
   44.9747   11.5475   11.8619 N   0  0  0  0  0  0  0  0  0  0  0  0
   43.9866   11.9015   10.9769 C   0  0  0  0  0  0  0  0  0  0  0  0
   46.1037   11.8001   11.2378 C   0  0  0  0  0  0  0  0  0  0  0  0
   43.8625   13.1067    8.6447 C   0  0  0  0  0  0  0  0  0  0  0  0
   43.7928   12.1721    7.4366 C   0  0  0  0  0  0  0  0  0  0  0  0
   46.9239   12.6921    9.1080 C   0  0  0  0  0  0  0  0  0  0  0  0
   47.4531   11.6144   11.6449 C   0  0  0  0  0  0  0  0  0  0  0  0
   42.5785   11.7450   11.2834 C   0  0  0  0  0  0  0  0  0  0  0  0
   48.2035   12.5088    9.4878 C   0  0  0  0  0  0  0  0  0  0  0  0
   48.4578   11.9529   10.8152 C   0  0  0  0  0  0  0  0  0  0  0  0
   43.0574   12.6254    6.3377 N   0  0  0  0  0  0  0  0  0  0  0  0
   44.3748   11.0856    7.4182 O   0  0  0  0  0  0  0  0  0  0  0  0
   42.0850   12.1849   12.5152 C   0  0  0  0  0  0  0  0  0  0  0  0
   41.7046   11.1331   10.3774 C   0  0  0  0  0  0  0  0  0  0  0  0
   40.7282   12.0518   12.8226 C   0  0  0  0  0  0  0  0  0  0  0  0
   40.3479   10.9987   10.6837 C   0  0  0  0  0  0  0  0  0  0  0  0
   39.8467   11.4734   11.9014 C   0  0  0  0  0  0  0  0  0  0  0  0
   49.3816   12.8308    8.6232 C   0  0  0  0  0  0  0  0  0  0  0  0
   42.8515   11.7080    5.2277 C   0  0  0  0  0  0  0  0  0  0  0  0
   42.1817   13.7878    6.3761 C   0  0  0  0  0  0  0  0  0  0  0  0
   38.3971   11.2993   12.2431 C   0  0  0  0  0  0  0  0  0  0  0  0
   44.4436   12.1159   10.0020 C   0  0  0  0  0  0  0  0  0  0  0  0
   45.5963   12.6774   10.5287 N   0  0  0  0  0  0  0  0  0  0  0  0
   44.0137   12.8987   12.1009 N   0  0  0  0  0  0  0  0  0  0  0  0
   43.4961   12.2578   11.0033 C   0  0  0  0  0  0  0  0  0  0  0  0
   45.2728   13.1343   11.8038 C   0  0  0  0  0  0  0  0  0  0  0  0
   44.3545   11.5316    8.6278 C   0  0  0  0  0  0  0  0  0  0  0  0
   44.3660   12.6036    7.5336 C   0  0  0  0  0  0  0  0  0  0  0  0
   46.8771   12.8010    9.9813 C   0  0  0  0  0  0  0  0  0  0  0  0
   46.3065   13.7580   12.5570 C   0  0  0  0  0  0  0  0  0  0  0  0
   42.1139   11.8290   10.9423 C   0  0  0  0  0  0  0  0  0  0  0  0
   47.8601   13.3858   10.6942 C   0  0  0  0  0  0  0  0  0  0  0  0
   47.5419   13.8780   12.0334 C   0  0  0  0  0  0  0  0  0  0  0  0
   44.0435   12.1835    6.2411 N   0  0  0  0  0  0  0  0  0  0  0  0
   44.6829   13.7709    7.7682 O   0  0  0  0  0  0  0  0  0  0  0  0
   41.7829   10.4801   10.7736 C   0  0  0  0  0  0  0  0  0  0  0  0
   41.0922   12.7739   11.0756 C   0  0  0  0  0  0  0  0  0  0  0  0
   40.4441   10.0829   10.7207 C   0  0  0  0  0  0  0  0  0  0  0  0
   39.7532   12.3766   11.0182 C   0  0  0  0  0  0  0  0  0  0  0  0
   39.4192   11.0275   10.8502 C   0  0  0  0  0  0  0  0  0  0  0  0
   49.2562   13.5755   10.1884 C   0  0  0  0  0  0  0  0  0  0  0  0
   43.9061   13.1883    5.1978 C   0  0  0  0  0  0  0  0  0  0  0  0
   43.5799   10.8467    5.9021 C   0  0  0  0  0  0  0  0  0  0  0  0
   37.9824   10.6044   10.7649 C   0  0  0  0  0  0  0  0  0  0  0  0
   45.5396   13.5958    8.2354 O   0  0  0  0  0  0  0  0  0  0  0  0
   45.9223   11.4679    8.8068 O   0  0  0  0  0  0  0  0  0  0  0  0
   44.2827   12.4136   11.4194 O   0  0  0  0  0  0  0  0  0  0  0  0
   42.1455   11.8852   11.7872 O   0  0  0  0  0  0  0  0  0  0  0  0
   42.9487   13.5234    8.7165 O   0  0  0  0  0  0  0  0  0  0  0  0
   41.8017   10.7938    9.2974 O   0  0  0  0  0  0  0  0  0  0  0  0
   45.1175   12.3558    8.5826 C   0  0  0  0  0  0  0  0  0  0  0  0
   43.5945   12.2532    8.5757 C   0  0  1  0  0  0  0  0  0  0  0  0
   43.1196   11.2644    9.6404 C   0  0  1  0  0  0  0  0  0  0  0  0
   43.1061   11.8913   11.0284 C   0  0  0  0  0  0  0  0  0  0  0  0
   44.4162   14.0076    8.3569 H   0  0  0  0  0  0  0  0  0  0  0  0
   42.8495   13.4137    8.9242 H   0  0  0  0  0  0  0  0  0  0  0  0
   46.6509   13.0890    8.1393 H   0  0  0  0  0  0  0  0  0  0  0  0
   47.6409   11.1957   12.6263 H   0  0  0  0  0  0  0  0  0  0  0  0
   49.4887   11.8098   11.1253 H   0  0  0  0  0  0  0  0  0  0  0  0
   42.7604   12.6306   13.2421 H   0  0  0  0  0  0  0  0  0  0  0  0
   42.0784   10.7317    9.4381 H   0  0  0  0  0  0  0  0  0  0  0  0
   40.3681   12.3980   13.7886 H   0  0  0  0  0  0  0  0  0  0  0  0
   39.6885   10.5092    9.9699 H   0  0  0  0  0  0  0  0  0  0  0  0
   49.9777   11.9318    8.4342 H   0  0  0  0  0  0  0  0  0  0  0  0
   50.0224   13.5766    9.1053 H   0  0  0  0  0  0  0  0  0  0  0  0
   49.0750   13.2358    7.6526 H   0  0  0  0  0  0  0  0  0  0  0  0
   42.8698   12.2716    4.2907 H   0  0  0  0  0  0  0  0  0  0  0  0
   43.6259   10.9377    5.1853 H   0  0  0  0  0  0  0  0  0  0  0  0
   41.8763   11.2280    5.3500 H   0  0  0  0  0  0  0  0  0  0  0  0
   42.0717   14.1935    5.3668 H   0  0  0  0  0  0  0  0  0  0  0  0
   41.2058   13.4734    6.7577 H   0  0  0  0  0  0  0  0  0  0  0  0
   42.5856   14.5733    7.0179 H   0  0  0  0  0  0  0  0  0  0  0  0
   38.2344   10.3191   12.7021 H   0  0  0  0  0  0  0  0  0  0  0  0
   37.7742   11.3798   11.3460 H   0  0  0  0  0  0  0  0  0  0  0  0
   38.0621   12.0756   12.9392 H   0  0  0  0  0  0  0  0  0  0  0  0
   43.4281   10.9576    8.5414 H   0  0  0  0  0  0  0  0  0  0  0  0
   45.1941   10.8480    8.4588 H   0  0  0  0  0  0  0  0  0  0  0  0
   47.0275   12.4236    8.9784 H   0  0  0  0  0  0  0  0  0  0  0  0
   46.0689   14.1270   13.5481 H   0  0  0  0  0  0  0  0  0  0  0  0
   48.3299   14.3567   12.6085 H   0  0  0  0  0  0  0  0  0  0  0  0
   42.5652    9.7294   10.7026 H   0  0  0  0  0  0  0  0  0  0  0  0
   41.3380   13.8234   11.2248 H   0  0  0  0  0  0  0  0  0  0  0  0
   40.2061    9.0298   10.5890 H   0  0  0  0  0  0  0  0  0  0  0  0
   38.9739   13.1298   11.1116 H   0  0  0  0  0  0  0  0  0  0  0  0
   49.5179   14.6388   10.1675 H   0  0  0  0  0  0  0  0  0  0  0  0
   49.3767   13.1844    9.1724 H   0  0  0  0  0  0  0  0  0  0  0  0
   49.9726   13.0544   10.8327 H   0  0  0  0  0  0  0  0  0  0  0  0
   44.4498   12.8528    4.3084 H   0  0  0  0  0  0  0  0  0  0  0  0
   42.8438   13.2974    4.9557 H   0  0  0  0  0  0  0  0  0  0  0  0
   44.3009   14.1624    5.5022 H   0  0  0  0  0  0  0  0  0  0  0  0
   42.4877   10.8300    5.9691 H   0  0  0  0  0  0  0  0  0  0  0  0
   43.9958   10.0895    6.5710 H   0  0  0  0  0  0  0  0  0  0  0  0
   43.8880   10.6048    4.8790 H   0  0  0  0  0  0  0  0  0  0  0  0
   37.6488   10.6127    9.7226 H   0  0  0  0  0  0  0  0  0  0  0  0
   37.8483    9.5963   11.1715 H   0  0  0  0  0  0  0  0  0  0  0  0
   37.3423   11.2746   11.3467 H   0  0  0  0  0  0  0  0  0  0  0  0
   46.5179   13.5323    8.2810 H   0  0  0  0  0  0  0  0  0  0  0  0
   44.1062   12.7505   12.3247 H   0  0  0  0  0  0  0  0  0  0  0  0
   43.4822   14.1494    8.1883 H   0  0  0  0  0  0  0  0  0  0  0  0
   41.2431   10.9264   10.0925 H   0  0  0  0  0  0  0  0  0  0  0  0
   43.3163   11.8816    7.5823 H   0  0  0  0  0  0  0  0  0  0  0  0
   43.7524   10.3721    9.6854 H   0  0  0  0  0  0  0  0  0  0  0  0
 10  4  1  0
 11  8  2  0
 12 11  1  0
 13  7  1  0
 14  7  2  0
 15 10  2  0
 16 10  1  0
 17 15  1  0
 18 16  2  0
 19 18  1  0
 20 11  1  0
 21 13  1  0
 22 13  1  0
 23 19  1  0
  3  5  2  0
  9 12  2  0
 17 19  2  0
  2  1  1  0
  3  4  1  0
  4  1  2  0
  5  2  1  0
  6  1  1  0
  7  6  1  0
  8  2  1  0
  9  5  1  0
 33 27  1  0
 34 31  2  0
 35 34  1  0
 36 30  1  0
 37 30  2  0
 38 33  2  0
 39 33  1  0
 40 38  1  0
 41 39  2  0
 42 41  1  0
 43 34  1  0
 44 36  1  0
 45 36  1  0
 46 42  1  0
 26 28  2  0
 32 35  2  0
 40 42  2  0
 25 24  1  0
 26 27  1  0
 27 24  2  0
 28 25  1  0
 29 24  1  0
 30 29  1  0
 31 25  1  0
 32 28  1  0
 53 48  2  0
 54 51  1  0
 55 52  1  0
 53 47  1  0
 55 56  1  0
 54 55  1  0
 56 49  1  0
 53 54  1  0
 56 50  2  0
  6 57  1  0
  6 58  1  0
  8 59  1  0
  9 60  1  0
 12 61  1  0
 15 62  1  0
 16 63  1  0
 17 64  1  0
 18 65  1  0
 20 66  1  0
 20 67  1  0
 20 68  1  0
 21 69  1  0
 21 70  1  0
 21 71  1  0
 22 72  1  0
 22 73  1  0
 22 74  1  0
 23 75  1  0
 23 76  1  0
 23 77  1  0
 29 78  1  0
 29 79  1  0
 31 80  1  0
 32 81  1  0
 35 82  1  0
 38 83  1  0
 39 84  1  0
 40 85  1  0
 41 86  1  0
 43 87  1  0
 43 88  1  0
 43 89  1  0
 44 90  1  0
 44 91  1  0
 44 92  1  0
 45 93  1  0
 45 94  1  0
 45 95  1  0
 46 96  1  0
 46 97  1  0
 46 98  1  0
 47 99  1  0
 49100  1  0
 51101  1  0
 52102  1  0
 54103  1  6
 55104  1  6
M  END
> <Uni-Dock RESULT> 
ENERGY=   -5.164  LOWER_BOUND=    6.807  UPPER_BOUND=    9.894
INTER + INTRA:          -5.164
INTER:                  -5.164
INTRA:                   0.000
UNBOUND:                 0.000

$$$$
