
     RDKit          3D

 34 31  0  0  0  0  0  0  0  0999 V2000
    0.0000    0.0000    0.0000 O   0  0  0  0  0  0  0  0  0  0  0  0
    2.5531    0.2531   -1.3504 C   0  0  0  0  0  0  0  0  0  0  0  0
    3.2998    0.3400   -0.1951 C   0  0  0  0  0  0  0  0  0  0  0  0
    2.6785    0.1149    0.9752 N   0  0  0  0  0  0  0  0  0  0  0  0
    1.3648   -0.1873    1.0252 C   0  0  0  0  0  0  0  0  0  0  0  0
    0.5843   -0.2835   -0.1089 C   0  0  0  0  0  0  0  0  0  0  0  0
    1.2112   -0.0546   -1.3150 C   0  0  0  0  0  0  0  0  0  0  0  0
   -0.8373   -0.6166    0.0284 C   0  0  1  0  0  0  0  0  0  0  0  0
   -1.5333    0.0984    1.0650 N   0  0  0  0  0  0  0  0  0  0  0  0
   -2.8784   -0.4766    0.9036 C   0  0  0  0  0  0  0  0  0  0  0  0
   -3.0837   -0.4000   -0.6079 C   0  0  0  0  0  0  0  0  0  0  0  0
   -1.6623   -0.3094   -1.1797 C   0  0  0  0  0  0  0  0  0  0  0  0
   -1.6966    1.5216    0.7597 C   0  0  0  0  0  0  0  0  0  0  0  0
   -0.9582   -1.7641   -0.3969 O   0  0  0  0  0  0  0  0  0  0  0  0
   -2.7020   -0.2341   -0.1563 O   0  0  0  0  0  0  0  0  0  0  0  0
   -1.2773    1.8714   -0.3602 O   0  0  0  0  0  0  0  0  0  0  0  0
    0.4289    0.8637    1.7348 O   0  0  0  0  0  0  0  0  0  0  0  0
    2.3431   -0.9376    0.8614 O   0  0  0  0  0  0  0  0  0  0  0  0
    1.9106   -0.4735   -1.3237 O   0  0  0  0  0  0  0  0  0  0  0  0
   -1.4568   -0.4691   -0.3300 C   0  0  0  0  0  0  0  0  0  0  0  0
   -0.5788    0.7067   -0.4555 C   0  0  0  0  0  0  0  0  0  0  0  0
    0.6294    0.7049    0.3995 C   0  0  0  0  0  0  0  0  0  0  0  0
    1.6610   -0.2683    0.0269 C   0  0  0  0  0  0  0  0  0  0  0  0
    2.1272    1.1106    0.2475 O   0  0  0  0  0  0  0  0  0  0  0  0
    2.2028   -0.8216   -1.0132 O   0  0  0  0  0  0  0  0  0  0  0  0
    0.1301   -1.9442    0.2869 O   0  0  0  0  0  0  0  0  0  0  0  0
   -0.2461    1.5977    1.0705 O   0  0  0  0  0  0  0  0  0  0  0  0
   -1.9684   -0.9456   -0.7442 O   0  0  0  0  0  0  0  0  0  0  0  0
   -2.2669    1.3135   -0.8278 O   0  0  0  0  0  0  0  0  0  0  0  0
    1.6650   -0.1574   -0.0884 C   0  0  0  0  0  0  0  0  0  0  0  0
    0.5125   -0.6748    0.7001 C   0  0  0  0  0  0  0  0  0  0  0  0
   -0.5520    0.3340    0.6783 C   0  0  0  0  0  0  0  0  0  0  0  0
   -1.6042    0.1878   -0.3096 C   0  0  0  0  0  0  0  0  0  0  0  0
    0.0000    0.0000    0.0000 O   0  0  0  0  0  0  0  0  0  0  0  0
  7  2  2  0
  2  3  1  0
  8  6  1  6
  8  9  1  0
  4  5  1  0
  5  6  2  0
  3  4  2  0
  9 10  1  0
 10 11  1  0
 11 12  1  0
  8 12  1  0
  6  7  1  0
  9 13  1  0
 20 15  2  0
 21 16  1  0
 22 17  1  0
 20 14  1  0
 22 23  1  0
 21 22  1  0
 23 19  1  0
 20 21  1  0
 23 18  2  0
 30 25  2  0
 31 26  1  0
 32 27  1  0
 30 24  1  0
 32 33  1  0
 31 32  1  0
 33 29  1  0
 30 31  1  0
 33 28  2  0
M  END
