
     RDKit          3D

 64 61  0  0  0  0  0  0  0  0999 V2000
    0.0425    0.3954    0.0000 O   0  0  0  0  0  0  0  0  0  0  0  0
    3.3443   -0.2564    0.4892 C   0  0  0  0  0  0  0  0  0  0  0  0
    3.6000    0.9918    1.0286 C   0  0  0  0  0  0  0  0  0  0  0  0
    2.6369    1.8314    1.4557 N   0  0  0  0  0  0  0  0  0  0  0  0
    1.3588    1.4004    1.3303 C   0  0  0  0  0  0  0  0  0  0  0  0
    0.9821    0.1691    0.7904 C   0  0  0  0  0  0  0  0  0  0  0  0
    2.0191   -0.6728    0.3760 C   0  0  0  0  0  0  0  0  0  0  0  0
   -0.4801   -0.2051    0.7419 C   0  0  1  0  0  0  0  0  0  0  0  0
   -1.3864    0.7910    0.1134 N   0  0  0  0  0  0  0  0  0  0  0  0
   -2.6783    0.0845    0.0480 C   0  0  0  0  0  0  0  0  0  0  0  0
   -2.3526   -1.3762   -0.2426 C   0  0  0  0  0  0  0  0  0  0  0  0
   -0.8690   -1.5284    0.0736 C   0  0  0  0  0  0  0  0  0  0  0  0
   -0.9670    1.2048   -1.2311 C   0  0  0  0  0  0  0  0  0  0  0  0
   -1.3452    0.6510   -2.1975 O   0  0  0  0  0  0  0  0  0  0  0  0
   -2.4799    0.1342   -0.3360 O   0  0  0  0  0  0  0  0  0  0  0  0
    0.9730   -0.2829   -1.3498 O   0  0  0  0  0  0  0  0  0  0  0  0
    1.0283   -1.6352    1.2661 O   0  0  0  0  0  0  0  0  0  0  0  0
   -0.0757    1.8199    1.1009 O   0  0  0  0  0  0  0  0  0  0  0  0
    1.7863    0.7965    1.7914 O   0  0  0  0  0  0  0  0  0  0  0  0
   -1.4477    0.0599   -0.9808 C   0  0  0  0  0  0  0  0  0  0  0  0
   -0.1815   -0.7102   -0.6157 C   0  0  2  0  0  0  0  0  0  0  0  0
    0.0767   -0.6284    0.8875 C   0  0  2  0  0  0  0  0  0  0  0  0
    0.5427    0.7795    1.2575 C   0  0  0  0  0  0  0  0  0  0  0  0
    2.1334   -1.5621    0.0131 O   0  0  0  0  0  0  0  0  0  0  0  0
    1.8693    0.5202    0.7808 O   0  0  0  0  0  0  0  0  0  0  0  0
   -0.3958   -2.0861   -0.2418 O   0  0  0  0  0  0  0  0  0  0  0  0
   -1.2959    0.9360    1.5143 O   0  0  0  0  0  0  0  0  0  0  0  0
    0.0710    0.7516   -1.8006 O   0  0  0  0  0  0  0  0  0  0  0  0
   -1.0002    2.3518   -0.6662 O   0  0  0  0  0  0  0  0  0  0  0  0
    1.3653   -0.5491    0.4890 C   0  0  0  0  0  0  0  0  0  0  0  0
   -0.1010   -0.9715    0.6169 C   0  0  1  0  0  0  0  0  0  0  0  0
   -1.0693    0.1754    0.3190 C   0  0  2  0  0  0  0  0  0  0  0  0
   -0.5825    1.0712   -0.8227 C   0  0  0  0  0  0  0  0  0  0  0  0
   -0.0600    0.3929    0.0000 O   0  0  0  0  0  0  0  0  0  0  0  0
    0.7375   -0.2792    0.0000 H   0  0  0  0  0  0  0  0  0  0  0  0
   -0.7799   -0.1162    0.0000 H   0  0  0  0  0  0  0  0  0  0  0  0
    4.1604   -0.8960    0.1695 H   0  0  0  0  0  0  0  0  0  0  0  0
    4.6167    1.3576    1.1378 H   0  0  0  0  0  0  0  0  0  0  0  0
    0.6081    2.1022    1.6861 H   0  0  0  0  0  0  0  0  0  0  0  0
    1.8193   -1.6594   -0.0324 H   0  0  0  0  0  0  0  0  0  0  0  0
   -0.7831   -0.2863    1.7982 H   0  0  0  0  0  0  0  0  0  0  0  0
   -3.1677    0.1625    1.0272 H   0  0  0  0  0  0  0  0  0  0  0  0
   -3.3750    0.5111   -0.6821 H   0  0  0  0  0  0  0  0  0  0  0  0
   -2.9638   -2.0450    0.3701 H   0  0  0  0  0  0  0  0  0  0  0  0
   -2.5377   -1.6191   -1.2945 H   0  0  0  0  0  0  0  0  0  0  0  0
   -0.3209   -1.6982   -0.8604 H   0  0  0  0  0  0  0  0  0  0  0  0
   -0.6822   -2.3865    0.7277 H   0  0  0  0  0  0  0  0  0  0  0  0
   -0.0164    1.7469   -1.2034 H   0  0  0  0  0  0  0  0  0  0  0  0
   -1.6997    1.9056   -1.6479 H   0  0  0  0  0  0  0  0  0  0  0  0
   -0.8661    0.3706   -1.9334 H   0  0  0  0  0  0  0  0  0  0  0  0
   -2.2003    1.1218   -2.3020 H   0  0  0  0  0  0  0  0  0  0  0  0
    0.6446   -0.0613   -2.2444 H   0  0  0  0  0  0  0  0  0  0  0  0
    1.9036   -1.2010    1.1929 H   0  0  0  0  0  0  0  0  0  0  0  0
    1.9580    1.7459    1.9664 H   0  0  0  0  0  0  0  0  0  0  0  0
   -0.3550   -1.7533   -0.9044 H   0  0  0  0  0  0  0  0  0  0  0  0
   -0.8281   -0.8365    1.4678 H   0  0  0  0  0  0  0  0  0  0  0  0
    3.0309   -1.1690   -0.0458 H   0  0  0  0  0  0  0  0  0  0  0  0
    0.4538   -2.5610   -0.3504 H   0  0  0  0  0  0  0  0  0  0  0  0
   -1.5956    1.8177    1.2134 H   0  0  0  0  0  0  0  0  0  0  0  0
   -0.6050    2.8220   -1.4316 H   0  0  0  0  0  0  0  0  0  0  0  0
   -0.2350   -1.3258    1.6453 H   0  0  0  0  0  0  0  0  0  0  0  0
   -2.0434   -0.2213    0.0095 H   0  0  0  0  0  0  0  0  0  0  0  0
   -0.7241   -0.3114    0.0000 H   0  0  0  0  0  0  0  0  0  0  0  0
    0.7841   -0.0815    0.0000 H   0  0  0  0  0  0  0  0  0  0  0  0
  7  2  2  0
  2  3  1  0
  8  6  1  0
  8  9  1  0
  4  5  1  0
  5  6  2  0
  3  4  2  0
  9 10  1  0
 10 11  1  0
 11 12  1  0
  8 12  1  0
  6  7  1  0
  9 13  1  0
 20 15  2  0
 21 16  1  0
 22 17  1  0
 20 14  1  0
 22 23  1  0
 21 22  1  0
 23 19  1  0
 20 21  1  0
 23 18  2  0
 30 25  2  0
 31 26  1  0
 32 27  1  0
 30 24  1  0
 32 33  1  0
 31 32  1  0
 33 29  1  0
 30 31  1  0
 33 28  2  0
  1 35  1  0
  1 36  1  0
  2 37  1  0
  3 38  1  0
  5 39  1  0
  7 40  1  0
  8 41  1  1
 10 42  1  0
 10 43  1  0
 11 44  1  0
 11 45  1  0
 12 46  1  0
 12 47  1  0
 13 48  1  0
 13 49  1  0
 13 50  1  0
 14 51  1  0
 16 52  1  0
 17 53  1  0
 19 54  1  0
 21 55  1  6
 22 56  1  1
 24 57  1  0
 26 58  1  0
 27 59  1  0
 29 60  1  0
 31 61  1  1
 32 62  1  6
 34 63  1  0
 34 64  1  0
M  END
$$$$
