
     RDKit          3D

 64 61  0  0  0  0  0  0  0  0999 V2000
    0.0210    0.3973    0.0000 O   0  0  0  0  0  0  0  0  0  0  0  0
    2.8514   -1.5905    0.1703 C   0  0  0  0  0  0  0  0  0  0  0  0
    3.7435   -0.6368   -0.2871 C   0  0  0  0  0  0  0  0  0  0  0  0
    3.4134    0.6516   -0.5030 N   0  0  0  0  0  0  0  0  0  0  0  0
    2.1275    0.9959   -0.2525 C   0  0  0  0  0  0  0  0  0  0  0  0
    1.1472    0.1262    0.2294 C   0  0  0  0  0  0  0  0  0  0  0  0
    1.5379   -1.2019    0.4293 C   0  0  0  0  0  0  0  0  0  0  0  0
   -0.2495    0.6673    0.4777 C   0  0  1  0  0  0  0  0  0  0  0  0
   -0.9810    0.8138   -0.7997 N   0  0  0  0  0  0  0  0  0  0  0  0
   -1.6581   -0.4728   -1.0140 C   0  0  0  0  0  0  0  0  0  0  0  0
   -1.9877   -1.0293    0.3642 C   0  0  0  0  0  0  0  0  0  0  0  0
   -1.1737   -0.1948    1.3448 C   0  0  0  0  0  0  0  0  0  0  0  0
   -1.9410    1.9170   -0.7523 C   0  0  0  0  0  0  0  0  0  0  0  0
   -1.6991    1.1133    0.2909 O   0  0  0  0  0  0  0  0  0  0  0  0
   -2.5374   -0.8075   -0.4570 O   0  0  0  0  0  0  0  0  0  0  0  0
   -0.4029   -2.2698    0.5578 O   0  0  0  0  0  0  0  0  0  0  0  0
    0.6962   -0.7477   -1.5833 O   0  0  0  0  0  0  0  0  0  0  0  0
    1.3551    1.8918   -0.9580 O   0  0  0  0  0  0  0  0  0  0  0  0
    1.2983    1.4972    1.2398 O   0  0  0  0  0  0  0  0  0  0  0  0
   -1.6158   -0.2168    0.0850 C   0  0  0  0  0  0  0  0  0  0  0  0
   -0.3237   -0.8358    0.6119 C   0  0  2  0  0  0  0  0  0  0  0  0
    0.8819   -0.3803   -0.2088 C   0  0  2  0  0  0  0  0  0  0  0  0
    1.1713    1.1053   -0.0407 C   0  0  0  0  0  0  0  0  0  0  0  0
    1.6141    1.1825   -1.4076 O   0  0  0  0  0  0  0  0  0  0  0  0
    2.3350   -0.9279   -1.3201 O   0  0  0  0  0  0  0  0  0  0  0  0
    0.9283   -1.4261    1.0332 O   0  0  0  0  0  0  0  0  0  0  0  0
   -1.2486   -1.3746   -0.4624 O   0  0  0  0  0  0  0  0  0  0  0  0
   -2.4424   -0.0084    1.6634 O   0  0  0  0  0  0  0  0  0  0  0  0
   -1.2869    1.8484    1.2222 O   0  0  0  0  0  0  0  0  0  0  0  0
    1.6246   -0.0478   -0.8588 C   0  0  0  0  0  0  0  0  0  0  0  0
    0.7094   -0.1839    0.3492 C   0  0  1  0  0  0  0  0  0  0  0  0
   -0.7477   -0.0801   -0.1031 C   0  0  2  0  0  0  0  0  0  0  0  0
   -1.5759    0.5497    1.0078 C   0  0  0  0  0  0  0  0  0  0  0  0
    0.0342    0.3964    0.0000 O   0  0  0  0  0  0  0  0  0  0  0  0
    0.7519   -0.2390    0.0000 H   0  0  0  0  0  0  0  0  0  0  0  0
   -0.7729   -0.1583    0.0000 H   0  0  0  0  0  0  0  0  0  0  0  0
    3.1693   -2.6162    0.3190 H   0  0  0  0  0  0  0  0  0  0  0  0
    4.7767   -0.8928   -0.5018 H   0  0  0  0  0  0  0  0  0  0  0  0
    1.8930    2.0374   -0.4602 H   0  0  0  0  0  0  0  0  0  0  0  0
    0.8352   -1.9522    0.7771 H   0  0  0  0  0  0  0  0  0  0  0  0
   -0.1147    1.6365    0.9784 H   0  0  0  0  0  0  0  0  0  0  0  0
   -2.5452   -0.3973   -1.6532 H   0  0  0  0  0  0  0  0  0  0  0  0
   -0.9676   -1.1534   -1.5273 H   0  0  0  0  0  0  0  0  0  0  0  0
   -3.0566   -0.9339    0.5851 H   0  0  0  0  0  0  0  0  0  0  0  0
   -1.7248   -2.0902    0.4302 H   0  0  0  0  0  0  0  0  0  0  0  0
   -0.6561   -0.8103    2.0867 H   0  0  0  0  0  0  0  0  0  0  0  0
   -1.8629    0.4530    1.9026 H   0  0  0  0  0  0  0  0  0  0  0  0
   -2.7003    1.7958    0.0280 H   0  0  0  0  0  0  0  0  0  0  0  0
   -1.4209    2.8663   -0.5821 H   0  0  0  0  0  0  0  0  0  0  0  0
   -2.4547    2.0118   -1.7156 H   0  0  0  0  0  0  0  0  0  0  0  0
   -2.5739    1.3505   -0.0876 H   0  0  0  0  0  0  0  0  0  0  0  0
   -0.5851   -2.4830   -0.3800 H   0  0  0  0  0  0  0  0  0  0  0  0
    1.3023   -0.1862   -2.1061 H   0  0  0  0  0  0  0  0  0  0  0  0
    1.4829    2.4593    1.1868 H   0  0  0  0  0  0  0  0  0  0  0  0
   -0.2276   -0.5699    1.6696 H   0  0  0  0  0  0  0  0  0  0  0  0
    1.7774   -0.9201    0.1208 H   0  0  0  0  0  0  0  0  0  0  0  0
    2.2536    1.1207   -2.1495 H   0  0  0  0  0  0  0  0  0  0  0  0
    1.0283   -2.1010    0.3312 H   0  0  0  0  0  0  0  0  0  0  0  0
   -1.4091   -1.8404    0.3834 H   0  0  0  0  0  0  0  0  0  0  0  0
   -1.9044    2.1184    1.9362 H   0  0  0  0  0  0  0  0  0  0  0  0
    0.9926    0.6119    1.0468 H   0  0  0  0  0  0  0  0  0  0  0  0
   -0.8711    0.5587   -0.9843 H   0  0  0  0  0  0  0  0  0  0  0  0
   -0.7777   -0.1326    0.0000 H   0  0  0  0  0  0  0  0  0  0  0  0
    0.7436   -0.2637    0.0000 H   0  0  0  0  0  0  0  0  0  0  0  0
  7  2  2  0
  2  3  1  0
  8  6  1  0
  8  9  1  0
  4  5  1  0
  5  6  2  0
  3  4  2  0
  9 10  1  0
 10 11  1  0
 11 12  1  0
  8 12  1  0
  6  7  1  0
  9 13  1  0
 20 15  2  0
 21 16  1  0
 22 17  1  0
 20 14  1  0
 22 23  1  0
 21 22  1  0
 23 19  1  0
 20 21  1  0
 23 18  2  0
 30 25  2  0
 31 26  1  0
 32 27  1  0
 30 24  1  0
 32 33  1  0
 31 32  1  0
 33 29  1  0
 30 31  1  0
 33 28  2  0
  1 35  1  0
  1 36  1  0
  2 37  1  0
  3 38  1  0
  5 39  1  0
  7 40  1  0
  8 41  1  1
 10 42  1  0
 10 43  1  0
 11 44  1  0
 11 45  1  0
 12 46  1  0
 12 47  1  0
 13 48  1  0
 13 49  1  0
 13 50  1  0
 14 51  1  0
 16 52  1  0
 17 53  1  0
 19 54  1  0
 21 55  1  1
 22 56  1  1
 24 57  1  0
 26 58  1  0
 27 59  1  0
 29 60  1  0
 31 61  1  1
 32 62  1  6
 34 63  1  0
 34 64  1  0
M  END
$$$$
