
     RDKit          3D

 64 61  0  0  0  0  0  0  0  0999 V2000
    0.0006    0.3977    0.0000 O   0  0  0  0  0  0  0  0  0  0  0  0
    3.1696    0.4973    1.1102 C   0  0  0  0  0  0  0  0  0  0  0  0
    3.8271    0.0637   -0.0264 C   0  0  0  0  0  0  0  0  0  0  0  0
    3.2125   -0.5521   -1.0572 N   0  0  0  0  0  0  0  0  0  0  0  0
    1.8749   -0.7379   -0.9470 C   0  0  0  0  0  0  0  0  0  0  0  0
    1.1069   -0.3277    0.1391 C   0  0  0  0  0  0  0  0  0  0  0  0
    1.7959    0.2913    1.1922 C   0  0  0  0  0  0  0  0  0  0  0  0
   -0.3771   -0.5824    0.2482 C   0  0  1  0  0  0  0  0  0  0  0  0
   -1.2119    0.5798    0.6529 N   0  0  0  0  0  0  0  0  0  0  0  0
   -2.5896    0.0830    0.4958 C   0  0  0  0  0  0  0  0  0  0  0  0
   -2.5781   -0.8571   -0.7042 C   0  0  0  0  0  0  0  0  0  0  0  0
   -1.1066   -1.1491   -0.9733 C   0  0  0  0  0  0  0  0  0  0  0  0
   -1.0055    1.7721   -0.1775 C   0  0  0  0  0  0  0  0  0  0  0  0
    2.4860    1.0950   -0.3046 O   0  0  0  0  0  0  0  0  0  0  0  0
    2.2898   -0.9187   -1.2620 O   0  0  0  0  0  0  0  0  0  0  0  0
   -0.3610   -0.3687   -1.8007 O   0  0  0  0  0  0  0  0  0  0  0  0
    0.3879    0.3423    1.7614 O   0  0  0  0  0  0  0  0  0  0  0  0
   -2.2607    0.9138    1.2923 O   0  0  0  0  0  0  0  0  0  0  0  0
   -2.4974   -1.0405    0.2305 O   0  0  0  0  0  0  0  0  0  0  0  0
    1.7520    0.0702   -0.7822 C   0  0  0  0  0  0  0  0  0  0  0  0
    0.2523    0.2832   -0.6824 C   0  0  2  0  0  0  0  0  0  0  0  0
   -0.2479   -0.2931    0.6418 C   0  0  2  0  0  0  0  0  0  0  0  0
   -1.7448   -0.0579    0.7560 C   0  0  0  0  0  0  0  0  0  0  0  0
    1.2912    1.6355   -1.3894 O   0  0  0  0  0  0  0  0  0  0  0  0
    2.1535   -0.3309   -1.9729 O   0  0  0  0  0  0  0  0  0  0  0  0
    1.2463   -1.5177    0.4321 O   0  0  0  0  0  0  0  0  0  0  0  0
   -1.1486   -1.3489   -0.6294 O   0  0  0  0  0  0  0  0  0  0  0  0
   -2.2833   -0.5054    1.7350 O   0  0  0  0  0  0  0  0  0  0  0  0
   -0.9124    1.2458    1.9288 O   0  0  0  0  0  0  0  0  0  0  0  0
    1.4930    0.3182   -1.1778 C   0  0  0  0  0  0  0  0  0  0  0  0
    0.8438   -0.1817    0.1089 C   0  0  1  0  0  0  0  0  0  0  0  0
   -0.6770   -0.1149   -0.0505 C   0  0  2  0  0  0  0  0  0  0  0  0
   -1.3537    0.1520    1.2863 C   0  0  0  0  0  0  0  0  0  0  0  0
   -0.0021    0.3977    0.0000 O   0  0  0  0  0  0  0  0  0  0  0  0
    0.7632   -0.2001    0.0000 H   0  0  0  0  0  0  0  0  0  0  0  0
   -0.7639   -0.1977    0.0000 H   0  0  0  0  0  0  0  0  0  0  0  0
    3.7101    0.9822    1.9144 H   0  0  0  0  0  0  0  0  0  0  0  0
    4.8983    0.2013   -0.1404 H   0  0  0  0  0  0  0  0  0  0  0  0
    1.4385   -1.2539   -1.7971 H   0  0  0  0  0  0  0  0  0  0  0  0
    1.2539    0.6220    2.0761 H   0  0  0  0  0  0  0  0  0  0  0  0
   -0.4740   -1.3317    1.0498 H   0  0  0  0  0  0  0  0  0  0  0  0
   -3.3350    0.8798    0.3967 H   0  0  0  0  0  0  0  0  0  0  0  0
   -2.8573   -0.4829    1.3966 H   0  0  0  0  0  0  0  0  0  0  0  0
   -3.1297   -1.7770   -0.4839 H   0  0  0  0  0  0  0  0  0  0  0  0
   -3.0360   -0.3896   -1.5830 H   0  0  0  0  0  0  0  0  0  0  0  0
   -0.9256   -2.2220   -1.0992 H   0  0  0  0  0  0  0  0  0  0  0  0
   -0.8050   -0.6516   -1.9028 H   0  0  0  0  0  0  0  0  0  0  0  0
    0.0050    2.1740   -0.0524 H   0  0  0  0  0  0  0  0  0  0  0  0
   -1.1761    1.5979   -1.2452 H   0  0  0  0  0  0  0  0  0  0  0  0
   -1.6853    2.5704    0.1438 H   0  0  0  0  0  0  0  0  0  0  0  0
    3.4159    0.8074   -0.4176 H   0  0  0  0  0  0  0  0  0  0  0  0
    0.0492   -1.2523   -1.8799 H   0  0  0  0  0  0  0  0  0  0  0  0
   -0.0862    1.1847    1.9197 H   0  0  0  0  0  0  0  0  0  0  0  0
   -3.4235   -0.7493    0.3704 H   0  0  0  0  0  0  0  0  0  0  0  0
    0.0413    1.3521   -0.7704 H   0  0  0  0  0  0  0  0  0  0  0  0
   -0.0528   -1.3682    0.7204 H   0  0  0  0  0  0  0  0  0  0  0  0
    1.7937    1.8184   -2.2134 H   0  0  0  0  0  0  0  0  0  0  0  0
    0.8076   -2.0828   -0.2375 H   0  0  0  0  0  0  0  0  0  0  0  0
   -2.0148   -1.5367   -0.2121 H   0  0  0  0  0  0  0  0  0  0  0  0
   -1.4628    1.2984    2.7400 H   0  0  0  0  0  0  0  0  0  0  0  0
    1.2201    0.4624    0.9125 H   0  0  0  0  0  0  0  0  0  0  0  0
   -0.9966    0.6882   -0.7214 H   0  0  0  0  0  0  0  0  0  0  0  0
    0.7646   -0.1949    0.0000 H   0  0  0  0  0  0  0  0  0  0  0  0
   -0.7625   -0.2028    0.0000 H   0  0  0  0  0  0  0  0  0  0  0  0
  7  2  2  0
  2  3  1  0
  8  6  1  0
  8  9  1  0
  4  5  1  0
  5  6  2  0
  3  4  2  0
  9 10  1  0
 10 11  1  0
 11 12  1  0
  8 12  1  0
  6  7  1  0
  9 13  1  0
 20 15  2  0
 21 16  1  0
 22 17  1  0
 20 14  1  0
 22 23  1  0
 21 22  1  0
 23 19  1  0
 20 21  1  0
 23 18  2  0
 30 25  2  0
 31 26  1  0
 32 27  1  0
 30 24  1  0
 32 33  1  0
 31 32  1  0
 33 29  1  0
 30 31  1  0
 33 28  2  0
  1 35  1  0
  1 36  1  0
  2 37  1  0
  3 38  1  0
  5 39  1  0
  7 40  1  0
  8 41  1  1
 10 42  1  0
 10 43  1  0
 11 44  1  0
 11 45  1  0
 12 46  1  0
 12 47  1  0
 13 48  1  0
 13 49  1  0
 13 50  1  0
 14 51  1  0
 16 52  1  0
 17 53  1  0
 19 54  1  0
 21 55  1  1
 22 56  1  6
 24 57  1  0
 26 58  1  0
 27 59  1  0
 29 60  1  0
 31 61  1  1
 32 62  1  6
 34 63  1  0
 34 64  1  0
M  END
$$$$
