
     RDKit          3D

 64 61  0  0  0  0  0  0  0  0999 V2000
    0.0175    0.3973    0.0000 O   0  0  0  0  0  0  0  0  0  0  0  0
    3.4327   -0.5851   -0.3382 C   0  0  0  0  0  0  0  0  0  0  0  0
    3.6505    0.2957    0.7087 C   0  0  0  0  0  0  0  0  0  0  0  0
    2.6696    0.9931    1.3192 N   0  0  0  0  0  0  0  0  0  0  0  0
    1.4093    0.7948    0.8621 C   0  0  0  0  0  0  0  0  0  0  0  0
    1.0746   -0.0738   -0.1752 C   0  0  0  0  0  0  0  0  0  0  0  0
    2.1271   -0.7667   -0.7871 C   0  0  0  0  0  0  0  0  0  0  0  0
   -0.3435   -0.2291   -0.6671 C   0  0  1  0  0  0  0  0  0  0  0  0
   -1.3547   -0.2142    0.4069 N   0  0  0  0  0  0  0  0  0  0  0  0
   -2.5986    0.2251   -0.2256 C   0  0  0  0  0  0  0  0  0  0  0  0
   -2.1227    1.3802   -1.0863 C   0  0  0  0  0  0  0  0  0  0  0  0
   -0.7596    0.9238   -1.5957 C   0  0  0  0  0  0  0  0  0  0  0  0
   -1.5045   -1.5076    1.0649 C   0  0  0  0  0  0  0  0  0  0  0  0
    2.3555    0.6133   -0.9230 O   0  0  0  0  0  0  0  0  0  0  0  0
    2.6121    0.1235    1.2464 O   0  0  0  0  0  0  0  0  0  0  0  0
   -0.0005    1.7126   -0.4584 O   0  0  0  0  0  0  0  0  0  0  0  0
    0.0033   -1.7570    0.8598 O   0  0  0  0  0  0  0  0  0  0  0  0
   -2.5611   -0.7826    0.9295 O   0  0  0  0  0  0  0  0  0  0  0  0
   -2.3484   -0.0080   -1.1580 O   0  0  0  0  0  0  0  0  0  0  0  0
    1.8651    0.4159    0.3278 C   0  0  0  0  0  0  0  0  0  0  0  0
    0.3564    0.6109    0.3877 C   0  0  2  0  0  0  0  0  0  0  0  0
   -0.3302   -0.6872   -0.0361 C   0  0  2  0  0  0  0  0  0  0  0  0
   -1.8375   -0.4974   -0.0140 C   0  0  0  0  0  0  0  0  0  0  0  0
    1.9702   -1.1884   -1.1382 O   0  0  0  0  0  0  0  0  0  0  0  0
    1.9496    0.1676    0.6367 O   0  0  0  0  0  0  0  0  0  0  0  0
   -0.6151   -1.5014   -1.2516 O   0  0  0  0  0  0  0  0  0  0  0  0
   -1.1079   -0.0612    2.0001 O   0  0  0  0  0  0  0  0  0  0  0  0
   -0.7458    2.4361    0.9315 O   0  0  0  0  0  0  0  0  0  0  0  0
   -0.2920    1.6382   -1.0990 O   0  0  0  0  0  0  0  0  0  0  0  0
    1.3394   -0.5903   -0.0961 C   0  0  0  0  0  0  0  0  0  0  0  0
   -0.1174   -1.0413    0.0168 C   0  0  1  0  0  0  0  0  0  0  0  0
   -1.0430    0.0458    0.5661 C   0  0  2  0  0  0  0  0  0  0  0  0
   -0.6612    1.4718    0.1822 C   0  0  0  0  0  0  0  0  0  0  0  0
   -0.0444    0.3954    0.0000 O   0  0  0  0  0  0  0  0  0  0  0  0
   -0.7717   -0.1651    0.0000 H   0  0  0  0  0  0  0  0  0  0  0  0
    0.7542   -0.2321    0.0000 H   0  0  0  0  0  0  0  0  0  0  0  0
    4.2593   -1.1203   -0.7926 H   0  0  0  0  0  0  0  0  0  0  0  0
    4.6502    0.4700    1.0966 H   0  0  0  0  0  0  0  0  0  0  0  0
    0.6463    1.3819    1.3712 H   0  0  0  0  0  0  0  0  0  0  0  0
    1.9357   -1.4471   -1.6134 H   0  0  0  0  0  0  0  0  0  0  0  0
   -0.4302   -1.1680   -1.2359 H   0  0  0  0  0  0  0  0  0  0  0  0
   -3.3438    0.5495    0.5088 H   0  0  0  0  0  0  0  0  0  0  0  0
   -3.0365   -0.5618   -0.8547 H   0  0  0  0  0  0  0  0  0  0  0  0
   -2.8156    1.6084   -1.9055 H   0  0  0  0  0  0  0  0  0  0  0  0
   -2.0052    2.2879   -0.4746 H   0  0  0  0  0  0  0  0  0  0  0  0
   -0.8532    0.5535   -2.6245 H   0  0  0  0  0  0  0  0  0  0  0  0
   -0.0562    1.7648   -1.6064 H   0  0  0  0  0  0  0  0  0  0  0  0
   -0.5702   -1.8078    1.5526 H   0  0  0  0  0  0  0  0  0  0  0  0
   -1.7941   -2.2976    0.3607 H   0  0  0  0  0  0  0  0  0  0  0  0
   -2.2668   -1.4495    1.8506 H   0  0  0  0  0  0  0  0  0  0  0  0
    3.3194    0.4677   -0.8137 H   0  0  0  0  0  0  0  0  0  0  0  0
    0.4886    1.5798   -1.2988 H   0  0  0  0  0  0  0  0  0  0  0  0
   -0.6772   -1.7647    1.5647 H   0  0  0  0  0  0  0  0  0  0  0  0
   -3.3087    0.0860   -0.9861 H   0  0  0  0  0  0  0  0  0  0  0  0
    0.0943    0.8884    1.4151 H   0  0  0  0  0  0  0  0  0  0  0  0
   -0.0310   -1.0012   -1.0430 H   0  0  0  0  0  0  0  0  0  0  0  0
    2.8866   -0.8398   -1.0934 H   0  0  0  0  0  0  0  0  0  0  0  0
    0.1475   -1.9316   -1.6903 H   0  0  0  0  0  0  0  0  0  0  0  0
   -1.3908    0.8154    2.3301 H   0  0  0  0  0  0  0  0  0  0  0  0
   -0.1336    2.6024   -1.1802 H   0  0  0  0  0  0  0  0  0  0  0  0
   -0.1210   -1.9118    0.6836 H   0  0  0  0  0  0  0  0  0  0  0  0
   -2.0656   -0.1117    0.2017 H   0  0  0  0  0  0  0  0  0  0  0  0
    0.7817   -0.1125    0.0000 H   0  0  0  0  0  0  0  0  0  0  0  0
   -0.7373   -0.2830    0.0000 H   0  0  0  0  0  0  0  0  0  0  0  0
  7  2  2  0
  2  3  1  0
  8  6  1  0
  8  9  1  0
  4  5  1  0
  5  6  2  0
  3  4  2  0
  9 10  1  0
 10 11  1  0
 11 12  1  0
  8 12  1  0
  6  7  1  0
  9 13  1  0
 20 15  2  0
 21 16  1  0
 22 17  1  0
 20 14  1  0
 22 23  1  0
 21 22  1  0
 23 19  1  0
 20 21  1  0
 23 18  2  0
 30 25  2  0
 31 26  1  0
 32 27  1  0
 30 24  1  0
 32 33  1  0
 31 32  1  0
 33 29  1  0
 30 31  1  0
 33 28  2  0
  1 35  1  0
  1 36  1  0
  2 37  1  0
  3 38  1  0
  5 39  1  0
  7 40  1  0
  8 41  1  6
 10 42  1  0
 10 43  1  0
 11 44  1  0
 11 45  1  0
 12 46  1  0
 12 47  1  0
 13 48  1  0
 13 49  1  0
 13 50  1  0
 14 51  1  0
 16 52  1  0
 17 53  1  0
 19 54  1  0
 21 55  1  1
 22 56  1  6
 24 57  1  0
 26 58  1  0
 27 59  1  0
 29 60  1  0
 31 61  1  1
 32 62  1  6
 34 63  1  0
 34 64  1  0
M  END
$$$$
