
     RDKit          3D

 64 61  0  0  0  0  0  0  0  0999 V2000
   -0.0094    0.3977    0.0000 O   0  0  0  0  0  0  0  0  0  0  0  0
    3.3452   -0.2601   -0.9103 C   0  0  0  0  0  0  0  0  0  0  0  0
    3.7478    0.0379    0.3805 C   0  0  0  0  0  0  0  0  0  0  0  0
    2.8939    0.3209    1.3852 N   0  0  0  0  0  0  0  0  0  0  0  0
    1.5733    0.2997    1.0839 C   0  0  0  0  0  0  0  0  0  0  0  0
    1.0582    0.0119   -0.1783 C   0  0  0  0  0  0  0  0  0  0  0  0
    1.9815   -0.2693   -1.1912 C   0  0  0  0  0  0  0  0  0  0  0  0
   -0.4226    0.0363   -0.4621 C   0  0  1  0  0  0  0  0  0  0  0  0
   -1.2386   -0.5761    0.6031 N   0  0  0  0  0  0  0  0  0  0  0  0
   -2.5587    0.0453    0.5031 C   0  0  0  0  0  0  0  0  0  0  0  0
   -2.2036    1.5058    0.3074 C   0  0  0  0  0  0  0  0  0  0  0  0
   -0.9644    1.4711   -0.5782 C   0  0  0  0  0  0  0  0  0  0  0  0
   -1.3072   -2.0287    0.5037 C   0  0  0  0  0  0  0  0  0  0  0  0
    2.2495   -1.2833    0.2266 O   0  0  0  0  0  0  0  0  0  0  0  0
    2.7338    0.7386   -0.5992 O   0  0  0  0  0  0  0  0  0  0  0  0
    0.0432   -1.4245   -1.2124 O   0  0  0  0  0  0  0  0  0  0  0  0
    0.0260    1.6632    0.8466 O   0  0  0  0  0  0  0  0  0  0  0  0
   -2.3855    1.4747   -0.4665 O   0  0  0  0  0  0  0  0  0  0  0  0
   -2.5616   -0.6631    0.1675 O   0  0  0  0  0  0  0  0  0  0  0  0
    1.9036   -0.1312   -0.3985 C   0  0  0  0  0  0  0  0  0  0  0  0
    0.4315   -0.1119   -0.7856 C   0  0  2  0  0  0  0  0  0  0  0  0
   -0.3998    0.3666    0.4042 C   0  0  2  0  0  0  0  0  0  0  0  0
   -1.8563    0.4678   -0.0161 C   0  0  0  0  0  0  0  0  0  0  0  0
   -1.7443    1.8505    0.4665 O   0  0  0  0  0  0  0  0  0  0  0  0
   -1.4403    0.5541   -1.3257 O   0  0  0  0  0  0  0  0  0  0  0  0
   -0.0213    0.5800    1.9634 O   0  0  0  0  0  0  0  0  0  0  0  0
    0.0054   -2.2758   -0.2119 O   0  0  0  0  0  0  0  0  0  0  0  0
    1.6380   -0.9227   -1.9461 O   0  0  0  0  0  0  0  0  0  0  0  0
    1.6482    0.9260   -0.6996 O   0  0  0  0  0  0  0  0  0  0  0  0
   -1.2561    0.7369   -0.1354 C   0  0  0  0  0  0  0  0  0  0  0  0
   -0.5534   -0.1799    0.8658 C   0  0  1  0  0  0  0  0  0  0  0  0
    0.5569   -1.0240    0.2362 C   0  0  2  0  0  0  0  0  0  0  0  0
    1.2984   -0.3536   -0.9171 C   0  0  0  0  0  0  0  0  0  0  0  0
   -0.0071    0.3977    0.0000 O   0  0  0  0  0  0  0  0  0  0  0  0
    0.7679   -0.1809    0.0000 H   0  0  0  0  0  0  0  0  0  0  0  0
   -0.7586   -0.2168    0.0000 H   0  0  0  0  0  0  0  0  0  0  0  0
    4.0767   -0.4781   -1.6798 H   0  0  0  0  0  0  0  0  0  0  0  0
    4.8000    0.0583    0.6484 H   0  0  0  0  0  0  0  0  0  0  0  0
    0.9137    0.5293    1.9176 H   0  0  0  0  0  0  0  0  0  0  0  0
    1.6457   -0.4953   -2.1998 H   0  0  0  0  0  0  0  0  0  0  0  0
   -0.6202   -0.4748   -1.4155 H   0  0  0  0  0  0  0  0  0  0  0  0
   -3.1222   -0.3273   -0.3618 H   0  0  0  0  0  0  0  0  0  0  0  0
   -3.1561   -0.1060    1.4075 H   0  0  0  0  0  0  0  0  0  0  0  0
   -3.0191    2.0777   -0.1449 H   0  0  0  0  0  0  0  0  0  0  0  0
   -1.9569    1.9701    1.2702 H   0  0  0  0  0  0  0  0  0  0  0  0
   -1.2451    1.6771   -1.6183 H   0  0  0  0  0  0  0  0  0  0  0  0
   -0.2537    2.2459   -0.2694 H   0  0  0  0  0  0  0  0  0  0  0  0
   -0.3114   -2.4736    0.6032 H   0  0  0  0  0  0  0  0  0  0  0  0
   -1.9175   -2.4359    1.3172 H   0  0  0  0  0  0  0  0  0  0  0  0
   -1.7388   -2.3619   -0.4470 H   0  0  0  0  0  0  0  0  0  0  0  0
    3.2061   -1.1608    0.4148 H   0  0  0  0  0  0  0  0  0  0  0  0
    0.4491   -2.0495   -0.5778 H   0  0  0  0  0  0  0  0  0  0  0  0
   -0.3775    2.3218    0.2450 H   0  0  0  0  0  0  0  0  0  0  0  0
   -3.4615   -0.4516   -0.1584 H   0  0  0  0  0  0  0  0  0  0  0  0
    0.3242    0.5568   -1.6469 H   0  0  0  0  0  0  0  0  0  0  0  0
   -0.3247   -0.3135    1.2596 H   0  0  0  0  0  0  0  0  0  0  0  0
   -2.1753    2.3406   -0.2673 H   0  0  0  0  0  0  0  0  0  0  0  0
   -0.6723    1.2919    2.1273 H   0  0  0  0  0  0  0  0  0  0  0  0
    0.5986   -2.6028   -0.9181 H   0  0  0  0  0  0  0  0  0  0  0  0
    2.1320    1.1851   -1.5129 H   0  0  0  0  0  0  0  0  0  0  0  0
   -1.3285   -0.8313    1.2866 H   0  0  0  0  0  0  0  0  0  0  0  0
    1.3139   -1.2752    0.9881 H   0  0  0  0  0  0  0  0  0  0  0  0
   -0.7598   -0.2126    0.0000 H   0  0  0  0  0  0  0  0  0  0  0  0
    0.7669   -0.1852    0.0000 H   0  0  0  0  0  0  0  0  0  0  0  0
  7  2  2  0
  2  3  1  0
  8  6  1  0
  8  9  1  0
  4  5  1  0
  5  6  2  0
  3  4  2  0
  9 10  1  0
 10 11  1  0
 11 12  1  0
  8 12  1  0
  6  7  1  0
  9 13  1  0
 20 15  2  0
 21 16  1  0
 22 17  1  0
 20 14  1  0
 22 23  1  0
 21 22  1  0
 23 19  1  0
 20 21  1  0
 23 18  2  0
 30 25  2  0
 31 26  1  0
 32 27  1  0
 30 24  1  0
 32 33  1  0
 31 32  1  0
 33 29  1  0
 30 31  1  0
 33 28  2  0
  1 35  1  0
  1 36  1  0
  2 37  1  0
  3 38  1  0
  5 39  1  0
  7 40  1  0
  8 41  1  6
 10 42  1  0
 10 43  1  0
 11 44  1  0
 11 45  1  0
 12 46  1  0
 12 47  1  0
 13 48  1  0
 13 49  1  0
 13 50  1  0
 14 51  1  0
 16 52  1  0
 17 53  1  0
 19 54  1  0
 21 55  1  6
 22 56  1  1
 24 57  1  0
 26 58  1  0
 27 59  1  0
 29 60  1  0
 31 61  1  1
 32 62  1  1
 34 63  1  0
 34 64  1  0
M  END
$$$$
