
     RDKit          3D

 64 61  0  0  0  0  0  0  0  0999 V2000
   -0.0369    0.3961    0.0000 O   0  0  0  0  0  0  0  0  0  0  0  0
    2.9952   -0.8941   -0.7252 C   0  0  0  0  0  0  0  0  0  0  0  0
    3.7849    0.1672   -0.3171 C   0  0  0  0  0  0  0  0  0  0  0  0
    3.3015    1.2754    0.2830 N   0  0  0  0  0  0  0  0  0  0  0  0
    1.9633    1.3228    0.4790 C   0  0  0  0  0  0  0  0  0  0  0  0
    1.0751    0.3182    0.1032 C   0  0  0  0  0  0  0  0  0  0  0  0
    1.6230   -0.8156   -0.5073 C   0  0  0  0  0  0  0  0  0  0  0  0
   -0.3988    0.4562    0.3918 C   0  0  1  0  0  0  0  0  0  0  0  0
   -1.2665   -0.0776   -0.6767 N   0  0  0  0  0  0  0  0  0  0  0  0
   -2.5303   -0.4235   -0.0272 C   0  0  0  0  0  0  0  0  0  0  0  0
   -2.0557   -1.1155    1.2352 C   0  0  0  0  0  0  0  0  0  0  0  0
   -0.8133   -0.3342    1.6443 C   0  0  0  0  0  0  0  0  0  0  0  0
   -1.4548    0.8608   -1.7762 C   0  0  0  0  0  0  0  0  0  0  0  0
    1.5715    1.2109    0.3270 O   0  0  0  0  0  0  0  0  0  0  0  0
    2.4608   -0.7747    0.7897 O   0  0  0  0  0  0  0  0  0  0  0  0
    0.8838   -2.0733   -1.0781 O   0  0  0  0  0  0  0  0  0  0  0  0
   -0.9912   -0.9608    0.8598 O   0  0  0  0  0  0  0  0  0  0  0  0
   -0.9121    1.7631   -1.5497 O   0  0  0  0  0  0  0  0  0  0  0  0
   -1.9763    1.4394    0.3911 O   0  0  0  0  0  0  0  0  0  0  0  0
    1.6456   -0.1235    0.1536 C   0  0  0  0  0  0  0  0  0  0  0  0
    0.6692   -0.6643   -0.8876 C   0  0  2  0  0  0  0  0  0  0  0  0
   -0.7800   -0.4431   -0.4589 C   0  0  2  0  0  0  0  0  0  0  0  0
   -1.1823    1.0196   -0.6226 C   0  0  0  0  0  0  0  0  0  0  0  0
   -2.6728    0.8379    0.5206 O   0  0  0  0  0  0  0  0  0  0  0  0
   -1.8109   -0.6330    1.9612 O   0  0  0  0  0  0  0  0  0  0  0  0
   -0.3333    1.8022   -0.2888 O   0  0  0  0  0  0  0  0  0  0  0  0
   -0.2007   -0.5180   -1.5851 O   0  0  0  0  0  0  0  0  0  0  0  0
    2.5344   -0.2666    0.7780 O   0  0  0  0  0  0  0  0  0  0  0  0
    2.3816   -0.8077   -1.3863 O   0  0  0  0  0  0  0  0  0  0  0  0
   -1.6260    0.2120    1.0985 C   0  0  0  0  0  0  0  0  0  0  0  0
   -0.2726    0.6389    0.5415 C   0  0  1  0  0  0  0  0  0  0  0  0
    0.3050   -0.5423   -0.2399 C   0  0  2  0  0  0  0  0  0  0  0  0
    1.8288   -0.4940   -0.1890 C   0  0  0  0  0  0  0  0  0  0  0  0
    0.0010    0.3978    0.0000 O   0  0  0  0  0  0  0  0  0  0  0  0
    0.7786   -0.1272    0.0000 H   0  0  0  0  0  0  0  0  0  0  0  0
   -0.7417   -0.2689    0.0000 H   0  0  0  0  0  0  0  0  0  0  0  0
    3.4356   -1.7621   -1.2017 H   0  0  0  0  0  0  0  0  0  0  0  0
    4.8606    0.1529   -0.4657 H   0  0  0  0  0  0  0  0  0  0  0  0
    1.6155    2.2290    0.9681 H   0  0  0  0  0  0  0  0  0  0  0  0
    0.9786   -1.6353   -0.8171 H   0  0  0  0  0  0  0  0  0  0  0  0
   -0.6412    1.5148    0.5649 H   0  0  0  0  0  0  0  0  0  0  0  0
   -3.1174    0.4681    0.2272 H   0  0  0  0  0  0  0  0  0  0  0  0
   -3.1435   -1.0878   -0.6440 H   0  0  0  0  0  0  0  0  0  0  0  0
   -2.8175   -1.1211    2.0204 H   0  0  0  0  0  0  0  0  0  0  0  0
   -1.7835   -2.1562    1.0196 H   0  0  0  0  0  0  0  0  0  0  0  0
   -0.0420   -1.0167    2.0185 H   0  0  0  0  0  0  0  0  0  0  0  0
   -1.0602    0.3609    2.4560 H   0  0  0  0  0  0  0  0  0  0  0  0
   -1.9067    1.8037   -1.4477 H   0  0  0  0  0  0  0  0  0  0  0  0
   -2.1018    0.4211   -2.5432 H   0  0  0  0  0  0  0  0  0  0  0  0
   -0.5000    1.0887   -2.2620 H   0  0  0  0  0  0  0  0  0  0  0  0
    2.2729    1.3974    0.9880 H   0  0  0  0  0  0  0  0  0  0  0  0
    0.8355   -2.4690   -0.1846 H   0  0  0  0  0  0  0  0  0  0  0  0
   -1.7835   -0.4977    1.1997 H   0  0  0  0  0  0  0  0  0  0  0  0
   -2.1598    2.3791    0.1717 H   0  0  0  0  0  0  0  0  0  0  0  0
    0.8929   -0.1848   -1.8463 H   0  0  0  0  0  0  0  0  0  0  0  0
   -1.4471   -1.0184   -1.1120 H   0  0  0  0  0  0  0  0  0  0  0  0
   -3.4607    0.4744    0.9753 H   0  0  0  0  0  0  0  0  0  0  0  0
   -0.8912    1.5363   -1.0482 H   0  0  0  0  0  0  0  0  0  0  0  0
    0.5122   -0.9013   -2.1372 H   0  0  0  0  0  0  0  0  0  0  0  0
    3.3480   -0.7366   -1.2241 H   0  0  0  0  0  0  0  0  0  0  0  0
    0.3373    0.9054    1.4116 H   0  0  0  0  0  0  0  0  0  0  0  0
    0.0209   -1.5076    0.1947 H   0  0  0  0  0  0  0  0  0  0  0  0
    0.7629   -0.2009    0.0000 H   0  0  0  0  0  0  0  0  0  0  0  0
   -0.7640   -0.1969    0.0000 H   0  0  0  0  0  0  0  0  0  0  0  0
  7  2  2  0
  2  3  1  0
  8  6  1  0
  8  9  1  0
  4  5  1  0
  5  6  2  0
  3  4  2  0
  9 10  1  0
 10 11  1  0
 11 12  1  0
  8 12  1  0
  6  7  1  0
  9 13  1  0
 20 15  2  0
 21 16  1  0
 22 17  1  0
 20 14  1  0
 22 23  1  0
 21 22  1  0
 23 19  1  0
 20 21  1  0
 23 18  2  0
 30 25  2  0
 31 26  1  0
 32 27  1  0
 30 24  1  0
 32 33  1  0
 31 32  1  0
 33 29  1  0
 30 31  1  0
 33 28  2  0
  1 35  1  0
  1 36  1  0
  2 37  1  0
  3 38  1  0
  5 39  1  0
  7 40  1  0
  8 41  1  1
 10 42  1  0
 10 43  1  0
 11 44  1  0
 11 45  1  0
 12 46  1  0
 12 47  1  0
 13 48  1  0
 13 49  1  0
 13 50  1  0
 14 51  1  0
 16 52  1  0
 17 53  1  0
 19 54  1  0
 21 55  1  6
 22 56  1  6
 24 57  1  0
 26 58  1  0
 27 59  1  0
 29 60  1  0
 31 61  1  1
 32 62  1  1
 34 63  1  0
 34 64  1  0
M  END
$$$$
