
     RDKit          3D

 64 61  0  0  0  0  0  0  0  0999 V2000
   -0.0116    0.3980    0.0000 O   0  0  0  0  0  0  0  0  0  0  0  0
    3.2454   -0.2009   -0.8517 C   0  0  0  0  0  0  0  0  0  0  0  0
    3.7532    0.7818   -0.0208 C   0  0  0  0  0  0  0  0  0  0  0  0
    3.0387    1.3734    0.9563 N   0  0  0  0  0  0  0  0  0  0  0  0
    1.7550    0.9665    1.1002 C   0  0  0  0  0  0  0  0  0  0  0  0
    1.1354   -0.0074    0.3148 C   0  0  0  0  0  0  0  0  0  0  0  0
    1.9228   -0.6041   -0.6745 C   0  0  0  0  0  0  0  0  0  0  0  0
   -0.2953   -0.3936    0.6049 C   0  0  1  0  0  0  0  0  0  0  0  0
   -1.2789    0.7191    0.6225 N   0  0  0  0  0  0  0  0  0  0  0  0
   -2.5768    0.0325    0.7398 C   0  0  0  0  0  0  0  0  0  0  0  0
   -2.4488   -1.2745   -0.0350 C   0  0  0  0  0  0  0  0  0  0  0  0
   -0.9559   -1.4493   -0.2872 C   0  0  0  0  0  0  0  0  0  0  0  0
   -1.2522    1.5508   -0.5860 C   0  0  0  0  0  0  0  0  0  0  0  0
    1.9576   -0.7510   -1.8561 O   0  0  0  0  0  0  0  0  0  0  0  0
    2.2674   -1.6363    0.1708 O   0  0  0  0  0  0  0  0  0  0  0  0
   -0.4812   -1.8950    0.3683 O   0  0  0  0  0  0  0  0  0  0  0  0
    0.5721    1.5810   -0.3546 O   0  0  0  0  0  0  0  0  0  0  0  0
   -2.3684    0.2542    1.2561 O   0  0  0  0  0  0  0  0  0  0  0  0
   -1.9183    1.9979   -0.0556 O   0  0  0  0  0  0  0  0  0  0  0  0
    1.5215   -1.0968   -0.6355 C   0  0  0  0  0  0  0  0  0  0  0  0
    0.0538   -0.8016   -0.3921 C   0  0  2  0  0  0  0  0  0  0  0  0
   -0.0763    0.5200    0.3625 C   0  0  2  0  0  0  0  0  0  0  0  0
   -1.5561    0.8547    0.5781 C   0  0  0  0  0  0  0  0  0  0  0  0
    1.9936    0.7026   -1.6143 O   0  0  0  0  0  0  0  0  0  0  0  0
    1.4009    1.4481    0.4096 O   0  0  0  0  0  0  0  0  0  0  0  0
    0.3977   -1.3604   -1.6016 O   0  0  0  0  0  0  0  0  0  0  0  0
   -0.2671   -0.9134    1.9180 O   0  0  0  0  0  0  0  0  0  0  0  0
   -1.5294    1.1244   -0.7588 O   0  0  0  0  0  0  0  0  0  0  0  0
   -2.0980    0.8745    1.3895 O   0  0  0  0  0  0  0  0  0  0  0  0
    1.3574    0.5604   -0.4246 C   0  0  0  0  0  0  0  0  0  0  0  0
    0.6874   -0.8107   -0.3071 C   0  0  1  0  0  0  0  0  0  0  0  0
   -0.5934   -0.7697    0.5284 C   0  0  2  0  0  0  0  0  0  0  0  0
   -1.4137    0.4969    0.2798 C   0  0  0  0  0  0  0  0  0  0  0  0
   -0.0407    0.3964    0.0000 O   0  0  0  0  0  0  0  0  0  0  0  0
   -0.7570   -0.2212    0.0000 H   0  0  0  0  0  0  0  0  0  0  0  0
    0.7686   -0.1768    0.0000 H   0  0  0  0  0  0  0  0  0  0  0  0
    3.8666   -0.6493   -1.6183 H   0  0  0  0  0  0  0  0  0  0  0  0
    4.7776    1.1278   -0.1208 H   0  0  0  0  0  0  0  0  0  0  0  0
    1.2085    1.4668    1.8977 H   0  0  0  0  0  0  0  0  0  0  0  0
    1.5292   -1.3865   -1.3157 H   0  0  0  0  0  0  0  0  0  0  0  0
   -0.2743   -0.8143    1.6226 H   0  0  0  0  0  0  0  0  0  0  0  0
   -2.7574   -0.1898    1.7992 H   0  0  0  0  0  0  0  0  0  0  0  0
   -3.4264    0.6368    0.4018 H   0  0  0  0  0  0  0  0  0  0  0  0
   -2.8544   -2.1116    0.5435 H   0  0  0  0  0  0  0  0  0  0  0  0
   -2.9901   -1.2290   -0.9866 H   0  0  0  0  0  0  0  0  0  0  0  0
   -0.7515   -1.2811   -1.3518 H   0  0  0  0  0  0  0  0  0  0  0  0
   -0.6198   -2.4632   -0.0434 H   0  0  0  0  0  0  0  0  0  0  0  0
   -0.3101    2.1026   -0.6701 H   0  0  0  0  0  0  0  0  0  0  0  0
   -1.4017    0.9840   -1.5112 H   0  0  0  0  0  0  0  0  0  0  0  0
   -2.0387    2.3124   -0.5301 H   0  0  0  0  0  0  0  0  0  0  0  0
    2.9032   -0.9991   -1.8608 H   0  0  0  0  0  0  0  0  0  0  0  0
    0.1720   -2.1117    1.0616 H   0  0  0  0  0  0  0  0  0  0  0  0
   -0.0857    2.3011   -0.4436 H   0  0  0  0  0  0  0  0  0  0  0  0
   -2.8689    2.0894    0.1721 H   0  0  0  0  0  0  0  0  0  0  0  0
   -0.4729   -0.7780   -1.3513 H   0  0  0  0  0  0  0  0  0  0  0  0
    0.3801    0.4710    1.3567 H   0  0  0  0  0  0  0  0  0  0  0  0
    2.3614    1.6132   -1.5760 H   0  0  0  0  0  0  0  0  0  0  0  0
    1.1058   -1.0302   -2.1906 H   0  0  0  0  0  0  0  0  0  0  0  0
   -1.0309   -0.5438    2.4062 H   0  0  0  0  0  0  0  0  0  0  0  0
   -2.5529    1.6988    1.1115 H   0  0  0  0  0  0  0  0  0  0  0  0
    1.4234   -1.4765    0.1594 H   0  0  0  0  0  0  0  0  0  0  0  0
   -1.2425   -1.6145    0.2706 H   0  0  0  0  0  0  0  0  0  0  0  0
   -0.7387   -0.2763    0.0000 H   0  0  0  0  0  0  0  0  0  0  0  0
    0.7795   -0.1201    0.0000 H   0  0  0  0  0  0  0  0  0  0  0  0
  7  2  2  0
  2  3  1  0
  8  6  1  0
  8  9  1  0
  4  5  1  0
  5  6  2  0
  3  4  2  0
  9 10  1  0
 10 11  1  0
 11 12  1  0
  8 12  1  0
  6  7  1  0
  9 13  1  0
 20 15  2  0
 21 16  1  0
 22 17  1  0
 20 14  1  0
 22 23  1  0
 21 22  1  0
 23 19  1  0
 20 21  1  0
 23 18  2  0
 30 25  2  0
 31 26  1  0
 32 27  1  0
 30 24  1  0
 32 33  1  0
 31 32  1  0
 33 29  1  0
 30 31  1  0
 33 28  2  0
  1 35  1  0
  1 36  1  0
  2 37  1  0
  3 38  1  0
  5 39  1  0
  7 40  1  0
  8 41  1  1
 10 42  1  0
 10 43  1  0
 11 44  1  0
 11 45  1  0
 12 46  1  0
 12 47  1  0
 13 48  1  0
 13 49  1  0
 13 50  1  0
 14 51  1  0
 16 52  1  0
 17 53  1  0
 19 54  1  0
 21 55  1  6
 22 56  1  1
 24 57  1  0
 26 58  1  0
 27 59  1  0
 29 60  1  0
 31 61  1  1
 32 62  1  6
 34 63  1  0
 34 64  1  0
M  END
$$$$
