
     RDKit          3D

 25 26  0  0  0  0  0  0  0  0999 V2000
   45.4438    3.2100    9.0120 N   0  0  0  0  0  0  0  0  0  0  0  0
   46.0027    4.1773    8.1442 C   0  0  0  0  0  0  0  0  0  0  0  0
   45.6811    1.8516    8.7780 C   0  0  0  0  0  0  0  0  0  0  0  0
   46.8095    3.6560    7.0040 C   0  0  0  0  0  0  0  0  0  0  0  0
   46.4207    1.4002    7.7529 C   0  0  0  0  0  0  0  0  0  0  0  0
   47.0060    2.3454    6.8371 C   0  0  0  0  0  0  0  0  0  0  0  0
   44.6414    3.6335   10.1427 C   0  0  0  0  0  0  0  0  0  0  0  0
   45.9273    5.4016    8.2422 O   0  0  0  0  0  0  0  0  0  0  0  0
   46.6590   -0.0559    7.4910 C   0  0  0  0  0  0  0  0  0  0  0  0
   43.8992    4.8248   10.1214 C   0  0  0  0  0  0  0  0  0  0  0  0
   44.5622    2.8483   11.3083 C   0  0  0  0  0  0  0  0  0  0  0  0
   43.7788    3.2382   12.4012 C   0  0  0  0  0  0  0  0  0  0  0  0
   43.1136    5.2161   11.2125 C   0  0  0  0  0  0  0  0  0  0  0  0
   43.0529    4.4225   12.3522 C   0  0  0  0  0  0  0  0  0  0  0  0
   45.2033    1.1414    9.4439 H   0  0  0  0  0  0  0  0  0  0  0  0
   47.2318    4.3975    6.3378 H   0  0  0  0  0  0  0  0  0  0  0  0
   47.6025    1.9807    6.0067 H   0  0  0  0  0  0  0  0  0  0  0  0
   46.2715   -0.3388    6.5063 H   0  0  0  0  0  0  0  0  0  0  0  0
   46.1664   -0.6905    8.2356 H   0  0  0  0  0  0  0  0  0  0  0  0
   47.7304   -0.2815    7.5206 H   0  0  0  0  0  0  0  0  0  0  0  0
   43.8843    5.4659    9.2441 H   0  0  0  0  0  0  0  0  0  0  0  0
   45.1447    1.9382   11.4159 H   0  0  0  0  0  0  0  0  0  0  0  0
   43.7473    2.6188   13.2939 H   0  0  0  0  0  0  0  0  0  0  0  0
   42.5482    6.1433   11.1624 H   0  0  0  0  0  0  0  0  0  0  0  0
   42.4459    4.7291   13.1996 H   0  0  0  0  0  0  0  0  0  0  0  0
  2  1  1  0
  3  1  1  0
  4  2  1  0
  5  3  2  0
  6  5  1  0
  7  1  1  0
  8  2  2  0
  9  5  1  0
 10  7  2  0
 11  7  1  0
 12 11  2  0
 13 10  1  0
 14 12  1  0
  4  6  2  0
 13 14  2  0
  3 15  1  0
  4 16  1  0
  6 17  1  0
  9 18  1  0
  9 19  1  0
  9 20  1  0
 10 21  1  0
 11 22  1  0
 12 23  1  0
 13 24  1  0
 14 25  1  0
M  END
> <Uni-Dock RESULT> 
ENERGY=   -5.612  LOWER_BOUND=    0.000  UPPER_BOUND=    0.000
INTER + INTRA:          -5.612
INTER:                  -5.612
INTRA:                   0.000
UNBOUND:                 0.000

$$$$

     RDKit          3D

 25 26  0  0  0  0  0  0  0  0999 V2000
   44.4119    4.1418   10.5320 N   0  0  0  0  0  0  0  0  0  0  0  0
   44.3226    3.4094   11.7390 C   0  0  0  0  0  0  0  0  0  0  0  0
   43.8290    5.4105   10.4482 C   0  0  0  0  0  0  0  0  0  0  0  0
   43.5761    4.0596   12.8538 C   0  0  0  0  0  0  0  0  0  0  0  0
   43.1707    5.9861   11.4665 C   0  0  0  0  0  0  0  0  0  0  0  0
   43.0465    5.2778   12.7146 C   0  0  0  0  0  0  0  0  0  0  0  0
   45.1166    3.5785    9.3973 C   0  0  0  0  0  0  0  0  0  0  0  0
   44.8199    2.3111   11.9852 O   0  0  0  0  0  0  0  0  0  0  0  0
   42.5296    7.3371   11.3706 C   0  0  0  0  0  0  0  0  0  0  0  0
   45.2005    2.1929    9.1890 C   0  0  0  0  0  0  0  0  0  0  0  0
   45.7333    4.4098    8.4432 C   0  0  0  0  0  0  0  0  0  0  0  0
   46.4037    3.8790    7.3346 C   0  0  0  0  0  0  0  0  0  0  0  0
   45.8689    1.6596    8.0801 C   0  0  0  0  0  0  0  0  0  0  0  0
   46.4700    2.5026    7.1526 C   0  0  0  0  0  0  0  0  0  0  0  0
   43.8869    5.9223    9.4939 H   0  0  0  0  0  0  0  0  0  0  0  0
   43.5041    3.4953   13.7749 H   0  0  0  0  0  0  0  0  0  0  0  0
   42.5124    5.7421   13.5377 H   0  0  0  0  0  0  0  0  0  0  0  0
   41.4512    7.2656   11.5493 H   0  0  0  0  0  0  0  0  0  0  0  0
   42.6724    7.7875   10.3824 H   0  0  0  0  0  0  0  0  0  0  0  0
   42.9598    8.0203   12.1109 H   0  0  0  0  0  0  0  0  0  0  0  0
   44.7208    1.4897    9.8644 H   0  0  0  0  0  0  0  0  0  0  0  0
   45.7502    5.4890    8.5623 H   0  0  0  0  0  0  0  0  0  0  0  0
   46.8827    4.5445    6.6211 H   0  0  0  0  0  0  0  0  0  0  0  0
   45.9127    0.5815    7.9466 H   0  0  0  0  0  0  0  0  0  0  0  0
   46.9916    2.0874    6.2947 H   0  0  0  0  0  0  0  0  0  0  0  0
  2  1  1  0
  3  1  1  0
  4  2  1  0
  5  3  2  0
  6  5  1  0
  7  1  1  0
  8  2  2  0
  9  5  1  0
 10  7  2  0
 11  7  1  0
 12 11  2  0
 13 10  1  0
 14 12  1  0
  4  6  2  0
 13 14  2  0
  3 15  1  0
  4 16  1  0
  6 17  1  0
  9 18  1  0
  9 19  1  0
  9 20  1  0
 10 21  1  0
 11 22  1  0
 12 23  1  0
 13 24  1  0
 14 25  1  0
M  END
> <Uni-Dock RESULT> 
ENERGY=   -4.607  LOWER_BOUND=    1.686  UPPER_BOUND=    5.528
INTER + INTRA:          -4.607
INTER:                  -4.607
INTRA:                   0.000
UNBOUND:                 0.000

$$$$

     RDKit          3D

 25 26  0  0  0  0  0  0  0  0999 V2000
   46.2389    7.4293   12.2740 N   0  0  0  0  0  0  0  0  0  0  0  0
   45.8403    8.7793   12.4152 C   0  0  0  0  0  0  0  0  0  0  0  0
   47.5931    7.1219   12.1070 C   0  0  0  0  0  0  0  0  0  0  0  0
   46.9258    9.7994   12.3546 C   0  0  0  0  0  0  0  0  0  0  0  0
   48.5591    8.0529   12.0670 C   0  0  0  0  0  0  0  0  0  0  0  0
   48.2036    9.4425   12.1995 C   0  0  0  0  0  0  0  0  0  0  0  0
   45.2441    6.3756   12.3163 C   0  0  0  0  0  0  0  0  0  0  0  0
   44.7038    9.2058   12.6163 O   0  0  0  0  0  0  0  0  0  0  0  0
   50.0078    7.7250   11.8688 C   0  0  0  0  0  0  0  0  0  0  0  0
   43.9199    6.5881   11.9019 C   0  0  0  0  0  0  0  0  0  0  0  0
   45.5779    5.0828   12.7621 C   0  0  0  0  0  0  0  0  0  0  0  0
   44.6306    4.0523   12.7933 C   0  0  0  0  0  0  0  0  0  0  0  0
   42.9710    5.5586   11.9305 C   0  0  0  0  0  0  0  0  0  0  0  0
   43.3265    4.2906   12.3757 C   0  0  0  0  0  0  0  0  0  0  0  0
   47.8522    6.0785   11.9642 H   0  0  0  0  0  0  0  0  0  0  0  0
   46.6183   10.8323   12.4573 H   0  0  0  0  0  0  0  0  0  0  0  0
   48.9843   10.1959   12.1652 H   0  0  0  0  0  0  0  0  0  0  0  0
   50.3903    8.2028   10.9603 H   0  0  0  0  0  0  0  0  0  0  0  0
   50.1724    6.6466   11.7703 H   0  0  0  0  0  0  0  0  0  0  0  0
   50.6011    8.0739   12.7209 H   0  0  0  0  0  0  0  0  0  0  0  0
   43.5964    7.5502   11.5141 H   0  0  0  0  0  0  0  0  0  0  0  0
   46.5696    4.8557   13.1418 H   0  0  0  0  0  0  0  0  0  0  0  0
   44.9131    3.0672   13.1554 H   0  0  0  0  0  0  0  0  0  0  0  0
   41.9544    5.7557   11.5994 H   0  0  0  0  0  0  0  0  0  0  0  0
   42.5883    3.4938   12.4009 H   0  0  0  0  0  0  0  0  0  0  0  0
  2  1  1  0
  3  1  1  0
  4  2  1  0
  5  3  2  0
  6  5  1  0
  7  1  1  0
  8  2  2  0
  9  5  1  0
 10  7  2  0
 11  7  1  0
 12 11  2  0
 13 10  1  0
 14 12  1  0
  4  6  2  0
 13 14  2  0
  3 15  1  0
  4 16  1  0
  6 17  1  0
  9 18  1  0
  9 19  1  0
  9 20  1  0
 10 21  1  0
 11 22  1  0
 12 23  1  0
 13 24  1  0
 14 25  1  0
M  END
> <Uni-Dock RESULT> 
ENERGY=   -3.885  LOWER_BOUND=    4.564  UPPER_BOUND=    5.860
INTER + INTRA:          -3.885
INTER:                  -3.885
INTRA:                   0.000
UNBOUND:                 0.000

$$$$

     RDKit          3D

 25 26  0  0  0  0  0  0  0  0999 V2000
   45.7480    6.6283   12.3501 N   0  0  0  0  0  0  0  0  0  0  0  0
   46.8879    6.6211   13.1878 C   0  0  0  0  0  0  0  0  0  0  0  0
   45.1907    7.8476   11.9510 C   0  0  0  0  0  0  0  0  0  0  0  0
   47.4098    7.9534   13.6064 C   0  0  0  0  0  0  0  0  0  0  0  0
   45.6813    9.0387   12.3278 C   0  0  0  0  0  0  0  0  0  0  0  0
   46.8371    9.0845   13.1862 C   0  0  0  0  0  0  0  0  0  0  0  0
   45.1746    5.3745   11.9019 C   0  0  0  0  0  0  0  0  0  0  0  0
   47.5186    5.6412   13.5830 O   0  0  0  0  0  0  0  0  0  0  0  0
   45.0729   10.3447   11.9160 C   0  0  0  0  0  0  0  0  0  0  0  0
   45.2697    4.2001   12.6649 C   0  0  0  0  0  0  0  0  0  0  0  0
   44.4787    5.2925   10.6810 C   0  0  0  0  0  0  0  0  0  0  0  0
   43.9069    4.0916   10.2440 C   0  0  0  0  0  0  0  0  0  0  0  0
   44.6973    2.9981   12.2308 C   0  0  0  0  0  0  0  0  0  0  0  0
   44.0154    2.9440   11.0206 C   0  0  0  0  0  0  0  0  0  0  0  0
   44.2952    7.8089   11.3406 H   0  0  0  0  0  0  0  0  0  0  0  0
   48.2789    7.9458   14.2519 H   0  0  0  0  0  0  0  0  0  0  0  0
   47.2330   10.0476   13.4928 H   0  0  0  0  0  0  0  0  0  0  0  0
   44.7504   10.9138   12.7947 H   0  0  0  0  0  0  0  0  0  0  0  0
   44.1970   10.2025   11.2738 H   0  0  0  0  0  0  0  0  0  0  0  0
   45.7976   10.9478   11.3585 H   0  0  0  0  0  0  0  0  0  0  0  0
   45.7626    4.1935   13.6333 H   0  0  0  0  0  0  0  0  0  0  0  0
   44.4044    6.1475   10.0158 H   0  0  0  0  0  0  0  0  0  0  0  0
   43.3870    4.0543    9.2902 H   0  0  0  0  0  0  0  0  0  0  0  0
   44.7864    2.1071   12.8474 H   0  0  0  0  0  0  0  0  0  0  0  0
   43.5750    2.0098   10.6832 H   0  0  0  0  0  0  0  0  0  0  0  0
  2  1  1  0
  3  1  1  0
  4  2  1  0
  5  3  2  0
  6  5  1  0
  7  1  1  0
  8  2  2  0
  9  5  1  0
 10  7  2  0
 11  7  1  0
 12 11  2  0
 13 10  1  0
 14 12  1  0
  4  6  2  0
 13 14  2  0
  3 15  1  0
  4 16  1  0
  6 17  1  0
  9 18  1  0
  9 19  1  0
  9 20  1  0
 10 21  1  0
 11 22  1  0
 12 23  1  0
 13 24  1  0
 14 25  1  0
M  END
> <Uni-Dock RESULT> 
ENERGY=   -3.821  LOWER_BOUND=    3.911  UPPER_BOUND=    6.159
INTER + INTRA:          -3.821
INTER:                  -3.821
INTRA:                   0.000
UNBOUND:                 0.000

$$$$

     RDKit          3D

 25 26  0  0  0  0  0  0  0  0999 V2000
   46.1163    6.7513   12.5879 N   0  0  0  0  0  0  0  0  0  0  0  0
   46.7556    5.6392   13.1843 C   0  0  0  0  0  0  0  0  0  0  0  0
   44.7702    6.6596   12.2193 C   0  0  0  0  0  0  0  0  0  0  0  0
   45.9240    4.4146   13.3614 C   0  0  0  0  0  0  0  0  0  0  0  0
   44.0328    5.5523   12.3974 C   0  0  0  0  0  0  0  0  0  0  0  0
   44.6399    4.3906   12.9947 C   0  0  0  0  0  0  0  0  0  0  0  0
   46.8562    7.9798   12.3752 C   0  0  0  0  0  0  0  0  0  0  0  0
   47.9103    5.5781   13.6049 O   0  0  0  0  0  0  0  0  0  0  0  0
   42.5960    5.4475   11.9850 C   0  0  0  0  0  0  0  0  0  0  0  0
   48.2436    7.9831   12.1620 C   0  0  0  0  0  0  0  0  0  0  0  0
   46.2006    9.2253   12.3566 C   0  0  0  0  0  0  0  0  0  0  0  0
   46.9010   10.4175   12.1368 C   0  0  0  0  0  0  0  0  0  0  0  0
   48.9462    9.1740   11.9403 C   0  0  0  0  0  0  0  0  0  0  0  0
   48.2747   10.3912   11.9272 C   0  0  0  0  0  0  0  0  0  0  0  0
   44.3286    7.5211   11.7305 H   0  0  0  0  0  0  0  0  0  0  0  0
   46.4164    3.5627   13.8130 H   0  0  0  0  0  0  0  0  0  0  0  0
   44.0444    3.4943   13.1371 H   0  0  0  0  0  0  0  0  0  0  0  0
   42.4640    4.6485   11.2473 H   0  0  0  0  0  0  0  0  0  0  0  0
   42.2317    6.3773   11.5347 H   0  0  0  0  0  0  0  0  0  0  0  0
   41.9622    5.2288   12.8511 H   0  0  0  0  0  0  0  0  0  0  0  0
   48.8127    7.0580   12.1293 H   0  0  0  0  0  0  0  0  0  0  0  0
   45.1370    9.3059   12.5600 H   0  0  0  0  0  0  0  0  0  0  0  0
   46.3707   11.3664   12.1414 H   0  0  0  0  0  0  0  0  0  0  0  0
   50.0202    9.1414   11.7753 H   0  0  0  0  0  0  0  0  0  0  0  0
   48.8216   11.3148   11.7588 H   0  0  0  0  0  0  0  0  0  0  0  0
  2  1  1  0
  3  1  1  0
  4  2  1  0
  5  3  2  0
  6  5  1  0
  7  1  1  0
  8  2  2  0
  9  5  1  0
 10  7  2  0
 11  7  1  0
 12 11  2  0
 13 10  1  0
 14 12  1  0
  4  6  2  0
 13 14  2  0
  3 15  1  0
  4 16  1  0
  6 17  1  0
  9 18  1  0
  9 19  1  0
  9 20  1  0
 10 21  1  0
 11 22  1  0
 12 23  1  0
 13 24  1  0
 14 25  1  0
M  END
> <Uni-Dock RESULT> 
ENERGY=   -3.755  LOWER_BOUND=    4.768  UPPER_BOUND=    6.570
INTER + INTRA:          -3.755
INTER:                  -3.755
INTRA:                   0.000
UNBOUND:                 0.000

$$$$

     RDKit          3D

 25 26  0  0  0  0  0  0  0  0999 V2000
   44.5407    7.3857   11.8275 N   0  0  0  0  0  0  0  0  0  0  0  0
   45.5567    7.9823   12.6105 C   0  0  0  0  0  0  0  0  0  0  0  0
   43.7226    8.1897   11.0270 C   0  0  0  0  0  0  0  0  0  0  0  0
   45.6664    9.4671   12.5323 C   0  0  0  0  0  0  0  0  0  0  0  0
   43.8435    9.5247   10.9593 C   0  0  0  0  0  0  0  0  0  0  0  0
   44.8587   10.1804   11.7431 C   0  0  0  0  0  0  0  0  0  0  0  0
   44.3637    5.9471   11.8506 C   0  0  0  0  0  0  0  0  0  0  0  0
   46.3825    7.4127   13.3230 O   0  0  0  0  0  0  0  0  0  0  0  0
   42.9547   10.3880   10.1166 C   0  0  0  0  0  0  0  0  0  0  0  0
   44.6916    5.1769   12.9774 C   0  0  0  0  0  0  0  0  0  0  0  0
   43.8342    5.2653   10.7387 C   0  0  0  0  0  0  0  0  0  0  0  0
   43.6437    3.8783   10.7537 C   0  0  0  0  0  0  0  0  0  0  0  0
   44.5004    3.7898   12.9956 C   0  0  0  0  0  0  0  0  0  0  0  0
   43.9760    3.1406   11.8839 C   0  0  0  0  0  0  0  0  0  0  0  0
   42.9316    7.6974   10.4720 H   0  0  0  0  0  0  0  0  0  0  0  0
   46.4409    9.9223   13.1365 H   0  0  0  0  0  0  0  0  0  0  0  0
   44.9555   11.2603   11.6902 H   0  0  0  0  0  0  0  0  0  0  0  0
   42.4110   11.1060   10.7402 H   0  0  0  0  0  0  0  0  0  0  0  0
   42.2129    9.7974    9.5682 H   0  0  0  0  0  0  0  0  0  0  0  0
   43.5447   10.9443    9.3803 H   0  0  0  0  0  0  0  0  0  0  0  0
   45.0737    5.6369   13.8848 H   0  0  0  0  0  0  0  0  0  0  0  0
   43.6011    5.7874    9.8156 H   0  0  0  0  0  0  0  0  0  0  0  0
   43.2456    3.3763    9.8756 H   0  0  0  0  0  0  0  0  0  0  0  0
   44.7618    3.2231   13.8857 H   0  0  0  0  0  0  0  0  0  0  0  0
   43.8317    2.0638   11.8979 H   0  0  0  0  0  0  0  0  0  0  0  0
  2  1  1  0
  3  1  1  0
  4  2  1  0
  5  3  2  0
  6  5  1  0
  7  1  1  0
  8  2  2  0
  9  5  1  0
 10  7  2  0
 11  7  1  0
 12 11  2  0
 13 10  1  0
 14 12  1  0
  4  6  2  0
 13 14  2  0
  3 15  1  0
  4 16  1  0
  6 17  1  0
  9 18  1  0
  9 19  1  0
  9 20  1  0
 10 21  1  0
 11 22  1  0
 12 23  1  0
 13 24  1  0
 14 25  1  0
M  END
> <Uni-Dock RESULT> 
ENERGY=   -3.715  LOWER_BOUND=    3.767  UPPER_BOUND=    6.240
INTER + INTRA:          -3.715
INTER:                  -3.715
INTRA:                   0.000
UNBOUND:                 0.000

$$$$

     RDKit          3D

 25 26  0  0  0  0  0  0  0  0999 V2000
   46.2123    6.4772   12.8518 N   0  0  0  0  0  0  0  0  0  0  0  0
   47.2090    5.8700   13.6513 C   0  0  0  0  0  0  0  0  0  0  0  0
   45.1533    5.7057   12.3623 C   0  0  0  0  0  0  0  0  0  0  0  0
   47.0570    4.4081   13.9011 C   0  0  0  0  0  0  0  0  0  0  0  0
   45.0255    4.3923   12.6075 C   0  0  0  0  0  0  0  0  0  0  0  0
   46.0184    3.7262   13.4109 C   0  0  0  0  0  0  0  0  0  0  0  0
   46.2889    7.8946   12.5570 C   0  0  0  0  0  0  0  0  0  0  0  0
   48.1690    6.4173   14.1924 O   0  0  0  0  0  0  0  0  0  0  0  0
   43.9014    3.5617   12.0672 C   0  0  0  0  0  0  0  0  0  0  0  0
   47.5157    8.5732   12.4886 C   0  0  0  0  0  0  0  0  0  0  0  0
   45.1247    8.6458   12.3082 C   0  0  0  0  0  0  0  0  0  0  0  0
   45.1859   10.0118   12.0071 C   0  0  0  0  0  0  0  0  0  0  0  0
   47.5797    9.9390   12.1860 C   0  0  0  0  0  0  0  0  0  0  0  0
   46.4148   10.6581   11.9447 C   0  0  0  0  0  0  0  0  0  0  0  0
   44.4315    6.2010   11.7222 H   0  0  0  0  0  0  0  0  0  0  0  0
   47.8236    3.9440   14.5085 H   0  0  0  0  0  0  0  0  0  0  0  0
   45.9165    2.6636   13.6078 H   0  0  0  0  0  0  0  0  0  0  0  0
   44.2874    2.7578   11.4310 H   0  0  0  0  0  0  0  0  0  0  0  0
   43.2074    4.1569   11.4640 H   0  0  0  0  0  0  0  0  0  0  0  0
   43.3277    3.1124   12.8849 H   0  0  0  0  0  0  0  0  0  0  0  0
   48.4584    8.0531   12.6359 H   0  0  0  0  0  0  0  0  0  0  0  0
   44.1379    8.2001   12.3891 H   0  0  0  0  0  0  0  0  0  0  0  0
   44.2696   10.5699   11.8329 H   0  0  0  0  0  0  0  0  0  0  0  0
   48.5465   10.4338   12.1377 H   0  0  0  0  0  0  0  0  0  0  0  0
   46.4656   11.7185   11.7137 H   0  0  0  0  0  0  0  0  0  0  0  0
  2  1  1  0
  3  1  1  0
  4  2  1  0
  5  3  2  0
  6  5  1  0
  7  1  1  0
  8  2  2  0
  9  5  1  0
 10  7  2  0
 11  7  1  0
 12 11  2  0
 13 10  1  0
 14 12  1  0
  4  6  2  0
 13 14  2  0
  3 15  1  0
  4 16  1  0
  6 17  1  0
  9 18  1  0
  9 19  1  0
  9 20  1  0
 10 21  1  0
 11 22  1  0
 12 23  1  0
 13 24  1  0
 14 25  1  0
M  END
> <Uni-Dock RESULT> 
ENERGY=   -3.650  LOWER_BOUND=    4.612  UPPER_BOUND=    6.190
INTER + INTRA:          -3.650
INTER:                  -3.650
INTRA:                   0.000
UNBOUND:                 0.000

$$$$

     RDKit          3D

 25 26  0  0  0  0  0  0  0  0999 V2000
   45.5395    6.9739   12.5199 N   0  0  0  0  0  0  0  0  0  0  0  0
   44.3458    6.4464   11.9742 C   0  0  0  0  0  0  0  0  0  0  0  0
   46.3806    6.1471   13.2719 C   0  0  0  0  0  0  0  0  0  0  0  0
   44.0609    5.0128   12.2679 C   0  0  0  0  0  0  0  0  0  0  0  0
   46.1143    4.8545   13.5163 C   0  0  0  0  0  0  0  0  0  0  0  0
   44.9075    4.2721   12.9880 C   0  0  0  0  0  0  0  0  0  0  0  0
   45.8881    8.3614   12.2855 C   0  0  0  0  0  0  0  0  0  0  0  0
   43.5322    7.0266   11.2561 O   0  0  0  0  0  0  0  0  0  0  0  0
   47.0056    3.9737   14.3381 C   0  0  0  0  0  0  0  0  0  0  0  0
   44.9106    9.3485   12.0845 C   0  0  0  0  0  0  0  0  0  0  0  0
   47.2330    8.7767   12.2686 C   0  0  0  0  0  0  0  0  0  0  0  0
   47.5826   10.1161   12.0588 C   0  0  0  0  0  0  0  0  0  0  0  0
   45.2575   10.6891   11.8761 C   0  0  0  0  0  0  0  0  0  0  0  0
   46.5935   11.0730   11.8638 C   0  0  0  0  0  0  0  0  0  0  0  0
   47.2660    6.5999   13.7044 H   0  0  0  0  0  0  0  0  0  0  0  0
   43.1441    4.6124   11.8540 H   0  0  0  0  0  0  0  0  0  0  0  0
   44.6908    3.2273   13.1871 H   0  0  0  0  0  0  0  0  0  0  0  0
   46.4691    3.5917   15.2134 H   0  0  0  0  0  0  0  0  0  0  0  0
   47.8892    4.5108   14.6997 H   0  0  0  0  0  0  0  0  0  0  0  0
   47.3558    3.1214   13.7459 H   0  0  0  0  0  0  0  0  0  0  0  0
   43.8510    9.1097   12.1171 H   0  0  0  0  0  0  0  0  0  0  0  0
   48.0450    8.0629   12.3701 H   0  0  0  0  0  0  0  0  0  0  0  0
   48.6299   10.4060   12.0372 H   0  0  0  0  0  0  0  0  0  0  0  0
   44.4755   11.4294   11.7269 H   0  0  0  0  0  0  0  0  0  0  0  0
   46.8614   12.1128   11.6982 H   0  0  0  0  0  0  0  0  0  0  0  0
  2  1  1  0
  3  1  1  0
  4  2  1  0
  5  3  2  0
  6  5  1  0
  7  1  1  0
  8  2  2  0
  9  5  1  0
 10  7  2  0
 11  7  1  0
 12 11  2  0
 13 10  1  0
 14 12  1  0
  4  6  2  0
 13 14  2  0
  3 15  1  0
  4 16  1  0
  6 17  1  0
  9 18  1  0
  9 19  1  0
  9 20  1  0
 10 21  1  0
 11 22  1  0
 12 23  1  0
 13 24  1  0
 14 25  1  0
M  END
> <Uni-Dock RESULT> 
ENERGY=   -3.607  LOWER_BOUND=    4.533  UPPER_BOUND=    6.257
INTER + INTRA:          -3.607
INTER:                  -3.607
INTRA:                   0.000
UNBOUND:                 0.000

$$$$

     RDKit          3D

 25 26  0  0  0  0  0  0  0  0999 V2000
   45.1591    7.1000   12.0086 N   0  0  0  0  0  0  0  0  0  0  0  0
   44.2989    8.0989   11.4953 C   0  0  0  0  0  0  0  0  0  0  0  0
   46.3172    7.4727   12.6988 C   0  0  0  0  0  0  0  0  0  0  0  0
   44.7166    9.5120   11.7215 C   0  0  0  0  0  0  0  0  0  0  0  0
   46.6718    8.7509   12.9040 C   0  0  0  0  0  0  0  0  0  0  0  0
   45.8323    9.8049   12.3950 C   0  0  0  0  0  0  0  0  0  0  0  0
   44.8281    5.7004   11.8269 C   0  0  0  0  0  0  0  0  0  0  0  0
   43.2275    7.9350   10.9127 O   0  0  0  0  0  0  0  0  0  0  0  0
   47.9223    9.1501   13.6267 C   0  0  0  0  0  0  0  0  0  0  0  0
   44.0849    5.2505   10.7244 C   0  0  0  0  0  0  0  0  0  0  0  0
   45.2600    4.7290   12.7497 C   0  0  0  0  0  0  0  0  0  0  0  0
   44.9604    3.3722   12.5778 C   0  0  0  0  0  0  0  0  0  0  0  0
   43.7854    3.8938   10.5493 C   0  0  0  0  0  0  0  0  0  0  0  0
   44.2236    2.9547   11.4757 C   0  0  0  0  0  0  0  0  0  0  0  0
   46.9689    6.6770   13.0427 H   0  0  0  0  0  0  0  0  0  0  0  0
   44.0598   10.2749   11.3232 H   0  0  0  0  0  0  0  0  0  0  0  0
   46.1197   10.8387   12.5590 H   0  0  0  0  0  0  0  0  0  0  0  0
   48.5738    9.7399   12.9728 H   0  0  0  0  0  0  0  0  0  0  0  0
   48.4938    8.2792   13.9653 H   0  0  0  0  0  0  0  0  0  0  0  0
   47.6807    9.7512   14.5100 H   0  0  0  0  0  0  0  0  0  0  0  0
   43.7459    5.9369    9.9532 H   0  0  0  0  0  0  0  0  0  0  0  0
   45.7988    5.0071   13.6505 H   0  0  0  0  0  0  0  0  0  0  0  0
   45.2953    2.6458   13.3137 H   0  0  0  0  0  0  0  0  0  0  0  0
   43.2103    3.5782    9.6824 H   0  0  0  0  0  0  0  0  0  0  0  0
   43.9873    1.9028   11.3406 H   0  0  0  0  0  0  0  0  0  0  0  0
  2  1  1  0
  3  1  1  0
  4  2  1  0
  5  3  2  0
  6  5  1  0
  7  1  1  0
  8  2  2  0
  9  5  1  0
 10  7  2  0
 11  7  1  0
 12 11  2  0
 13 10  1  0
 14 12  1  0
  4  6  2  0
 13 14  2  0
  3 15  1  0
  4 16  1  0
  6 17  1  0
  9 18  1  0
  9 19  1  0
  9 20  1  0
 10 21  1  0
 11 22  1  0
 12 23  1  0
 13 24  1  0
 14 25  1  0
M  END
> <Uni-Dock RESULT> 
ENERGY=   -3.586  LOWER_BOUND=    3.847  UPPER_BOUND=    5.962
INTER + INTRA:          -3.586
INTER:                  -3.586
INTRA:                   0.000
UNBOUND:                 0.000

$$$$
