
     RDKit          3D

 25 26  0  0  0  0  0  0  0  0999 V2000
   45.4233    3.4463    9.0603 N   0  0  0  0  0  0  0  0  0  0  0  0
   45.4532    4.8273    9.3654 C   0  0  0  0  0  0  0  0  0  0  0  0
   44.6838    2.5756    9.8676 C   0  0  0  0  0  0  0  0  0  0  0  0
   44.6554    5.2613   10.5478 C   0  0  0  0  0  0  0  0  0  0  0  0
   43.9807    2.9820   10.9361 C   0  0  0  0  0  0  0  0  0  0  0  0
   43.9739    4.3797   11.2843 C   0  0  0  0  0  0  0  0  0  0  0  0
   46.1683    2.9427    7.9231 C   0  0  0  0  0  0  0  0  0  0  0  0
   46.0898    5.7069    8.7864 O   0  0  0  0  0  0  0  0  0  0  0  0
   43.1729    2.0522   11.7896 C   0  0  0  0  0  0  0  0  0  0  0  0
   46.4211    3.7346    6.7920 C   0  0  0  0  0  0  0  0  0  0  0  0
   46.6546    1.6220    7.9043 C   0  0  0  0  0  0  0  0  0  0  0  0
   47.3620    1.1185    6.8058 C   0  0  0  0  0  0  0  0  0  0  0  0
   47.1269    3.2329    5.6916 C   0  0  0  0  0  0  0  0  0  0  0  0
   47.5969    1.9247    5.6983 C   0  0  0  0  0  0  0  0  0  0  0  0
   44.6561    1.5311    9.5771 H   0  0  0  0  0  0  0  0  0  0  0  0
   44.6750    6.3192   10.7765 H   0  0  0  0  0  0  0  0  0  0  0  0
   43.4038    4.7091   12.1474 H   0  0  0  0  0  0  0  0  0  0  0  0
   42.1163    2.3409   11.7807 H   0  0  0  0  0  0  0  0  0  0  0  0
   43.2364    1.0167   11.4380 H   0  0  0  0  0  0  0  0  0  0  0  0
   43.5299    2.0726   12.8249 H   0  0  0  0  0  0  0  0  0  0  0  0
   46.0486    4.7529    6.7201 H   0  0  0  0  0  0  0  0  0  0  0  0
   46.5382    0.9658    8.7615 H   0  0  0  0  0  0  0  0  0  0  0  0
   47.7378    0.0988    6.8244 H   0  0  0  0  0  0  0  0  0  0  0  0
   47.3030    3.8716    4.8297 H   0  0  0  0  0  0  0  0  0  0  0  0
   48.1476    1.5379    4.8453 H   0  0  0  0  0  0  0  0  0  0  0  0
  2  1  1  0
  3  1  1  0
  4  2  1  0
  5  3  2  0
  6  5  1  0
  7  1  1  0
  8  2  2  0
  9  5  1  0
 10  7  2  0
 11  7  1  0
 12 11  2  0
 13 10  1  0
 14 12  1  0
  4  6  2  0
 13 14  2  0
  3 15  1  0
  4 16  1  0
  6 17  1  0
  9 18  1  0
  9 19  1  0
  9 20  1  0
 10 21  1  0
 11 22  1  0
 12 23  1  0
 13 24  1  0
 14 25  1  0
M  END
> <Uni-Dock RESULT> 
ENERGY=   -5.422  LOWER_BOUND=    0.000  UPPER_BOUND=    0.000
INTER + INTRA:          -5.422
INTER:                  -5.422
INTRA:                   0.000
UNBOUND:                 0.000

$$$$

     RDKit          3D

 25 26  0  0  0  0  0  0  0  0999 V2000
   45.0555    3.8182    9.3896 N   0  0  0  0  0  0  0  0  0  0  0  0
   44.7441    2.4562    9.6107 C   0  0  0  0  0  0  0  0  0  0  0  0
   45.8539    4.1768    8.2984 C   0  0  0  0  0  0  0  0  0  0  0  0
   45.2926    1.4832    8.6231 C   0  0  0  0  0  0  0  0  0  0  0  0
   46.3497    3.2859    7.4257 C   0  0  0  0  0  0  0  0  0  0  0  0
   46.0554    1.8871    7.6037 C   0  0  0  0  0  0  0  0  0  0  0  0
   44.5566    4.8292   10.3011 C   0  0  0  0  0  0  0  0  0  0  0  0
   44.1001    1.9788   10.5443 O   0  0  0  0  0  0  0  0  0  0  0  0
   47.1890    3.6718    6.2457 C   0  0  0  0  0  0  0  0  0  0  0  0
   43.3549    4.6635   11.0074 C   0  0  0  0  0  0  0  0  0  0  0  0
   45.2572    6.0337   10.4992 C   0  0  0  0  0  0  0  0  0  0  0  0
   44.7783    7.0247   11.3648 C   0  0  0  0  0  0  0  0  0  0  0  0
   42.8730    5.6536   11.8723 C   0  0  0  0  0  0  0  0  0  0  0  0
   43.5845    6.8345   12.0507 C   0  0  0  0  0  0  0  0  0  0  0  0
   46.0373    5.2343    8.1428 H   0  0  0  0  0  0  0  0  0  0  0  0
   45.0487    0.4418    8.7907 H   0  0  0  0  0  0  0  0  0  0  0  0
   46.4545    1.1664    6.8969 H   0  0  0  0  0  0  0  0  0  0  0  0
   46.7065    3.3631    5.3121 H   0  0  0  0  0  0  0  0  0  0  0  0
   47.3477    4.7544    6.1944 H   0  0  0  0  0  0  0  0  0  0  0  0
   48.1737    3.1954    6.3020 H   0  0  0  0  0  0  0  0  0  0  0  0
   42.7425    3.7748   10.8806 H   0  0  0  0  0  0  0  0  0  0  0  0
   46.2167    6.2131   10.0235 H   0  0  0  0  0  0  0  0  0  0  0  0
   45.3473    7.9395   11.5090 H   0  0  0  0  0  0  0  0  0  0  0  0
   41.9370    5.4952   12.4021 H   0  0  0  0  0  0  0  0  0  0  0  0
   43.2114    7.6004   12.7250 H   0  0  0  0  0  0  0  0  0  0  0  0
  2  1  1  0
  3  1  1  0
  4  2  1  0
  5  3  2  0
  6  5  1  0
  7  1  1  0
  8  2  2  0
  9  5  1  0
 10  7  2  0
 11  7  1  0
 12 11  2  0
 13 10  1  0
 14 12  1  0
  4  6  2  0
 13 14  2  0
  3 15  1  0
  4 16  1  0
  6 17  1  0
  9 18  1  0
  9 19  1  0
  9 20  1  0
 10 21  1  0
 11 22  1  0
 12 23  1  0
 13 24  1  0
 14 25  1  0
M  END
> <Uni-Dock RESULT> 
ENERGY=   -4.406  LOWER_BOUND=    1.740  UPPER_BOUND=    5.457
INTER + INTRA:          -4.406
INTER:                  -4.406
INTRA:                   0.000
UNBOUND:                 0.000

$$$$

     RDKit          3D

 25 26  0  0  0  0  0  0  0  0999 V2000
   49.7428    3.2957   17.7843 N   0  0  0  0  0  0  0  0  0  0  0  0
   48.8076    2.7678   16.8635 C   0  0  0  0  0  0  0  0  0  0  0  0
   49.3680    4.3509   18.6226 C   0  0  0  0  0  0  0  0  0  0  0  0
   47.4500    3.3841   16.8725 C   0  0  0  0  0  0  0  0  0  0  0  0
   48.1444    4.9021   18.6087 C   0  0  0  0  0  0  0  0  0  0  0  0
   47.1542    4.3953   17.6936 C   0  0  0  0  0  0  0  0  0  0  0  0
   51.0842    2.7489   17.8431 C   0  0  0  0  0  0  0  0  0  0  0  0
   48.9965    1.8806   16.0322 O   0  0  0  0  0  0  0  0  0  0  0  0
   47.7368    6.0196   19.5202 C   0  0  0  0  0  0  0  0  0  0  0  0
   51.3557    1.4119   17.5127 C   0  0  0  0  0  0  0  0  0  0  0  0
   52.1714    3.5421   18.2554 C   0  0  0  0  0  0  0  0  0  0  0  0
   53.4691    3.0219   18.3316 C   0  0  0  0  0  0  0  0  0  0  0  0
   52.6523    0.8889   17.5895 C   0  0  0  0  0  0  0  0  0  0  0  0
   53.7090    1.6938   17.9995 C   0  0  0  0  0  0  0  0  0  0  0  0
   50.1022    4.7007   19.3400 H   0  0  0  0  0  0  0  0  0  0  0  0
   46.7339    2.9752   16.1711 H   0  0  0  0  0  0  0  0  0  0  0  0
   46.1637    4.8395   17.6835 H   0  0  0  0  0  0  0  0  0  0  0  0
   46.8968    5.7139   20.1531 H   0  0  0  0  0  0  0  0  0  0  0  0
   48.5549    6.3263   20.1809 H   0  0  0  0  0  0  0  0  0  0  0  0
   47.4332    6.8976   18.9400 H   0  0  0  0  0  0  0  0  0  0  0  0
   50.5625    0.7302   17.2179 H   0  0  0  0  0  0  0  0  0  0  0  0
   52.0464    4.5967   18.4819 H   0  0  0  0  0  0  0  0  0  0  0  0
   54.2921    3.6614   18.6402 H   0  0  0  0  0  0  0  0  0  0  0  0
   52.8282   -0.1519   17.3295 H   0  0  0  0  0  0  0  0  0  0  0  0
   54.7153    1.2877   18.0551 H   0  0  0  0  0  0  0  0  0  0  0  0
  2  1  1  0
  3  1  1  0
  4  2  1  0
  5  3  2  0
  6  5  1  0
  7  1  1  0
  8  2  2  0
  9  5  1  0
 10  7  2  0
 11  7  1  0
 12 11  2  0
 13 10  1  0
 14 12  1  0
  4  6  2  0
 13 14  2  0
  3 15  1  0
  4 16  1  0
  6 17  1  0
  9 18  1  0
  9 19  1  0
  9 20  1  0
 10 21  1  0
 11 22  1  0
 12 23  1  0
 13 24  1  0
 14 25  1  0
M  END
> <Uni-Dock RESULT> 
ENERGY=   -4.295  LOWER_BOUND=    9.586  UPPER_BOUND=   10.594
INTER + INTRA:          -4.295
INTER:                  -4.295
INTRA:                   0.000
UNBOUND:                 0.000

$$$$

     RDKit          3D

 25 26  0  0  0  0  0  0  0  0999 V2000
   44.4642    6.4759   12.2497 N   0  0  0  0  0  0  0  0  0  0  0  0
   43.2516    5.7645   12.0928 C   0  0  0  0  0  0  0  0  0  0  0  0
   45.5928    5.8173   12.7488 C   0  0  0  0  0  0  0  0  0  0  0  0
   43.2782    4.3212   12.4658 C   0  0  0  0  0  0  0  0  0  0  0  0
   45.5956    4.5197   13.0913 C   0  0  0  0  0  0  0  0  0  0  0  0
   44.3870    3.7500   12.9437 C   0  0  0  0  0  0  0  0  0  0  0  0
   44.5246    7.8827   11.9047 C   0  0  0  0  0  0  0  0  0  0  0  0
   42.1680    6.2088   11.7155 O   0  0  0  0  0  0  0  0  0  0  0  0
   46.8097    3.8093   13.6079 C   0  0  0  0  0  0  0  0  0  0  0  0
   43.7029    8.4394   10.9121 C   0  0  0  0  0  0  0  0  0  0  0  0
   45.4316    8.7467   12.5468 C   0  0  0  0  0  0  0  0  0  0  0  0
   45.5108   10.1040   12.2121 C   0  0  0  0  0  0  0  0  0  0  0  0
   43.7814    9.7961   10.5745 C   0  0  0  0  0  0  0  0  0  0  0  0
   44.6857   10.6283   11.2242 C   0  0  0  0  0  0  0  0  0  0  0  0
   46.5120    6.3888   12.8177 H   0  0  0  0  0  0  0  0  0  0  0  0
   42.3508    3.7769   12.3398 H   0  0  0  0  0  0  0  0  0  0  0  0
   44.3893    2.6999   13.2187 H   0  0  0  0  0  0  0  0  0  0  0  0
   47.0816    2.9798   12.9463 H   0  0  0  0  0  0  0  0  0  0  0  0
   47.6755    4.4770   13.6749 H   0  0  0  0  0  0  0  0  0  0  0  0
   46.6231    3.4079   14.6098 H   0  0  0  0  0  0  0  0  0  0  0  0
   43.0018    7.8282   10.3503 H   0  0  0  0  0  0  0  0  0  0  0  0
   46.0659    8.3982   13.3563 H   0  0  0  0  0  0  0  0  0  0  0  0
   46.2112   10.7509   12.7341 H   0  0  0  0  0  0  0  0  0  0  0  0
   43.1327   10.1951    9.7988 H   0  0  0  0  0  0  0  0  0  0  0  0
   44.7429   11.6816   10.9639 H   0  0  0  0  0  0  0  0  0  0  0  0
  2  1  1  0
  3  1  1  0
  4  2  1  0
  5  3  2  0
  6  5  1  0
  7  1  1  0
  8  2  2  0
  9  5  1  0
 10  7  2  0
 11  7  1  0
 12 11  2  0
 13 10  1  0
 14 12  1  0
  4  6  2  0
 13 14  2  0
  3 15  1  0
  4 16  1  0
  6 17  1  0
  9 18  1  0
  9 19  1  0
  9 20  1  0
 10 21  1  0
 11 22  1  0
 12 23  1  0
 13 24  1  0
 14 25  1  0
M  END
> <Uni-Dock RESULT> 
ENERGY=   -3.929  LOWER_BOUND=    5.119  UPPER_BOUND=    6.469
INTER + INTRA:          -3.929
INTER:                  -3.929
INTRA:                   0.000
UNBOUND:                 0.000

$$$$

     RDKit          3D

 25 26  0  0  0  0  0  0  0  0999 V2000
   44.6565    7.5530   11.9470 N   0  0  0  0  0  0  0  0  0  0  0  0
   45.6712    8.2131   12.6789 C   0  0  0  0  0  0  0  0  0  0  0  0
   43.8272    8.2901   11.0952 C   0  0  0  0  0  0  0  0  0  0  0  0
   45.7921    9.6836   12.4640 C   0  0  0  0  0  0  0  0  0  0  0  0
   43.9422    9.6161   10.9230 C   0  0  0  0  0  0  0  0  0  0  0  0
   44.9647   10.3332   11.6409 C   0  0  0  0  0  0  0  0  0  0  0  0
   44.4756    6.1221   12.0947 C   0  0  0  0  0  0  0  0  0  0  0  0
   46.4440    7.7180   13.4985 O   0  0  0  0  0  0  0  0  0  0  0  0
   43.0664   10.4029    9.9959 C   0  0  0  0  0  0  0  0  0  0  0  0
   45.5420    5.2688   12.4190 C   0  0  0  0  0  0  0  0  0  0  0  0
   43.2146    5.5283   11.8986 C   0  0  0  0  0  0  0  0  0  0  0  0
   43.0297    4.1460   12.0229 C   0  0  0  0  0  0  0  0  0  0  0  0
   45.3599    3.8860   12.5423 C   0  0  0  0  0  0  0  0  0  0  0  0
   44.1038    3.3245   12.3438 C   0  0  0  0  0  0  0  0  0  0  0  0
   43.0872    7.7406   10.5237 H   0  0  0  0  0  0  0  0  0  0  0  0
   46.5727   10.1862   13.0207 H   0  0  0  0  0  0  0  0  0  0  0  0
   45.0594   11.4054   11.5004 H   0  0  0  0  0  0  0  0  0  0  0  0
   43.6665   10.8916    9.2208 H   0  0  0  0  0  0  0  0  0  0  0  0
   42.3297    9.7672    9.4929 H   0  0  0  0  0  0  0  0  0  0  0  0
   42.5169   11.1734   10.5474 H   0  0  0  0  0  0  0  0  0  0  0  0
   46.5506    5.6503   12.5525 H   0  0  0  0  0  0  0  0  0  0  0  0
   42.3342    6.1292   11.6915 H   0  0  0  0  0  0  0  0  0  0  0  0
   42.0416    3.7163   11.8792 H   0  0  0  0  0  0  0  0  0  0  0  0
   46.2076    3.2526   12.7914 H   0  0  0  0  0  0  0  0  0  0  0  0
   43.9632    2.2517   12.4434 H   0  0  0  0  0  0  0  0  0  0  0  0
  2  1  1  0
  3  1  1  0
  4  2  1  0
  5  3  2  0
  6  5  1  0
  7  1  1  0
  8  2  2  0
  9  5  1  0
 10  7  2  0
 11  7  1  0
 12 11  2  0
 13 10  1  0
 14 12  1  0
  4  6  2  0
 13 14  2  0
  3 15  1  0
  4 16  1  0
  6 17  1  0
  9 18  1  0
  9 19  1  0
  9 20  1  0
 10 21  1  0
 11 22  1  0
 12 23  1  0
 13 24  1  0
 14 25  1  0
M  END
> <Uni-Dock RESULT> 
ENERGY=   -3.900  LOWER_BOUND=    4.739  UPPER_BOUND=    6.323
INTER + INTRA:          -3.900
INTER:                  -3.900
INTRA:                   0.000
UNBOUND:                 0.000

$$$$

     RDKit          3D

 25 26  0  0  0  0  0  0  0  0999 V2000
   46.2911    6.2439   13.1352 N   0  0  0  0  0  0  0  0  0  0  0  0
   47.2813    5.7630   14.0237 C   0  0  0  0  0  0  0  0  0  0  0  0
   46.3317    7.5758   12.7097 C   0  0  0  0  0  0  0  0  0  0  0  0
   48.3317    6.7382   14.4343 C   0  0  0  0  0  0  0  0  0  0  0  0
   47.2783    8.4437   13.0992 C   0  0  0  0  0  0  0  0  0  0  0  0
   48.3128    8.0006   13.9984 C   0  0  0  0  0  0  0  0  0  0  0  0
   45.2364    5.3579   12.6831 C   0  0  0  0  0  0  0  0  0  0  0  0
   47.3556    4.6411   14.5234 O   0  0  0  0  0  0  0  0  0  0  0  0
   47.3329    9.8653   12.6283 C   0  0  0  0  0  0  0  0  0  0  0  0
   45.4291    3.9721   12.5694 C   0  0  0  0  0  0  0  0  0  0  0  0
   43.9734    5.8626   12.3208 C   0  0  0  0  0  0  0  0  0  0  0  0
   42.9512    5.0196   11.8679 C   0  0  0  0  0  0  0  0  0  0  0  0
   44.4090    3.1272   12.1152 C   0  0  0  0  0  0  0  0  0  0  0  0
   43.1702    3.6510   11.7640 C   0  0  0  0  0  0  0  0  0  0  0  0
   45.5767    7.8939   11.9991 H   0  0  0  0  0  0  0  0  0  0  0  0
   49.0918    6.3670   15.1099 H   0  0  0  0  0  0  0  0  0  0  0  0
   49.0798    8.7017   14.3121 H   0  0  0  0  0  0  0  0  0  0  0  0
   48.2713   10.0599   12.0979 H   0  0  0  0  0  0  0  0  0  0  0  0
   46.5106   10.1003   11.9438 H   0  0  0  0  0  0  0  0  0  0  0  0
   47.2641   10.5544   13.4770 H   0  0  0  0  0  0  0  0  0  0  0  0
   46.3873    3.5139   12.7990 H   0  0  0  0  0  0  0  0  0  0  0  0
   43.7356    6.9168   12.4266 H   0  0  0  0  0  0  0  0  0  0  0  0
   41.9811    5.4353   11.6080 H   0  0  0  0  0  0  0  0  0  0  0  0
   44.5920    2.0586   12.0357 H   0  0  0  0  0  0  0  0  0  0  0  0
   42.3783    2.9939   11.4152 H   0  0  0  0  0  0  0  0  0  0  0  0
  2  1  1  0
  3  1  1  0
  4  2  1  0
  5  3  2  0
  6  5  1  0
  7  1  1  0
  8  2  2  0
  9  5  1  0
 10  7  2  0
 11  7  1  0
 12 11  2  0
 13 10  1  0
 14 12  1  0
  4  6  2  0
 13 14  2  0
  3 15  1  0
  4 16  1  0
  6 17  1  0
  9 18  1  0
  9 19  1  0
  9 20  1  0
 10 21  1  0
 11 22  1  0
 12 23  1  0
 13 24  1  0
 14 25  1  0
M  END
> <Uni-Dock RESULT> 
ENERGY=   -3.776  LOWER_BOUND=    4.688  UPPER_BOUND=    6.513
INTER + INTRA:          -3.776
INTER:                  -3.776
INTRA:                   0.000
UNBOUND:                 0.000

$$$$

     RDKit          3D

 25 26  0  0  0  0  0  0  0  0999 V2000
   46.6929    5.0447   13.8774 N   0  0  0  0  0  0  0  0  0  0  0  0
   47.5600    6.1606   13.8145 C   0  0  0  0  0  0  0  0  0  0  0  0
   46.7135    4.2155   15.0038 C   0  0  0  0  0  0  0  0  0  0  0  0
   48.4407    6.3818   14.9970 C   0  0  0  0  0  0  0  0  0  0  0  0
   47.5220    4.4227   16.0548 C   0  0  0  0  0  0  0  0  0  0  0  0
   48.4190    5.5498   16.0416 C   0  0  0  0  0  0  0  0  0  0  0  0
   45.8001    4.7619   12.7707 C   0  0  0  0  0  0  0  0  0  0  0  0
   47.6948    6.9505   12.8807 O   0  0  0  0  0  0  0  0  0  0  0  0
   47.5305    3.5455   17.2697 C   0  0  0  0  0  0  0  0  0  0  0  0
   45.3039    5.7781   11.9391 C   0  0  0  0  0  0  0  0  0  0  0  0
   45.3799    3.4465   12.4982 C   0  0  0  0  0  0  0  0  0  0  0  0
   44.5057    3.1618   11.4421 C   0  0  0  0  0  0  0  0  0  0  0  0
   44.4284    5.4962   10.8834 C   0  0  0  0  0  0  0  0  0  0  0  0
   44.0289    4.1880   10.6352 C   0  0  0  0  0  0  0  0  0  0  0  0
   46.0065    3.3935   15.0290 H   0  0  0  0  0  0  0  0  0  0  0  0
   49.0996    7.2395   14.9495 H   0  0  0  0  0  0  0  0  0  0  0  0
   49.0717    5.7189   16.8924 H   0  0  0  0  0  0  0  0  0  0  0  0
   47.2723    4.1231   18.1639 H   0  0  0  0  0  0  0  0  0  0  0  0
   46.8097    2.7251   17.1857 H   0  0  0  0  0  0  0  0  0  0  0  0
   48.5211    3.1019   17.4168 H   0  0  0  0  0  0  0  0  0  0  0  0
   45.5574    6.8211   12.1083 H   0  0  0  0  0  0  0  0  0  0  0  0
   45.7582    2.6038   13.0689 H   0  0  0  0  0  0  0  0  0  0  0  0
   44.2086    2.1347   11.2463 H   0  0  0  0  0  0  0  0  0  0  0  0
   44.0598    6.3069   10.2599 H   0  0  0  0  0  0  0  0  0  0  0  0
   43.3523    3.9702    9.8133 H   0  0  0  0  0  0  0  0  0  0  0  0
  2  1  1  0
  3  1  1  0
  4  2  1  0
  5  3  2  0
  6  5  1  0
  7  1  1  0
  8  2  2  0
  9  5  1  0
 10  7  2  0
 11  7  1  0
 12 11  2  0
 13 10  1  0
 14 12  1  0
  4  6  2  0
 13 14  2  0
  3 15  1  0
  4 16  1  0
  6 17  1  0
  9 18  1  0
  9 19  1  0
  9 20  1  0
 10 21  1  0
 11 22  1  0
 12 23  1  0
 13 24  1  0
 14 25  1  0
M  END
> <Uni-Dock RESULT> 
ENERGY=   -3.589  LOWER_BOUND=    4.368  UPPER_BOUND=    5.849
INTER + INTRA:          -3.589
INTER:                  -3.589
INTRA:                   0.000
UNBOUND:                 0.000

$$$$

     RDKit          3D

 25 26  0  0  0  0  0  0  0  0999 V2000
   46.6254    6.2294   12.9828 N   0  0  0  0  0  0  0  0  0  0  0  0
   47.2635    5.7281   14.1415 C   0  0  0  0  0  0  0  0  0  0  0  0
   47.2372    7.2453   12.2411 C   0  0  0  0  0  0  0  0  0  0  0  0
   48.5860    6.3274   14.4803 C   0  0  0  0  0  0  0  0  0  0  0  0
   48.4231    7.7821   12.5677 C   0  0  0  0  0  0  0  0  0  0  0  0
   49.1161    7.3010   13.7352 C   0  0  0  0  0  0  0  0  0  0  0  0
   45.3384    5.6965   12.5807 C   0  0  0  0  0  0  0  0  0  0  0  0
   46.8362    4.8774   14.9211 O   0  0  0  0  0  0  0  0  0  0  0  0
   49.0877    8.8570   11.7623 C   0  0  0  0  0  0  0  0  0  0  0  0
   44.9576    4.3773   12.8722 C   0  0  0  0  0  0  0  0  0  0  0  0
   44.4220    6.4852   11.8601 C   0  0  0  0  0  0  0  0  0  0  0  0
   43.1824    5.9778   11.4523 C   0  0  0  0  0  0  0  0  0  0  0  0
   43.7191    3.8670   12.4641 C   0  0  0  0  0  0  0  0  0  0  0  0
   42.8317    4.6671   11.7537 C   0  0  0  0  0  0  0  0  0  0  0  0
   46.7333    7.5746   11.3389 H   0  0  0  0  0  0  0  0  0  0  0  0
   49.0755    5.9387   15.3642 H   0  0  0  0  0  0  0  0  0  0  0  0
   50.0763    7.7335   13.9986 H   0  0  0  0  0  0  0  0  0  0  0  0
   50.0609    8.5161   11.3932 H   0  0  0  0  0  0  0  0  0  0  0  0
   48.4867    9.1465   10.8934 H   0  0  0  0  0  0  0  0  0  0  0  0
   49.2420    9.7541   12.3715 H   0  0  0  0  0  0  0  0  0  0  0  0
   45.6255    3.6987   13.3958 H   0  0  0  0  0  0  0  0  0  0  0  0
   44.6274    7.5283   11.6388 H   0  0  0  0  0  0  0  0  0  0  0  0
   42.4886    6.6140   10.9088 H   0  0  0  0  0  0  0  0  0  0  0  0
   43.4561    2.8397   12.7034 H   0  0  0  0  0  0  0  0  0  0  0  0
   41.8695    4.2711   11.4409 H   0  0  0  0  0  0  0  0  0  0  0  0
  2  1  1  0
  3  1  1  0
  4  2  1  0
  5  3  2  0
  6  5  1  0
  7  1  1  0
  8  2  2  0
  9  5  1  0
 10  7  2  0
 11  7  1  0
 12 11  2  0
 13 10  1  0
 14 12  1  0
  4  6  2  0
 13 14  2  0
  3 15  1  0
  4 16  1  0
  6 17  1  0
  9 18  1  0
  9 19  1  0
  9 20  1  0
 10 21  1  0
 11 22  1  0
 12 23  1  0
 13 24  1  0
 14 25  1  0
M  END
> <Uni-Dock RESULT> 
ENERGY=   -3.518  LOWER_BOUND=    5.122  UPPER_BOUND=    6.683
INTER + INTRA:          -3.518
INTER:                  -3.518
INTRA:                   0.000
UNBOUND:                 0.000

$$$$

     RDKit          3D

 25 26  0  0  0  0  0  0  0  0999 V2000
   45.3654    6.0439   12.3159 N   0  0  0  0  0  0  0  0  0  0  0  0
   44.3660    6.8895   11.7803 C   0  0  0  0  0  0  0  0  0  0  0  0
   45.1097    4.6763   12.4605 C   0  0  0  0  0  0  0  0  0  0  0  0
   43.0873    6.2336   11.3831 C   0  0  0  0  0  0  0  0  0  0  0  0
   43.9476    4.1042   12.1088 C   0  0  0  0  0  0  0  0  0  0  0  0
   42.9005    4.9219   11.5522 C   0  0  0  0  0  0  0  0  0  0  0  0
   46.6403    6.6019   12.7223 C   0  0  0  0  0  0  0  0  0  0  0  0
   44.4186    8.1104   11.6359 O   0  0  0  0  0  0  0  0  0  0  0  0
   43.6806    2.6361   12.2457 C   0  0  0  0  0  0  0  0  0  0  0  0
   47.1787    7.7451   12.1111 C   0  0  0  0  0  0  0  0  0  0  0  0
   47.4008    6.0008   13.7429 C   0  0  0  0  0  0  0  0  0  0  0  0
   48.6406    6.5206   14.1341 C   0  0  0  0  0  0  0  0  0  0  0  0
   48.4191    8.2660   12.4995 C   0  0  0  0  0  0  0  0  0  0  0  0
   49.1503    7.6534   13.5107 C   0  0  0  0  0  0  0  0  0  0  0  0
   45.9155    4.0571   12.8392 H   0  0  0  0  0  0  0  0  0  0  0  0
   42.3255    6.8814   10.9682 H   0  0  0  0  0  0  0  0  0  0  0  0
   41.9611    4.4593   11.2657 H   0  0  0  0  0  0  0  0  0  0  0  0
   43.4632    2.1911   11.2687 H   0  0  0  0  0  0  0  0  0  0  0  0
   44.5387    2.1029   12.6690 H   0  0  0  0  0  0  0  0  0  0  0  0
   42.8239    2.4610   12.9055 H   0  0  0  0  0  0  0  0  0  0  0  0
   46.6651    8.2441   11.2938 H   0  0  0  0  0  0  0  0  0  0  0  0
   47.0280    5.1419   14.2928 H   0  0  0  0  0  0  0  0  0  0  0  0
   49.2001    6.0436   14.9348 H   0  0  0  0  0  0  0  0  0  0  0  0
   48.8092    9.1512   12.0035 H   0  0  0  0  0  0  0  0  0  0  0  0
   50.1110    8.0608   13.8136 H   0  0  0  0  0  0  0  0  0  0  0  0
  2  1  1  0
  3  1  1  0
  4  2  1  0
  5  3  2  0
  6  5  1  0
  7  1  1  0
  8  2  2  0
  9  5  1  0
 10  7  2  0
 11  7  1  0
 12 11  2  0
 13 10  1  0
 14 12  1  0
  4  6  2  0
 13 14  2  0
  3 15  1  0
  4 16  1  0
  6 17  1  0
  9 18  1  0
  9 19  1  0
  9 20  1  0
 10 21  1  0
 11 22  1  0
 12 23  1  0
 13 24  1  0
 14 25  1  0
M  END
> <Uni-Dock RESULT> 
ENERGY=   -3.510  LOWER_BOUND=    4.638  UPPER_BOUND=    5.702
INTER + INTRA:          -3.510
INTER:                  -3.510
INTRA:                   0.000
UNBOUND:                 0.000

$$$$
