
     RDKit          3D

 25 26  0  0  0  0  0  0  0  0999 V2000
   45.2576    3.5007    9.2509 N   0  0  0  0  0  0  0  0  0  0  0  0
   44.3672    2.6228    9.9124 C   0  0  0  0  0  0  0  0  0  0  0  0
   45.3678    4.8272    9.6805 C   0  0  0  0  0  0  0  0  0  0  0  0
   43.6075    3.1931   11.0616 C   0  0  0  0  0  0  0  0  0  0  0  0
   44.6668    5.3274   10.7099 C   0  0  0  0  0  0  0  0  0  0  0  0
   43.7515    4.4716   11.4204 C   0  0  0  0  0  0  0  0  0  0  0  0
   46.0382    3.0234    8.1262 C   0  0  0  0  0  0  0  0  0  0  0  0
   44.1227    1.4513    9.6267 O   0  0  0  0  0  0  0  0  0  0  0  0
   44.7990    6.7433   11.1826 C   0  0  0  0  0  0  0  0  0  0  0  0
   46.4273    1.6798    8.0099 C   0  0  0  0  0  0  0  0  0  0  0  0
   46.4537    3.9028    7.1088 C   0  0  0  0  0  0  0  0  0  0  0  0
   47.2209    3.4577    6.0253 C   0  0  0  0  0  0  0  0  0  0  0  0
   47.1960    1.2324    6.9283 C   0  0  0  0  0  0  0  0  0  0  0  0
   47.5932    2.1216    5.9363 C   0  0  0  0  0  0  0  0  0  0  0  0
   46.0893    5.4566    9.1712 H   0  0  0  0  0  0  0  0  0  0  0  0
   42.9307    2.5184   11.5702 H   0  0  0  0  0  0  0  0  0  0  0  0
   43.1859    4.8752   12.2543 H   0  0  0  0  0  0  0  0  0  0  0  0
   43.8373    7.2630   11.1141 H   0  0  0  0  0  0  0  0  0  0  0  0
   45.1359    6.7719   12.2244 H   0  0  0  0  0  0  0  0  0  0  0  0
   45.5232    7.3071   10.5847 H   0  0  0  0  0  0  0  0  0  0  0  0
   46.1723    0.9493    8.7729 H   0  0  0  0  0  0  0  0  0  0  0  0
   46.1518    4.9458    7.1065 H   0  0  0  0  0  0  0  0  0  0  0  0
   47.5162    4.1565    5.2469 H   0  0  0  0  0  0  0  0  0  0  0  0
   47.4833    0.1856    6.8698 H   0  0  0  0  0  0  0  0  0  0  0  0
   48.1865    1.7724    5.0955 H   0  0  0  0  0  0  0  0  0  0  0  0
  2  1  1  0
  3  1  1  0
  4  2  1  0
  5  3  2  0
  6  5  1  0
  7  1  1  0
  8  2  2  0
  9  5  1  0
 10  7  2  0
 11  7  1  0
 12 11  2  0
 13 10  1  0
 14 12  1  0
  4  6  2  0
 13 14  2  0
  3 15  1  0
  4 16  1  0
  6 17  1  0
  9 18  1  0
  9 19  1  0
  9 20  1  0
 10 21  1  0
 11 22  1  0
 12 23  1  0
 13 24  1  0
 14 25  1  0
M  END
> <Uni-Dock RESULT> 
ENERGY=   -5.943  LOWER_BOUND=    0.000  UPPER_BOUND=    0.000
INTER + INTRA:          -5.943
INTER:                  -5.943
INTRA:                   0.000
UNBOUND:                 0.000

$$$$

     RDKit          3D

 25 26  0  0  0  0  0  0  0  0999 V2000
   49.7423    3.2961   17.7841 N   0  0  0  0  0  0  0  0  0  0  0  0
   48.8070    2.7677   16.8637 C   0  0  0  0  0  0  0  0  0  0  0  0
   49.3675    4.3515   18.6220 C   0  0  0  0  0  0  0  0  0  0  0  0
   47.4493    3.3838   16.8727 C   0  0  0  0  0  0  0  0  0  0  0  0
   48.1438    4.9025   18.6082 C   0  0  0  0  0  0  0  0  0  0  0  0
   47.1535    4.3952   17.6934 C   0  0  0  0  0  0  0  0  0  0  0  0
   51.0838    2.7495   17.8429 C   0  0  0  0  0  0  0  0  0  0  0  0
   48.9959    1.8802   16.0327 O   0  0  0  0  0  0  0  0  0  0  0  0
   47.7363    6.0203   19.5193 C   0  0  0  0  0  0  0  0  0  0  0  0
   51.3555    1.4126   17.5128 C   0  0  0  0  0  0  0  0  0  0  0  0
   52.1709    3.5431   18.2546 C   0  0  0  0  0  0  0  0  0  0  0  0
   53.4688    3.0233   18.3306 C   0  0  0  0  0  0  0  0  0  0  0  0
   52.6523    0.8898   17.5896 C   0  0  0  0  0  0  0  0  0  0  0  0
   53.7089    1.6950   17.9990 C   0  0  0  0  0  0  0  0  0  0  0  0
   50.1017    4.7019   19.3391 H   0  0  0  0  0  0  0  0  0  0  0  0
   46.7332    2.9745   16.1716 H   0  0  0  0  0  0  0  0  0  0  0  0
   46.1630    4.8392   17.6834 H   0  0  0  0  0  0  0  0  0  0  0  0
   47.4322    6.8981   18.9389 H   0  0  0  0  0  0  0  0  0  0  0  0
   46.8964    5.7147   20.1525 H   0  0  0  0  0  0  0  0  0  0  0  0
   48.5544    6.3275   20.1796 H   0  0  0  0  0  0  0  0  0  0  0  0
   50.5624    0.7305   17.2185 H   0  0  0  0  0  0  0  0  0  0  0  0
   52.0458    4.5979   18.4806 H   0  0  0  0  0  0  0  0  0  0  0  0
   54.2917    3.6631   18.6387 H   0  0  0  0  0  0  0  0  0  0  0  0
   52.8282   -0.1511   17.3300 H   0  0  0  0  0  0  0  0  0  0  0  0
   54.7153    1.2892   18.0545 H   0  0  0  0  0  0  0  0  0  0  0  0
  2  1  1  0
  3  1  1  0
  4  2  1  0
  5  3  2  0
  6  5  1  0
  7  1  1  0
  8  2  2  0
  9  5  1  0
 10  7  2  0
 11  7  1  0
 12 11  2  0
 13 10  1  0
 14 12  1  0
  4  6  2  0
 13 14  2  0
  3 15  1  0
  4 16  1  0
  6 17  1  0
  9 18  1  0
  9 19  1  0
  9 20  1  0
 10 21  1  0
 11 22  1  0
 12 23  1  0
 13 24  1  0
 14 25  1  0
M  END
> <Uni-Dock RESULT> 
ENERGY=   -4.297  LOWER_BOUND=    9.549  UPPER_BOUND=   10.295
INTER + INTRA:          -4.297
INTER:                  -4.297
INTRA:                   0.000
UNBOUND:                 0.000

$$$$

     RDKit          3D

 25 26  0  0  0  0  0  0  0  0999 V2000
   44.4648    6.4719   12.2502 N   0  0  0  0  0  0  0  0  0  0  0  0
   43.2522    5.7605   12.0936 C   0  0  0  0  0  0  0  0  0  0  0  0
   45.5936    5.8135   12.7489 C   0  0  0  0  0  0  0  0  0  0  0  0
   43.2791    4.3171   12.4662 C   0  0  0  0  0  0  0  0  0  0  0  0
   45.5966    4.5157   13.0911 C   0  0  0  0  0  0  0  0  0  0  0  0
   44.3880    3.7460   12.9437 C   0  0  0  0  0  0  0  0  0  0  0  0
   44.5250    7.8789   11.9057 C   0  0  0  0  0  0  0  0  0  0  0  0
   42.1685    6.2048   11.7168 O   0  0  0  0  0  0  0  0  0  0  0  0
   46.8110    3.8054   13.6071 C   0  0  0  0  0  0  0  0  0  0  0  0
   43.7029    8.4358   10.9136 C   0  0  0  0  0  0  0  0  0  0  0  0
   45.4321    8.7428   12.5477 C   0  0  0  0  0  0  0  0  0  0  0  0
   45.5110   10.1003   12.2134 C   0  0  0  0  0  0  0  0  0  0  0  0
   43.7811    9.7926   10.5762 C   0  0  0  0  0  0  0  0  0  0  0  0
   44.6856   10.6247   11.2258 C   0  0  0  0  0  0  0  0  0  0  0  0
   46.5127    6.3849   12.8177 H   0  0  0  0  0  0  0  0  0  0  0  0
   42.3517    3.7729   12.3405 H   0  0  0  0  0  0  0  0  0  0  0  0
   44.3906    2.6958   13.2184 H   0  0  0  0  0  0  0  0  0  0  0  0
   46.6248    3.4035   14.6089 H   0  0  0  0  0  0  0  0  0  0  0  0
   47.0827    2.9761   12.9452 H   0  0  0  0  0  0  0  0  0  0  0  0
   47.6767    4.4731   13.6741 H   0  0  0  0  0  0  0  0  0  0  0  0
   43.0017    7.8247   10.3517 H   0  0  0  0  0  0  0  0  0  0  0  0
   46.0667    8.3943   13.3570 H   0  0  0  0  0  0  0  0  0  0  0  0
   46.2115   10.7470   12.7354 H   0  0  0  0  0  0  0  0  0  0  0  0
   43.1321   10.1918    9.8008 H   0  0  0  0  0  0  0  0  0  0  0  0
   44.7426   11.6782   10.9658 H   0  0  0  0  0  0  0  0  0  0  0  0
  2  1  1  0
  3  1  1  0
  4  2  1  0
  5  3  2  0
  6  5  1  0
  7  1  1  0
  8  2  2  0
  9  5  1  0
 10  7  2  0
 11  7  1  0
 12 11  2  0
 13 10  1  0
 14 12  1  0
  4  6  2  0
 13 14  2  0
  3 15  1  0
  4 16  1  0
  6 17  1  0
  9 18  1  0
  9 19  1  0
  9 20  1  0
 10 21  1  0
 11 22  1  0
 12 23  1  0
 13 24  1  0
 14 25  1  0
M  END
> <Uni-Dock RESULT> 
ENERGY=   -3.927  LOWER_BOUND=    4.935  UPPER_BOUND=    6.301
INTER + INTRA:          -3.927
INTER:                  -3.927
INTRA:                   0.000
UNBOUND:                 0.000

$$$$

     RDKit          3D

 25 26  0  0  0  0  0  0  0  0999 V2000
   44.6521    7.5823   11.9482 N   0  0  0  0  0  0  0  0  0  0  0  0
   45.6648    8.2516   12.6744 C   0  0  0  0  0  0  0  0  0  0  0  0
   43.8195    8.3097   11.0915 C   0  0  0  0  0  0  0  0  0  0  0  0
   45.7801    9.7208   12.4484 C   0  0  0  0  0  0  0  0  0  0  0  0
   43.9296    9.6349   10.9092 C   0  0  0  0  0  0  0  0  0  0  0  0
   44.9497   10.3611   11.6211 C   0  0  0  0  0  0  0  0  0  0  0  0
   44.4765    6.1519   12.1069 C   0  0  0  0  0  0  0  0  0  0  0  0
   46.4399    7.7656   13.4972 O   0  0  0  0  0  0  0  0  0  0  0  0
   43.0502   10.4113    9.9768 C   0  0  0  0  0  0  0  0  0  0  0  0
   45.5462    5.3051   12.4369 C   0  0  0  0  0  0  0  0  0  0  0  0
   43.2176    5.5520   11.9162 C   0  0  0  0  0  0  0  0  0  0  0  0
   43.0378    4.1700   12.0512 C   0  0  0  0  0  0  0  0  0  0  0  0
   45.3694    3.9224   12.5708 C   0  0  0  0  0  0  0  0  0  0  0  0
   44.1152    3.3548   12.3774 C   0  0  0  0  0  0  0  0  0  0  0  0
   43.0811    7.7533   10.5247 H   0  0  0  0  0  0  0  0  0  0  0  0
   46.5592   10.2306   13.0008 H   0  0  0  0  0  0  0  0  0  0  0  0
   45.0404   11.4326   11.4723 H   0  0  0  0  0  0  0  0  0  0  0  0
   42.4983   11.1840   10.5228 H   0  0  0  0  0  0  0  0  0  0  0  0
   43.6479   10.8964    9.1976 H   0  0  0  0  0  0  0  0  0  0  0  0
   42.3155    9.7692    9.4792 H   0  0  0  0  0  0  0  0  0  0  0  0
   46.5536    5.6911   12.5669 H   0  0  0  0  0  0  0  0  0  0  0  0
   42.3348    6.1480   11.7052 H   0  0  0  0  0  0  0  0  0  0  0  0
   42.0512    3.7356   11.9114 H   0  0  0  0  0  0  0  0  0  0  0  0
   46.2196    3.2941   12.8242 H   0  0  0  0  0  0  0  0  0  0  0  0
   43.9786    2.2823   12.4854 H   0  0  0  0  0  0  0  0  0  0  0  0
  2  1  1  0
  3  1  1  0
  4  2  1  0
  5  3  2  0
  6  5  1  0
  7  1  1  0
  8  2  2  0
  9  5  1  0
 10  7  2  0
 11  7  1  0
 12 11  2  0
 13 10  1  0
 14 12  1  0
  4  6  2  0
 13 14  2  0
  3 15  1  0
  4 16  1  0
  6 17  1  0
  9 18  1  0
  9 19  1  0
  9 20  1  0
 10 21  1  0
 11 22  1  0
 12 23  1  0
 13 24  1  0
 14 25  1  0
M  END
> <Uni-Dock RESULT> 
ENERGY=   -3.903  LOWER_BOUND=    4.826  UPPER_BOUND=    6.061
INTER + INTRA:          -3.903
INTER:                  -3.903
INTRA:                   0.000
UNBOUND:                 0.000

$$$$

     RDKit          3D

 25 26  0  0  0  0  0  0  0  0999 V2000
   45.8296    6.9691   12.7640 N   0  0  0  0  0  0  0  0  0  0  0  0
   47.0804    7.0066   13.4235 C   0  0  0  0  0  0  0  0  0  0  0  0
   45.2804    8.1504   12.2548 C   0  0  0  0  0  0  0  0  0  0  0  0
   47.7431    8.3394   13.5101 C   0  0  0  0  0  0  0  0  0  0  0  0
   45.8854    9.3444   12.3524 C   0  0  0  0  0  0  0  0  0  0  0  0
   47.1642    9.4341   13.0094 C   0  0  0  0  0  0  0  0  0  0  0  0
   45.1213    5.7109   12.6324 C   0  0  0  0  0  0  0  0  0  0  0  0
   47.6687    6.0707   13.9639 O   0  0  0  0  0  0  0  0  0  0  0  0
   45.3062   10.6069   11.7900 C   0  0  0  0  0  0  0  0  0  0  0  0
   45.7969    4.4823   12.5675 C   0  0  0  0  0  0  0  0  0  0  0  0
   43.7168    5.6769   12.5461 C   0  0  0  0  0  0  0  0  0  0  0  0
   43.0216    4.4699   12.4033 C   0  0  0  0  0  0  0  0  0  0  0  0
   45.1041    3.2739   12.4229 C   0  0  0  0  0  0  0  0  0  0  0  0
   43.7165    3.2678   12.3403 C   0  0  0  0  0  0  0  0  0  0  0  0
   44.3385    8.0721   11.7231 H   0  0  0  0  0  0  0  0  0  0  0  0
   48.7028    8.3654   14.0102 H   0  0  0  0  0  0  0  0  0  0  0  0
   47.6548   10.3993   13.0867 H   0  0  0  0  0  0  0  0  0  0  0  0
   45.1491   11.3449   12.5839 H   0  0  0  0  0  0  0  0  0  0  0  0
   45.9789   11.0395   11.0417 H   0  0  0  0  0  0  0  0  0  0  0  0
   44.3398   10.4318   11.3050 H   0  0  0  0  0  0  0  0  0  0  0  0
   46.8821    4.4317   12.5941 H   0  0  0  0  0  0  0  0  0  0  0  0
   43.1240    6.5823   12.6358 H   0  0  0  0  0  0  0  0  0  0  0  0
   41.9358    4.4726   12.3528 H   0  0  0  0  0  0  0  0  0  0  0  0
   45.6579    2.3398   12.3726 H   0  0  0  0  0  0  0  0  0  0  0  0
   43.1799    2.3292   12.2320 H   0  0  0  0  0  0  0  0  0  0  0  0
  2  1  1  0
  3  1  1  0
  4  2  1  0
  5  3  2  0
  6  5  1  0
  7  1  1  0
  8  2  2  0
  9  5  1  0
 10  7  2  0
 11  7  1  0
 12 11  2  0
 13 10  1  0
 14 12  1  0
  4  6  2  0
 13 14  2  0
  3 15  1  0
  4 16  1  0
  6 17  1  0
  9 18  1  0
  9 19  1  0
  9 20  1  0
 10 21  1  0
 11 22  1  0
 12 23  1  0
 13 24  1  0
 14 25  1  0
M  END
> <Uni-Dock RESULT> 
ENERGY=   -3.865  LOWER_BOUND=    4.711  UPPER_BOUND=    6.043
INTER + INTRA:          -3.865
INTER:                  -3.865
INTRA:                   0.000
UNBOUND:                 0.000

$$$$

     RDKit          3D

 25 26  0  0  0  0  0  0  0  0999 V2000
   46.2861    6.1979   13.1551 N   0  0  0  0  0  0  0  0  0  0  0  0
   47.2800    5.7124   14.0369 C   0  0  0  0  0  0  0  0  0  0  0  0
   46.3159    7.5359   12.7488 C   0  0  0  0  0  0  0  0  0  0  0  0
   48.3225    6.6899   14.4616 C   0  0  0  0  0  0  0  0  0  0  0  0
   47.2555    8.4059   13.1509 C   0  0  0  0  0  0  0  0  0  0  0  0
   48.2934    7.9582   14.0438 C   0  0  0  0  0  0  0  0  0  0  0  0
   45.2384    5.3100   12.6903 C   0  0  0  0  0  0  0  0  0  0  0  0
   47.3633    4.5840   14.5205 O   0  0  0  0  0  0  0  0  0  0  0  0
   47.2986    9.8344   12.7004 C   0  0  0  0  0  0  0  0  0  0  0  0
   45.4422    3.9277   12.5569 C   0  0  0  0  0  0  0  0  0  0  0  0
   43.9714    5.8097   12.3352 C   0  0  0  0  0  0  0  0  0  0  0  0
   42.9560    4.9651   11.8701 C   0  0  0  0  0  0  0  0  0  0  0  0
   44.4290    3.0811   12.0904 C   0  0  0  0  0  0  0  0  0  0  0  0
   43.1860    3.6000   11.7466 C   0  0  0  0  0  0  0  0  0  0  0  0
   45.5584    7.8582   12.0428 H   0  0  0  0  0  0  0  0  0  0  0  0
   49.0855    6.3152   15.1319 H   0  0  0  0  0  0  0  0  0  0  0  0
   49.0548    8.6609   14.3676 H   0  0  0  0  0  0  0  0  0  0  0  0
   47.2244   10.5107   13.5588 H   0  0  0  0  0  0  0  0  0  0  0  0
   48.2354   10.0441   12.1730 H   0  0  0  0  0  0  0  0  0  0  0  0
   46.4745   10.0725   12.0193 H   0  0  0  0  0  0  0  0  0  0  0  0
   46.4040    3.4739   12.7800 H   0  0  0  0  0  0  0  0  0  0  0  0
   43.7251    6.8604   12.4561 H   0  0  0  0  0  0  0  0  0  0  0  0
   41.9826    5.3768   11.6161 H   0  0  0  0  0  0  0  0  0  0  0  0
   44.6206    2.0152   11.9957 H   0  0  0  0  0  0  0  0  0  0  0  0
   42.3994    2.9415   11.3884 H   0  0  0  0  0  0  0  0  0  0  0  0
  2  1  1  0
  3  1  1  0
  4  2  1  0
  5  3  2  0
  6  5  1  0
  7  1  1  0
  8  2  2  0
  9  5  1  0
 10  7  2  0
 11  7  1  0
 12 11  2  0
 13 10  1  0
 14 12  1  0
  4  6  2  0
 13 14  2  0
  3 15  1  0
  4 16  1  0
  6 17  1  0
  9 18  1  0
  9 19  1  0
  9 20  1  0
 10 21  1  0
 11 22  1  0
 12 23  1  0
 13 24  1  0
 14 25  1  0
M  END
> <Uni-Dock RESULT> 
ENERGY=   -3.782  LOWER_BOUND=    4.565  UPPER_BOUND=    5.884
INTER + INTRA:          -3.782
INTER:                  -3.782
INTRA:                   0.000
UNBOUND:                 0.000

$$$$

     RDKit          3D

 25 26  0  0  0  0  0  0  0  0999 V2000
   45.2300    7.3150   12.3463 N   0  0  0  0  0  0  0  0  0  0  0  0
   44.5213    8.3229   11.6515 C   0  0  0  0  0  0  0  0  0  0  0  0
   46.3935    7.6463   13.0484 C   0  0  0  0  0  0  0  0  0  0  0  0
   45.0771    9.7035   11.7404 C   0  0  0  0  0  0  0  0  0  0  0  0
   46.8867    8.8932   13.1077 C   0  0  0  0  0  0  0  0  0  0  0  0
   46.1975    9.9562   12.4222 C   0  0  0  0  0  0  0  0  0  0  0  0
   44.7533    5.9461   12.3149 C   0  0  0  0  0  0  0  0  0  0  0  0
   43.5172    8.1848   10.9540 O   0  0  0  0  0  0  0  0  0  0  0  0
   48.1224    9.2517   13.8757 C   0  0  0  0  0  0  0  0  0  0  0  0
   43.3919    5.6377   12.1679 C   0  0  0  0  0  0  0  0  0  0  0  0
   45.6456    4.8660   12.4500 C   0  0  0  0  0  0  0  0  0  0  0  0
   45.1963    3.5399   12.4369 C   0  0  0  0  0  0  0  0  0  0  0  0
   42.9397    4.3124   12.1562 C   0  0  0  0  0  0  0  0  0  0  0  0
   43.8419    3.2635   12.2913 C   0  0  0  0  0  0  0  0  0  0  0  0
   46.8855    6.8519   13.5987 H   0  0  0  0  0  0  0  0  0  0  0  0
   44.5304   10.4746   11.2126 H   0  0  0  0  0  0  0  0  0  0  0  0
   46.5949   10.9651   12.4716 H   0  0  0  0  0  0  0  0  0  0  0  0
   48.8801    9.6765   13.2086 H   0  0  0  0  0  0  0  0  0  0  0  0
   47.8927    9.9877   14.6537 H   0  0  0  0  0  0  0  0  0  0  0  0
   48.5657    8.3785   14.3664 H   0  0  0  0  0  0  0  0  0  0  0  0
   42.6403    6.4188   12.0915 H   0  0  0  0  0  0  0  0  0  0  0  0
   46.7174    5.0251   12.5207 H   0  0  0  0  0  0  0  0  0  0  0  0
   45.9097    2.7250   12.5296 H   0  0  0  0  0  0  0  0  0  0  0  0
   41.8779    4.1079   12.0438 H   0  0  0  0  0  0  0  0  0  0  0  0
   43.4903    2.2355   12.2781 H   0  0  0  0  0  0  0  0  0  0  0  0
  2  1  1  0
  3  1  1  0
  4  2  1  0
  5  3  2  0
  6  5  1  0
  7  1  1  0
  8  2  2  0
  9  5  1  0
 10  7  2  0
 11  7  1  0
 12 11  2  0
 13 10  1  0
 14 12  1  0
  4  6  2  0
 13 14  2  0
  3 15  1  0
  4 16  1  0
  6 17  1  0
  9 18  1  0
  9 19  1  0
  9 20  1  0
 10 21  1  0
 11 22  1  0
 12 23  1  0
 13 24  1  0
 14 25  1  0
M  END
> <Uni-Dock RESULT> 
ENERGY=   -3.728  LOWER_BOUND=    4.648  UPPER_BOUND=    6.056
INTER + INTRA:          -3.728
INTER:                  -3.728
INTRA:                   0.000
UNBOUND:                 0.000

$$$$

     RDKit          3D

 25 26  0  0  0  0  0  0  0  0999 V2000
   45.9748    6.6413   12.9307 N   0  0  0  0  0  0  0  0  0  0  0  0
   45.6464    7.9563   12.5259 C   0  0  0  0  0  0  0  0  0  0  0  0
   47.1445    6.4150   13.6636 C   0  0  0  0  0  0  0  0  0  0  0  0
   46.5919    9.0319   12.9407 C   0  0  0  0  0  0  0  0  0  0  0  0
   47.9911    7.3941   14.0182 C   0  0  0  0  0  0  0  0  0  0  0  0
   47.6976    8.7515   13.6355 C   0  0  0  0  0  0  0  0  0  0  0  0
   45.1050    5.5381   12.5725 C   0  0  0  0  0  0  0  0  0  0  0  0
   44.6870    8.3099   11.8414 O   0  0  0  0  0  0  0  0  0  0  0  0
   49.2343    7.1544   14.8198 C   0  0  0  0  0  0  0  0  0  0  0  0
   43.7244    5.7114   12.3878 C   0  0  0  0  0  0  0  0  0  0  0  0
   45.6159    4.2363   12.4128 C   0  0  0  0  0  0  0  0  0  0  0  0
   44.7842    3.1595   12.0822 C   0  0  0  0  0  0  0  0  0  0  0  0
   42.8902    4.6359   12.0589 C   0  0  0  0  0  0  0  0  0  0  0  0
   43.4201    3.3598   11.9066 C   0  0  0  0  0  0  0  0  0  0  0  0
   47.3399    5.3984   13.9869 H   0  0  0  0  0  0  0  0  0  0  0  0
   46.3362   10.0384   12.6348 H   0  0  0  0  0  0  0  0  0  0  0  0
   48.3811    9.5440   13.9239 H   0  0  0  0  0  0  0  0  0  0  0  0
   50.1202    7.4732   14.2601 H   0  0  0  0  0  0  0  0  0  0  0  0
   49.1990    7.7125   15.7617 H   0  0  0  0  0  0  0  0  0  0  0  0
   49.3625    6.0951   15.0671 H   0  0  0  0  0  0  0  0  0  0  0  0
   43.2527    6.6805   12.5266 H   0  0  0  0  0  0  0  0  0  0  0  0
   46.6796    4.0339   12.4937 H   0  0  0  0  0  0  0  0  0  0  0  0
   45.2084    2.1672   11.9517 H   0  0  0  0  0  0  0  0  0  0  0  0
   41.8243    4.8037   11.9259 H   0  0  0  0  0  0  0  0  0  0  0  0
   42.7723    2.5267   11.6475 H   0  0  0  0  0  0  0  0  0  0  0  0
  2  1  1  0
  3  1  1  0
  4  2  1  0
  5  3  2  0
  6  5  1  0
  7  1  1  0
  8  2  2  0
  9  5  1  0
 10  7  2  0
 11  7  1  0
 12 11  2  0
 13 10  1  0
 14 12  1  0
  4  6  2  0
 13 14  2  0
  3 15  1  0
  4 16  1  0
  6 17  1  0
  9 18  1  0
  9 19  1  0
  9 20  1  0
 10 21  1  0
 11 22  1  0
 12 23  1  0
 13 24  1  0
 14 25  1  0
M  END
> <Uni-Dock RESULT> 
ENERGY=   -3.728  LOWER_BOUND=    4.557  UPPER_BOUND=    6.163
INTER + INTRA:          -3.728
INTER:                  -3.728
INTRA:                   0.000
UNBOUND:                 0.000

$$$$

     RDKit          3D

 25 26  0  0  0  0  0  0  0  0999 V2000
   46.6848    5.0603   13.8776 N   0  0  0  0  0  0  0  0  0  0  0  0
   47.5485    6.1786   13.8104 C   0  0  0  0  0  0  0  0  0  0  0  0
   46.7176    4.2276   15.0009 C   0  0  0  0  0  0  0  0  0  0  0  0
   48.4391    6.3984   14.9857 C   0  0  0  0  0  0  0  0  0  0  0  0
   47.5350    4.4335   16.0454 C   0  0  0  0  0  0  0  0  0  0  0  0
   48.4290    5.5629   16.0278 C   0  0  0  0  0  0  0  0  0  0  0  0
   45.7829    4.7786   12.7780 C   0  0  0  0  0  0  0  0  0  0  0  0
   47.6729    6.9717   12.8779 O   0  0  0  0  0  0  0  0  0  0  0  0
   47.5566    3.5526   17.2574 C   0  0  0  0  0  0  0  0  0  0  0  0
   45.2768    5.7960   11.9541 C   0  0  0  0  0  0  0  0  0  0  0  0
   45.3637    3.4629   12.5050 C   0  0  0  0  0  0  0  0  0  0  0  0
   44.4809    3.1793   11.4558 C   0  0  0  0  0  0  0  0  0  0  0  0
   44.3925    5.5152   10.9052 C   0  0  0  0  0  0  0  0  0  0  0  0
   43.9942    4.2069   10.6565 C   0  0  0  0  0  0  0  0  0  0  0  0
   46.0131    3.4036   15.0299 H   0  0  0  0  0  0  0  0  0  0  0  0
   49.0955    7.2578   14.9350 H   0  0  0  0  0  0  0  0  0  0  0  0
   49.0887    5.7310   16.8732 H   0  0  0  0  0  0  0  0  0  0  0  0
   48.5496    3.1111   17.3943 H   0  0  0  0  0  0  0  0  0  0  0  0
   47.3048    4.1266   18.1556 H   0  0  0  0  0  0  0  0  0  0  0  0
   46.8372    2.7305   17.1772 H   0  0  0  0  0  0  0  0  0  0  0  0
   45.5291    6.8392   12.1242 H   0  0  0  0  0  0  0  0  0  0  0  0
   45.7493    2.6194   13.0696 H   0  0  0  0  0  0  0  0  0  0  0  0
   44.1848    2.1520   11.2595 H   0  0  0  0  0  0  0  0  0  0  0  0
   44.0164    6.3270   10.2876 H   0  0  0  0  0  0  0  0  0  0  0  0
   43.3109    3.9898    9.8399 H   0  0  0  0  0  0  0  0  0  0  0  0
  2  1  1  0
  3  1  1  0
  4  2  1  0
  5  3  2  0
  6  5  1  0
  7  1  1  0
  8  2  2  0
  9  5  1  0
 10  7  2  0
 11  7  1  0
 12 11  2  0
 13 10  1  0
 14 12  1  0
  4  6  2  0
 13 14  2  0
  3 15  1  0
  4 16  1  0
  6 17  1  0
  9 18  1  0
  9 19  1  0
  9 20  1  0
 10 21  1  0
 11 22  1  0
 12 23  1  0
 13 24  1  0
 14 25  1  0
M  END
> <Uni-Dock RESULT> 
ENERGY=   -3.593  LOWER_BOUND=    4.481  UPPER_BOUND=    6.218
INTER + INTRA:          -3.593
INTER:                  -3.593
INTRA:                   0.000
UNBOUND:                 0.000

$$$$
