
     RDKit          3D

 25 26  0  0  0  0  0  0  0  0999 V2000
   45.2576    3.4995    9.2505 N   0  0  0  0  0  0  0  0  0  0  0  0
   44.3688    2.6199    9.9120 C   0  0  0  0  0  0  0  0  0  0  0  0
   45.3661    4.8259    9.6811 C   0  0  0  0  0  0  0  0  0  0  0  0
   43.6090    3.1883   11.0618 C   0  0  0  0  0  0  0  0  0  0  0  0
   44.6648    5.3245   10.7111 C   0  0  0  0  0  0  0  0  0  0  0  0
   43.7512    4.4668   11.4215 C   0  0  0  0  0  0  0  0  0  0  0  0
   46.0383    3.0242    8.1252 C   0  0  0  0  0  0  0  0  0  0  0  0
   44.1260    1.4482    9.6255 O   0  0  0  0  0  0  0  0  0  0  0  0
   44.7952    6.7401   11.1847 C   0  0  0  0  0  0  0  0  0  0  0  0
   46.4294    1.6811    8.0077 C   0  0  0  0  0  0  0  0  0  0  0  0
   46.4521    3.9048    7.1081 C   0  0  0  0  0  0  0  0  0  0  0  0
   47.2194    3.4616    6.0240 C   0  0  0  0  0  0  0  0  0  0  0  0
   47.1982    1.2357    6.9255 C   0  0  0  0  0  0  0  0  0  0  0  0
   47.5936    2.1260    5.9339 C   0  0  0  0  0  0  0  0  0  0  0  0
   46.0863    5.4566    9.1718 H   0  0  0  0  0  0  0  0  0  0  0  0
   42.9334    2.5123   11.5704 H   0  0  0  0  0  0  0  0  0  0  0  0
   43.1853    4.8690   12.2559 H   0  0  0  0  0  0  0  0  0  0  0  0
   45.1325    6.7686   12.2263 H   0  0  0  0  0  0  0  0  0  0  0  0
   43.8326    7.2585   11.1169 H   0  0  0  0  0  0  0  0  0  0  0  0
   45.5182    7.3055   10.5868 H   0  0  0  0  0  0  0  0  0  0  0  0
   46.1759    0.9498    8.7704 H   0  0  0  0  0  0  0  0  0  0  0  0
   46.1486    4.9475    7.1067 H   0  0  0  0  0  0  0  0  0  0  0  0
   47.5132    4.1613    5.2459 H   0  0  0  0  0  0  0  0  0  0  0  0
   47.4871    0.1894    6.8662 H   0  0  0  0  0  0  0  0  0  0  0  0
   48.1870    1.7784    5.0927 H   0  0  0  0  0  0  0  0  0  0  0  0
  2  1  1  0
  3  1  1  0
  4  2  1  0
  5  3  2  0
  6  5  1  0
  7  1  1  0
  8  2  2  0
  9  5  1  0
 10  7  2  0
 11  7  1  0
 12 11  2  0
 13 10  1  0
 14 12  1  0
  4  6  2  0
 13 14  2  0
  3 15  1  0
  4 16  1  0
  6 17  1  0
  9 18  1  0
  9 19  1  0
  9 20  1  0
 10 21  1  0
 11 22  1  0
 12 23  1  0
 13 24  1  0
 14 25  1  0
M  END
> <Uni-Dock RESULT> 
ENERGY=   -5.941  LOWER_BOUND=    0.000  UPPER_BOUND=    0.000
INTER + INTRA:          -5.941
INTER:                  -5.941
INTRA:                   0.000
UNBOUND:                 0.000

$$$$

     RDKit          3D

 25 26  0  0  0  0  0  0  0  0999 V2000
   45.4233    3.4463    9.0602 N   0  0  0  0  0  0  0  0  0  0  0  0
   45.4532    4.8273    9.3654 C   0  0  0  0  0  0  0  0  0  0  0  0
   44.6838    2.5756    9.8674 C   0  0  0  0  0  0  0  0  0  0  0  0
   44.6554    5.2611   10.5477 C   0  0  0  0  0  0  0  0  0  0  0  0
   43.9807    2.9819   10.9361 C   0  0  0  0  0  0  0  0  0  0  0  0
   43.9740    4.3797   11.2844 C   0  0  0  0  0  0  0  0  0  0  0  0
   46.1684    2.9428    7.9231 C   0  0  0  0  0  0  0  0  0  0  0  0
   46.0898    5.7068    8.7865 O   0  0  0  0  0  0  0  0  0  0  0  0
   43.1729    2.0521   11.7895 C   0  0  0  0  0  0  0  0  0  0  0  0
   46.4213    3.7347    6.7920 C   0  0  0  0  0  0  0  0  0  0  0  0
   46.6547    1.6221    7.9042 C   0  0  0  0  0  0  0  0  0  0  0  0
   47.3622    1.1186    6.8058 C   0  0  0  0  0  0  0  0  0  0  0  0
   47.1271    3.2331    5.6916 C   0  0  0  0  0  0  0  0  0  0  0  0
   47.5971    1.9249    5.6983 C   0  0  0  0  0  0  0  0  0  0  0  0
   44.6562    1.5312    9.5770 H   0  0  0  0  0  0  0  0  0  0  0  0
   44.6750    6.3191   10.7765 H   0  0  0  0  0  0  0  0  0  0  0  0
   43.4038    4.7090   12.1473 H   0  0  0  0  0  0  0  0  0  0  0  0
   42.1164    2.3406   11.7806 H   0  0  0  0  0  0  0  0  0  0  0  0
   43.5299    2.0724   12.8248 H   0  0  0  0  0  0  0  0  0  0  0  0
   43.2365    1.0166   11.4379 H   0  0  0  0  0  0  0  0  0  0  0  0
   46.0487    4.7529    6.7201 H   0  0  0  0  0  0  0  0  0  0  0  0
   46.5384    0.9657    8.7615 H   0  0  0  0  0  0  0  0  0  0  0  0
   47.7380    0.0989    6.8243 H   0  0  0  0  0  0  0  0  0  0  0  0
   47.3031    3.8717    4.8297 H   0  0  0  0  0  0  0  0  0  0  0  0
   48.1479    1.5380    4.8452 H   0  0  0  0  0  0  0  0  0  0  0  0
  2  1  1  0
  3  1  1  0
  4  2  1  0
  5  3  2  0
  6  5  1  0
  7  1  1  0
  8  2  2  0
  9  5  1  0
 10  7  2  0
 11  7  1  0
 12 11  2  0
 13 10  1  0
 14 12  1  0
  4  6  2  0
 13 14  2  0
  3 15  1  0
  4 16  1  0
  6 17  1  0
  9 18  1  0
  9 19  1  0
  9 20  1  0
 10 21  1  0
 11 22  1  0
 12 23  1  0
 13 24  1  0
 14 25  1  0
M  END
> <Uni-Dock RESULT> 
ENERGY=   -5.422  LOWER_BOUND=    1.375  UPPER_BOUND=    2.602
INTER + INTRA:          -5.422
INTER:                  -5.422
INTRA:                   0.000
UNBOUND:                 0.000

$$$$

     RDKit          3D

 25 26  0  0  0  0  0  0  0  0999 V2000
   45.0555    3.8182    9.3895 N   0  0  0  0  0  0  0  0  0  0  0  0
   44.7441    2.4561    9.6106 C   0  0  0  0  0  0  0  0  0  0  0  0
   45.8538    4.1768    8.2984 C   0  0  0  0  0  0  0  0  0  0  0  0
   45.2927    1.4832    8.6231 C   0  0  0  0  0  0  0  0  0  0  0  0
   46.3497    3.2859    7.4256 C   0  0  0  0  0  0  0  0  0  0  0  0
   46.0555    1.8870    7.6038 C   0  0  0  0  0  0  0  0  0  0  0  0
   44.5566    4.8291   10.3010 C   0  0  0  0  0  0  0  0  0  0  0  0
   44.1002    1.9788   10.5442 O   0  0  0  0  0  0  0  0  0  0  0  0
   47.1890    3.6718    6.2457 C   0  0  0  0  0  0  0  0  0  0  0  0
   43.3549    4.6634   11.0074 C   0  0  0  0  0  0  0  0  0  0  0  0
   45.2572    6.0338   10.4992 C   0  0  0  0  0  0  0  0  0  0  0  0
   44.7783    7.0247   11.3648 C   0  0  0  0  0  0  0  0  0  0  0  0
   42.8731    5.6536   11.8724 C   0  0  0  0  0  0  0  0  0  0  0  0
   43.5845    6.8344   12.0506 C   0  0  0  0  0  0  0  0  0  0  0  0
   46.0373    5.2342    8.1428 H   0  0  0  0  0  0  0  0  0  0  0  0
   45.0488    0.4419    8.7907 H   0  0  0  0  0  0  0  0  0  0  0  0
   46.4546    1.1663    6.8970 H   0  0  0  0  0  0  0  0  0  0  0  0
   46.7066    3.3631    5.3121 H   0  0  0  0  0  0  0  0  0  0  0  0
   48.1737    3.1954    6.3019 H   0  0  0  0  0  0  0  0  0  0  0  0
   47.3477    4.7544    6.1944 H   0  0  0  0  0  0  0  0  0  0  0  0
   42.7426    3.7747   10.8806 H   0  0  0  0  0  0  0  0  0  0  0  0
   46.2167    6.2132   10.0234 H   0  0  0  0  0  0  0  0  0  0  0  0
   45.3473    7.9395   11.5090 H   0  0  0  0  0  0  0  0  0  0  0  0
   41.9370    5.4952   12.4020 H   0  0  0  0  0  0  0  0  0  0  0  0
   43.2114    7.6004   12.7250 H   0  0  0  0  0  0  0  0  0  0  0  0
  2  1  1  0
  3  1  1  0
  4  2  1  0
  5  3  2  0
  6  5  1  0
  7  1  1  0
  8  2  2  0
  9  5  1  0
 10  7  2  0
 11  7  1  0
 12 11  2  0
 13 10  1  0
 14 12  1  0
  4  6  2  0
 13 14  2  0
  3 15  1  0
  4 16  1  0
  6 17  1  0
  9 18  1  0
  9 19  1  0
  9 20  1  0
 10 21  1  0
 11 22  1  0
 12 23  1  0
 13 24  1  0
 14 25  1  0
M  END
> <Uni-Dock RESULT> 
ENERGY=   -4.404  LOWER_BOUND=    0.932  UPPER_BOUND=    4.929
INTER + INTRA:          -4.404
INTER:                  -4.404
INTRA:                   0.000
UNBOUND:                 0.000

$$$$

     RDKit          3D

 25 26  0  0  0  0  0  0  0  0999 V2000
   45.2725    5.9568   11.3679 N   0  0  0  0  0  0  0  0  0  0  0  0
   44.1258    5.5176   12.0703 C   0  0  0  0  0  0  0  0  0  0  0  0
   45.6026    5.3651   10.1442 C   0  0  0  0  0  0  0  0  0  0  0  0
   43.3257    4.4393   11.4226 C   0  0  0  0  0  0  0  0  0  0  0  0
   44.8773    4.3862    9.5811 C   0  0  0  0  0  0  0  0  0  0  0  0
   43.6965    3.9088   10.2542 C   0  0  0  0  0  0  0  0  0  0  0  0
   46.1026    7.0058   11.9266 C   0  0  0  0  0  0  0  0  0  0  0  0
   43.7319    5.9004   13.1714 O   0  0  0  0  0  0  0  0  0  0  0  0
   45.2200    3.7656    8.2610 C   0  0  0  0  0  0  0  0  0  0  0  0
   45.5768    8.0003   12.7663 C   0  0  0  0  0  0  0  0  0  0  0  0
   47.4767    7.0765   11.6297 C   0  0  0  0  0  0  0  0  0  0  0  0
   48.2863    8.0933   12.1504 C   0  0  0  0  0  0  0  0  0  0  0  0
   46.3840    9.0192   13.2868 C   0  0  0  0  0  0  0  0  0  0  0  0
   47.7386    9.0661   12.9784 C   0  0  0  0  0  0  0  0  0  0  0  0
   46.4673    5.7566    9.6198 H   0  0  0  0  0  0  0  0  0  0  0  0
   42.4455    4.1083   11.9588 H   0  0  0  0  0  0  0  0  0  0  0  0
   43.1084    3.1186    9.7982 H   0  0  0  0  0  0  0  0  0  0  0  0
   44.4062    3.9128    7.5430 H   0  0  0  0  0  0  0  0  0  0  0  0
   45.3925    2.6899    8.3750 H   0  0  0  0  0  0  0  0  0  0  0  0
   46.1267    4.2019    7.8281 H   0  0  0  0  0  0  0  0  0  0  0  0
   44.5190    8.0305   13.0131 H   0  0  0  0  0  0  0  0  0  0  0  0
   47.9632    6.3164   11.0258 H   0  0  0  0  0  0  0  0  0  0  0  0
   49.3473    8.1153   11.9153 H   0  0  0  0  0  0  0  0  0  0  0  0
   45.9447    9.7762   13.9316 H   0  0  0  0  0  0  0  0  0  0  0  0
   48.3646    9.8552   13.3860 H   0  0  0  0  0  0  0  0  0  0  0  0
  2  1  1  0
  3  1  1  0
  4  2  1  0
  5  3  2  0
  6  5  1  0
  7  1  1  0
  8  2  2  0
  9  5  1  0
 10  7  2  0
 11  7  1  0
 12 11  2  0
 13 10  1  0
 14 12  1  0
  4  6  2  0
 13 14  2  0
  3 15  1  0
  4 16  1  0
  6 17  1  0
  9 18  1  0
  9 19  1  0
  9 20  1  0
 10 21  1  0
 11 22  1  0
 12 23  1  0
 13 24  1  0
 14 25  1  0
M  END
> <Uni-Dock RESULT> 
ENERGY=   -3.871  LOWER_BOUND=    2.768  UPPER_BOUND=    5.762
INTER + INTRA:          -3.871
INTER:                  -3.871
INTRA:                   0.000
UNBOUND:                 0.000

$$$$

     RDKit          3D

 25 26  0  0  0  0  0  0  0  0999 V2000
   46.2756    6.2687   13.0986 N   0  0  0  0  0  0  0  0  0  0  0  0
   47.2865    5.7718   13.9543 C   0  0  0  0  0  0  0  0  0  0  0  0
   46.3074    7.6077   12.6955 C   0  0  0  0  0  0  0  0  0  0  0  0
   48.3477    6.7387   14.3561 C   0  0  0  0  0  0  0  0  0  0  0  0
   47.2643    8.4681   13.0769 C   0  0  0  0  0  0  0  0  0  0  0  0
   48.3197    8.0086   13.9429 C   0  0  0  0  0  0  0  0  0  0  0  0
   45.2091    5.3916   12.6570 C   0  0  0  0  0  0  0  0  0  0  0  0
   47.3716    4.6412   14.4325 O   0  0  0  0  0  0  0  0  0  0  0  0
   47.3092    9.8976   12.6297 C   0  0  0  0  0  0  0  0  0  0  0  0
   45.3973    4.0079   12.5146 C   0  0  0  0  0  0  0  0  0  0  0  0
   43.9383    5.9035   12.3344 C   0  0  0  0  0  0  0  0  0  0  0  0
   42.9043    5.0694   11.8920 C   0  0  0  0  0  0  0  0  0  0  0  0
   44.3654    3.1718   12.0708 C   0  0  0  0  0  0  0  0  0  0  0  0
   43.1191    3.7026   11.7590 C   0  0  0  0  0  0  0  0  0  0  0  0
   45.5358    7.9388   12.0092 H   0  0  0  0  0  0  0  0  0  0  0  0
   49.1236    6.3552   15.0065 H   0  0  0  0  0  0  0  0  0  0  0  0
   49.0950    8.7035   14.2500 H   0  0  0  0  0  0  0  0  0  0  0  0
   48.2345   10.1006   12.0801 H   0  0  0  0  0  0  0  0  0  0  0  0
   47.2619   10.5719   13.4916 H   0  0  0  0  0  0  0  0  0  0  0  0
   46.4707   10.1452   11.9696 H   0  0  0  0  0  0  0  0  0  0  0  0
   46.3602    3.5450   12.7129 H   0  0  0  0  0  0  0  0  0  0  0  0
   43.7044    6.9560   12.4643 H   0  0  0  0  0  0  0  0  0  0  0  0
   41.9287    5.4903   11.6630 H   0  0  0  0  0  0  0  0  0  0  0  0
   44.5451    2.1046   11.9682 H   0  0  0  0  0  0  0  0  0  0  0  0
   42.3181    3.0522   11.4182 H   0  0  0  0  0  0  0  0  0  0  0  0
  2  1  1  0
  3  1  1  0
  4  2  1  0
  5  3  2  0
  6  5  1  0
  7  1  1  0
  8  2  2  0
  9  5  1  0
 10  7  2  0
 11  7  1  0
 12 11  2  0
 13 10  1  0
 14 12  1  0
  4  6  2  0
 13 14  2  0
  3 15  1  0
  4 16  1  0
  6 17  1  0
  9 18  1  0
  9 19  1  0
  9 20  1  0
 10 21  1  0
 11 22  1  0
 12 23  1  0
 13 24  1  0
 14 25  1  0
M  END
> <Uni-Dock RESULT> 
ENERGY=   -3.760  LOWER_BOUND=    4.571  UPPER_BOUND=    5.902
INTER + INTRA:          -3.760
INTER:                  -3.760
INTRA:                   0.000
UNBOUND:                 0.000

$$$$

     RDKit          3D

 25 26  0  0  0  0  0  0  0  0999 V2000
   46.4217    7.4796   12.0168 N   0  0  0  0  0  0  0  0  0  0  0  0
   46.0905    8.7083   12.6348 C   0  0  0  0  0  0  0  0  0  0  0  0
   47.7566    7.1989   11.7073 C   0  0  0  0  0  0  0  0  0  0  0  0
   47.2267    9.6264   12.9329 C   0  0  0  0  0  0  0  0  0  0  0  0
   48.7661    8.0429   11.9720 C   0  0  0  0  0  0  0  0  0  0  0  0
   48.4811    9.3043   12.6066 C   0  0  0  0  0  0  0  0  0  0  0  0
   45.3757    6.5279   11.6977 C   0  0  0  0  0  0  0  0  0  0  0  0
   44.9678    9.1206   12.9238 O   0  0  0  0  0  0  0  0  0  0  0  0
   50.1984    7.7341   11.6580 C   0  0  0  0  0  0  0  0  0  0  0  0
   44.1920    6.4468   12.4479 C   0  0  0  0  0  0  0  0  0  0  0  0
   45.5184    5.6291   10.6240 C   0  0  0  0  0  0  0  0  0  0  0  0
   44.5225    4.6947   10.3148 C   0  0  0  0  0  0  0  0  0  0  0  0
   43.1954    5.5122   12.1418 C   0  0  0  0  0  0  0  0  0  0  0  0
   43.3608    4.6357   11.0756 C   0  0  0  0  0  0  0  0  0  0  0  0
   47.9724    6.2307   11.2692 H   0  0  0  0  0  0  0  0  0  0  0  0
   46.9720   10.5638   13.4109 H   0  0  0  0  0  0  0  0  0  0  0  0
   49.2975    9.9863   12.8227 H   0  0  0  0  0  0  0  0  0  0  0  0
   50.8019    7.7335   12.5720 H   0  0  0  0  0  0  0  0  0  0  0  0
   50.6107    8.4800   10.9699 H   0  0  0  0  0  0  0  0  0  0  0  0
   50.3102    6.7517   11.1866 H   0  0  0  0  0  0  0  0  0  0  0  0
   44.0252    7.0852   13.3113 H   0  0  0  0  0  0  0  0  0  0  0  0
   46.3851    5.6636    9.9706 H   0  0  0  0  0  0  0  0  0  0  0  0
   44.6536    4.0218    9.4713 H   0  0  0  0  0  0  0  0  0  0  0  0
   42.2917    5.4733   12.7449 H   0  0  0  0  0  0  0  0  0  0  0  0
   42.5849    3.9134   10.8369 H   0  0  0  0  0  0  0  0  0  0  0  0
  2  1  1  0
  3  1  1  0
  4  2  1  0
  5  3  2  0
  6  5  1  0
  7  1  1  0
  8  2  2  0
  9  5  1  0
 10  7  2  0
 11  7  1  0
 12 11  2  0
 13 10  1  0
 14 12  1  0
  4  6  2  0
 13 14  2  0
  3 15  1  0
  4 16  1  0
  6 17  1  0
  9 18  1  0
  9 19  1  0
  9 20  1  0
 10 21  1  0
 11 22  1  0
 12 23  1  0
 13 24  1  0
 14 25  1  0
M  END
> <Uni-Dock RESULT> 
ENERGY=   -3.662  LOWER_BOUND=    4.142  UPPER_BOUND=    6.257
INTER + INTRA:          -3.662
INTER:                  -3.662
INTRA:                   0.000
UNBOUND:                 0.000

$$$$

     RDKit          3D

 25 26  0  0  0  0  0  0  0  0999 V2000
   51.3963    2.8376   18.0125 N   0  0  0  0  0  0  0  0  0  0  0  0
   52.2340    3.8072   18.6118 C   0  0  0  0  0  0  0  0  0  0  0  0
   51.9264    1.5950   17.6497 C   0  0  0  0  0  0  0  0  0  0  0  0
   53.6537    3.4095   18.8328 C   0  0  0  0  0  0  0  0  0  0  0  0
   53.2107    1.2580   17.8450 C   0  0  0  0  0  0  0  0  0  0  0  0
   54.1026    2.2087   18.4580 C   0  0  0  0  0  0  0  0  0  0  0  0
   50.0004    3.1429   17.7674 C   0  0  0  0  0  0  0  0  0  0  0  0
   51.9329    4.9540   18.9409 O   0  0  0  0  0  0  0  0  0  0  0  0
   53.7742   -0.0800   17.4740 C   0  0  0  0  0  0  0  0  0  0  0  0
   49.2850    4.0427   18.5730 C   0  0  0  0  0  0  0  0  0  0  0  0
   49.2997    2.5281   16.7128 C   0  0  0  0  0  0  0  0  0  0  0  0
   47.9475    2.8026   16.4748 C   0  0  0  0  0  0  0  0  0  0  0  0
   47.9322    4.3175   18.3382 C   0  0  0  0  0  0  0  0  0  0  0  0
   47.2633    3.6971   17.2895 C   0  0  0  0  0  0  0  0  0  0  0  0
   51.2424    0.8666   17.2284 H   0  0  0  0  0  0  0  0  0  0  0  0
   54.2920    4.1508   19.2966 H   0  0  0  0  0  0  0  0  0  0  0  0
   55.1410    1.9358   18.6180 H   0  0  0  0  0  0  0  0  0  0  0  0
   54.1677   -0.5914   18.3590 H   0  0  0  0  0  0  0  0  0  0  0  0
   54.5866    0.0327   16.7480 H   0  0  0  0  0  0  0  0  0  0  0  0
   53.0168   -0.7314   17.0245 H   0  0  0  0  0  0  0  0  0  0  0  0
   49.7495    4.5304   19.4257 H   0  0  0  0  0  0  0  0  0  0  0  0
   49.7984    1.8572   16.0196 H   0  0  0  0  0  0  0  0  0  0  0  0
   47.4351    2.3235   15.6445 H   0  0  0  0  0  0  0  0  0  0  0  0
   47.4063    5.0172   18.9830 H   0  0  0  0  0  0  0  0  0  0  0  0
   46.2145    3.9141   17.1060 H   0  0  0  0  0  0  0  0  0  0  0  0
  2  1  1  0
  3  1  1  0
  4  2  1  0
  5  3  2  0
  6  5  1  0
  7  1  1  0
  8  2  2  0
  9  5  1  0
 10  7  2  0
 11  7  1  0
 12 11  2  0
 13 10  1  0
 14 12  1  0
  4  6  2  0
 13 14  2  0
  3 15  1  0
  4 16  1  0
  6 17  1  0
  9 18  1  0
  9 19  1  0
  9 20  1  0
 10 21  1  0
 11 22  1  0
 12 23  1  0
 13 24  1  0
 14 25  1  0
M  END
> <Uni-Dock RESULT> 
ENERGY=   -3.657  LOWER_BOUND=   10.303  UPPER_BOUND=   11.586
INTER + INTRA:          -3.657
INTER:                  -3.657
INTRA:                   0.000
UNBOUND:                 0.000

$$$$

     RDKit          3D

 25 26  0  0  0  0  0  0  0  0999 V2000
   51.4537    3.1092   17.8388 N   0  0  0  0  0  0  0  0  0  0  0  0
   51.8888    1.7679   17.7265 C   0  0  0  0  0  0  0  0  0  0  0  0
   52.3922    4.1259   18.0437 C   0  0  0  0  0  0  0  0  0  0  0  0
   53.3591    1.5392   17.8199 C   0  0  0  0  0  0  0  0  0  0  0  0
   53.7120    3.9005   18.1376 C   0  0  0  0  0  0  0  0  0  0  0  0
   54.2057    2.5521   18.0231 C   0  0  0  0  0  0  0  0  0  0  0  0
   50.0398    3.4181   17.7538 C   0  0  0  0  0  0  0  0  0  0  0  0
   51.1896    0.7641   17.5944 O   0  0  0  0  0  0  0  0  0  0  0  0
   54.7192    4.9917   18.3378 C   0  0  0  0  0  0  0  0  0  0  0  0
   49.1512    2.6287   17.0069 C   0  0  0  0  0  0  0  0  0  0  0  0
   49.5043    4.5428   18.4093 C   0  0  0  0  0  0  0  0  0  0  0  0
   48.1434    4.8609   18.3226 C   0  0  0  0  0  0  0  0  0  0  0  0
   47.7903    2.9458   16.9173 C   0  0  0  0  0  0  0  0  0  0  0  0
   47.2865    4.0622   17.5746 C   0  0  0  0  0  0  0  0  0  0  0  0
   52.0211    5.1440   18.0861 H   0  0  0  0  0  0  0  0  0  0  0  0
   53.6908    0.5128   17.7281 H   0  0  0  0  0  0  0  0  0  0  0  0
   55.2732    2.3695   18.0969 H   0  0  0  0  0  0  0  0  0  0  0  0
   55.4279    5.0200   17.5032 H   0  0  0  0  0  0  0  0  0  0  0  0
   55.2804    4.8317   19.2648 H   0  0  0  0  0  0  0  0  0  0  0  0
   54.2456    5.9772   18.4037 H   0  0  0  0  0  0  0  0  0  0  0  0
   49.4971    1.7641   16.4469 H   0  0  0  0  0  0  0  0  0  0  0  0
   50.1209    5.1731   19.0430 H   0  0  0  0  0  0  0  0  0  0  0  0
   47.7549    5.7280   18.8505 H   0  0  0  0  0  0  0  0  0  0  0  0
   47.1295    2.3153   16.3276 H   0  0  0  0  0  0  0  0  0  0  0  0
   46.2295    4.3049   17.5073 H   0  0  0  0  0  0  0  0  0  0  0  0
  2  1  1  0
  3  1  1  0
  4  2  1  0
  5  3  2  0
  6  5  1  0
  7  1  1  0
  8  2  2  0
  9  5  1  0
 10  7  2  0
 11  7  1  0
 12 11  2  0
 13 10  1  0
 14 12  1  0
  4  6  2  0
 13 14  2  0
  3 15  1  0
  4 16  1  0
  6 17  1  0
  9 18  1  0
  9 19  1  0
  9 20  1  0
 10 21  1  0
 11 22  1  0
 12 23  1  0
 13 24  1  0
 14 25  1  0
M  END
> <Uni-Dock RESULT> 
ENERGY=   -3.554  LOWER_BOUND=   10.075  UPPER_BOUND=   11.302
INTER + INTRA:          -3.554
INTER:                  -3.554
INTRA:                   0.000
UNBOUND:                 0.000

$$$$

     RDKit          3D

 25 26  0  0  0  0  0  0  0  0999 V2000
   47.4396    8.3419   20.0562 N   0  0  0  0  0  0  0  0  0  0  0  0
   47.4904    7.9963   21.4270 C   0  0  0  0  0  0  0  0  0  0  0  0
   47.4973    7.3353   19.0867 C   0  0  0  0  0  0  0  0  0  0  0  0
   47.5857    6.5417   21.7397 C   0  0  0  0  0  0  0  0  0  0  0  0
   47.5954    6.0306   19.3860 C   0  0  0  0  0  0  0  0  0  0  0  0
   47.6439    5.6271   20.7680 C   0  0  0  0  0  0  0  0  0  0  0  0
   47.3415    9.7349   19.6668 C   0  0  0  0  0  0  0  0  0  0  0  0
   47.4990    8.7614   22.3907 O   0  0  0  0  0  0  0  0  0  0  0  0
   47.6378    4.9508   18.3479 C   0  0  0  0  0  0  0  0  0  0  0  0
   46.7166   10.6912   20.4826 C   0  0  0  0  0  0  0  0  0  0  0  0
   47.8587   10.1802   18.4358 C   0  0  0  0  0  0  0  0  0  0  0  0
   47.7567   11.5197   18.0410 C   0  0  0  0  0  0  0  0  0  0  0  0
   46.6118   12.0310   20.0893 C   0  0  0  0  0  0  0  0  0  0  0  0
   47.1313   12.4451   18.8683 C   0  0  0  0  0  0  0  0  0  0  0  0
   47.4171    7.6394   18.0489 H   0  0  0  0  0  0  0  0  0  0  0  0
   47.6188    6.2787   22.7893 H   0  0  0  0  0  0  0  0  0  0  0  0
   47.7211    4.5719   21.0106 H   0  0  0  0  0  0  0  0  0  0  0  0
   46.7939    4.2638   18.4717 H   0  0  0  0  0  0  0  0  0  0  0  0
   48.5675    4.3770   18.4276 H   0  0  0  0  0  0  0  0  0  0  0  0
   47.5868    5.3587   17.3325 H   0  0  0  0  0  0  0  0  0  0  0  0
   46.2644   10.4160   21.4316 H   0  0  0  0  0  0  0  0  0  0  0  0
   48.3964    9.5082   17.7736 H   0  0  0  0  0  0  0  0  0  0  0  0
   48.1774   11.8382   17.0908 H   0  0  0  0  0  0  0  0  0  0  0  0
   46.1186   12.7459   20.7431 H   0  0  0  0  0  0  0  0  0  0  0  0
   47.0527   13.4858   18.5660 H   0  0  0  0  0  0  0  0  0  0  0  0
  2  1  1  0
  3  1  1  0
  4  2  1  0
  5  3  2  0
  6  5  1  0
  7  1  1  0
  8  2  2  0
  9  5  1  0
 10  7  2  0
 11  7  1  0
 12 11  2  0
 13 10  1  0
 14 12  1  0
  4  6  2  0
 13 14  2  0
  3 15  1  0
  4 16  1  0
  6 17  1  0
  9 18  1  0
  9 19  1  0
  9 20  1  0
 10 21  1  0
 11 22  1  0
 12 23  1  0
 13 24  1  0
 14 25  1  0
M  END
> <Uni-Dock RESULT> 
ENERGY=   -3.543  LOWER_BOUND=   10.775  UPPER_BOUND=   13.081
INTER + INTRA:          -3.543
INTER:                  -3.543
INTRA:                   0.000
UNBOUND:                 0.000

$$$$
