
     RDKit          3D

 25 26  0  0  0  0  0  0  0  0999 V2000
   45.4435    3.2100    9.0122 N   0  0  0  0  0  0  0  0  0  0  0  0
   46.0024    4.1775    8.1445 C   0  0  0  0  0  0  0  0  0  0  0  0
   45.6809    1.8517    8.7780 C   0  0  0  0  0  0  0  0  0  0  0  0
   46.8091    3.6563    7.0042 C   0  0  0  0  0  0  0  0  0  0  0  0
   46.4204    1.4004    7.7528 C   0  0  0  0  0  0  0  0  0  0  0  0
   47.0057    2.3458    6.8371 C   0  0  0  0  0  0  0  0  0  0  0  0
   44.6412    3.6334   10.1430 C   0  0  0  0  0  0  0  0  0  0  0  0
   45.9270    5.4017    8.2427 O   0  0  0  0  0  0  0  0  0  0  0  0
   46.6588   -0.0556    7.4907 C   0  0  0  0  0  0  0  0  0  0  0  0
   44.5622    2.8480   11.3085 C   0  0  0  0  0  0  0  0  0  0  0  0
   43.8990    4.8246   10.1219 C   0  0  0  0  0  0  0  0  0  0  0  0
   43.1134    5.2157   11.2131 C   0  0  0  0  0  0  0  0  0  0  0  0
   43.7787    3.2378   12.4015 C   0  0  0  0  0  0  0  0  0  0  0  0
   43.0528    4.4220   12.3527 C   0  0  0  0  0  0  0  0  0  0  0  0
   45.2032    1.1414    9.4438 H   0  0  0  0  0  0  0  0  0  0  0  0
   47.2315    4.3979    6.3381 H   0  0  0  0  0  0  0  0  0  0  0  0
   47.6021    1.9812    6.0067 H   0  0  0  0  0  0  0  0  0  0  0  0
   46.2713   -0.3384    6.5060 H   0  0  0  0  0  0  0  0  0  0  0  0
   46.1663   -0.6903    8.2353 H   0  0  0  0  0  0  0  0  0  0  0  0
   47.7303   -0.2812    7.5203 H   0  0  0  0  0  0  0  0  0  0  0  0
   45.1446    1.9379   11.4160 H   0  0  0  0  0  0  0  0  0  0  0  0
   43.8841    5.4658    9.2448 H   0  0  0  0  0  0  0  0  0  0  0  0
   42.5481    6.1430   11.1631 H   0  0  0  0  0  0  0  0  0  0  0  0
   43.7472    2.6182   13.2941 H   0  0  0  0  0  0  0  0  0  0  0  0
   42.4458    4.7285   13.2002 H   0  0  0  0  0  0  0  0  0  0  0  0
  2  1  1  0
  3  1  1  0
  4  2  1  0
  5  3  2  0
  6  5  1  0
  7  1  1  0
  8  2  2  0
  9  5  1  0
 10  7  2  0
 11  7  1  0
 12 11  2  0
 13 10  1  0
 14 12  1  0
  4  6  2  0
 13 14  2  0
  3 15  1  0
  4 16  1  0
  6 17  1  0
  9 18  1  0
  9 19  1  0
  9 20  1  0
 10 21  1  0
 11 22  1  0
 12 23  1  0
 13 24  1  0
 14 25  1  0
M  END
> <Uni-Dock RESULT> 
ENERGY=   -5.609  LOWER_BOUND=    0.000  UPPER_BOUND=    0.000
INTER + INTRA:          -5.609
INTER:                  -5.609
INTRA:                   0.000
UNBOUND:                 0.000

$$$$

     RDKit          3D

 25 26  0  0  0  0  0  0  0  0999 V2000
   44.4117    4.1417   10.5322 N   0  0  0  0  0  0  0  0  0  0  0  0
   44.3226    3.4094   11.7392 C   0  0  0  0  0  0  0  0  0  0  0  0
   43.8288    5.4104   10.4484 C   0  0  0  0  0  0  0  0  0  0  0  0
   43.5761    4.0595   12.8541 C   0  0  0  0  0  0  0  0  0  0  0  0
   43.1705    5.9860   11.4666 C   0  0  0  0  0  0  0  0  0  0  0  0
   43.0465    5.2778   12.7148 C   0  0  0  0  0  0  0  0  0  0  0  0
   45.1165    3.5784    9.3974 C   0  0  0  0  0  0  0  0  0  0  0  0
   44.8200    2.3112   11.9854 O   0  0  0  0  0  0  0  0  0  0  0  0
   42.5293    7.3370   11.3707 C   0  0  0  0  0  0  0  0  0  0  0  0
   45.7331    4.4097    8.4434 C   0  0  0  0  0  0  0  0  0  0  0  0
   45.2004    2.1927    9.1892 C   0  0  0  0  0  0  0  0  0  0  0  0
   45.8688    1.6594    8.0803 C   0  0  0  0  0  0  0  0  0  0  0  0
   46.4034    3.8787    7.3347 C   0  0  0  0  0  0  0  0  0  0  0  0
   46.4698    2.5024    7.1528 C   0  0  0  0  0  0  0  0  0  0  0  0
   43.8867    5.9221    9.4940 H   0  0  0  0  0  0  0  0  0  0  0  0
   43.5042    3.4954   13.7752 H   0  0  0  0  0  0  0  0  0  0  0  0
   42.5124    5.7421   13.5378 H   0  0  0  0  0  0  0  0  0  0  0  0
   41.4510    7.2654   11.5494 H   0  0  0  0  0  0  0  0  0  0  0  0
   42.6721    7.7873   10.3825 H   0  0  0  0  0  0  0  0  0  0  0  0
   42.9595    8.0202   12.1109 H   0  0  0  0  0  0  0  0  0  0  0  0
   45.7499    5.4889    8.5623 H   0  0  0  0  0  0  0  0  0  0  0  0
   44.7208    1.4896    9.8648 H   0  0  0  0  0  0  0  0  0  0  0  0
   45.9127    0.5814    7.9470 H   0  0  0  0  0  0  0  0  0  0  0  0
   46.8823    4.5443    6.6211 H   0  0  0  0  0  0  0  0  0  0  0  0
   46.9914    2.0871    6.2948 H   0  0  0  0  0  0  0  0  0  0  0  0
  2  1  1  0
  3  1  1  0
  4  2  1  0
  5  3  2  0
  6  5  1  0
  7  1  1  0
  8  2  2  0
  9  5  1  0
 10  7  2  0
 11  7  1  0
 12 11  2  0
 13 10  1  0
 14 12  1  0
  4  6  2  0
 13 14  2  0
  3 15  1  0
  4 16  1  0
  6 17  1  0
  9 18  1  0
  9 19  1  0
  9 20  1  0
 10 21  1  0
 11 22  1  0
 12 23  1  0
 13 24  1  0
 14 25  1  0
M  END
> <Uni-Dock RESULT> 
ENERGY=   -4.607  LOWER_BOUND=    1.686  UPPER_BOUND=    5.528
INTER + INTRA:          -4.607
INTER:                  -4.607
INTRA:                   0.000
UNBOUND:                 0.000

$$$$

     RDKit          3D

 25 26  0  0  0  0  0  0  0  0999 V2000
   46.1732    7.4512   12.2470 N   0  0  0  0  0  0  0  0  0  0  0  0
   45.7858    8.8074   12.3552 C   0  0  0  0  0  0  0  0  0  0  0  0
   47.5287    7.1263   12.1313 C   0  0  0  0  0  0  0  0  0  0  0  0
   46.8846    9.8144   12.3178 C   0  0  0  0  0  0  0  0  0  0  0  0
   48.5063    8.0457   12.1117 C   0  0  0  0  0  0  0  0  0  0  0  0
   48.1626    9.4410   12.2122 C   0  0  0  0  0  0  0  0  0  0  0  0
   45.1652    6.4094   12.2697 C   0  0  0  0  0  0  0  0  0  0  0  0
   44.6481    9.2494   12.5109 O   0  0  0  0  0  0  0  0  0  0  0  0
   49.9570    7.6988   11.9684 C   0  0  0  0  0  0  0  0  0  0  0  0
   45.4685    5.1197   12.7451 C   0  0  0  0  0  0  0  0  0  0  0  0
   43.8587    6.6306   11.8068 C   0  0  0  0  0  0  0  0  0  0  0  0
   42.8975    5.6124   11.8171 C   0  0  0  0  0  0  0  0  0  0  0  0
   44.5086    4.1004   12.7580 C   0  0  0  0  0  0  0  0  0  0  0  0
   43.2226    4.3471   12.2921 C   0  0  0  0  0  0  0  0  0  0  0  0
   47.7804    6.0782   12.0123 H   0  0  0  0  0  0  0  0  0  0  0  0
   46.5859   10.8521   12.3952 H   0  0  0  0  0  0  0  0  0  0  0  0
   48.9528   10.1850   12.1942 H   0  0  0  0  0  0  0  0  0  0  0  0
   50.3761    8.1590   11.0670 H   0  0  0  0  0  0  0  0  0  0  0  0
   50.1123    6.6173   11.8909 H   0  0  0  0  0  0  0  0  0  0  0  0
   50.5246    8.0533   12.8355 H   0  0  0  0  0  0  0  0  0  0  0  0
   46.4437    4.8869   13.1620 H   0  0  0  0  0  0  0  0  0  0  0  0
   43.5600    7.5906   11.3946 H   0  0  0  0  0  0  0  0  0  0  0  0
   41.8952    5.8161   11.4483 H   0  0  0  0  0  0  0  0  0  0  0  0
   44.7670    3.1174   13.1435 H   0  0  0  0  0  0  0  0  0  0  0  0
   42.4747    3.5590   12.3031 H   0  0  0  0  0  0  0  0  0  0  0  0
  2  1  1  0
  3  1  1  0
  4  2  1  0
  5  3  2  0
  6  5  1  0
  7  1  1  0
  8  2  2  0
  9  5  1  0
 10  7  2  0
 11  7  1  0
 12 11  2  0
 13 10  1  0
 14 12  1  0
  4  6  2  0
 13 14  2  0
  3 15  1  0
  4 16  1  0
  6 17  1  0
  9 18  1  0
  9 19  1  0
  9 20  1  0
 10 21  1  0
 11 22  1  0
 12 23  1  0
 13 24  1  0
 14 25  1  0
M  END
> <Uni-Dock RESULT> 
ENERGY=   -3.885  LOWER_BOUND=    4.570  UPPER_BOUND=    5.851
INTER + INTRA:          -3.885
INTER:                  -3.885
INTRA:                   0.000
UNBOUND:                 0.000

$$$$

     RDKit          3D

 25 26  0  0  0  0  0  0  0  0999 V2000
   45.7487    6.6220   12.3501 N   0  0  0  0  0  0  0  0  0  0  0  0
   46.8873    6.6125   13.1894 C   0  0  0  0  0  0  0  0  0  0  0  0
   45.1936    7.8423   11.9512 C   0  0  0  0  0  0  0  0  0  0  0  0
   47.4104    7.9438   13.6101 C   0  0  0  0  0  0  0  0  0  0  0  0
   45.6852    9.0325   12.3297 C   0  0  0  0  0  0  0  0  0  0  0  0
   46.8398    9.0760   13.1899 C   0  0  0  0  0  0  0  0  0  0  0  0
   45.1743    5.3693   11.8999 C   0  0  0  0  0  0  0  0  0  0  0  0
   47.5162    5.6315   13.5847 O   0  0  0  0  0  0  0  0  0  0  0  0
   45.0790   10.3397   11.9182 C   0  0  0  0  0  0  0  0  0  0  0  0
   44.4802    5.2894   10.6779 C   0  0  0  0  0  0  0  0  0  0  0  0
   45.2668    4.1941   12.6620 C   0  0  0  0  0  0  0  0  0  0  0  0
   44.6934    2.9933   12.2260 C   0  0  0  0  0  0  0  0  0  0  0  0
   43.9075    4.0894   10.2390 C   0  0  0  0  0  0  0  0  0  0  0  0
   44.0134    2.9411   11.0148 C   0  0  0  0  0  0  0  0  0  0  0  0
   44.2990    7.8054   11.3394 H   0  0  0  0  0  0  0  0  0  0  0  0
   48.2785    7.9346   14.2568 H   0  0  0  0  0  0  0  0  0  0  0  0
   47.2364   10.0384   13.4979 H   0  0  0  0  0  0  0  0  0  0  0  0
   44.7559   10.9083   12.7968 H   0  0  0  0  0  0  0  0  0  0  0  0
   44.2040   10.1991   11.2744 H   0  0  0  0  0  0  0  0  0  0  0  0
   45.8054   10.9423   11.3622 H   0  0  0  0  0  0  0  0  0  0  0  0
   44.4080    6.1449   10.0132 H   0  0  0  0  0  0  0  0  0  0  0  0
   45.7583    4.1861   13.6311 H   0  0  0  0  0  0  0  0  0  0  0  0
   44.7805    2.1016   12.8419 H   0  0  0  0  0  0  0  0  0  0  0  0
   43.3889    4.0537    9.2844 H   0  0  0  0  0  0  0  0  0  0  0  0
   43.5722    2.0077   10.6759 H   0  0  0  0  0  0  0  0  0  0  0  0
  2  1  1  0
  3  1  1  0
  4  2  1  0
  5  3  2  0
  6  5  1  0
  7  1  1  0
  8  2  2  0
  9  5  1  0
 10  7  2  0
 11  7  1  0
 12 11  2  0
 13 10  1  0
 14 12  1  0
  4  6  2  0
 13 14  2  0
  3 15  1  0
  4 16  1  0
  6 17  1  0
  9 18  1  0
  9 19  1  0
  9 20  1  0
 10 21  1  0
 11 22  1  0
 12 23  1  0
 13 24  1  0
 14 25  1  0
M  END
> <Uni-Dock RESULT> 
ENERGY=   -3.818  LOWER_BOUND=    3.909  UPPER_BOUND=    6.156
INTER + INTRA:          -3.818
INTER:                  -3.818
INTRA:                   0.000
UNBOUND:                 0.000

$$$$

     RDKit          3D

 25 26  0  0  0  0  0  0  0  0999 V2000
   46.1163    6.7513   12.5878 N   0  0  0  0  0  0  0  0  0  0  0  0
   46.7556    5.6392   13.1843 C   0  0  0  0  0  0  0  0  0  0  0  0
   44.7702    6.6595   12.2192 C   0  0  0  0  0  0  0  0  0  0  0  0
   45.9240    4.4145   13.3614 C   0  0  0  0  0  0  0  0  0  0  0  0
   44.0327    5.5523   12.3974 C   0  0  0  0  0  0  0  0  0  0  0  0
   44.6399    4.3906   12.9947 C   0  0  0  0  0  0  0  0  0  0  0  0
   46.8562    7.9798   12.3752 C   0  0  0  0  0  0  0  0  0  0  0  0
   47.9103    5.5781   13.6048 O   0  0  0  0  0  0  0  0  0  0  0  0
   42.5960    5.4475   11.9850 C   0  0  0  0  0  0  0  0  0  0  0  0
   46.2006    9.2252   12.3566 C   0  0  0  0  0  0  0  0  0  0  0  0
   48.2437    7.9831   12.1620 C   0  0  0  0  0  0  0  0  0  0  0  0
   48.9462    9.1740   11.9403 C   0  0  0  0  0  0  0  0  0  0  0  0
   46.9011   10.4175   12.1369 C   0  0  0  0  0  0  0  0  0  0  0  0
   48.2748   10.3911   11.9272 C   0  0  0  0  0  0  0  0  0  0  0  0
   44.3286    7.5210   11.7305 H   0  0  0  0  0  0  0  0  0  0  0  0
   46.4164    3.5627   13.8130 H   0  0  0  0  0  0  0  0  0  0  0  0
   44.0444    3.4943   13.1370 H   0  0  0  0  0  0  0  0  0  0  0  0
   42.4640    4.6486   11.2474 H   0  0  0  0  0  0  0  0  0  0  0  0
   42.2317    6.3774   11.5348 H   0  0  0  0  0  0  0  0  0  0  0  0
   41.9622    5.2288   12.8512 H   0  0  0  0  0  0  0  0  0  0  0  0
   45.1370    9.3060   12.5601 H   0  0  0  0  0  0  0  0  0  0  0  0
   48.8127    7.0580   12.1293 H   0  0  0  0  0  0  0  0  0  0  0  0
   50.0202    9.1413   11.7753 H   0  0  0  0  0  0  0  0  0  0  0  0
   46.3708   11.3664   12.1414 H   0  0  0  0  0  0  0  0  0  0  0  0
   48.8217   11.3147   11.7588 H   0  0  0  0  0  0  0  0  0  0  0  0
  2  1  1  0
  3  1  1  0
  4  2  1  0
  5  3  2  0
  6  5  1  0
  7  1  1  0
  8  2  2  0
  9  5  1  0
 10  7  2  0
 11  7  1  0
 12 11  2  0
 13 10  1  0
 14 12  1  0
  4  6  2  0
 13 14  2  0
  3 15  1  0
  4 16  1  0
  6 17  1  0
  9 18  1  0
  9 19  1  0
  9 20  1  0
 10 21  1  0
 11 22  1  0
 12 23  1  0
 13 24  1  0
 14 25  1  0
M  END
> <Uni-Dock RESULT> 
ENERGY=   -3.754  LOWER_BOUND=    4.769  UPPER_BOUND=    6.570
INTER + INTRA:          -3.754
INTER:                  -3.754
INTRA:                   0.000
UNBOUND:                 0.000

$$$$

     RDKit          3D

 25 26  0  0  0  0  0  0  0  0999 V2000
   44.5174    7.3968   11.8258 N   0  0  0  0  0  0  0  0  0  0  0  0
   45.5340    7.9983   12.6041 C   0  0  0  0  0  0  0  0  0  0  0  0
   43.6963    8.1960   11.0236 C   0  0  0  0  0  0  0  0  0  0  0  0
   45.6412    9.4829   12.5193 C   0  0  0  0  0  0  0  0  0  0  0  0
   43.8148    9.5309   10.9499 C   0  0  0  0  0  0  0  0  0  0  0  0
   44.8307   10.1915   11.7287 C   0  0  0  0  0  0  0  0  0  0  0  0
   44.3428    5.9578   11.8555 C   0  0  0  0  0  0  0  0  0  0  0  0
   46.3623    7.4331   13.3172 O   0  0  0  0  0  0  0  0  0  0  0  0
   42.9228   10.3890   10.1054 C   0  0  0  0  0  0  0  0  0  0  0  0
   43.8120    5.2705   10.7477 C   0  0  0  0  0  0  0  0  0  0  0  0
   44.6743    5.1931   12.9849 C   0  0  0  0  0  0  0  0  0  0  0  0
   44.4854    3.8058   13.0094 C   0  0  0  0  0  0  0  0  0  0  0  0
   43.6239    3.8832   10.7691 C   0  0  0  0  0  0  0  0  0  0  0  0
   43.9597    3.1510   11.9017 C   0  0  0  0  0  0  0  0  0  0  0  0
   42.9050    7.7000   10.4724 H   0  0  0  0  0  0  0  0  0  0  0  0
   46.4161    9.9421   13.1198 H   0  0  0  0  0  0  0  0  0  0  0  0
   44.9255   11.2713   11.6709 H   0  0  0  0  0  0  0  0  0  0  0  0
   42.3793   11.1088   10.7270 H   0  0  0  0  0  0  0  0  0  0  0  0
   42.1809    9.7948    9.5610 H   0  0  0  0  0  0  0  0  0  0  0  0
   43.5104   10.9431    9.3654 H   0  0  0  0  0  0  0  0  0  0  0  0
   43.5762    5.7881    9.8227 H   0  0  0  0  0  0  0  0  0  0  0  0
   45.0576    5.6576   13.8894 H   0  0  0  0  0  0  0  0  0  0  0  0
   44.7497    3.2434   13.9014 H   0  0  0  0  0  0  0  0  0  0  0  0
   43.2247    3.3768    9.8939 H   0  0  0  0  0  0  0  0  0  0  0  0
   43.8173    2.0740   11.9206 H   0  0  0  0  0  0  0  0  0  0  0  0
  2  1  1  0
  3  1  1  0
  4  2  1  0
  5  3  2  0
  6  5  1  0
  7  1  1  0
  8  2  2  0
  9  5  1  0
 10  7  2  0
 11  7  1  0
 12 11  2  0
 13 10  1  0
 14 12  1  0
  4  6  2  0
 13 14  2  0
  3 15  1  0
  4 16  1  0
  6 17  1  0
  9 18  1  0
  9 19  1  0
  9 20  1  0
 10 21  1  0
 11 22  1  0
 12 23  1  0
 13 24  1  0
 14 25  1  0
M  END
> <Uni-Dock RESULT> 
ENERGY=   -3.711  LOWER_BOUND=    3.780  UPPER_BOUND=    6.246
INTER + INTRA:          -3.711
INTER:                  -3.711
INTRA:                   0.000
UNBOUND:                 0.000

$$$$

     RDKit          3D

 25 26  0  0  0  0  0  0  0  0999 V2000
   49.1927    4.5850   20.2118 N   0  0  0  0  0  0  0  0  0  0  0  0
   50.5490    4.8550   20.5092 C   0  0  0  0  0  0  0  0  0  0  0  0
   48.2087    4.8488   21.1703 C   0  0  0  0  0  0  0  0  0  0  0  0
   50.8330    5.3985   21.8681 C   0  0  0  0  0  0  0  0  0  0  0  0
   48.4811    5.3501   22.3852 C   0  0  0  0  0  0  0  0  0  0  0  0
   49.8481    5.6357   22.7386 C   0  0  0  0  0  0  0  0  0  0  0  0
   48.8317    4.0499   18.9136 C   0  0  0  0  0  0  0  0  0  0  0  0
   51.5181    4.7245   19.7622 O   0  0  0  0  0  0  0  0  0  0  0  0
   47.4292    5.6146   23.4190 C   0  0  0  0  0  0  0  0  0  0  0  0
   47.5659    4.3038   18.3529 C   0  0  0  0  0  0  0  0  0  0  0  0
   49.7118    3.2471   18.1711 C   0  0  0  0  0  0  0  0  0  0  0  0
   49.3468    2.7209   16.9258 C   0  0  0  0  0  0  0  0  0  0  0  0
   47.1992    3.7803   17.1072 C   0  0  0  0  0  0  0  0  0  0  0  0
   48.0903    2.9871   16.3941 C   0  0  0  0  0  0  0  0  0  0  0  0
   47.1861    4.5921   20.9168 H   0  0  0  0  0  0  0  0  0  0  0  0
   51.8721    5.5994   22.0959 H   0  0  0  0  0  0  0  0  0  0  0  0
   50.0690    6.0391   23.7218 H   0  0  0  0  0  0  0  0  0  0  0  0
   47.6179    5.0226   24.3211 H   0  0  0  0  0  0  0  0  0  0  0  0
   46.4278    5.3574   23.0574 H   0  0  0  0  0  0  0  0  0  0  0  0
   47.4193    6.6746   23.6950 H   0  0  0  0  0  0  0  0  0  0  0  0
   46.8501    4.9540   18.8470 H   0  0  0  0  0  0  0  0  0  0  0  0
   50.6932    2.9806   18.5538 H   0  0  0  0  0  0  0  0  0  0  0  0
   50.0510    2.1000   16.3777 H   0  0  0  0  0  0  0  0  0  0  0  0
   46.2197    4.0040   16.6923 H   0  0  0  0  0  0  0  0  0  0  0  0
   47.8098    2.5813   15.4260 H   0  0  0  0  0  0  0  0  0  0  0  0
  2  1  1  0
  3  1  1  0
  4  2  1  0
  5  3  2  0
  6  5  1  0
  7  1  1  0
  8  2  2  0
  9  5  1  0
 10  7  2  0
 11  7  1  0
 12 11  2  0
 13 10  1  0
 14 12  1  0
  4  6  2  0
 13 14  2  0
  3 15  1  0
  4 16  1  0
  6 17  1  0
  9 18  1  0
  9 19  1  0
  9 20  1  0
 10 21  1  0
 11 22  1  0
 12 23  1  0
 13 24  1  0
 14 25  1  0
M  END
> <Uni-Dock RESULT> 
ENERGY=   -3.673  LOWER_BOUND=    9.956  UPPER_BOUND=   12.228
INTER + INTRA:          -3.673
INTER:                  -3.673
INTRA:                   0.000
UNBOUND:                 0.000

$$$$

     RDKit          3D

 25 26  0  0  0  0  0  0  0  0999 V2000
   46.2385    6.5288   12.8615 N   0  0  0  0  0  0  0  0  0  0  0  0
   47.2451    5.9183   13.6459 C   0  0  0  0  0  0  0  0  0  0  0  0
   45.1633    5.7635   12.3984 C   0  0  0  0  0  0  0  0  0  0  0  0
   47.0849    4.4597   13.9095 C   0  0  0  0  0  0  0  0  0  0  0  0
   45.0285    4.4531   12.6557 C   0  0  0  0  0  0  0  0  0  0  0  0
   46.0308    3.7839   13.4447 C   0  0  0  0  0  0  0  0  0  0  0  0
   46.3221    7.9433   12.5548 C   0  0  0  0  0  0  0  0  0  0  0  0
   48.2203    6.4608   14.1642 O   0  0  0  0  0  0  0  0  0  0  0  0
   43.8866    3.6289   12.1436 C   0  0  0  0  0  0  0  0  0  0  0  0
   45.1601    8.7032   12.3231 C   0  0  0  0  0  0  0  0  0  0  0  0
   47.5534    8.6102   12.4575 C   0  0  0  0  0  0  0  0  0  0  0  0
   47.6237    9.9730   12.1436 C   0  0  0  0  0  0  0  0  0  0  0  0
   45.2277   10.0664   12.0108 C   0  0  0  0  0  0  0  0  0  0  0  0
   46.4609   10.7010   11.9197 C   0  0  0  0  0  0  0  0  0  0  0  0
   44.4336    6.2607   11.7688 H   0  0  0  0  0  0  0  0  0  0  0  0
   47.8590    3.9930   14.5053 H   0  0  0  0  0  0  0  0  0  0  0  0
   45.9232    2.7237   13.6513 H   0  0  0  0  0  0  0  0  0  0  0  0
   44.2529    2.8170   11.5060 H   0  0  0  0  0  0  0  0  0  0  0  0
   43.1863    4.2262   11.5497 H   0  0  0  0  0  0  0  0  0  0  0  0
   43.3249    3.1909   12.9757 H   0  0  0  0  0  0  0  0  0  0  0  0
   44.1710    8.2673   12.4265 H   0  0  0  0  0  0  0  0  0  0  0  0
   48.4940    8.0825   12.5904 H   0  0  0  0  0  0  0  0  0  0  0  0
   48.5938   10.4586   12.0730 H   0  0  0  0  0  0  0  0  0  0  0  0
   44.3132   10.6317   11.8502 H   0  0  0  0  0  0  0  0  0  0  0  0
   46.5167   11.7593   11.6800 H   0  0  0  0  0  0  0  0  0  0  0  0
  2  1  1  0
  3  1  1  0
  4  2  1  0
  5  3  2  0
  6  5  1  0
  7  1  1  0
  8  2  2  0
  9  5  1  0
 10  7  2  0
 11  7  1  0
 12 11  2  0
 13 10  1  0
 14 12  1  0
  4  6  2  0
 13 14  2  0
  3 15  1  0
  4 16  1  0
  6 17  1  0
  9 18  1  0
  9 19  1  0
  9 20  1  0
 10 21  1  0
 11 22  1  0
 12 23  1  0
 13 24  1  0
 14 25  1  0
M  END
> <Uni-Dock RESULT> 
ENERGY=   -3.642  LOWER_BOUND=    4.654  UPPER_BOUND=    6.238
INTER + INTRA:          -3.642
INTER:                  -3.642
INTRA:                   0.000
UNBOUND:                 0.000

$$$$

     RDKit          3D

 25 26  0  0  0  0  0  0  0  0999 V2000
   45.5415    6.9707   12.5210 N   0  0  0  0  0  0  0  0  0  0  0  0
   44.3471    6.4443   11.9756 C   0  0  0  0  0  0  0  0  0  0  0  0
   46.3824    6.1430   13.2722 C   0  0  0  0  0  0  0  0  0  0  0  0
   44.0613    5.0107   12.2689 C   0  0  0  0  0  0  0  0  0  0  0  0
   46.1155    4.8505   13.5162 C   0  0  0  0  0  0  0  0  0  0  0  0
   44.9079    4.2691   12.9882 C   0  0  0  0  0  0  0  0  0  0  0  0
   45.8910    8.3581   12.2869 C   0  0  0  0  0  0  0  0  0  0  0  0
   43.5337    7.0253   11.2582 O   0  0  0  0  0  0  0  0  0  0  0  0
   47.0066    3.9688   14.3371 C   0  0  0  0  0  0  0  0  0  0  0  0
   47.2361    8.7723   12.2694 C   0  0  0  0  0  0  0  0  0  0  0  0
   44.9140    9.3459   12.0868 C   0  0  0  0  0  0  0  0  0  0  0  0
   45.2618   10.6863   11.8788 C   0  0  0  0  0  0  0  0  0  0  0  0
   47.5864   10.1117   12.0599 C   0  0  0  0  0  0  0  0  0  0  0  0
   46.5980   11.0692   11.8658 C   0  0  0  0  0  0  0  0  0  0  0  0
   47.2684    6.5950   13.7043 H   0  0  0  0  0  0  0  0  0  0  0  0
   43.1442    4.6110   11.8553 H   0  0  0  0  0  0  0  0  0  0  0  0
   44.6906    3.2244   13.1871 H   0  0  0  0  0  0  0  0  0  0  0  0
   46.4703    3.5867   15.2125 H   0  0  0  0  0  0  0  0  0  0  0  0
   47.8907    4.5051   14.6984 H   0  0  0  0  0  0  0  0  0  0  0  0
   47.3558    3.1164   13.7444 H   0  0  0  0  0  0  0  0  0  0  0  0
   48.0478    8.0580   12.3702 H   0  0  0  0  0  0  0  0  0  0  0  0
   43.8543    9.1077   12.1198 H   0  0  0  0  0  0  0  0  0  0  0  0
   44.4802   11.4272   11.7301 H   0  0  0  0  0  0  0  0  0  0  0  0
   48.6341   10.4008   12.0379 H   0  0  0  0  0  0  0  0  0  0  0  0
   46.8665   12.1090   11.7005 H   0  0  0  0  0  0  0  0  0  0  0  0
  2  1  1  0
  3  1  1  0
  4  2  1  0
  5  3  2  0
  6  5  1  0
  7  1  1  0
  8  2  2  0
  9  5  1  0
 10  7  2  0
 11  7  1  0
 12 11  2  0
 13 10  1  0
 14 12  1  0
  4  6  2  0
 13 14  2  0
  3 15  1  0
  4 16  1  0
  6 17  1  0
  9 18  1  0
  9 19  1  0
  9 20  1  0
 10 21  1  0
 11 22  1  0
 12 23  1  0
 13 24  1  0
 14 25  1  0
M  END
> <Uni-Dock RESULT> 
ENERGY=   -3.606  LOWER_BOUND=    4.532  UPPER_BOUND=    6.256
INTER + INTRA:          -3.606
INTER:                  -3.606
INTRA:                   0.000
UNBOUND:                 0.000

$$$$
