
     RDKit          3D

 25 26  0  0  0  0  0  0  0  0999 V2000
   45.2578    3.5004    9.2504 N   0  0  0  0  0  0  0  0  0  0  0  0
   44.3676    2.6222    9.9120 C   0  0  0  0  0  0  0  0  0  0  0  0
   45.3676    4.8269    9.6802 C   0  0  0  0  0  0  0  0  0  0  0  0
   43.6078    3.1923   11.0613 C   0  0  0  0  0  0  0  0  0  0  0  0
   44.6664    5.3269   10.7096 C   0  0  0  0  0  0  0  0  0  0  0  0
   43.7515    4.4708   11.4202 C   0  0  0  0  0  0  0  0  0  0  0  0
   46.0384    3.0232    8.1259 C   0  0  0  0  0  0  0  0  0  0  0  0
   44.1235    1.4506    9.6263 O   0  0  0  0  0  0  0  0  0  0  0  0
   44.7984    6.7428   11.1823 C   0  0  0  0  0  0  0  0  0  0  0  0
   46.4280    1.6798    8.0095 C   0  0  0  0  0  0  0  0  0  0  0  0
   46.4538    3.9028    7.1084 C   0  0  0  0  0  0  0  0  0  0  0  0
   47.2212    3.4579    6.0251 C   0  0  0  0  0  0  0  0  0  0  0  0
   47.1968    1.2327    6.9279 C   0  0  0  0  0  0  0  0  0  0  0  0
   47.5939    2.1220    5.9360 C   0  0  0  0  0  0  0  0  0  0  0  0
   46.0890    5.4564    9.1708 H   0  0  0  0  0  0  0  0  0  0  0  0
   42.9312    2.5174   11.5698 H   0  0  0  0  0  0  0  0  0  0  0  0
   43.1857    4.8742   12.2541 H   0  0  0  0  0  0  0  0  0  0  0  0
   45.1352    6.7715   12.2241 H   0  0  0  0  0  0  0  0  0  0  0  0
   45.5223    7.3069   10.5843 H   0  0  0  0  0  0  0  0  0  0  0  0
   43.8364    7.2622   11.1139 H   0  0  0  0  0  0  0  0  0  0  0  0
   46.1732    0.9492    8.7726 H   0  0  0  0  0  0  0  0  0  0  0  0
   46.1516    4.9458    7.1062 H   0  0  0  0  0  0  0  0  0  0  0  0
   47.5163    4.1569    5.2466 H   0  0  0  0  0  0  0  0  0  0  0  0
   47.4845    0.1859    6.8695 H   0  0  0  0  0  0  0  0  0  0  0  0
   48.1872    1.7730    5.0953 H   0  0  0  0  0  0  0  0  0  0  0  0
  2  1  1  0
  3  1  1  0
  4  2  1  0
  5  3  2  0
  6  5  1  0
  7  1  1  0
  8  2  2  0
  9  5  1  0
 10  7  2  0
 11  7  1  0
 12 11  2  0
 13 10  1  0
 14 12  1  0
  4  6  2  0
 13 14  2  0
  3 15  1  0
  4 16  1  0
  6 17  1  0
  9 18  1  0
  9 19  1  0
  9 20  1  0
 10 21  1  0
 11 22  1  0
 12 23  1  0
 13 24  1  0
 14 25  1  0
M  END
> <Uni-Dock RESULT> 
ENERGY=   -5.945  LOWER_BOUND=    0.000  UPPER_BOUND=    0.000
INTER + INTRA:          -5.945
INTER:                  -5.945
INTRA:                   0.000
UNBOUND:                 0.000

$$$$

     RDKit          3D

 25 26  0  0  0  0  0  0  0  0999 V2000
   45.4233    3.4463    9.0602 N   0  0  0  0  0  0  0  0  0  0  0  0
   45.4532    4.8273    9.3653 C   0  0  0  0  0  0  0  0  0  0  0  0
   44.6838    2.5756    9.8674 C   0  0  0  0  0  0  0  0  0  0  0  0
   44.6553    5.2612   10.5478 C   0  0  0  0  0  0  0  0  0  0  0  0
   43.9808    2.9819   10.9359 C   0  0  0  0  0  0  0  0  0  0  0  0
   43.9739    4.3796   11.2843 C   0  0  0  0  0  0  0  0  0  0  0  0
   46.1683    2.9429    7.9230 C   0  0  0  0  0  0  0  0  0  0  0  0
   46.0898    5.7069    8.7864 O   0  0  0  0  0  0  0  0  0  0  0  0
   43.1729    2.0519   11.7893 C   0  0  0  0  0  0  0  0  0  0  0  0
   46.4212    3.7347    6.7920 C   0  0  0  0  0  0  0  0  0  0  0  0
   46.6547    1.6221    7.9041 C   0  0  0  0  0  0  0  0  0  0  0  0
   47.3622    1.1188    6.8057 C   0  0  0  0  0  0  0  0  0  0  0  0
   47.1270    3.2331    5.6915 C   0  0  0  0  0  0  0  0  0  0  0  0
   47.5971    1.9249    5.6982 C   0  0  0  0  0  0  0  0  0  0  0  0
   44.6562    1.5311    9.5768 H   0  0  0  0  0  0  0  0  0  0  0  0
   44.6749    6.3191   10.7765 H   0  0  0  0  0  0  0  0  0  0  0  0
   43.4037    4.7089   12.1472 H   0  0  0  0  0  0  0  0  0  0  0  0
   42.1164    2.3406   11.7804 H   0  0  0  0  0  0  0  0  0  0  0  0
   43.2365    1.0165   11.4378 H   0  0  0  0  0  0  0  0  0  0  0  0
   43.5298    2.0724   12.8247 H   0  0  0  0  0  0  0  0  0  0  0  0
   46.0486    4.7530    6.7200 H   0  0  0  0  0  0  0  0  0  0  0  0
   46.5384    0.9657    8.7613 H   0  0  0  0  0  0  0  0  0  0  0  0
   47.7380    0.0989    6.8242 H   0  0  0  0  0  0  0  0  0  0  0  0
   47.3031    3.8719    4.8296 H   0  0  0  0  0  0  0  0  0  0  0  0
   48.1479    1.5382    4.8452 H   0  0  0  0  0  0  0  0  0  0  0  0
  2  1  1  0
  3  1  1  0
  4  2  1  0
  5  3  2  0
  6  5  1  0
  7  1  1  0
  8  2  2  0
  9  5  1  0
 10  7  2  0
 11  7  1  0
 12 11  2  0
 13 10  1  0
 14 12  1  0
  4  6  2  0
 13 14  2  0
  3 15  1  0
  4 16  1  0
  6 17  1  0
  9 18  1  0
  9 19  1  0
  9 20  1  0
 10 21  1  0
 11 22  1  0
 12 23  1  0
 13 24  1  0
 14 25  1  0
M  END
> <Uni-Dock RESULT> 
ENERGY=   -5.422  LOWER_BOUND=    1.375  UPPER_BOUND=    2.602
INTER + INTRA:          -5.422
INTER:                  -5.422
INTRA:                   0.000
UNBOUND:                 0.000

$$$$

     RDKit          3D

 25 26  0  0  0  0  0  0  0  0999 V2000
   45.5596    3.2007    9.0525 N   0  0  0  0  0  0  0  0  0  0  0  0
   46.0040    4.1749    8.1281 C   0  0  0  0  0  0  0  0  0  0  0  0
   45.8041    1.8466    8.8013 C   0  0  0  0  0  0  0  0  0  0  0  0
   46.7361    3.6673    6.9325 C   0  0  0  0  0  0  0  0  0  0  0  0
   46.4544    1.4063    7.7130 C   0  0  0  0  0  0  0  0  0  0  0  0
   46.9329    2.3596    6.7450 C   0  0  0  0  0  0  0  0  0  0  0  0
   44.8440    3.6114   10.2446 C   0  0  0  0  0  0  0  0  0  0  0  0
   45.8261    5.3913    8.1809 O   0  0  0  0  0  0  0  0  0  0  0  0
   46.7333   -0.0431    7.4535 C   0  0  0  0  0  0  0  0  0  0  0  0
   45.0613    4.8603   10.8473 C   0  0  0  0  0  0  0  0  0  0  0  0
   43.9088    2.7565   10.8575 C   0  0  0  0  0  0  0  0  0  0  0  0
   43.2225    3.1348   12.0178 C   0  0  0  0  0  0  0  0  0  0  0  0
   44.3774    5.2403   12.0087 C   0  0  0  0  0  0  0  0  0  0  0  0
   43.4583    4.3772   12.5942 C   0  0  0  0  0  0  0  0  0  0  0  0
   45.4807    1.1352    9.5534 H   0  0  0  0  0  0  0  0  0  0  0  0
   47.0803    4.4146    6.2289 H   0  0  0  0  0  0  0  0  0  0  0  0
   47.4608    2.0040    5.8656 H   0  0  0  0  0  0  0  0  0  0  0  0
   47.8119   -0.2224    7.3890 H   0  0  0  0  0  0  0  0  0  0  0  0
   46.3378   -0.6836    8.2492 H   0  0  0  0  0  0  0  0  0  0  0  0
   46.2715   -0.3610    6.5125 H   0  0  0  0  0  0  0  0  0  0  0  0
   45.7920    5.5600   10.4506 H   0  0  0  0  0  0  0  0  0  0  0  0
   43.6540    1.7946   10.4228 H   0  0  0  0  0  0  0  0  0  0  0  0
   42.4956    2.4595   12.4620 H   0  0  0  0  0  0  0  0  0  0  0  0
   44.5714    6.2137   12.4522 H   0  0  0  0  0  0  0  0  0  0  0  0
   42.9256    4.6749   13.4932 H   0  0  0  0  0  0  0  0  0  0  0  0
  2  1  1  0
  3  1  1  0
  4  2  1  0
  5  3  2  0
  6  5  1  0
  7  1  1  0
  8  2  2  0
  9  5  1  0
 10  7  2  0
 11  7  1  0
 12 11  2  0
 13 10  1  0
 14 12  1  0
  4  6  2  0
 13 14  2  0
  3 15  1  0
  4 16  1  0
  6 17  1  0
  9 18  1  0
  9 19  1  0
  9 20  1  0
 10 21  1  0
 11 22  1  0
 12 23  1  0
 13 24  1  0
 14 25  1  0
M  END
> <Uni-Dock RESULT> 
ENERGY=   -4.730  LOWER_BOUND=    1.549  UPPER_BOUND=    5.412
INTER + INTRA:          -4.730
INTER:                  -4.730
INTRA:                   0.000
UNBOUND:                 0.000

$$$$

     RDKit          3D

 25 26  0  0  0  0  0  0  0  0999 V2000
   45.0555    3.8182    9.3895 N   0  0  0  0  0  0  0  0  0  0  0  0
   44.7441    2.4562    9.6107 C   0  0  0  0  0  0  0  0  0  0  0  0
   45.8540    4.1767    8.2984 C   0  0  0  0  0  0  0  0  0  0  0  0
   45.2927    1.4831    8.6230 C   0  0  0  0  0  0  0  0  0  0  0  0
   46.3497    3.2858    7.4257 C   0  0  0  0  0  0  0  0  0  0  0  0
   46.0555    1.8870    7.6037 C   0  0  0  0  0  0  0  0  0  0  0  0
   44.5566    4.8291   10.3010 C   0  0  0  0  0  0  0  0  0  0  0  0
   44.1001    1.9789   10.5442 O   0  0  0  0  0  0  0  0  0  0  0  0
   47.1891    3.6718    6.2457 C   0  0  0  0  0  0  0  0  0  0  0  0
   43.3550    4.6635   11.0073 C   0  0  0  0  0  0  0  0  0  0  0  0
   45.2572    6.0337   10.4992 C   0  0  0  0  0  0  0  0  0  0  0  0
   44.7784    7.0247   11.3648 C   0  0  0  0  0  0  0  0  0  0  0  0
   42.8731    5.6537   11.8723 C   0  0  0  0  0  0  0  0  0  0  0  0
   43.5846    6.8345   12.0506 C   0  0  0  0  0  0  0  0  0  0  0  0
   46.0373    5.2343    8.1428 H   0  0  0  0  0  0  0  0  0  0  0  0
   45.0487    0.4418    8.7907 H   0  0  0  0  0  0  0  0  0  0  0  0
   46.4546    1.1663    6.8969 H   0  0  0  0  0  0  0  0  0  0  0  0
   46.7066    3.3631    5.3121 H   0  0  0  0  0  0  0  0  0  0  0  0
   47.3478    4.7544    6.1945 H   0  0  0  0  0  0  0  0  0  0  0  0
   48.1737    3.1952    6.3019 H   0  0  0  0  0  0  0  0  0  0  0  0
   42.7425    3.7748   10.8805 H   0  0  0  0  0  0  0  0  0  0  0  0
   46.2168    6.2131   10.0235 H   0  0  0  0  0  0  0  0  0  0  0  0
   45.3474    7.9396   11.5089 H   0  0  0  0  0  0  0  0  0  0  0  0
   41.9370    5.4953   12.4020 H   0  0  0  0  0  0  0  0  0  0  0  0
   43.2115    7.6005   12.7249 H   0  0  0  0  0  0  0  0  0  0  0  0
  2  1  1  0
  3  1  1  0
  4  2  1  0
  5  3  2  0
  6  5  1  0
  7  1  1  0
  8  2  2  0
  9  5  1  0
 10  7  2  0
 11  7  1  0
 12 11  2  0
 13 10  1  0
 14 12  1  0
  4  6  2  0
 13 14  2  0
  3 15  1  0
  4 16  1  0
  6 17  1  0
  9 18  1  0
  9 19  1  0
  9 20  1  0
 10 21  1  0
 11 22  1  0
 12 23  1  0
 13 24  1  0
 14 25  1  0
M  END
> <Uni-Dock RESULT> 
ENERGY=   -4.404  LOWER_BOUND=    0.932  UPPER_BOUND=    4.930
INTER + INTRA:          -4.404
INTER:                  -4.404
INTRA:                   0.000
UNBOUND:                 0.000

$$$$

     RDKit          3D

 25 26  0  0  0  0  0  0  0  0999 V2000
   49.7426    3.2957   17.7844 N   0  0  0  0  0  0  0  0  0  0  0  0
   48.8074    2.7679   16.8637 C   0  0  0  0  0  0  0  0  0  0  0  0
   49.3678    4.3509   18.6227 C   0  0  0  0  0  0  0  0  0  0  0  0
   47.4497    3.3841   16.8727 C   0  0  0  0  0  0  0  0  0  0  0  0
   48.1442    4.9020   18.6089 C   0  0  0  0  0  0  0  0  0  0  0  0
   47.1540    4.3953   17.6938 C   0  0  0  0  0  0  0  0  0  0  0  0
   51.0840    2.7489   17.8432 C   0  0  0  0  0  0  0  0  0  0  0  0
   48.9963    1.8806   16.0324 O   0  0  0  0  0  0  0  0  0  0  0  0
   47.7367    6.0196   19.5205 C   0  0  0  0  0  0  0  0  0  0  0  0
   51.3556    1.4120   17.5127 C   0  0  0  0  0  0  0  0  0  0  0  0
   52.1712    3.5421   18.2554 C   0  0  0  0  0  0  0  0  0  0  0  0
   53.4690    3.0220   18.3315 C   0  0  0  0  0  0  0  0  0  0  0  0
   52.6522    0.8890   17.5895 C   0  0  0  0  0  0  0  0  0  0  0  0
   53.7089    1.6939   17.9994 C   0  0  0  0  0  0  0  0  0  0  0  0
   50.1021    4.7007   19.3402 H   0  0  0  0  0  0  0  0  0  0  0  0
   46.7337    2.9752   16.1713 H   0  0  0  0  0  0  0  0  0  0  0  0
   46.1636    4.8394   17.6838 H   0  0  0  0  0  0  0  0  0  0  0  0
   46.8967    5.7138   20.1534 H   0  0  0  0  0  0  0  0  0  0  0  0
   48.5549    6.3263   20.1810 H   0  0  0  0  0  0  0  0  0  0  0  0
   47.4329    6.8975   18.9403 H   0  0  0  0  0  0  0  0  0  0  0  0
   50.5624    0.7302   17.2179 H   0  0  0  0  0  0  0  0  0  0  0  0
   52.0463    4.5968   18.4819 H   0  0  0  0  0  0  0  0  0  0  0  0
   54.2920    3.6616   18.6401 H   0  0  0  0  0  0  0  0  0  0  0  0
   52.8280   -0.1519   17.3295 H   0  0  0  0  0  0  0  0  0  0  0  0
   54.7152    1.2878   18.0549 H   0  0  0  0  0  0  0  0  0  0  0  0
  2  1  1  0
  3  1  1  0
  4  2  1  0
  5  3  2  0
  6  5  1  0
  7  1  1  0
  8  2  2  0
  9  5  1  0
 10  7  2  0
 11  7  1  0
 12 11  2  0
 13 10  1  0
 14 12  1  0
  4  6  2  0
 13 14  2  0
  3 15  1  0
  4 16  1  0
  6 17  1  0
  9 18  1  0
  9 19  1  0
  9 20  1  0
 10 21  1  0
 11 22  1  0
 12 23  1  0
 13 24  1  0
 14 25  1  0
M  END
> <Uni-Dock RESULT> 
ENERGY=   -4.295  LOWER_BOUND=    9.550  UPPER_BOUND=   10.296
INTER + INTRA:          -4.295
INTER:                  -4.295
INTRA:                   0.000
UNBOUND:                 0.000

$$$$

     RDKit          3D

 25 26  0  0  0  0  0  0  0  0999 V2000
   44.4640    6.4705   12.2500 N   0  0  0  0  0  0  0  0  0  0  0  0
   43.2517    5.7586   12.0932 C   0  0  0  0  0  0  0  0  0  0  0  0
   45.5930    5.8123   12.7486 C   0  0  0  0  0  0  0  0  0  0  0  0
   43.2791    4.3151   12.4657 C   0  0  0  0  0  0  0  0  0  0  0  0
   45.5965    4.5145   13.0906 C   0  0  0  0  0  0  0  0  0  0  0  0
   44.3882    3.7443   12.9432 C   0  0  0  0  0  0  0  0  0  0  0  0
   44.5237    7.8774   11.9055 C   0  0  0  0  0  0  0  0  0  0  0  0
   42.1678    6.2026   11.7165 O   0  0  0  0  0  0  0  0  0  0  0  0
   46.8112    3.8045   13.6066 C   0  0  0  0  0  0  0  0  0  0  0  0
   43.7014    8.4341   10.9134 C   0  0  0  0  0  0  0  0  0  0  0  0
   45.4304    8.7416   12.5476 C   0  0  0  0  0  0  0  0  0  0  0  0
   45.5089   10.0991   12.2134 C   0  0  0  0  0  0  0  0  0  0  0  0
   43.7792    9.7910   10.5762 C   0  0  0  0  0  0  0  0  0  0  0  0
   44.6833   10.6234   11.2259 C   0  0  0  0  0  0  0  0  0  0  0  0
   46.5120    6.3841   12.8173 H   0  0  0  0  0  0  0  0  0  0  0  0
   42.3519    3.7706   12.3399 H   0  0  0  0  0  0  0  0  0  0  0  0
   44.3911    2.6941   13.2177 H   0  0  0  0  0  0  0  0  0  0  0  0
   47.0832    2.9754   12.9446 H   0  0  0  0  0  0  0  0  0  0  0  0
   47.6766    4.4727   13.6737 H   0  0  0  0  0  0  0  0  0  0  0  0
   46.6250    3.4026   14.6083 H   0  0  0  0  0  0  0  0  0  0  0  0
   43.0004    7.8228   10.3515 H   0  0  0  0  0  0  0  0  0  0  0  0
   46.0652    8.3933   13.3568 H   0  0  0  0  0  0  0  0  0  0  0  0
   46.2093   10.7461   12.7354 H   0  0  0  0  0  0  0  0  0  0  0  0
   43.1301   10.1900    9.8007 H   0  0  0  0  0  0  0  0  0  0  0  0
   44.7400   11.6768   10.9659 H   0  0  0  0  0  0  0  0  0  0  0  0
  2  1  1  0
  3  1  1  0
  4  2  1  0
  5  3  2  0
  6  5  1  0
  7  1  1  0
  8  2  2  0
  9  5  1  0
 10  7  2  0
 11  7  1  0
 12 11  2  0
 13 10  1  0
 14 12  1  0
  4  6  2  0
 13 14  2  0
  3 15  1  0
  4 16  1  0
  6 17  1  0
  9 18  1  0
  9 19  1  0
  9 20  1  0
 10 21  1  0
 11 22  1  0
 12 23  1  0
 13 24  1  0
 14 25  1  0
M  END
> <Uni-Dock RESULT> 
ENERGY=   -3.929  LOWER_BOUND=    4.934  UPPER_BOUND=    6.301
INTER + INTRA:          -3.929
INTER:                  -3.929
INTRA:                   0.000
UNBOUND:                 0.000

$$$$

     RDKit          3D

 25 26  0  0  0  0  0  0  0  0999 V2000
   44.6487    7.5812   11.9467 N   0  0  0  0  0  0  0  0  0  0  0  0
   45.6629    8.2485   12.6729 C   0  0  0  0  0  0  0  0  0  0  0  0
   43.8166    8.3107   11.0913 C   0  0  0  0  0  0  0  0  0  0  0  0
   45.7800    9.7178   12.4481 C   0  0  0  0  0  0  0  0  0  0  0  0
   43.9283    9.6358   10.9102 C   0  0  0  0  0  0  0  0  0  0  0  0
   44.9500   10.3600   11.6219 C   0  0  0  0  0  0  0  0  0  0  0  0
   44.4714    6.1510   12.1042 C   0  0  0  0  0  0  0  0  0  0  0  0
   46.4379    7.7606   13.4947 O   0  0  0  0  0  0  0  0  0  0  0  0
   43.0493   10.4143    9.9789 C   0  0  0  0  0  0  0  0  0  0  0  0
   45.5401    5.3023   12.4327 C   0  0  0  0  0  0  0  0  0  0  0  0
   43.2115    5.5529   11.9137 C   0  0  0  0  0  0  0  0  0  0  0  0
   43.0300    4.1710   12.0475 C   0  0  0  0  0  0  0  0  0  0  0  0
   45.3615    3.9198   12.5654 C   0  0  0  0  0  0  0  0  0  0  0  0
   44.1065    3.3541   12.3723 C   0  0  0  0  0  0  0  0  0  0  0  0
   43.0771    7.7556   10.5244 H   0  0  0  0  0  0  0  0  0  0  0  0
   46.5602   10.2259   13.0004 H   0  0  0  0  0  0  0  0  0  0  0  0
   45.0420   11.4314   11.4741 H   0  0  0  0  0  0  0  0  0  0  0  0
   43.6472   10.8992    9.1999 H   0  0  0  0  0  0  0  0  0  0  0  0
   42.3134    9.7735    9.4812 H   0  0  0  0  0  0  0  0  0  0  0  0
   42.4989   11.1872   10.5260 H   0  0  0  0  0  0  0  0  0  0  0  0
   46.5481    5.6869   12.5624 H   0  0  0  0  0  0  0  0  0  0  0  0
   42.3293    6.1503   11.7039 H   0  0  0  0  0  0  0  0  0  0  0  0
   42.0427    3.7380   11.9080 H   0  0  0  0  0  0  0  0  0  0  0  0
   46.2110    3.2901   12.8176 H   0  0  0  0  0  0  0  0  0  0  0  0
   43.9685    2.2817   12.4793 H   0  0  0  0  0  0  0  0  0  0  0  0
  2  1  1  0
  3  1  1  0
  4  2  1  0
  5  3  2  0
  6  5  1  0
  7  1  1  0
  8  2  2  0
  9  5  1  0
 10  7  2  0
 11  7  1  0
 12 11  2  0
 13 10  1  0
 14 12  1  0
  4  6  2  0
 13 14  2  0
  3 15  1  0
  4 16  1  0
  6 17  1  0
  9 18  1  0
  9 19  1  0
  9 20  1  0
 10 21  1  0
 11 22  1  0
 12 23  1  0
 13 24  1  0
 14 25  1  0
M  END
> <Uni-Dock RESULT> 
ENERGY=   -3.907  LOWER_BOUND=    4.823  UPPER_BOUND=    6.060
INTER + INTRA:          -3.907
INTER:                  -3.907
INTRA:                   0.000
UNBOUND:                 0.000

$$$$

     RDKit          3D

 25 26  0  0  0  0  0  0  0  0999 V2000
   46.2686    6.2267   13.0966 N   0  0  0  0  0  0  0  0  0  0  0  0
   47.2864    5.7403   13.9502 C   0  0  0  0  0  0  0  0  0  0  0  0
   46.2873    7.5651   12.6908 C   0  0  0  0  0  0  0  0  0  0  0  0
   48.3405    6.7175   14.3467 C   0  0  0  0  0  0  0  0  0  0  0  0
   47.2378    8.4345   13.0674 C   0  0  0  0  0  0  0  0  0  0  0  0
   48.2999    7.9862   13.9309 C   0  0  0  0  0  0  0  0  0  0  0  0
   45.2085    5.3393   12.6602 C   0  0  0  0  0  0  0  0  0  0  0  0
   47.3830    4.6116   14.4304 O   0  0  0  0  0  0  0  0  0  0  0  0
   47.2686    9.8635   12.6170 C   0  0  0  0  0  0  0  0  0  0  0  0
   45.4083    3.9570   12.5200 C   0  0  0  0  0  0  0  0  0  0  0  0
   43.9321    5.8393   12.3406 C   0  0  0  0  0  0  0  0  0  0  0  0
   42.9043    4.9952   11.9031 C   0  0  0  0  0  0  0  0  0  0  0  0
   44.3825    3.1110   12.0811 C   0  0  0  0  0  0  0  0  0  0  0  0
   43.1306    3.6302   11.7721 C   0  0  0  0  0  0  0  0  0  0  0  0
   45.5106    7.8879   12.0061 H   0  0  0  0  0  0  0  0  0  0  0  0
   49.1216    6.3421   14.9954 H   0  0  0  0  0  0  0  0  0  0  0  0
   49.0700    8.6885   14.2341 H   0  0  0  0  0  0  0  0  0  0  0  0
   48.1905   10.0735   12.0641 H   0  0  0  0  0  0  0  0  0  0  0  0
   46.4259   10.1023   11.9591 H   0  0  0  0  0  0  0  0  0  0  0  0
   47.2182   10.5391   13.4777 H   0  0  0  0  0  0  0  0  0  0  0  0
   46.3759    3.5029   12.7162 H   0  0  0  0  0  0  0  0  0  0  0  0
   43.6893    6.8899   12.4690 H   0  0  0  0  0  0  0  0  0  0  0  0
   41.9242    5.4071   11.6762 H   0  0  0  0  0  0  0  0  0  0  0  0
   44.5713    2.0451   11.9802 H   0  0  0  0  0  0  0  0  0  0  0  0
   42.3344    2.9720   11.4352 H   0  0  0  0  0  0  0  0  0  0  0  0
  2  1  1  0
  3  1  1  0
  4  2  1  0
  5  3  2  0
  6  5  1  0
  7  1  1  0
  8  2  2  0
  9  5  1  0
 10  7  2  0
 11  7  1  0
 12 11  2  0
 13 10  1  0
 14 12  1  0
  4  6  2  0
 13 14  2  0
  3 15  1  0
  4 16  1  0
  6 17  1  0
  9 18  1  0
  9 19  1  0
  9 20  1  0
 10 21  1  0
 11 22  1  0
 12 23  1  0
 13 24  1  0
 14 25  1  0
M  END
> <Uni-Dock RESULT> 
ENERGY=   -3.769  LOWER_BOUND=    4.567  UPPER_BOUND=    5.880
INTER + INTRA:          -3.769
INTER:                  -3.769
INTRA:                   0.000
UNBOUND:                 0.000

$$$$

     RDKit          3D

 25 26  0  0  0  0  0  0  0  0999 V2000
   46.1521    6.6553   13.1258 N   0  0  0  0  0  0  0  0  0  0  0  0
   45.7987    7.9727   12.7508 C   0  0  0  0  0  0  0  0  0  0  0  0
   47.3543    6.4282   13.8038 C   0  0  0  0  0  0  0  0  0  0  0  0
   46.7555    9.0494   13.1358 C   0  0  0  0  0  0  0  0  0  0  0  0
   48.2101    7.4085   14.1318 C   0  0  0  0  0  0  0  0  0  0  0  0
   47.8924    8.7682   13.7779 C   0  0  0  0  0  0  0  0  0  0  0  0
   45.2735    5.5509   12.7939 C   0  0  0  0  0  0  0  0  0  0  0  0
   44.8080    8.3279   12.1134 O   0  0  0  0  0  0  0  0  0  0  0  0
   49.4889    7.1676   14.8752 C   0  0  0  0  0  0  0  0  0  0  0  0
   43.8851    5.7177   12.6723 C   0  0  0  0  0  0  0  0  0  0  0  0
   45.7842    4.2541   12.5971 C   0  0  0  0  0  0  0  0  0  0  0  0
   44.9448    3.1759   12.2914 C   0  0  0  0  0  0  0  0  0  0  0  0
   43.0434    4.6408   12.3683 C   0  0  0  0  0  0  0  0  0  0  0  0
   43.5732    3.3697   12.1783 C   0  0  0  0  0  0  0  0  0  0  0  0
   47.5694    5.4092   14.1068 H   0  0  0  0  0  0  0  0  0  0  0  0
   46.4807   10.0576   12.8529 H   0  0  0  0  0  0  0  0  0  0  0  0
   48.5834    9.5616   14.0449 H   0  0  0  0  0  0  0  0  0  0  0  0
   49.4921    7.7150   15.8238 H   0  0  0  0  0  0  0  0  0  0  0  0
   49.6338    6.1063   15.1044 H   0  0  0  0  0  0  0  0  0  0  0  0
   50.3473    7.4980   14.2806 H   0  0  0  0  0  0  0  0  0  0  0  0
   43.4145    6.6823   12.8427 H   0  0  0  0  0  0  0  0  0  0  0  0
   46.8516    4.0573   12.6287 H   0  0  0  0  0  0  0  0  0  0  0  0
   45.3684    2.1877   12.1311 H   0  0  0  0  0  0  0  0  0  0  0  0
   41.9717    4.8034   12.2844 H   0  0  0  0  0  0  0  0  0  0  0  0
   42.9193    2.5356   11.9387 H   0  0  0  0  0  0  0  0  0  0  0  0
  2  1  1  0
  3  1  1  0
  4  2  1  0
  5  3  2  0
  6  5  1  0
  7  1  1  0
  8  2  2  0
  9  5  1  0
 10  7  2  0
 11  7  1  0
 12 11  2  0
 13 10  1  0
 14 12  1  0
  4  6  2  0
 13 14  2  0
  3 15  1  0
  4 16  1  0
  6 17  1  0
  9 18  1  0
  9 19  1  0
  9 20  1  0
 10 21  1  0
 11 22  1  0
 12 23  1  0
 13 24  1  0
 14 25  1  0
M  END
> <Uni-Dock RESULT> 
ENERGY=   -3.759  LOWER_BOUND=    4.691  UPPER_BOUND=    6.323
INTER + INTRA:          -3.759
INTER:                  -3.759
INTRA:                   0.000
UNBOUND:                 0.000

$$$$
