
     RDKit          3D

 25 26  0  0  0  0  0  0  0  0999 V2000
   45.2677    3.5002    9.2473 N   0  0  0  0  0  0  0  0  0  0  0  0
   44.3775    2.6203    9.9063 C   0  0  0  0  0  0  0  0  0  0  0  0
   45.3774    4.8256    9.6806 C   0  0  0  0  0  0  0  0  0  0  0  0
   43.6174    3.1873   11.0568 C   0  0  0  0  0  0  0  0  0  0  0  0
   44.6759    5.3229   10.7110 C   0  0  0  0  0  0  0  0  0  0  0  0
   43.7608    4.4648   11.4190 C   0  0  0  0  0  0  0  0  0  0  0  0
   46.0488    3.0262    8.1216 C   0  0  0  0  0  0  0  0  0  0  0  0
   44.1335    1.4493    9.6173 O   0  0  0  0  0  0  0  0  0  0  0  0
   44.8076    6.7375   11.1876 C   0  0  0  0  0  0  0  0  0  0  0  0
   46.4385    1.6829    8.0018 C   0  0  0  0  0  0  0  0  0  0  0  0
   46.4644    3.9084    7.1066 C   0  0  0  0  0  0  0  0  0  0  0  0
   47.2321    3.4665    6.0223 C   0  0  0  0  0  0  0  0  0  0  0  0
   47.2077    1.2388    6.9193 C   0  0  0  0  0  0  0  0  0  0  0  0
   47.6049    2.1307    5.9297 C   0  0  0  0  0  0  0  0  0  0  0  0
   46.0989    5.4565    9.1731 H   0  0  0  0  0  0  0  0  0  0  0  0
   42.9406    2.5110   11.5633 H   0  0  0  0  0  0  0  0  0  0  0  0
   43.1948    4.8660   12.2539 H   0  0  0  0  0  0  0  0  0  0  0  0
   45.1442    6.7635   12.2296 H   0  0  0  0  0  0  0  0  0  0  0  0
   43.8457    7.2570   11.1202 H   0  0  0  0  0  0  0  0  0  0  0  0
   45.5317    7.3032   10.5914 H   0  0  0  0  0  0  0  0  0  0  0  0
   46.1836    0.9504    8.7628 H   0  0  0  0  0  0  0  0  0  0  0  0
   46.1621    4.9513    7.1071 H   0  0  0  0  0  0  0  0  0  0  0  0
   47.5274    4.1675    5.2459 H   0  0  0  0  0  0  0  0  0  0  0  0
   47.4955    0.1922    6.8582 H   0  0  0  0  0  0  0  0  0  0  0  0
   48.1986    1.7840    5.0883 H   0  0  0  0  0  0  0  0  0  0  0  0
  2  1  1  0
  3  1  1  0
  4  2  1  0
  5  3  2  0
  6  5  1  0
  7  1  1  0
  8  2  2  0
  9  5  1  0
 10  7  2  0
 11  7  1  0
 12 11  2  0
 13 10  1  0
 14 12  1  0
  4  6  2  0
 13 14  2  0
  3 15  1  0
  4 16  1  0
  6 17  1  0
  9 18  1  0
  9 19  1  0
  9 20  1  0
 10 21  1  0
 11 22  1  0
 12 23  1  0
 13 24  1  0
 14 25  1  0
M  END
> <Uni-Dock RESULT> 
ENERGY=   -5.947  LOWER_BOUND=    0.000  UPPER_BOUND=    0.000
INTER + INTRA:          -5.947
INTER:                  -5.947
INTRA:                   0.000
UNBOUND:                 0.000

$$$$

     RDKit          3D

 25 26  0  0  0  0  0  0  0  0999 V2000
   45.4232    3.4463    9.0605 N   0  0  0  0  0  0  0  0  0  0  0  0
   45.4532    4.8273    9.3654 C   0  0  0  0  0  0  0  0  0  0  0  0
   44.6837    2.5757    9.8678 C   0  0  0  0  0  0  0  0  0  0  0  0
   44.6553    5.2613   10.5478 C   0  0  0  0  0  0  0  0  0  0  0  0
   43.9807    2.9821   10.9364 C   0  0  0  0  0  0  0  0  0  0  0  0
   43.9740    4.3799   11.2845 C   0  0  0  0  0  0  0  0  0  0  0  0
   46.1681    2.9425    7.9234 C   0  0  0  0  0  0  0  0  0  0  0  0
   46.0898    5.7068    8.7863 O   0  0  0  0  0  0  0  0  0  0  0  0
   43.1729    2.0524   11.7900 C   0  0  0  0  0  0  0  0  0  0  0  0
   46.4210    3.7343    6.7921 C   0  0  0  0  0  0  0  0  0  0  0  0
   46.6545    1.6217    7.9046 C   0  0  0  0  0  0  0  0  0  0  0  0
   47.3618    1.1181    6.8063 C   0  0  0  0  0  0  0  0  0  0  0  0
   47.1267    3.2324    5.6917 C   0  0  0  0  0  0  0  0  0  0  0  0
   47.5967    1.9241    5.6986 C   0  0  0  0  0  0  0  0  0  0  0  0
   44.6560    1.5311    9.5775 H   0  0  0  0  0  0  0  0  0  0  0  0
   44.6750    6.3193   10.7763 H   0  0  0  0  0  0  0  0  0  0  0  0
   43.4038    4.7094   12.1474 H   0  0  0  0  0  0  0  0  0  0  0  0
   42.1163    2.3410   11.7811 H   0  0  0  0  0  0  0  0  0  0  0  0
   43.5299    2.0730   12.8253 H   0  0  0  0  0  0  0  0  0  0  0  0
   43.2364    1.0169   11.4386 H   0  0  0  0  0  0  0  0  0  0  0  0
   46.0485    4.7524    6.7200 H   0  0  0  0  0  0  0  0  0  0  0  0
   46.5382    0.9656    8.7620 H   0  0  0  0  0  0  0  0  0  0  0  0
   47.7376    0.0983    6.8250 H   0  0  0  0  0  0  0  0  0  0  0  0
   47.3028    3.8710    4.8297 H   0  0  0  0  0  0  0  0  0  0  0  0
   48.1475    1.5372    4.8456 H   0  0  0  0  0  0  0  0  0  0  0  0
  2  1  1  0
  3  1  1  0
  4  2  1  0
  5  3  2  0
  6  5  1  0
  7  1  1  0
  8  2  2  0
  9  5  1  0
 10  7  2  0
 11  7  1  0
 12 11  2  0
 13 10  1  0
 14 12  1  0
  4  6  2  0
 13 14  2  0
  3 15  1  0
  4 16  1  0
  6 17  1  0
  9 18  1  0
  9 19  1  0
  9 20  1  0
 10 21  1  0
 11 22  1  0
 12 23  1  0
 13 24  1  0
 14 25  1  0
M  END
> <Uni-Dock RESULT> 
ENERGY=   -5.413  LOWER_BOUND=    1.373  UPPER_BOUND=    2.600
INTER + INTRA:          -5.413
INTER:                  -5.413
INTRA:                   0.000
UNBOUND:                 0.000

$$$$

     RDKit          3D

 25 26  0  0  0  0  0  0  0  0999 V2000
   45.5595    3.2003    9.0525 N   0  0  0  0  0  0  0  0  0  0  0  0
   46.0037    4.1745    8.1281 C   0  0  0  0  0  0  0  0  0  0  0  0
   45.8042    1.8462    8.8015 C   0  0  0  0  0  0  0  0  0  0  0  0
   46.7356    3.6669    6.9324 C   0  0  0  0  0  0  0  0  0  0  0  0
   46.4544    1.4058    7.7130 C   0  0  0  0  0  0  0  0  0  0  0  0
   46.9326    2.3593    6.7449 C   0  0  0  0  0  0  0  0  0  0  0  0
   44.8440    3.6108   10.2448 C   0  0  0  0  0  0  0  0  0  0  0  0
   45.8254    5.3909    8.1808 O   0  0  0  0  0  0  0  0  0  0  0  0
   46.7335   -0.0433    7.4535 C   0  0  0  0  0  0  0  0  0  0  0  0
   45.0612    4.8598   10.8475 C   0  0  0  0  0  0  0  0  0  0  0  0
   43.9090    2.7557   10.8579 C   0  0  0  0  0  0  0  0  0  0  0  0
   43.2228    3.1338   12.0183 C   0  0  0  0  0  0  0  0  0  0  0  0
   44.3774    5.2397   12.0090 C   0  0  0  0  0  0  0  0  0  0  0  0
   43.4585    4.3764   12.5946 C   0  0  0  0  0  0  0  0  0  0  0  0
   45.4811    1.1347    9.5534 H   0  0  0  0  0  0  0  0  0  0  0  0
   47.0795    4.4143    6.2288 H   0  0  0  0  0  0  0  0  0  0  0  0
   47.4604    2.0037    5.8655 H   0  0  0  0  0  0  0  0  0  0  0  0
   47.8122   -0.2226    7.3889 H   0  0  0  0  0  0  0  0  0  0  0  0
   46.2716   -0.3614    6.5126 H   0  0  0  0  0  0  0  0  0  0  0  0
   46.3384   -0.6839    8.2493 H   0  0  0  0  0  0  0  0  0  0  0  0
   45.7916    5.5595   10.4507 H   0  0  0  0  0  0  0  0  0  0  0  0
   43.6544    1.7938   10.4232 H   0  0  0  0  0  0  0  0  0  0  0  0
   42.4961    2.4585   12.4626 H   0  0  0  0  0  0  0  0  0  0  0  0
   44.5713    6.2131   12.4525 H   0  0  0  0  0  0  0  0  0  0  0  0
   42.9258    4.6740   13.4937 H   0  0  0  0  0  0  0  0  0  0  0  0
  2  1  1  0
  3  1  1  0
  4  2  1  0
  5  3  2  0
  6  5  1  0
  7  1  1  0
  8  2  2  0
  9  5  1  0
 10  7  2  0
 11  7  1  0
 12 11  2  0
 13 10  1  0
 14 12  1  0
  4  6  2  0
 13 14  2  0
  3 15  1  0
  4 16  1  0
  6 17  1  0
  9 18  1  0
  9 19  1  0
  9 20  1  0
 10 21  1  0
 11 22  1  0
 12 23  1  0
 13 24  1  0
 14 25  1  0
M  END
> <Uni-Dock RESULT> 
ENERGY=   -4.723  LOWER_BOUND=    1.548  UPPER_BOUND=    5.413
INTER + INTRA:          -4.723
INTER:                  -4.723
INTRA:                   0.000
UNBOUND:                 0.000

$$$$

     RDKit          3D

 25 26  0  0  0  0  0  0  0  0999 V2000
   45.0555    3.8181    9.3896 N   0  0  0  0  0  0  0  0  0  0  0  0
   44.7441    2.4561    9.6107 C   0  0  0  0  0  0  0  0  0  0  0  0
   45.8539    4.1768    8.2984 C   0  0  0  0  0  0  0  0  0  0  0  0
   45.2926    1.4832    8.6230 C   0  0  0  0  0  0  0  0  0  0  0  0
   46.3498    3.2858    7.4257 C   0  0  0  0  0  0  0  0  0  0  0  0
   46.0555    1.8870    7.6038 C   0  0  0  0  0  0  0  0  0  0  0  0
   44.5566    4.8291   10.3011 C   0  0  0  0  0  0  0  0  0  0  0  0
   44.1001    1.9788   10.5443 O   0  0  0  0  0  0  0  0  0  0  0  0
   47.1890    3.6717    6.2458 C   0  0  0  0  0  0  0  0  0  0  0  0
   43.3549    4.6635   11.0074 C   0  0  0  0  0  0  0  0  0  0  0  0
   45.2573    6.0338   10.4992 C   0  0  0  0  0  0  0  0  0  0  0  0
   44.7784    7.0247   11.3648 C   0  0  0  0  0  0  0  0  0  0  0  0
   42.8730    5.6537   11.8723 C   0  0  0  0  0  0  0  0  0  0  0  0
   43.5846    6.8346   12.0507 C   0  0  0  0  0  0  0  0  0  0  0  0
   46.0374    5.2342    8.1428 H   0  0  0  0  0  0  0  0  0  0  0  0
   45.0487    0.4418    8.7908 H   0  0  0  0  0  0  0  0  0  0  0  0
   46.4546    1.1664    6.8969 H   0  0  0  0  0  0  0  0  0  0  0  0
   46.7065    3.3631    5.3121 H   0  0  0  0  0  0  0  0  0  0  0  0
   48.1737    3.1952    6.3020 H   0  0  0  0  0  0  0  0  0  0  0  0
   47.3477    4.7543    6.1945 H   0  0  0  0  0  0  0  0  0  0  0  0
   42.7426    3.7749   10.8806 H   0  0  0  0  0  0  0  0  0  0  0  0
   46.2167    6.2131   10.0235 H   0  0  0  0  0  0  0  0  0  0  0  0
   45.3475    7.9395   11.5089 H   0  0  0  0  0  0  0  0  0  0  0  0
   41.9370    5.4953   12.4020 H   0  0  0  0  0  0  0  0  0  0  0  0
   43.2115    7.6005   12.7250 H   0  0  0  0  0  0  0  0  0  0  0  0
  2  1  1  0
  3  1  1  0
  4  2  1  0
  5  3  2  0
  6  5  1  0
  7  1  1  0
  8  2  2  0
  9  5  1  0
 10  7  2  0
 11  7  1  0
 12 11  2  0
 13 10  1  0
 14 12  1  0
  4  6  2  0
 13 14  2  0
  3 15  1  0
  4 16  1  0
  6 17  1  0
  9 18  1  0
  9 19  1  0
  9 20  1  0
 10 21  1  0
 11 22  1  0
 12 23  1  0
 13 24  1  0
 14 25  1  0
M  END
> <Uni-Dock RESULT> 
ENERGY=   -4.404  LOWER_BOUND=    0.935  UPPER_BOUND=    4.931
INTER + INTRA:          -4.404
INTER:                  -4.404
INTRA:                   0.000
UNBOUND:                 0.000

$$$$

     RDKit          3D

 25 26  0  0  0  0  0  0  0  0999 V2000
   49.7422    3.2961   17.7839 N   0  0  0  0  0  0  0  0  0  0  0  0
   48.8069    2.7677   16.8636 C   0  0  0  0  0  0  0  0  0  0  0  0
   49.3674    4.3514   18.6219 C   0  0  0  0  0  0  0  0  0  0  0  0
   47.4492    3.3837   16.8726 C   0  0  0  0  0  0  0  0  0  0  0  0
   48.1437    4.9025   18.6080 C   0  0  0  0  0  0  0  0  0  0  0  0
   47.1534    4.3952   17.6932 C   0  0  0  0  0  0  0  0  0  0  0  0
   51.0837    2.7495   17.8428 C   0  0  0  0  0  0  0  0  0  0  0  0
   48.9959    1.8800   16.0326 O   0  0  0  0  0  0  0  0  0  0  0  0
   47.7361    6.0203   19.5191 C   0  0  0  0  0  0  0  0  0  0  0  0
   51.3555    1.4124   17.5128 C   0  0  0  0  0  0  0  0  0  0  0  0
   52.1709    3.5431   18.2546 C   0  0  0  0  0  0  0  0  0  0  0  0
   53.4687    3.0233   18.3306 C   0  0  0  0  0  0  0  0  0  0  0  0
   52.6523    0.8897   17.5897 C   0  0  0  0  0  0  0  0  0  0  0  0
   53.7089    1.6950   17.9991 C   0  0  0  0  0  0  0  0  0  0  0  0
   50.1016    4.7018   19.3390 H   0  0  0  0  0  0  0  0  0  0  0  0
   46.7331    2.9744   16.1714 H   0  0  0  0  0  0  0  0  0  0  0  0
   46.1629    4.8391   17.6832 H   0  0  0  0  0  0  0  0  0  0  0  0
   46.8962    5.7146   20.1523 H   0  0  0  0  0  0  0  0  0  0  0  0
   47.4321    6.8980   18.9386 H   0  0  0  0  0  0  0  0  0  0  0  0
   48.5542    6.3274   20.1794 H   0  0  0  0  0  0  0  0  0  0  0  0
   50.5624    0.7305   17.2185 H   0  0  0  0  0  0  0  0  0  0  0  0
   52.0457    4.5978   18.4806 H   0  0  0  0  0  0  0  0  0  0  0  0
   54.2916    3.6631   18.6389 H   0  0  0  0  0  0  0  0  0  0  0  0
   52.8282   -0.1512   17.3301 H   0  0  0  0  0  0  0  0  0  0  0  0
   54.7152    1.2892   18.0546 H   0  0  0  0  0  0  0  0  0  0  0  0
  2  1  1  0
  3  1  1  0
  4  2  1  0
  5  3  2  0
  6  5  1  0
  7  1  1  0
  8  2  2  0
  9  5  1  0
 10  7  2  0
 11  7  1  0
 12 11  2  0
 13 10  1  0
 14 12  1  0
  4  6  2  0
 13 14  2  0
  3 15  1  0
  4 16  1  0
  6 17  1  0
  9 18  1  0
  9 19  1  0
  9 20  1  0
 10 21  1  0
 11 22  1  0
 12 23  1  0
 13 24  1  0
 14 25  1  0
M  END
> <Uni-Dock RESULT> 
ENERGY=   -4.298  LOWER_BOUND=    9.542  UPPER_BOUND=   10.294
INTER + INTRA:          -4.298
INTER:                  -4.298
INTRA:                   0.000
UNBOUND:                 0.000

$$$$

     RDKit          3D

 25 26  0  0  0  0  0  0  0  0999 V2000
   44.4640    6.4705   12.2501 N   0  0  0  0  0  0  0  0  0  0  0  0
   43.2517    5.7586   12.0933 C   0  0  0  0  0  0  0  0  0  0  0  0
   45.5931    5.8124   12.7486 C   0  0  0  0  0  0  0  0  0  0  0  0
   43.2791    4.3152   12.4658 C   0  0  0  0  0  0  0  0  0  0  0  0
   45.5966    4.5146   13.0908 C   0  0  0  0  0  0  0  0  0  0  0  0
   44.3882    3.7444   12.9433 C   0  0  0  0  0  0  0  0  0  0  0  0
   44.5238    7.8775   11.9056 C   0  0  0  0  0  0  0  0  0  0  0  0
   42.1677    6.2026   11.7165 O   0  0  0  0  0  0  0  0  0  0  0  0
   46.8111    3.8046   13.6067 C   0  0  0  0  0  0  0  0  0  0  0  0
   43.7014    8.4342   10.9134 C   0  0  0  0  0  0  0  0  0  0  0  0
   45.4305    8.7417   12.5476 C   0  0  0  0  0  0  0  0  0  0  0  0
   45.5090   10.0991   12.2135 C   0  0  0  0  0  0  0  0  0  0  0  0
   43.7792    9.7911   10.5762 C   0  0  0  0  0  0  0  0  0  0  0  0
   44.6834   10.6235   11.2259 C   0  0  0  0  0  0  0  0  0  0  0  0
   46.5120    6.3841   12.8174 H   0  0  0  0  0  0  0  0  0  0  0  0
   42.3520    3.7706   12.3400 H   0  0  0  0  0  0  0  0  0  0  0  0
   44.3912    2.6942   13.2178 H   0  0  0  0  0  0  0  0  0  0  0  0
   47.0833    2.9754   12.9447 H   0  0  0  0  0  0  0  0  0  0  0  0
   46.6250    3.4026   14.6084 H   0  0  0  0  0  0  0  0  0  0  0  0
   47.6766    4.4727   13.6737 H   0  0  0  0  0  0  0  0  0  0  0  0
   43.0005    7.8229   10.3516 H   0  0  0  0  0  0  0  0  0  0  0  0
   46.0652    8.3933   13.3568 H   0  0  0  0  0  0  0  0  0  0  0  0
   46.2093   10.7461   12.7354 H   0  0  0  0  0  0  0  0  0  0  0  0
   43.1301   10.1900    9.8007 H   0  0  0  0  0  0  0  0  0  0  0  0
   44.7401   11.6769   10.9659 H   0  0  0  0  0  0  0  0  0  0  0  0
  2  1  1  0
  3  1  1  0
  4  2  1  0
  5  3  2  0
  6  5  1  0
  7  1  1  0
  8  2  2  0
  9  5  1  0
 10  7  2  0
 11  7  1  0
 12 11  2  0
 13 10  1  0
 14 12  1  0
  4  6  2  0
 13 14  2  0
  3 15  1  0
  4 16  1  0
  6 17  1  0
  9 18  1  0
  9 19  1  0
  9 20  1  0
 10 21  1  0
 11 22  1  0
 12 23  1  0
 13 24  1  0
 14 25  1  0
M  END
> <Uni-Dock RESULT> 
ENERGY=   -3.929  LOWER_BOUND=    4.939  UPPER_BOUND=    6.302
INTER + INTRA:          -3.929
INTER:                  -3.929
INTRA:                   0.000
UNBOUND:                 0.000

$$$$

     RDKit          3D

 25 26  0  0  0  0  0  0  0  0999 V2000
   44.6677    7.4803   11.9498 N   0  0  0  0  0  0  0  0  0  0  0  0
   45.6805    8.1281   12.6951 C   0  0  0  0  0  0  0  0  0  0  0  0
   43.8420    8.2311   11.1066 C   0  0  0  0  0  0  0  0  0  0  0  0
   45.8034    9.6016   12.5032 C   0  0  0  0  0  0  0  0  0  0  0  0
   43.9587    9.5596   10.9552 C   0  0  0  0  0  0  0  0  0  0  0  0
   44.9794   10.2646   11.6875 C   0  0  0  0  0  0  0  0  0  0  0  0
   44.4849    6.0475   12.0748 C   0  0  0  0  0  0  0  0  0  0  0  0
   46.4501    7.6197   13.5096 O   0  0  0  0  0  0  0  0  0  0  0  0
   43.0868   10.3613   10.0374 C   0  0  0  0  0  0  0  0  0  0  0  0
   45.5495    5.1883   12.3895 C   0  0  0  0  0  0  0  0  0  0  0  0
   43.2241    5.4580   11.8653 C   0  0  0  0  0  0  0  0  0  0  0  0
   43.0374    4.0741   11.9678 C   0  0  0  0  0  0  0  0  0  0  0  0
   45.3658    3.8038   12.4909 C   0  0  0  0  0  0  0  0  0  0  0  0
   44.1098    3.2466   12.2796 C   0  0  0  0  0  0  0  0  0  0  0  0
   43.1034    7.6913   10.5242 H   0  0  0  0  0  0  0  0  0  0  0  0
   46.5826   10.0948   13.0703 H   0  0  0  0  0  0  0  0  0  0  0  0
   45.0756   11.3387   11.5638 H   0  0  0  0  0  0  0  0  0  0  0  0
   43.6899   10.8613    9.2718 H   0  0  0  0  0  0  0  0  0  0  0  0
   42.5363   11.1238   10.5987 H   0  0  0  0  0  0  0  0  0  0  0  0
   42.3513    9.7341    9.5222 H   0  0  0  0  0  0  0  0  0  0  0  0
   46.5580    5.5666   12.5323 H   0  0  0  0  0  0  0  0  0  0  0  0
   42.3449    6.0628   11.6645 H   0  0  0  0  0  0  0  0  0  0  0  0
   42.0495    3.6476   11.8142 H   0  0  0  0  0  0  0  0  0  0  0  0
   46.2120    3.1658   12.7332 H   0  0  0  0  0  0  0  0  0  0  0  0
   43.9678    2.1726   12.3623 H   0  0  0  0  0  0  0  0  0  0  0  0
  2  1  1  0
  3  1  1  0
  4  2  1  0
  5  3  2  0
  6  5  1  0
  7  1  1  0
  8  2  2  0
  9  5  1  0
 10  7  2  0
 11  7  1  0
 12 11  2  0
 13 10  1  0
 14 12  1  0
  4  6  2  0
 13 14  2  0
  3 15  1  0
  4 16  1  0
  6 17  1  0
  9 18  1  0
  9 19  1  0
  9 20  1  0
 10 21  1  0
 11 22  1  0
 12 23  1  0
 13 24  1  0
 14 25  1  0
M  END
> <Uni-Dock RESULT> 
ENERGY=   -3.906  LOWER_BOUND=    4.749  UPPER_BOUND=    5.978
INTER + INTRA:          -3.906
INTER:                  -3.906
INTRA:                   0.000
UNBOUND:                 0.000

$$$$

     RDKit          3D

 25 26  0  0  0  0  0  0  0  0999 V2000
   45.2728    5.9569   11.3680 N   0  0  0  0  0  0  0  0  0  0  0  0
   44.1262    5.5177   12.0703 C   0  0  0  0  0  0  0  0  0  0  0  0
   45.6030    5.3654   10.1442 C   0  0  0  0  0  0  0  0  0  0  0  0
   43.3260    4.4394   11.4223 C   0  0  0  0  0  0  0  0  0  0  0  0
   44.8777    4.3866    9.5810 C   0  0  0  0  0  0  0  0  0  0  0  0
   43.6970    3.9091   10.2540 C   0  0  0  0  0  0  0  0  0  0  0  0
   46.1029    7.0060   11.9268 C   0  0  0  0  0  0  0  0  0  0  0  0
   43.7322    5.9003   13.1715 O   0  0  0  0  0  0  0  0  0  0  0  0
   45.2205    3.7662    8.2608 C   0  0  0  0  0  0  0  0  0  0  0  0
   45.5770    8.0003   12.7666 C   0  0  0  0  0  0  0  0  0  0  0  0
   47.4770    7.0767   11.6300 C   0  0  0  0  0  0  0  0  0  0  0  0
   48.2865    8.0935   12.1506 C   0  0  0  0  0  0  0  0  0  0  0  0
   46.3842    9.0193   13.2872 C   0  0  0  0  0  0  0  0  0  0  0  0
   47.7389    9.0662   12.9788 C   0  0  0  0  0  0  0  0  0  0  0  0
   46.4677    5.7571    9.6198 H   0  0  0  0  0  0  0  0  0  0  0  0
   42.4458    4.1083   11.9587 H   0  0  0  0  0  0  0  0  0  0  0  0
   43.1088    3.1189    9.7978 H   0  0  0  0  0  0  0  0  0  0  0  0
   44.4065    3.9135    7.5427 H   0  0  0  0  0  0  0  0  0  0  0  0
   45.3928    2.6905    8.3746 H   0  0  0  0  0  0  0  0  0  0  0  0
   46.1271    4.2027    7.8279 H   0  0  0  0  0  0  0  0  0  0  0  0
   44.5193    8.0304   13.0134 H   0  0  0  0  0  0  0  0  0  0  0  0
   47.9634    6.3167   11.0259 H   0  0  0  0  0  0  0  0  0  0  0  0
   49.3475    8.1155   11.9155 H   0  0  0  0  0  0  0  0  0  0  0  0
   45.9448    9.7761   13.9322 H   0  0  0  0  0  0  0  0  0  0  0  0
   48.3648    9.8552   13.3865 H   0  0  0  0  0  0  0  0  0  0  0  0
  2  1  1  0
  3  1  1  0
  4  2  1  0
  5  3  2  0
  6  5  1  0
  7  1  1  0
  8  2  2  0
  9  5  1  0
 10  7  2  0
 11  7  1  0
 12 11  2  0
 13 10  1  0
 14 12  1  0
  4  6  2  0
 13 14  2  0
  3 15  1  0
  4 16  1  0
  6 17  1  0
  9 18  1  0
  9 19  1  0
  9 20  1  0
 10 21  1  0
 11 22  1  0
 12 23  1  0
 13 24  1  0
 14 25  1  0
M  END
> <Uni-Dock RESULT> 
ENERGY=   -3.868  LOWER_BOUND=    2.765  UPPER_BOUND=    5.763
INTER + INTRA:          -3.868
INTER:                  -3.868
INTRA:                   0.000
UNBOUND:                 0.000

$$$$

     RDKit          3D

 25 26  0  0  0  0  0  0  0  0999 V2000
   46.1535    6.6560   13.1223 N   0  0  0  0  0  0  0  0  0  0  0  0
   45.7979    7.9728   12.7474 C   0  0  0  0  0  0  0  0  0  0  0  0
   47.3575    6.4304   13.7974 C   0  0  0  0  0  0  0  0  0  0  0  0
   46.7546    9.0507   13.1293 C   0  0  0  0  0  0  0  0  0  0  0  0
   48.2134    7.4117   14.1226 C   0  0  0  0  0  0  0  0  0  0  0  0
   47.8934    8.7709   13.7686 C   0  0  0  0  0  0  0  0  0  0  0  0
   45.2751    5.5505   12.7933 C   0  0  0  0  0  0  0  0  0  0  0  0
   44.8052    8.3267   12.1122 O   0  0  0  0  0  0  0  0  0  0  0  0
   49.4941    7.1726   14.8628 C   0  0  0  0  0  0  0  0  0  0  0  0
   43.8862    5.7160   12.6751 C   0  0  0  0  0  0  0  0  0  0  0  0
   45.7865    4.2540   12.5960 C   0  0  0  0  0  0  0  0  0  0  0  0
   44.9475    3.1749   12.2932 C   0  0  0  0  0  0  0  0  0  0  0  0
   43.0447    4.6380   12.3740 C   0  0  0  0  0  0  0  0  0  0  0  0
   43.5753    3.3673   12.1835 C   0  0  0  0  0  0  0  0  0  0  0  0
   47.5745    5.4120   14.1005 H   0  0  0  0  0  0  0  0  0  0  0  0
   46.4782   10.0584   12.8464 H   0  0  0  0  0  0  0  0  0  0  0  0
   48.5843    9.5652   14.0333 H   0  0  0  0  0  0  0  0  0  0  0  0
   49.4993    7.7206   15.8113 H   0  0  0  0  0  0  0  0  0  0  0  0
   50.3508    7.5034   14.2659 H   0  0  0  0  0  0  0  0  0  0  0  0
   49.6407    6.1116   15.0925 H   0  0  0  0  0  0  0  0  0  0  0  0
   43.4152    6.6801   12.8462 H   0  0  0  0  0  0  0  0  0  0  0  0
   46.8542    4.0583   12.6252 H   0  0  0  0  0  0  0  0  0  0  0  0
   45.3716    2.1870   12.1325 H   0  0  0  0  0  0  0  0  0  0  0  0
   41.9727    4.7996   12.2928 H   0  0  0  0  0  0  0  0  0  0  0  0
   42.9216    2.5325   11.9461 H   0  0  0  0  0  0  0  0  0  0  0  0
  2  1  1  0
  3  1  1  0
  4  2  1  0
  5  3  2  0
  6  5  1  0
  7  1  1  0
  8  2  2  0
  9  5  1  0
 10  7  2  0
 11  7  1  0
 12 11  2  0
 13 10  1  0
 14 12  1  0
  4  6  2  0
 13 14  2  0
  3 15  1  0
  4 16  1  0
  6 17  1  0
  9 18  1  0
  9 19  1  0
  9 20  1  0
 10 21  1  0
 11 22  1  0
 12 23  1  0
 13 24  1  0
 14 25  1  0
M  END
> <Uni-Dock RESULT> 
ENERGY=   -3.761  LOWER_BOUND=    4.697  UPPER_BOUND=    6.325
INTER + INTRA:          -3.761
INTER:                  -3.761
INTRA:                   0.000
UNBOUND:                 0.000

$$$$
