
     RDKit          3D

 25 26  0  0  0  0  0  0  0  0999 V2000
   45.2575    3.5001    9.2507 N   0  0  0  0  0  0  0  0  0  0  0  0
   44.3676    2.6218    9.9122 C   0  0  0  0  0  0  0  0  0  0  0  0
   45.3671    4.8266    9.6808 C   0  0  0  0  0  0  0  0  0  0  0  0
   43.6078    3.1914   11.0615 C   0  0  0  0  0  0  0  0  0  0  0  0
   44.6659    5.3263   10.7102 C   0  0  0  0  0  0  0  0  0  0  0  0
   43.7511    4.4699   11.4207 C   0  0  0  0  0  0  0  0  0  0  0  0
   46.0383    3.0235    8.1261 C   0  0  0  0  0  0  0  0  0  0  0  0
   44.1237    1.4501    9.6261 O   0  0  0  0  0  0  0  0  0  0  0  0
   44.7975    6.7421   11.1833 C   0  0  0  0  0  0  0  0  0  0  0  0
   46.4281    1.6801    8.0094 C   0  0  0  0  0  0  0  0  0  0  0  0
   46.4534    3.9033    7.1087 C   0  0  0  0  0  0  0  0  0  0  0  0
   47.2208    3.4589    6.0253 C   0  0  0  0  0  0  0  0  0  0  0  0
   47.1970    1.2334    6.9277 C   0  0  0  0  0  0  0  0  0  0  0  0
   47.5938    2.1229    5.9359 C   0  0  0  0  0  0  0  0  0  0  0  0
   46.0883    5.4565    9.1716 H   0  0  0  0  0  0  0  0  0  0  0  0
   42.9313    2.5163   11.5700 H   0  0  0  0  0  0  0  0  0  0  0  0
   43.1853    4.8730   12.2546 H   0  0  0  0  0  0  0  0  0  0  0  0
   43.8355    7.2613   11.1149 H   0  0  0  0  0  0  0  0  0  0  0  0
   45.1344    6.7706   12.2251 H   0  0  0  0  0  0  0  0  0  0  0  0
   45.5213    7.3065   10.5855 H   0  0  0  0  0  0  0  0  0  0  0  0
   46.1735    0.9493    8.7722 H   0  0  0  0  0  0  0  0  0  0  0  0
   46.1510    4.9463    7.1068 H   0  0  0  0  0  0  0  0  0  0  0  0
   47.5158    4.1580    5.2469 H   0  0  0  0  0  0  0  0  0  0  0  0
   47.4849    0.1867    6.8690 H   0  0  0  0  0  0  0  0  0  0  0  0
   48.1872    1.7743    5.0951 H   0  0  0  0  0  0  0  0  0  0  0  0
  2  1  1  0
  3  1  1  0
  4  2  1  0
  5  3  2  0
  6  5  1  0
  7  1  1  0
  8  2  2  0
  9  5  1  0
 10  7  2  0
 11  7  1  0
 12 11  2  0
 13 10  1  0
 14 12  1  0
  4  6  2  0
 13 14  2  0
  3 15  1  0
  4 16  1  0
  6 17  1  0
  9 18  1  0
  9 19  1  0
  9 20  1  0
 10 21  1  0
 11 22  1  0
 12 23  1  0
 13 24  1  0
 14 25  1  0
M  END
> <Uni-Dock RESULT> 
ENERGY=   -5.948  LOWER_BOUND=    0.000  UPPER_BOUND=    0.000
INTER + INTRA:          -5.948
INTER:                  -5.948
INTRA:                   0.000
UNBOUND:                 0.000

$$$$

     RDKit          3D

 25 26  0  0  0  0  0  0  0  0999 V2000
   45.4232    3.4463    9.0604 N   0  0  0  0  0  0  0  0  0  0  0  0
   45.4531    4.8273    9.3654 C   0  0  0  0  0  0  0  0  0  0  0  0
   44.6837    2.5757    9.8677 C   0  0  0  0  0  0  0  0  0  0  0  0
   44.6553    5.2613   10.5477 C   0  0  0  0  0  0  0  0  0  0  0  0
   43.9807    2.9821   10.9363 C   0  0  0  0  0  0  0  0  0  0  0  0
   43.9739    4.3798   11.2845 C   0  0  0  0  0  0  0  0  0  0  0  0
   46.1682    2.9427    7.9233 C   0  0  0  0  0  0  0  0  0  0  0  0
   46.0898    5.7067    8.7864 O   0  0  0  0  0  0  0  0  0  0  0  0
   43.1729    2.0523   11.7898 C   0  0  0  0  0  0  0  0  0  0  0  0
   46.4210    3.7344    6.7921 C   0  0  0  0  0  0  0  0  0  0  0  0
   46.6545    1.6218    7.9045 C   0  0  0  0  0  0  0  0  0  0  0  0
   47.3619    1.1183    6.8061 C   0  0  0  0  0  0  0  0  0  0  0  0
   47.1267    3.2326    5.6916 C   0  0  0  0  0  0  0  0  0  0  0  0
   47.5968    1.9244    5.6985 C   0  0  0  0  0  0  0  0  0  0  0  0
   44.6560    1.5311    9.5774 H   0  0  0  0  0  0  0  0  0  0  0  0
   44.6750    6.3192   10.7764 H   0  0  0  0  0  0  0  0  0  0  0  0
   43.4038    4.7093   12.1474 H   0  0  0  0  0  0  0  0  0  0  0  0
   43.5299    2.0728   12.8251 H   0  0  0  0  0  0  0  0  0  0  0  0
   42.1163    2.3409   11.7808 H   0  0  0  0  0  0  0  0  0  0  0  0
   43.2364    1.0168   11.4384 H   0  0  0  0  0  0  0  0  0  0  0  0
   46.0485    4.7526    6.7200 H   0  0  0  0  0  0  0  0  0  0  0  0
   46.5382    0.9656    8.7618 H   0  0  0  0  0  0  0  0  0  0  0  0
   47.7377    0.0985    6.8247 H   0  0  0  0  0  0  0  0  0  0  0  0
   47.3028    3.8712    4.8297 H   0  0  0  0  0  0  0  0  0  0  0  0
   48.1475    1.5375    4.8455 H   0  0  0  0  0  0  0  0  0  0  0  0
  2  1  1  0
  3  1  1  0
  4  2  1  0
  5  3  2  0
  6  5  1  0
  7  1  1  0
  8  2  2  0
  9  5  1  0
 10  7  2  0
 11  7  1  0
 12 11  2  0
 13 10  1  0
 14 12  1  0
  4  6  2  0
 13 14  2  0
  3 15  1  0
  4 16  1  0
  6 17  1  0
  9 18  1  0
  9 19  1  0
  9 20  1  0
 10 21  1  0
 11 22  1  0
 12 23  1  0
 13 24  1  0
 14 25  1  0
M  END
> <Uni-Dock RESULT> 
ENERGY=   -5.422  LOWER_BOUND=    1.375  UPPER_BOUND=    2.602
INTER + INTRA:          -5.422
INTER:                  -5.422
INTRA:                   0.000
UNBOUND:                 0.000

$$$$

     RDKit          3D

 25 26  0  0  0  0  0  0  0  0999 V2000
   45.0555    3.8182    9.3896 N   0  0  0  0  0  0  0  0  0  0  0  0
   44.7441    2.4561    9.6107 C   0  0  0  0  0  0  0  0  0  0  0  0
   45.8538    4.1768    8.2984 C   0  0  0  0  0  0  0  0  0  0  0  0
   45.2927    1.4832    8.6231 C   0  0  0  0  0  0  0  0  0  0  0  0
   46.3497    3.2858    7.4257 C   0  0  0  0  0  0  0  0  0  0  0  0
   46.0554    1.8870    7.6037 C   0  0  0  0  0  0  0  0  0  0  0  0
   44.5566    4.8291   10.3011 C   0  0  0  0  0  0  0  0  0  0  0  0
   44.1002    1.9788   10.5443 O   0  0  0  0  0  0  0  0  0  0  0  0
   47.1890    3.6718    6.2457 C   0  0  0  0  0  0  0  0  0  0  0  0
   43.3549    4.6634   11.0074 C   0  0  0  0  0  0  0  0  0  0  0  0
   45.2572    6.0338   10.4992 C   0  0  0  0  0  0  0  0  0  0  0  0
   44.7784    7.0247   11.3648 C   0  0  0  0  0  0  0  0  0  0  0  0
   42.8730    5.6537   11.8723 C   0  0  0  0  0  0  0  0  0  0  0  0
   43.5845    6.8345   12.0507 C   0  0  0  0  0  0  0  0  0  0  0  0
   46.0373    5.2342    8.1427 H   0  0  0  0  0  0  0  0  0  0  0  0
   45.0488    0.4419    8.7908 H   0  0  0  0  0  0  0  0  0  0  0  0
   46.4545    1.1664    6.8970 H   0  0  0  0  0  0  0  0  0  0  0  0
   48.1736    3.1953    6.3019 H   0  0  0  0  0  0  0  0  0  0  0  0
   46.7064    3.3631    5.3121 H   0  0  0  0  0  0  0  0  0  0  0  0
   47.3476    4.7543    6.1944 H   0  0  0  0  0  0  0  0  0  0  0  0
   42.7426    3.7748   10.8807 H   0  0  0  0  0  0  0  0  0  0  0  0
   46.2167    6.2132   10.0235 H   0  0  0  0  0  0  0  0  0  0  0  0
   45.3474    7.9395   11.5090 H   0  0  0  0  0  0  0  0  0  0  0  0
   41.9370    5.4953   12.4021 H   0  0  0  0  0  0  0  0  0  0  0  0
   43.2114    7.6004   12.7250 H   0  0  0  0  0  0  0  0  0  0  0  0
  2  1  1  0
  3  1  1  0
  4  2  1  0
  5  3  2  0
  6  5  1  0
  7  1  1  0
  8  2  2  0
  9  5  1  0
 10  7  2  0
 11  7  1  0
 12 11  2  0
 13 10  1  0
 14 12  1  0
  4  6  2  0
 13 14  2  0
  3 15  1  0
  4 16  1  0
  6 17  1  0
  9 18  1  0
  9 19  1  0
  9 20  1  0
 10 21  1  0
 11 22  1  0
 12 23  1  0
 13 24  1  0
 14 25  1  0
M  END
> <Uni-Dock RESULT> 
ENERGY=   -4.404  LOWER_BOUND=    0.932  UPPER_BOUND=    4.930
INTER + INTRA:          -4.404
INTER:                  -4.404
INTRA:                   0.000
UNBOUND:                 0.000

$$$$

     RDKit          3D

 25 26  0  0  0  0  0  0  0  0999 V2000
   49.7421    3.2957   17.7842 N   0  0  0  0  0  0  0  0  0  0  0  0
   48.8070    2.7679   16.8634 C   0  0  0  0  0  0  0  0  0  0  0  0
   49.3672    4.3507   18.6226 C   0  0  0  0  0  0  0  0  0  0  0  0
   47.4494    3.3841   16.8724 C   0  0  0  0  0  0  0  0  0  0  0  0
   48.1436    4.9019   18.6087 C   0  0  0  0  0  0  0  0  0  0  0  0
   47.1534    4.3951   17.6935 C   0  0  0  0  0  0  0  0  0  0  0  0
   51.0835    2.7489   17.8431 C   0  0  0  0  0  0  0  0  0  0  0  0
   48.9961    1.8807   16.0320 O   0  0  0  0  0  0  0  0  0  0  0  0
   47.7358    6.0193   19.5203 C   0  0  0  0  0  0  0  0  0  0  0  0
   51.3552    1.4121   17.5126 C   0  0  0  0  0  0  0  0  0  0  0  0
   52.1707    3.5423   18.2556 C   0  0  0  0  0  0  0  0  0  0  0  0
   53.4684    3.0223   18.3317 C   0  0  0  0  0  0  0  0  0  0  0  0
   52.6519    0.8892   17.5895 C   0  0  0  0  0  0  0  0  0  0  0  0
   53.7084    1.6941   17.9995 C   0  0  0  0  0  0  0  0  0  0  0  0
   50.1012    4.7007   19.3401 H   0  0  0  0  0  0  0  0  0  0  0  0
   46.7334    2.9752   16.1709 H   0  0  0  0  0  0  0  0  0  0  0  0
   46.1630    4.8392   17.6833 H   0  0  0  0  0  0  0  0  0  0  0  0
   47.4321    6.8973   18.9402 H   0  0  0  0  0  0  0  0  0  0  0  0
   46.8958    5.7134   20.1531 H   0  0  0  0  0  0  0  0  0  0  0  0
   48.5538    6.3260   20.1810 H   0  0  0  0  0  0  0  0  0  0  0  0
   50.5622    0.7303   17.2177 H   0  0  0  0  0  0  0  0  0  0  0  0
   52.0456    4.5969   18.4821 H   0  0  0  0  0  0  0  0  0  0  0  0
   54.2914    3.6618   18.6404 H   0  0  0  0  0  0  0  0  0  0  0  0
   52.8278   -0.1517   17.3294 H   0  0  0  0  0  0  0  0  0  0  0  0
   54.7148    1.2881   18.0552 H   0  0  0  0  0  0  0  0  0  0  0  0
  2  1  1  0
  3  1  1  0
  4  2  1  0
  5  3  2  0
  6  5  1  0
  7  1  1  0
  8  2  2  0
  9  5  1  0
 10  7  2  0
 11  7  1  0
 12 11  2  0
 13 10  1  0
 14 12  1  0
  4  6  2  0
 13 14  2  0
  3 15  1  0
  4 16  1  0
  6 17  1  0
  9 18  1  0
  9 19  1  0
  9 20  1  0
 10 21  1  0
 11 22  1  0
 12 23  1  0
 13 24  1  0
 14 25  1  0
M  END
> <Uni-Dock RESULT> 
ENERGY=   -4.297  LOWER_BOUND=    9.549  UPPER_BOUND=   10.296
INTER + INTRA:          -4.297
INTER:                  -4.297
INTRA:                   0.000
UNBOUND:                 0.000

$$$$

     RDKit          3D

 25 26  0  0  0  0  0  0  0  0999 V2000
   44.6546    7.5784   11.9491 N   0  0  0  0  0  0  0  0  0  0  0  0
   45.6689    8.2444   12.6761 C   0  0  0  0  0  0  0  0  0  0  0  0
   43.8236    8.3093   11.0935 C   0  0  0  0  0  0  0  0  0  0  0  0
   45.7876    9.7136   12.4523 C   0  0  0  0  0  0  0  0  0  0  0  0
   43.9367    9.6345   10.9133 C   0  0  0  0  0  0  0  0  0  0  0  0
   44.9588   10.3572   11.6261 C   0  0  0  0  0  0  0  0  0  0  0  0
   44.4757    6.1484   12.1055 C   0  0  0  0  0  0  0  0  0  0  0  0
   46.4429    7.7551   13.4981 O   0  0  0  0  0  0  0  0  0  0  0  0
   43.0591   10.4145    9.9822 C   0  0  0  0  0  0  0  0  0  0  0  0
   45.5433    5.2984   12.4340 C   0  0  0  0  0  0  0  0  0  0  0  0
   43.2152    5.5517   11.9139 C   0  0  0  0  0  0  0  0  0  0  0  0
   43.0322    4.1699   12.0466 C   0  0  0  0  0  0  0  0  0  0  0  0
   45.3632    3.9160   12.5657 C   0  0  0  0  0  0  0  0  0  0  0  0
   44.1078    3.3517   12.3716 C   0  0  0  0  0  0  0  0  0  0  0  0
   43.0838    7.7555   10.5259 H   0  0  0  0  0  0  0  0  0  0  0  0
   46.5680   10.2206   13.0054 H   0  0  0  0  0  0  0  0  0  0  0  0
   45.0519   11.4286   11.4791 H   0  0  0  0  0  0  0  0  0  0  0  0
   42.5091   11.1876   10.5294 H   0  0  0  0  0  0  0  0  0  0  0  0
   43.6579   10.8993    9.2036 H   0  0  0  0  0  0  0  0  0  0  0  0
   42.3229    9.7749    9.4836 H   0  0  0  0  0  0  0  0  0  0  0  0
   46.5516    5.6818   12.5644 H   0  0  0  0  0  0  0  0  0  0  0  0
   42.3337    6.1501   11.7039 H   0  0  0  0  0  0  0  0  0  0  0  0
   42.0446    3.7380   11.9064 H   0  0  0  0  0  0  0  0  0  0  0  0
   46.2120    3.2852   12.8179 H   0  0  0  0  0  0  0  0  0  0  0  0
   43.9686    2.2793   12.4778 H   0  0  0  0  0  0  0  0  0  0  0  0
  2  1  1  0
  3  1  1  0
  4  2  1  0
  5  3  2  0
  6  5  1  0
  7  1  1  0
  8  2  2  0
  9  5  1  0
 10  7  2  0
 11  7  1  0
 12 11  2  0
 13 10  1  0
 14 12  1  0
  4  6  2  0
 13 14  2  0
  3 15  1  0
  4 16  1  0
  6 17  1  0
  9 18  1  0
  9 19  1  0
  9 20  1  0
 10 21  1  0
 11 22  1  0
 12 23  1  0
 13 24  1  0
 14 25  1  0
M  END
> <Uni-Dock RESULT> 
ENERGY=   -3.905  LOWER_BOUND=    4.822  UPPER_BOUND=    6.058
INTER + INTRA:          -3.905
INTER:                  -3.905
INTRA:                   0.000
UNBOUND:                 0.000

$$$$

     RDKit          3D

 25 26  0  0  0  0  0  0  0  0999 V2000
   45.8296    6.9687   12.7640 N   0  0  0  0  0  0  0  0  0  0  0  0
   47.0802    7.0061   13.4240 C   0  0  0  0  0  0  0  0  0  0  0  0
   45.2810    8.1503   12.2546 C   0  0  0  0  0  0  0  0  0  0  0  0
   47.7431    8.3387   13.5108 C   0  0  0  0  0  0  0  0  0  0  0  0
   45.8862    9.3442   12.3525 C   0  0  0  0  0  0  0  0  0  0  0  0
   47.1648    9.4335   13.0099 C   0  0  0  0  0  0  0  0  0  0  0  0
   45.1212    5.7108   12.6321 C   0  0  0  0  0  0  0  0  0  0  0  0
   47.6680    6.0700   13.9646 O   0  0  0  0  0  0  0  0  0  0  0  0
   45.3076   10.6068   11.7899 C   0  0  0  0  0  0  0  0  0  0  0  0
   45.7965    4.4820   12.5673 C   0  0  0  0  0  0  0  0  0  0  0  0
   43.7166    5.6771   12.5451 C   0  0  0  0  0  0  0  0  0  0  0  0
   43.0213    4.4704   12.4018 C   0  0  0  0  0  0  0  0  0  0  0  0
   45.1035    3.2738   12.4223 C   0  0  0  0  0  0  0  0  0  0  0  0
   43.7159    3.2681   12.3392 C   0  0  0  0  0  0  0  0  0  0  0  0
   44.3392    8.0722   11.7224 H   0  0  0  0  0  0  0  0  0  0  0  0
   48.7026    8.3645   14.0114 H   0  0  0  0  0  0  0  0  0  0  0  0
   47.6556   10.3985   13.0876 H   0  0  0  0  0  0  0  0  0  0  0  0
   45.1502   11.3448   12.5837 H   0  0  0  0  0  0  0  0  0  0  0  0
   45.9807   11.0393   11.0418 H   0  0  0  0  0  0  0  0  0  0  0  0
   44.3414   10.4320   11.3044 H   0  0  0  0  0  0  0  0  0  0  0  0
   46.8816    4.4311   12.5944 H   0  0  0  0  0  0  0  0  0  0  0  0
   43.1240    6.5827   12.6346 H   0  0  0  0  0  0  0  0  0  0  0  0
   41.9355    4.4731   12.3510 H   0  0  0  0  0  0  0  0  0  0  0  0
   45.6571    2.3395   12.3722 H   0  0  0  0  0  0  0  0  0  0  0  0
   43.1792    2.3296   12.2305 H   0  0  0  0  0  0  0  0  0  0  0  0
  2  1  1  0
  3  1  1  0
  4  2  1  0
  5  3  2  0
  6  5  1  0
  7  1  1  0
  8  2  2  0
  9  5  1  0
 10  7  2  0
 11  7  1  0
 12 11  2  0
 13 10  1  0
 14 12  1  0
  4  6  2  0
 13 14  2  0
  3 15  1  0
  4 16  1  0
  6 17  1  0
  9 18  1  0
  9 19  1  0
  9 20  1  0
 10 21  1  0
 11 22  1  0
 12 23  1  0
 13 24  1  0
 14 25  1  0
M  END
> <Uni-Dock RESULT> 
ENERGY=   -3.863  LOWER_BOUND=    4.711  UPPER_BOUND=    6.043
INTER + INTRA:          -3.863
INTER:                  -3.863
INTRA:                   0.000
UNBOUND:                 0.000

$$$$

     RDKit          3D

 25 26  0  0  0  0  0  0  0  0999 V2000
   46.2733    6.2749   13.0964 N   0  0  0  0  0  0  0  0  0  0  0  0
   47.2834    5.7813   13.9549 C   0  0  0  0  0  0  0  0  0  0  0  0
   46.3039    7.6132   12.6905 C   0  0  0  0  0  0  0  0  0  0  0  0
   48.3425    6.7507   14.3565 C   0  0  0  0  0  0  0  0  0  0  0  0
   47.2588    8.4757   13.0718 C   0  0  0  0  0  0  0  0  0  0  0  0
   48.3134    8.0196   13.9405 C   0  0  0  0  0  0  0  0  0  0  0  0
   45.2090    5.3953   12.6547 C   0  0  0  0  0  0  0  0  0  0  0  0
   47.3692    4.6518   14.4356 O   0  0  0  0  0  0  0  0  0  0  0  0
   47.3023    9.9044   12.6215 C   0  0  0  0  0  0  0  0  0  0  0  0
   45.3994    4.0116   12.5155 C   0  0  0  0  0  0  0  0  0  0  0  0
   43.9378    5.9047   12.3288 C   0  0  0  0  0  0  0  0  0  0  0  0
   42.9059    5.0682   11.8863 C   0  0  0  0  0  0  0  0  0  0  0  0
   44.3695    3.1731   12.0715 C   0  0  0  0  0  0  0  0  0  0  0  0
   43.1230    3.7014   11.7565 C   0  0  0  0  0  0  0  0  0  0  0  0
   45.5330    7.9417   12.0020 H   0  0  0  0  0  0  0  0  0  0  0  0
   49.1177    6.3697   15.0091 H   0  0  0  0  0  0  0  0  0  0  0  0
   49.0870    8.7163   14.2475 H   0  0  0  0  0  0  0  0  0  0  0  0
   47.2526   10.5803   13.4819 H   0  0  0  0  0  0  0  0  0  0  0  0
   48.2284   10.1075   12.0731 H   0  0  0  0  0  0  0  0  0  0  0  0
   46.4647   10.1493   11.9595 H   0  0  0  0  0  0  0  0  0  0  0  0
   46.3625    3.5505   12.7164 H   0  0  0  0  0  0  0  0  0  0  0  0
   43.7021    6.9571   12.4560 H   0  0  0  0  0  0  0  0  0  0  0  0
   41.9301    5.4872   11.6547 H   0  0  0  0  0  0  0  0  0  0  0  0
   44.5510    2.1059   11.9716 H   0  0  0  0  0  0  0  0  0  0  0  0
   42.3236    3.0491   11.4157 H   0  0  0  0  0  0  0  0  0  0  0  0
  2  1  1  0
  3  1  1  0
  4  2  1  0
  5  3  2  0
  6  5  1  0
  7  1  1  0
  8  2  2  0
  9  5  1  0
 10  7  2  0
 11  7  1  0
 12 11  2  0
 13 10  1  0
 14 12  1  0
  4  6  2  0
 13 14  2  0
  3 15  1  0
  4 16  1  0
  6 17  1  0
  9 18  1  0
  9 19  1  0
  9 20  1  0
 10 21  1  0
 11 22  1  0
 12 23  1  0
 13 24  1  0
 14 25  1  0
M  END
> <Uni-Dock RESULT> 
ENERGY=   -3.760  LOWER_BOUND=    4.570  UPPER_BOUND=    5.901
INTER + INTRA:          -3.760
INTER:                  -3.760
INTRA:                   0.000
UNBOUND:                 0.000

$$$$

     RDKit          3D

 25 26  0  0  0  0  0  0  0  0999 V2000
   46.1468    6.6581   13.1253 N   0  0  0  0  0  0  0  0  0  0  0  0
   45.7985    7.9767   12.7502 C   0  0  0  0  0  0  0  0  0  0  0  0
   47.3463    6.4270   13.8069 C   0  0  0  0  0  0  0  0  0  0  0  0
   46.7571    9.0504   13.1388 C   0  0  0  0  0  0  0  0  0  0  0  0
   48.2041    7.4047   14.1381 C   0  0  0  0  0  0  0  0  0  0  0  0
   47.8912    8.7655   13.7843 C   0  0  0  0  0  0  0  0  0  0  0  0
   45.2662    5.5564   12.7900 C   0  0  0  0  0  0  0  0  0  0  0  0
   44.8107    8.3351   12.1099 O   0  0  0  0  0  0  0  0  0  0  0  0
   49.4798    7.1597   14.8853 C   0  0  0  0  0  0  0  0  0  0  0  0
   43.8787    5.7273   12.6643 C   0  0  0  0  0  0  0  0  0  0  0  0
   45.7739    4.2582   12.5939 C   0  0  0  0  0  0  0  0  0  0  0  0
   44.9324    3.1827   12.2849 C   0  0  0  0  0  0  0  0  0  0  0  0
   43.0348    4.6529   12.3570 C   0  0  0  0  0  0  0  0  0  0  0  0
   43.5616    3.3805   12.1677 C   0  0  0  0  0  0  0  0  0  0  0  0
   47.5577    5.4074   14.1098 H   0  0  0  0  0  0  0  0  0  0  0  0
   46.4862   10.0596   12.8558 H   0  0  0  0  0  0  0  0  0  0  0  0
   48.5836    9.5568   14.0538 H   0  0  0  0  0  0  0  0  0  0  0  0
   50.3410    7.4880   14.2935 H   0  0  0  0  0  0  0  0  0  0  0  0
   49.4816    7.7064   15.8344 H   0  0  0  0  0  0  0  0  0  0  0  0
   49.6210    6.0979   15.1143 H   0  0  0  0  0  0  0  0  0  0  0  0
   43.4103    6.6930   12.8339 H   0  0  0  0  0  0  0  0  0  0  0  0
   46.8406    4.0584   12.6287 H   0  0  0  0  0  0  0  0  0  0  0  0
   45.3536    2.1934   12.1252 H   0  0  0  0  0  0  0  0  0  0  0  0
   41.9639    4.8186   12.2699 H   0  0  0  0  0  0  0  0  0  0  0  0
   42.9061    2.5484   11.9256 H   0  0  0  0  0  0  0  0  0  0  0  0
  2  1  1  0
  3  1  1  0
  4  2  1  0
  5  3  2  0
  6  5  1  0
  7  1  1  0
  8  2  2  0
  9  5  1  0
 10  7  2  0
 11  7  1  0
 12 11  2  0
 13 10  1  0
 14 12  1  0
  4  6  2  0
 13 14  2  0
  3 15  1  0
  4 16  1  0
  6 17  1  0
  9 18  1  0
  9 19  1  0
  9 20  1  0
 10 21  1  0
 11 22  1  0
 12 23  1  0
 13 24  1  0
 14 25  1  0
M  END
> <Uni-Dock RESULT> 
ENERGY=   -3.757  LOWER_BOUND=    4.690  UPPER_BOUND=    6.324
INTER + INTRA:          -3.757
INTER:                  -3.757
INTRA:                   0.000
UNBOUND:                 0.000

$$$$

     RDKit          3D

 25 26  0  0  0  0  0  0  0  0999 V2000
   46.7208    5.0424   13.8889 N   0  0  0  0  0  0  0  0  0  0  0  0
   47.6029    6.1468   13.8328 C   0  0  0  0  0  0  0  0  0  0  0  0
   46.7178    4.2164   15.0178 C   0  0  0  0  0  0  0  0  0  0  0  0
   48.4727    6.3602   15.0247 C   0  0  0  0  0  0  0  0  0  0  0  0
   47.5169    4.4163   16.0774 C   0  0  0  0  0  0  0  0  0  0  0  0
   48.4284    5.5316   16.0714 C   0  0  0  0  0  0  0  0  0  0  0  0
   45.8372    4.7678   12.7729 C   0  0  0  0  0  0  0  0  0  0  0  0
   47.7586    6.9320   12.8983 O   0  0  0  0  0  0  0  0  0  0  0  0
   47.5001    3.5428   17.2950 C   0  0  0  0  0  0  0  0  0  0  0  0
   45.3637    5.7877   11.9328 C   0  0  0  0  0  0  0  0  0  0  0  0
   45.4031    3.4570   12.4994 C   0  0  0  0  0  0  0  0  0  0  0  0
   44.5375    3.1803   11.4342 C   0  0  0  0  0  0  0  0  0  0  0  0
   44.4966    5.5139   10.8679 C   0  0  0  0  0  0  0  0  0  0  0  0
   44.0832    4.2103   10.6188 C   0  0  0  0  0  0  0  0  0  0  0  0
   46.0001    3.4036   15.0374 H   0  0  0  0  0  0  0  0  0  0  0  0
   49.1432    7.2091   14.9823 H   0  0  0  0  0  0  0  0  0  0  0  0
   49.0734    5.6949   16.9290 H   0  0  0  0  0  0  0  0  0  0  0  0
   48.4832    3.0870   17.4547 H   0  0  0  0  0  0  0  0  0  0  0  0
   47.2391    4.1263   18.1844 H   0  0  0  0  0  0  0  0  0  0  0  0
   46.7698    2.7314   17.2051 H   0  0  0  0  0  0  0  0  0  0  0  0
   45.6286    6.8279   12.1017 H   0  0  0  0  0  0  0  0  0  0  0  0
   45.7640    2.6111   13.0768 H   0  0  0  0  0  0  0  0  0  0  0  0
   44.2295    2.1566   11.2379 H   0  0  0  0  0  0  0  0  0  0  0  0
   44.1457    6.3274   10.2379 H   0  0  0  0  0  0  0  0  0  0  0  0
   43.4134    3.9986    9.7899 H   0  0  0  0  0  0  0  0  0  0  0  0
  2  1  1  0
  3  1  1  0
  4  2  1  0
  5  3  2  0
  6  5  1  0
  7  1  1  0
  8  2  2  0
  9  5  1  0
 10  7  2  0
 11  7  1  0
 12 11  2  0
 13 10  1  0
 14 12  1  0
  4  6  2  0
 13 14  2  0
  3 15  1  0
  4 16  1  0
  6 17  1  0
  9 18  1  0
  9 19  1  0
  9 20  1  0
 10 21  1  0
 11 22  1  0
 12 23  1  0
 13 24  1  0
 14 25  1  0
M  END
> <Uni-Dock RESULT> 
ENERGY=   -3.590  LOWER_BOUND=    4.503  UPPER_BOUND=    6.213
INTER + INTRA:          -3.590
INTER:                  -3.590
INTRA:                   0.000
UNBOUND:                 0.000

$$$$
