
     RDKit          3D

 25 26  0  0  0  0  0  0  0  0999 V2000
   45.4232    3.4463    9.0604 N   0  0  0  0  0  0  0  0  0  0  0  0
   45.4532    4.8273    9.3654 C   0  0  0  0  0  0  0  0  0  0  0  0
   44.6838    2.5757    9.8677 C   0  0  0  0  0  0  0  0  0  0  0  0
   44.6553    5.2613   10.5478 C   0  0  0  0  0  0  0  0  0  0  0  0
   43.9807    2.9821   10.9363 C   0  0  0  0  0  0  0  0  0  0  0  0
   43.9739    4.3798   11.2845 C   0  0  0  0  0  0  0  0  0  0  0  0
   46.1682    2.9426    7.9233 C   0  0  0  0  0  0  0  0  0  0  0  0
   46.0898    5.7068    8.7864 O   0  0  0  0  0  0  0  0  0  0  0  0
   43.1729    2.0523   11.7898 C   0  0  0  0  0  0  0  0  0  0  0  0
   46.6545    1.6218    7.9045 C   0  0  0  0  0  0  0  0  0  0  0  0
   46.4211    3.7344    6.7921 C   0  0  0  0  0  0  0  0  0  0  0  0
   47.1267    3.2326    5.6917 C   0  0  0  0  0  0  0  0  0  0  0  0
   47.3619    1.1183    6.8061 C   0  0  0  0  0  0  0  0  0  0  0  0
   47.5968    1.9244    5.6985 C   0  0  0  0  0  0  0  0  0  0  0  0
   44.6560    1.5311    9.5774 H   0  0  0  0  0  0  0  0  0  0  0  0
   44.6750    6.3193   10.7764 H   0  0  0  0  0  0  0  0  0  0  0  0
   43.4038    4.7093   12.1474 H   0  0  0  0  0  0  0  0  0  0  0  0
   42.1163    2.3409   11.7809 H   0  0  0  0  0  0  0  0  0  0  0  0
   43.5298    2.0728   12.8252 H   0  0  0  0  0  0  0  0  0  0  0  0
   43.2364    1.0168   11.4384 H   0  0  0  0  0  0  0  0  0  0  0  0
   46.5382    0.9656    8.7617 H   0  0  0  0  0  0  0  0  0  0  0  0
   46.0486    4.7526    6.7201 H   0  0  0  0  0  0  0  0  0  0  0  0
   47.3029    3.8712    4.8297 H   0  0  0  0  0  0  0  0  0  0  0  0
   47.7376    0.0984    6.8247 H   0  0  0  0  0  0  0  0  0  0  0  0
   48.1475    1.5375    4.8455 H   0  0  0  0  0  0  0  0  0  0  0  0
  2  1  1  0
  3  1  1  0
  4  2  1  0
  5  3  2  0
  6  5  1  0
  7  1  1  0
  8  2  2  0
  9  5  1  0
 10  7  2  0
 11  7  1  0
 12 11  2  0
 13 10  1  0
 14 12  1  0
  4  6  2  0
 13 14  2  0
  3 15  1  0
  4 16  1  0
  6 17  1  0
  9 18  1  0
  9 19  1  0
  9 20  1  0
 10 21  1  0
 11 22  1  0
 12 23  1  0
 13 24  1  0
 14 25  1  0
M  END
> <Uni-Dock RESULT> 
ENERGY=   -5.424  LOWER_BOUND=    0.000  UPPER_BOUND=    0.000
INTER + INTRA:          -5.424
INTER:                  -5.424
INTRA:                   0.000
UNBOUND:                 0.000

$$$$

     RDKit          3D

 25 26  0  0  0  0  0  0  0  0999 V2000
   45.5594    3.1998    9.0528 N   0  0  0  0  0  0  0  0  0  0  0  0
   46.0033    4.1741    8.1282 C   0  0  0  0  0  0  0  0  0  0  0  0
   45.8042    1.8457    8.8015 C   0  0  0  0  0  0  0  0  0  0  0  0
   46.7352    3.6667    6.9325 C   0  0  0  0  0  0  0  0  0  0  0  0
   46.4544    1.4055    7.7130 C   0  0  0  0  0  0  0  0  0  0  0  0
   46.9324    2.3591    6.7449 C   0  0  0  0  0  0  0  0  0  0  0  0
   44.8440    3.6101   10.2450 C   0  0  0  0  0  0  0  0  0  0  0  0
   45.8249    5.3904    8.1810 O   0  0  0  0  0  0  0  0  0  0  0  0
   46.7337   -0.0436    7.4534 C   0  0  0  0  0  0  0  0  0  0  0  0
   43.9092    2.7549   10.8582 C   0  0  0  0  0  0  0  0  0  0  0  0
   45.0610    4.8592   10.8478 C   0  0  0  0  0  0  0  0  0  0  0  0
   44.3774    5.2389   12.0093 C   0  0  0  0  0  0  0  0  0  0  0  0
   43.2230    3.1330   12.0187 C   0  0  0  0  0  0  0  0  0  0  0  0
   43.4587    4.3756   12.5950 C   0  0  0  0  0  0  0  0  0  0  0  0
   45.4813    1.1342    9.5535 H   0  0  0  0  0  0  0  0  0  0  0  0
   47.0790    4.4142    6.2288 H   0  0  0  0  0  0  0  0  0  0  0  0
   47.4601    2.0037    5.8653 H   0  0  0  0  0  0  0  0  0  0  0  0
   47.8123   -0.2227    7.3887 H   0  0  0  0  0  0  0  0  0  0  0  0
   46.2717   -0.3618    6.5126 H   0  0  0  0  0  0  0  0  0  0  0  0
   46.3387   -0.6843    8.2492 H   0  0  0  0  0  0  0  0  0  0  0  0
   43.6546    1.7930   10.4235 H   0  0  0  0  0  0  0  0  0  0  0  0
   45.7913    5.5591   10.4508 H   0  0  0  0  0  0  0  0  0  0  0  0
   44.5710    6.2123   12.4528 H   0  0  0  0  0  0  0  0  0  0  0  0
   42.4964    2.4575   12.4631 H   0  0  0  0  0  0  0  0  0  0  0  0
   42.9260    4.6730   13.4942 H   0  0  0  0  0  0  0  0  0  0  0  0
  2  1  1  0
  3  1  1  0
  4  2  1  0
  5  3  2  0
  6  5  1  0
  7  1  1  0
  8  2  2  0
  9  5  1  0
 10  7  2  0
 11  7  1  0
 12 11  2  0
 13 10  1  0
 14 12  1  0
  4  6  2  0
 13 14  2  0
  3 15  1  0
  4 16  1  0
  6 17  1  0
  9 18  1  0
  9 19  1  0
  9 20  1  0
 10 21  1  0
 11 22  1  0
 12 23  1  0
 13 24  1  0
 14 25  1  0
M  END
> <Uni-Dock RESULT> 
ENERGY=   -4.719  LOWER_BOUND=    1.014  UPPER_BOUND=    4.850
INTER + INTRA:          -4.719
INTER:                  -4.719
INTRA:                   0.000
UNBOUND:                 0.000

$$$$

     RDKit          3D

 25 26  0  0  0  0  0  0  0  0999 V2000
   45.0555    3.8182    9.3895 N   0  0  0  0  0  0  0  0  0  0  0  0
   44.7441    2.4561    9.6107 C   0  0  0  0  0  0  0  0  0  0  0  0
   45.8539    4.1768    8.2985 C   0  0  0  0  0  0  0  0  0  0  0  0
   45.2927    1.4832    8.6231 C   0  0  0  0  0  0  0  0  0  0  0  0
   46.3498    3.2858    7.4257 C   0  0  0  0  0  0  0  0  0  0  0  0
   46.0555    1.8870    7.6038 C   0  0  0  0  0  0  0  0  0  0  0  0
   44.5566    4.8291   10.3010 C   0  0  0  0  0  0  0  0  0  0  0  0
   44.1002    1.9788   10.5443 O   0  0  0  0  0  0  0  0  0  0  0  0
   47.1890    3.6718    6.2458 C   0  0  0  0  0  0  0  0  0  0  0  0
   45.2572    6.0338   10.4992 C   0  0  0  0  0  0  0  0  0  0  0  0
   43.3549    4.6635   11.0074 C   0  0  0  0  0  0  0  0  0  0  0  0
   42.8730    5.6536   11.8722 C   0  0  0  0  0  0  0  0  0  0  0  0
   44.7783    7.0247   11.3647 C   0  0  0  0  0  0  0  0  0  0  0  0
   43.5844    6.8345   12.0506 C   0  0  0  0  0  0  0  0  0  0  0  0
   46.0373    5.2342    8.1428 H   0  0  0  0  0  0  0  0  0  0  0  0
   45.0488    0.4418    8.7908 H   0  0  0  0  0  0  0  0  0  0  0  0
   46.4546    1.1663    6.8970 H   0  0  0  0  0  0  0  0  0  0  0  0
   46.7066    3.3631    5.3122 H   0  0  0  0  0  0  0  0  0  0  0  0
   48.1737    3.1953    6.3020 H   0  0  0  0  0  0  0  0  0  0  0  0
   47.3477    4.7543    6.1944 H   0  0  0  0  0  0  0  0  0  0  0  0
   46.2166    6.2132   10.0235 H   0  0  0  0  0  0  0  0  0  0  0  0
   42.7426    3.7748   10.8806 H   0  0  0  0  0  0  0  0  0  0  0  0
   41.9370    5.4952   12.4020 H   0  0  0  0  0  0  0  0  0  0  0  0
   45.3473    7.9396   11.5089 H   0  0  0  0  0  0  0  0  0  0  0  0
   43.2113    7.6004   12.7249 H   0  0  0  0  0  0  0  0  0  0  0  0
  2  1  1  0
  3  1  1  0
  4  2  1  0
  5  3  2  0
  6  5  1  0
  7  1  1  0
  8  2  2  0
  9  5  1  0
 10  7  2  0
 11  7  1  0
 12 11  2  0
 13 10  1  0
 14 12  1  0
  4  6  2  0
 13 14  2  0
  3 15  1  0
  4 16  1  0
  6 17  1  0
  9 18  1  0
  9 19  1  0
  9 20  1  0
 10 21  1  0
 11 22  1  0
 12 23  1  0
 13 24  1  0
 14 25  1  0
M  END
> <Uni-Dock RESULT> 
ENERGY=   -4.404  LOWER_BOUND=    1.740  UPPER_BOUND=    5.457
INTER + INTRA:          -4.404
INTER:                  -4.404
INTRA:                   0.000
UNBOUND:                 0.000

$$$$

     RDKit          3D

 25 26  0  0  0  0  0  0  0  0999 V2000
   49.7423    3.2959   17.7840 N   0  0  0  0  0  0  0  0  0  0  0  0
   48.8070    2.7675   16.8636 C   0  0  0  0  0  0  0  0  0  0  0  0
   49.3674    4.3513   18.6220 C   0  0  0  0  0  0  0  0  0  0  0  0
   47.4493    3.3836   16.8727 C   0  0  0  0  0  0  0  0  0  0  0  0
   48.1437    4.9024   18.6082 C   0  0  0  0  0  0  0  0  0  0  0  0
   47.1534    4.3950   17.6933 C   0  0  0  0  0  0  0  0  0  0  0  0
   51.0837    2.7494   17.8429 C   0  0  0  0  0  0  0  0  0  0  0  0
   48.9959    1.8800   16.0326 O   0  0  0  0  0  0  0  0  0  0  0  0
   47.7361    6.0200   19.5193 C   0  0  0  0  0  0  0  0  0  0  0  0
   52.1709    3.5430   18.2547 C   0  0  0  0  0  0  0  0  0  0  0  0
   51.3555    1.4123   17.5128 C   0  0  0  0  0  0  0  0  0  0  0  0
   52.6522    0.8896   17.5897 C   0  0  0  0  0  0  0  0  0  0  0  0
   53.4687    3.0231   18.3307 C   0  0  0  0  0  0  0  0  0  0  0  0
   53.7088    1.6948   17.9991 C   0  0  0  0  0  0  0  0  0  0  0  0
   50.1016    4.7016   19.3391 H   0  0  0  0  0  0  0  0  0  0  0  0
   46.7332    2.9742   16.1714 H   0  0  0  0  0  0  0  0  0  0  0  0
   46.1629    4.8390   17.6832 H   0  0  0  0  0  0  0  0  0  0  0  0
   46.8963    5.7144   20.1524 H   0  0  0  0  0  0  0  0  0  0  0  0
   47.4321    6.8979   18.9389 H   0  0  0  0  0  0  0  0  0  0  0  0
   48.5542    6.3272   20.1797 H   0  0  0  0  0  0  0  0  0  0  0  0
   52.0458    4.5976   18.4807 H   0  0  0  0  0  0  0  0  0  0  0  0
   50.5624    0.7303   17.2184 H   0  0  0  0  0  0  0  0  0  0  0  0
   52.8282   -0.1513   17.3301 H   0  0  0  0  0  0  0  0  0  0  0  0
   54.2917    3.6628   18.6390 H   0  0  0  0  0  0  0  0  0  0  0  0
   54.7152    1.2890   18.0547 H   0  0  0  0  0  0  0  0  0  0  0  0
  2  1  1  0
  3  1  1  0
  4  2  1  0
  5  3  2  0
  6  5  1  0
  7  1  1  0
  8  2  2  0
  9  5  1  0
 10  7  2  0
 11  7  1  0
 12 11  2  0
 13 10  1  0
 14 12  1  0
  4  6  2  0
 13 14  2  0
  3 15  1  0
  4 16  1  0
  6 17  1  0
  9 18  1  0
  9 19  1  0
  9 20  1  0
 10 21  1  0
 11 22  1  0
 12 23  1  0
 13 24  1  0
 14 25  1  0
M  END
> <Uni-Dock RESULT> 
ENERGY=   -4.297  LOWER_BOUND=    9.585  UPPER_BOUND=   10.593
INTER + INTRA:          -4.297
INTER:                  -4.297
INTRA:                   0.000
UNBOUND:                 0.000

$$$$

     RDKit          3D

 25 26  0  0  0  0  0  0  0  0999 V2000
   44.4637    6.4704   12.2497 N   0  0  0  0  0  0  0  0  0  0  0  0
   43.2513    5.7585   12.0930 C   0  0  0  0  0  0  0  0  0  0  0  0
   45.5927    5.8121   12.7483 C   0  0  0  0  0  0  0  0  0  0  0  0
   43.2787    4.3151   12.4654 C   0  0  0  0  0  0  0  0  0  0  0  0
   45.5962    4.5143   13.0902 C   0  0  0  0  0  0  0  0  0  0  0  0
   44.3878    3.7442   12.9428 C   0  0  0  0  0  0  0  0  0  0  0  0
   44.5234    7.8774   11.9054 C   0  0  0  0  0  0  0  0  0  0  0  0
   42.1673    6.2025   11.7164 O   0  0  0  0  0  0  0  0  0  0  0  0
   46.8108    3.8043   13.6060 C   0  0  0  0  0  0  0  0  0  0  0  0
   45.4303    8.7415   12.5474 C   0  0  0  0  0  0  0  0  0  0  0  0
   43.7011    8.4342   10.9133 C   0  0  0  0  0  0  0  0  0  0  0  0
   43.7789    9.7910   10.5761 C   0  0  0  0  0  0  0  0  0  0  0  0
   45.5088   10.0989   12.2133 C   0  0  0  0  0  0  0  0  0  0  0  0
   44.6830   10.6233   11.2258 C   0  0  0  0  0  0  0  0  0  0  0  0
   46.5117    6.3839   12.8170 H   0  0  0  0  0  0  0  0  0  0  0  0
   42.3514    3.7706   12.3396 H   0  0  0  0  0  0  0  0  0  0  0  0
   44.3907    2.6940   13.2173 H   0  0  0  0  0  0  0  0  0  0  0  0
   47.0828    2.9752   12.9440 H   0  0  0  0  0  0  0  0  0  0  0  0
   46.6248    3.4023   14.6078 H   0  0  0  0  0  0  0  0  0  0  0  0
   47.6763    4.4723   13.6731 H   0  0  0  0  0  0  0  0  0  0  0  0
   46.0650    8.3931   13.3565 H   0  0  0  0  0  0  0  0  0  0  0  0
   43.0000    7.8229   10.3515 H   0  0  0  0  0  0  0  0  0  0  0  0
   43.1298   10.1900    9.8008 H   0  0  0  0  0  0  0  0  0  0  0  0
   46.2092   10.7460   12.7352 H   0  0  0  0  0  0  0  0  0  0  0  0
   44.7398   11.6768   10.9659 H   0  0  0  0  0  0  0  0  0  0  0  0
  2  1  1  0
  3  1  1  0
  4  2  1  0
  5  3  2  0
  6  5  1  0
  7  1  1  0
  8  2  2  0
  9  5  1  0
 10  7  2  0
 11  7  1  0
 12 11  2  0
 13 10  1  0
 14 12  1  0
  4  6  2  0
 13 14  2  0
  3 15  1  0
  4 16  1  0
  6 17  1  0
  9 18  1  0
  9 19  1  0
  9 20  1  0
 10 21  1  0
 11 22  1  0
 12 23  1  0
 13 24  1  0
 14 25  1  0
M  END
> <Uni-Dock RESULT> 
ENERGY=   -3.930  LOWER_BOUND=    5.116  UPPER_BOUND=    6.467
INTER + INTRA:          -3.930
INTER:                  -3.930
INTRA:                   0.000
UNBOUND:                 0.000

$$$$

     RDKit          3D

 25 26  0  0  0  0  0  0  0  0999 V2000
   45.2727    5.9573   11.3681 N   0  0  0  0  0  0  0  0  0  0  0  0
   44.1259    5.5186   12.0707 C   0  0  0  0  0  0  0  0  0  0  0  0
   45.6026    5.3653   10.1445 C   0  0  0  0  0  0  0  0  0  0  0  0
   43.3254    4.4403   11.4231 C   0  0  0  0  0  0  0  0  0  0  0  0
   44.8769    4.3866    9.5817 C   0  0  0  0  0  0  0  0  0  0  0  0
   43.6961    3.9096   10.2548 C   0  0  0  0  0  0  0  0  0  0  0  0
   46.1031    7.0063   11.9266 C   0  0  0  0  0  0  0  0  0  0  0  0
   43.7322    5.9016   13.1718 O   0  0  0  0  0  0  0  0  0  0  0  0
   45.2194    3.7658    8.2616 C   0  0  0  0  0  0  0  0  0  0  0  0
   47.4772    7.0765   11.6297 C   0  0  0  0  0  0  0  0  0  0  0  0
   45.5776    8.0010   12.7662 C   0  0  0  0  0  0  0  0  0  0  0  0
   46.3850    9.0199   13.2864 C   0  0  0  0  0  0  0  0  0  0  0  0
   48.2870    8.0932   12.1500 C   0  0  0  0  0  0  0  0  0  0  0  0
   47.7397    9.0663   12.9779 C   0  0  0  0  0  0  0  0  0  0  0  0
   46.4674    5.7566    9.6200 H   0  0  0  0  0  0  0  0  0  0  0  0
   42.4451    4.1097   11.9597 H   0  0  0  0  0  0  0  0  0  0  0  0
   43.1076    3.1194    9.7990 H   0  0  0  0  0  0  0  0  0  0  0  0
   44.4055    3.9131    7.5436 H   0  0  0  0  0  0  0  0  0  0  0  0
   45.3915    2.6900    8.3756 H   0  0  0  0  0  0  0  0  0  0  0  0
   46.1261    4.2017    7.8285 H   0  0  0  0  0  0  0  0  0  0  0  0
   47.9634    6.3162   11.0258 H   0  0  0  0  0  0  0  0  0  0  0  0
   44.5199    8.0314   13.0131 H   0  0  0  0  0  0  0  0  0  0  0  0
   45.9460    9.7770   13.9312 H   0  0  0  0  0  0  0  0  0  0  0  0
   49.3481    8.1149   11.9147 H   0  0  0  0  0  0  0  0  0  0  0  0
   48.3659    9.8553   13.3853 H   0  0  0  0  0  0  0  0  0  0  0  0
  2  1  1  0
  3  1  1  0
  4  2  1  0
  5  3  2  0
  6  5  1  0
  7  1  1  0
  8  2  2  0
  9  5  1  0
 10  7  2  0
 11  7  1  0
 12 11  2  0
 13 10  1  0
 14 12  1  0
  4  6  2  0
 13 14  2  0
  3 15  1  0
  4 16  1  0
  6 17  1  0
  9 18  1  0
  9 19  1  0
  9 20  1  0
 10 21  1  0
 11 22  1  0
 12 23  1  0
 13 24  1  0
 14 25  1  0
M  END
> <Uni-Dock RESULT> 
ENERGY=   -3.872  LOWER_BOUND=    3.321  UPPER_BOUND=    5.909
INTER + INTRA:          -3.872
INTER:                  -3.872
INTRA:                   0.000
UNBOUND:                 0.000

$$$$

     RDKit          3D

 25 26  0  0  0  0  0  0  0  0999 V2000
   46.3024    6.1325   13.1964 N   0  0  0  0  0  0  0  0  0  0  0  0
   47.2705    5.6174   14.0901 C   0  0  0  0  0  0  0  0  0  0  0  0
   46.3726    7.4714   12.7975 C   0  0  0  0  0  0  0  0  0  0  0  0
   48.3314    6.5658   14.5350 C   0  0  0  0  0  0  0  0  0  0  0  0
   47.3282    8.3149   13.2177 C   0  0  0  0  0  0  0  0  0  0  0  0
   48.3410    7.8364   14.1234 C   0  0  0  0  0  0  0  0  0  0  0  0
   45.2394    5.2742   12.7117 C   0  0  0  0  0  0  0  0  0  0  0  0
   47.3176    4.4850   14.5692 O   0  0  0  0  0  0  0  0  0  0  0  0
   47.4147    9.7439   12.7752 C   0  0  0  0  0  0  0  0  0  0  0  0
   43.9909    5.8080   12.3406 C   0  0  0  0  0  0  0  0  0  0  0  0
   45.4095    3.8876   12.5742 C   0  0  0  0  0  0  0  0  0  0  0  0
   44.3820    3.0698   12.0885 C   0  0  0  0  0  0  0  0  0  0  0  0
   42.9613    4.9921   11.8564 C   0  0  0  0  0  0  0  0  0  0  0  0
   43.1579    3.6220   11.7292 C   0  0  0  0  0  0  0  0  0  0  0  0
   45.6342    7.8163   12.0821 H   0  0  0  0  0  0  0  0  0  0  0  0
   49.0745    6.1683   15.2146 H   0  0  0  0  0  0  0  0  0  0  0  0
   49.1153    8.5177   14.4620 H   0  0  0  0  0  0  0  0  0  0  0  0
   48.3642    9.9319   12.2627 H   0  0  0  0  0  0  0  0  0  0  0  0
   47.3452   10.4179   13.6359 H   0  0  0  0  0  0  0  0  0  0  0  0
   46.6071   10.0065   12.0834 H   0  0  0  0  0  0  0  0  0  0  0  0
   43.7700    6.8640   12.4632 H   0  0  0  0  0  0  0  0  0  0  0  0
   46.3560    3.4082   12.8091 H   0  0  0  0  0  0  0  0  0  0  0  0
   44.5475    1.9998   11.9911 H   0  0  0  0  0  0  0  0  0  0  0  0
   42.0026    5.4298   11.5901 H   0  0  0  0  0  0  0  0  0  0  0  0
   42.3601    2.9857   11.3561 H   0  0  0  0  0  0  0  0  0  0  0  0
  2  1  1  0
  3  1  1  0
  4  2  1  0
  5  3  2  0
  6  5  1  0
  7  1  1  0
  8  2  2  0
  9  5  1  0
 10  7  2  0
 11  7  1  0
 12 11  2  0
 13 10  1  0
 14 12  1  0
  4  6  2  0
 13 14  2  0
  3 15  1  0
  4 16  1  0
  6 17  1  0
  9 18  1  0
  9 19  1  0
  9 20  1  0
 10 21  1  0
 11 22  1  0
 12 23  1  0
 13 24  1  0
 14 25  1  0
M  END
> <Uni-Dock RESULT> 
ENERGY=   -3.793  LOWER_BOUND=    4.682  UPPER_BOUND=    6.501
INTER + INTRA:          -3.793
INTER:                  -3.793
INTRA:                   0.000
UNBOUND:                 0.000

$$$$

     RDKit          3D

 25 26  0  0  0  0  0  0  0  0999 V2000
   46.1437    6.6544   13.1265 N   0  0  0  0  0  0  0  0  0  0  0  0
   45.7943    7.9734   12.7532 C   0  0  0  0  0  0  0  0  0  0  0  0
   47.3431    6.4234   13.8080 C   0  0  0  0  0  0  0  0  0  0  0  0
   46.7521    9.0473   13.1435 C   0  0  0  0  0  0  0  0  0  0  0  0
   48.2000    7.4012   14.1409 C   0  0  0  0  0  0  0  0  0  0  0  0
   47.8862    8.7623   13.7888 C   0  0  0  0  0  0  0  0  0  0  0  0
   45.2639    5.5526   12.7893 C   0  0  0  0  0  0  0  0  0  0  0  0
   44.8065    8.3321   12.1130 O   0  0  0  0  0  0  0  0  0  0  0  0
   49.4756    7.1561   14.8880 C   0  0  0  0  0  0  0  0  0  0  0  0
   45.7726    4.2551   12.5915 C   0  0  0  0  0  0  0  0  0  0  0  0
   43.8762    5.7226   12.6634 C   0  0  0  0  0  0  0  0  0  0  0  0
   43.0333    4.6481   12.3545 C   0  0  0  0  0  0  0  0  0  0  0  0
   44.9320    3.1793   12.2808 C   0  0  0  0  0  0  0  0  0  0  0  0
   43.5611    3.3763   12.1635 C   0  0  0  0  0  0  0  0  0  0  0  0
   47.5551    5.4035   14.1095 H   0  0  0  0  0  0  0  0  0  0  0  0
   46.4803   10.0567   12.8618 H   0  0  0  0  0  0  0  0  0  0  0  0
   48.5780    9.5538   14.0596 H   0  0  0  0  0  0  0  0  0  0  0  0
   49.4769    7.7015   15.8379 H   0  0  0  0  0  0  0  0  0  0  0  0
   50.3369    7.4859   14.2970 H   0  0  0  0  0  0  0  0  0  0  0  0
   49.6177    6.0941   15.1156 H   0  0  0  0  0  0  0  0  0  0  0  0
   46.8394    4.0560   12.6263 H   0  0  0  0  0  0  0  0  0  0  0  0
   43.4072    6.6878   12.8343 H   0  0  0  0  0  0  0  0  0  0  0  0
   41.9623    4.8131   12.2673 H   0  0  0  0  0  0  0  0  0  0  0  0
   45.3540    2.1906   12.1199 H   0  0  0  0  0  0  0  0  0  0  0  0
   42.9063    2.5441   11.9201 H   0  0  0  0  0  0  0  0  0  0  0  0
  2  1  1  0
  3  1  1  0
  4  2  1  0
  5  3  2  0
  6  5  1  0
  7  1  1  0
  8  2  2  0
  9  5  1  0
 10  7  2  0
 11  7  1  0
 12 11  2  0
 13 10  1  0
 14 12  1  0
  4  6  2  0
 13 14  2  0
  3 15  1  0
  4 16  1  0
  6 17  1  0
  9 18  1  0
  9 19  1  0
  9 20  1  0
 10 21  1  0
 11 22  1  0
 12 23  1  0
 13 24  1  0
 14 25  1  0
M  END
> <Uni-Dock RESULT> 
ENERGY=   -3.760  LOWER_BOUND=    4.577  UPPER_BOUND=    6.350
INTER + INTRA:          -3.760
INTER:                  -3.760
INTRA:                   0.000
UNBOUND:                 0.000

$$$$

     RDKit          3D

 25 26  0  0  0  0  0  0  0  0999 V2000
   47.6708    6.5545   20.8495 N   0  0  0  0  0  0  0  0  0  0  0  0
   47.7440    6.2382   22.2264 C   0  0  0  0  0  0  0  0  0  0  0  0
   47.4720    7.8815   20.4545 C   0  0  0  0  0  0  0  0  0  0  0  0
   47.6181    7.3811   23.1755 C   0  0  0  0  0  0  0  0  0  0  0  0
   47.3484    8.8969   21.3234 C   0  0  0  0  0  0  0  0  0  0  0  0
   47.4226    8.6273   22.7364 C   0  0  0  0  0  0  0  0  0  0  0  0
   47.7892    5.5013   19.8604 C   0  0  0  0  0  0  0  0  0  0  0  0
   47.8657    5.1228   22.7315 O   0  0  0  0  0  0  0  0  0  0  0  0
   47.1549   10.3212   20.8997 C   0  0  0  0  0  0  0  0  0  0  0  0
   47.1699    5.6178   18.6018 C   0  0  0  0  0  0  0  0  0  0  0  0
   48.5340    4.3363   20.1023 C   0  0  0  0  0  0  0  0  0  0  0  0
   48.6564    3.3327   19.1336 C   0  0  0  0  0  0  0  0  0  0  0  0
   47.2893    4.6149   17.6320 C   0  0  0  0  0  0  0  0  0  0  0  0
   48.0344    3.4722   17.8983 C   0  0  0  0  0  0  0  0  0  0  0  0
   47.4601    8.0868   19.3897 H   0  0  0  0  0  0  0  0  0  0  0  0
   47.6798    7.1379   24.2286 H   0  0  0  0  0  0  0  0  0  0  0  0
   47.3248    9.4485   23.4395 H   0  0  0  0  0  0  0  0  0  0  0  0
   47.9766   10.9469   21.2644 H   0  0  0  0  0  0  0  0  0  0  0  0
   46.2142   10.7164   21.2982 H   0  0  0  0  0  0  0  0  0  0  0  0
   47.1206   10.4217   19.8096 H   0  0  0  0  0  0  0  0  0  0  0  0
   46.5396    6.4682   18.3598 H   0  0  0  0  0  0  0  0  0  0  0  0
   49.0674    4.1904   21.0378 H   0  0  0  0  0  0  0  0  0  0  0  0
   49.2433    2.4440   19.3517 H   0  0  0  0  0  0  0  0  0  0  0  0
   46.7890    4.7256   16.6734 H   0  0  0  0  0  0  0  0  0  0  0  0
   48.1270    2.6909   17.1488 H   0  0  0  0  0  0  0  0  0  0  0  0
  2  1  1  0
  3  1  1  0
  4  2  1  0
  5  3  2  0
  6  5  1  0
  7  1  1  0
  8  2  2  0
  9  5  1  0
 10  7  2  0
 11  7  1  0
 12 11  2  0
 13 10  1  0
 14 12  1  0
  4  6  2  0
 13 14  2  0
  3 15  1  0
  4 16  1  0
  6 17  1  0
  9 18  1  0
  9 19  1  0
  9 20  1  0
 10 21  1  0
 11 22  1  0
 12 23  1  0
 13 24  1  0
 14 25  1  0
M  END
> <Uni-Dock RESULT> 
ENERGY=   -3.555  LOWER_BOUND=   10.833  UPPER_BOUND=   12.694
INTER + INTRA:          -3.555
INTER:                  -3.555
INTRA:                   0.000
UNBOUND:                 0.000

$$$$
