
     RDKit          3D

 25 26  0  0  0  0  0  0  0  0999 V2000
   45.4233    3.4463    9.0604 N   0  0  0  0  0  0  0  0  0  0  0  0
   45.4532    4.8274    9.3655 C   0  0  0  0  0  0  0  0  0  0  0  0
   44.6838    2.5757    9.8676 C   0  0  0  0  0  0  0  0  0  0  0  0
   44.6553    5.2613   10.5479 C   0  0  0  0  0  0  0  0  0  0  0  0
   43.9807    2.9820   10.9362 C   0  0  0  0  0  0  0  0  0  0  0  0
   43.9738    4.3797   11.2845 C   0  0  0  0  0  0  0  0  0  0  0  0
   46.1682    2.9428    7.9233 C   0  0  0  0  0  0  0  0  0  0  0  0
   46.0897    5.7068    8.7866 O   0  0  0  0  0  0  0  0  0  0  0  0
   43.1729    2.0522   11.7897 C   0  0  0  0  0  0  0  0  0  0  0  0
   46.4211    3.7346    6.7922 C   0  0  0  0  0  0  0  0  0  0  0  0
   46.6545    1.6220    7.9043 C   0  0  0  0  0  0  0  0  0  0  0  0
   47.3620    1.1186    6.8059 C   0  0  0  0  0  0  0  0  0  0  0  0
   47.1269    3.2329    5.6917 C   0  0  0  0  0  0  0  0  0  0  0  0
   47.5969    1.9247    5.6984 C   0  0  0  0  0  0  0  0  0  0  0  0
   44.6561    1.5312    9.5772 H   0  0  0  0  0  0  0  0  0  0  0  0
   44.6749    6.3192   10.7765 H   0  0  0  0  0  0  0  0  0  0  0  0
   43.4037    4.7092   12.1474 H   0  0  0  0  0  0  0  0  0  0  0  0
   43.5298    2.0726   12.8250 H   0  0  0  0  0  0  0  0  0  0  0  0
   43.2364    1.0167   11.4381 H   0  0  0  0  0  0  0  0  0  0  0  0
   42.1163    2.3408   11.7807 H   0  0  0  0  0  0  0  0  0  0  0  0
   46.0485    4.7529    6.7202 H   0  0  0  0  0  0  0  0  0  0  0  0
   46.5382    0.9657    8.7616 H   0  0  0  0  0  0  0  0  0  0  0  0
   47.7378    0.0987    6.8245 H   0  0  0  0  0  0  0  0  0  0  0  0
   47.3030    3.8717    4.8298 H   0  0  0  0  0  0  0  0  0  0  0  0
   48.1476    1.5379    4.8454 H   0  0  0  0  0  0  0  0  0  0  0  0
  2  1  1  0
  3  1  1  0
  4  2  1  0
  5  3  2  0
  6  5  1  0
  7  1  1  0
  8  2  2  0
  9  5  1  0
 10  7  2  0
 11  7  1  0
 12 11  2  0
 13 10  1  0
 14 12  1  0
  4  6  2  0
 13 14  2  0
  3 15  1  0
  4 16  1  0
  6 17  1  0
  9 18  1  0
  9 19  1  0
  9 20  1  0
 10 21  1  0
 11 22  1  0
 12 23  1  0
 13 24  1  0
 14 25  1  0
M  END
> <Uni-Dock RESULT> 
ENERGY=   -5.425  LOWER_BOUND=    0.000  UPPER_BOUND=    0.000
INTER + INTRA:          -5.425
INTER:                  -5.425
INTRA:                   0.000
UNBOUND:                 0.000

$$$$

     RDKit          3D

 25 26  0  0  0  0  0  0  0  0999 V2000
   45.0556    3.8183    9.3896 N   0  0  0  0  0  0  0  0  0  0  0  0
   44.7443    2.4561    9.6107 C   0  0  0  0  0  0  0  0  0  0  0  0
   45.8540    4.1769    8.2984 C   0  0  0  0  0  0  0  0  0  0  0  0
   45.2928    1.4832    8.6231 C   0  0  0  0  0  0  0  0  0  0  0  0
   46.3498    3.2860    7.4256 C   0  0  0  0  0  0  0  0  0  0  0  0
   46.0555    1.8872    7.6037 C   0  0  0  0  0  0  0  0  0  0  0  0
   44.5567    4.8291   10.3010 C   0  0  0  0  0  0  0  0  0  0  0  0
   44.1004    1.9789   10.5442 O   0  0  0  0  0  0  0  0  0  0  0  0
   47.1890    3.6719    6.2457 C   0  0  0  0  0  0  0  0  0  0  0  0
   43.3551    4.6634   11.0074 C   0  0  0  0  0  0  0  0  0  0  0  0
   45.2572    6.0338   10.4992 C   0  0  0  0  0  0  0  0  0  0  0  0
   44.7784    7.0247   11.3648 C   0  0  0  0  0  0  0  0  0  0  0  0
   42.8732    5.6536   11.8724 C   0  0  0  0  0  0  0  0  0  0  0  0
   43.5847    6.8345   12.0507 C   0  0  0  0  0  0  0  0  0  0  0  0
   46.0374    5.2343    8.1428 H   0  0  0  0  0  0  0  0  0  0  0  0
   45.0489    0.4419    8.7907 H   0  0  0  0  0  0  0  0  0  0  0  0
   46.4546    1.1664    6.8969 H   0  0  0  0  0  0  0  0  0  0  0  0
   48.1737    3.1955    6.3019 H   0  0  0  0  0  0  0  0  0  0  0  0
   47.3477    4.7545    6.1944 H   0  0  0  0  0  0  0  0  0  0  0  0
   46.7065    3.3633    5.3121 H   0  0  0  0  0  0  0  0  0  0  0  0
   42.7427    3.7747   10.8806 H   0  0  0  0  0  0  0  0  0  0  0  0
   46.2167    6.2132   10.0235 H   0  0  0  0  0  0  0  0  0  0  0  0
   45.3474    7.9396   11.5090 H   0  0  0  0  0  0  0  0  0  0  0  0
   41.9372    5.4951   12.4022 H   0  0  0  0  0  0  0  0  0  0  0  0
   43.2115    7.6004   12.7251 H   0  0  0  0  0  0  0  0  0  0  0  0
  2  1  1  0
  3  1  1  0
  4  2  1  0
  5  3  2  0
  6  5  1  0
  7  1  1  0
  8  2  2  0
  9  5  1  0
 10  7  2  0
 11  7  1  0
 12 11  2  0
 13 10  1  0
 14 12  1  0
  4  6  2  0
 13 14  2  0
  3 15  1  0
  4 16  1  0
  6 17  1  0
  9 18  1  0
  9 19  1  0
  9 20  1  0
 10 21  1  0
 11 22  1  0
 12 23  1  0
 13 24  1  0
 14 25  1  0
M  END
> <Uni-Dock RESULT> 
ENERGY=   -4.405  LOWER_BOUND=    1.740  UPPER_BOUND=    5.457
INTER + INTRA:          -4.405
INTER:                  -4.405
INTRA:                   0.000
UNBOUND:                 0.000

$$$$

     RDKit          3D

 25 26  0  0  0  0  0  0  0  0999 V2000
   49.7431    3.2954   17.7847 N   0  0  0  0  0  0  0  0  0  0  0  0
   48.8079    2.7670   16.8642 C   0  0  0  0  0  0  0  0  0  0  0  0
   49.3680    4.3506   18.6229 C   0  0  0  0  0  0  0  0  0  0  0  0
   47.4500    3.3826   16.8735 C   0  0  0  0  0  0  0  0  0  0  0  0
   48.1442    4.9013   18.6093 C   0  0  0  0  0  0  0  0  0  0  0  0
   47.1539    4.3938   17.6944 C   0  0  0  0  0  0  0  0  0  0  0  0
   51.0846    2.7492   17.8433 C   0  0  0  0  0  0  0  0  0  0  0  0
   48.9970    1.8797   16.0331 O   0  0  0  0  0  0  0  0  0  0  0  0
   47.7363    6.0187   19.5205 C   0  0  0  0  0  0  0  0  0  0  0  0
   51.3568    1.4124   17.5130 C   0  0  0  0  0  0  0  0  0  0  0  0
   52.1717    3.5430   18.2552 C   0  0  0  0  0  0  0  0  0  0  0  0
   53.4697    3.0234   18.3311 C   0  0  0  0  0  0  0  0  0  0  0  0
   52.6537    0.8900   17.5897 C   0  0  0  0  0  0  0  0  0  0  0  0
   53.7101    1.6954   17.9992 C   0  0  0  0  0  0  0  0  0  0  0  0
   50.1022    4.7010   19.3400 H   0  0  0  0  0  0  0  0  0  0  0  0
   46.7340    2.9732   16.1724 H   0  0  0  0  0  0  0  0  0  0  0  0
   46.1633    4.8375   17.6845 H   0  0  0  0  0  0  0  0  0  0  0  0
   47.4320    6.8965   18.9403 H   0  0  0  0  0  0  0  0  0  0  0  0
   48.5544    6.3259   20.1809 H   0  0  0  0  0  0  0  0  0  0  0  0
   46.8966    5.7127   20.1537 H   0  0  0  0  0  0  0  0  0  0  0  0
   50.5638    0.7301   17.2186 H   0  0  0  0  0  0  0  0  0  0  0  0
   52.0463    4.5976   18.4815 H   0  0  0  0  0  0  0  0  0  0  0  0
   54.2925    3.6634   18.6394 H   0  0  0  0  0  0  0  0  0  0  0  0
   52.8299   -0.1509   17.3298 H   0  0  0  0  0  0  0  0  0  0  0  0
   54.7166    1.2898   18.0546 H   0  0  0  0  0  0  0  0  0  0  0  0
  2  1  1  0
  3  1  1  0
  4  2  1  0
  5  3  2  0
  6  5  1  0
  7  1  1  0
  8  2  2  0
  9  5  1  0
 10  7  2  0
 11  7  1  0
 12 11  2  0
 13 10  1  0
 14 12  1  0
  4  6  2  0
 13 14  2  0
  3 15  1  0
  4 16  1  0
  6 17  1  0
  9 18  1  0
  9 19  1  0
  9 20  1  0
 10 21  1  0
 11 22  1  0
 12 23  1  0
 13 24  1  0
 14 25  1  0
M  END
> <Uni-Dock RESULT> 
ENERGY=   -4.297  LOWER_BOUND=    9.586  UPPER_BOUND=   10.594
INTER + INTRA:          -4.297
INTER:                  -4.297
INTRA:                   0.000
UNBOUND:                 0.000

$$$$

     RDKit          3D

 25 26  0  0  0  0  0  0  0  0999 V2000
   44.4655    6.4749   12.2505 N   0  0  0  0  0  0  0  0  0  0  0  0
   43.2529    5.7632   12.0937 C   0  0  0  0  0  0  0  0  0  0  0  0
   45.5942    5.8165   12.7497 C   0  0  0  0  0  0  0  0  0  0  0  0
   43.2799    4.3199   12.4665 C   0  0  0  0  0  0  0  0  0  0  0  0
   45.5973    4.5188   13.0921 C   0  0  0  0  0  0  0  0  0  0  0  0
   44.3888    3.7489   12.9445 C   0  0  0  0  0  0  0  0  0  0  0  0
   44.5256    7.8816   11.9056 C   0  0  0  0  0  0  0  0  0  0  0  0
   42.1693    6.2073   11.7165 O   0  0  0  0  0  0  0  0  0  0  0  0
   46.8115    3.8087   13.6086 C   0  0  0  0  0  0  0  0  0  0  0  0
   43.7037    8.4382   10.9132 C   0  0  0  0  0  0  0  0  0  0  0  0
   45.4324    8.7458   12.5476 C   0  0  0  0  0  0  0  0  0  0  0  0
   45.5114   10.1032   12.2131 C   0  0  0  0  0  0  0  0  0  0  0  0
   43.7820    9.7950   10.5756 C   0  0  0  0  0  0  0  0  0  0  0  0
   44.6861   10.6274   11.2253 C   0  0  0  0  0  0  0  0  0  0  0  0
   46.5132    6.3881   12.8185 H   0  0  0  0  0  0  0  0  0  0  0  0
   42.3527    3.7755   12.3406 H   0  0  0  0  0  0  0  0  0  0  0  0
   44.3913    2.6988   13.2194 H   0  0  0  0  0  0  0  0  0  0  0  0
   46.6250    3.4071   14.6104 H   0  0  0  0  0  0  0  0  0  0  0  0
   47.6771    4.4766   13.6757 H   0  0  0  0  0  0  0  0  0  0  0  0
   47.0835    2.9793   12.9469 H   0  0  0  0  0  0  0  0  0  0  0  0
   43.0028    7.8269   10.3512 H   0  0  0  0  0  0  0  0  0  0  0  0
   46.0668    8.3975   13.3572 H   0  0  0  0  0  0  0  0  0  0  0  0
   46.2117   10.7502   12.7351 H   0  0  0  0  0  0  0  0  0  0  0  0
   43.1331   10.1939    9.7998 H   0  0  0  0  0  0  0  0  0  0  0  0
   44.7431   11.6807   10.9650 H   0  0  0  0  0  0  0  0  0  0  0  0
  2  1  1  0
  3  1  1  0
  4  2  1  0
  5  3  2  0
  6  5  1  0
  7  1  1  0
  8  2  2  0
  9  5  1  0
 10  7  2  0
 11  7  1  0
 12 11  2  0
 13 10  1  0
 14 12  1  0
  4  6  2  0
 13 14  2  0
  3 15  1  0
  4 16  1  0
  6 17  1  0
  9 18  1  0
  9 19  1  0
  9 20  1  0
 10 21  1  0
 11 22  1  0
 12 23  1  0
 13 24  1  0
 14 25  1  0
M  END
> <Uni-Dock RESULT> 
ENERGY=   -3.926  LOWER_BOUND=    5.118  UPPER_BOUND=    6.469
INTER + INTRA:          -3.926
INTER:                  -3.926
INTRA:                   0.000
UNBOUND:                 0.000

$$$$

     RDKit          3D

 25 26  0  0  0  0  0  0  0  0999 V2000
   45.2728    5.9582   11.3688 N   0  0  0  0  0  0  0  0  0  0  0  0
   44.1261    5.5195   12.0715 C   0  0  0  0  0  0  0  0  0  0  0  0
   45.6026    5.3662   10.1451 C   0  0  0  0  0  0  0  0  0  0  0  0
   43.3254    4.4414   11.4238 C   0  0  0  0  0  0  0  0  0  0  0  0
   44.8768    4.3876    9.5823 C   0  0  0  0  0  0  0  0  0  0  0  0
   43.6959    3.9107   10.2554 C   0  0  0  0  0  0  0  0  0  0  0  0
   46.1033    7.0070   11.9272 C   0  0  0  0  0  0  0  0  0  0  0  0
   43.7324    5.9026   13.1724 O   0  0  0  0  0  0  0  0  0  0  0  0
   45.2192    3.7667    8.2622 C   0  0  0  0  0  0  0  0  0  0  0  0
   45.5780    8.0017   12.7668 C   0  0  0  0  0  0  0  0  0  0  0  0
   47.4774    7.0771   11.6303 C   0  0  0  0  0  0  0  0  0  0  0  0
   48.2874    8.0938   12.1506 C   0  0  0  0  0  0  0  0  0  0  0  0
   46.3856    9.0204   13.2871 C   0  0  0  0  0  0  0  0  0  0  0  0
   47.7403    9.0668   12.9786 C   0  0  0  0  0  0  0  0  0  0  0  0
   46.4674    5.7574    9.6206 H   0  0  0  0  0  0  0  0  0  0  0  0
   42.4451    4.1109   11.9602 H   0  0  0  0  0  0  0  0  0  0  0  0
   43.1074    3.1206    9.7996 H   0  0  0  0  0  0  0  0  0  0  0  0
   45.3912    2.6910    8.3762 H   0  0  0  0  0  0  0  0  0  0  0  0
   46.1260    4.2026    7.8291 H   0  0  0  0  0  0  0  0  0  0  0  0
   44.4053    3.9141    7.5442 H   0  0  0  0  0  0  0  0  0  0  0  0
   44.5202    8.0324   13.0138 H   0  0  0  0  0  0  0  0  0  0  0  0
   47.9635    6.3168   11.0263 H   0  0  0  0  0  0  0  0  0  0  0  0
   49.3485    8.1153   11.9154 H   0  0  0  0  0  0  0  0  0  0  0  0
   45.9466    9.7776   13.9320 H   0  0  0  0  0  0  0  0  0  0  0  0
   48.3665    9.8557   13.3861 H   0  0  0  0  0  0  0  0  0  0  0  0
  2  1  1  0
  3  1  1  0
  4  2  1  0
  5  3  2  0
  6  5  1  0
  7  1  1  0
  8  2  2  0
  9  5  1  0
 10  7  2  0
 11  7  1  0
 12 11  2  0
 13 10  1  0
 14 12  1  0
  4  6  2  0
 13 14  2  0
  3 15  1  0
  4 16  1  0
  6 17  1  0
  9 18  1  0
  9 19  1  0
  9 20  1  0
 10 21  1  0
 11 22  1  0
 12 23  1  0
 13 24  1  0
 14 25  1  0
M  END
> <Uni-Dock RESULT> 
ENERGY=   -3.868  LOWER_BOUND=    3.322  UPPER_BOUND=    5.909
INTER + INTRA:          -3.868
INTER:                  -3.868
INTRA:                   0.000
UNBOUND:                 0.000

$$$$

     RDKit          3D

 25 26  0  0  0  0  0  0  0  0999 V2000
   45.8302    6.9671   12.7640 N   0  0  0  0  0  0  0  0  0  0  0  0
   47.0803    7.0032   13.4252 C   0  0  0  0  0  0  0  0  0  0  0  0
   45.2830    8.1492   12.2544 C   0  0  0  0  0  0  0  0  0  0  0  0
   47.7442    8.3352   13.5130 C   0  0  0  0  0  0  0  0  0  0  0  0
   45.8891    9.3426   12.3532 C   0  0  0  0  0  0  0  0  0  0  0  0
   47.1672    9.4307   13.0118 C   0  0  0  0  0  0  0  0  0  0  0  0
   45.1209    5.7098   12.6310 C   0  0  0  0  0  0  0  0  0  0  0  0
   47.6668    6.0665   13.9660 O   0  0  0  0  0  0  0  0  0  0  0  0
   45.3121   10.6058   11.7904 C   0  0  0  0  0  0  0  0  0  0  0  0
   45.7953    4.4804   12.5666 C   0  0  0  0  0  0  0  0  0  0  0  0
   43.7164    5.6772   12.5427 C   0  0  0  0  0  0  0  0  0  0  0  0
   43.0202    4.4710   12.3985 C   0  0  0  0  0  0  0  0  0  0  0  0
   45.1014    3.2729   12.4207 C   0  0  0  0  0  0  0  0  0  0  0  0
   43.7138    3.2683   12.3362 C   0  0  0  0  0  0  0  0  0  0  0  0
   44.3417    8.0720   11.7214 H   0  0  0  0  0  0  0  0  0  0  0  0
   48.7033    8.3600   14.0144 H   0  0  0  0  0  0  0  0  0  0  0  0
   47.6588   10.3953   13.0902 H   0  0  0  0  0  0  0  0  0  0  0  0
   45.1546   11.3437   12.5843 H   0  0  0  0  0  0  0  0  0  0  0  0
   44.3462   10.4319   11.3040 H   0  0  0  0  0  0  0  0  0  0  0  0
   45.9862   11.0380   11.0431 H   0  0  0  0  0  0  0  0  0  0  0  0
   46.8803    4.4287   12.5947 H   0  0  0  0  0  0  0  0  0  0  0  0
   43.1245    6.5832   12.6319 H   0  0  0  0  0  0  0  0  0  0  0  0
   41.9344    4.4748   12.3466 H   0  0  0  0  0  0  0  0  0  0  0  0
   45.6543    2.3381   12.3709 H   0  0  0  0  0  0  0  0  0  0  0  0
   43.1765    2.3302   12.2268 H   0  0  0  0  0  0  0  0  0  0  0  0
  2  1  1  0
  3  1  1  0
  4  2  1  0
  5  3  2  0
  6  5  1  0
  7  1  1  0
  8  2  2  0
  9  5  1  0
 10  7  2  0
 11  7  1  0
 12 11  2  0
 13 10  1  0
 14 12  1  0
  4  6  2  0
 13 14  2  0
  3 15  1  0
  4 16  1  0
  6 17  1  0
  9 18  1  0
  9 19  1  0
  9 20  1  0
 10 21  1  0
 11 22  1  0
 12 23  1  0
 13 24  1  0
 14 25  1  0
M  END
> <Uni-Dock RESULT> 
ENERGY=   -3.867  LOWER_BOUND=    4.698  UPPER_BOUND=    6.495
INTER + INTRA:          -3.867
INTER:                  -3.867
INTRA:                   0.000
UNBOUND:                 0.000

$$$$

     RDKit          3D

 25 26  0  0  0  0  0  0  0  0999 V2000
   46.3015    6.1326   13.1991 N   0  0  0  0  0  0  0  0  0  0  0  0
   47.2687    5.6170   14.0935 C   0  0  0  0  0  0  0  0  0  0  0  0
   46.3724    7.4714   12.8003 C   0  0  0  0  0  0  0  0  0  0  0  0
   48.3297    6.5650   14.5392 C   0  0  0  0  0  0  0  0  0  0  0  0
   47.3280    8.3146   13.2213 C   0  0  0  0  0  0  0  0  0  0  0  0
   48.3400    7.8357   14.1277 C   0  0  0  0  0  0  0  0  0  0  0  0
   45.2387    5.2746   12.7135 C   0  0  0  0  0  0  0  0  0  0  0  0
   47.3152    4.4846   14.5723 O   0  0  0  0  0  0  0  0  0  0  0  0
   47.4153    9.7436   12.7791 C   0  0  0  0  0  0  0  0  0  0  0  0
   45.4085    3.8881   12.5759 C   0  0  0  0  0  0  0  0  0  0  0  0
   43.9906    5.8088   12.3414 C   0  0  0  0  0  0  0  0  0  0  0  0
   42.9610    4.9933   11.8564 C   0  0  0  0  0  0  0  0  0  0  0  0
   44.3809    3.0706   12.0895 C   0  0  0  0  0  0  0  0  0  0  0  0
   43.1573    3.6233   11.7293 C   0  0  0  0  0  0  0  0  0  0  0  0
   45.6347    7.8167   12.0844 H   0  0  0  0  0  0  0  0  0  0  0  0
   49.0721    6.1672   15.2192 H   0  0  0  0  0  0  0  0  0  0  0  0
   49.1143    8.5167   14.4669 H   0  0  0  0  0  0  0  0  0  0  0  0
   47.3453   10.4175   13.6397 H   0  0  0  0  0  0  0  0  0  0  0  0
   46.6083   10.0065   12.0866 H   0  0  0  0  0  0  0  0  0  0  0  0
   48.3653    9.9314   12.2672 H   0  0  0  0  0  0  0  0  0  0  0  0
   46.3546    3.4083   12.8115 H   0  0  0  0  0  0  0  0  0  0  0  0
   43.7699    6.8650   12.4641 H   0  0  0  0  0  0  0  0  0  0  0  0
   42.0027    5.4314   11.5895 H   0  0  0  0  0  0  0  0  0  0  0  0
   44.5462    2.0005   11.9921 H   0  0  0  0  0  0  0  0  0  0  0  0
   42.3596    2.9872   11.3556 H   0  0  0  0  0  0  0  0  0  0  0  0
  2  1  1  0
  3  1  1  0
  4  2  1  0
  5  3  2  0
  6  5  1  0
  7  1  1  0
  8  2  2  0
  9  5  1  0
 10  7  2  0
 11  7  1  0
 12 11  2  0
 13 10  1  0
 14 12  1  0
  4  6  2  0
 13 14  2  0
  3 15  1  0
  4 16  1  0
  6 17  1  0
  9 18  1  0
  9 19  1  0
  9 20  1  0
 10 21  1  0
 11 22  1  0
 12 23  1  0
 13 24  1  0
 14 25  1  0
M  END
> <Uni-Dock RESULT> 
ENERGY=   -3.792  LOWER_BOUND=    4.683  UPPER_BOUND=    6.502
INTER + INTRA:          -3.792
INTER:                  -3.792
INTRA:                   0.000
UNBOUND:                 0.000

$$$$

     RDKit          3D

 25 26  0  0  0  0  0  0  0  0999 V2000
   51.3967    2.8367   18.0125 N   0  0  0  0  0  0  0  0  0  0  0  0
   52.2346    3.8063   18.6116 C   0  0  0  0  0  0  0  0  0  0  0  0
   51.9265    1.5939   17.6499 C   0  0  0  0  0  0  0  0  0  0  0  0
   53.6543    3.4083   18.8327 C   0  0  0  0  0  0  0  0  0  0  0  0
   53.2108    1.2566   17.8452 C   0  0  0  0  0  0  0  0  0  0  0  0
   54.1029    2.2071   18.4582 C   0  0  0  0  0  0  0  0  0  0  0  0
   50.0010    3.1422   17.7674 C   0  0  0  0  0  0  0  0  0  0  0  0
   51.9339    4.9531   18.9404 O   0  0  0  0  0  0  0  0  0  0  0  0
   53.7739   -0.0816   17.4746 C   0  0  0  0  0  0  0  0  0  0  0  0
   49.2858    4.0424   18.5728 C   0  0  0  0  0  0  0  0  0  0  0  0
   49.3000    2.5274   16.7129 C   0  0  0  0  0  0  0  0  0  0  0  0
   47.9478    2.8021   16.4750 C   0  0  0  0  0  0  0  0  0  0  0  0
   47.9330    4.3174   18.3379 C   0  0  0  0  0  0  0  0  0  0  0  0
   47.2639    3.6969   17.2893 C   0  0  0  0  0  0  0  0  0  0  0  0
   51.2423    0.8655   17.2287 H   0  0  0  0  0  0  0  0  0  0  0  0
   54.2927    4.1495   19.2963 H   0  0  0  0  0  0  0  0  0  0  0  0
   55.1412    1.9341   18.6182 H   0  0  0  0  0  0  0  0  0  0  0  0
   54.5863    0.0307   16.7486 H   0  0  0  0  0  0  0  0  0  0  0  0
   53.0163   -0.7328   17.0252 H   0  0  0  0  0  0  0  0  0  0  0  0
   54.1672   -0.5929   18.3598 H   0  0  0  0  0  0  0  0  0  0  0  0
   49.7504    4.5301   19.4254 H   0  0  0  0  0  0  0  0  0  0  0  0
   49.7985    1.8562   16.0199 H   0  0  0  0  0  0  0  0  0  0  0  0
   47.4353    2.3229   15.6447 H   0  0  0  0  0  0  0  0  0  0  0  0
   47.4073    5.0174   18.9826 H   0  0  0  0  0  0  0  0  0  0  0  0
   46.2152    3.9142   17.1059 H   0  0  0  0  0  0  0  0  0  0  0  0
  2  1  1  0
  3  1  1  0
  4  2  1  0
  5  3  2  0
  6  5  1  0
  7  1  1  0
  8  2  2  0
  9  5  1  0
 10  7  2  0
 11  7  1  0
 12 11  2  0
 13 10  1  0
 14 12  1  0
  4  6  2  0
 13 14  2  0
  3 15  1  0
  4 16  1  0
  6 17  1  0
  9 18  1  0
  9 19  1  0
  9 20  1  0
 10 21  1  0
 11 22  1  0
 12 23  1  0
 13 24  1  0
 14 25  1  0
M  END
> <Uni-Dock RESULT> 
ENERGY=   -3.657  LOWER_BOUND=   10.207  UPPER_BOUND=   11.457
INTER + INTRA:          -3.657
INTER:                  -3.657
INTRA:                   0.000
UNBOUND:                 0.000

$$$$

     RDKit          3D

 25 26  0  0  0  0  0  0  0  0999 V2000
   46.6853    5.0590   13.8765 N   0  0  0  0  0  0  0  0  0  0  0  0
   47.5500    6.1765   13.8083 C   0  0  0  0  0  0  0  0  0  0  0  0
   46.7172    4.2276   15.0010 C   0  0  0  0  0  0  0  0  0  0  0  0
   48.4405    6.3969   14.9836 C   0  0  0  0  0  0  0  0  0  0  0  0
   47.5344    4.4340   16.0453 C   0  0  0  0  0  0  0  0  0  0  0  0
   48.4293    5.5627   16.0267 C   0  0  0  0  0  0  0  0  0  0  0  0
   45.7835    4.7769   12.7772 C   0  0  0  0  0  0  0  0  0  0  0  0
   47.6753    6.9684   12.8750 O   0  0  0  0  0  0  0  0  0  0  0  0
   47.5550    3.5545   17.2584 C   0  0  0  0  0  0  0  0  0  0  0  0
   45.2784    5.7938   11.9519 C   0  0  0  0  0  0  0  0  0  0  0  0
   45.3630    3.4613   12.5056 C   0  0  0  0  0  0  0  0  0  0  0  0
   44.4802    3.1771   11.4566 C   0  0  0  0  0  0  0  0  0  0  0  0
   44.3941    5.5124   10.9032 C   0  0  0  0  0  0  0  0  0  0  0  0
   43.9946    4.2041   10.6559 C   0  0  0  0  0  0  0  0  0  0  0  0
   46.0119    3.4043   15.0307 H   0  0  0  0  0  0  0  0  0  0  0  0
   49.0975    7.2557   14.9320 H   0  0  0  0  0  0  0  0  0  0  0  0
   49.0891    5.7312   16.8720 H   0  0  0  0  0  0  0  0  0  0  0  0
   48.5476    3.1124   17.3960 H   0  0  0  0  0  0  0  0  0  0  0  0
   46.8349    2.7329   17.1790 H   0  0  0  0  0  0  0  0  0  0  0  0
   47.3035    4.1298   18.1559 H   0  0  0  0  0  0  0  0  0  0  0  0
   45.5315    6.8370   12.1209 H   0  0  0  0  0  0  0  0  0  0  0  0
   45.7478    2.6180   13.0713 H   0  0  0  0  0  0  0  0  0  0  0  0
   44.1832    2.1499   11.2613 H   0  0  0  0  0  0  0  0  0  0  0  0
   44.0187    6.3239   10.2846 H   0  0  0  0  0  0  0  0  0  0  0  0
   43.3114    3.9868    9.8395 H   0  0  0  0  0  0  0  0  0  0  0  0
  2  1  1  0
  3  1  1  0
  4  2  1  0
  5  3  2  0
  6  5  1  0
  7  1  1  0
  8  2  2  0
  9  5  1  0
 10  7  2  0
 11  7  1  0
 12 11  2  0
 13 10  1  0
 14 12  1  0
  4  6  2  0
 13 14  2  0
  3 15  1  0
  4 16  1  0
  6 17  1  0
  9 18  1  0
  9 19  1  0
  9 20  1  0
 10 21  1  0
 11 22  1  0
 12 23  1  0
 13 24  1  0
 14 25  1  0
M  END
> <Uni-Dock RESULT> 
ENERGY=   -3.593  LOWER_BOUND=    4.365  UPPER_BOUND=    5.860
INTER + INTRA:          -3.593
INTER:                  -3.593
INTRA:                   0.000
UNBOUND:                 0.000

$$$$
