
     RDKit          3D

 49 52  0  0  0  0  0  0  0  0999 V2000
   46.2641    5.7207   12.3239 C   0  0  0  0  0  0  0  0  0  0  0  0
   46.5533    4.6287   13.2859 C   0  0  0  0  0  0  0  0  0  0  0  0
   47.3422    4.9367   14.5209 C   0  0  0  0  0  0  0  0  0  0  0  0
   47.7468    6.2092   14.7109 C   0  0  0  0  0  0  0  0  0  0  0  0
   47.4187    7.2385   13.8146 N   0  0  0  0  0  0  0  0  0  0  0  0
   46.7208    6.9396   12.6538 C   0  0  0  0  0  0  0  0  0  0  0  0
   48.5709    6.5500   15.9438 C   0  0  0  0  0  0  0  0  0  0  0  0
   48.4452    7.8575   16.4161 N   0  0  0  0  0  0  0  0  0  0  0  0
   47.9163    8.9131   15.5564 C   0  0  2  0  0  0  0  0  0  0  0  0
   47.9782    8.5707   14.0563 C   0  0  0  0  0  0  0  0  0  0  0  0
   49.0308    8.2654   17.7036 C   0  0  1  0  0  0  0  0  0  0  0  0
   48.4619    9.6247   18.1255 C   0  0  0  0  0  0  0  0  0  0  0  0
   48.6150   10.6593   17.0275 C   0  0  0  0  0  0  0  0  0  0  0  0
   48.7131   10.0849   15.7338 O   0  0  0  0  0  0  0  0  0  0  0  0
   45.5221    5.5536   11.0447 C   0  0  0  0  0  0  0  0  0  0  0  0
   45.3451    6.4972   10.2784 O   0  0  0  0  0  0  0  0  0  0  0  0
   45.0642    4.2884   10.7901 N   0  0  0  0  0  0  0  0  0  0  0  0
   44.4004    3.9286    9.5590 C   0  0  0  0  0  0  0  0  0  0  0  0
   45.3704    3.3458    8.5692 C   0  0  0  0  0  0  0  0  0  0  0  0
   46.1781    4.1804    7.7803 C   0  0  0  0  0  0  0  0  0  0  0  0
   47.0891    3.6285    6.8777 C   0  0  0  0  0  0  0  0  0  0  0  0
   47.1964    2.2459    6.7674 C   0  0  0  0  0  0  0  0  0  0  0  0
   46.4133    1.4023    7.5421 C   0  0  0  0  0  0  0  0  0  0  0  0
   45.5090    1.9597    8.4383 C   0  0  0  0  0  0  0  0  0  0  0  0
   48.0721    1.7210    5.9006 F   0  0  0  0  0  0  0  0  0  0  0  0
   44.7585    1.1408    9.1891 F   0  0  0  0  0  0  0  0  0  0  0  0
   46.1710    3.4705   13.1057 O   0  0  0  0  0  0  0  0  0  0  0  0
   47.5698    3.8870   15.3885 O   0  0  0  0  0  0  0  0  0  0  0  0
   49.3041    5.7220   16.4755 O   0  0  0  0  0  0  0  0  0  0  0  0
   48.7591    7.2815   18.8513 C   0  0  0  0  0  0  0  0  0  0  0  0
   46.5594    7.7943   11.9981 H   0  0  0  0  0  0  0  0  0  0  0  0
   46.8779    9.1086   15.8543 H   0  0  0  0  0  0  0  0  0  0  0  0
   47.4432    9.3448   13.4913 H   0  0  0  0  0  0  0  0  0  0  0  0
   49.0175    8.5947   13.7016 H   0  0  0  0  0  0  0  0  0  0  0  0
   50.1140    8.3489   17.5508 H   0  0  0  0  0  0  0  0  0  0  0  0
   47.3904    9.5126   18.3429 H   0  0  0  0  0  0  0  0  0  0  0  0
   48.9230    9.9903   19.0504 H   0  0  0  0  0  0  0  0  0  0  0  0
   47.7771   11.3650   17.0430 H   0  0  0  0  0  0  0  0  0  0  0  0
   49.5274   11.2436   17.1871 H   0  0  0  0  0  0  0  0  0  0  0  0
   45.2975    3.5372   11.4388 H   0  0  0  0  0  0  0  0  0  0  0  0
   43.9025    4.8035    9.1251 H   0  0  0  0  0  0  0  0  0  0  0  0
   43.6158    3.2064    9.8096 H   0  0  0  0  0  0  0  0  0  0  0  0
   46.1004    5.2632    7.8720 H   0  0  0  0  0  0  0  0  0  0  0  0
   47.7164    4.2676    6.2638 H   0  0  0  0  0  0  0  0  0  0  0  0
   46.5073    0.3269    7.4517 H   0  0  0  0  0  0  0  0  0  0  0  0
   47.1850    3.0951   14.9605 H   0  0  0  0  0  0  0  0  0  0  0  0
   49.0699    7.7073   19.8119 H   0  0  0  0  0  0  0  0  0  0  0  0
   47.6940    7.0333   18.9160 H   0  0  0  0  0  0  0  0  0  0  0  0
   49.3151    6.3479   18.7353 H   0  0  0  0  0  0  0  0  0  0  0  0
  1  2  1  0
  2  3  1  0
  3  4  2  0
  5  6  1  0
  6  1  2  0
  4  7  1  0
  5  4  1  0
 10  5  1  0
  7  8  1  0
  9 10  1  0
  8 11  1  0
  9  8  1  0
 14  9  1  0
 11 12  1  0
 12 13  1  0
 13 14  1  0
  1 15  1  0
 15 16  2  0
 15 17  1  0
 17 18  1  0
 18 19  1  0
 19 20  2  0
 19 24  1  0
 20 21  1  0
 21 22  2  0
 22 23  1  0
 23 24  2  0
 22 25  1  0
 24 26  1  0
  2 27  2  0
  3 28  1  0
  7 29  2  0
 11 30  1  0
  6 31  1  0
  9 32  1  1
 10 33  1  0
 10 34  1  0
 11 35  1  6
 12 36  1  0
 12 37  1  0
 13 38  1  0
 13 39  1  0
 17 40  1  0
 18 41  1  0
 18 42  1  0
 20 43  1  0
 21 44  1  0
 23 45  1  0
 28 46  1  0
 30 47  1  0
 30 48  1  0
 30 49  1  0
M  END
> <Uni-Dock RESULT> 
ENERGY=   -7.298  LOWER_BOUND=    0.000  UPPER_BOUND=    0.000
INTER + INTRA:          -7.298
INTER:                  -7.298
INTRA:                   0.000
UNBOUND:                 0.000

$$$$

     RDKit          3D

 49 52  0  0  0  0  0  0  0  0999 V2000
   46.2704    5.7350   12.4355 C   0  0  0  0  0  0  0  0  0  0  0  0
   46.6006    4.6405   13.3812 C   0  0  0  0  0  0  0  0  0  0  0  0
   47.4104    4.9526   14.6016 C   0  0  0  0  0  0  0  0  0  0  0  0
   47.7955    6.2308   14.7941 C   0  0  0  0  0  0  0  0  0  0  0  0
   47.4288    7.2614   13.9143 N   0  0  0  0  0  0  0  0  0  0  0  0
   46.7115    6.9594   12.7663 C   0  0  0  0  0  0  0  0  0  0  0  0
   48.6398    6.5764   16.0119 C   0  0  0  0  0  0  0  0  0  0  0  0
   48.5003    7.8772   16.4985 N   0  0  0  0  0  0  0  0  0  0  0  0
   47.9332    8.9300   15.6599 C   0  0  2  0  0  0  0  0  0  0  0  0
   47.9688    8.6017   14.1558 C   0  0  0  0  0  0  0  0  0  0  0  0
   49.1061    8.2850   17.7766 C   0  0  1  0  0  0  0  0  0  0  0  0
   48.5214    9.6298   18.2228 C   0  0  0  0  0  0  0  0  0  0  0  0
   48.6314   10.6764   17.1310 C   0  0  0  0  0  0  0  0  0  0  0  0
   48.7119   10.1150   15.8305 O   0  0  0  0  0  0  0  0  0  0  0  0
   45.5039    5.5650   11.1712 C   0  0  0  0  0  0  0  0  0  0  0  0
   45.2927    6.5116   10.4173 O   0  0  0  0  0  0  0  0  0  0  0  0
   45.0641    4.2937   10.9153 N   0  0  0  0  0  0  0  0  0  0  0  0
   44.3803    3.9320    9.6956 C   0  0  0  0  0  0  0  0  0  0  0  0
   45.3392    3.3759    8.6799 C   0  0  0  0  0  0  0  0  0  0  0  0
   46.1139    4.2322    7.8812 C   0  0  0  0  0  0  0  0  0  0  0  0
   47.0150    3.7052    6.9543 C   0  0  0  0  0  0  0  0  0  0  0  0
   47.1454    2.3257    6.8293 C   0  0  0  0  0  0  0  0  0  0  0  0
   46.3952    1.4611    7.6132 C   0  0  0  0  0  0  0  0  0  0  0  0
   45.5004    1.9939    8.5337 C   0  0  0  0  0  0  0  0  0  0  0  0
   48.0117    1.8247    5.9391 F   0  0  0  0  0  0  0  0  0  0  0  0
   44.7818    1.1546    9.2932 F   0  0  0  0  0  0  0  0  0  0  0  0
   46.2360    3.4769   13.1990 O   0  0  0  0  0  0  0  0  0  0  0  0
   47.6762    3.9000   15.4546 O   0  0  0  0  0  0  0  0  0  0  0  0
   49.3996    5.7577   16.5202 O   0  0  0  0  0  0  0  0  0  0  0  0
   48.8777    7.2865   18.9210 C   0  0  0  0  0  0  0  0  0  0  0  0
   46.5201    7.8164   12.1220 H   0  0  0  0  0  0  0  0  0  0  0  0
   46.8981    9.1035   15.9819 H   0  0  0  0  0  0  0  0  0  0  0  0
   47.4073    9.3704   13.6094 H   0  0  0  0  0  0  0  0  0  0  0  0
   48.9994    8.6482   13.7789 H   0  0  0  0  0  0  0  0  0  0  0  0
   50.1840    8.3900   17.6012 H   0  0  0  0  0  0  0  0  0  0  0  0
   47.4572    9.4959   18.4624 H   0  0  0  0  0  0  0  0  0  0  0  0
   48.9958    9.9961   19.1408 H   0  0  0  0  0  0  0  0  0  0  0  0
   47.7811   11.3662   17.1710 H   0  0  0  0  0  0  0  0  0  0  0  0
   49.5362   11.2763   17.2761 H   0  0  0  0  0  0  0  0  0  0  0  0
   45.3253    3.5414   11.5521 H   0  0  0  0  0  0  0  0  0  0  0  0
   43.8569    4.8011    9.2805 H   0  0  0  0  0  0  0  0  0  0  0  0
   43.6149    3.1931    9.9567 H   0  0  0  0  0  0  0  0  0  0  0  0
   46.0182    5.3125    7.9842 H   0  0  0  0  0  0  0  0  0  0  0  0
   47.6168    4.3610    6.3326 H   0  0  0  0  0  0  0  0  0  0  0  0
   46.5071    0.3884    7.5112 H   0  0  0  0  0  0  0  0  0  0  0  0
   47.2969    3.1047   15.0280 H   0  0  0  0  0  0  0  0  0  0  0  0
   49.2014    7.7098   19.8785 H   0  0  0  0  0  0  0  0  0  0  0  0
   47.8190    7.0179   19.0066 H   0  0  0  0  0  0  0  0  0  0  0  0
   49.4482    6.3644   18.7848 H   0  0  0  0  0  0  0  0  0  0  0  0
  1  2  1  0
  2  3  1  0
  3  4  2  0
  5  6  1  0
  6  1  2  0
  4  7  1  0
  5  4  1  0
 10  5  1  0
  7  8  1  0
  9 10  1  0
  8 11  1  0
  9  8  1  0
 14  9  1  0
 11 12  1  0
 12 13  1  0
 13 14  1  0
  1 15  1  0
 15 16  2  0
 15 17  1  0
 17 18  1  0
 18 19  1  0
 19 20  2  0
 19 24  1  0
 20 21  1  0
 21 22  2  0
 22 23  1  0
 23 24  2  0
 22 25  1  0
 24 26  1  0
  2 27  2  0
  3 28  1  0
  7 29  2  0
 11 30  1  0
  6 31  1  0
  9 32  1  1
 10 33  1  0
 10 34  1  0
 11 35  1  6
 12 36  1  0
 12 37  1  0
 13 38  1  0
 13 39  1  0
 17 40  1  0
 18 41  1  0
 18 42  1  0
 20 43  1  0
 21 44  1  0
 23 45  1  0
 28 46  1  0
 30 47  1  0
 30 48  1  0
 30 49  1  0
M  END
> <Uni-Dock RESULT> 
ENERGY=   -7.234  LOWER_BOUND=    0.115  UPPER_BOUND=    0.115
INTER + INTRA:          -7.234
INTER:                  -7.234
INTRA:                   0.000
UNBOUND:                 0.000

$$$$

     RDKit          3D

 49 52  0  0  0  0  0  0  0  0999 V2000
   47.1537    7.6826   12.9798 C   0  0  0  0  0  0  0  0  0  0  0  0
   47.8155    6.8563   14.0193 C   0  0  0  0  0  0  0  0  0  0  0  0
   49.1875    7.2345   14.4852 C   0  0  0  0  0  0  0  0  0  0  0  0
   49.7597    8.3285   13.9423 C   0  0  0  0  0  0  0  0  0  0  0  0
   49.0959    9.1269   12.9975 N   0  0  0  0  0  0  0  0  0  0  0  0
   47.8413    8.7498   12.5421 C   0  0  0  0  0  0  0  0  0  0  0  0
   51.1629    8.7255   14.3767 C   0  0  0  0  0  0  0  0  0  0  0  0
   51.4607   10.0870   14.2980 N   0  0  0  0  0  0  0  0  0  0  0  0
   50.6552   10.9796   13.4688 C   0  0  2  0  0  0  0  0  0  0  0  0
   49.8307   10.2430   12.3969 C   0  0  0  0  0  0  0  0  0  0  0  0
   52.7053   10.6318   14.8644 C   0  0  1  0  0  0  0  0  0  0  0  0
   52.6161   12.1601   14.9404 C   0  0  0  0  0  0  0  0  0  0  0  0
   52.2357   12.7644   13.6026 C   0  0  0  0  0  0  0  0  0  0  0  0
   51.5321   11.8604   12.7655 O   0  0  0  0  0  0  0  0  0  0  0  0
   45.8102    7.4073   12.4016 C   0  0  0  0  0  0  0  0  0  0  0  0
   45.3345    8.1170   11.5190 O   0  0  0  0  0  0  0  0  0  0  0  0
   45.1589    6.3185   12.9168 N   0  0  0  0  0  0  0  0  0  0  0  0
   43.8864    5.8564   12.4136 C   0  0  0  0  0  0  0  0  0  0  0  0
   44.0689    4.7650   11.3959 C   0  0  0  0  0  0  0  0  0  0  0  0
   44.3787    5.0733   10.0617 C   0  0  0  0  0  0  0  0  0  0  0  0
   44.5646    4.0514    9.1289 C   0  0  0  0  0  0  0  0  0  0  0  0
   44.4464    2.7243    9.5295 C   0  0  0  0  0  0  0  0  0  0  0  0
   44.1480    2.3966   10.8441 C   0  0  0  0  0  0  0  0  0  0  0  0
   43.9645    3.4199   11.7666 C   0  0  0  0  0  0  0  0  0  0  0  0
   44.6262    1.7474    8.6312 F   0  0  0  0  0  0  0  0  0  0  0  0
   43.6820    3.0985   13.0373 F   0  0  0  0  0  0  0  0  0  0  0  0
   47.2792    5.8627   14.5145 O   0  0  0  0  0  0  0  0  0  0  0  0
   49.7503    6.4398   15.4641 O   0  0  0  0  0  0  0  0  0  0  0  0
   51.9765    7.8914   14.7614 O   0  0  0  0  0  0  0  0  0  0  0  0
   53.0214   10.1228   16.2786 C   0  0  0  0  0  0  0  0  0  0  0  0
   47.4311    9.4032   11.7733 H   0  0  0  0  0  0  0  0  0  0  0  0
   49.9887   11.5505   14.1284 H   0  0  0  0  0  0  0  0  0  0  0  0
   49.1556   10.9594   11.9113 H   0  0  0  0  0  0  0  0  0  0  0  0
   50.4890    9.8573   11.6067 H   0  0  0  0  0  0  0  0  0  0  0  0
   53.5191   10.3418   14.1881 H   0  0  0  0  0  0  0  0  0  0  0  0
   51.8453   12.4378   15.6729 H   0  0  0  0  0  0  0  0  0  0  0  0
   53.5511   12.6057   15.2995 H   0  0  0  0  0  0  0  0  0  0  0  0
   51.6294   13.6658   13.7451 H   0  0  0  0  0  0  0  0  0  0  0  0
   53.1363   13.0682   13.0585 H   0  0  0  0  0  0  0  0  0  0  0  0
   45.6351    5.7362   13.6051 H   0  0  0  0  0  0  0  0  0  0  0  0
   43.3259    6.6893   11.9736 H   0  0  0  0  0  0  0  0  0  0  0  0
   43.3062    5.4988   13.2712 H   0  0  0  0  0  0  0  0  0  0  0  0
   44.4795    6.1120    9.7490 H   0  0  0  0  0  0  0  0  0  0  0  0
   44.8036    4.2821    8.0952 H   0  0  0  0  0  0  0  0  0  0  0  0
   44.0621    1.3601   11.1471 H   0  0  0  0  0  0  0  0  0  0  0  0
   49.1116    5.7154   15.6236 H   0  0  0  0  0  0  0  0  0  0  0  0
   53.8591   10.6783   16.7151 H   0  0  0  0  0  0  0  0  0  0  0  0
   52.1560   10.2329   16.9415 H   0  0  0  0  0  0  0  0  0  0  0  0
   53.3158    9.0704   16.2828 H   0  0  0  0  0  0  0  0  0  0  0  0
  1  2  1  0
  2  3  1  0
  3  4  2  0
  5  6  1  0
  6  1  2  0
  4  7  1  0
  5  4  1  0
 10  5  1  0
  7  8  1  0
  9 10  1  0
  8 11  1  0
  9  8  1  0
 14  9  1  0
 11 12  1  0
 12 13  1  0
 13 14  1  0
  1 15  1  0
 15 16  2  0
 15 17  1  0
 17 18  1  0
 18 19  1  0
 19 20  2  0
 19 24  1  0
 20 21  1  0
 21 22  2  0
 22 23  1  0
 23 24  2  0
 22 25  1  0
 24 26  1  0
  2 27  2  0
  3 28  1  0
  7 29  2  0
 11 30  1  0
  6 31  1  0
  9 32  1  1
 10 33  1  0
 10 34  1  0
 11 35  1  6
 12 36  1  0
 12 37  1  0
 13 38  1  0
 13 39  1  0
 17 40  1  0
 18 41  1  0
 18 42  1  0
 20 43  1  0
 21 44  1  0
 23 45  1  0
 28 46  1  0
 30 47  1  0
 30 48  1  0
 30 49  1  0
M  END
> <Uni-Dock RESULT> 
ENERGY=   -4.694  LOWER_BOUND=    2.920  UPPER_BOUND=    3.774
INTER + INTRA:          -4.694
INTER:                  -4.694
INTRA:                   0.000
UNBOUND:                 0.000

$$$$

     RDKit          3D

 49 52  0  0  0  0  0  0  0  0999 V2000
   46.0552    9.3567   12.4278 C   0  0  0  0  0  0  0  0  0  0  0  0
   45.3019    8.1009   12.1891 C   0  0  0  0  0  0  0  0  0  0  0  0
   45.7965    6.8277   12.8029 C   0  0  0  0  0  0  0  0  0  0  0  0
   46.9087    6.8837   13.5637 C   0  0  0  0  0  0  0  0  0  0  0  0
   47.5778    8.0909   13.8199 N   0  0  0  0  0  0  0  0  0  0  0  0
   47.1369    9.2598   13.2175 C   0  0  0  0  0  0  0  0  0  0  0  0
   47.4508    5.6032   14.1818 C   0  0  0  0  0  0  0  0  0  0  0  0
   48.1570    5.7567   15.3760 N   0  0  0  0  0  0  0  0  0  0  0  0
   48.6964    7.0582   15.7611 C   0  0  2  0  0  0  0  0  0  0  0  0
   48.8277    8.0406   14.5825 C   0  0  0  0  0  0  0  0  0  0  0  0
   48.5671    4.5920   16.1773 C   0  0  1  0  0  0  0  0  0  0  0  0
   49.0110    5.0507   17.5709 C   0  0  0  0  0  0  0  0  0  0  0  0
   50.0623    6.1407   17.4915 C   0  0  0  0  0  0  0  0  0  0  0  0
   50.0154    6.8689   16.2746 O   0  0  0  0  0  0  0  0  0  0  0  0
   45.6992   10.6842   11.8569 C   0  0  0  0  0  0  0  0  0  0  0  0
   46.3869   11.6793   12.0710 O   0  0  0  0  0  0  0  0  0  0  0  0
   44.5688   10.7094   11.0845 N   0  0  0  0  0  0  0  0  0  0  0  0
   44.1250   11.8919   10.3840 C   0  0  0  0  0  0  0  0  0  0  0  0
   44.6142   11.8967    8.9624 C   0  0  0  0  0  0  0  0  0  0  0  0
   45.9178   12.3173    8.6542 C   0  0  0  0  0  0  0  0  0  0  0  0
   46.3683   12.2999    7.3329 C   0  0  0  0  0  0  0  0  0  0  0  0
   45.5200   11.8583    6.3226 C   0  0  0  0  0  0  0  0  0  0  0  0
   44.2305   11.4315    6.6052 C   0  0  0  0  0  0  0  0  0  0  0  0
   43.7897   11.4518    7.9232 C   0  0  0  0  0  0  0  0  0  0  0  0
   45.9568   11.8429    5.0566 F   0  0  0  0  0  0  0  0  0  0  0  0
   42.5449   11.0329    8.1925 F   0  0  0  0  0  0  0  0  0  0  0  0
   44.2814    8.0633   11.4984 O   0  0  0  0  0  0  0  0  0  0  0  0
   45.0496    5.6920   12.5605 O   0  0  0  0  0  0  0  0  0  0  0  0
   47.2800    4.5107   13.6498 O   0  0  0  0  0  0  0  0  0  0  0  0
   47.4574    3.5484   16.3730 C   0  0  0  0  0  0  0  0  0  0  0  0
   47.7508   10.1327   13.4357 H   0  0  0  0  0  0  0  0  0  0  0  0
   48.0431    7.4841   16.5338 H   0  0  0  0  0  0  0  0  0  0  0  0
   49.1067    9.0285   14.9709 H   0  0  0  0  0  0  0  0  0  0  0  0
   49.6441    7.7308   13.9162 H   0  0  0  0  0  0  0  0  0  0  0  0
   49.4114    4.1250   15.6550 H   0  0  0  0  0  0  0  0  0  0  0  0
   48.1414    5.4526   18.1095 H   0  0  0  0  0  0  0  0  0  0  0  0
   49.3836    4.2155   18.1755 H   0  0  0  0  0  0  0  0  0  0  0  0
   49.9587    6.8381   18.3301 H   0  0  0  0  0  0  0  0  0  0  0  0
   51.0634    5.7023   17.5626 H   0  0  0  0  0  0  0  0  0  0  0  0
   44.0773    9.8360   10.8969 H   0  0  0  0  0  0  0  0  0  0  0  0
   44.4706   12.7937   10.9023 H   0  0  0  0  0  0  0  0  0  0  0  0
   43.0302   11.9021   10.4210 H   0  0  0  0  0  0  0  0  0  0  0  0
   46.5854   12.6556    9.4459 H   0  0  0  0  0  0  0  0  0  0  0  0
   47.3748   12.6246    7.0869 H   0  0  0  0  0  0  0  0  0  0  0  0
   43.5790   11.0855    5.8119 H   0  0  0  0  0  0  0  0  0  0  0  0
   44.3315    5.9659   11.9542 H   0  0  0  0  0  0  0  0  0  0  0  0
   47.7587    2.7912   17.1055 H   0  0  0  0  0  0  0  0  0  0  0  0
   46.5318    4.0162   16.7261 H   0  0  0  0  0  0  0  0  0  0  0  0
   47.2301    3.0090   15.4501 H   0  0  0  0  0  0  0  0  0  0  0  0
  1  2  1  0
  2  3  1  0
  3  4  2  0
  5  6  1  0
  6  1  2  0
  4  7  1  0
  5  4  1  0
 10  5  1  0
  7  8  1  0
  9 10  1  0
  8 11  1  0
  9  8  1  0
 14  9  1  0
 11 12  1  0
 12 13  1  0
 13 14  1  0
  1 15  1  0
 15 16  2  0
 15 17  1  0
 17 18  1  0
 18 19  1  0
 19 20  2  0
 19 24  1  0
 20 21  1  0
 21 22  2  0
 22 23  1  0
 23 24  2  0
 22 25  1  0
 24 26  1  0
  2 27  2  0
  3 28  1  0
  7 29  2  0
 11 30  1  0
  6 31  1  0
  9 32  1  1
 10 33  1  0
 10 34  1  0
 11 35  1  6
 12 36  1  0
 12 37  1  0
 13 38  1  0
 13 39  1  0
 17 40  1  0
 18 41  1  0
 18 42  1  0
 20 43  1  0
 21 44  1  0
 23 45  1  0
 28 46  1  0
 30 47  1  0
 30 48  1  0
 30 49  1  0
M  END
> <Uni-Dock RESULT> 
ENERGY=   -4.645  LOWER_BOUND=    4.754  UPPER_BOUND=    6.061
INTER + INTRA:          -4.645
INTER:                  -4.645
INTRA:                   0.000
UNBOUND:                 0.000

$$$$

     RDKit          3D

 49 52  0  0  0  0  0  0  0  0999 V2000
   46.2605    9.7167   12.2398 C   0  0  0  0  0  0  0  0  0  0  0  0
   45.3902    8.5236   12.0968 C   0  0  0  0  0  0  0  0  0  0  0  0
   45.8039    7.2390   12.7456 C   0  0  0  0  0  0  0  0  0  0  0  0
   46.9546    7.2286   13.4490 C   0  0  0  0  0  0  0  0  0  0  0  0
   47.7378    8.3816   13.6159 N   0  0  0  0  0  0  0  0  0  0  0  0
   47.3691    9.5583   12.9808 C   0  0  0  0  0  0  0  0  0  0  0  0
   47.4151    5.9328   14.1002 C   0  0  0  0  0  0  0  0  0  0  0  0
   48.1926    6.0740   15.2508 N   0  0  0  0  0  0  0  0  0  0  0  0
   48.8616    7.3378   15.5481 C   0  0  2  0  0  0  0  0  0  0  0  0
   49.0163    8.2534   14.3196 C   0  0  0  0  0  0  0  0  0  0  0  0
   48.5414    4.9129   16.0857 C   0  0  1  0  0  0  0  0  0  0  0  0
   49.0945    5.3895   17.4334 C   0  0  0  0  0  0  0  0  0  0  0  0
   50.2305    6.3776   17.2527 C   0  0  0  0  0  0  0  0  0  0  0  0
   50.1841    7.0545   16.0065 O   0  0  0  0  0  0  0  0  0  0  0  0
   45.9916   11.0450   11.6246 C   0  0  0  0  0  0  0  0  0  0  0  0
   46.7728   11.9834   11.7586 O   0  0  0  0  0  0  0  0  0  0  0  0
   44.8292   11.1372   10.9066 N   0  0  0  0  0  0  0  0  0  0  0  0
   44.4537   12.3233   10.1731 C   0  0  0  0  0  0  0  0  0  0  0  0
   44.8675   12.2240    8.7312 C   0  0  0  0  0  0  0  0  0  0  0  0
   46.1849   12.5139    8.3418 C   0  0  0  0  0  0  0  0  0  0  0  0
   46.5635   12.4001    7.0028 C   0  0  0  0  0  0  0  0  0  0  0  0
   45.6292   11.9927    6.0560 C   0  0  0  0  0  0  0  0  0  0  0  0
   44.3240   11.6943    6.4195 C   0  0  0  0  0  0  0  0  0  0  0  0
   43.9552   11.8100    7.7546 C   0  0  0  0  0  0  0  0  0  0  0  0
   45.9972   11.8844    4.7728 F   0  0  0  0  0  0  0  0  0  0  0  0
   42.6943   11.5149    8.1023 F   0  0  0  0  0  0  0  0  0  0  0  0
   44.3360    8.5471   11.4579 O   0  0  0  0  0  0  0  0  0  0  0  0
   44.9502    6.1647   12.5928 O   0  0  0  0  0  0  0  0  0  0  0  0
   47.1233    4.8379   13.6290 O   0  0  0  0  0  0  0  0  0  0  0  0
   47.3572    3.9810   16.3830 C   0  0  0  0  0  0  0  0  0  0  0  0
   48.0665   10.3818   13.1281 H   0  0  0  0  0  0  0  0  0  0  0  0
   48.2883    7.8526   16.3301 H   0  0  0  0  0  0  0  0  0  0  0  0
   49.3993    9.2284   14.6473 H   0  0  0  0  0  0  0  0  0  0  0  0
   49.7675    7.8443   13.6305 H   0  0  0  0  0  0  0  0  0  0  0  0
   49.3141    4.3510   15.5464 H   0  0  0  0  0  0  0  0  0  0  0  0
   48.2919    5.8896   17.9933 H   0  0  0  0  0  0  0  0  0  0  0  0
   49.4242    4.5512   18.0582 H   0  0  0  0  0  0  0  0  0  0  0  0
   50.2310    7.1167   18.0615 H   0  0  0  0  0  0  0  0  0  0  0  0
   51.1923    5.8557   17.2966 H   0  0  0  0  0  0  0  0  0  0  0  0
   44.2551   10.3036   10.7840 H   0  0  0  0  0  0  0  0  0  0  0  0
   44.9023   13.2124   10.6313 H   0  0  0  0  0  0  0  0  0  0  0  0
   43.3673   12.4322   10.2617 H   0  0  0  0  0  0  0  0  0  0  0  0
   46.9192   12.8252    9.0839 H   0  0  0  0  0  0  0  0  0  0  0  0
   47.5802   12.6234    6.6940 H   0  0  0  0  0  0  0  0  0  0  0  0
   43.6049   11.3738    5.6753 H   0  0  0  0  0  0  0  0  0  0  0  0
   44.2281    6.4750   12.0092 H   0  0  0  0  0  0  0  0  0  0  0  0
   47.6293    3.2321   17.1352 H   0  0  0  0  0  0  0  0  0  0  0  0
   46.4950    4.5438   16.7574 H   0  0  0  0  0  0  0  0  0  0  0  0
   47.0369    3.4250   15.4984 H   0  0  0  0  0  0  0  0  0  0  0  0
  1  2  1  0
  2  3  1  0
  3  4  2  0
  5  6  1  0
  6  1  2  0
  4  7  1  0
  5  4  1  0
 10  5  1  0
  7  8  1  0
  9 10  1  0
  8 11  1  0
  9  8  1  0
 14  9  1  0
 11 12  1  0
 12 13  1  0
 13 14  1  0
  1 15  1  0
 15 16  2  0
 15 17  1  0
 17 18  1  0
 18 19  1  0
 19 20  2  0
 19 24  1  0
 20 21  1  0
 21 22  2  0
 22 23  1  0
 23 24  2  0
 22 25  1  0
 24 26  1  0
  2 27  2  0
  3 28  1  0
  7 29  2  0
 11 30  1  0
  6 31  1  0
  9 32  1  1
 10 33  1  0
 10 34  1  0
 11 35  1  6
 12 36  1  0
 12 37  1  0
 13 38  1  0
 13 39  1  0
 17 40  1  0
 18 41  1  0
 18 42  1  0
 20 43  1  0
 21 44  1  0
 23 45  1  0
 28 46  1  0
 30 47  1  0
 30 48  1  0
 30 49  1  0
M  END
> <Uni-Dock RESULT> 
ENERGY=   -4.435  LOWER_BOUND=    4.917  UPPER_BOUND=    6.221
INTER + INTRA:          -4.435
INTER:                  -4.435
INTRA:                   0.000
UNBOUND:                 0.000

$$$$
