
     RDKit          3D

 49 52  0  0  0  0  0  0  0  0999 V2000
   47.9063    5.1997   17.0486 C   0  0  0  0  0  0  0  0  0  0  0  0
   48.6831    6.4178   16.7214 C   0  0  0  0  0  0  0  0  0  0  0  0
   49.2052    7.2716   17.8357 C   0  0  0  0  0  0  0  0  0  0  0  0
   48.9554    6.8889   19.1071 C   0  0  0  0  0  0  0  0  0  0  0  0
   48.2494    5.6986   19.3959 N   0  0  0  0  0  0  0  0  0  0  0  0
   47.7423    4.9340   18.3535 C   0  0  0  0  0  0  0  0  0  0  0  0
   49.4461    7.7735   20.2574 C   0  0  0  0  0  0  0  0  0  0  0  0
   49.3726    7.2168   21.5351 N   0  0  0  0  0  0  0  0  0  0  0  0
   49.1454    5.7914   21.6840 C   0  0  2  0  0  0  0  0  0  0  0  0
   47.9842    5.3241   20.7954 C   0  0  0  0  0  0  0  0  0  0  0  0
   49.9267    7.9433   22.6756 C   0  0  1  0  0  0  0  0  0  0  0  0
   49.1235    7.6562   23.9482 C   0  0  0  0  0  0  0  0  0  0  0  0
   48.2342    6.4354   23.7878 C   0  0  0  0  0  0  0  0  0  0  0  0
   48.9237    5.4341   23.0513 O   0  0  0  0  0  0  0  0  0  0  0  0
   47.3044    4.2800   16.0452 C   0  0  0  0  0  0  0  0  0  0  0  0
   46.6065    3.3296   16.3861 O   0  0  0  0  0  0  0  0  0  0  0  0
   47.5863    4.5757   14.7370 N   0  0  0  0  0  0  0  0  0  0  0  0
   46.9994    3.8513   13.6305 C   0  0  0  0  0  0  0  0  0  0  0  0
   45.7033    4.4540   13.1511 C   0  0  0  0  0  0  0  0  0  0  0  0
   45.4594    5.8377   13.1733 C   0  0  0  0  0  0  0  0  0  0  0  0
   44.2535    6.3502   12.6882 C   0  0  0  0  0  0  0  0  0  0  0  0
   43.2964    5.4860   12.1674 C   0  0  0  0  0  0  0  0  0  0  0  0
   43.5216    4.1192   12.1141 C   0  0  0  0  0  0  0  0  0  0  0  0
   44.7237    3.6171   12.5993 C   0  0  0  0  0  0  0  0  0  0  0  0
   42.1439    5.9841   11.7014 F   0  0  0  0  0  0  0  0  0  0  0  0
   44.9436    2.2966   12.5202 F   0  0  0  0  0  0  0  0  0  0  0  0
   48.9093    6.7630   15.5590 O   0  0  0  0  0  0  0  0  0  0  0  0
   49.9189    8.3923   17.4607 O   0  0  0  0  0  0  0  0  0  0  0  0
   49.8429    8.9228   20.0860 O   0  0  0  0  0  0  0  0  0  0  0  0
   51.4162    7.6334   22.8548 C   0  0  0  0  0  0  0  0  0  0  0  0
   47.1777    4.0598   18.6768 H   0  0  0  0  0  0  0  0  0  0  0  0
   50.0635    5.2800   21.3674 H   0  0  0  0  0  0  0  0  0  0  0  0
   47.8649    4.2386   20.9029 H   0  0  0  0  0  0  0  0  0  0  0  0
   47.0383    5.7775   21.1159 H   0  0  0  0  0  0  0  0  0  0  0  0
   49.8528    9.0193   22.4744 H   0  0  0  0  0  0  0  0  0  0  0  0
   49.8013    7.5117   24.7983 H   0  0  0  0  0  0  0  0  0  0  0  0
   48.4955    8.5177   24.2058 H   0  0  0  0  0  0  0  0  0  0  0  0
   47.9794    6.0262   24.7707 H   0  0  0  0  0  0  0  0  0  0  0  0
   47.2905    6.6885   23.2903 H   0  0  0  0  0  0  0  0  0  0  0  0
   48.1433    5.4023   14.5279 H   0  0  0  0  0  0  0  0  0  0  0  0
   46.8508    2.8101   13.9373 H   0  0  0  0  0  0  0  0  0  0  0  0
   47.7251    3.8673   12.8102 H   0  0  0  0  0  0  0  0  0  0  0  0
   46.2015    6.5278   13.5686 H   0  0  0  0  0  0  0  0  0  0  0  0
   44.0564    7.4178   12.7106 H   0  0  0  0  0  0  0  0  0  0  0  0
   42.7756    3.4533   11.6976 H   0  0  0  0  0  0  0  0  0  0  0  0
   49.9139    8.4050   16.4822 H   0  0  0  0  0  0  0  0  0  0  0  0
   51.8424    8.2349   23.6645 H   0  0  0  0  0  0  0  0  0  0  0  0
   51.5822    6.5775   23.0937 H   0  0  0  0  0  0  0  0  0  0  0  0
   51.9748    7.8569   21.9395 H   0  0  0  0  0  0  0  0  0  0  0  0
  1  2  1  0
  2  3  1  0
  3  4  2  0
  5  6  1  0
  6  1  2  0
  4  7  1  0
  5  4  1  0
 10  5  1  0
  7  8  1  0
  9 10  1  0
  8 11  1  0
  9  8  1  0
 14  9  1  0
 11 12  1  0
 12 13  1  0
 13 14  1  0
  1 15  1  0
 15 16  2  0
 15 17  1  0
 17 18  1  0
 18 19  1  0
 19 20  2  0
 19 24  1  0
 20 21  1  0
 21 22  2  0
 22 23  1  0
 23 24  2  0
 22 25  1  0
 24 26  1  0
  2 27  2  0
  3 28  1  0
  7 29  2  0
 11 30  1  0
  6 31  1  0
  9 32  1  6
 10 33  1  0
 10 34  1  0
 11 35  1  1
 12 36  1  0
 12 37  1  0
 13 38  1  0
 13 39  1  0
 17 40  1  0
 18 41  1  0
 18 42  1  0
 20 43  1  0
 21 44  1  0
 23 45  1  0
 28 46  1  0
 30 47  1  0
 30 48  1  0
 30 49  1  0
M  END
> <Uni-Dock RESULT> 
ENERGY=   -4.280  LOWER_BOUND=    0.000  UPPER_BOUND=    0.000
INTER + INTRA:          -4.280
INTER:                  -4.280
INTRA:                   0.000
UNBOUND:                 0.000

$$$$

     RDKit          3D

 49 52  0  0  0  0  0  0  0  0999 V2000
   44.2655    9.2058   11.5097 C   0  0  0  0  0  0  0  0  0  0  0  0
   45.6523    9.6726   11.7401 C   0  0  0  0  0  0  0  0  0  0  0  0
   45.9419   11.1418   11.7123 C   0  0  0  0  0  0  0  0  0  0  0  0
   44.9168   11.9926   11.4877 C   0  0  0  0  0  0  0  0  0  0  0  0
   43.5934   11.5267   11.3142 N   0  0  0  0  0  0  0  0  0  0  0  0
   43.3443   10.1605   11.3090 C   0  0  0  0  0  0  0  0  0  0  0  0
   45.2036   13.4956   11.4142 C   0  0  0  0  0  0  0  0  0  0  0  0
   44.0885   14.3349   11.4201 N   0  0  0  0  0  0  0  0  0  0  0  0
   42.7917   13.8015   11.7932 C   0  0  2  0  0  0  0  0  0  0  0  0
   42.5059   12.4857   11.0560 C   0  0  0  0  0  0  0  0  0  0  0  0
   44.2718   15.7838   11.4710 C   0  0  1  0  0  0  0  0  0  0  0  0
   43.1542   16.5026   10.7083 C   0  0  0  0  0  0  0  0  0  0  0  0
   41.9761   15.5826   10.4393 C   0  0  0  0  0  0  0  0  0  0  0  0
   41.7476   14.7536   11.5711 O   0  0  0  0  0  0  0  0  0  0  0  0
   43.8425    7.7792   11.4793 C   0  0  0  0  0  0  0  0  0  0  0  0
   42.6894    7.4596   11.2062 O   0  0  0  0  0  0  0  0  0  0  0  0
   44.8255    6.8709   11.7739 N   0  0  0  0  0  0  0  0  0  0  0  0
   44.6168    5.4417   11.6884 C   0  0  0  0  0  0  0  0  0  0  0  0
   44.9491    4.8766   10.3307 C   0  0  0  0  0  0  0  0  0  0  0  0
   45.9823    5.3921    9.5297 C   0  0  0  0  0  0  0  0  0  0  0  0
   46.2721    4.8129    8.2916 C   0  0  0  0  0  0  0  0  0  0  0  0
   45.5427    3.7112    7.8577 C   0  0  0  0  0  0  0  0  0  0  0  0
   44.5331    3.1703    8.6388 C   0  0  0  0  0  0  0  0  0  0  0  0
   44.2505    3.7526    9.8691 C   0  0  0  0  0  0  0  0  0  0  0  0
   45.8275    3.1590    6.6714 F   0  0  0  0  0  0  0  0  0  0  0  0
   43.2899    3.2071   10.6292 F   0  0  0  0  0  0  0  0  0  0  0  0
   46.5851    8.8920   11.9456 O   0  0  0  0  0  0  0  0  0  0  0  0
   47.2548   11.5077   11.9328 O   0  0  0  0  0  0  0  0  0  0  0  0
   46.3403   13.9486   11.3119 O   0  0  0  0  0  0  0  0  0  0  0  0
   44.3863   16.2738   12.9179 C   0  0  0  0  0  0  0  0  0  0  0  0
   42.3024    9.8990   11.1261 H   0  0  0  0  0  0  0  0  0  0  0  0
   42.8180   13.6057   12.8728 H   0  0  0  0  0  0  0  0  0  0  0  0
   41.5376   12.0912   11.3893 H   0  0  0  0  0  0  0  0  0  0  0  0
   42.4222   12.6521    9.9751 H   0  0  0  0  0  0  0  0  0  0  0  0
   45.2204   16.0341   10.9798 H   0  0  0  0  0  0  0  0  0  0  0  0
   42.8171   17.3814   11.2715 H   0  0  0  0  0  0  0  0  0  0  0  0
   43.5293   16.8834    9.7507 H   0  0  0  0  0  0  0  0  0  0  0  0
   41.0731   16.1742   10.2575 H   0  0  0  0  0  0  0  0  0  0  0  0
   42.1425   14.9674    9.5472 H   0  0  0  0  0  0  0  0  0  0  0  0
   45.7693    7.2080   11.9556 H   0  0  0  0  0  0  0  0  0  0  0  0
   43.5753    5.2268   11.9516 H   0  0  0  0  0  0  0  0  0  0  0  0
   45.2641    4.9734   12.4377 H   0  0  0  0  0  0  0  0  0  0  0  0
   46.5682    6.2474    9.8589 H   0  0  0  0  0  0  0  0  0  0  0  0
   47.0637    5.2124    7.6649 H   0  0  0  0  0  0  0  0  0  0  0  0
   43.9762    2.3056    8.2987 H   0  0  0  0  0  0  0  0  0  0  0  0
   47.7555   10.6746   12.0462 H   0  0  0  0  0  0  0  0  0  0  0  0
   44.5957   17.3482   12.9478 H   0  0  0  0  0  0  0  0  0  0  0  0
   43.4631   16.0930   13.4789 H   0  0  0  0  0  0  0  0  0  0  0  0
   45.1979   15.7579   13.4422 H   0  0  0  0  0  0  0  0  0  0  0  0
  1  2  1  0
  2  3  1  0
  3  4  2  0
  5  6  1  0
  6  1  2  0
  4  7  1  0
  5  4  1  0
 10  5  1  0
  7  8  1  0
  9 10  1  0
  8 11  1  0
  9  8  1  0
 14  9  1  0
 11 12  1  0
 12 13  1  0
 13 14  1  0
  1 15  1  0
 15 16  2  0
 15 17  1  0
 17 18  1  0
 18 19  1  0
 19 20  2  0
 19 24  1  0
 20 21  1  0
 21 22  2  0
 22 23  1  0
 23 24  2  0
 22 25  1  0
 24 26  1  0
  2 27  2  0
  3 28  1  0
  7 29  2  0
 11 30  1  0
  6 31  1  0
  9 32  1  6
 10 33  1  0
 10 34  1  0
 11 35  1  1
 12 36  1  0
 12 37  1  0
 13 38  1  0
 13 39  1  0
 17 40  1  0
 18 41  1  0
 18 42  1  0
 20 43  1  0
 21 44  1  0
 23 45  1  0
 28 46  1  0
 30 47  1  0
 30 48  1  0
 30 49  1  0
M  END
> <Uni-Dock RESULT> 
ENERGY=   -4.014  LOWER_BOUND=    7.779  UPPER_BOUND=    9.915
INTER + INTRA:          -4.014
INTER:                  -4.014
INTRA:                   0.000
UNBOUND:                 0.000

$$$$

     RDKit          3D

 49 52  0  0  0  0  0  0  0  0999 V2000
   48.6484    7.5027   14.9750 C   0  0  0  0  0  0  0  0  0  0  0  0
   47.9951    8.6821   14.3615 C   0  0  0  0  0  0  0  0  0  0  0  0
   46.8793    8.4726   13.3847 C   0  0  0  0  0  0  0  0  0  0  0  0
   46.5006    7.2058   13.1068 C   0  0  0  0  0  0  0  0  0  0  0  0
   47.1092    6.0968   13.7379 N   0  0  0  0  0  0  0  0  0  0  0  0
   48.1647    6.3037   14.6162 C   0  0  0  0  0  0  0  0  0  0  0  0
   45.3895    6.9732   12.0782 C   0  0  0  0  0  0  0  0  0  0  0  0
   44.8790    5.6761   12.0080 N   0  0  0  0  0  0  0  0  0  0  0  0
   45.1789    4.7294   13.0661 C   0  0  2  0  0  0  0  0  0  0  0  0
   46.6780    4.7306   13.3961 C   0  0  0  0  0  0  0  0  0  0  0  0
   43.7389    5.3916   11.1394 C   0  0  1  0  0  0  0  0  0  0  0  0
   43.8202    3.9675   10.5805 C   0  0  0  0  0  0  0  0  0  0  0  0
   44.8156    3.1177   11.3511 C   0  0  0  0  0  0  0  0  0  0  0  0
   44.7246    3.4132   12.7385 O   0  0  0  0  0  0  0  0  0  0  0  0
   49.7849    7.5630   15.9340 C   0  0  0  0  0  0  0  0  0  0  0  0
   50.3299    6.5431   16.3451 O   0  0  0  0  0  0  0  0  0  0  0  0
   50.1657    8.8243   16.3115 N   0  0  0  0  0  0  0  0  0  0  0  0
   51.3166    9.0716   17.1528 C   0  0  0  0  0  0  0  0  0  0  0  0
   52.5892    9.2707   16.3693 C   0  0  0  0  0  0  0  0  0  0  0  0
   52.6108    9.8887   15.1074 C   0  0  0  0  0  0  0  0  0  0  0  0
   53.8207   10.0786   14.4347 C   0  0  0  0  0  0  0  0  0  0  0  0
   55.0104    9.6662   15.0251 C   0  0  0  0  0  0  0  0  0  0  0  0
   55.0182    9.0739   16.2784 C   0  0  0  0  0  0  0  0  0  0  0  0
   53.8103    8.8880   16.9410 C   0  0  0  0  0  0  0  0  0  0  0  0
   56.1668    9.8538   14.3762 F   0  0  0  0  0  0  0  0  0  0  0  0
   53.8297    8.3378   18.1637 F   0  0  0  0  0  0  0  0  0  0  0  0
   48.3438    9.8370   14.6187 O   0  0  0  0  0  0  0  0  0  0  0  0
   46.3163    9.6140   12.8496 O   0  0  0  0  0  0  0  0  0  0  0  0
   44.9911    7.8554   11.3228 O   0  0  0  0  0  0  0  0  0  0  0  0
   42.4152    5.6480   11.8667 C   0  0  0  0  0  0  0  0  0  0  0  0
   48.5950    5.3869   15.0183 H   0  0  0  0  0  0  0  0  0  0  0  0
   44.6188    5.0461   13.9553 H   0  0  0  0  0  0  0  0  0  0  0  0
   46.8634    4.0342   14.2237 H   0  0  0  0  0  0  0  0  0  0  0  0
   47.2672    4.3701   12.5441 H   0  0  0  0  0  0  0  0  0  0  0  0
   43.7668    6.0825   10.2875 H   0  0  0  0  0  0  0  0  0  0  0  0
   42.8310    3.4943   10.6062 H   0  0  0  0  0  0  0  0  0  0  0  0
   44.1177    3.9880    9.5251 H   0  0  0  0  0  0  0  0  0  0  0  0
   44.5899    2.0558   11.2094 H   0  0  0  0  0  0  0  0  0  0  0  0
   45.8405    3.2787   10.9965 H   0  0  0  0  0  0  0  0  0  0  0  0
   49.6904    9.6260   15.9008 H   0  0  0  0  0  0  0  0  0  0  0  0
   51.4209    8.2351   17.8526 H   0  0  0  0  0  0  0  0  0  0  0  0
   51.1079    9.9785   17.7305 H   0  0  0  0  0  0  0  0  0  0  0  0
   51.6901   10.2254   14.6362 H   0  0  0  0  0  0  0  0  0  0  0  0
   53.8424   10.5480   13.4558 H   0  0  0  0  0  0  0  0  0  0  0  0
   55.9499    8.7647   16.7363 H   0  0  0  0  0  0  0  0  0  0  0  0
   46.8121   10.3674   13.2294 H   0  0  0  0  0  0  0  0  0  0  0  0
   41.5667    5.5033   11.1898 H   0  0  0  0  0  0  0  0  0  0  0  0
   42.2868    4.9732   12.7198 H   0  0  0  0  0  0  0  0  0  0  0  0
   42.3708    6.6740   12.2475 H   0  0  0  0  0  0  0  0  0  0  0  0
  1  2  1  0
  2  3  1  0
  3  4  2  0
  5  6  1  0
  6  1  2  0
  4  7  1  0
  5  4  1  0
 10  5  1  0
  7  8  1  0
  9 10  1  0
  8 11  1  0
  9  8  1  0
 14  9  1  0
 11 12  1  0
 12 13  1  0
 13 14  1  0
  1 15  1  0
 15 16  2  0
 15 17  1  0
 17 18  1  0
 18 19  1  0
 19 20  2  0
 19 24  1  0
 20 21  1  0
 21 22  2  0
 22 23  1  0
 23 24  2  0
 22 25  1  0
 24 26  1  0
  2 27  2  0
  3 28  1  0
  7 29  2  0
 11 30  1  0
  6 31  1  0
  9 32  1  6
 10 33  1  0
 10 34  1  0
 11 35  1  1
 12 36  1  0
 12 37  1  0
 13 38  1  0
 13 39  1  0
 17 40  1  0
 18 41  1  0
 18 42  1  0
 20 43  1  0
 21 44  1  0
 23 45  1  0
 28 46  1  0
 30 47  1  0
 30 48  1  0
 30 49  1  0
M  END
> <Uni-Dock RESULT> 
ENERGY=   -3.958  LOWER_BOUND=    5.174  UPPER_BOUND=    9.595
INTER + INTRA:          -3.958
INTER:                  -3.958
INTRA:                   0.000
UNBOUND:                 0.000

$$$$

     RDKit          3D

 49 52  0  0  0  0  0  0  0  0999 V2000
   44.8266   10.2416   11.5533 C   0  0  0  0  0  0  0  0  0  0  0  0
   45.4617   11.5793   11.5170 C   0  0  0  0  0  0  0  0  0  0  0  0
   46.8574   11.7389   12.0362 C   0  0  0  0  0  0  0  0  0  0  0  0
   47.4932   10.6455   12.5111 C   0  0  0  0  0  0  0  0  0  0  0  0
   46.8833    9.3703   12.4953 N   0  0  0  0  0  0  0  0  0  0  0  0
   45.5769    9.2423   12.0421 C   0  0  0  0  0  0  0  0  0  0  0  0
   48.9053   10.7999   13.0846 C   0  0  0  0  0  0  0  0  0  0  0  0
   49.5990    9.6153   13.3365 N   0  0  0  0  0  0  0  0  0  0  0  0
   49.1096    8.3664   12.7832 C   0  0  2  0  0  0  0  0  0  0  0  0
   47.6041    8.2055   13.0365 C   0  0  0  0  0  0  0  0  0  0  0  0
   50.9926    9.6699   13.7728 C   0  0  1  0  0  0  0  0  0  0  0  0
   51.3176    8.5020   14.7095 C   0  0  0  0  0  0  0  0  0  0  0  0
   50.2621    7.4124   14.6358 C   0  0  0  0  0  0  0  0  0  0  0  0
   49.8397    7.2451   13.2890 O   0  0  0  0  0  0  0  0  0  0  0  0
   43.4400    9.9460   11.1006 C   0  0  0  0  0  0  0  0  0  0  0  0
   42.9492    8.8285   11.2305 O   0  0  0  0  0  0  0  0  0  0  0  0
   42.7699   11.0018   10.5399 N   0  0  0  0  0  0  0  0  0  0  0  0
   41.3810   10.9205   10.1424 C   0  0  0  0  0  0  0  0  0  0  0  0
   40.4280   11.3162   11.2417 C   0  0  0  0  0  0  0  0  0  0  0  0
   40.7357   12.3088   12.1876 C   0  0  0  0  0  0  0  0  0  0  0  0
   39.8055   12.6621   13.1685 C   0  0  0  0  0  0  0  0  0  0  0  0
   38.5634   12.0372   13.1985 C   0  0  0  0  0  0  0  0  0  0  0  0
   38.2274   11.0706   12.2633 C   0  0  0  0  0  0  0  0  0  0  0  0
   39.1585   10.7243   11.2909 C   0  0  0  0  0  0  0  0  0  0  0  0
   37.6754   12.3826   14.1395 F   0  0  0  0  0  0  0  0  0  0  0  0
   38.8155    9.8069   10.3749 F   0  0  0  0  0  0  0  0  0  0  0  0
   44.8776   12.5748   11.0818 O   0  0  0  0  0  0  0  0  0  0  0  0
   47.3881   13.0120   11.9744 O   0  0  0  0  0  0  0  0  0  0  0  0
   49.3952   11.8935   13.3527 O   0  0  0  0  0  0  0  0  0  0  0  0
   51.9434    9.7249   12.5728 C   0  0  0  0  0  0  0  0  0  0  0  0
   45.1803    8.2295   12.1082 H   0  0  0  0  0  0  0  0  0  0  0  0
   49.2866    8.3979   11.7005 H   0  0  0  0  0  0  0  0  0  0  0  0
   47.2605    7.2721   12.5730 H   0  0  0  0  0  0  0  0  0  0  0  0
   47.3942    8.1195   14.1096 H   0  0  0  0  0  0  0  0  0  0  0  0
   51.1467   10.5982   14.3369 H   0  0  0  0  0  0  0  0  0  0  0  0
   52.3009    8.0827   14.4637 H   0  0  0  0  0  0  0  0  0  0  0  0
   51.3897    8.8528   15.7461 H   0  0  0  0  0  0  0  0  0  0  0  0
   50.6792    6.4629   14.9866 H   0  0  0  0  0  0  0  0  0  0  0  0
   49.4023    7.6421   15.2762 H   0  0  0  0  0  0  0  0  0  0  0  0
   43.2286   11.9102   10.4982 H   0  0  0  0  0  0  0  0  0  0  0  0
   41.1764    9.8991    9.8032 H   0  0  0  0  0  0  0  0  0  0  0  0
   41.2461   11.5981    9.2924 H   0  0  0  0  0  0  0  0  0  0  0  0
   41.6990   12.8136   12.1720 H   0  0  0  0  0  0  0  0  0  0  0  0
   40.0411   13.4224   13.9071 H   0  0  0  0  0  0  0  0  0  0  0  0
   37.2540   10.5957   12.2867 H   0  0  0  0  0  0  0  0  0  0  0  0
   46.6866   13.5828   11.6004 H   0  0  0  0  0  0  0  0  0  0  0  0
   52.9806    9.8387   12.9051 H   0  0  0  0  0  0  0  0  0  0  0  0
   51.8799    8.8151   11.9663 H   0  0  0  0  0  0  0  0  0  0  0  0
   51.7033   10.5729   11.9225 H   0  0  0  0  0  0  0  0  0  0  0  0
  1  2  1  0
  2  3  1  0
  3  4  2  0
  5  6  1  0
  6  1  2  0
  4  7  1  0
  5  4  1  0
 10  5  1  0
  7  8  1  0
  9 10  1  0
  8 11  1  0
  9  8  1  0
 14  9  1  0
 11 12  1  0
 12 13  1  0
 13 14  1  0
  1 15  1  0
 15 16  2  0
 15 17  1  0
 17 18  1  0
 18 19  1  0
 19 20  2  0
 19 24  1  0
 20 21  1  0
 21 22  2  0
 22 23  1  0
 23 24  2  0
 22 25  1  0
 24 26  1  0
  2 27  2  0
  3 28  1  0
  7 29  2  0
 11 30  1  0
  6 31  1  0
  9 32  1  6
 10 33  1  0
 10 34  1  0
 11 35  1  1
 12 36  1  0
 12 37  1  0
 13 38  1  0
 13 39  1  0
 17 40  1  0
 18 41  1  0
 18 42  1  0
 20 43  1  0
 21 44  1  0
 23 45  1  0
 28 46  1  0
 30 47  1  0
 30 48  1  0
 30 49  1  0
M  END
> <Uni-Dock RESULT> 
ENERGY=   -3.891  LOWER_BOUND=    6.257  UPPER_BOUND=    8.622
INTER + INTRA:          -3.891
INTER:                  -3.891
INTRA:                   0.000
UNBOUND:                 0.000

$$$$

     RDKit          3D

 49 52  0  0  0  0  0  0  0  0999 V2000
   46.5470   10.5211   11.8855 C   0  0  0  0  0  0  0  0  0  0  0  0
   48.0035   10.3196   11.7058 C   0  0  0  0  0  0  0  0  0  0  0  0
   48.8439   11.4610   11.2222 C   0  0  0  0  0  0  0  0  0  0  0  0
   48.2384   12.6437   10.9773 C   0  0  0  0  0  0  0  0  0  0  0  0
   46.8539   12.8253   11.1980 N   0  0  0  0  0  0  0  0  0  0  0  0
   46.0807   11.7497   11.6146 C   0  0  0  0  0  0  0  0  0  0  0  0
   49.0767   13.8087   10.4419 C   0  0  0  0  0  0  0  0  0  0  0  0
   48.4570   15.0592   10.4348 N   0  0  0  0  0  0  0  0  0  0  0  0
   47.2298   15.2555   11.1838 C   0  0  2  0  0  0  0  0  0  0  0  0
   46.2286   14.1260   10.9041 C   0  0  0  0  0  0  0  0  0  0  0  0
   49.2207   16.2447   10.0515 C   0  0  1  0  0  0  0  0  0  0  0  0
   48.3222   17.2708    9.3537 C   0  0  0  0  0  0  0  0  0  0  0  0
   46.8499   16.9744    9.5802 C   0  0  0  0  0  0  0  0  0  0  0  0
   46.6499   16.5356   10.9173 O   0  0  0  0  0  0  0  0  0  0  0  0
   45.5914    9.4697   12.3286 C   0  0  0  0  0  0  0  0  0  0  0  0
   44.3841    9.6841   12.3825 O   0  0  0  0  0  0  0  0  0  0  0  0
   46.1579    8.2675   12.6633 N   0  0  0  0  0  0  0  0  0  0  0  0
   45.3700    7.1055   13.0135 C   0  0  0  0  0  0  0  0  0  0  0  0
   45.0248    6.2457   11.8241 C   0  0  0  0  0  0  0  0  0  0  0  0
   45.8902    6.0893   10.7281 C   0  0  0  0  0  0  0  0  0  0  0  0
   45.5380    5.2558    9.6634 C   0  0  0  0  0  0  0  0  0  0  0  0
   44.3305    4.5665    9.6971 C   0  0  0  0  0  0  0  0  0  0  0  0
   43.4693    4.6867   10.7768 C   0  0  0  0  0  0  0  0  0  0  0  0
   43.8267    5.5184   11.8318 C   0  0  0  0  0  0  0  0  0  0  0  0
   44.0004    3.7669    8.6748 F   0  0  0  0  0  0  0  0  0  0  0  0
   42.9997    5.6087   12.8834 F   0  0  0  0  0  0  0  0  0  0  0  0
   48.5522    9.2381   11.9314 O   0  0  0  0  0  0  0  0  0  0  0  0
   50.1925   11.2044   11.0751 O   0  0  0  0  0  0  0  0  0  0  0  0
   50.2130   13.6592   10.0011 O   0  0  0  0  0  0  0  0  0  0  0  0
   49.9477   16.8455   11.2588 C   0  0  0  0  0  0  0  0  0  0  0  0
   45.0199   11.9773   11.7160 H   0  0  0  0  0  0  0  0  0  0  0  0
   47.4925   15.2419   12.2494 H   0  0  0  0  0  0  0  0  0  0  0  0
   45.3301   14.2844   11.5139 H   0  0  0  0  0  0  0  0  0  0  0  0
   45.9040   14.1404    9.8565 H   0  0  0  0  0  0  0  0  0  0  0  0
   49.9967   15.9450    9.3362 H   0  0  0  0  0  0  0  0  0  0  0  0
   48.5557   18.2817    9.7098 H   0  0  0  0  0  0  0  0  0  0  0  0
   48.5178   17.2782    8.2746 H   0  0  0  0  0  0  0  0  0  0  0  0
   46.2569   17.8811    9.4227 H   0  0  0  0  0  0  0  0  0  0  0  0
   46.4788   16.2210    8.8753 H   0  0  0  0  0  0  0  0  0  0  0  0
   47.1644    8.1512   12.5591 H   0  0  0  0  0  0  0  0  0  0  0  0
   44.4607    7.4435   13.5225 H   0  0  0  0  0  0  0  0  0  0  0  0
   45.9603    6.5141   13.7218 H   0  0  0  0  0  0  0  0  0  0  0  0
   46.8423    6.6140   10.6908 H   0  0  0  0  0  0  0  0  0  0  0  0
   46.1991    5.1377    8.8101 H   0  0  0  0  0  0  0  0  0  0  0  0
   42.5353    4.1386   10.8006 H   0  0  0  0  0  0  0  0  0  0  0  0
   50.3193   10.2635   11.3122 H   0  0  0  0  0  0  0  0  0  0  0  0
   50.5752   17.6891   10.9528 H   0  0  0  0  0  0  0  0  0  0  0  0
   49.2426   17.2048   12.0160 H   0  0  0  0  0  0  0  0  0  0  0  0
   50.5939   16.1009   11.7360 H   0  0  0  0  0  0  0  0  0  0  0  0
  1  2  1  0
  2  3  1  0
  3  4  2  0
  5  6  1  0
  6  1  2  0
  4  7  1  0
  5  4  1  0
 10  5  1  0
  7  8  1  0
  9 10  1  0
  8 11  1  0
  9  8  1  0
 14  9  1  0
 11 12  1  0
 12 13  1  0
 13 14  1  0
  1 15  1  0
 15 16  2  0
 15 17  1  0
 17 18  1  0
 18 19  1  0
 19 20  2  0
 19 24  1  0
 20 21  1  0
 21 22  2  0
 22 23  1  0
 23 24  2  0
 22 25  1  0
 24 26  1  0
  2 27  2  0
  3 28  1  0
  7 29  2  0
 11 30  1  0
  6 31  1  0
  9 32  1  6
 10 33  1  0
 10 34  1  0
 11 35  1  1
 12 36  1  0
 12 37  1  0
 13 38  1  0
 13 39  1  0
 17 40  1  0
 18 41  1  0
 18 42  1  0
 20 43  1  0
 21 44  1  0
 23 45  1  0
 28 46  1  0
 30 47  1  0
 30 48  1  0
 30 49  1  0
M  END
> <Uni-Dock RESULT> 
ENERGY=   -3.886  LOWER_BOUND=    7.224  UPPER_BOUND=    9.871
INTER + INTRA:          -3.886
INTER:                  -3.886
INTRA:                   0.000
UNBOUND:                 0.000

$$$$

     RDKit          3D

 49 52  0  0  0  0  0  0  0  0999 V2000
   48.5486    5.4535   16.0982 C   0  0  0  0  0  0  0  0  0  0  0  0
   48.7454    6.7495   15.4087 C   0  0  0  0  0  0  0  0  0  0  0  0
   48.0068    7.0174   14.1336 C   0  0  0  0  0  0  0  0  0  0  0  0
   47.1738    6.0634   13.6633 C   0  0  0  0  0  0  0  0  0  0  0  0
   46.9680    4.8516   14.3616 N   0  0  0  0  0  0  0  0  0  0  0  0
   47.6842    4.6023   15.5249 C   0  0  0  0  0  0  0  0  0  0  0  0
   46.4434    6.3047   12.3386 C   0  0  0  0  0  0  0  0  0  0  0  0
   45.4255    5.4026   12.0250 N   0  0  0  0  0  0  0  0  0  0  0  0
   44.9150    4.5128   13.0511 C   0  0  2  0  0  0  0  0  0  0  0  0
   46.0631    3.8301   13.8076 C   0  0  0  0  0  0  0  0  0  0  0  0
   44.5994    5.6248   10.8402 C   0  0  1  0  0  0  0  0  0  0  0  0
   44.1563    4.2930   10.2262 C   0  0  0  0  0  0  0  0  0  0  0  0
   44.3535    3.1365   11.1907 C   0  0  0  0  0  0  0  0  0  0  0  0
   44.0104    3.5472   12.5075 O   0  0  0  0  0  0  0  0  0  0  0  0
   49.2388    5.0435   17.3514 C   0  0  0  0  0  0  0  0  0  0  0  0
   49.0871    3.9227   17.8281 O   0  0  0  0  0  0  0  0  0  0  0  0
   50.0418    5.9994   17.9168 N   0  0  0  0  0  0  0  0  0  0  0  0
   50.8671    5.7376   19.0760 C   0  0  0  0  0  0  0  0  0  0  0  0
   52.2481    5.2488   18.7195 C   0  0  0  0  0  0  0  0  0  0  0  0
   52.9297    5.6822   17.5696 C   0  0  0  0  0  0  0  0  0  0  0  0
   54.2216    5.2237   17.2995 C   0  0  0  0  0  0  0  0  0  0  0  0
   54.8404    4.3449   18.1821 C   0  0  0  0  0  0  0  0  0  0  0  0
   54.1979    3.9195   19.3345 C   0  0  0  0  0  0  0  0  0  0  0  0
   52.9125    4.3798   19.5958 C   0  0  0  0  0  0  0  0  0  0  0  0
   56.0799    3.9116   17.9188 F   0  0  0  0  0  0  0  0  0  0  0  0
   52.3086    3.9833   20.7255 F   0  0  0  0  0  0  0  0  0  0  0  0
   49.5066    7.6180   15.8422 O   0  0  0  0  0  0  0  0  0  0  0  0
   48.2376    8.2436   13.5425 O   0  0  0  0  0  0  0  0  0  0  0  0
   46.7526    7.2084   11.5669 O   0  0  0  0  0  0  0  0  0  0  0  0
   43.4084    6.5330   11.1618 C   0  0  0  0  0  0  0  0  0  0  0  0
   47.4888    3.6256   15.9669 H   0  0  0  0  0  0  0  0  0  0  0  0
   44.3389    5.1252   13.7566 H   0  0  0  0  0  0  0  0  0  0  0  0
   45.6438    3.1960   14.5990 H   0  0  0  0  0  0  0  0  0  0  0  0
   46.6317    3.1684   13.1429 H   0  0  0  0  0  0  0  0  0  0  0  0
   45.2003    6.1512   10.0882 H   0  0  0  0  0  0  0  0  0  0  0  0
   43.1033    4.3480    9.9239 H   0  0  0  0  0  0  0  0  0  0  0  0
   44.7230    4.0877    9.3099 H   0  0  0  0  0  0  0  0  0  0  0  0
   43.7046    2.3005   10.9104 H   0  0  0  0  0  0  0  0  0  0  0  0
   45.3848    2.7650   11.1670 H   0  0  0  0  0  0  0  0  0  0  0  0
   50.1478    6.8958   17.4449 H   0  0  0  0  0  0  0  0  0  0  0  0
   50.3518    5.0089   19.7114 H   0  0  0  0  0  0  0  0  0  0  0  0
   50.9540    6.6773   19.6321 H   0  0  0  0  0  0  0  0  0  0  0  0
   52.4634    6.3766   16.8743 H   0  0  0  0  0  0  0  0  0  0  0  0
   54.7497    5.5488   16.4081 H   0  0  0  0  0  0  0  0  0  0  0  0
   54.6903    3.2430   20.0225 H   0  0  0  0  0  0  0  0  0  0  0  0
   48.8945    8.6997   14.1064 H   0  0  0  0  0  0  0  0  0  0  0  0
   42.8344    6.7546   10.2561 H   0  0  0  0  0  0  0  0  0  0  0  0
   42.7314    6.0683   11.8867 H   0  0  0  0  0  0  0  0  0  0  0  0
   43.7459    7.4841   11.5876 H   0  0  0  0  0  0  0  0  0  0  0  0
  1  2  1  0
  2  3  1  0
  3  4  2  0
  5  6  1  0
  6  1  2  0
  4  7  1  0
  5  4  1  0
 10  5  1  0
  7  8  1  0
  9 10  1  0
  8 11  1  0
  9  8  1  0
 14  9  1  0
 11 12  1  0
 12 13  1  0
 13 14  1  0
  1 15  1  0
 15 16  2  0
 15 17  1  0
 17 18  1  0
 18 19  1  0
 19 20  2  0
 19 24  1  0
 20 21  1  0
 21 22  2  0
 22 23  1  0
 23 24  2  0
 22 25  1  0
 24 26  1  0
  2 27  2  0
  3 28  1  0
  7 29  2  0
 11 30  1  0
  6 31  1  0
  9 32  1  6
 10 33  1  0
 10 34  1  0
 11 35  1  1
 12 36  1  0
 12 37  1  0
 13 38  1  0
 13 39  1  0
 17 40  1  0
 18 41  1  0
 18 42  1  0
 20 43  1  0
 21 44  1  0
 23 45  1  0
 28 46  1  0
 30 47  1  0
 30 48  1  0
 30 49  1  0
M  END
> <Uni-Dock RESULT> 
ENERGY=   -3.787  LOWER_BOUND=    4.287  UPPER_BOUND=    9.337
INTER + INTRA:          -3.787
INTER:                  -3.787
INTRA:                   0.000
UNBOUND:                 0.000

$$$$

     RDKit          3D

 49 52  0  0  0  0  0  0  0  0999 V2000
   45.7249   10.8025   11.7047 C   0  0  0  0  0  0  0  0  0  0  0  0
   45.0339    9.5083   11.9090 C   0  0  0  0  0  0  0  0  0  0  0  0
   45.7145    8.4347   12.7009 C   0  0  0  0  0  0  0  0  0  0  0  0
   46.9377    8.6938   13.2125 C   0  0  0  0  0  0  0  0  0  0  0  0
   47.5593    9.9520   13.0420 N   0  0  0  0  0  0  0  0  0  0  0  0
   46.9319   10.9269   12.2775 C   0  0  0  0  0  0  0  0  0  0  0  0
   47.6650    7.5916   13.9890 C   0  0  0  0  0  0  0  0  0  0  0  0
   48.8051    7.9849   14.6916 N   0  0  0  0  0  0  0  0  0  0  0  0
   49.0634    9.3966   14.9064 C   0  0  2  0  0  0  0  0  0  0  0  0
   48.9004   10.1898   13.6024 C   0  0  0  0  0  0  0  0  0  0  0  0
   49.4930    7.0255   15.5528 C   0  0  1  0  0  0  0  0  0  0  0  0
   51.0001    7.2991   15.5800 C   0  0  0  0  0  0  0  0  0  0  0  0
   51.3303    8.6797   15.0401 C   0  0  0  0  0  0  0  0  0  0  0  0
   50.3543    9.6132   15.4832 O   0  0  0  0  0  0  0  0  0  0  0  0
   45.1811   11.9417   10.9164 C   0  0  0  0  0  0  0  0  0  0  0  0
   45.8409   12.9585   10.7227 O   0  0  0  0  0  0  0  0  0  0  0  0
   43.9106   11.7657   10.4336 N   0  0  0  0  0  0  0  0  0  0  0  0
   43.2687   12.7251    9.5613 C   0  0  0  0  0  0  0  0  0  0  0  0
   43.5158   12.4519    8.0993 C   0  0  0  0  0  0  0  0  0  0  0  0
   43.6464   11.1506    7.5852 C   0  0  0  0  0  0  0  0  0  0  0  0
   43.8432   10.9483    6.2167 C   0  0  0  0  0  0  0  0  0  0  0  0
   43.8954   12.0411    5.3582 C   0  0  0  0  0  0  0  0  0  0  0  0
   43.7475   13.3336    5.8374 C   0  0  0  0  0  0  0  0  0  0  0  0
   43.5525   13.5265    7.2002 C   0  0  0  0  0  0  0  0  0  0  0  0
   44.0813   11.8401    4.0474 F   0  0  0  0  0  0  0  0  0  0  0  0
   43.3848   14.7781    7.6513 F   0  0  0  0  0  0  0  0  0  0  0  0
   43.9166    9.2764   11.4405 O   0  0  0  0  0  0  0  0  0  0  0  0
   45.0156    7.2535   12.8514 O   0  0  0  0  0  0  0  0  0  0  0  0
   47.3033    6.4184   13.9689 O   0  0  0  0  0  0  0  0  0  0  0  0
   48.8862    7.0145   16.9594 C   0  0  0  0  0  0  0  0  0  0  0  0
   47.5075   11.8458   12.1689 H   0  0  0  0  0  0  0  0  0  0  0  0
   48.3258    9.7557   15.6356 H   0  0  0  0  0  0  0  0  0  0  0  0
   49.0644   11.2552   13.8081 H   0  0  0  0  0  0  0  0  0  0  0  0
   49.6561    9.8920   12.8653 H   0  0  0  0  0  0  0  0  0  0  0  0
   49.3477    6.0188   15.1414 H   0  0  0  0  0  0  0  0  0  0  0  0
   51.3839    7.1996   16.6028 H   0  0  0  0  0  0  0  0  0  0  0  0
   51.5348    6.5505   14.9830 H   0  0  0  0  0  0  0  0  0  0  0  0
   52.3088    9.0023   15.4103 H   0  0  0  0  0  0  0  0  0  0  0  0
   51.3846    8.6803   13.9450 H   0  0  0  0  0  0  0  0  0  0  0  0
   43.4374   10.8800   10.6036 H   0  0  0  0  0  0  0  0  0  0  0  0
   43.6184   13.7277    9.8311 H   0  0  0  0  0  0  0  0  0  0  0  0
   42.1923   12.6727    9.7568 H   0  0  0  0  0  0  0  0  0  0  0  0
   43.5985   10.2849    8.2420 H   0  0  0  0  0  0  0  0  0  0  0  0
   43.9531    9.9454    5.8153 H   0  0  0  0  0  0  0  0  0  0  0  0
   43.7789   14.1792    5.1611 H   0  0  0  0  0  0  0  0  0  0  0  0
   44.1780    7.3666   12.3581 H   0  0  0  0  0  0  0  0  0  0  0  0
   49.3569    6.2436   17.5785 H   0  0  0  0  0  0  0  0  0  0  0  0
   49.0164    7.9789   17.4621 H   0  0  0  0  0  0  0  0  0  0  0  0
   47.8118    6.8050   16.9199 H   0  0  0  0  0  0  0  0  0  0  0  0
  1  2  1  0
  2  3  1  0
  3  4  2  0
  5  6  1  0
  6  1  2  0
  4  7  1  0
  5  4  1  0
 10  5  1  0
  7  8  1  0
  9 10  1  0
  8 11  1  0
  9  8  1  0
 14  9  1  0
 11 12  1  0
 12 13  1  0
 13 14  1  0
  1 15  1  0
 15 16  2  0
 15 17  1  0
 17 18  1  0
 18 19  1  0
 19 20  2  0
 19 24  1  0
 20 21  1  0
 21 22  2  0
 22 23  1  0
 23 24  2  0
 22 25  1  0
 24 26  1  0
  2 27  2  0
  3 28  1  0
  7 29  2  0
 11 30  1  0
  6 31  1  0
  9 32  1  6
 10 33  1  0
 10 34  1  0
 11 35  1  1
 12 36  1  0
 12 37  1  0
 13 38  1  0
 13 39  1  0
 17 40  1  0
 18 41  1  0
 18 42  1  0
 20 43  1  0
 21 44  1  0
 23 45  1  0
 28 46  1  0
 30 47  1  0
 30 48  1  0
 30 49  1  0
M  END
> <Uni-Dock RESULT> 
ENERGY=   -3.769  LOWER_BOUND=    6.177  UPPER_BOUND=    8.717
INTER + INTRA:          -3.769
INTER:                  -3.769
INTRA:                   0.000
UNBOUND:                 0.000

$$$$

     RDKit          3D

 49 52  0  0  0  0  0  0  0  0999 V2000
   47.9450    9.8346   12.9193 C   0  0  0  0  0  0  0  0  0  0  0  0
   48.7092    8.7705   13.6104 C   0  0  0  0  0  0  0  0  0  0  0  0
   48.1102    7.4032   13.7318 C   0  0  0  0  0  0  0  0  0  0  0  0
   46.8905    7.1879   13.1919 C   0  0  0  0  0  0  0  0  0  0  0  0
   46.1985    8.2070   12.4983 N   0  0  0  0  0  0  0  0  0  0  0  0
   46.7506    9.4789   12.4221 C   0  0  0  0  0  0  0  0  0  0  0  0
   46.2459    5.8067   13.3444 C   0  0  0  0  0  0  0  0  0  0  0  0
   45.1079    5.5711   12.5714 N   0  0  0  0  0  0  0  0  0  0  0  0
   44.7817    6.4728   11.4823 C   0  0  2  0  0  0  0  0  0  0  0  0
   44.8639    7.9366   11.9373 C   0  0  0  0  0  0  0  0  0  0  0  0
   44.4975    4.2434   12.5655 C   0  0  1  0  0  0  0  0  0  0  0  0
   42.9794    4.3413   12.3837 C   0  0  0  0  0  0  0  0  0  0  0  0
   42.5608    5.7128   11.8833 C   0  0  0  0  0  0  0  0  0  0  0  0
   43.4988    6.1787   10.9222 O   0  0  0  0  0  0  0  0  0  0  0  0
   48.4042   11.2405   12.7537 C   0  0  0  0  0  0  0  0  0  0  0  0
   47.6862   12.0915   12.2371 O   0  0  0  0  0  0  0  0  0  0  0  0
   49.6674   11.5019   13.2166 N   0  0  0  0  0  0  0  0  0  0  0  0
   50.2316   12.8342   13.2314 C   0  0  0  0  0  0  0  0  0  0  0  0
   49.9562   13.5780   14.5136 C   0  0  0  0  0  0  0  0  0  0  0  0
   49.8795   12.9331   15.7598 C   0  0  0  0  0  0  0  0  0  0  0  0
   49.6533   13.6714   16.9243 C   0  0  0  0  0  0  0  0  0  0  0  0
   49.5180   15.0536   16.8495 C   0  0  0  0  0  0  0  0  0  0  0  0
   49.6115   15.7158   15.6352 C   0  0  0  0  0  0  0  0  0  0  0  0
   49.8361   14.9740   14.4811 C   0  0  0  0  0  0  0  0  0  0  0  0
   49.3044   15.7555   17.9698 F   0  0  0  0  0  0  0  0  0  0  0  0
   49.9506   15.6253   13.3146 F   0  0  0  0  0  0  0  0  0  0  0  0
   49.8229    8.9714   14.1013 O   0  0  0  0  0  0  0  0  0  0  0  0
   48.8747    6.4597   14.3888 O   0  0  0  0  0  0  0  0  0  0  0  0
   46.6684    4.9615   14.1285 O   0  0  0  0  0  0  0  0  0  0  0  0
   45.1453    3.3443   11.5077 C   0  0  0  0  0  0  0  0  0  0  0  0
   46.1242   10.2054   11.9050 H   0  0  0  0  0  0  0  0  0  0  0  0
   45.5205    6.3053   10.6881 H   0  0  0  0  0  0  0  0  0  0  0  0
   44.6498    8.5902   11.0822 H   0  0  0  0  0  0  0  0  0  0  0  0
   44.1035    8.1541   12.6973 H   0  0  0  0  0  0  0  0  0  0  0  0
   44.6836    3.7682   13.5367 H   0  0  0  0  0  0  0  0  0  0  0  0
   42.6319    3.5701   11.6854 H   0  0  0  0  0  0  0  0  0  0  0  0
   42.4676    4.1417   13.3330 H   0  0  0  0  0  0  0  0  0  0  0  0
   41.5780    5.6528   11.4047 H   0  0  0  0  0  0  0  0  0  0  0  0
   42.4742    6.4316   12.7067 H   0  0  0  0  0  0  0  0  0  0  0  0
   50.1917   10.7538   13.6668 H   0  0  0  0  0  0  0  0  0  0  0  0
   49.8375   13.3875   12.3719 H   0  0  0  0  0  0  0  0  0  0  0  0
   51.3146   12.7298   13.1053 H   0  0  0  0  0  0  0  0  0  0  0  0
   49.9925   11.8540   15.8364 H   0  0  0  0  0  0  0  0  0  0  0  0
   49.5848   13.1774   17.8888 H   0  0  0  0  0  0  0  0  0  0  0  0
   49.5154   16.7937   15.5863 H   0  0  0  0  0  0  0  0  0  0  0  0
   49.6901    6.9192   14.6743 H   0  0  0  0  0  0  0  0  0  0  0  0
   44.7346    2.3304   11.5568 H   0  0  0  0  0  0  0  0  0  0  0  0
   44.9791    3.7285   10.4956 H   0  0  0  0  0  0  0  0  0  0  0  0
   46.2276    3.2769   11.6620 H   0  0  0  0  0  0  0  0  0  0  0  0
  1  2  1  0
  2  3  1  0
  3  4  2  0
  5  6  1  0
  6  1  2  0
  4  7  1  0
  5  4  1  0
 10  5  1  0
  7  8  1  0
  9 10  1  0
  8 11  1  0
  9  8  1  0
 14  9  1  0
 11 12  1  0
 12 13  1  0
 13 14  1  0
  1 15  1  0
 15 16  2  0
 15 17  1  0
 17 18  1  0
 18 19  1  0
 19 20  2  0
 19 24  1  0
 20 21  1  0
 21 22  2  0
 22 23  1  0
 23 24  2  0
 22 25  1  0
 24 26  1  0
  2 27  2  0
  3 28  1  0
  7 29  2  0
 11 30  1  0
  6 31  1  0
  9 32  1  6
 10 33  1  0
 10 34  1  0
 11 35  1  1
 12 36  1  0
 12 37  1  0
 13 38  1  0
 13 39  1  0
 17 40  1  0
 18 41  1  0
 18 42  1  0
 20 43  1  0
 21 44  1  0
 23 45  1  0
 28 46  1  0
 30 47  1  0
 30 48  1  0
 30 49  1  0
M  END
> <Uni-Dock RESULT> 
ENERGY=   -3.736  LOWER_BOUND=    6.493  UPPER_BOUND=   10.039
INTER + INTRA:          -3.736
INTER:                  -3.736
INTRA:                   0.000
UNBOUND:                 0.000

$$$$

     RDKit          3D

 49 52  0  0  0  0  0  0  0  0999 V2000
   48.6255    9.0070   15.5526 C   0  0  0  0  0  0  0  0  0  0  0  0
   48.7086   10.1122   14.5700 C   0  0  0  0  0  0  0  0  0  0  0  0
   48.8990   11.5138   15.0623 C   0  0  0  0  0  0  0  0  0  0  0  0
   49.0000   11.7167   16.3942 C   0  0  0  0  0  0  0  0  0  0  0  0
   48.9620   10.6413   17.3111 N   0  0  0  0  0  0  0  0  0  0  0  0
   48.7516    9.3508   16.8435 C   0  0  0  0  0  0  0  0  0  0  0  0
   49.1526   13.1488   16.9163 C   0  0  0  0  0  0  0  0  0  0  0  0
   49.4898   13.2786   18.2644 N   0  0  0  0  0  0  0  0  0  0  0  0
   49.9657   12.1213   18.9990 C   0  0  2  0  0  0  0  0  0  0  0  0
   49.0600   10.9059   18.7566 C   0  0  0  0  0  0  0  0  0  0  0  0
   49.7701   14.6019   18.8175 C   0  0  1  0  0  0  0  0  0  0  0  0
   49.3403   14.6821   20.2858 C   0  0  0  0  0  0  0  0  0  0  0  0
   49.1044   13.3036   20.8781 C   0  0  0  0  0  0  0  0  0  0  0  0
   50.0904   12.4002   20.3964 O   0  0  0  0  0  0  0  0  0  0  0  0
   48.4079    7.5760   15.2065 C   0  0  0  0  0  0  0  0  0  0  0  0
   48.2720    6.7209   16.0765 O   0  0  0  0  0  0  0  0  0  0  0  0
   48.3713    7.2973   13.8652 N   0  0  0  0  0  0  0  0  0  0  0  0
   48.0650    5.9800   13.3511 C   0  0  0  0  0  0  0  0  0  0  0  0
   46.5922    5.7690   13.1071 C   0  0  0  0  0  0  0  0  0  0  0  0
   45.7406    6.8033   12.6834 C   0  0  0  0  0  0  0  0  0  0  0  0
   44.3882    6.5498   12.4403 C   0  0  0  0  0  0  0  0  0  0  0  0
   43.8871    5.2630   12.6051 C   0  0  0  0  0  0  0  0  0  0  0  0
   44.7110    4.2208   13.0011 C   0  0  0  0  0  0  0  0  0  0  0  0
   46.0552    4.4813   13.2415 C   0  0  0  0  0  0  0  0  0  0  0  0
   42.5906    5.0261   12.3675 F   0  0  0  0  0  0  0  0  0  0  0  0
   46.8500    3.4623   13.5992 F   0  0  0  0  0  0  0  0  0  0  0  0
   48.6166    9.9221   13.3546 O   0  0  0  0  0  0  0  0  0  0  0  0
   48.9663   12.4954   14.0938 O   0  0  0  0  0  0  0  0  0  0  0  0
   48.9510   14.1350   16.2130 O   0  0  0  0  0  0  0  0  0  0  0  0
   51.2437   14.9763   18.6296 C   0  0  0  0  0  0  0  0  0  0  0  0
   48.6957    8.5969   17.6283 H   0  0  0  0  0  0  0  0  0  0  0  0
   50.9738   11.8928   18.6299 H   0  0  0  0  0  0  0  0  0  0  0  0
   49.4691   10.0412   19.2943 H   0  0  0  0  0  0  0  0  0  0  0  0
   48.0547   11.0795   19.1594 H   0  0  0  0  0  0  0  0  0  0  0  0
   49.1850   15.3449   18.2613 H   0  0  0  0  0  0  0  0  0  0  0  0
   50.0993   15.2129   20.8733 H   0  0  0  0  0  0  0  0  0  0  0  0
   48.4189   15.2690   20.3823 H   0  0  0  0  0  0  0  0  0  0  0  0
   49.1805   13.3471   21.9694 H   0  0  0  0  0  0  0  0  0  0  0  0
   48.1012   12.9305   20.6404 H   0  0  0  0  0  0  0  0  0  0  0  0
   48.4554    8.0643   13.2003 H   0  0  0  0  0  0  0  0  0  0  0  0
   48.4503    5.2345   14.0554 H   0  0  0  0  0  0  0  0  0  0  0  0
   48.6031    5.8677   12.4037 H   0  0  0  0  0  0  0  0  0  0  0  0
   46.1189    7.8131   12.5407 H   0  0  0  0  0  0  0  0  0  0  0  0
   43.7239    7.3470   12.1208 H   0  0  0  0  0  0  0  0  0  0  0  0
   44.3156    3.2190   13.1173 H   0  0  0  0  0  0  0  0  0  0  0  0
   48.8455   12.0413   13.2354 H   0  0  0  0  0  0  0  0  0  0  0  0
   51.4320   15.9965   18.9800 H   0  0  0  0  0  0  0  0  0  0  0  0
   51.9049   14.3007   19.1827 H   0  0  0  0  0  0  0  0  0  0  0  0
   51.5282   14.9253   17.5731 H   0  0  0  0  0  0  0  0  0  0  0  0
  1  2  1  0
  2  3  1  0
  3  4  2  0
  5  6  1  0
  6  1  2  0
  4  7  1  0
  5  4  1  0
 10  5  1  0
  7  8  1  0
  9 10  1  0
  8 11  1  0
  9  8  1  0
 14  9  1  0
 11 12  1  0
 12 13  1  0
 13 14  1  0
  1 15  1  0
 15 16  2  0
 15 17  1  0
 17 18  1  0
 18 19  1  0
 19 20  2  0
 19 24  1  0
 20 21  1  0
 21 22  2  0
 22 23  1  0
 23 24  2  0
 22 25  1  0
 24 26  1  0
  2 27  2  0
  3 28  1  0
  7 29  2  0
 11 30  1  0
  6 31  1  0
  9 32  1  6
 10 33  1  0
 10 34  1  0
 11 35  1  1
 12 36  1  0
 12 37  1  0
 13 38  1  0
 13 39  1  0
 17 40  1  0
 18 41  1  0
 18 42  1  0
 20 43  1  0
 21 44  1  0
 23 45  1  0
 28 46  1  0
 30 47  1  0
 30 48  1  0
 30 49  1  0
M  END
> <Uni-Dock RESULT> 
ENERGY=   -3.710  LOWER_BOUND=    4.212  UPPER_BOUND=    5.064
INTER + INTRA:          -3.710
INTER:                  -3.710
INTRA:                   0.000
UNBOUND:                 0.000

$$$$
