
     RDKit          3D

 49 52  0  0  0  0  0  0  0  0999 V2000
   47.1416    8.8889   12.4085 C   0  0  0  0  0  0  0  0  0  0  0  0
   48.3627    8.0529   12.2652 C   0  0  0  0  0  0  0  0  0  0  0  0
   49.7050    8.7102   12.4438 C   0  0  0  0  0  0  0  0  0  0  0  0
   49.7261   10.0377   12.7114 C   0  0  0  0  0  0  0  0  0  0  0  0
   48.5609   10.8091   12.8247 N   0  0  0  0  0  0  0  0  0  0  0  0
   47.3271   10.1890   12.6841 C   0  0  0  0  0  0  0  0  0  0  0  0
   51.0846   10.6960   12.8610 C   0  0  0  0  0  0  0  0  0  0  0  0
   51.1243   12.0773   12.9469 N   0  0  0  0  0  0  0  0  0  0  0  0
   49.9361   12.8892   12.8024 C   0  0  2  0  0  0  0  0  0  0  0  0
   48.6431   12.2082   13.2763 C   0  0  0  0  0  0  0  0  0  0  0  0
   52.3945   12.7646   12.7150 C   0  0  1  0  0  0  0  0  0  0  0  0
   52.1616   14.0454   11.9037 C   0  0  0  0  0  0  0  0  0  0  0  0
   51.0607   13.7921   10.8769 C   0  0  0  0  0  0  0  0  0  0  0  0
   49.8351   13.3091   11.4419 O   0  0  0  0  0  0  0  0  0  0  0  0
   45.7466    8.3816   12.2825 C   0  0  0  0  0  0  0  0  0  0  0  0
   44.7770    9.1082   12.4852 O   0  0  0  0  0  0  0  0  0  0  0  0
   45.6255    7.0625   11.9341 N   0  0  0  0  0  0  0  0  0  0  0  0
   44.3437    6.3960   11.9267 C   0  0  0  0  0  0  0  0  0  0  0  0
   44.3919    5.0887   11.1849 C   0  0  0  0  0  0  0  0  0  0  0  0
   44.9309    5.0067    9.8901 C   0  0  0  0  0  0  0  0  0  0  0  0
   44.9452    3.7883    9.2078 C   0  0  0  0  0  0  0  0  0  0  0  0
   44.4120    2.6549    9.8125 C   0  0  0  0  0  0  0  0  0  0  0  0
   43.8616    2.7143   11.0842 C   0  0  0  0  0  0  0  0  0  0  0  0
   43.8523    3.9308   11.7572 C   0  0  0  0  0  0  0  0  0  0  0  0
   44.4249    1.4892    9.1531 F   0  0  0  0  0  0  0  0  0  0  0  0
   43.3080    3.9813   12.9814 F   0  0  0  0  0  0  0  0  0  0  0  0
   48.2704    6.8502   12.0163 O   0  0  0  0  0  0  0  0  0  0  0  0
   50.8213    7.8968   12.3179 O   0  0  0  0  0  0  0  0  0  0  0  0
   52.1074   10.0068   12.8770 O   0  0  0  0  0  0  0  0  0  0  0  0
   53.1101   13.0550   14.0308 C   0  0  0  0  0  0  0  0  0  0  0  0
   46.4768   10.8571   12.8141 H   0  0  0  0  0  0  0  0  0  0  0  0
   50.0526   13.7878   13.4224 H   0  0  0  0  0  0  0  0  0  0  0  0
   47.7791   12.7791   12.9148 H   0  0  0  0  0  0  0  0  0  0  0  0
   48.6158   12.2061   14.3732 H   0  0  0  0  0  0  0  0  0  0  0  0
   53.0387   12.1054   12.1189 H   0  0  0  0  0  0  0  0  0  0  0  0
   51.8526   14.8644   12.5656 H   0  0  0  0  0  0  0  0  0  0  0  0
   53.0874   14.3641   11.4122 H   0  0  0  0  0  0  0  0  0  0  0  0
   50.8330   14.7130   10.3303 H   0  0  0  0  0  0  0  0  0  0  0  0
   51.3938   13.0534   10.1388 H   0  0  0  0  0  0  0  0  0  0  0  0
   46.4723    6.4912   11.9119 H   0  0  0  0  0  0  0  0  0  0  0  0
   43.5923    7.0503   11.4697 H   0  0  0  0  0  0  0  0  0  0  0  0
   44.0597    6.2505   12.9749 H   0  0  0  0  0  0  0  0  0  0  0  0
   45.3445    5.8922    9.4106 H   0  0  0  0  0  0  0  0  0  0  0  0
   45.3674    3.7171    8.2100 H   0  0  0  0  0  0  0  0  0  0  0  0
   43.4436    1.8274   11.5449 H   0  0  0  0  0  0  0  0  0  0  0  0
   51.6213    8.4385   12.4961 H   0  0  0  0  0  0  0  0  0  0  0  0
   54.0651   13.5593   13.8518 H   0  0  0  0  0  0  0  0  0  0  0  0
   53.3125   12.1275   14.5772 H   0  0  0  0  0  0  0  0  0  0  0  0
   52.5021   13.6930   14.6816 H   0  0  0  0  0  0  0  0  0  0  0  0
  1  2  1  0
  2  3  1  0
  3  4  2  0
  5  6  1  0
  6  1  2  0
  4  7  1  0
  5  4  1  0
 10  5  1  0
  7  8  1  0
  9 10  1  0
  8 11  1  0
  9  8  1  0
 14  9  1  0
 11 12  1  0
 12 13  1  0
 13 14  1  0
  1 15  1  0
 15 16  2  0
 15 17  1  0
 17 18  1  0
 18 19  1  0
 19 20  2  0
 19 24  1  0
 20 21  1  0
 21 22  2  0
 22 23  1  0
 23 24  2  0
 22 25  1  0
 24 26  1  0
  2 27  2  0
  3 28  1  0
  7 29  2  0
 11 30  1  0
  6 31  1  0
  9 32  1  1
 10 33  1  0
 10 34  1  0
 11 35  1  6
 12 36  1  0
 12 37  1  0
 13 38  1  0
 13 39  1  0
 17 40  1  0
 18 41  1  0
 18 42  1  0
 20 43  1  0
 21 44  1  0
 23 45  1  0
 28 46  1  0
 30 47  1  0
 30 48  1  0
 30 49  1  0
M  END
> <Uni-Dock RESULT> 
ENERGY=   -4.713  LOWER_BOUND=    0.000  UPPER_BOUND=    0.000
INTER + INTRA:          -4.713
INTER:                  -4.713
INTRA:                   0.000
UNBOUND:                 0.000

$$$$

     RDKit          3D

 49 52  0  0  0  0  0  0  0  0999 V2000
   43.6124   10.6332   11.4378 C   0  0  0  0  0  0  0  0  0  0  0  0
   42.1987   10.3437   11.0800 C   0  0  0  0  0  0  0  0  0  0  0  0
   41.2246   11.4900   11.0275 C   0  0  0  0  0  0  0  0  0  0  0  0
   41.6898   12.7264   11.3260 C   0  0  0  0  0  0  0  0  0  0  0  0
   43.0244   12.9723   11.6779 N   0  0  0  0  0  0  0  0  0  0  0  0
   43.9209   11.9129   11.6983 C   0  0  0  0  0  0  0  0  0  0  0  0
   40.6936   13.8702   11.2982 C   0  0  0  0  0  0  0  0  0  0  0  0
   41.1110   15.0990   11.7809 N   0  0  0  0  0  0  0  0  0  0  0  0
   42.4119   15.2838   12.3853 C   0  0  2  0  0  0  0  0  0  0  0  0
   43.5042   14.3559   11.8319 C   0  0  0  0  0  0  0  0  0  0  0  0
   40.1048   16.1048   12.1206 C   0  0  1  0  0  0  0  0  0  0  0  0
   40.5053   16.8393   13.4063 C   0  0  0  0  0  0  0  0  0  0  0  0
   41.1633   15.8479   14.3627 C   0  0  0  0  0  0  0  0  0  0  0  0
   42.2796   15.1467   13.7999 O   0  0  0  0  0  0  0  0  0  0  0  0
   44.6953    9.6126   11.5104 C   0  0  0  0  0  0  0  0  0  0  0  0
   45.8607    9.9263   11.7398 O   0  0  0  0  0  0  0  0  0  0  0  0
   44.3030    8.3173   11.3004 N   0  0  0  0  0  0  0  0  0  0  0  0
   45.2636    7.2442   11.1871 C   0  0  0  0  0  0  0  0  0  0  0  0
   44.6176    5.8924   11.3175 C   0  0  0  0  0  0  0  0  0  0  0  0
   43.7612    5.5963   12.3912 C   0  0  0  0  0  0  0  0  0  0  0  0
   43.1894    4.3277   12.5082 C   0  0  0  0  0  0  0  0  0  0  0  0
   43.4806    3.3517   11.5610 C   0  0  0  0  0  0  0  0  0  0  0  0
   44.3343    3.6162   10.5004 C   0  0  0  0  0  0  0  0  0  0  0  0
   44.8986    4.8821   10.3903 C   0  0  0  0  0  0  0  0  0  0  0  0
   42.9325    2.1354   11.6790 F   0  0  0  0  0  0  0  0  0  0  0  0
   45.7315    5.1254    9.3683 F   0  0  0  0  0  0  0  0  0  0  0  0
   41.8424    9.1927   10.8242 O   0  0  0  0  0  0  0  0  0  0  0  0
   39.9182   11.1849   10.6757 O   0  0  0  0  0  0  0  0  0  0  0  0
   39.5485   13.6830   10.8799 O   0  0  0  0  0  0  0  0  0  0  0  0
   39.8858   17.0751   10.9638 C   0  0  0  0  0  0  0  0  0  0  0  0
   44.9402   12.1984   11.9553 H   0  0  0  0  0  0  0  0  0  0  0  0
   42.7482   16.3082   12.1782 H   0  0  0  0  0  0  0  0  0  0  0  0
   44.3770   14.3873   12.4955 H   0  0  0  0  0  0  0  0  0  0  0  0
   43.8152   14.7125   10.8420 H   0  0  0  0  0  0  0  0  0  0  0  0
   39.1548   15.5899   12.3135 H   0  0  0  0  0  0  0  0  0  0  0  0
   41.2162   17.6440   13.1793 H   0  0  0  0  0  0  0  0  0  0  0  0
   39.6308   17.3077   13.8711 H   0  0  0  0  0  0  0  0  0  0  0  0
   41.5159   16.3649   15.2610 H   0  0  0  0  0  0  0  0  0  0  0  0
   40.4355   15.0959   14.6885 H   0  0  0  0  0  0  0  0  0  0  0  0
   43.3453    8.1497   10.9859 H   0  0  0  0  0  0  0  0  0  0  0  0
   46.0348    7.3588   11.9577 H   0  0  0  0  0  0  0  0  0  0  0  0
   45.7516    7.3615   10.2130 H   0  0  0  0  0  0  0  0  0  0  0  0
   43.5345    6.3553   13.1380 H   0  0  0  0  0  0  0  0  0  0  0  0
   42.5207    4.0952   13.3315 H   0  0  0  0  0  0  0  0  0  0  0  0
   44.5597    2.8480    9.7706 H   0  0  0  0  0  0  0  0  0  0  0  0
   39.4032   12.0208   10.6408 H   0  0  0  0  0  0  0  0  0  0  0  0
   39.1242   17.8192   11.2183 H   0  0  0  0  0  0  0  0  0  0  0  0
   39.5543   16.5426   10.0660 H   0  0  0  0  0  0  0  0  0  0  0  0
   40.8105   17.6044   10.7085 H   0  0  0  0  0  0  0  0  0  0  0  0
  1  2  1  0
  2  3  1  0
  3  4  2  0
  5  6  1  0
  6  1  2  0
  4  7  1  0
  5  4  1  0
 10  5  1  0
  7  8  1  0
  9 10  1  0
  8 11  1  0
  9  8  1  0
 14  9  1  0
 11 12  1  0
 12 13  1  0
 13 14  1  0
  1 15  1  0
 15 16  2  0
 15 17  1  0
 17 18  1  0
 18 19  1  0
 19 20  2  0
 19 24  1  0
 20 21  1  0
 21 22  2  0
 22 23  1  0
 23 24  2  0
 22 25  1  0
 24 26  1  0
  2 27  2  0
  3 28  1  0
  7 29  2  0
 11 30  1  0
  6 31  1  0
  9 32  1  1
 10 33  1  0
 10 34  1  0
 11 35  1  6
 12 36  1  0
 12 37  1  0
 13 38  1  0
 13 39  1  0
 17 40  1  0
 18 41  1  0
 18 42  1  0
 20 43  1  0
 21 44  1  0
 23 45  1  0
 28 46  1  0
 30 47  1  0
 30 48  1  0
 30 49  1  0
M  END
> <Uni-Dock RESULT> 
ENERGY=   -4.559  LOWER_BOUND=    5.440  UPPER_BOUND=    7.559
INTER + INTRA:          -4.559
INTER:                  -4.559
INTRA:                   0.000
UNBOUND:                 0.000

$$$$

     RDKit          3D

 49 52  0  0  0  0  0  0  0  0999 V2000
   49.1185    5.9652   16.5312 C   0  0  0  0  0  0  0  0  0  0  0  0
   48.2297    5.2073   17.4510 C   0  0  0  0  0  0  0  0  0  0  0  0
   48.7261    4.9070   18.8400 C   0  0  0  0  0  0  0  0  0  0  0  0
   49.9683    5.3332   19.1710 C   0  0  0  0  0  0  0  0  0  0  0  0
   50.7953    6.0315   18.2800 N   0  0  0  0  0  0  0  0  0  0  0  0
   50.3187    6.3263   17.0101 C   0  0  0  0  0  0  0  0  0  0  0  0
   50.4701    5.0003   20.5634 C   0  0  0  0  0  0  0  0  0  0  0  0
   51.7993    5.2634   20.8484 N   0  0  0  0  0  0  0  0  0  0  0  0
   52.7186    5.7457   19.8414 C   0  0  2  0  0  0  0  0  0  0  0  0
   52.0661    6.6080   18.7500 C   0  0  0  0  0  0  0  0  0  0  0  0
   52.4120    4.6289   22.0152 C   0  0  1  0  0  0  0  0  0  0  0  0
   53.8425    4.1848   21.6846 C   0  0  0  0  0  0  0  0  0  0  0  0
   53.8883    3.6824   20.2437 C   0  0  0  0  0  0  0  0  0  0  0  0
   53.4058    4.6275   19.2802 O   0  0  0  0  0  0  0  0  0  0  0  0
   48.7625    6.3566   15.1385 C   0  0  0  0  0  0  0  0  0  0  0  0
   49.5120    7.0474   14.4528 O   0  0  0  0  0  0  0  0  0  0  0  0
   47.5527    5.9006   14.6862 N   0  0  0  0  0  0  0  0  0  0  0  0
   47.0085    6.3281   13.4181 C   0  0  0  0  0  0  0  0  0  0  0  0
   45.8739    5.4504   12.9663 C   0  0  0  0  0  0  0  0  0  0  0  0
   46.0051    4.0520   12.9328 C   0  0  0  0  0  0  0  0  0  0  0  0
   44.9486    3.2548   12.4876 C   0  0  0  0  0  0  0  0  0  0  0  0
   43.7658    3.8529   12.0657 C   0  0  0  0  0  0  0  0  0  0  0  0
   43.6180    5.2319   12.0764 C   0  0  0  0  0  0  0  0  0  0  0  0
   44.6742    6.0185   12.5221 C   0  0  0  0  0  0  0  0  0  0  0  0
   42.7562    3.0846   11.6365 F   0  0  0  0  0  0  0  0  0  0  0  0
   44.5266    7.3510   12.5182 F   0  0  0  0  0  0  0  0  0  0  0  0
   47.1115    4.8457   17.0821 O   0  0  0  0  0  0  0  0  0  0  0  0
   47.8646    4.2115   19.6752 O   0  0  0  0  0  0  0  0  0  0  0  0
   49.7096    4.4892   21.3891 O   0  0  0  0  0  0  0  0  0  0  0  0
   52.3770    5.5560   23.2263 C   0  0  0  0  0  0  0  0  0  0  0  0
   51.0157    6.8938   16.3948 H   0  0  0  0  0  0  0  0  0  0  0  0
   53.4644    6.3858   20.3307 H   0  0  0  0  0  0  0  0  0  0  0  0
   52.7662    6.7255   17.9139 H   0  0  0  0  0  0  0  0  0  0  0  0
   51.8497    7.6040   19.1564 H   0  0  0  0  0  0  0  0  0  0  0  0
   51.8328    3.7297   22.2618 H   0  0  0  0  0  0  0  0  0  0  0  0
   54.5373    5.0274   21.7925 H   0  0  0  0  0  0  0  0  0  0  0  0
   54.1748    3.4060   22.3798 H   0  0  0  0  0  0  0  0  0  0  0  0
   54.9145    3.4211   19.9659 H   0  0  0  0  0  0  0  0  0  0  0  0
   53.2851    2.7732   20.1402 H   0  0  0  0  0  0  0  0  0  0  0  0
   46.9293    5.4455   15.3559 H   0  0  0  0  0  0  0  0  0  0  0  0
   47.7997    6.3254   12.6594 H   0  0  0  0  0  0  0  0  0  0  0  0
   46.6827    7.3659   13.5503 H   0  0  0  0  0  0  0  0  0  0  0  0
   46.9309    3.5796   13.2569 H   0  0  0  0  0  0  0  0  0  0  0  0
   45.0413    2.1732   12.4666 H   0  0  0  0  0  0  0  0  0  0  0  0
   42.6950    5.6891   11.7406 H   0  0  0  0  0  0  0  0  0  0  0  0
   48.2928    4.1189   20.5546 H   0  0  0  0  0  0  0  0  0  0  0  0
   52.8264    5.0729   24.0999 H   0  0  0  0  0  0  0  0  0  0  0  0
   51.3465    5.8267   23.4802 H   0  0  0  0  0  0  0  0  0  0  0  0
   52.9217    6.4862   23.0307 H   0  0  0  0  0  0  0  0  0  0  0  0
  1  2  1  0
  2  3  1  0
  3  4  2  0
  5  6  1  0
  6  1  2  0
  4  7  1  0
  5  4  1  0
 10  5  1  0
  7  8  1  0
  9 10  1  0
  8 11  1  0
  9  8  1  0
 14  9  1  0
 11 12  1  0
 12 13  1  0
 13 14  1  0
  1 15  1  0
 15 16  2  0
 15 17  1  0
 17 18  1  0
 18 19  1  0
 19 20  2  0
 19 24  1  0
 20 21  1  0
 21 22  2  0
 22 23  1  0
 23 24  2  0
 22 25  1  0
 24 26  1  0
  2 27  2  0
  3 28  1  0
  7 29  2  0
 11 30  1  0
  6 31  1  0
  9 32  1  1
 10 33  1  0
 10 34  1  0
 11 35  1  6
 12 36  1  0
 12 37  1  0
 13 38  1  0
 13 39  1  0
 17 40  1  0
 18 41  1  0
 18 42  1  0
 20 43  1  0
 21 44  1  0
 23 45  1  0
 28 46  1  0
 30 47  1  0
 30 48  1  0
 30 49  1  0
M  END
> <Uni-Dock RESULT> 
ENERGY=   -4.494  LOWER_BOUND=    6.738  UPPER_BOUND=    7.889
INTER + INTRA:          -4.494
INTER:                  -4.494
INTRA:                   0.000
UNBOUND:                 0.000

$$$$

     RDKit          3D

 49 52  0  0  0  0  0  0  0  0999 V2000
   46.4245    9.2772   12.1005 C   0  0  0  0  0  0  0  0  0  0  0  0
   47.7163    8.5417   12.1297 C   0  0  0  0  0  0  0  0  0  0  0  0
   48.9807    9.3249   12.3609 C   0  0  0  0  0  0  0  0  0  0  0  0
   48.8719   10.6661   12.5149 C   0  0  0  0  0  0  0  0  0  0  0  0
   47.6435   11.3400   12.4660 N   0  0  0  0  0  0  0  0  0  0  0  0
   46.4805   10.6060   12.2783 C   0  0  0  0  0  0  0  0  0  0  0  0
   50.1549   11.4495   12.7186 C   0  0  0  0  0  0  0  0  0  0  0  0
   50.0766   12.8316   12.6891 N   0  0  0  0  0  0  0  0  0  0  0  0
   48.8450   13.5234   12.3788 C   0  0  2  0  0  0  0  0  0  0  0  0
   47.5734   12.7720   12.8016 C   0  0  0  0  0  0  0  0  0  0  0  0
   51.3035   13.6062   12.5042 C   0  0  1  0  0  0  0  0  0  0  0  0
   51.0422   14.7945   11.5701 C   0  0  0  0  0  0  0  0  0  0  0  0
   50.0605   14.3669   10.4818 C   0  0  0  0  0  0  0  0  0  0  0  0
   48.8320   13.8252   10.9837 O   0  0  0  0  0  0  0  0  0  0  0  0
   45.0911    8.6424   11.9044 C   0  0  0  0  0  0  0  0  0  0  0  0
   44.0525    9.2957   11.9641 O   0  0  0  0  0  0  0  0  0  0  0  0
   45.1071    7.2946   11.6611 N   0  0  0  0  0  0  0  0  0  0  0  0
   43.8883    6.5208   11.6057 C   0  0  0  0  0  0  0  0  0  0  0  0
   44.1062    5.1686   10.9848 C   0  0  0  0  0  0  0  0  0  0  0  0
   44.7630    5.0325    9.7503 C   0  0  0  0  0  0  0  0  0  0  0  0
   44.9350    3.7703    9.1781 C   0  0  0  0  0  0  0  0  0  0  0  0
   44.4423    2.6457    9.8317 C   0  0  0  0  0  0  0  0  0  0  0  0
   43.7781    2.7565   11.0442 C   0  0  0  0  0  0  0  0  0  0  0  0
   43.6120    4.0166   11.6078 C   0  0  0  0  0  0  0  0  0  0  0  0
   44.6066    1.4375    9.2777 F   0  0  0  0  0  0  0  0  0  0  0  0
   42.9588    4.1153   12.7745 F   0  0  0  0  0  0  0  0  0  0  0  0
   47.7427    7.3197   11.9777 O   0  0  0  0  0  0  0  0  0  0  0  0
   50.1651    8.6041   12.3969 O   0  0  0  0  0  0  0  0  0  0  0  0
   51.2240   10.8551   12.8772 O   0  0  0  0  0  0  0  0  0  0  0  0
   51.8739   14.0597   13.8445 C   0  0  0  0  0  0  0  0  0  0  0  0
   45.5714   11.2059   12.2805 H   0  0  0  0  0  0  0  0  0  0  0  0
   48.8339   14.4745   12.9272 H   0  0  0  0  0  0  0  0  0  0  0  0
   46.7022   13.2356   12.3230 H   0  0  0  0  0  0  0  0  0  0  0  0
   47.4491   12.8534   13.8887 H   0  0  0  0  0  0  0  0  0  0  0  0
   52.0486   12.9608   12.0214 H   0  0  0  0  0  0  0  0  0  0  0  0
   50.6113   15.6329   12.1320 H   0  0  0  0  0  0  0  0  0  0  0  0
   51.9795   15.1529   11.1307 H   0  0  0  0  0  0  0  0  0  0  0  0
   49.8095   15.2189    9.8418 H   0  0  0  0  0  0  0  0  0  0  0  0
   50.5157   13.6044    9.8394 H   0  0  0  0  0  0  0  0  0  0  0  0
   45.9954    6.7989   11.7574 H   0  0  0  0  0  0  0  0  0  0  0  0
   43.1306    7.0696   11.0344 H   0  0  0  0  0  0  0  0  0  0  0  0
   43.5248    6.4337   12.6357 H   0  0  0  0  0  0  0  0  0  0  0  0
   45.1456    5.9103    9.2324 H   0  0  0  0  0  0  0  0  0  0  0  0
   45.4485    3.6580    8.2280 H   0  0  0  0  0  0  0  0  0  0  0  0
   43.3929    1.8755   11.5432 H   0  0  0  0  0  0  0  0  0  0  0  0
   50.9004    9.2255   12.5931 H   0  0  0  0  0  0  0  0  0  0  0  0
   52.7978   14.6295   13.7020 H   0  0  0  0  0  0  0  0  0  0  0  0
   52.1004   13.1990   14.4829 H   0  0  0  0  0  0  0  0  0  0  0  0
   51.1616   14.6915   14.3864 H   0  0  0  0  0  0  0  0  0  0  0  0
  1  2  1  0
  2  3  1  0
  3  4  2  0
  5  6  1  0
  6  1  2  0
  4  7  1  0
  5  4  1  0
 10  5  1  0
  7  8  1  0
  9 10  1  0
  8 11  1  0
  9  8  1  0
 14  9  1  0
 11 12  1  0
 12 13  1  0
 13 14  1  0
  1 15  1  0
 15 16  2  0
 15 17  1  0
 17 18  1  0
 18 19  1  0
 19 20  2  0
 19 24  1  0
 20 21  1  0
 21 22  2  0
 22 23  1  0
 23 24  2  0
 22 25  1  0
 24 26  1  0
  2 27  2  0
  3 28  1  0
  7 29  2  0
 11 30  1  0
  6 31  1  0
  9 32  1  1
 10 33  1  0
 10 34  1  0
 11 35  1  6
 12 36  1  0
 12 37  1  0
 13 38  1  0
 13 39  1  0
 17 40  1  0
 18 41  1  0
 18 42  1  0
 20 43  1  0
 21 44  1  0
 23 45  1  0
 28 46  1  0
 30 47  1  0
 30 48  1  0
 30 49  1  0
M  END
> <Uni-Dock RESULT> 
ENERGY=   -4.395  LOWER_BOUND=    0.942  UPPER_BOUND=    0.958
INTER + INTRA:          -4.395
INTER:                  -4.395
INTRA:                   0.000
UNBOUND:                 0.000

$$$$

     RDKit          3D

 49 52  0  0  0  0  0  0  0  0999 V2000
   56.1720    3.4836   11.3116 C   0  0  0  0  0  0  0  0  0  0  0  0
   55.8348    4.6548   12.1631 C   0  0  0  0  0  0  0  0  0  0  0  0
   55.9860    4.5222   13.6549 C   0  0  0  0  0  0  0  0  0  0  0  0
   56.4086    3.3313   14.1420 C   0  0  0  0  0  0  0  0  0  0  0  0
   56.7040    2.2350   13.3196 N   0  0  0  0  0  0  0  0  0  0  0  0
   56.5864    2.3750   11.9437 C   0  0  0  0  0  0  0  0  0  0  0  0
   56.5301    3.1992   15.6484 C   0  0  0  0  0  0  0  0  0  0  0  0
   56.7779    1.9391   16.1660 N   0  0  0  0  0  0  0  0  0  0  0  0
   56.8247    0.7614   15.3278 C   0  0  2  0  0  0  0  0  0  0  0  0
   57.3125    1.0237   13.8948 C   0  0  0  0  0  0  0  0  0  0  0  0
   56.5320    1.6969   17.5874 C   0  0  1  0  0  0  0  0  0  0  0  0
   55.9010    0.3131   17.7860 C   0  0  0  0  0  0  0  0  0  0  0  0
   54.9399    0.0331   16.6333 C   0  0  0  0  0  0  0  0  0  0  0  0
   55.5365    0.1466   15.3350 O   0  0  0  0  0  0  0  0  0  0  0  0
   56.0949    3.4662    9.8239 C   0  0  0  0  0  0  0  0  0  0  0  0
   56.4581    2.4901    9.1722 O   0  0  0  0  0  0  0  0  0  0  0  0
   55.6010    4.6041    9.2433 N   0  0  0  0  0  0  0  0  0  0  0  0
   55.6134    4.7897    7.8105 C   0  0  0  0  0  0  0  0  0  0  0  0
   54.7186    5.9191    7.3802 C   0  0  0  0  0  0  0  0  0  0  0  0
   53.3853    5.9973    7.8162 C   0  0  0  0  0  0  0  0  0  0  0  0
   52.5627    7.0408    7.3867 C   0  0  0  0  0  0  0  0  0  0  0  0
   53.0665    7.9995    6.5140 C   0  0  0  0  0  0  0  0  0  0  0  0
   54.3751    7.9353    6.0588 C   0  0  0  0  0  0  0  0  0  0  0  0
   55.1879    6.8939    6.4920 C   0  0  0  0  0  0  0  0  0  0  0  0
   52.2730    8.9967    6.1022 F   0  0  0  0  0  0  0  0  0  0  0  0
   56.4479    6.8335    6.0379 F   0  0  0  0  0  0  0  0  0  0  0  0
   55.4512    5.7082   11.6529 O   0  0  0  0  0  0  0  0  0  0  0  0
   55.6770    5.6394   14.4165 O   0  0  0  0  0  0  0  0  0  0  0  0
   56.3837    4.1888   16.3698 O   0  0  0  0  0  0  0  0  0  0  0  0
   57.8135    1.8524   18.4006 C   0  0  0  0  0  0  0  0  0  0  0  0
   56.8614    1.4836   11.3814 H   0  0  0  0  0  0  0  0  0  0  0  0
   57.5371    0.0510   15.7673 H   0  0  0  0  0  0  0  0  0  0  0  0
   57.0904    0.1497   13.2704 H   0  0  0  0  0  0  0  0  0  0  0  0
   58.4000    1.1694   13.9033 H   0  0  0  0  0  0  0  0  0  0  0  0
   55.8129    2.4453   17.9447 H   0  0  0  0  0  0  0  0  0  0  0  0
   56.6784   -0.4614   17.8004 H   0  0  0  0  0  0  0  0  0  0  0  0
   55.3808    0.2611   18.7488 H   0  0  0  0  0  0  0  0  0  0  0  0
   54.5272   -0.9772   16.7208 H   0  0  0  0  0  0  0  0  0  0  0  0
   54.0949    0.7303   16.6669 H   0  0  0  0  0  0  0  0  0  0  0  0
   55.4447    5.4193    9.8392 H   0  0  0  0  0  0  0  0  0  0  0  0
   55.2981    3.8628    7.3175 H   0  0  0  0  0  0  0  0  0  0  0  0
   56.6555    4.9752    7.5272 H   0  0  0  0  0  0  0  0  0  0  0  0
   52.9849    5.2462    8.4950 H   0  0  0  0  0  0  0  0  0  0  0  0
   51.5337    7.1108    7.7264 H   0  0  0  0  0  0  0  0  0  0  0  0
   54.7571    8.6835    5.3748 H   0  0  0  0  0  0  0  0  0  0  0  0
   55.8561    5.4308   15.3597 H   0  0  0  0  0  0  0  0  0  0  0  0
   57.6226    1.6812   19.4649 H   0  0  0  0  0  0  0  0  0  0  0  0
   58.2272    2.8602   18.2872 H   0  0  0  0  0  0  0  0  0  0  0  0
   58.5815    1.1437   18.0717 H   0  0  0  0  0  0  0  0  0  0  0  0
  1  2  1  0
  2  3  1  0
  3  4  2  0
  5  6  1  0
  6  1  2  0
  4  7  1  0
  5  4  1  0
 10  5  1  0
  7  8  1  0
  9 10  1  0
  8 11  1  0
  9  8  1  0
 14  9  1  0
 11 12  1  0
 12 13  1  0
 13 14  1  0
  1 15  1  0
 15 16  2  0
 15 17  1  0
 17 18  1  0
 18 19  1  0
 19 20  2  0
 19 24  1  0
 20 21  1  0
 21 22  2  0
 22 23  1  0
 23 24  2  0
 22 25  1  0
 24 26  1  0
  2 27  2  0
  3 28  1  0
  7 29  2  0
 11 30  1  0
  6 31  1  0
  9 32  1  1
 10 33  1  0
 10 34  1  0
 11 35  1  6
 12 36  1  0
 12 37  1  0
 13 38  1  0
 13 39  1  0
 17 40  1  0
 18 41  1  0
 18 42  1  0
 20 43  1  0
 21 44  1  0
 23 45  1  0
 28 46  1  0
 30 47  1  0
 30 48  1  0
 30 49  1  0
M  END
> <Uni-Dock RESULT> 
ENERGY=   -4.334  LOWER_BOUND=    9.352  UPPER_BOUND=   11.677
INTER + INTRA:          -4.334
INTER:                  -4.334
INTRA:                   0.000
UNBOUND:                 0.000

$$$$

     RDKit          3D

 49 52  0  0  0  0  0  0  0  0999 V2000
   48.2447    9.9123   17.4917 C   0  0  0  0  0  0  0  0  0  0  0  0
   49.1842    9.7651   16.3490 C   0  0  0  0  0  0  0  0  0  0  0  0
   49.5686   10.9977   15.5752 C   0  0  0  0  0  0  0  0  0  0  0  0
   49.0218   12.1768   15.9560 C   0  0  0  0  0  0  0  0  0  0  0  0
   48.1239   12.2879   17.0269 N   0  0  0  0  0  0  0  0  0  0  0  0
   47.7956   11.1499   17.7506 C   0  0  0  0  0  0  0  0  0  0  0  0
   49.3933   13.4082   15.1517 C   0  0  0  0  0  0  0  0  0  0  0  0
   48.7007   14.5788   15.4103 N   0  0  0  0  0  0  0  0  0  0  0  0
   47.5926   14.6252   16.3387 C   0  0  2  0  0  0  0  0  0  0  0  0
   47.6918   13.6162   17.4930 C   0  0  0  0  0  0  0  0  0  0  0  0
   48.7532   15.6635   14.4303 C   0  0  1  0  0  0  0  0  0  0  0  0
   47.3739   16.3210   14.2957 C   0  0  0  0  0  0  0  0  0  0  0  0
   46.2957   15.2461   14.4099 C   0  0  0  0  0  0  0  0  0  0  0  0
   46.3786   14.4609   15.6062 O   0  0  0  0  0  0  0  0  0  0  0  0
   47.7880    8.7941   18.3640 C   0  0  0  0  0  0  0  0  0  0  0  0
   47.0678    8.9919   19.3394 O   0  0  0  0  0  0  0  0  0  0  0  0
   48.2279    7.5472   18.0069 N   0  0  0  0  0  0  0  0  0  0  0  0
   47.9943    6.3934   18.8445 C   0  0  0  0  0  0  0  0  0  0  0  0
   48.2373    5.1041   18.1095 C   0  0  0  0  0  0  0  0  0  0  0  0
   47.6478    4.8582   16.8581 C   0  0  0  0  0  0  0  0  0  0  0  0
   47.8661    3.6451   16.2017 C   0  0  0  0  0  0  0  0  0  0  0  0
   48.6629    2.6736   16.7983 C   0  0  0  0  0  0  0  0  0  0  0  0
   49.2438    2.8880   18.0394 C   0  0  0  0  0  0  0  0  0  0  0  0
   49.0225    4.0988   18.6858 C   0  0  0  0  0  0  0  0  0  0  0  0
   48.8669    1.5104   16.1666 F   0  0  0  0  0  0  0  0  0  0  0  0
   49.5788    4.2929   19.8902 F   0  0  0  0  0  0  0  0  0  0  0  0
   49.6410    8.6598   16.0543 O   0  0  0  0  0  0  0  0  0  0  0  0
   50.4585   10.8250   14.5255 O   0  0  0  0  0  0  0  0  0  0  0  0
   50.2674   13.3397   14.2842 O   0  0  0  0  0  0  0  0  0  0  0  0
   49.8283   16.6824   14.7958 C   0  0  0  0  0  0  0  0  0  0  0  0
   47.1140   11.3324   18.5804 H   0  0  0  0  0  0  0  0  0  0  0  0
   47.5712   15.6196   16.8036 H   0  0  0  0  0  0  0  0  0  0  0  0
   46.7212   13.5478   17.9992 H   0  0  0  0  0  0  0  0  0  0  0  0
   48.4322   13.9705   18.2212 H   0  0  0  0  0  0  0  0  0  0  0  0
   49.0137   15.2334   13.4545 H   0  0  0  0  0  0  0  0  0  0  0  0
   47.2263   17.0624   15.0912 H   0  0  0  0  0  0  0  0  0  0  0  0
   47.2927   16.8549   13.3425 H   0  0  0  0  0  0  0  0  0  0  0  0
   45.3010   15.7025   14.3818 H   0  0  0  0  0  0  0  0  0  0  0  0
   46.3576   14.5558   13.5609 H   0  0  0  0  0  0  0  0  0  0  0  0
   48.9277    7.4779   17.2656 H   0  0  0  0  0  0  0  0  0  0  0  0
   46.9644    6.4142   19.2193 H   0  0  0  0  0  0  0  0  0  0  0  0
   48.6611    6.4927   19.7083 H   0  0  0  0  0  0  0  0  0  0  0  0
   47.0189    5.6134   16.3896 H   0  0  0  0  0  0  0  0  0  0  0  0
   47.4194    3.4523   15.2309 H   0  0  0  0  0  0  0  0  0  0  0  0
   49.8584    2.1233   18.4988 H   0  0  0  0  0  0  0  0  0  0  0  0
   50.6532   11.7056   14.1360 H   0  0  0  0  0  0  0  0  0  0  0  0
   49.8716   17.4862   14.0539 H   0  0  0  0  0  0  0  0  0  0  0  0
   50.8148   16.2086   14.8416 H   0  0  0  0  0  0  0  0  0  0  0  0
   49.6341   17.1308   15.7763 H   0  0  0  0  0  0  0  0  0  0  0  0
  1  2  1  0
  2  3  1  0
  3  4  2  0
  5  6  1  0
  6  1  2  0
  4  7  1  0
  5  4  1  0
 10  5  1  0
  7  8  1  0
  9 10  1  0
  8 11  1  0
  9  8  1  0
 14  9  1  0
 11 12  1  0
 12 13  1  0
 13 14  1  0
  1 15  1  0
 15 16  2  0
 15 17  1  0
 17 18  1  0
 18 19  1  0
 19 20  2  0
 19 24  1  0
 20 21  1  0
 21 22  2  0
 22 23  1  0
 23 24  2  0
 22 25  1  0
 24 26  1  0
  2 27  2  0
  3 28  1  0
  7 29  2  0
 11 30  1  0
  6 31  1  0
  9 32  1  1
 10 33  1  0
 10 34  1  0
 11 35  1  6
 12 36  1  0
 12 37  1  0
 13 38  1  0
 13 39  1  0
 17 40  1  0
 18 41  1  0
 18 42  1  0
 20 43  1  0
 21 44  1  0
 23 45  1  0
 28 46  1  0
 30 47  1  0
 30 48  1  0
 30 49  1  0
M  END
> <Uni-Dock RESULT> 
ENERGY=   -4.015  LOWER_BOUND=    5.364  UPPER_BOUND=    6.201
INTER + INTRA:          -4.015
INTER:                  -4.015
INTRA:                   0.000
UNBOUND:                 0.000

$$$$

     RDKit          3D

 49 52  0  0  0  0  0  0  0  0999 V2000
   50.7312    6.4958   16.9065 C   0  0  0  0  0  0  0  0  0  0  0  0
   49.6633    5.9902   17.8089 C   0  0  0  0  0  0  0  0  0  0  0  0
   50.0597    5.4649   19.1627 C   0  0  0  0  0  0  0  0  0  0  0  0
   51.3766    5.4680   19.4790 C   0  0  0  0  0  0  0  0  0  0  0  0
   52.3677    5.9341   18.6038 N   0  0  0  0  0  0  0  0  0  0  0  0
   51.9900    6.4405   17.3680 C   0  0  0  0  0  0  0  0  0  0  0  0
   51.7681    4.9099   20.8342 C   0  0  0  0  0  0  0  0  0  0  0  0
   53.1170    4.7344   21.0926 N   0  0  0  0  0  0  0  0  0  0  0  0
   54.1280    4.9743   20.0866 C   0  0  2  0  0  0  0  0  0  0  0  0
   53.7598    6.0623   19.0663 C   0  0  0  0  0  0  0  0  0  0  0  0
   53.5185    3.8700   22.2022 C   0  0  1  0  0  0  0  0  0  0  0  0
   54.7387    3.0307   21.8032 C   0  0  0  0  0  0  0  0  0  0  0  0
   54.6105    2.6307   20.3354 C   0  0  0  0  0  0  0  0  0  0  0  0
   54.4309    3.7372   19.4422 O   0  0  0  0  0  0  0  0  0  0  0  0
   50.4964    7.0647   15.5498 C   0  0  0  0  0  0  0  0  0  0  0  0
   51.4140    7.5345   14.8815 O   0  0  0  0  0  0  0  0  0  0  0  0
   49.1997    7.0311   15.1100 N   0  0  0  0  0  0  0  0  0  0  0  0
   48.7985    7.6842   13.8853 C   0  0  0  0  0  0  0  0  0  0  0  0
   47.4436    7.2270   13.4198 C   0  0  0  0  0  0  0  0  0  0  0  0
   47.1375    5.8607   13.3032 C   0  0  0  0  0  0  0  0  0  0  0  0
   45.8816    5.4557   12.8464 C   0  0  0  0  0  0  0  0  0  0  0  0
   44.9354    6.4129   12.4956 C   0  0  0  0  0  0  0  0  0  0  0  0
   45.2195    7.7673   12.5888 C   0  0  0  0  0  0  0  0  0  0  0  0
   46.4717    8.1623   13.0456 C   0  0  0  0  0  0  0  0  0  0  0  0
   43.7333    6.0199   12.0550 F   0  0  0  0  0  0  0  0  0  0  0  0
   46.7415    9.4734   13.1216 F   0  0  0  0  0  0  0  0  0  0  0  0
   48.4838    6.0129   17.4548 O   0  0  0  0  0  0  0  0  0  0  0  0
   49.0359    5.0156   19.9835 O   0  0  0  0  0  0  0  0  0  0  0  0
   50.8971    4.6054   21.6527 O   0  0  0  0  0  0  0  0  0  0  0  0
   53.7849    4.6847   23.4643 C   0  0  0  0  0  0  0  0  0  0  0  0
   52.8204    6.8048   16.7645 H   0  0  0  0  0  0  0  0  0  0  0  0
   55.0405    5.3227   20.5882 H   0  0  0  0  0  0  0  0  0  0  0  0
   54.4520    6.0123   18.2171 H   0  0  0  0  0  0  0  0  0  0  0  0
   53.8653    7.0489   19.5349 H   0  0  0  0  0  0  0  0  0  0  0  0
   52.6935    3.1780   22.4153 H   0  0  0  0  0  0  0  0  0  0  0  0
   55.6604    3.6112   21.9371 H   0  0  0  0  0  0  0  0  0  0  0  0
   54.8234    2.1452   22.4427 H   0  0  0  0  0  0  0  0  0  0  0  0
   55.5031    2.0855   20.0118 H   0  0  0  0  0  0  0  0  0  0  0  0
   53.7554    1.9586   20.1993 H   0  0  0  0  0  0  0  0  0  0  0  0
   48.4746    6.7476   15.7717 H   0  0  0  0  0  0  0  0  0  0  0  0
   49.5413    7.4871   13.1037 H   0  0  0  0  0  0  0  0  0  0  0  0
   48.8096    8.7614   14.0861 H   0  0  0  0  0  0  0  0  0  0  0  0
   47.8767    5.1078   13.5715 H   0  0  0  0  0  0  0  0  0  0  0  0
   45.6366    4.4013   12.7615 H   0  0  0  0  0  0  0  0  0  0  0  0
   44.4781    8.5056   12.3080 H   0  0  0  0  0  0  0  0  0  0  0  0
   49.4252    4.7408   20.8426 H   0  0  0  0  0  0  0  0  0  0  0  0
   54.0742    4.0329   24.2949 H   0  0  0  0  0  0  0  0  0  0  0  0
   52.8909    5.2416   23.7647 H   0  0  0  0  0  0  0  0  0  0  0  0
   54.5872    5.4136   23.3050 H   0  0  0  0  0  0  0  0  0  0  0  0
  1  2  1  0
  2  3  1  0
  3  4  2  0
  5  6  1  0
  6  1  2  0
  4  7  1  0
  5  4  1  0
 10  5  1  0
  7  8  1  0
  9 10  1  0
  8 11  1  0
  9  8  1  0
 14  9  1  0
 11 12  1  0
 12 13  1  0
 13 14  1  0
  1 15  1  0
 15 16  2  0
 15 17  1  0
 17 18  1  0
 18 19  1  0
 19 20  2  0
 19 24  1  0
 20 21  1  0
 21 22  2  0
 22 23  1  0
 23 24  2  0
 22 25  1  0
 24 26  1  0
  2 27  2  0
  3 28  1  0
  7 29  2  0
 11 30  1  0
  6 31  1  0
  9 32  1  1
 10 33  1  0
 10 34  1  0
 11 35  1  6
 12 36  1  0
 12 37  1  0
 13 38  1  0
 13 39  1  0
 17 40  1  0
 18 41  1  0
 18 42  1  0
 20 43  1  0
 21 44  1  0
 23 45  1  0
 28 46  1  0
 30 47  1  0
 30 48  1  0
 30 49  1  0
M  END
> <Uni-Dock RESULT> 
ENERGY=   -3.743  LOWER_BOUND=    7.300  UPPER_BOUND=    8.732
INTER + INTRA:          -3.743
INTER:                  -3.743
INTRA:                   0.000
UNBOUND:                 0.000

$$$$

     RDKit          3D

 49 52  0  0  0  0  0  0  0  0999 V2000
   49.9967    6.4462   16.1291 C   0  0  0  0  0  0  0  0  0  0  0  0
   48.9985    5.4103   16.5041 C   0  0  0  0  0  0  0  0  0  0  0  0
   47.8413    5.1615   15.5740 C   0  0  0  0  0  0  0  0  0  0  0  0
   47.7655    5.9106   14.4482 C   0  0  0  0  0  0  0  0  0  0  0  0
   48.7103    6.8944   14.1244 N   0  0  0  0  0  0  0  0  0  0  0  0
   49.7877    7.0986   14.9753 C   0  0  0  0  0  0  0  0  0  0  0  0
   46.5801    5.6719   13.5322 C   0  0  0  0  0  0  0  0  0  0  0  0
   46.3906    6.5540   12.4819 N   0  0  0  0  0  0  0  0  0  0  0  0
   47.2220    7.7239   12.3035 C   0  0  2  0  0  0  0  0  0  0  0  0
   48.6626    7.5599   12.8117 C   0  0  0  0  0  0  0  0  0  0  0  0
   45.0884    6.5936   11.8170 C   0  0  1  0  0  0  0  0  0  0  0  0
   44.7040    8.0430   11.4943 C   0  0  0  0  0  0  0  0  0  0  0  0
   45.1772    8.9489   12.6285 C   0  0  0  0  0  0  0  0  0  0  0  0
   46.5765    8.8385   12.9187 O   0  0  0  0  0  0  0  0  0  0  0  0
   51.2036    6.7913   16.9316 C   0  0  0  0  0  0  0  0  0  0  0  0
   52.0312    7.6061   16.5310 O   0  0  0  0  0  0  0  0  0  0  0  0
   51.3241    6.1390   18.1299 N   0  0  0  0  0  0  0  0  0  0  0  0
   52.5151    6.2562   18.9392 C   0  0  0  0  0  0  0  0  0  0  0  0
   52.2946    5.7624   20.3424 C   0  0  0  0  0  0  0  0  0  0  0  0
   51.2044    6.2093   21.1077 C   0  0  0  0  0  0  0  0  0  0  0  0
   51.0296    5.7575   22.4174 C   0  0  0  0  0  0  0  0  0  0  0  0
   51.9478    4.8692   22.9672 C   0  0  0  0  0  0  0  0  0  0  0  0
   53.0395    4.4250   22.2360 C   0  0  0  0  0  0  0  0  0  0  0  0
   53.2058    4.8786   20.9324 C   0  0  0  0  0  0  0  0  0  0  0  0
   51.7779    4.4410   24.2248 F   0  0  0  0  0  0  0  0  0  0  0  0
   54.2701    4.4529   20.2370 F   0  0  0  0  0  0  0  0  0  0  0  0
   49.1268    4.7679   17.5472 O   0  0  0  0  0  0  0  0  0  0  0  0
   46.9383    4.1777   15.9486 O   0  0  0  0  0  0  0  0  0  0  0  0
   45.8095    4.7337   13.7496 O   0  0  0  0  0  0  0  0  0  0  0  0
   45.0831    5.7190   10.5669 C   0  0  0  0  0  0  0  0  0  0  0  0
   50.4855    7.8618   14.6332 H   0  0  0  0  0  0  0  0  0  0  0  0
   47.2998    7.9335   11.2286 H   0  0  0  0  0  0  0  0  0  0  0  0
   49.1431    8.5444   12.8634 H   0  0  0  0  0  0  0  0  0  0  0  0
   49.2281    6.9408   12.1040 H   0  0  0  0  0  0  0  0  0  0  0  0
   44.3358    6.1960   12.5101 H   0  0  0  0  0  0  0  0  0  0  0  0
   45.1787    8.3634   10.5581 H   0  0  0  0  0  0  0  0  0  0  0  0
   43.6216    8.1319   11.3500 H   0  0  0  0  0  0  0  0  0  0  0  0
   44.9706    9.9967   12.3879 H   0  0  0  0  0  0  0  0  0  0  0  0
   44.6327    8.7167   13.5509 H   0  0  0  0  0  0  0  0  0  0  0  0
   50.6687    5.3820   18.3335 H   0  0  0  0  0  0  0  0  0  0  0  0
   52.8401    7.3028   18.9648 H   0  0  0  0  0  0  0  0  0  0  0  0
   53.2973    5.6809   18.4314 H   0  0  0  0  0  0  0  0  0  0  0  0
   50.4860    6.9088   20.6836 H   0  0  0  0  0  0  0  0  0  0  0  0
   50.1847    6.0934   23.0112 H   0  0  0  0  0  0  0  0  0  0  0  0
   53.7526    3.7374   22.6745 H   0  0  0  0  0  0  0  0  0  0  0  0
   46.2627    4.0913   15.2406 H   0  0  0  0  0  0  0  0  0  0  0  0
   44.1034    5.7429   10.0789 H   0  0  0  0  0  0  0  0  0  0  0  0
   45.3122    4.6779   10.8187 H   0  0  0  0  0  0  0  0  0  0  0  0
   45.8346    6.0545    9.8439 H   0  0  0  0  0  0  0  0  0  0  0  0
  1  2  1  0
  2  3  1  0
  3  4  2  0
  5  6  1  0
  6  1  2  0
  4  7  1  0
  5  4  1  0
 10  5  1  0
  7  8  1  0
  9 10  1  0
  8 11  1  0
  9  8  1  0
 14  9  1  0
 11 12  1  0
 12 13  1  0
 13 14  1  0
  1 15  1  0
 15 16  2  0
 15 17  1  0
 17 18  1  0
 18 19  1  0
 19 20  2  0
 19 24  1  0
 20 21  1  0
 21 22  2  0
 22 23  1  0
 23 24  2  0
 22 25  1  0
 24 26  1  0
  2 27  2  0
  3 28  1  0
  7 29  2  0
 11 30  1  0
  6 31  1  0
  9 32  1  1
 10 33  1  0
 10 34  1  0
 11 35  1  6
 12 36  1  0
 12 37  1  0
 13 38  1  0
 13 39  1  0
 17 40  1  0
 18 41  1  0
 18 42  1  0
 20 43  1  0
 21 44  1  0
 23 45  1  0
 28 46  1  0
 30 47  1  0
 30 48  1  0
 30 49  1  0
M  END
> <Uni-Dock RESULT> 
ENERGY=   -3.722  LOWER_BOUND=    6.698  UPPER_BOUND=    9.616
INTER + INTRA:          -3.722
INTER:                  -3.722
INTRA:                   0.000
UNBOUND:                 0.000

$$$$

     RDKit          3D

 49 52  0  0  0  0  0  0  0  0999 V2000
   50.5397    7.0809   15.6152 C   0  0  0  0  0  0  0  0  0  0  0  0
   49.5089    6.4470   16.4788 C   0  0  0  0  0  0  0  0  0  0  0  0
   49.9623    5.7059   17.7080 C   0  0  0  0  0  0  0  0  0  0  0  0
   51.2931    5.6445   17.9518 C   0  0  0  0  0  0  0  0  0  0  0  0
   52.2479    6.2359   17.1127 N   0  0  0  0  0  0  0  0  0  0  0  0
   51.8186    6.9391   15.9957 C   0  0  0  0  0  0  0  0  0  0  0  0
   51.7411    4.8709   19.1774 C   0  0  0  0  0  0  0  0  0  0  0  0
   53.0977    4.6423   19.3337 N   0  0  0  0  0  0  0  0  0  0  0  0
   54.0618    5.0314   18.3283 C   0  0  2  0  0  0  0  0  0  0  0  0
   53.6634    6.2736   17.5168 C   0  0  0  0  0  0  0  0  0  0  0  0
   53.5379    3.6060   20.2674 C   0  0  1  0  0  0  0  0  0  0  0  0
   54.7212    2.8299   19.6757 C   0  0  0  0  0  0  0  0  0  0  0  0
   54.5129    2.6736   18.1714 C   0  0  0  0  0  0  0  0  0  0  0  0
   54.3095    3.9117   17.4784 O   0  0  0  0  0  0  0  0  0  0  0  0
   50.2484    7.8640   14.3817 C   0  0  0  0  0  0  0  0  0  0  0  0
   51.1401    8.4263   13.7510 O   0  0  0  0  0  0  0  0  0  0  0  0
   48.9310    7.9149   14.0102 N   0  0  0  0  0  0  0  0  0  0  0  0
   48.4815    8.7614   12.9291 C   0  0  0  0  0  0  0  0  0  0  0  0
   47.0970    8.3991   12.4671 C   0  0  0  0  0  0  0  0  0  0  0  0
   46.7605    7.0728   12.1483 C   0  0  0  0  0  0  0  0  0  0  0  0
   45.4763    6.7596   11.6982 C   0  0  0  0  0  0  0  0  0  0  0  0
   44.5316    7.7704   11.5556 C   0  0  0  0  0  0  0  0  0  0  0  0
   44.8447    9.0890   11.8505 C   0  0  0  0  0  0  0  0  0  0  0  0
   46.1251    9.3924   12.2992 C   0  0  0  0  0  0  0  0  0  0  0  0
   43.3021    7.4659   11.1205 F   0  0  0  0  0  0  0  0  0  0  0  0
   46.4223   10.6712   12.5710 F   0  0  0  0  0  0  0  0  0  0  0  0
   48.3139    6.5385   16.1947 O   0  0  0  0  0  0  0  0  0  0  0  0
   48.9724    5.1402   18.4979 O   0  0  0  0  0  0  0  0  0  0  0  0
   50.9064    4.4469   19.9804 O   0  0  0  0  0  0  0  0  0  0  0  0
   53.8816    4.2033   21.6286 C   0  0  0  0  0  0  0  0  0  0  0  0
   52.6246    7.3877   15.4164 H   0  0  0  0  0  0  0  0  0  0  0  0
   55.0042    5.2849   18.8312 H   0  0  0  0  0  0  0  0  0  0  0  0
   54.3115    6.3545   16.6358 H   0  0  0  0  0  0  0  0  0  0  0  0
   53.8101    7.1704   18.1318 H   0  0  0  0  0  0  0  0  0  0  0  0
   52.7119    2.8969   20.4090 H   0  0  0  0  0  0  0  0  0  0  0  0
   55.6589    3.3717   19.8532 H   0  0  0  0  0  0  0  0  0  0  0  0
   54.8212    1.8519   20.1592 H   0  0  0  0  0  0  0  0  0  0  0  0
   55.3782    2.1789   17.7184 H   0  0  0  0  0  0  0  0  0  0  0  0
   53.6400    2.0410   17.9736 H   0  0  0  0  0  0  0  0  0  0  0  0
   48.2346    7.5356   14.6544 H   0  0  0  0  0  0  0  0  0  0  0  0
   49.1809    8.6857   12.0884 H   0  0  0  0  0  0  0  0  0  0  0  0
   48.5223    9.7918   13.2996 H   0  0  0  0  0  0  0  0  0  0  0  0
   47.4981    6.2790   12.2532 H   0  0  0  0  0  0  0  0  0  0  0  0
   45.2080    5.7353   11.4576 H   0  0  0  0  0  0  0  0  0  0  0  0
   44.1040    9.8705   11.7310 H   0  0  0  0  0  0  0  0  0  0  0  0
   49.3988    4.7263   19.2802 H   0  0  0  0  0  0  0  0  0  0  0  0
   54.1997    3.4229   22.3273 H   0  0  0  0  0  0  0  0  0  0  0  0
   53.0140    4.7133   22.0607 H   0  0  0  0  0  0  0  0  0  0  0  0
   54.6882    4.9402   21.5471 H   0  0  0  0  0  0  0  0  0  0  0  0
  1  2  1  0
  2  3  1  0
  3  4  2  0
  5  6  1  0
  6  1  2  0
  4  7  1  0
  5  4  1  0
 10  5  1  0
  7  8  1  0
  9 10  1  0
  8 11  1  0
  9  8  1  0
 14  9  1  0
 11 12  1  0
 12 13  1  0
 13 14  1  0
  1 15  1  0
 15 16  2  0
 15 17  1  0
 17 18  1  0
 18 19  1  0
 19 20  2  0
 19 24  1  0
 20 21  1  0
 21 22  2  0
 22 23  1  0
 23 24  2  0
 22 25  1  0
 24 26  1  0
  2 27  2  0
  3 28  1  0
  7 29  2  0
 11 30  1  0
  6 31  1  0
  9 32  1  1
 10 33  1  0
 10 34  1  0
 11 35  1  6
 12 36  1  0
 12 37  1  0
 13 38  1  0
 13 39  1  0
 17 40  1  0
 18 41  1  0
 18 42  1  0
 20 43  1  0
 21 44  1  0
 23 45  1  0
 28 46  1  0
 30 47  1  0
 30 48  1  0
 30 49  1  0
M  END
> <Uni-Dock RESULT> 
ENERGY=   -3.599  LOWER_BOUND=    6.271  UPPER_BOUND=    7.961
INTER + INTRA:          -3.599
INTER:                  -3.599
INTRA:                   0.000
UNBOUND:                 0.000

$$$$
