
     RDKit          3D

 49 52  0  0  0  0  0  0  0  0999 V2000
   44.3010   10.1552   11.5177 C   0  0  0  0  0  0  0  0  0  0  0  0
   42.9782    9.9033   10.8862 C   0  0  0  0  0  0  0  0  0  0  0  0
   42.1179   11.0869   10.5307 C   0  0  0  0  0  0  0  0  0  0  0  0
   42.6114   12.3222   10.7834 C   0  0  0  0  0  0  0  0  0  0  0  0
   43.8753   12.5341   11.3519 N   0  0  0  0  0  0  0  0  0  0  0  0
   44.6453   11.4378   11.7121 C   0  0  0  0  0  0  0  0  0  0  0  0
   41.7466   13.5141   10.4074 C   0  0  0  0  0  0  0  0  0  0  0  0
   42.3092   14.7841   10.5133 N   0  0  0  0  0  0  0  0  0  0  0  0
   43.7433   14.9282   10.7407 C   0  0  2  0  0  0  0  0  0  0  0  0
   44.2726   13.8920   11.7450 C   0  0  0  0  0  0  0  0  0  0  0  0
   41.6010   15.8956    9.8701 C   0  0  1  0  0  0  0  0  0  0  0  0
   42.0557   17.2376   10.4370 C   0  0  0  0  0  0  0  0  0  0  0  0
   43.5677   17.2933   10.4891 C   0  0  0  0  0  0  0  0  0  0  0  0
   44.0396   16.2161   11.2855 O   0  0  0  0  0  0  0  0  0  0  0  0
   45.2497    9.0919   11.9524 C   0  0  0  0  0  0  0  0  0  0  0  0
   46.3082    9.3652   12.5130 O   0  0  0  0  0  0  0  0  0  0  0  0
   44.8606    7.8060   11.6873 N   0  0  0  0  0  0  0  0  0  0  0  0
   45.6030    6.6719   12.1883 C   0  0  0  0  0  0  0  0  0  0  0  0
   45.2131    5.3930   11.4999 C   0  0  0  0  0  0  0  0  0  0  0  0
   45.1763    5.3029   10.0983 C   0  0  0  0  0  0  0  0  0  0  0  0
   44.8354    4.0994    9.4775 C   0  0  0  0  0  0  0  0  0  0  0  0
   44.5422    2.9835   10.2542 C   0  0  0  0  0  0  0  0  0  0  0  0
   44.5858    3.0443   11.6392 C   0  0  0  0  0  0  0  0  0  0  0  0
   44.9249    4.2465   12.2495 C   0  0  0  0  0  0  0  0  0  0  0  0
   44.2190    1.8305    9.6543 F   0  0  0  0  0  0  0  0  0  0  0  0
   44.9758    4.2931   13.5885 F   0  0  0  0  0  0  0  0  0  0  0  0
   42.5982    8.7521   10.6698 O   0  0  0  0  0  0  0  0  0  0  0  0
   40.8801   10.8152    9.9681 O   0  0  0  0  0  0  0  0  0  0  0  0
   40.5943   13.3329   10.0067 O   0  0  0  0  0  0  0  0  0  0  0  0
   41.7539   15.8497    8.3431 C   0  0  0  0  0  0  0  0  0  0  0  0
   45.5927   11.6952   12.1842 H   0  0  0  0  0  0  0  0  0  0  0  0
   44.2564   14.8060    9.7779 H   0  0  0  0  0  0  0  0  0  0  0  0
   45.3643   13.9854   11.8117 H   0  0  0  0  0  0  0  0  0  0  0  0
   43.8817   14.1042   12.7492 H   0  0  0  0  0  0  0  0  0  0  0  0
   40.5307   15.7860   10.0879 H   0  0  0  0  0  0  0  0  0  0  0  0
   41.6682   17.3275   11.4603 H   0  0  0  0  0  0  0  0  0  0  0  0
   41.6520   18.0749    9.8580 H   0  0  0  0  0  0  0  0  0  0  0  0
   43.8891   18.2254   10.9648 H   0  0  0  0  0  0  0  0  0  0  0  0
   44.0280   17.2562    9.4960 H   0  0  0  0  0  0  0  0  0  0  0  0
   43.9156    7.6515   11.3312 H   0  0  0  0  0  0  0  0  0  0  0  0
   45.4091    6.6211   13.2655 H   0  0  0  0  0  0  0  0  0  0  0  0
   46.6766    6.8485   12.0548 H   0  0  0  0  0  0  0  0  0  0  0  0
   45.4102    6.1721    9.4860 H   0  0  0  0  0  0  0  0  0  0  0  0
   44.7977    4.0256    8.3948 H   0  0  0  0  0  0  0  0  0  0  0  0
   44.3614    2.1683   12.2358 H   0  0  0  0  0  0  0  0  0  0  0  0
   40.4040   11.6648    9.8379 H   0  0  0  0  0  0  0  0  0  0  0  0
   42.8029   15.8977    8.0344 H   0  0  0  0  0  0  0  0  0  0  0  0
   41.3401   14.9224    7.9331 H   0  0  0  0  0  0  0  0  0  0  0  0
   41.2221   16.6848    7.8750 H   0  0  0  0  0  0  0  0  0  0  0  0
  1  2  1  0
  2  3  1  0
  3  4  2  0
  5  6  1  0
  6  1  2  0
  4  7  1  0
  5  4  1  0
 10  5  1  0
  7  8  1  0
  9 10  1  0
  8 11  1  0
  9  8  1  0
 14  9  1  0
 11 12  1  0
 12 13  1  0
 13 14  1  0
  1 15  1  0
 15 16  2  0
 15 17  1  0
 17 18  1  0
 18 19  1  0
 19 20  2  0
 19 24  1  0
 20 21  1  0
 21 22  2  0
 22 23  1  0
 23 24  2  0
 22 25  1  0
 24 26  1  0
  2 27  2  0
  3 28  1  0
  7 29  2  0
 11 30  1  0
  6 31  1  0
  9 32  1  6
 10 33  1  0
 10 34  1  0
 11 35  1  1
 12 36  1  0
 12 37  1  0
 13 38  1  0
 13 39  1  0
 17 40  1  0
 18 41  1  0
 18 42  1  0
 20 43  1  0
 21 44  1  0
 23 45  1  0
 28 46  1  0
 30 47  1  0
 30 48  1  0
 30 49  1  0
M  END
> <Uni-Dock RESULT> 
ENERGY=   -4.862  LOWER_BOUND=    0.000  UPPER_BOUND=    0.000
INTER + INTRA:          -4.862
INTER:                  -4.862
INTRA:                   0.000
UNBOUND:                 0.000

$$$$

     RDKit          3D

 49 52  0  0  0  0  0  0  0  0999 V2000
   44.5569    9.9147   11.5117 C   0  0  0  0  0  0  0  0  0  0  0  0
   43.2230    9.7360   10.8787 C   0  0  0  0  0  0  0  0  0  0  0  0
   42.4124   10.9640   10.5588 C   0  0  0  0  0  0  0  0  0  0  0  0
   42.9582   12.1701   10.8431 C   0  0  0  0  0  0  0  0  0  0  0  0
   44.2315   12.3130   11.4122 N   0  0  0  0  0  0  0  0  0  0  0  0
   44.9556   11.1759   11.7395 C   0  0  0  0  0  0  0  0  0  0  0  0
   42.1433   13.4072   10.5028 C   0  0  0  0  0  0  0  0  0  0  0  0
   42.7593   14.6490   10.6410 N   0  0  0  0  0  0  0  0  0  0  0  0
   44.1988   14.7263   10.8666 C   0  0  2  0  0  0  0  0  0  0  0  0
   44.6867   13.6418   11.8404 C   0  0  0  0  0  0  0  0  0  0  0  0
   42.0969   15.8064   10.0310 C   0  0  1  0  0  0  0  0  0  0  0  0
   42.6092   17.1122   10.6323 C   0  0  0  0  0  0  0  0  0  0  0  0
   44.1224   17.1028   10.6800 C   0  0  0  0  0  0  0  0  0  0  0  0
   44.5506   15.9854   11.4451 O   0  0  0  0  0  0  0  0  0  0  0  0
   45.4612    8.8010   11.9137 C   0  0  0  0  0  0  0  0  0  0  0  0
   46.5318    9.0142   12.4774 O   0  0  0  0  0  0  0  0  0  0  0  0
   45.0175    7.5403   11.6153 N   0  0  0  0  0  0  0  0  0  0  0  0
   45.7128    6.3628   12.0824 C   0  0  0  0  0  0  0  0  0  0  0  0
   45.2675    5.1206   11.3611 C   0  0  0  0  0  0  0  0  0  0  0  0
   45.2230    5.0705    9.9578 C   0  0  0  0  0  0  0  0  0  0  0  0
   44.8300    3.8997    9.3059 C   0  0  0  0  0  0  0  0  0  0  0  0
   44.4922    2.7763   10.0532 C   0  0  0  0  0  0  0  0  0  0  0  0
   44.5421    2.7974   11.4391 C   0  0  0  0  0  0  0  0  0  0  0  0
   44.9332    3.9672   12.0804 C   0  0  0  0  0  0  0  0  0  0  0  0
   44.1190    1.6547    9.4234 F   0  0  0  0  0  0  0  0  0  0  0  0
   44.9897    3.9751   13.4200 F   0  0  0  0  0  0  0  0  0  0  0  0
   42.7942    8.6081   10.6326 O   0  0  0  0  0  0  0  0  0  0  0  0
   41.1627   10.7601    9.9939 O   0  0  0  0  0  0  0  0  0  0  0  0
   40.9834   13.2855   10.1018 O   0  0  0  0  0  0  0  0  0  0  0  0
   42.2435   15.7958    8.5027 C   0  0  0  0  0  0  0  0  0  0  0  0
   45.9143   11.3802   12.2147 H   0  0  0  0  0  0  0  0  0  0  0  0
   44.7037   14.6090    9.8989 H   0  0  0  0  0  0  0  0  0  0  0  0
   45.7816   13.6873   11.9054 H   0  0  0  0  0  0  0  0  0  0  0  0
   44.3079   13.8428   12.8515 H   0  0  0  0  0  0  0  0  0  0  0  0
   41.0235   15.7360   10.2499 H   0  0  0  0  0  0  0  0  0  0  0  0
   42.2287   17.1903   11.6592 H   0  0  0  0  0  0  0  0  0  0  0  0
   42.2397   17.9812   10.0778 H   0  0  0  0  0  0  0  0  0  0  0  0
   44.4841   18.0072   11.1796 H   0  0  0  0  0  0  0  0  0  0  0  0
   44.5780   17.0734    9.6845 H   0  0  0  0  0  0  0  0  0  0  0  0
   44.0658    7.4355   11.2589 H   0  0  0  0  0  0  0  0  0  0  0  0
   45.5198    6.2908   13.1586 H   0  0  0  0  0  0  0  0  0  0  0  0
   46.7925    6.4976   11.9497 H   0  0  0  0  0  0  0  0  0  0  0  0
   45.4917    5.9454    9.3684 H   0  0  0  0  0  0  0  0  0  0  0  0
   44.7863    3.8571    8.2217 H   0  0  0  0  0  0  0  0  0  0  0  0
   44.2826    1.9158   12.0126 H   0  0  0  0  0  0  0  0  0  0  0  0
   40.7225   11.6322    9.8886 H   0  0  0  0  0  0  0  0  0  0  0  0
   43.2927   15.8081    8.1913 H   0  0  0  0  0  0  0  0  0  0  0  0
   41.7898   14.8982    8.0693 H   0  0  0  0  0  0  0  0  0  0  0  0
   41.7461   16.6649    8.0595 H   0  0  0  0  0  0  0  0  0  0  0  0
  1  2  1  0
  2  3  1  0
  3  4  2  0
  5  6  1  0
  6  1  2  0
  4  7  1  0
  5  4  1  0
 10  5  1  0
  7  8  1  0
  9 10  1  0
  8 11  1  0
  9  8  1  0
 14  9  1  0
 11 12  1  0
 12 13  1  0
 13 14  1  0
  1 15  1  0
 15 16  2  0
 15 17  1  0
 17 18  1  0
 18 19  1  0
 19 20  2  0
 19 24  1  0
 20 21  1  0
 21 22  2  0
 22 23  1  0
 23 24  2  0
 22 25  1  0
 24 26  1  0
  2 27  2  0
  3 28  1  0
  7 29  2  0
 11 30  1  0
  6 31  1  0
  9 32  1  6
 10 33  1  0
 10 34  1  0
 11 35  1  1
 12 36  1  0
 12 37  1  0
 13 38  1  0
 13 39  1  0
 17 40  1  0
 18 41  1  0
 18 42  1  0
 20 43  1  0
 21 44  1  0
 23 45  1  0
 28 46  1  0
 30 47  1  0
 30 48  1  0
 30 49  1  0
M  END
> <Uni-Dock RESULT> 
ENERGY=   -4.688  LOWER_BOUND=    0.406  UPPER_BOUND=    0.406
INTER + INTRA:          -4.688
INTER:                  -4.688
INTRA:                   0.000
UNBOUND:                 0.000

$$$$

     RDKit          3D

 49 52  0  0  0  0  0  0  0  0999 V2000
   46.7939    8.3896   13.1548 C   0  0  0  0  0  0  0  0  0  0  0  0
   45.8742    7.2791   12.7899 C   0  0  0  0  0  0  0  0  0  0  0  0
   46.1248    5.9181   13.3835 C   0  0  0  0  0  0  0  0  0  0  0  0
   47.1638    5.7873   14.2418 C   0  0  0  0  0  0  0  0  0  0  0  0
   47.9983    6.8576   14.5936 N   0  0  0  0  0  0  0  0  0  0  0  0
   47.7844    8.0990   14.0126 C   0  0  0  0  0  0  0  0  0  0  0  0
   47.4025    4.4157   14.8514 C   0  0  0  0  0  0  0  0  0  0  0  0
   48.3636    4.3089   15.8542 N   0  0  0  0  0  0  0  0  0  0  0  0
   48.9300    5.5140   16.4508 C   0  0  2  0  0  0  0  0  0  0  0  0
   49.1987    6.6033   15.4002 C   0  0  0  0  0  0  0  0  0  0  0  0
   48.3809    3.0762   16.6486 C   0  0  1  0  0  0  0  0  0  0  0  0
   49.7183    2.9023   17.3629 C   0  0  0  0  0  0  0  0  0  0  0  0
   50.1131    4.1941   18.0466 C   0  0  0  0  0  0  0  0  0  0  0  0
   50.1844    5.2257   17.0729 O   0  0  0  0  0  0  0  0  0  0  0  0
   46.6953    9.7801   12.6290 C   0  0  0  0  0  0  0  0  0  0  0  0
   47.5168   10.6416   12.9328 O   0  0  0  0  0  0  0  0  0  0  0  0
   45.6386   10.0240   11.7929 N   0  0  0  0  0  0  0  0  0  0  0  0
   45.5051   11.2782   11.0878 C   0  0  0  0  0  0  0  0  0  0  0  0
   44.1253   11.4620   10.5185 C   0  0  0  0  0  0  0  0  0  0  0  0
   42.9807   11.2872   11.3141 C   0  0  0  0  0  0  0  0  0  0  0  0
   41.7086   11.4862   10.7734 C   0  0  0  0  0  0  0  0  0  0  0  0
   41.5790   11.8701    9.4428 C   0  0  0  0  0  0  0  0  0  0  0  0
   42.6948   12.0626    8.6418 C   0  0  0  0  0  0  0  0  0  0  0  0
   43.9575   11.8612    9.1874 C   0  0  0  0  0  0  0  0  0  0  0  0
   40.3571   12.0630    8.9295 F   0  0  0  0  0  0  0  0  0  0  0  0
   45.0308   12.0607    8.4091 F   0  0  0  0  0  0  0  0  0  0  0  0
   44.9377    7.4728   12.0141 O   0  0  0  0  0  0  0  0  0  0  0  0
   45.2646    4.9000   13.0013 O   0  0  0  0  0  0  0  0  0  0  0  0
   46.7396    3.4499   14.4654 O   0  0  0  0  0  0  0  0  0  0  0  0
   47.2060    3.0282   17.6357 C   0  0  0  0  0  0  0  0  0  0  0  0
   48.5045    8.8601   14.3111 H   0  0  0  0  0  0  0  0  0  0  0  0
   48.2221    5.8898   17.2009 H   0  0  0  0  0  0  0  0  0  0  0  0
   49.5380    7.5143   15.9099 H   0  0  0  0  0  0  0  0  0  0  0  0
   50.0186    6.2957   14.7373 H   0  0  0  0  0  0  0  0  0  0  0  0
   48.2563    2.2293   15.9614 H   0  0  0  0  0  0  0  0  0  0  0  0
   50.4805    2.6589   16.6111 H   0  0  0  0  0  0  0  0  0  0  0  0
   49.6861    2.0738   18.0783 H   0  0  0  0  0  0  0  0  0  0  0  0
   51.1065    4.0891   18.4944 H   0  0  0  0  0  0  0  0  0  0  0  0
   49.4214    4.4794   18.8463 H   0  0  0  0  0  0  0  0  0  0  0  0
   45.0703    9.2310   11.4896 H   0  0  0  0  0  0  0  0  0  0  0  0
   46.2658   11.2774   10.2992 H   0  0  0  0  0  0  0  0  0  0  0  0
   45.7357   12.1071   11.7670 H   0  0  0  0  0  0  0  0  0  0  0  0
   43.0771   10.9920   12.3575 H   0  0  0  0  0  0  0  0  0  0  0  0
   40.8199   11.3452   11.3811 H   0  0  0  0  0  0  0  0  0  0  0  0
   42.5842   12.3671    7.6080 H   0  0  0  0  0  0  0  0  0  0  0  0
   45.5711    4.0623   13.4135 H   0  0  0  0  0  0  0  0  0  0  0  0
   47.2191    3.8741   18.3302 H   0  0  0  0  0  0  0  0  0  0  0  0
   46.2466    3.0595   17.1086 H   0  0  0  0  0  0  0  0  0  0  0  0
   47.2309    2.1043   18.2232 H   0  0  0  0  0  0  0  0  0  0  0  0
  1  2  1  0
  2  3  1  0
  3  4  2  0
  5  6  1  0
  6  1  2  0
  4  7  1  0
  5  4  1  0
 10  5  1  0
  7  8  1  0
  9 10  1  0
  8 11  1  0
  9  8  1  0
 14  9  1  0
 11 12  1  0
 12 13  1  0
 13 14  1  0
  1 15  1  0
 15 16  2  0
 15 17  1  0
 17 18  1  0
 18 19  1  0
 19 20  2  0
 19 24  1  0
 20 21  1  0
 21 22  2  0
 22 23  1  0
 23 24  2  0
 22 25  1  0
 24 26  1  0
  2 27  2  0
  3 28  1  0
  7 29  2  0
 11 30  1  0
  6 31  1  0
  9 32  1  6
 10 33  1  0
 10 34  1  0
 11 35  1  1
 12 36  1  0
 12 37  1  0
 13 38  1  0
 13 39  1  0
 17 40  1  0
 18 41  1  0
 18 42  1  0
 20 43  1  0
 21 44  1  0
 23 45  1  0
 28 46  1  0
 30 47  1  0
 30 48  1  0
 30 49  1  0
M  END
> <Uni-Dock RESULT> 
ENERGY=   -4.507  LOWER_BOUND=    4.725  UPPER_BOUND=    9.952
INTER + INTRA:          -4.507
INTER:                  -4.507
INTRA:                   0.000
UNBOUND:                 0.000

$$$$

     RDKit          3D

 49 52  0  0  0  0  0  0  0  0999 V2000
   47.9011    8.3276   14.2132 C   0  0  0  0  0  0  0  0  0  0  0  0
   48.5273    7.1046   14.7824 C   0  0  0  0  0  0  0  0  0  0  0  0
   49.6279    7.2700   15.7967 C   0  0  0  0  0  0  0  0  0  0  0  0
   49.9694    8.5303   16.1550 C   0  0  0  0  0  0  0  0  0  0  0  0
   49.3424    9.6671   15.6259 N   0  0  0  0  0  0  0  0  0  0  0  0
   48.3561    9.5072   14.6635 C   0  0  0  0  0  0  0  0  0  0  0  0
   51.0692    8.6918   17.1915 C   0  0  0  0  0  0  0  0  0  0  0  0
   51.3149    9.9716   17.6839 N   0  0  0  0  0  0  0  0  0  0  0  0
   50.3841   11.0559   17.3891 C   0  0  2  0  0  0  0  0  0  0  0  0
   49.8760   10.9987   15.9396 C   0  0  0  0  0  0  0  0  0  0  0  0
   52.1453   10.0877   18.8870 C   0  0  1  0  0  0  0  0  0  0  0  0
   52.6986   11.5020   19.0378 C   0  0  0  0  0  0  0  0  0  0  0  0
   51.5923   12.5159   18.8371 C   0  0  0  0  0  0  0  0  0  0  0  0
   51.0224   12.3249   17.5503 O   0  0  0  0  0  0  0  0  0  0  0  0
   46.8253    8.3286   13.1824 C   0  0  0  0  0  0  0  0  0  0  0  0
   46.3826    9.3757   12.7168 O   0  0  0  0  0  0  0  0  0  0  0  0
   46.3738    7.0949   12.7959 N   0  0  0  0  0  0  0  0  0  0  0  0
   45.4476    6.9376   11.6979 C   0  0  0  0  0  0  0  0  0  0  0  0
   44.8264    5.5683   11.6748 C   0  0  0  0  0  0  0  0  0  0  0  0
   44.2346    5.0181   12.8241 C   0  0  0  0  0  0  0  0  0  0  0  0
   43.6413    3.7549   12.7762 C   0  0  0  0  0  0  0  0  0  0  0  0
   43.6286    3.0457   11.5798 C   0  0  0  0  0  0  0  0  0  0  0  0
   44.1938    3.5741   10.4287 C   0  0  0  0  0  0  0  0  0  0  0  0
   44.7836    4.8318   10.4851 C   0  0  0  0  0  0  0  0  0  0  0  0
   43.0554    1.8359   11.5379 F   0  0  0  0  0  0  0  0  0  0  0  0
   45.3174    5.3397    9.3650 F   0  0  0  0  0  0  0  0  0  0  0  0
   48.1558    5.9870   14.4225 O   0  0  0  0  0  0  0  0  0  0  0  0
   50.2076    6.1097   16.2868 O   0  0  0  0  0  0  0  0  0  0  0  0
   51.6950    7.7026   17.5801 O   0  0  0  0  0  0  0  0  0  0  0  0
   51.3790    9.6471   20.1424 C   0  0  0  0  0  0  0  0  0  0  0  0
   47.9541   10.4436   14.2784 H   0  0  0  0  0  0  0  0  0  0  0  0
   49.5361   10.9769   18.0819 H   0  0  0  0  0  0  0  0  0  0  0  0
   49.1157   11.7776   15.7972 H   0  0  0  0  0  0  0  0  0  0  0  0
   50.6924   11.2319   15.2429 H   0  0  0  0  0  0  0  0  0  0  0  0
   52.9980    9.4051   18.7767 H   0  0  0  0  0  0  0  0  0  0  0  0
   53.4593   11.6581   18.2618 H   0  0  0  0  0  0  0  0  0  0  0  0
   53.1861   11.6405   20.0086 H   0  0  0  0  0  0  0  0  0  0  0  0
   52.0059   13.5289   18.8716 H   0  0  0  0  0  0  0  0  0  0  0  0
   50.8146   12.4529   19.6057 H   0  0  0  0  0  0  0  0  0  0  0  0
   46.8729    6.2704   13.1349 H   0  0  0  0  0  0  0  0  0  0  0  0
   46.0125    7.1357   10.7802 H   0  0  0  0  0  0  0  0  0  0  0  0
   44.6604    7.6970   11.7705 H   0  0  0  0  0  0  0  0  0  0  0  0
   44.2372    5.5716   13.7615 H   0  0  0  0  0  0  0  0  0  0  0  0
   43.1890    3.3212   13.6630 H   0  0  0  0  0  0  0  0  0  0  0  0
   44.1742    3.0167    9.5000 H   0  0  0  0  0  0  0  0  0  0  0  0
   50.9409    6.3594   16.8914 H   0  0  0  0  0  0  0  0  0  0  0  0
   50.4747   10.2430   20.3010 H   0  0  0  0  0  0  0  0  0  0  0  0
   51.0654    8.6006   20.0659 H   0  0  0  0  0  0  0  0  0  0  0  0
   52.0089    9.7395   21.0334 H   0  0  0  0  0  0  0  0  0  0  0  0
  1  2  1  0
  2  3  1  0
  3  4  2  0
  5  6  1  0
  6  1  2  0
  4  7  1  0
  5  4  1  0
 10  5  1  0
  7  8  1  0
  9 10  1  0
  8 11  1  0
  9  8  1  0
 14  9  1  0
 11 12  1  0
 12 13  1  0
 13 14  1  0
  1 15  1  0
 15 16  2  0
 15 17  1  0
 17 18  1  0
 18 19  1  0
 19 20  2  0
 19 24  1  0
 20 21  1  0
 21 22  2  0
 22 23  1  0
 23 24  2  0
 22 25  1  0
 24 26  1  0
  2 27  2  0
  3 28  1  0
  7 29  2  0
 11 30  1  0
  6 31  1  0
  9 32  1  6
 10 33  1  0
 10 34  1  0
 11 35  1  1
 12 36  1  0
 12 37  1  0
 13 38  1  0
 13 39  1  0
 17 40  1  0
 18 41  1  0
 18 42  1  0
 20 43  1  0
 21 44  1  0
 23 45  1  0
 28 46  1  0
 30 47  1  0
 30 48  1  0
 30 49  1  0
M  END
> <Uni-Dock RESULT> 
ENERGY=   -4.458  LOWER_BOUND=    5.807  UPPER_BOUND=    8.720
INTER + INTRA:          -4.458
INTER:                  -4.458
INTRA:                   0.000
UNBOUND:                 0.000

$$$$

     RDKit          3D

 49 52  0  0  0  0  0  0  0  0999 V2000
   47.9991    4.6917   16.8054 C   0  0  0  0  0  0  0  0  0  0  0  0
   48.4604    6.0505   16.4145 C   0  0  0  0  0  0  0  0  0  0  0  0
   48.1503    6.5390   15.0243 C   0  0  0  0  0  0  0  0  0  0  0  0
   47.4419    5.7192   14.2124 C   0  0  0  0  0  0  0  0  0  0  0  0
   46.9918    4.4540   14.6153 N   0  0  0  0  0  0  0  0  0  0  0  0
   47.3149    3.9956   15.8841 C   0  0  0  0  0  0  0  0  0  0  0  0
   47.1168    6.2235   12.8160 C   0  0  0  0  0  0  0  0  0  0  0  0
   46.2546    5.4587   12.0335 N   0  0  0  0  0  0  0  0  0  0  0  0
   45.5131    4.3547   12.6338 C   0  0  2  0  0  0  0  0  0  0  0  0
   46.3728    3.5592   13.6291 C   0  0  0  0  0  0  0  0  0  0  0  0
   45.7009    6.0818   10.8269 C   0  0  1  0  0  0  0  0  0  0  0  0
   45.1720    5.0279    9.8581 C   0  0  0  0  0  0  0  0  0  0  0  0
   44.3119    4.0267   10.5997 C   0  0  0  0  0  0  0  0  0  0  0  0
   45.0863    3.4305   11.6302 O   0  0  0  0  0  0  0  0  0  0  0  0
   48.2533    4.0578   18.1295 C   0  0  0  0  0  0  0  0  0  0  0  0
   47.8863    2.9111   18.3740 O   0  0  0  0  0  0  0  0  0  0  0  0
   48.9179    4.8347   19.0406 N   0  0  0  0  0  0  0  0  0  0  0  0
   49.3683    4.3004   20.3054 C   0  0  0  0  0  0  0  0  0  0  0  0
   49.7492    5.3861   21.2737 C   0  0  0  0  0  0  0  0  0  0  0  0
   48.8838    6.4603   21.5397 C   0  0  0  0  0  0  0  0  0  0  0  0
   49.2452    7.4460   22.4605 C   0  0  0  0  0  0  0  0  0  0  0  0
   50.4643    7.3542   23.1237 C   0  0  0  0  0  0  0  0  0  0  0  0
   51.3290    6.2956   22.8882 C   0  0  0  0  0  0  0  0  0  0  0  0
   50.9622    5.3191   21.9691 C   0  0  0  0  0  0  0  0  0  0  0  0
   50.8052    8.3002   24.0084 F   0  0  0  0  0  0  0  0  0  0  0  0
   51.7990    4.2934   21.7562 F   0  0  0  0  0  0  0  0  0  0  0  0
   49.0874    6.7505   17.2103 O   0  0  0  0  0  0  0  0  0  0  0  0
   48.6180    7.7993   14.6844 O   0  0  0  0  0  0  0  0  0  0  0  0
   47.5993    7.2877   12.4212 O   0  0  0  0  0  0  0  0  0  0  0  0
   44.6221    7.1174   11.1747 C   0  0  0  0  0  0  0  0  0  0  0  0
   46.9607    2.9876   16.0967 H   0  0  0  0  0  0  0  0  0  0  0  0
   44.6384    4.7708   13.1504 H   0  0  0  0  0  0  0  0  0  0  0  0
   45.7456    2.8011   14.1156 H   0  0  0  0  0  0  0  0  0  0  0  0
   47.1616    3.0124   13.0952 H   0  0  0  0  0  0  0  0  0  0  0  0
   46.5125    6.6223   10.3225 H   0  0  0  0  0  0  0  0  0  0  0  0
   46.0301    4.4971    9.4255 H   0  0  0  0  0  0  0  0  0  0  0  0
   44.6177    5.4850    9.0317 H   0  0  0  0  0  0  0  0  0  0  0  0
   43.9956    3.2311    9.9175 H   0  0  0  0  0  0  0  0  0  0  0  0
   43.4065    4.4758   11.0219 H   0  0  0  0  0  0  0  0  0  0  0  0
   49.2983    5.7290   18.7257 H   0  0  0  0  0  0  0  0  0  0  0  0
   50.2187    3.6457   20.0844 H   0  0  0  0  0  0  0  0  0  0  0  0
   48.5788    3.6783   20.7428 H   0  0  0  0  0  0  0  0  0  0  0  0
   47.9261    6.5337   21.0273 H   0  0  0  0  0  0  0  0  0  0  0  0
   48.5839    8.2827   22.6648 H   0  0  0  0  0  0  0  0  0  0  0  0
   52.2740    6.2296   23.4137 H   0  0  0  0  0  0  0  0  0  0  0  0
   48.3972    7.9698   13.7422 H   0  0  0  0  0  0  0  0  0  0  0  0
   43.7921    6.6732   11.7330 H   0  0  0  0  0  0  0  0  0  0  0  0
   45.0327    7.9216   11.7943 H   0  0  0  0  0  0  0  0  0  0  0  0
   44.2161    7.5743   10.2660 H   0  0  0  0  0  0  0  0  0  0  0  0
  1  2  1  0
  2  3  1  0
  3  4  2  0
  5  6  1  0
  6  1  2  0
  4  7  1  0
  5  4  1  0
 10  5  1  0
  7  8  1  0
  9 10  1  0
  8 11  1  0
  9  8  1  0
 14  9  1  0
 11 12  1  0
 12 13  1  0
 13 14  1  0
  1 15  1  0
 15 16  2  0
 15 17  1  0
 17 18  1  0
 18 19  1  0
 19 20  2  0
 19 24  1  0
 20 21  1  0
 21 22  2  0
 22 23  1  0
 23 24  2  0
 22 25  1  0
 24 26  1  0
  2 27  2  0
  3 28  1  0
  7 29  2  0
 11 30  1  0
  6 31  1  0
  9 32  1  6
 10 33  1  0
 10 34  1  0
 11 35  1  1
 12 36  1  0
 12 37  1  0
 13 38  1  0
 13 39  1  0
 17 40  1  0
 18 41  1  0
 18 42  1  0
 20 43  1  0
 21 44  1  0
 23 45  1  0
 28 46  1  0
 30 47  1  0
 30 48  1  0
 30 49  1  0
M  END
> <Uni-Dock RESULT> 
ENERGY=   -4.159  LOWER_BOUND=    7.142  UPPER_BOUND=   10.938
INTER + INTRA:          -4.159
INTER:                  -4.159
INTRA:                   0.000
UNBOUND:                 0.000

$$$$

     RDKit          3D

 49 52  0  0  0  0  0  0  0  0999 V2000
   48.5230    7.5755   15.0344 C   0  0  0  0  0  0  0  0  0  0  0  0
   47.8972    8.6832   14.2639 C   0  0  0  0  0  0  0  0  0  0  0  0
   46.8598    8.3377   13.2286 C   0  0  0  0  0  0  0  0  0  0  0  0
   46.5342    7.0324   13.0749 C   0  0  0  0  0  0  0  0  0  0  0  0
   47.1171    6.0091   13.8355 N   0  0  0  0  0  0  0  0  0  0  0  0
   48.0998    6.3318   14.7600 C   0  0  0  0  0  0  0  0  0  0  0  0
   45.4745    6.6903   12.0405 C   0  0  0  0  0  0  0  0  0  0  0  0
   45.0182    5.3751   11.9885 N   0  0  0  0  0  0  0  0  0  0  0  0
   45.3734    4.4390   13.0500 C   0  0  2  0  0  0  0  0  0  0  0  0
   46.8333    4.6079   13.5000 C   0  0  0  0  0  0  0  0  0  0  0  0
   43.7977    5.1105   11.2198 C   0  0  1  0  0  0  0  0  0  0  0  0
   43.6788    3.6294   10.8712 C   0  0  0  0  0  0  0  0  0  0  0  0
   43.9424    2.7846   12.0995 C   0  0  0  0  0  0  0  0  0  0  0  0
   45.2371    3.0898   12.5975 O   0  0  0  0  0  0  0  0  0  0  0  0
   49.5817    7.7533   16.0675 C   0  0  0  0  0  0  0  0  0  0  0  0
   50.0933    6.7914   16.6353 O   0  0  0  0  0  0  0  0  0  0  0  0
   49.9393    9.0483   16.3328 N   0  0  0  0  0  0  0  0  0  0  0  0
   51.0559    9.3639   17.1940 C   0  0  0  0  0  0  0  0  0  0  0  0
   51.0505   10.8062   17.6200 C   0  0  0  0  0  0  0  0  0  0  0  0
   49.9000   11.3994   18.1660 C   0  0  0  0  0  0  0  0  0  0  0  0
   49.9221   12.7334   18.5783 C   0  0  0  0  0  0  0  0  0  0  0  0
   51.0943   13.4719   18.4562 C   0  0  0  0  0  0  0  0  0  0  0  0
   52.2466   12.9039   17.9334 C   0  0  0  0  0  0  0  0  0  0  0  0
   52.2160   11.5756   17.5242 C   0  0  0  0  0  0  0  0  0  0  0  0
   51.1117   14.7501   18.8560 F   0  0  0  0  0  0  0  0  0  0  0  0
   53.3376   11.0314   17.0308 F   0  0  0  0  0  0  0  0  0  0  0  0
   48.2299    9.8513   14.4669 O   0  0  0  0  0  0  0  0  0  0  0  0
   46.3163    9.3919   12.5104 O   0  0  0  0  0  0  0  0  0  0  0  0
   45.0369    7.5718   11.2971 O   0  0  0  0  0  0  0  0  0  0  0  0
   42.5495    5.6163   11.9569 C   0  0  0  0  0  0  0  0  0  0  0  0
   48.5262    5.4716   15.2748 H   0  0  0  0  0  0  0  0  0  0  0  0
   44.7014    4.6145   13.9001 H   0  0  0  0  0  0  0  0  0  0  0  0
   47.0216    3.9462   14.3554 H   0  0  0  0  0  0  0  0  0  0  0  0
   47.5152    4.2843   12.7022 H   0  0  0  0  0  0  0  0  0  0  0  0
   43.8626    5.6713   10.2784 H   0  0  0  0  0  0  0  0  0  0  0  0
   44.4389    3.3921   10.1154 H   0  0  0  0  0  0  0  0  0  0  0  0
   42.7005    3.3967   10.4377 H   0  0  0  0  0  0  0  0  0  0  0  0
   43.9303    1.7235   11.8304 H   0  0  0  0  0  0  0  0  0  0  0  0
   43.1933    2.9323   12.8848 H   0  0  0  0  0  0  0  0  0  0  0  0
   49.5600    9.7856   15.7360 H   0  0  0  0  0  0  0  0  0  0  0  0
   51.9642    9.1162   16.6335 H   0  0  0  0  0  0  0  0  0  0  0  0
   51.0295    8.7190   18.0800 H   0  0  0  0  0  0  0  0  0  0  0  0
   48.9816   10.8239   18.2687 H   0  0  0  0  0  0  0  0  0  0  0  0
   49.0339   13.1997   18.9940 H   0  0  0  0  0  0  0  0  0  0  0  0
   53.1566   13.4854   17.8474 H   0  0  0  0  0  0  0  0  0  0  0  0
   45.7009    9.0258   11.8376 H   0  0  0  0  0  0  0  0  0  0  0  0
   42.4348    5.1469   12.9390 H   0  0  0  0  0  0  0  0  0  0  0  0
   42.5998    6.6978   12.1211 H   0  0  0  0  0  0  0  0  0  0  0  0
   41.6454    5.4119   11.3736 H   0  0  0  0  0  0  0  0  0  0  0  0
  1  2  1  0
  2  3  1  0
  3  4  2  0
  5  6  1  0
  6  1  2  0
  4  7  1  0
  5  4  1  0
 10  5  1  0
  7  8  1  0
  9 10  1  0
  8 11  1  0
  9  8  1  0
 14  9  1  0
 11 12  1  0
 12 13  1  0
 13 14  1  0
  1 15  1  0
 15 16  2  0
 15 17  1  0
 17 18  1  0
 18 19  1  0
 19 20  2  0
 19 24  1  0
 20 21  1  0
 21 22  2  0
 22 23  1  0
 23 24  2  0
 22 25  1  0
 24 26  1  0
  2 27  2  0
  3 28  1  0
  7 29  2  0
 11 30  1  0
  6 31  1  0
  9 32  1  6
 10 33  1  0
 10 34  1  0
 11 35  1  1
 12 36  1  0
 12 37  1  0
 13 38  1  0
 13 39  1  0
 17 40  1  0
 18 41  1  0
 18 42  1  0
 20 43  1  0
 21 44  1  0
 23 45  1  0
 28 46  1  0
 30 47  1  0
 30 48  1  0
 30 49  1  0
M  END
> <Uni-Dock RESULT> 
ENERGY=   -4.133  LOWER_BOUND=    6.730  UPPER_BOUND=   10.281
INTER + INTRA:          -4.133
INTER:                  -4.133
INTRA:                   0.000
UNBOUND:                 0.000

$$$$

     RDKit          3D

 49 52  0  0  0  0  0  0  0  0999 V2000
   47.9923    9.5215   12.9188 C   0  0  0  0  0  0  0  0  0  0  0  0
   46.5173    9.3310   12.9216 C   0  0  0  0  0  0  0  0  0  0  0  0
   45.6861   10.1674   11.9851 C   0  0  0  0  0  0  0  0  0  0  0  0
   46.3345   11.0321   11.1696 C   0  0  0  0  0  0  0  0  0  0  0  0
   47.7296   11.1712   11.1646 N   0  0  0  0  0  0  0  0  0  0  0  0
   48.4851   10.4251   12.0575 C   0  0  0  0  0  0  0  0  0  0  0  0
   45.4926   11.8619   10.2143 C   0  0  0  0  0  0  0  0  0  0  0  0
   46.1582   12.6323    9.2635 N   0  0  0  0  0  0  0  0  0  0  0  0
   47.5897   12.4474    9.0494 C   0  0  2  0  0  0  0  0  0  0  0  0
   48.3464   12.2420   10.3714 C   0  0  0  0  0  0  0  0  0  0  0  0
   45.3645   13.1825    8.1599 C   0  0  1  0  0  0  0  0  0  0  0  0
   46.0933   14.3403    7.4835 C   0  0  0  0  0  0  0  0  0  0  0  0
   47.5303   13.9552    7.2025 C   0  0  0  0  0  0  0  0  0  0  0  0
   48.1585   13.6014    8.4262 O   0  0  0  0  0  0  0  0  0  0  0  0
   48.9433    8.7933   13.8049 C   0  0  0  0  0  0  0  0  0  0  0  0
   50.1485    9.0315   13.7875 O   0  0  0  0  0  0  0  0  0  0  0  0
   48.3841    7.8541   14.6298 N   0  0  0  0  0  0  0  0  0  0  0  0
   49.1591    7.1838   15.6486 C   0  0  0  0  0  0  0  0  0  0  0  0
   48.4541    5.9692   16.1868 C   0  0  0  0  0  0  0  0  0  0  0  0
   47.9304    4.9906   15.3255 C   0  0  0  0  0  0  0  0  0  0  0  0
   47.3006    3.8577   15.8451 C   0  0  0  0  0  0  0  0  0  0  0  0
   47.2032    3.6958   17.2231 C   0  0  0  0  0  0  0  0  0  0  0  0
   47.7251    4.6414   18.0933 C   0  0  0  0  0  0  0  0  0  0  0  0
   48.3495    5.7670   17.5679 C   0  0  0  0  0  0  0  0  0  0  0  0
   46.6012    2.6061   17.7169 F   0  0  0  0  0  0  0  0  0  0  0  0
   48.8613    6.6702   18.4164 F   0  0  0  0  0  0  0  0  0  0  0  0
   45.9942    8.5136   13.6797 O   0  0  0  0  0  0  0  0  0  0  0  0
   44.3125    9.9833   12.0326 O   0  0  0  0  0  0  0  0  0  0  0  0
   44.2622   11.8211   10.2886 O   0  0  0  0  0  0  0  0  0  0  0  0
   44.9786   12.0936    7.1487 C   0  0  0  0  0  0  0  0  0  0  0  0
   49.5546   10.6274   12.0130 H   0  0  0  0  0  0  0  0  0  0  0  0
   47.7287   11.5709    8.4033 H   0  0  0  0  0  0  0  0  0  0  0  0
   49.3981   12.0197   10.1494 H   0  0  0  0  0  0  0  0  0  0  0  0
   48.3432   13.1708   10.9576 H   0  0  0  0  0  0  0  0  0  0  0  0
   44.4292   13.5756    8.5792 H   0  0  0  0  0  0  0  0  0  0  0  0
   46.0900   15.1968    8.1703 H   0  0  0  0  0  0  0  0  0  0  0  0
   45.5844   14.6530    6.5656 H   0  0  0  0  0  0  0  0  0  0  0  0
   48.0700   14.8119    6.7862 H   0  0  0  0  0  0  0  0  0  0  0  0
   47.6164   13.1328    6.4843 H   0  0  0  0  0  0  0  0  0  0  0  0
   47.3650    7.7985   14.6765 H   0  0  0  0  0  0  0  0  0  0  0  0
   49.3440    7.9209   16.4379 H   0  0  0  0  0  0  0  0  0  0  0  0
   50.1319    6.8915   15.2365 H   0  0  0  0  0  0  0  0  0  0  0  0
   48.0090    5.1101   14.2463 H   0  0  0  0  0  0  0  0  0  0  0  0
   46.8871    3.1016   15.1846 H   0  0  0  0  0  0  0  0  0  0  0  0
   47.6494    4.5040   19.1652 H   0  0  0  0  0  0  0  0  0  0  0  0
   43.8911   10.6235   11.4179 H   0  0  0  0  0  0  0  0  0  0  0  0
   45.8577   11.6046    6.7173 H   0  0  0  0  0  0  0  0  0  0  0  0
   44.3755   11.3118    7.6221 H   0  0  0  0  0  0  0  0  0  0  0  0
   44.3877   12.5171    6.3296 H   0  0  0  0  0  0  0  0  0  0  0  0
  1  2  1  0
  2  3  1  0
  3  4  2  0
  5  6  1  0
  6  1  2  0
  4  7  1  0
  5  4  1  0
 10  5  1  0
  7  8  1  0
  9 10  1  0
  8 11  1  0
  9  8  1  0
 14  9  1  0
 11 12  1  0
 12 13  1  0
 13 14  1  0
  1 15  1  0
 15 16  2  0
 15 17  1  0
 17 18  1  0
 18 19  1  0
 19 20  2  0
 19 24  1  0
 20 21  1  0
 21 22  2  0
 22 23  1  0
 23 24  2  0
 22 25  1  0
 24 26  1  0
  2 27  2  0
  3 28  1  0
  7 29  2  0
 11 30  1  0
  6 31  1  0
  9 32  1  6
 10 33  1  0
 10 34  1  0
 11 35  1  1
 12 36  1  0
 12 37  1  0
 13 38  1  0
 13 39  1  0
 17 40  1  0
 18 41  1  0
 18 42  1  0
 20 43  1  0
 21 44  1  0
 23 45  1  0
 28 46  1  0
 30 47  1  0
 30 48  1  0
 30 49  1  0
M  END
> <Uni-Dock RESULT> 
ENERGY=   -4.077  LOWER_BOUND=    4.303  UPPER_BOUND=    5.318
INTER + INTRA:          -4.077
INTER:                  -4.077
INTRA:                   0.000
UNBOUND:                 0.000

$$$$

     RDKit          3D

 49 52  0  0  0  0  0  0  0  0999 V2000
   49.8145    9.6461   11.7340 C   0  0  0  0  0  0  0  0  0  0  0  0
   49.1184    8.3698   12.0479 C   0  0  0  0  0  0  0  0  0  0  0  0
   47.6207    8.3911   12.2032 C   0  0  0  0  0  0  0  0  0  0  0  0
   46.9857    9.5730   12.0213 C   0  0  0  0  0  0  0  0  0  0  0  0
   47.6623   10.7570   11.6957 N   0  0  0  0  0  0  0  0  0  0  0  0
   49.0456   10.7370   11.5925 C   0  0  0  0  0  0  0  0  0  0  0  0
   45.4725    9.5860   12.1624 C   0  0  0  0  0  0  0  0  0  0  0  0
   44.7982   10.7559   11.8197 N   0  0  0  0  0  0  0  0  0  0  0  0
   45.5052   11.8267   11.1251 C   0  0  2  0  0  0  0  0  0  0  0  0
   46.9265   12.0276   11.6748 C   0  0  0  0  0  0  0  0  0  0  0  0
   43.3426   10.6777   11.6596 C   0  0  1  0  0  0  0  0  0  0  0  0
   42.7059   12.0622   11.7434 C   0  0  0  0  0  0  0  0  0  0  0  0
   43.4659   13.0364   10.8686 C   0  0  0  0  0  0  0  0  0  0  0  0
   44.8216   13.0712   11.2906 O   0  0  0  0  0  0  0  0  0  0  0  0
   51.2892    9.7923   11.5801 C   0  0  0  0  0  0  0  0  0  0  0  0
   51.8078   10.8857   11.3679 O   0  0  0  0  0  0  0  0  0  0  0  0
   52.0144    8.6361   11.6927 N   0  0  0  0  0  0  0  0  0  0  0  0
   53.4590    8.6484   11.7207 C   0  0  0  0  0  0  0  0  0  0  0  0
   54.0399    7.2794   11.4969 C   0  0  0  0  0  0  0  0  0  0  0  0
   53.6334    6.4849   10.4119 C   0  0  0  0  0  0  0  0  0  0  0  0
   54.2024    5.2261   10.2071 C   0  0  0  0  0  0  0  0  0  0  0  0
   55.1841    4.7649   11.0778 C   0  0  0  0  0  0  0  0  0  0  0  0
   55.6117    5.5372   12.1476 C   0  0  0  0  0  0  0  0  0  0  0  0
   55.0394    6.7886   12.3452 C   0  0  0  0  0  0  0  0  0  0  0  0
   55.7292    3.5584   10.8755 F   0  0  0  0  0  0  0  0  0  0  0  0
   55.4670    7.5331   13.3751 F   0  0  0  0  0  0  0  0  0  0  0  0
   49.7579    7.3264   12.1844 O   0  0  0  0  0  0  0  0  0  0  0  0
   47.0069    7.1893   12.5218 O   0  0  0  0  0  0  0  0  0  0  0  0
   44.8848    8.5740   12.5518 O   0  0  0  0  0  0  0  0  0  0  0  0
   42.9590    9.9605   10.3574 C   0  0  0  0  0  0  0  0  0  0  0  0
   49.4900   11.7082   11.3782 H   0  0  0  0  0  0  0  0  0  0  0  0
   45.5538   11.5694   10.0590 H   0  0  0  0  0  0  0  0  0  0  0  0
   47.4428   12.7784   11.0627 H   0  0  0  0  0  0  0  0  0  0  0  0
   46.8840   12.4349   12.6939 H   0  0  0  0  0  0  0  0  0  0  0  0
   42.9432   10.0755   12.4860 H   0  0  0  0  0  0  0  0  0  0  0  0
   42.7680   12.4066   12.7840 H   0  0  0  0  0  0  0  0  0  0  0  0
   41.6460   12.0334   11.4694 H   0  0  0  0  0  0  0  0  0  0  0  0
   43.0535   14.0434   10.9885 H   0  0  0  0  0  0  0  0  0  0  0  0
   43.4100   12.7837    9.8044 H   0  0  0  0  0  0  0  0  0  0  0  0
   51.5279    7.7886   11.9906 H   0  0  0  0  0  0  0  0  0  0  0  0
   53.7505    9.0515   12.6970 H   0  0  0  0  0  0  0  0  0  0  0  0
   53.8349    9.3366   10.9547 H   0  0  0  0  0  0  0  0  0  0  0  0
   52.8693    6.8437    9.7245 H   0  0  0  0  0  0  0  0  0  0  0  0
   53.8869    4.6043    9.3748 H   0  0  0  0  0  0  0  0  0  0  0  0
   56.3810    5.1719   12.8173 H   0  0  0  0  0  0  0  0  0  0  0  0
   46.0463    7.3539   12.6472 H   0  0  0  0  0  0  0  0  0  0  0  0
   43.3660   10.4657    9.4758 H   0  0  0  0  0  0  0  0  0  0  0  0
   43.3410    8.9343   10.3451 H   0  0  0  0  0  0  0  0  0  0  0  0
   41.8704    9.9097   10.2490 H   0  0  0  0  0  0  0  0  0  0  0  0
  1  2  1  0
  2  3  1  0
  3  4  2  0
  5  6  1  0
  6  1  2  0
  4  7  1  0
  5  4  1  0
 10  5  1  0
  7  8  1  0
  9 10  1  0
  8 11  1  0
  9  8  1  0
 14  9  1  0
 11 12  1  0
 12 13  1  0
 13 14  1  0
  1 15  1  0
 15 16  2  0
 15 17  1  0
 17 18  1  0
 18 19  1  0
 19 20  2  0
 19 24  1  0
 20 21  1  0
 21 22  2  0
 22 23  1  0
 23 24  2  0
 22 25  1  0
 24 26  1  0
  2 27  2  0
  3 28  1  0
  7 29  2  0
 11 30  1  0
  6 31  1  0
  9 32  1  6
 10 33  1  0
 10 34  1  0
 11 35  1  1
 12 36  1  0
 12 37  1  0
 13 38  1  0
 13 39  1  0
 17 40  1  0
 18 41  1  0
 18 42  1  0
 20 43  1  0
 21 44  1  0
 23 45  1  0
 28 46  1  0
 30 47  1  0
 30 48  1  0
 30 49  1  0
M  END
> <Uni-Dock RESULT> 
ENERGY=   -3.867  LOWER_BOUND=    5.969  UPPER_BOUND=    7.289
INTER + INTRA:          -3.867
INTER:                  -3.867
INTRA:                   0.000
UNBOUND:                 0.000

$$$$

     RDKit          3D

 49 52  0  0  0  0  0  0  0  0999 V2000
   48.6478    8.6603   12.8080 C   0  0  0  0  0  0  0  0  0  0  0  0
   49.3460    7.7978   11.8177 C   0  0  0  0  0  0  0  0  0  0  0  0
   50.7843    8.1022   11.4920 C   0  0  0  0  0  0  0  0  0  0  0  0
   51.3723    9.1339   12.1425 C   0  0  0  0  0  0  0  0  0  0  0  0
   50.7009    9.9133   13.0951 N   0  0  0  0  0  0  0  0  0  0  0  0
   49.3649    9.6509   13.3610 C   0  0  0  0  0  0  0  0  0  0  0  0
   52.8290    9.4265   11.8228 C   0  0  0  0  0  0  0  0  0  0  0  0
   53.4864   10.3772   12.6005 N   0  0  0  0  0  0  0  0  0  0  0  0
   52.8608   10.8793   13.8193 C   0  0  2  0  0  0  0  0  0  0  0  0
   51.3525   11.1125   13.6368 C   0  0  0  0  0  0  0  0  0  0  0  0
   54.9483   10.4399   12.5032 C   0  0  1  0  0  0  0  0  0  0  0  0
   55.4765   11.7736   13.0242 C   0  0  0  0  0  0  0  0  0  0  0  0
   54.8382   12.0990   14.3579 C   0  0  0  0  0  0  0  0  0  0  0  0
   53.4278   12.1366   14.1950 O   0  0  0  0  0  0  0  0  0  0  0  0
   47.2220    8.5055   13.2116 C   0  0  0  0  0  0  0  0  0  0  0  0
   46.6897    9.2822   14.0008 O   0  0  0  0  0  0  0  0  0  0  0  0
   46.5571    7.4506   12.6456 N   0  0  0  0  0  0  0  0  0  0  0  0
   45.1344    7.2696   12.8228 C   0  0  0  0  0  0  0  0  0  0  0  0
   44.6863    5.8911   12.4224 C   0  0  0  0  0  0  0  0  0  0  0  0
   45.3341    4.7445   12.9118 C   0  0  0  0  0  0  0  0  0  0  0  0
   44.8876    3.4725   12.5475 C   0  0  0  0  0  0  0  0  0  0  0  0
   43.7888    3.3442   11.7044 C   0  0  0  0  0  0  0  0  0  0  0  0
   43.1244    4.4612   11.2201 C   0  0  0  0  0  0  0  0  0  0  0  0
   43.5759    5.7240   11.5865 C   0  0  0  0  0  0  0  0  0  0  0  0
   43.3623    2.1221   11.3604 F   0  0  0  0  0  0  0  0  0  0  0  0
   42.9207    6.7979   11.1229 F   0  0  0  0  0  0  0  0  0  0  0  0
   48.7539    6.8645   11.2748 O   0  0  0  0  0  0  0  0  0  0  0  0
   51.3965    7.2951   10.5451 O   0  0  0  0  0  0  0  0  0  0  0  0
   53.3913    8.8143   10.9117 O   0  0  0  0  0  0  0  0  0  0  0  0
   55.6098    9.2546   13.2206 C   0  0  0  0  0  0  0  0  0  0  0  0
   48.9128   10.3309   14.0820 H   0  0  0  0  0  0  0  0  0  0  0  0
   53.0276   10.1442   14.6175 H   0  0  0  0  0  0  0  0  0  0  0  0
   50.9172   11.4024   14.6018 H   0  0  0  0  0  0  0  0  0  0  0  0
   51.1798   11.9549   12.9536 H   0  0  0  0  0  0  0  0  0  0  0  0
   55.2203   10.3640   11.4424 H   0  0  0  0  0  0  0  0  0  0  0  0
   55.2009   12.5567   12.3057 H   0  0  0  0  0  0  0  0  0  0  0  0
   56.5687   11.7693   13.1027 H   0  0  0  0  0  0  0  0  0  0  0  0
   55.1618   13.0897   14.6929 H   0  0  0  0  0  0  0  0  0  0  0  0
   55.1069   11.3836   15.1425 H   0  0  0  0  0  0  0  0  0  0  0  0
   47.0276    6.9237   11.9076 H   0  0  0  0  0  0  0  0  0  0  0  0
   44.6425    8.0407   12.2195 H   0  0  0  0  0  0  0  0  0  0  0  0
   44.8692    7.4523   13.8706 H   0  0  0  0  0  0  0  0  0  0  0  0
   46.1911    4.8396   13.5763 H   0  0  0  0  0  0  0  0  0  0  0  0
   45.3888    2.5826   12.9163 H   0  0  0  0  0  0  0  0  0  0  0  0
   42.2660    4.3514   10.5684 H   0  0  0  0  0  0  0  0  0  0  0  0
   52.3053    7.6338   10.3881 H   0  0  0  0  0  0  0  0  0  0  0  0
   55.3462    9.2190   14.2824 H   0  0  0  0  0  0  0  0  0  0  0  0
   55.2971    8.3023   12.7794 H   0  0  0  0  0  0  0  0  0  0  0  0
   56.7005    9.3135   13.1418 H   0  0  0  0  0  0  0  0  0  0  0  0
  1  2  1  0
  2  3  1  0
  3  4  2  0
  5  6  1  0
  6  1  2  0
  4  7  1  0
  5  4  1  0
 10  5  1  0
  7  8  1  0
  9 10  1  0
  8 11  1  0
  9  8  1  0
 14  9  1  0
 11 12  1  0
 12 13  1  0
 13 14  1  0
  1 15  1  0
 15 16  2  0
 15 17  1  0
 17 18  1  0
 18 19  1  0
 19 20  2  0
 19 24  1  0
 20 21  1  0
 21 22  2  0
 22 23  1  0
 23 24  2  0
 22 25  1  0
 24 26  1  0
  2 27  2  0
  3 28  1  0
  7 29  2  0
 11 30  1  0
  6 31  1  0
  9 32  1  6
 10 33  1  0
 10 34  1  0
 11 35  1  1
 12 36  1  0
 12 37  1  0
 13 38  1  0
 13 39  1  0
 17 40  1  0
 18 41  1  0
 18 42  1  0
 20 43  1  0
 21 44  1  0
 23 45  1  0
 28 46  1  0
 30 47  1  0
 30 48  1  0
 30 49  1  0
M  END
> <Uni-Dock RESULT> 
ENERGY=   -3.775  LOWER_BOUND=    5.891  UPPER_BOUND=    8.515
INTER + INTRA:          -3.775
INTER:                  -3.775
INTRA:                   0.000
UNBOUND:                 0.000

$$$$
