
     RDKit          3D

 49 52  0  0  0  0  0  0  0  0999 V2000
   46.0896    7.2718   12.8667 C   0  0  0  0  0  0  0  0  0  0  0  0
   47.0084    8.3158   13.4033 C   0  0  0  0  0  0  0  0  0  0  0  0
   48.0977    7.8824   14.3493 C   0  0  0  0  0  0  0  0  0  0  0  0
   48.0830    6.5966   14.7699 C   0  0  0  0  0  0  0  0  0  0  0  0
   47.1285    5.6586   14.3347 N   0  0  0  0  0  0  0  0  0  0  0  0
   46.2156    6.0354   13.3634 C   0  0  0  0  0  0  0  0  0  0  0  0
   49.1377    6.1798   15.7791 C   0  0  0  0  0  0  0  0  0  0  0  0
   48.9352    4.9758   16.4495 N   0  0  0  0  0  0  0  0  0  0  0  0
   47.7090    4.2363   16.2810 C   0  0  2  0  0  0  0  0  0  0  0  0
   47.1690    4.2803   14.8423 C   0  0  0  0  0  0  0  0  0  0  0  0
   49.6418    4.7264   17.7071 C   0  0  1  0  0  0  0  0  0  0  0  0
   48.6196    4.4064   18.8107 C   0  0  0  0  0  0  0  0  0  0  0  0
   47.2939    5.0901   18.4954 C   0  0  0  0  0  0  0  0  0  0  0  0
   46.7534    4.7138   17.2210 O   0  0  0  0  0  0  0  0  0  0  0  0
   45.0325    7.5193   11.8510 C   0  0  0  0  0  0  0  0  0  0  0  0
   44.5058    6.5766   11.2363 O   0  0  0  0  0  0  0  0  0  0  0  0
   44.6748    8.8486   11.6815 N   0  0  0  0  0  0  0  0  0  0  0  0
   43.6866    9.2457   10.7092 C   0  0  0  0  0  0  0  0  0  0  0  0
   43.0328   10.5499   11.0717 C   0  0  0  0  0  0  0  0  0  0  0  0
   43.7768   11.7367   11.1839 C   0  0  0  0  0  0  0  0  0  0  0  0
   43.1428   12.9333   11.5193 C   0  0  0  0  0  0  0  0  0  0  0  0
   41.7646   12.9506   11.7380 C   0  0  0  0  0  0  0  0  0  0  0  0
   41.0124   11.7949   11.6285 C   0  0  0  0  0  0  0  0  0  0  0  0
   41.6506   10.6072   11.2925 C   0  0  0  0  0  0  0  0  0  0  0  0
   41.1664   14.1117   12.0526 F   0  0  0  0  0  0  0  0  0  0  0  0
   40.9080    9.4947   11.1775 F   0  0  0  0  0  0  0  0  0  0  0  0
   46.8773    9.4986   13.0764 O   0  0  0  0  0  0  0  0  0  0  0  0
   49.0258    8.8460   14.7365 O   0  0  0  0  0  0  0  0  0  0  0  0
   50.1139    6.9068   15.9945 O   0  0  0  0  0  0  0  0  0  0  0  0
   50.6697    3.6064   17.5458 C   0  0  0  0  0  0  0  0  0  0  0  0
   45.5675    5.2239   13.0231 H   0  0  0  0  0  0  0  0  0  0  0  0
   47.9012    3.1850   16.5183 H   0  0  0  0  0  0  0  0  0  0  0  0
   46.1682    3.8259   14.8072 H   0  0  0  0  0  0  0  0  0  0  0  0
   47.8352    3.6998   14.1893 H   0  0  0  0  0  0  0  0  0  0  0  0
   50.1848    5.6352   17.9964 H   0  0  0  0  0  0  0  0  0  0  0  0
   48.4433    3.3231   18.8702 H   0  0  0  0  0  0  0  0  0  0  0  0
   48.9997    4.7214   19.7871 H   0  0  0  0  0  0  0  0  0  0  0  0
   47.4132    6.1800   18.5032 H   0  0  0  0  0  0  0  0  0  0  0  0
   46.5470    4.8450   19.2577 H   0  0  0  0  0  0  0  0  0  0  0  0
   45.2133    9.5555   12.1713 H   0  0  0  0  0  0  0  0  0  0  0  0
   42.9438    8.4495   10.6126 H   0  0  0  0  0  0  0  0  0  0  0  0
   44.1857    9.3353    9.7432 H   0  0  0  0  0  0  0  0  0  0  0  0
   44.8486   11.7348   11.0125 H   0  0  0  0  0  0  0  0  0  0  0  0
   43.7106   13.8495   11.6138 H   0  0  0  0  0  0  0  0  0  0  0  0
   39.9438   11.8099   11.8015 H   0  0  0  0  0  0  0  0  0  0  0  0
   49.7186    8.4023   15.2718 H   0  0  0  0  0  0  0  0  0  0  0  0
   51.3738    3.8299   16.7360 H   0  0  0  0  0  0  0  0  0  0  0  0
   50.1848    2.6555   17.2957 H   0  0  0  0  0  0  0  0  0  0  0  0
   51.2394    3.4641   18.4713 H   0  0  0  0  0  0  0  0  0  0  0  0
  1  2  1  0
  2  3  1  0
  3  4  2  0
  5  6  1  0
  6  1  2  0
  4  7  1  0
  5  4  1  0
 10  5  1  0
  7  8  1  0
  9 10  1  0
  8 11  1  0
  9  8  1  0
 14  9  1  0
 11 12  1  0
 12 13  1  0
 13 14  1  0
  1 15  1  0
 15 16  2  0
 15 17  1  0
 17 18  1  0
 18 19  1  0
 19 20  2  0
 19 24  1  0
 20 21  1  0
 21 22  2  0
 22 23  1  0
 23 24  2  0
 22 25  1  0
 24 26  1  0
  2 27  2  0
  3 28  1  0
  7 29  2  0
 11 30  1  0
  6 31  1  0
  9 32  1  6
 10 33  1  0
 10 34  1  0
 11 35  1  1
 12 36  1  0
 12 37  1  0
 13 38  1  0
 13 39  1  0
 17 40  1  0
 18 41  1  0
 18 42  1  0
 20 43  1  0
 21 44  1  0
 23 45  1  0
 28 46  1  0
 30 47  1  0
 30 48  1  0
 30 49  1  0
M  END
> <Uni-Dock RESULT> 
ENERGY=   -4.811  LOWER_BOUND=    0.000  UPPER_BOUND=    0.000
INTER + INTRA:          -4.811
INTER:                  -4.811
INTRA:                   0.000
UNBOUND:                 0.000

$$$$

     RDKit          3D

 49 52  0  0  0  0  0  0  0  0999 V2000
   48.1252    5.0105   16.9911 C   0  0  0  0  0  0  0  0  0  0  0  0
   48.5741    6.4199   16.8057 C   0  0  0  0  0  0  0  0  0  0  0  0
   49.2846    7.0934   17.9506 C   0  0  0  0  0  0  0  0  0  0  0  0
   49.3398    6.4288   19.1277 C   0  0  0  0  0  0  0  0  0  0  0  0
   48.8016    5.1409   19.3068 N   0  0  0  0  0  0  0  0  0  0  0  0
   48.2710    4.4799   18.2111 C   0  0  0  0  0  0  0  0  0  0  0  0
   49.9921    7.1384   20.3006 C   0  0  0  0  0  0  0  0  0  0  0  0
   49.7680    6.6080   21.5688 N   0  0  0  0  0  0  0  0  0  0  0  0
   48.8472    5.5147   21.7576 C   0  0  2  0  0  0  0  0  0  0  0  0
   48.8905    4.4837   20.6179 C   0  0  0  0  0  0  0  0  0  0  0  0
   49.9806    7.4500   22.7473 C   0  0  1  0  0  0  0  0  0  0  0  0
   48.6918    7.4875   23.5855 C   0  0  0  0  0  0  0  0  0  0  0  0
   47.4844    7.2749   22.6792 C   0  0  0  0  0  0  0  0  0  0  0  0
   47.5396    6.0442   21.9442 O   0  0  0  0  0  0  0  0  0  0  0  0
   47.5031    4.1764   15.9292 C   0  0  0  0  0  0  0  0  0  0  0  0
   47.4223    2.9427   16.0531 O   0  0  0  0  0  0  0  0  0  0  0  0
   47.0069    4.8781   14.8406 N   0  0  0  0  0  0  0  0  0  0  0  0
   46.4047    4.2020   13.7183 C   0  0  0  0  0  0  0  0  0  0  0  0
   45.4432    5.0886   12.9770 C   0  0  0  0  0  0  0  0  0  0  0  0
   45.8678    6.2797   12.3641 C   0  0  0  0  0  0  0  0  0  0  0  0
   44.9536    7.0817   11.6805 C   0  0  0  0  0  0  0  0  0  0  0  0
   43.6150    6.6952   11.6015 C   0  0  0  0  0  0  0  0  0  0  0  0
   43.1764    5.5245   12.1938 C   0  0  0  0  0  0  0  0  0  0  0  0
   44.0931    4.7301   12.8715 C   0  0  0  0  0  0  0  0  0  0  0  0
   42.7474    7.4734   10.9332 F   0  0  0  0  0  0  0  0  0  0  0  0
   43.6577    3.5904   13.4318 F   0  0  0  0  0  0  0  0  0  0  0  0
   48.3692    7.0114   15.7422 O   0  0  0  0  0  0  0  0  0  0  0  0
   49.8124    8.3607   17.7156 O   0  0  0  0  0  0  0  0  0  0  0  0
   50.6702    8.1549   20.1133 O   0  0  0  0  0  0  0  0  0  0  0  0
   51.1738    6.9567   23.5656 C   0  0  0  0  0  0  0  0  0  0  0  0
   47.9532    3.4554   18.4205 H   0  0  0  0  0  0  0  0  0  0  0  0
   49.1181    4.9862   22.6772 H   0  0  0  0  0  0  0  0  0  0  0  0
   48.0740    3.7577   20.7427 H   0  0  0  0  0  0  0  0  0  0  0  0
   49.8449    3.9409   20.6592 H   0  0  0  0  0  0  0  0  0  0  0  0
   50.2048    8.4727   22.4181 H   0  0  0  0  0  0  0  0  0  0  0  0
   48.7004    6.6894   24.3413 H   0  0  0  0  0  0  0  0  0  0  0  0
   48.6138    8.4361   24.1249 H   0  0  0  0  0  0  0  0  0  0  0  0
   47.3975    8.0958   21.9576 H   0  0  0  0  0  0  0  0  0  0  0  0
   46.5613    7.2681   23.2681 H   0  0  0  0  0  0  0  0  0  0  0  0
   47.1872    5.8755   14.7914 H   0  0  0  0  0  0  0  0  0  0  0  0
   45.9064    3.2968   14.0750 H   0  0  0  0  0  0  0  0  0  0  0  0
   47.2067    3.8828   13.0511 H   0  0  0  0  0  0  0  0  0  0  0  0
   46.9074    6.5876   12.4167 H   0  0  0  0  0  0  0  0  0  0  0  0
   45.2725    8.0033   11.2119 H   0  0  0  0  0  0  0  0  0  0  0  0
   42.1369    5.2281   12.1339 H   0  0  0  0  0  0  0  0  0  0  0  0
   50.3189    8.6310   18.5117 H   0  0  0  0  0  0  0  0  0  0  0  0
   52.0798    6.9036   22.9509 H   0  0  0  0  0  0  0  0  0  0  0  0
   50.9952    5.9499   23.9609 H   0  0  0  0  0  0  0  0  0  0  0  0
   51.3682    7.6246   24.4127 H   0  0  0  0  0  0  0  0  0  0  0  0
  1  2  1  0
  2  3  1  0
  3  4  2  0
  5  6  1  0
  6  1  2  0
  4  7  1  0
  5  4  1  0
 10  5  1  0
  7  8  1  0
  9 10  1  0
  8 11  1  0
  9  8  1  0
 14  9  1  0
 11 12  1  0
 12 13  1  0
 13 14  1  0
  1 15  1  0
 15 16  2  0
 15 17  1  0
 17 18  1  0
 18 19  1  0
 19 20  2  0
 19 24  1  0
 20 21  1  0
 21 22  2  0
 22 23  1  0
 23 24  2  0
 22 25  1  0
 24 26  1  0
  2 27  2  0
  3 28  1  0
  7 29  2  0
 11 30  1  0
  6 31  1  0
  9 32  1  6
 10 33  1  0
 10 34  1  0
 11 35  1  1
 12 36  1  0
 12 37  1  0
 13 38  1  0
 13 39  1  0
 17 40  1  0
 18 41  1  0
 18 42  1  0
 20 43  1  0
 21 44  1  0
 23 45  1  0
 28 46  1  0
 30 47  1  0
 30 48  1  0
 30 49  1  0
M  END
> <Uni-Dock RESULT> 
ENERGY=   -4.633  LOWER_BOUND=    3.520  UPPER_BOUND=    5.633
INTER + INTRA:          -4.633
INTER:                  -4.633
INTRA:                   0.000
UNBOUND:                 0.000

$$$$

     RDKit          3D

 49 52  0  0  0  0  0  0  0  0999 V2000
   47.9101    7.1858   13.7357 C   0  0  0  0  0  0  0  0  0  0  0  0
   47.8014    6.0805   14.7301 C   0  0  0  0  0  0  0  0  0  0  0  0
   48.7268    6.1032   15.9185 C   0  0  0  0  0  0  0  0  0  0  0  0
   49.6995    7.0434   15.9334 C   0  0  0  0  0  0  0  0  0  0  0  0
   49.8512    8.0055   14.9178 N   0  0  0  0  0  0  0  0  0  0  0  0
   48.9125    8.0572   13.9004 C   0  0  0  0  0  0  0  0  0  0  0  0
   50.6761    7.0196   17.0955 C   0  0  0  0  0  0  0  0  0  0  0  0
   51.8484    7.7586   16.9557 N   0  0  0  0  0  0  0  0  0  0  0  0
   52.1684    8.4025   15.7060 C   0  0  2  0  0  0  0  0  0  0  0  0
   50.9380    8.9912   14.9965 C   0  0  0  0  0  0  0  0  0  0  0  0
   52.9993    7.4471   17.8051 C   0  0  1  0  0  0  0  0  0  0  0  0
   54.2196    7.1460   16.9189 C   0  0  0  0  0  0  0  0  0  0  0  0
   53.7543    6.5934   15.5763 C   0  0  0  0  0  0  0  0  0  0  0  0
   52.8651    7.4774   14.8792 O   0  0  0  0  0  0  0  0  0  0  0  0
   47.0074    7.3619   12.5677 C   0  0  0  0  0  0  0  0  0  0  0  0
   46.9612    8.4419   11.9548 O   0  0  0  0  0  0  0  0  0  0  0  0
   46.2718    6.2405   12.2143 N   0  0  0  0  0  0  0  0  0  0  0  0
   45.3302    6.2693   11.1224 C   0  0  0  0  0  0  0  0  0  0  0  0
   45.1030    4.9025   10.5390 C   0  0  0  0  0  0  0  0  0  0  0  0
   44.5721    3.8551   11.3108 C   0  0  0  0  0  0  0  0  0  0  0  0
   44.3694    2.5975   10.7421 C   0  0  0  0  0  0  0  0  0  0  0  0
   44.6901    2.3827    9.4011 C   0  0  0  0  0  0  0  0  0  0  0  0
   45.2097    3.4008    8.6220 C   0  0  0  0  0  0  0  0  0  0  0  0
   45.4072    4.6512    9.1949 C   0  0  0  0  0  0  0  0  0  0  0  0
   44.4822    1.1685    8.8647 F   0  0  0  0  0  0  0  0  0  0  0  0
   45.9007    5.6344    8.4255 F   0  0  0  0  0  0  0  0  0  0  0  0
   46.9737    5.1775   14.5801 O   0  0  0  0  0  0  0  0  0  0  0  0
   48.5235    5.1387   16.9026 O   0  0  0  0  0  0  0  0  0  0  0  0
   50.4279    6.3472   18.1026 O   0  0  0  0  0  0  0  0  0  0  0  0
   53.2798    8.5846   18.7871 C   0  0  0  0  0  0  0  0  0  0  0  0
   49.0579    8.8855   13.2024 H   0  0  0  0  0  0  0  0  0  0  0  0
   52.8498    9.2352   15.9079 H   0  0  0  0  0  0  0  0  0  0  0  0
   51.2193    9.3376   13.9914 H   0  0  0  0  0  0  0  0  0  0  0  0
   50.5703    9.8539   15.5690 H   0  0  0  0  0  0  0  0  0  0  0  0
   52.7740    6.5489   18.3942 H   0  0  0  0  0  0  0  0  0  0  0  0
   54.7964    8.0630   16.7331 H   0  0  0  0  0  0  0  0  0  0  0  0
   54.8917    6.4429   17.4196 H   0  0  0  0  0  0  0  0  0  0  0  0
   53.2392    5.6354   15.7138 H   0  0  0  0  0  0  0  0  0  0  0  0
   54.6125    6.4038   14.9232 H   0  0  0  0  0  0  0  0  0  0  0  0
   46.3175    5.4275   12.8199 H   0  0  0  0  0  0  0  0  0  0  0  0
   45.6918    6.9645   10.3602 H   0  0  0  0  0  0  0  0  0  0  0  0
   44.3905    6.6729   11.5022 H   0  0  0  0  0  0  0  0  0  0  0  0
   44.3161    4.0126   12.3539 H   0  0  0  0  0  0  0  0  0  0  0  0
   43.9671    1.7847   11.3324 H   0  0  0  0  0  0  0  0  0  0  0  0
   45.4606    3.2312    7.5826 H   0  0  0  0  0  0  0  0  0  0  0  0
   49.1326    5.3323   17.6476 H   0  0  0  0  0  0  0  0  0  0  0  0
   52.3943    8.8123   19.3916 H   0  0  0  0  0  0  0  0  0  0  0  0
   53.5535    9.5059   18.2598 H   0  0  0  0  0  0  0  0  0  0  0  0
   54.1026    8.3225   19.4622 H   0  0  0  0  0  0  0  0  0  0  0  0
  1  2  1  0
  2  3  1  0
  3  4  2  0
  5  6  1  0
  6  1  2  0
  4  7  1  0
  5  4  1  0
 10  5  1  0
  7  8  1  0
  9 10  1  0
  8 11  1  0
  9  8  1  0
 14  9  1  0
 11 12  1  0
 12 13  1  0
 13 14  1  0
  1 15  1  0
 15 16  2  0
 15 17  1  0
 17 18  1  0
 18 19  1  0
 19 20  2  0
 19 24  1  0
 20 21  1  0
 21 22  2  0
 22 23  1  0
 23 24  2  0
 22 25  1  0
 24 26  1  0
  2 27  2  0
  3 28  1  0
  7 29  2  0
 11 30  1  0
  6 31  1  0
  9 32  1  6
 10 33  1  0
 10 34  1  0
 11 35  1  1
 12 36  1  0
 12 37  1  0
 13 38  1  0
 13 39  1  0
 17 40  1  0
 18 41  1  0
 18 42  1  0
 20 43  1  0
 21 44  1  0
 23 45  1  0
 28 46  1  0
 30 47  1  0
 30 48  1  0
 30 49  1  0
M  END
> <Uni-Dock RESULT> 
ENERGY=   -4.616  LOWER_BOUND=    4.183  UPPER_BOUND=    6.166
INTER + INTRA:          -4.616
INTER:                  -4.616
INTRA:                   0.000
UNBOUND:                 0.000

$$$$

     RDKit          3D

 49 52  0  0  0  0  0  0  0  0999 V2000
   49.2343    7.8143   13.5177 C   0  0  0  0  0  0  0  0  0  0  0  0
   49.1617    7.0370   14.7877 C   0  0  0  0  0  0  0  0  0  0  0  0
   50.3517    7.0750   15.7105 C   0  0  0  0  0  0  0  0  0  0  0  0
   51.4695    7.6908   15.2615 C   0  0  0  0  0  0  0  0  0  0  0  0
   51.5467    8.3177   14.0040 N   0  0  0  0  0  0  0  0  0  0  0  0
   50.4052    8.3918   13.2228 C   0  0  0  0  0  0  0  0  0  0  0  0
   52.6909    7.6654   16.1628 C   0  0  0  0  0  0  0  0  0  0  0  0
   53.9131    8.0032   15.5866 N   0  0  0  0  0  0  0  0  0  0  0  0
   54.0195    8.2335   14.1672 C   0  0  2  0  0  0  0  0  0  0  0  0
   52.7984    8.9592   13.5790 C   0  0  0  0  0  0  0  0  0  0  0  0
   55.1549    7.5902   16.2424 C   0  0  1  0  0  0  0  0  0  0  0  0
   56.0050    6.7733   15.2548 C   0  0  0  0  0  0  0  0  0  0  0  0
   55.0952    6.0792   14.2475 C   0  0  0  0  0  0  0  0  0  0  0  0
   54.2608    6.9902   13.5184 O   0  0  0  0  0  0  0  0  0  0  0  0
   48.1131    7.9607   12.5526 C   0  0  0  0  0  0  0  0  0  0  0  0
   48.1356    8.8433   11.6782 O   0  0  0  0  0  0  0  0  0  0  0  0
   47.0905    7.0337   12.6889 N   0  0  0  0  0  0  0  0  0  0  0  0
   45.9217    7.0703   11.8451 C   0  0  0  0  0  0  0  0  0  0  0  0
   45.2647    5.7225   11.7349 C   0  0  0  0  0  0  0  0  0  0  0  0
   44.7481    5.0644   12.8638 C   0  0  0  0  0  0  0  0  0  0  0  0
   44.1412    3.8152   12.7312 C   0  0  0  0  0  0  0  0  0  0  0  0
   44.0428    3.2220   11.4720 C   0  0  0  0  0  0  0  0  0  0  0  0
   44.5405    3.8543   10.3468 C   0  0  0  0  0  0  0  0  0  0  0  0
   45.1421    5.0989   10.4865 C   0  0  0  0  0  0  0  0  0  0  0  0
   43.4487    2.0223   11.3583 F   0  0  0  0  0  0  0  0  0  0  0  0
   45.6107    5.7079    9.3855 F   0  0  0  0  0  0  0  0  0  0  0  0
   48.1524    6.3857   15.0705 O   0  0  0  0  0  0  0  0  0  0  0  0
   50.2171    6.4529   16.9494 O   0  0  0  0  0  0  0  0  0  0  0  0
   52.5819    7.3337   17.3486 O   0  0  0  0  0  0  0  0  0  0  0  0
   55.9191    8.7995   16.7812 C   0  0  0  0  0  0  0  0  0  0  0  0
   50.5323    8.9674   12.3026 H   0  0  0  0  0  0  0  0  0  0  0  0
   54.8900    8.8710   13.9823 H   0  0  0  0  0  0  0  0  0  0  0  0
   52.8703    8.9775   12.4818 H   0  0  0  0  0  0  0  0  0  0  0  0
   52.7862    9.9962   13.9419 H   0  0  0  0  0  0  0  0  0  0  0  0
   54.9091    6.9463   17.0965 H   0  0  0  0  0  0  0  0  0  0  0  0
   56.6923    7.4302   14.7032 H   0  0  0  0  0  0  0  0  0  0  0  0
   56.6214    6.0459   15.7914 H   0  0  0  0  0  0  0  0  0  0  0  0
   54.4445    5.3561   14.7533 H   0  0  0  0  0  0  0  0  0  0  0  0
   55.6898    5.5186   13.5186 H   0  0  0  0  0  0  0  0  0  0  0  0
   47.1220    6.3990   13.4801 H   0  0  0  0  0  0  0  0  0  0  0  0
   46.2071    7.4478   10.8597 H   0  0  0  0  0  0  0  0  0  0  0  0
   45.2233    7.7910   12.2728 H   0  0  0  0  0  0  0  0  0  0  0  0
   44.8166    5.5186   13.8473 H   0  0  0  0  0  0  0  0  0  0  0  0
   43.7472    3.2999   13.5973 H   0  0  0  0  0  0  0  0  0  0  0  0
   44.4658    3.3909    9.3713 H   0  0  0  0  0  0  0  0  0  0  0  0
   51.0282    6.6364   17.4708 H   0  0  0  0  0  0  0  0  0  0  0  0
   55.2939    9.3921   17.4590 H   0  0  0  0  0  0  0  0  0  0  0  0
   56.2317    9.4658   15.9687 H   0  0  0  0  0  0  0  0  0  0  0  0
   56.8165    8.4828   17.3249 H   0  0  0  0  0  0  0  0  0  0  0  0
  1  2  1  0
  2  3  1  0
  3  4  2  0
  5  6  1  0
  6  1  2  0
  4  7  1  0
  5  4  1  0
 10  5  1  0
  7  8  1  0
  9 10  1  0
  8 11  1  0
  9  8  1  0
 14  9  1  0
 11 12  1  0
 12 13  1  0
 13 14  1  0
  1 15  1  0
 15 16  2  0
 15 17  1  0
 17 18  1  0
 18 19  1  0
 19 20  2  0
 19 24  1  0
 20 21  1  0
 21 22  2  0
 22 23  1  0
 23 24  2  0
 22 25  1  0
 24 26  1  0
  2 27  2  0
  3 28  1  0
  7 29  2  0
 11 30  1  0
  6 31  1  0
  9 32  1  6
 10 33  1  0
 10 34  1  0
 11 35  1  1
 12 36  1  0
 12 37  1  0
 13 38  1  0
 13 39  1  0
 17 40  1  0
 18 41  1  0
 18 42  1  0
 20 43  1  0
 21 44  1  0
 23 45  1  0
 28 46  1  0
 30 47  1  0
 30 48  1  0
 30 49  1  0
M  END
> <Uni-Dock RESULT> 
ENERGY=   -4.327  LOWER_BOUND=    4.264  UPPER_BOUND=    6.423
INTER + INTRA:          -4.327
INTER:                  -4.327
INTRA:                   0.000
UNBOUND:                 0.000

$$$$

     RDKit          3D

 49 52  0  0  0  0  0  0  0  0999 V2000
   47.7855    8.4236   14.2785 C   0  0  0  0  0  0  0  0  0  0  0  0
   47.9320    7.2275   15.1560 C   0  0  0  0  0  0  0  0  0  0  0  0
   47.4900    5.8931   14.6144 C   0  0  0  0  0  0  0  0  0  0  0  0
   46.8502    5.8850   13.4224 C   0  0  0  0  0  0  0  0  0  0  0  0
   46.6212    7.0503   12.6674 N   0  0  0  0  0  0  0  0  0  0  0  0
   47.1507    8.2503   13.1130 C   0  0  0  0  0  0  0  0  0  0  0  0
   46.3412    4.5490   12.9119 C   0  0  0  0  0  0  0  0  0  0  0  0
   45.4176    4.5768   11.8697 N   0  0  0  0  0  0  0  0  0  0  0  0
   44.8772    5.8275   11.3979 C   0  0  2  0  0  0  0  0  0  0  0  0
   45.9103    6.9660   11.3843 C   0  0  0  0  0  0  0  0  0  0  0  0
   44.5736    3.4057   11.6266 C   0  0  1  0  0  0  0  0  0  0  0  0
   43.0948    3.8260   11.6702 C   0  0  0  0  0  0  0  0  0  0  0  0
   42.9329    5.0376   12.5813 C   0  0  0  0  0  0  0  0  0  0  0  0
   43.7351    6.1572   12.1802 O   0  0  0  0  0  0  0  0  0  0  0  0
   48.2642    9.7879   14.6246 C   0  0  0  0  0  0  0  0  0  0  0  0
   48.3782   10.6642   13.7510 O   0  0  0  0  0  0  0  0  0  0  0  0
   48.5304    9.9978   15.9694 N   0  0  0  0  0  0  0  0  0  0  0  0
   49.0322   11.2612   16.4508 C   0  0  0  0  0  0  0  0  0  0  0  0
   48.6979   11.4843   17.8994 C   0  0  0  0  0  0  0  0  0  0  0  0
   49.1692   10.6199   18.9021 C   0  0  0  0  0  0  0  0  0  0  0  0
   48.8453   10.8531   20.2388 C   0  0  0  0  0  0  0  0  0  0  0  0
   48.0555   11.9519   20.5797 C   0  0  0  0  0  0  0  0  0  0  0  0
   47.5847   12.8180   19.6093 C   0  0  0  0  0  0  0  0  0  0  0  0
   47.9128   12.5803   18.2802 C   0  0  0  0  0  0  0  0  0  0  0  0
   47.7581   12.1685   21.8719 F   0  0  0  0  0  0  0  0  0  0  0  0
   47.4599   13.4346   17.3489 F   0  0  0  0  0  0  0  0  0  0  0  0
   48.4048    7.3332   16.2910 O   0  0  0  0  0  0  0  0  0  0  0  0
   47.7549    4.7698   15.3940 O   0  0  0  0  0  0  0  0  0  0  0  0
   46.7288    3.4963   13.4313 O   0  0  0  0  0  0  0  0  0  0  0  0
   44.9329    2.7367   10.2999 C   0  0  0  0  0  0  0  0  0  0  0  0
   46.9984    9.0864   12.4258 H   0  0  0  0  0  0  0  0  0  0  0  0
   44.5367    5.6925   10.3663 H   0  0  0  0  0  0  0  0  0  0  0  0
   45.4103    7.9185   11.1560 H   0  0  0  0  0  0  0  0  0  0  0  0
   46.6534    6.7690   10.5992 H   0  0  0  0  0  0  0  0  0  0  0  0
   44.7447    2.6720   12.4247 H   0  0  0  0  0  0  0  0  0  0  0  0
   42.7424    4.1002   10.6659 H   0  0  0  0  0  0  0  0  0  0  0  0
   42.4708    2.9943   12.0107 H   0  0  0  0  0  0  0  0  0  0  0  0
   43.2027    4.7808   13.6124 H   0  0  0  0  0  0  0  0  0  0  0  0
   41.8887    5.3669   12.5969 H   0  0  0  0  0  0  0  0  0  0  0  0
   48.4824    9.2018   16.5969 H   0  0  0  0  0  0  0  0  0  0  0  0
   48.6283   12.0639   15.8283 H   0  0  0  0  0  0  0  0  0  0  0  0
   50.1144   11.2649   16.3136 H   0  0  0  0  0  0  0  0  0  0  0  0
   49.7870    9.7643   18.6479 H   0  0  0  0  0  0  0  0  0  0  0  0
   49.1993   10.1878   21.0152 H   0  0  0  0  0  0  0  0  0  0  0  0
   46.9696   13.6681   19.8756 H   0  0  0  0  0  0  0  0  0  0  0  0
   47.4972    3.9751   14.8789 H   0  0  0  0  0  0  0  0  0  0  0  0
   45.9955    2.4701   10.2669 H   0  0  0  0  0  0  0  0  0  0  0  0
   44.7442    3.4071    9.4533 H   0  0  0  0  0  0  0  0  0  0  0  0
   44.3419    1.8259   10.1502 H   0  0  0  0  0  0  0  0  0  0  0  0
  1  2  1  0
  2  3  1  0
  3  4  2  0
  5  6  1  0
  6  1  2  0
  4  7  1  0
  5  4  1  0
 10  5  1  0
  7  8  1  0
  9 10  1  0
  8 11  1  0
  9  8  1  0
 14  9  1  0
 11 12  1  0
 12 13  1  0
 13 14  1  0
  1 15  1  0
 15 16  2  0
 15 17  1  0
 17 18  1  0
 18 19  1  0
 19 20  2  0
 19 24  1  0
 20 21  1  0
 21 22  2  0
 22 23  1  0
 23 24  2  0
 22 25  1  0
 24 26  1  0
  2 27  2  0
  3 28  1  0
  7 29  2  0
 11 30  1  0
  6 31  1  0
  9 32  1  6
 10 33  1  0
 10 34  1  0
 11 35  1  1
 12 36  1  0
 12 37  1  0
 13 38  1  0
 13 39  1  0
 17 40  1  0
 18 41  1  0
 18 42  1  0
 20 43  1  0
 21 44  1  0
 23 45  1  0
 28 46  1  0
 30 47  1  0
 30 48  1  0
 30 49  1  0
M  END
> <Uni-Dock RESULT> 
ENERGY=   -4.121  LOWER_BOUND=    4.502  UPPER_BOUND=    7.139
INTER + INTRA:          -4.121
INTER:                  -4.121
INTRA:                   0.000
UNBOUND:                 0.000

$$$$

     RDKit          3D

 49 52  0  0  0  0  0  0  0  0999 V2000
   48.3278    7.2094   15.1369 C   0  0  0  0  0  0  0  0  0  0  0  0
   48.1323    5.8831   15.7887 C   0  0  0  0  0  0  0  0  0  0  0  0
   47.4683    4.7922   14.9898 C   0  0  0  0  0  0  0  0  0  0  0  0
   46.9564    5.1266   13.7830 C   0  0  0  0  0  0  0  0  0  0  0  0
   47.0536    6.4218   13.2414 N   0  0  0  0  0  0  0  0  0  0  0  0
   47.7831    7.3797   13.9263 C   0  0  0  0  0  0  0  0  0  0  0  0
   46.2239    4.0441   13.0107 C   0  0  0  0  0  0  0  0  0  0  0  0
   45.4297    4.4526   11.9420 N   0  0  0  0  0  0  0  0  0  0  0  0
   45.2158    5.8536   11.6768 C   0  0  2  0  0  0  0  0  0  0  0  0
   46.4649    6.7142   11.9273 C   0  0  0  0  0  0  0  0  0  0  0  0
   44.3816    3.5603   11.4438 C   0  0  1  0  0  0  0  0  0  0  0  0
   43.0294    4.2919   11.4821 C   0  0  0  0  0  0  0  0  0  0  0  0
   43.0452    5.3410   12.5881 C   0  0  0  0  0  0  0  0  0  0  0  0
   44.1022    6.2998   12.4422 O   0  0  0  0  0  0  0  0  0  0  0  0
   49.0523    8.3530   15.7513 C   0  0  0  0  0  0  0  0  0  0  0  0
   49.4324    9.3127   15.0594 O   0  0  0  0  0  0  0  0  0  0  0  0
   49.2297    8.2719   17.1244 N   0  0  0  0  0  0  0  0  0  0  0  0
   49.9423    9.2911   17.8545 C   0  0  0  0  0  0  0  0  0  0  0  0
   49.5289    9.3416   19.2990 C   0  0  0  0  0  0  0  0  0  0  0  0
   49.7083    8.2393   20.1518 C   0  0  0  0  0  0  0  0  0  0  0  0
   49.3175    8.3157   21.4889 C   0  0  0  0  0  0  0  0  0  0  0  0
   48.7523    9.4931   21.9803 C   0  0  0  0  0  0  0  0  0  0  0  0
   48.5707   10.5917   21.1594 C   0  0  0  0  0  0  0  0  0  0  0  0
   48.9638   10.5087   19.8293 C   0  0  0  0  0  0  0  0  0  0  0  0
   48.3880    9.5549   23.2720 F   0  0  0  0  0  0  0  0  0  0  0  0
   48.7935   11.5853   19.0456 F   0  0  0  0  0  0  0  0  0  0  0  0
   48.5080    5.6897   16.9482 O   0  0  0  0  0  0  0  0  0  0  0  0
   47.4127    3.5251   15.5653 O   0  0  0  0  0  0  0  0  0  0  0  0
   46.3271    2.8600   13.3503 O   0  0  0  0  0  0  0  0  0  0  0  0
   44.7127    3.0559   10.0393 C   0  0  0  0  0  0  0  0  0  0  0  0
   47.8781    8.3303   13.3955 H   0  0  0  0  0  0  0  0  0  0  0  0
   44.9527    5.9718   10.6208 H   0  0  0  0  0  0  0  0  0  0  0  0
   46.2036    7.7796   11.8491 H   0  0  0  0  0  0  0  0  0  0  0  0
   47.2191    6.4863   11.1615 H   0  0  0  0  0  0  0  0  0  0  0  0
   44.3162    2.6853   12.1032 H   0  0  0  0  0  0  0  0  0  0  0  0
   42.8397    4.8010   10.5266 H   0  0  0  0  0  0  0  0  0  0  0  0
   42.2129    3.5790   11.6307 H   0  0  0  0  0  0  0  0  0  0  0  0
   43.1559    4.8628   13.5686 H   0  0  0  0  0  0  0  0  0  0  0  0
   42.0987    5.8913   12.6062 H   0  0  0  0  0  0  0  0  0  0  0  0
   48.9540    7.4150   17.5929 H   0  0  0  0  0  0  0  0  0  0  0  0
   49.7795   10.2560   17.3673 H   0  0  0  0  0  0  0  0  0  0  0  0
   51.0084    9.0718   17.7798 H   0  0  0  0  0  0  0  0  0  0  0  0
   50.1501    7.3200   19.7804 H   0  0  0  0  0  0  0  0  0  0  0  0
   49.4467    7.4685   22.1494 H   0  0  0  0  0  0  0  0  0  0  0  0
   48.1292   11.5031   21.5419 H   0  0  0  0  0  0  0  0  0  0  0  0
   47.0407    2.9060   14.9007 H   0  0  0  0  0  0  0  0  0  0  0  0
   45.6921    2.5644   10.0166 H   0  0  0  0  0  0  0  0  0  0  0  0
   44.7519    3.8821    9.3198 H   0  0  0  0  0  0  0  0  0  0  0  0
   43.9575    2.3405    9.6941 H   0  0  0  0  0  0  0  0  0  0  0  0
  1  2  1  0
  2  3  1  0
  3  4  2  0
  5  6  1  0
  6  1  2  0
  4  7  1  0
  5  4  1  0
 10  5  1  0
  7  8  1  0
  9 10  1  0
  8 11  1  0
  9  8  1  0
 14  9  1  0
 11 12  1  0
 12 13  1  0
 13 14  1  0
  1 15  1  0
 15 16  2  0
 15 17  1  0
 17 18  1  0
 18 19  1  0
 19 20  2  0
 19 24  1  0
 20 21  1  0
 21 22  2  0
 22 23  1  0
 23 24  2  0
 22 25  1  0
 24 26  1  0
  2 27  2  0
  3 28  1  0
  7 29  2  0
 11 30  1  0
  6 31  1  0
  9 32  1  6
 10 33  1  0
 10 34  1  0
 11 35  1  1
 12 36  1  0
 12 37  1  0
 13 38  1  0
 13 39  1  0
 17 40  1  0
 18 41  1  0
 18 42  1  0
 20 43  1  0
 21 44  1  0
 23 45  1  0
 28 46  1  0
 30 47  1  0
 30 48  1  0
 30 49  1  0
M  END
> <Uni-Dock RESULT> 
ENERGY=   -4.075  LOWER_BOUND=    4.561  UPPER_BOUND=    8.085
INTER + INTRA:          -4.075
INTER:                  -4.075
INTRA:                   0.000
UNBOUND:                 0.000

$$$$

     RDKit          3D

 49 52  0  0  0  0  0  0  0  0999 V2000
   45.7212   10.2073   11.8425 C   0  0  0  0  0  0  0  0  0  0  0  0
   44.5212    9.3899   11.5048 C   0  0  0  0  0  0  0  0  0  0  0  0
   43.2954   10.1058   11.0007 C   0  0  0  0  0  0  0  0  0  0  0  0
   43.3086   11.4584   11.0266 C   0  0  0  0  0  0  0  0  0  0  0  0
   44.4181   12.2060   11.4629 N   0  0  0  0  0  0  0  0  0  0  0  0
   45.5850   11.5379   11.7962 C   0  0  0  0  0  0  0  0  0  0  0  0
   42.0461   12.1777   10.5866 C   0  0  0  0  0  0  0  0  0  0  0  0
   41.9378   13.5277   10.9117 N   0  0  0  0  0  0  0  0  0  0  0  0
   42.9260   14.1661   11.7452 C   0  0  2  0  0  0  0  0  0  0  0  0
   44.3567   13.6740   11.4721 C   0  0  0  0  0  0  0  0  0  0  0  0
   40.6179   14.1609   10.9192 C   0  0  1  0  0  0  0  0  0  0  0  0
   40.3654   14.7955   12.2972 C   0  0  0  0  0  0  0  0  0  0  0  0
   41.1455   14.0340   13.3630 C   0  0  0  0  0  0  0  0  0  0  0  0
   42.5567   13.9925   13.1084 O   0  0  0  0  0  0  0  0  0  0  0  0
   47.0352    9.6470   12.2546 C   0  0  0  0  0  0  0  0  0  0  0  0
   48.0610   10.3480   12.2370 O   0  0  0  0  0  0  0  0  0  0  0  0
   47.0084    8.3267   12.6786 N   0  0  0  0  0  0  0  0  0  0  0  0
   48.2109    7.6383   13.0781 C   0  0  0  0  0  0  0  0  0  0  0  0
   47.9228    6.5031   14.0207 C   0  0  0  0  0  0  0  0  0  0  0  0
   47.1185    5.4169   13.6359 C   0  0  0  0  0  0  0  0  0  0  0  0
   46.8702    4.3760   14.5309 C   0  0  0  0  0  0  0  0  0  0  0  0
   47.4277    4.4126   15.8096 C   0  0  0  0  0  0  0  0  0  0  0  0
   48.2259    5.4700   16.2076 C   0  0  0  0  0  0  0  0  0  0  0  0
   48.4702    6.5023   15.3102 C   0  0  0  0  0  0  0  0  0  0  0  0
   47.1864    3.3994   16.6582 F   0  0  0  0  0  0  0  0  0  0  0  0
   49.2561    7.5170   15.7040 F   0  0  0  0  0  0  0  0  0  0  0  0
   44.5384    8.1627   11.6339 O   0  0  0  0  0  0  0  0  0  0  0  0
   42.2317    9.3188   10.5661 O   0  0  0  0  0  0  0  0  0  0  0  0
   41.1574   11.5631    9.9863 O   0  0  0  0  0  0  0  0  0  0  0  0
   40.4956   15.1869    9.7926 C   0  0  0  0  0  0  0  0  0  0  0  0
   46.4208   12.1977   12.0422 H   0  0  0  0  0  0  0  0  0  0  0  0
   42.9130   15.2412   11.5394 H   0  0  0  0  0  0  0  0  0  0  0  0
   45.0414   14.0848   12.2282 H   0  0  0  0  0  0  0  0  0  0  0  0
   44.6783   14.0313   10.4841 H   0  0  0  0  0  0  0  0  0  0  0  0
   39.8533   13.3917   10.7512 H   0  0  0  0  0  0  0  0  0  0  0  0
   40.7007   15.8423   12.3065 H   0  0  0  0  0  0  0  0  0  0  0  0
   39.2954   14.8017   12.5251 H   0  0  0  0  0  0  0  0  0  0  0  0
   40.7850   13.0012   13.4372 H   0  0  0  0  0  0  0  0  0  0  0  0
   40.9994   14.4948   14.3455 H   0  0  0  0  0  0  0  0  0  0  0  0
   46.1393    7.8114   12.5853 H   0  0  0  0  0  0  0  0  0  0  0  0
   48.8979    8.3578   13.5312 H   0  0  0  0  0  0  0  0  0  0  0  0
   48.6944    7.2598   12.1764 H   0  0  0  0  0  0  0  0  0  0  0  0
   46.6829    5.3771   12.6425 H   0  0  0  0  0  0  0  0  0  0  0  0
   46.2465    3.5398   14.2434 H   0  0  0  0  0  0  0  0  0  0  0  0
   48.6550    5.4979   17.2011 H   0  0  0  0  0  0  0  0  0  0  0  0
   41.5500    9.9134   10.1852 H   0  0  0  0  0  0  0  0  0  0  0  0
   40.7085   14.7316    8.8186 H   0  0  0  0  0  0  0  0  0  0  0  0
   41.2088   16.0089    9.9250 H   0  0  0  0  0  0  0  0  0  0  0  0
   39.4867   15.6143    9.7627 H   0  0  0  0  0  0  0  0  0  0  0  0
  1  2  1  0
  2  3  1  0
  3  4  2  0
  5  6  1  0
  6  1  2  0
  4  7  1  0
  5  4  1  0
 10  5  1  0
  7  8  1  0
  9 10  1  0
  8 11  1  0
  9  8  1  0
 14  9  1  0
 11 12  1  0
 12 13  1  0
 13 14  1  0
  1 15  1  0
 15 16  2  0
 15 17  1  0
 17 18  1  0
 18 19  1  0
 19 20  2  0
 19 24  1  0
 20 21  1  0
 21 22  2  0
 22 23  1  0
 23 24  2  0
 22 25  1  0
 24 26  1  0
  2 27  2  0
  3 28  1  0
  7 29  2  0
 11 30  1  0
  6 31  1  0
  9 32  1  6
 10 33  1  0
 10 34  1  0
 11 35  1  1
 12 36  1  0
 12 37  1  0
 13 38  1  0
 13 39  1  0
 17 40  1  0
 18 41  1  0
 18 42  1  0
 20 43  1  0
 21 44  1  0
 23 45  1  0
 28 46  1  0
 30 47  1  0
 30 48  1  0
 30 49  1  0
M  END
> <Uni-Dock RESULT> 
ENERGY=   -4.062  LOWER_BOUND=    3.703  UPPER_BOUND=    9.645
INTER + INTRA:          -4.062
INTER:                  -4.062
INTRA:                   0.000
UNBOUND:                 0.000

$$$$

     RDKit          3D

 49 52  0  0  0  0  0  0  0  0999 V2000
   48.4445    9.3295   11.8976 C   0  0  0  0  0  0  0  0  0  0  0  0
   49.5065    8.2846   11.9447 C   0  0  0  0  0  0  0  0  0  0  0  0
   50.9125    8.6867   11.5831 C   0  0  0  0  0  0  0  0  0  0  0  0
   51.0979    9.9346   11.0946 C   0  0  0  0  0  0  0  0  0  0  0  0
   50.0518   10.8648   10.9508 N   0  0  0  0  0  0  0  0  0  0  0  0
   48.7898   10.5280   11.4122 C   0  0  0  0  0  0  0  0  0  0  0  0
   52.5030   10.3140   10.6627 C   0  0  0  0  0  0  0  0  0  0  0  0
   52.6395   11.4537    9.8738 N   0  0  0  0  0  0  0  0  0  0  0  0
   51.4780   12.1548    9.3856 C   0  0  2  0  0  0  0  0  0  0  0  0
   50.3268   12.2004   10.4036 C   0  0  0  0  0  0  0  0  0  0  0  0
   53.8532   11.6334    9.0753 C   0  0  1  0  0  0  0  0  0  0  0  0
   53.4675   11.8265    7.5991 C   0  0  0  0  0  0  0  0  0  0  0  0
   52.1479   11.1172    7.3170 C   0  0  0  0  0  0  0  0  0  0  0  0
   51.0736   11.5688    8.1536 O   0  0  0  0  0  0  0  0  0  0  0  0
   47.0345    9.1193   12.3195 C   0  0  0  0  0  0  0  0  0  0  0  0
   46.2822   10.0850   12.5329 O   0  0  0  0  0  0  0  0  0  0  0  0
   46.6376    7.7939   12.4168 N   0  0  0  0  0  0  0  0  0  0  0  0
   45.3086    7.4341   12.8457 C   0  0  0  0  0  0  0  0  0  0  0  0
   44.8994    6.0808   12.3344 C   0  0  0  0  0  0  0  0  0  0  0  0
   45.6080    4.9194   12.6858 C   0  0  0  0  0  0  0  0  0  0  0  0
   45.2038    3.6764   12.1983 C   0  0  0  0  0  0  0  0  0  0  0  0
   44.0887    3.5876   11.3640 C   0  0  0  0  0  0  0  0  0  0  0  0
   43.3740    4.7176   11.0091 C   0  0  0  0  0  0  0  0  0  0  0  0
   43.7817    5.9519   11.4998 C   0  0  0  0  0  0  0  0  0  0  0  0
   43.7063    2.3829   10.9085 F   0  0  0  0  0  0  0  0  0  0  0  0
   43.0730    7.0397   11.1580 F   0  0  0  0  0  0  0  0  0  0  0  0
   49.2363    7.1263   12.2737 O   0  0  0  0  0  0  0  0  0  0  0  0
   51.9128    7.7337   11.7591 O   0  0  0  0  0  0  0  0  0  0  0  0
   53.4656    9.6118   10.9918 O   0  0  0  0  0  0  0  0  0  0  0  0
   54.6869   12.8023    9.6001 C   0  0  0  0  0  0  0  0  0  0  0  0
   48.0586   11.3370   11.3388 H   0  0  0  0  0  0  0  0  0  0  0  0
   51.7601   13.1915    9.1754 H   0  0  0  0  0  0  0  0  0  0  0  0
   49.4267   12.6161    9.9279 H   0  0  0  0  0  0  0  0  0  0  0  0
   50.6101   12.8555   11.2390 H   0  0  0  0  0  0  0  0  0  0  0  0
   54.4675   10.7272    9.1529 H   0  0  0  0  0  0  0  0  0  0  0  0
   53.3408   12.8942    7.3706 H   0  0  0  0  0  0  0  0  0  0  0  0
   54.2604   11.4526    6.9446 H   0  0  0  0  0  0  0  0  0  0  0  0
   52.2558   10.0355    7.4602 H   0  0  0  0  0  0  0  0  0  0  0  0
   51.8454   11.2730    6.2762 H   0  0  0  0  0  0  0  0  0  0  0  0
   47.3421    7.0733   12.2984 H   0  0  0  0  0  0  0  0  0  0  0  0
   44.6080    8.2052   12.5150 H   0  0  0  0  0  0  0  0  0  0  0  0
   45.2969    7.4390   13.9366 H   0  0  0  0  0  0  0  0  0  0  0  0
   46.4747    4.9770   13.3368 H   0  0  0  0  0  0  0  0  0  0  0  0
   45.7487    2.7788   12.4596 H   0  0  0  0  0  0  0  0  0  0  0  0
   42.5111    4.6469   10.3593 H   0  0  0  0  0  0  0  0  0  0  0  0
   52.7762    8.1619   11.5729 H   0  0  0  0  0  0  0  0  0  0  0  0
   54.9293   12.6700   10.6608 H   0  0  0  0  0  0  0  0  0  0  0  0
   54.1424   13.7496    9.5115 H   0  0  0  0  0  0  0  0  0  0  0  0
   55.6239   12.8954    9.0392 H   0  0  0  0  0  0  0  0  0  0  0  0
  1  2  1  0
  2  3  1  0
  3  4  2  0
  5  6  1  0
  6  1  2  0
  4  7  1  0
  5  4  1  0
 10  5  1  0
  7  8  1  0
  9 10  1  0
  8 11  1  0
  9  8  1  0
 14  9  1  0
 11 12  1  0
 12 13  1  0
 13 14  1  0
  1 15  1  0
 15 16  2  0
 15 17  1  0
 17 18  1  0
 18 19  1  0
 19 20  2  0
 19 24  1  0
 20 21  1  0
 21 22  2  0
 22 23  1  0
 23 24  2  0
 22 25  1  0
 24 26  1  0
  2 27  2  0
  3 28  1  0
  7 29  2  0
 11 30  1  0
  6 31  1  0
  9 32  1  6
 10 33  1  0
 10 34  1  0
 11 35  1  1
 12 36  1  0
 12 37  1  0
 13 38  1  0
 13 39  1  0
 17 40  1  0
 18 41  1  0
 18 42  1  0
 20 43  1  0
 21 44  1  0
 23 45  1  0
 28 46  1  0
 30 47  1  0
 30 48  1  0
 30 49  1  0
M  END
> <Uni-Dock RESULT> 
ENERGY=   -4.030  LOWER_BOUND=    5.322  UPPER_BOUND=    8.105
INTER + INTRA:          -4.030
INTER:                  -4.030
INTRA:                   0.000
UNBOUND:                 0.000

$$$$

     RDKit          3D

 49 52  0  0  0  0  0  0  0  0999 V2000
   48.9914    7.9980   16.9044 C   0  0  0  0  0  0  0  0  0  0  0  0
   48.1552    9.2269   16.7907 C   0  0  0  0  0  0  0  0  0  0  0  0
   48.2566   10.2565   17.8856 C   0  0  0  0  0  0  0  0  0  0  0  0
   48.9875    9.9353   18.9778 C   0  0  0  0  0  0  0  0  0  0  0  0
   49.6740    8.7138   19.1087 N   0  0  0  0  0  0  0  0  0  0  0  0
   49.6820    7.8337   18.0390 C   0  0  0  0  0  0  0  0  0  0  0  0
   49.0296   10.9440   20.1116 C   0  0  0  0  0  0  0  0  0  0  0  0
   49.4988   10.4958   21.3440 N   0  0  0  0  0  0  0  0  0  0  0  0
   49.8003    9.1016   21.5544 C   0  0  2  0  0  0  0  0  0  0  0  0
   50.4412    8.4298   20.3291 C   0  0  0  0  0  0  0  0  0  0  0  0
   49.1678   11.2482   22.5553 C   0  0  1  0  0  0  0  0  0  0  0  0
   48.4734   10.3145   23.5609 C   0  0  0  0  0  0  0  0  0  0  0  0
   47.7474    9.2029   22.8115 C   0  0  0  0  0  0  0  0  0  0  0  0
   48.6131    8.4333   21.9652 O   0  0  0  0  0  0  0  0  0  0  0  0
   49.0813    6.9394   15.8645 C   0  0  0  0  0  0  0  0  0  0  0  0
   50.0004    6.1034   15.8837 O   0  0  0  0  0  0  0  0  0  0  0  0
   48.0629    6.9470   14.9231 N   0  0  0  0  0  0  0  0  0  0  0  0
   48.0340    6.0006   13.8354 C   0  0  0  0  0  0  0  0  0  0  0  0
   46.6400    5.7815   13.3170 C   0  0  0  0  0  0  0  0  0  0  0  0
   45.8895    6.8333   12.7646 C   0  0  0  0  0  0  0  0  0  0  0  0
   44.5990    6.6000   12.2888 C   0  0  0  0  0  0  0  0  0  0  0  0
   44.0558    5.3164   12.3573 C   0  0  0  0  0  0  0  0  0  0  0  0
   44.7787    4.2657   12.8929 C   0  0  0  0  0  0  0  0  0  0  0  0
   46.0640    4.5053   13.3633 C   0  0  0  0  0  0  0  0  0  0  0  0
   42.8148    5.1050   11.8880 F   0  0  0  0  0  0  0  0  0  0  0  0
   46.7600    3.4752   13.8700 F   0  0  0  0  0  0  0  0  0  0  0  0
   47.4057    9.3915   15.8242 O   0  0  0  0  0  0  0  0  0  0  0  0
   47.5707   11.4543   17.6991 O   0  0  0  0  0  0  0  0  0  0  0  0
   48.6373   12.1019   19.9285 O   0  0  0  0  0  0  0  0  0  0  0  0
   50.4146   11.8987   23.1547 C   0  0  0  0  0  0  0  0  0  0  0  0
   50.3069    6.9506   18.1940 H   0  0  0  0  0  0  0  0  0  0  0  0
   50.5194    9.0212   22.3759 H   0  0  0  0  0  0  0  0  0  0  0  0
   50.5145    7.3453   20.4961 H   0  0  0  0  0  0  0  0  0  0  0  0
   51.4561    8.8273   20.1898 H   0  0  0  0  0  0  0  0  0  0  0  0
   48.4675   12.0521   22.2946 H   0  0  0  0  0  0  0  0  0  0  0  0
   49.2120    9.8529   24.2314 H   0  0  0  0  0  0  0  0  0  0  0  0
   47.7800   10.8791   24.1912 H   0  0  0  0  0  0  0  0  0  0  0  0
   46.9482    9.6199   22.1874 H   0  0  0  0  0  0  0  0  0  0  0  0
   47.2741    8.5124   23.5173 H   0  0  0  0  0  0  0  0  0  0  0  0
   47.3990    7.7142   14.9422 H   0  0  0  0  0  0  0  0  0  0  0  0
   48.4785    5.0601   14.1714 H   0  0  0  0  0  0  0  0  0  0  0  0
   48.6709    6.3878   13.0387 H   0  0  0  0  0  0  0  0  0  0  0  0
   46.3040    7.8347   12.7036 H   0  0  0  0  0  0  0  0  0  0  0  0
   44.0131    7.4067   11.8683 H   0  0  0  0  0  0  0  0  0  0  0  0
   44.3543    3.2713   12.9478 H   0  0  0  0  0  0  0  0  0  0  0  0
   47.8014   12.0548   18.4405 H   0  0  0  0  0  0  0  0  0  0  0  0
   50.9192   12.5369   22.4202 H   0  0  0  0  0  0  0  0  0  0  0  0
   51.1411   11.1433   23.4758 H   0  0  0  0  0  0  0  0  0  0  0  0
   50.1541   12.5113   24.0255 H   0  0  0  0  0  0  0  0  0  0  0  0
  1  2  1  0
  2  3  1  0
  3  4  2  0
  5  6  1  0
  6  1  2  0
  4  7  1  0
  5  4  1  0
 10  5  1  0
  7  8  1  0
  9 10  1  0
  8 11  1  0
  9  8  1  0
 14  9  1  0
 11 12  1  0
 12 13  1  0
 13 14  1  0
  1 15  1  0
 15 16  2  0
 15 17  1  0
 17 18  1  0
 18 19  1  0
 19 20  2  0
 19 24  1  0
 20 21  1  0
 21 22  2  0
 22 23  1  0
 23 24  2  0
 22 25  1  0
 24 26  1  0
  2 27  2  0
  3 28  1  0
  7 29  2  0
 11 30  1  0
  6 31  1  0
  9 32  1  6
 10 33  1  0
 10 34  1  0
 11 35  1  1
 12 36  1  0
 12 37  1  0
 13 38  1  0
 13 39  1  0
 17 40  1  0
 18 41  1  0
 18 42  1  0
 20 43  1  0
 21 44  1  0
 23 45  1  0
 28 46  1  0
 30 47  1  0
 30 48  1  0
 30 49  1  0
M  END
> <Uni-Dock RESULT> 
ENERGY=   -3.885  LOWER_BOUND=    4.756  UPPER_BOUND=    6.747
INTER + INTRA:          -3.885
INTER:                  -3.885
INTRA:                   0.000
UNBOUND:                 0.000

$$$$
