
     RDKit          3D

 49 52  0  0  0  0  0  0  0  0999 V2000
   44.3118   10.0553   11.5038 C   0  0  0  0  0  0  0  0  0  0  0  0
   42.9722    9.8449   10.9080 C   0  0  0  0  0  0  0  0  0  0  0  0
   42.0974   11.0308   10.6416 C   0  0  0  0  0  0  0  0  0  0  0  0
   42.5721   12.2585   10.9455 C   0  0  0  0  0  0  0  0  0  0  0  0
   43.8717   12.4391   11.4723 N   0  0  0  0  0  0  0  0  0  0  0  0
   44.6592   11.3286   11.7457 C   0  0  0  0  0  0  0  0  0  0  0  0
   41.6737   13.4782   10.7170 C   0  0  0  0  0  0  0  0  0  0  0  0
   42.2925   14.7251   10.8206 N   0  0  0  0  0  0  0  0  0  0  0  0
   43.7410   14.8082   10.8260 C   0  0  2  0  0  0  0  0  0  0  0  0
   44.3460   13.7929   11.8056 C   0  0  0  0  0  0  0  0  0  0  0  0
   41.5395   15.9364   10.5021 C   0  0  1  0  0  0  0  0  0  0  0  0
   42.0089   17.1134   11.3634 C   0  0  0  0  0  0  0  0  0  0  0  0
   43.3453   16.8270   12.0253 C   0  0  0  0  0  0  0  0  0  0  0  0
   44.1910   16.1345   11.1166 O   0  0  0  0  0  0  0  0  0  0  0  0
   45.2723    8.9711   11.8445 C   0  0  0  0  0  0  0  0  0  0  0  0
   46.3445    9.2114   12.3928 O   0  0  0  0  0  0  0  0  0  0  0  0
   44.8769    7.7034   11.5077 N   0  0  0  0  0  0  0  0  0  0  0  0
   45.6340    6.5437   11.9199 C   0  0  0  0  0  0  0  0  0  0  0  0
   45.2380    5.3236   11.1373 C   0  0  0  0  0  0  0  0  0  0  0  0
   45.4248    5.2726    9.7461 C   0  0  0  0  0  0  0  0  0  0  0  0
   45.0585    4.1326    9.0281 C   0  0  0  0  0  0  0  0  0  0  0  0
   44.5096    3.0443    9.6985 C   0  0  0  0  0  0  0  0  0  0  0  0
   44.3197    3.0708   11.0724 C   0  0  0  0  0  0  0  0  0  0  0  0
   44.6866    4.2096   11.7802 C   0  0  0  0  0  0  0  0  0  0  0  0
   44.1606    1.9526    9.0055 F   0  0  0  0  0  0  0  0  0  0  0  0
   44.5017    4.2271   13.1078 F   0  0  0  0  0  0  0  0  0  0  0  0
   42.5428    8.7231   10.6296 O   0  0  0  0  0  0  0  0  0  0  0  0
   40.8612   10.7626   10.0882 O   0  0  0  0  0  0  0  0  0  0  0  0
   40.4695   13.3823   10.4973 O   0  0  0  0  0  0  0  0  0  0  0  0
   41.6153   16.2544    9.0055 C   0  0  0  0  0  0  0  0  0  0  0  0
   45.6263   11.5677   12.1869 H   0  0  0  0  0  0  0  0  0  0  0  0
   44.0852   14.5716    9.8111 H   0  0  0  0  0  0  0  0  0  0  0  0
   45.4404   13.8562   11.7569 H   0  0  0  0  0  0  0  0  0  0  0  0
   44.0634   14.0289   12.8390 H   0  0  0  0  0  0  0  0  0  0  0  0
   40.4810   15.7610   10.7318 H   0  0  0  0  0  0  0  0  0  0  0  0
   42.0849   18.0215   10.7530 H   0  0  0  0  0  0  0  0  0  0  0  0
   41.2699   17.3347   12.1429 H   0  0  0  0  0  0  0  0  0  0  0  0
   43.8342   17.7663   12.3035 H   0  0  0  0  0  0  0  0  0  0  0  0
   43.2212   16.2442   12.9456 H   0  0  0  0  0  0  0  0  0  0  0  0
   43.9259    7.5628   11.1673 H   0  0  0  0  0  0  0  0  0  0  0  0
   46.7052    6.7365   11.7881 H   0  0  0  0  0  0  0  0  0  0  0  0
   45.4611    6.4097   12.9935 H   0  0  0  0  0  0  0  0  0  0  0  0
   45.8551    6.1228    9.2199 H   0  0  0  0  0  0  0  0  0  0  0  0
   45.1976    4.0861    7.9522 H   0  0  0  0  0  0  0  0  0  0  0  0
   43.8926    2.2176   11.5855 H   0  0  0  0  0  0  0  0  0  0  0  0
   40.8036    9.7886   10.0089 H   0  0  0  0  0  0  0  0  0  0  0  0
   40.9911   17.1204    8.7612 H   0  0  0  0  0  0  0  0  0  0  0  0
   42.6409   16.4770    8.6923 H   0  0  0  0  0  0  0  0  0  0  0  0
   41.2638   15.4067    8.4076 H   0  0  0  0  0  0  0  0  0  0  0  0
  1  2  1  0
  2  3  1  0
  3  4  2  0
  5  6  1  0
  6  1  2  0
  4  7  1  0
  5  4  1  0
 10  5  1  0
  7  8  1  0
  9 10  1  0
  8 11  1  0
  9  8  1  0
 14  9  1  0
 11 12  1  0
 12 13  1  0
 13 14  1  0
  1 15  1  0
 15 16  2  0
 15 17  1  0
 17 18  1  0
 18 19  1  0
 19 20  2  0
 19 24  1  0
 20 21  1  0
 21 22  2  0
 22 23  1  0
 23 24  2  0
 22 25  1  0
 24 26  1  0
  2 27  2  0
  3 28  1  0
  7 29  2  0
 11 30  1  0
  6 31  1  0
  9 32  1  6
 10 33  1  0
 10 34  1  0
 11 35  1  1
 12 36  1  0
 12 37  1  0
 13 38  1  0
 13 39  1  0
 17 40  1  0
 18 41  1  0
 18 42  1  0
 20 43  1  0
 21 44  1  0
 23 45  1  0
 28 46  1  0
 30 47  1  0
 30 48  1  0
 30 49  1  0
M  END
> <Uni-Dock RESULT> 
ENERGY=   -4.836  LOWER_BOUND=    0.000  UPPER_BOUND=    0.000
INTER + INTRA:          -4.836
INTER:                  -4.836
INTRA:                   0.000
UNBOUND:                 0.000

$$$$

     RDKit          3D

 49 52  0  0  0  0  0  0  0  0999 V2000
   44.3095   10.0548   11.5030 C   0  0  0  0  0  0  0  0  0  0  0  0
   42.9697    9.8435   10.9081 C   0  0  0  0  0  0  0  0  0  0  0  0
   42.0940   11.0289   10.6421 C   0  0  0  0  0  0  0  0  0  0  0  0
   42.5682   12.2570   10.9456 C   0  0  0  0  0  0  0  0  0  0  0  0
   43.8680   12.4384   11.4715 N   0  0  0  0  0  0  0  0  0  0  0  0
   44.6564   11.3283   11.7445 C   0  0  0  0  0  0  0  0  0  0  0  0
   41.6690   13.4761   10.7175 C   0  0  0  0  0  0  0  0  0  0  0  0
   42.2871   14.7234   10.8205 N   0  0  0  0  0  0  0  0  0  0  0  0
   43.7356   14.8073   10.8250 C   0  0  2  0  0  0  0  0  0  0  0  0
   44.3418   13.7925   11.8043 C   0  0  0  0  0  0  0  0  0  0  0  0
   41.5332   15.9342   10.5024 C   0  0  1  0  0  0  0  0  0  0  0  0
   42.0025   17.1115   11.3632 C   0  0  0  0  0  0  0  0  0  0  0  0
   43.3395   16.8260   12.0243 C   0  0  0  0  0  0  0  0  0  0  0  0
   44.1849   16.1339   11.1151 O   0  0  0  0  0  0  0  0  0  0  0  0
   45.2709    8.9713   11.8431 C   0  0  0  0  0  0  0  0  0  0  0  0
   46.3433    9.2122   12.3907 O   0  0  0  0  0  0  0  0  0  0  0  0
   44.8760    7.7033   11.5068 N   0  0  0  0  0  0  0  0  0  0  0  0
   45.6341    6.5441   11.9186 C   0  0  0  0  0  0  0  0  0  0  0  0
   45.2383    5.3236   11.1365 C   0  0  0  0  0  0  0  0  0  0  0  0
   45.4242    5.2726    9.7451 C   0  0  0  0  0  0  0  0  0  0  0  0
   45.0581    4.1323    9.0275 C   0  0  0  0  0  0  0  0  0  0  0  0
   44.5103    3.0437    9.6984 C   0  0  0  0  0  0  0  0  0  0  0  0
   44.3213    3.0703   11.0724 C   0  0  0  0  0  0  0  0  0  0  0  0
   44.6880    4.2094   11.7798 C   0  0  0  0  0  0  0  0  0  0  0  0
   44.1614    1.9517    9.0058 F   0  0  0  0  0  0  0  0  0  0  0  0
   44.5040    4.2269   13.1076 F   0  0  0  0  0  0  0  0  0  0  0  0
   42.5407    8.7214   10.6302 O   0  0  0  0  0  0  0  0  0  0  0  0
   40.8576   10.7599   10.0896 O   0  0  0  0  0  0  0  0  0  0  0  0
   40.4646   13.3795   10.4986 O   0  0  0  0  0  0  0  0  0  0  0  0
   41.6077   16.2521    9.0057 C   0  0  0  0  0  0  0  0  0  0  0  0
   45.6237   11.5681   12.1850 H   0  0  0  0  0  0  0  0  0  0  0  0
   44.0792   14.5708    9.8099 H   0  0  0  0  0  0  0  0  0  0  0  0
   45.4361   13.8564   11.7548 H   0  0  0  0  0  0  0  0  0  0  0  0
   44.0597   14.0284   12.8378 H   0  0  0  0  0  0  0  0  0  0  0  0
   40.4750   15.7582   10.7328 H   0  0  0  0  0  0  0  0  0  0  0  0
   42.0775   18.0196   10.7526 H   0  0  0  0  0  0  0  0  0  0  0  0
   41.2638   17.3326   12.1432 H   0  0  0  0  0  0  0  0  0  0  0  0
   43.8280   17.7656   12.3020 H   0  0  0  0  0  0  0  0  0  0  0  0
   43.2163   16.2433   12.9448 H   0  0  0  0  0  0  0  0  0  0  0  0
   43.9249    7.5621   11.1671 H   0  0  0  0  0  0  0  0  0  0  0  0
   46.7051    6.7375   11.7861 H   0  0  0  0  0  0  0  0  0  0  0  0
   45.4620    6.4101   12.9923 H   0  0  0  0  0  0  0  0  0  0  0  0
   45.8537    6.1230    9.2186 H   0  0  0  0  0  0  0  0  0  0  0  0
   45.1965    4.0857    7.9515 H   0  0  0  0  0  0  0  0  0  0  0  0
   43.8951    2.2169   11.5859 H   0  0  0  0  0  0  0  0  0  0  0  0
   40.8006    9.7859   10.0104 H   0  0  0  0  0  0  0  0  0  0  0  0
   40.9829   17.1176    8.7617 H   0  0  0  0  0  0  0  0  0  0  0  0
   42.6331   16.4752    8.6918 H   0  0  0  0  0  0  0  0  0  0  0  0
   41.2564   15.4041    8.4081 H   0  0  0  0  0  0  0  0  0  0  0  0
  1  2  1  0
  2  3  1  0
  3  4  2  0
  5  6  1  0
  6  1  2  0
  4  7  1  0
  5  4  1  0
 10  5  1  0
  7  8  1  0
  9 10  1  0
  8 11  1  0
  9  8  1  0
 14  9  1  0
 11 12  1  0
 12 13  1  0
 13 14  1  0
  1 15  1  0
 15 16  2  0
 15 17  1  0
 17 18  1  0
 18 19  1  0
 19 20  2  0
 19 24  1  0
 20 21  1  0
 21 22  2  0
 22 23  1  0
 23 24  2  0
 22 25  1  0
 24 26  1  0
  2 27  2  0
  3 28  1  0
  7 29  2  0
 11 30  1  0
  6 31  1  0
  9 32  1  6
 10 33  1  0
 10 34  1  0
 11 35  1  1
 12 36  1  0
 12 37  1  0
 13 38  1  0
 13 39  1  0
 17 40  1  0
 18 41  1  0
 18 42  1  0
 20 43  1  0
 21 44  1  0
 23 45  1  0
 28 46  1  0
 30 47  1  0
 30 48  1  0
 30 49  1  0
M  END
> <Uni-Dock RESULT> 
ENERGY=   -4.836  LOWER_BOUND=    0.004  UPPER_BOUND=    0.004
INTER + INTRA:          -4.836
INTER:                  -4.836
INTRA:                   0.000
UNBOUND:                 0.000

$$$$

     RDKit          3D

 49 52  0  0  0  0  0  0  0  0999 V2000
   47.7995    8.4968   14.1771 C   0  0  0  0  0  0  0  0  0  0  0  0
   48.5114    7.2815   14.6351 C   0  0  0  0  0  0  0  0  0  0  0  0
   49.6545    7.4222   15.5924 C   0  0  0  0  0  0  0  0  0  0  0  0
   49.9873    8.6613   16.0154 C   0  0  0  0  0  0  0  0  0  0  0  0
   49.2650    9.8033   15.5994 N   0  0  0  0  0  0  0  0  0  0  0  0
   48.2290    9.6620   14.6856 C   0  0  0  0  0  0  0  0  0  0  0  0
   51.1799    8.8259   16.9628 C   0  0  0  0  0  0  0  0  0  0  0  0
   51.3289   10.0832   17.5503 N   0  0  0  0  0  0  0  0  0  0  0  0
   50.2352   11.0349   17.4940 C   0  0  2  0  0  0  0  0  0  0  0  0
   49.6698   11.1386   16.0706 C   0  0  0  0  0  0  0  0  0  0  0  0
   52.3676   10.2944   18.5563 C   0  0  1  0  0  0  0  0  0  0  0  0
   52.9033   11.7285   18.4954 C   0  0  0  0  0  0  0  0  0  0  0  0
   51.9841   12.6379   17.6989 C   0  0  0  0  0  0  0  0  0  0  0  0
   50.6290   12.3189   17.9860 O   0  0  0  0  0  0  0  0  0  0  0  0
   46.6675    8.5078   13.2116 C   0  0  0  0  0  0  0  0  0  0  0  0
   46.1603    9.5583   12.8279 O   0  0  0  0  0  0  0  0  0  0  0  0
   46.2403    7.2773   12.7871 N   0  0  0  0  0  0  0  0  0  0  0  0
   45.2603    7.1422   11.7338 C   0  0  0  0  0  0  0  0  0  0  0  0
   44.6781    5.7573   11.7007 C   0  0  0  0  0  0  0  0  0  0  0  0
   43.9515    5.2589   12.7947 C   0  0  0  0  0  0  0  0  0  0  0  0
   43.4100    3.9727   12.7527 C   0  0  0  0  0  0  0  0  0  0  0  0
   43.5908    3.1868   11.6193 C   0  0  0  0  0  0  0  0  0  0  0  0
   44.3012    3.6598   10.5257 C   0  0  0  0  0  0  0  0  0  0  0  0
   44.8377    4.9412   10.5752 C   0  0  0  0  0  0  0  0  0  0  0  0
   43.0686    1.9540   11.5834 F   0  0  0  0  0  0  0  0  0  0  0  0
   45.5214    5.3919    9.5138 F   0  0  0  0  0  0  0  0  0  0  0  0
   48.2037    6.1516   14.2489 O   0  0  0  0  0  0  0  0  0  0  0  0
   50.2748    6.2498   15.9755 O   0  0  0  0  0  0  0  0  0  0  0  0
   51.9905    7.9271   17.1699 O   0  0  0  0  0  0  0  0  0  0  0  0
   51.8614    9.9299   19.9555 C   0  0  0  0  0  0  0  0  0  0  0  0
   47.7609   10.6022   14.3959 H   0  0  0  0  0  0  0  0  0  0  0  0
   49.4474   10.6665   18.1635 H   0  0  0  0  0  0  0  0  0  0  0  0
   48.8225   11.8359   16.0715 H   0  0  0  0  0  0  0  0  0  0  0  0
   50.4164   11.5522   15.3815 H   0  0  0  0  0  0  0  0  0  0  0  0
   53.2057    9.6198   18.3410 H   0  0  0  0  0  0  0  0  0  0  0  0
   53.0314   12.1273   19.5091 H   0  0  0  0  0  0  0  0  0  0  0  0
   53.8993   11.7450   18.0365 H   0  0  0  0  0  0  0  0  0  0  0  0
   52.1584   13.6825   17.9766 H   0  0  0  0  0  0  0  0  0  0  0  0
   52.1721   12.5557   16.6220 H   0  0  0  0  0  0  0  0  0  0  0  0
   46.7829    6.4547   13.0498 H   0  0  0  0  0  0  0  0  0  0  0  0
   44.4596    7.8770   11.8784 H   0  0  0  0  0  0  0  0  0  0  0  0
   45.7611    7.3932   10.7923 H   0  0  0  0  0  0  0  0  0  0  0  0
   43.8081    5.8728   13.6821 H   0  0  0  0  0  0  0  0  0  0  0  0
   42.8489    3.5793   13.5951 H   0  0  0  0  0  0  0  0  0  0  0  0
   44.4355    3.0405    9.6470 H   0  0  0  0  0  0  0  0  0  0  0  0
   49.8253    5.5310   15.4860 H   0  0  0  0  0  0  0  0  0  0  0  0
   52.6646   10.0210   20.6942 H   0  0  0  0  0  0  0  0  0  0  0  0
   51.0381   10.5809   20.2683 H   0  0  0  0  0  0  0  0  0  0  0  0
   51.4951    8.8980   19.9820 H   0  0  0  0  0  0  0  0  0  0  0  0
  1  2  1  0
  2  3  1  0
  3  4  2  0
  5  6  1  0
  6  1  2  0
  4  7  1  0
  5  4  1  0
 10  5  1  0
  7  8  1  0
  9 10  1  0
  8 11  1  0
  9  8  1  0
 14  9  1  0
 11 12  1  0
 12 13  1  0
 13 14  1  0
  1 15  1  0
 15 16  2  0
 15 17  1  0
 17 18  1  0
 18 19  1  0
 19 20  2  0
 19 24  1  0
 20 21  1  0
 21 22  2  0
 22 23  1  0
 23 24  2  0
 22 25  1  0
 24 26  1  0
  2 27  2  0
  3 28  1  0
  7 29  2  0
 11 30  1  0
  6 31  1  0
  9 32  1  6
 10 33  1  0
 10 34  1  0
 11 35  1  1
 12 36  1  0
 12 37  1  0
 13 38  1  0
 13 39  1  0
 17 40  1  0
 18 41  1  0
 18 42  1  0
 20 43  1  0
 21 44  1  0
 23 45  1  0
 28 46  1  0
 30 47  1  0
 30 48  1  0
 30 49  1  0
M  END
> <Uni-Dock RESULT> 
ENERGY=   -4.493  LOWER_BOUND=    5.829  UPPER_BOUND=    8.500
INTER + INTRA:          -4.493
INTER:                  -4.493
INTRA:                   0.000
UNBOUND:                 0.000

$$$$

     RDKit          3D

 49 52  0  0  0  0  0  0  0  0999 V2000
   47.7161    8.5035   14.1286 C   0  0  0  0  0  0  0  0  0  0  0  0
   48.4503    7.2993   14.5808 C   0  0  0  0  0  0  0  0  0  0  0  0
   49.5945    7.4570   15.5340 C   0  0  0  0  0  0  0  0  0  0  0  0
   49.9080    8.7005   15.9588 C   0  0  0  0  0  0  0  0  0  0  0  0
   49.1648    9.8312   15.5485 N   0  0  0  0  0  0  0  0  0  0  0  0
   48.1278    9.6745   14.6384 C   0  0  0  0  0  0  0  0  0  0  0  0
   51.1013    8.8829   16.9020 C   0  0  0  0  0  0  0  0  0  0  0  0
   51.2313   10.1412   17.4922 N   0  0  0  0  0  0  0  0  0  0  0  0
   50.1213   11.0743   17.4425 C   0  0  2  0  0  0  0  0  0  0  0  0
   49.5488   11.1719   16.0216 C   0  0  0  0  0  0  0  0  0  0  0  0
   52.2702   10.3674   18.4947 C   0  0  1  0  0  0  0  0  0  0  0  0
   52.7812   11.8106   18.4354 C   0  0  0  0  0  0  0  0  0  0  0  0
   51.8437   12.7062   17.6447 C   0  0  0  0  0  0  0  0  0  0  0  0
   50.4953   12.3636   17.9362 O   0  0  0  0  0  0  0  0  0  0  0  0
   46.5802    8.4977   13.1675 C   0  0  0  0  0  0  0  0  0  0  0  0
   46.0539    9.5404   12.7884 O   0  0  0  0  0  0  0  0  0  0  0  0
   46.1723    7.2612   12.7416 N   0  0  0  0  0  0  0  0  0  0  0  0
   45.1906    7.1120   11.6918 C   0  0  0  0  0  0  0  0  0  0  0  0
   44.6318    5.7176   11.6574 C   0  0  0  0  0  0  0  0  0  0  0  0
   43.9181    5.2043   12.7529 C   0  0  0  0  0  0  0  0  0  0  0  0
   43.3982    3.9092   12.7098 C   0  0  0  0  0  0  0  0  0  0  0  0
   43.5879    3.1293   11.5737 C   0  0  0  0  0  0  0  0  0  0  0  0
   44.2859    3.6169   10.4786 C   0  0  0  0  0  0  0  0  0  0  0  0
   44.8008    4.9071   10.5293 C   0  0  0  0  0  0  0  0  0  0  0  0
   43.0865    1.8879   11.5367 F   0  0  0  0  0  0  0  0  0  0  0  0
   45.4727    5.3719    9.4664 F   0  0  0  0  0  0  0  0  0  0  0  0
   48.1602    6.1653   14.1929 O   0  0  0  0  0  0  0  0  0  0  0  0
   50.2361    6.2943   15.9118 O   0  0  0  0  0  0  0  0  0  0  0  0
   51.9278    7.9975   17.1038 O   0  0  0  0  0  0  0  0  0  0  0  0
   51.7757    9.9910   19.8949 C   0  0  0  0  0  0  0  0  0  0  0  0
   47.6427   10.6074   14.3529 H   0  0  0  0  0  0  0  0  0  0  0  0
   49.3425   10.6910   18.1141 H   0  0  0  0  0  0  0  0  0  0  0  0
   48.6898   11.8548   16.0274 H   0  0  0  0  0  0  0  0  0  0  0  0
   50.2855   11.5998   15.3306 H   0  0  0  0  0  0  0  0  0  0  0  0
   53.1187    9.7076   18.2744 H   0  0  0  0  0  0  0  0  0  0  0  0
   52.9066   12.2090   19.4496 H   0  0  0  0  0  0  0  0  0  0  0  0
   53.7750   11.8450   17.9726 H   0  0  0  0  0  0  0  0  0  0  0  0
   52.0014   13.7529   17.9243 H   0  0  0  0  0  0  0  0  0  0  0  0
   52.0289   12.6298   16.5668 H   0  0  0  0  0  0  0  0  0  0  0  0
   46.7298    6.4472   13.0001 H   0  0  0  0  0  0  0  0  0  0  0  0
   44.3782    7.8328   11.8413 H   0  0  0  0  0  0  0  0  0  0  0  0
   45.6835    7.3739   10.7489 H   0  0  0  0  0  0  0  0  0  0  0  0
   43.7678    5.8135   13.6424 H   0  0  0  0  0  0  0  0  0  0  0  0
   42.8472    3.5043   13.5534 H   0  0  0  0  0  0  0  0  0  0  0  0
   44.4272    3.0021    9.5978 H   0  0  0  0  0  0  0  0  0  0  0  0
   49.7969    5.5692   15.4222 H   0  0  0  0  0  0  0  0  0  0  0  0
   52.5801   10.0939   20.6307 H   0  0  0  0  0  0  0  0  0  0  0  0
   50.9427   10.6272   20.2125 H   0  0  0  0  0  0  0  0  0  0  0  0
   51.4270    8.9530   19.9202 H   0  0  0  0  0  0  0  0  0  0  0  0
  1  2  1  0
  2  3  1  0
  3  4  2  0
  5  6  1  0
  6  1  2  0
  4  7  1  0
  5  4  1  0
 10  5  1  0
  7  8  1  0
  9 10  1  0
  8 11  1  0
  9  8  1  0
 14  9  1  0
 11 12  1  0
 12 13  1  0
 13 14  1  0
  1 15  1  0
 15 16  2  0
 15 17  1  0
 17 18  1  0
 18 19  1  0
 19 20  2  0
 19 24  1  0
 20 21  1  0
 21 22  2  0
 22 23  1  0
 23 24  2  0
 22 25  1  0
 24 26  1  0
  2 27  2  0
  3 28  1  0
  7 29  2  0
 11 30  1  0
  6 31  1  0
  9 32  1  6
 10 33  1  0
 10 34  1  0
 11 35  1  1
 12 36  1  0
 12 37  1  0
 13 38  1  0
 13 39  1  0
 17 40  1  0
 18 41  1  0
 18 42  1  0
 20 43  1  0
 21 44  1  0
 23 45  1  0
 28 46  1  0
 30 47  1  0
 30 48  1  0
 30 49  1  0
M  END
> <Uni-Dock RESULT> 
ENERGY=   -4.484  LOWER_BOUND=    5.755  UPPER_BOUND=    8.413
INTER + INTRA:          -4.484
INTER:                  -4.484
INTRA:                   0.000
UNBOUND:                 0.000

$$$$

     RDKit          3D

 49 52  0  0  0  0  0  0  0  0999 V2000
   47.0247    8.5379   13.1887 C   0  0  0  0  0  0  0  0  0  0  0  0
   46.1339    7.4556   12.7104 C   0  0  0  0  0  0  0  0  0  0  0  0
   46.2738    6.0836   13.2943 C   0  0  0  0  0  0  0  0  0  0  0  0
   47.2060    5.8867   14.2520 C   0  0  0  0  0  0  0  0  0  0  0  0
   48.0152    6.9453   14.7249 N   0  0  0  0  0  0  0  0  0  0  0  0
   47.8981    8.2045   14.1512 C   0  0  0  0  0  0  0  0  0  0  0  0
   47.3892    4.4799   14.8302 C   0  0  0  0  0  0  0  0  0  0  0  0
   48.1882    4.3836   15.9706 N   0  0  0  0  0  0  0  0  0  0  0  0
   48.5348    5.5850   16.7066 C   0  0  2  0  0  0  0  0  0  0  0  0
   49.0312    6.6858   15.7589 C   0  0  0  0  0  0  0  0  0  0  0  0
   48.3206    3.0999   16.6563 C   0  0  1  0  0  0  0  0  0  0  0  0
   49.7074    2.9612   17.2927 C   0  0  0  0  0  0  0  0  0  0  0  0
   50.4231    4.2980   17.3763 C   0  0  0  0  0  0  0  0  0  0  0  0
   49.4963    5.3158   17.7308 O   0  0  0  0  0  0  0  0  0  0  0  0
   47.0140    9.9366   12.6810 C   0  0  0  0  0  0  0  0  0  0  0  0
   47.8219   10.7711   13.0798 O   0  0  0  0  0  0  0  0  0  0  0  0
   46.0515   10.2197   11.7482 N   0  0  0  0  0  0  0  0  0  0  0  0
   46.0247   11.4870   11.0543 C   0  0  0  0  0  0  0  0  0  0  0  0
   44.7008   11.7158   10.3812 C   0  0  0  0  0  0  0  0  0  0  0  0
   43.5198   11.8097   11.1359 C   0  0  0  0  0  0  0  0  0  0  0  0
   42.2951   12.0275   10.5020 C   0  0  0  0  0  0  0  0  0  0  0  0
   42.2500   12.1546    9.1175 C   0  0  0  0  0  0  0  0  0  0  0  0
   43.4041   12.0693    8.3525 C   0  0  0  0  0  0  0  0  0  0  0  0
   44.6196   11.8519    8.9909 C   0  0  0  0  0  0  0  0  0  0  0  0
   41.0728   12.3643    8.5141 F   0  0  0  0  0  0  0  0  0  0  0  0
   45.7308   11.7726    8.2450 F   0  0  0  0  0  0  0  0  0  0  0  0
   45.2825    7.6392   11.8377 O   0  0  0  0  0  0  0  0  0  0  0  0
   45.4143    5.1222   12.8011 O   0  0  0  0  0  0  0  0  0  0  0  0
   46.9035    3.4804   14.3078 O   0  0  0  0  0  0  0  0  0  0  0  0
   47.1975    2.9037   17.6795 C   0  0  0  0  0  0  0  0  0  0  0  0
   48.5913    8.9422   14.5541 H   0  0  0  0  0  0  0  0  0  0  0  0
   47.6240    5.9334   17.2100 H   0  0  0  0  0  0  0  0  0  0  0  0
   49.2479    7.5898   16.3420 H   0  0  0  0  0  0  0  0  0  0  0  0
   49.9705    6.3919   15.2745 H   0  0  0  0  0  0  0  0  0  0  0  0
   48.2149    2.2958   15.9172 H   0  0  0  0  0  0  0  0  0  0  0  0
   49.6211    2.5239   18.2949 H   0  0  0  0  0  0  0  0  0  0  0  0
   50.3261    2.2660   16.7123 H   0  0  0  0  0  0  0  0  0  0  0  0
   51.2018    4.2583   18.1448 H   0  0  0  0  0  0  0  0  0  0  0  0
   50.9172    4.5491   16.4304 H   0  0  0  0  0  0  0  0  0  0  0  0
   45.4943    9.4523   11.3731 H   0  0  0  0  0  0  0  0  0  0  0  0
   46.2253   12.2996   11.7624 H   0  0  0  0  0  0  0  0  0  0  0  0
   46.8493   11.4780   10.3330 H   0  0  0  0  0  0  0  0  0  0  0  0
   43.5532   11.7115   12.2195 H   0  0  0  0  0  0  0  0  0  0  0  0
   41.3773   12.0991   11.0780 H   0  0  0  0  0  0  0  0  0  0  0  0
   43.3588   12.1709    7.2748 H   0  0  0  0  0  0  0  0  0  0  0  0
   44.8806    5.5631   12.1089 H   0  0  0  0  0  0  0  0  0  0  0  0
   47.2599    1.9111   18.1379 H   0  0  0  0  0  0  0  0  0  0  0  0
   47.2465    3.6500   18.4796 H   0  0  0  0  0  0  0  0  0  0  0  0
   46.2151    2.9935   17.2035 H   0  0  0  0  0  0  0  0  0  0  0  0
  1  2  1  0
  2  3  1  0
  3  4  2  0
  5  6  1  0
  6  1  2  0
  4  7  1  0
  5  4  1  0
 10  5  1  0
  7  8  1  0
  9 10  1  0
  8 11  1  0
  9  8  1  0
 14  9  1  0
 11 12  1  0
 12 13  1  0
 13 14  1  0
  1 15  1  0
 15 16  2  0
 15 17  1  0
 17 18  1  0
 18 19  1  0
 19 20  2  0
 19 24  1  0
 20 21  1  0
 21 22  2  0
 22 23  1  0
 23 24  2  0
 22 25  1  0
 24 26  1  0
  2 27  2  0
  3 28  1  0
  7 29  2  0
 11 30  1  0
  6 31  1  0
  9 32  1  6
 10 33  1  0
 10 34  1  0
 11 35  1  1
 12 36  1  0
 12 37  1  0
 13 38  1  0
 13 39  1  0
 17 40  1  0
 18 41  1  0
 18 42  1  0
 20 43  1  0
 21 44  1  0
 23 45  1  0
 28 46  1  0
 30 47  1  0
 30 48  1  0
 30 49  1  0
M  END
> <Uni-Dock RESULT> 
ENERGY=   -4.462  LOWER_BOUND=    4.826  UPPER_BOUND=    9.819
INTER + INTRA:          -4.462
INTER:                  -4.462
INTRA:                   0.000
UNBOUND:                 0.000

$$$$

     RDKit          3D

 49 52  0  0  0  0  0  0  0  0999 V2000
   45.5100   10.1335   11.8151 C   0  0  0  0  0  0  0  0  0  0  0  0
   46.7756    9.5067   12.2611 C   0  0  0  0  0  0  0  0  0  0  0  0
   47.9156   10.3826   12.6807 C   0  0  0  0  0  0  0  0  0  0  0  0
   47.7406   11.7217   12.6484 C   0  0  0  0  0  0  0  0  0  0  0  0
   46.5084   12.2971   12.2613 N   0  0  0  0  0  0  0  0  0  0  0  0
   45.4710   11.4745   11.8427 C   0  0  0  0  0  0  0  0  0  0  0  0
   48.9104   12.6319   13.0355 C   0  0  0  0  0  0  0  0  0  0  0  0
   48.6055   13.9823   13.2135 N   0  0  0  0  0  0  0  0  0  0  0  0
   47.2193   14.3949   13.3297 C   0  0  2  0  0  0  0  0  0  0  0  0
   46.3631   13.7621   12.2238 C   0  0  0  0  0  0  0  0  0  0  0  0
   49.6346   14.8999   13.6977 C   0  0  1  0  0  0  0  0  0  0  0  0
   49.4378   16.3008   13.1095 C   0  0  0  0  0  0  0  0  0  0  0  0
   48.0546   16.4668   12.5051 C   0  0  0  0  0  0  0  0  0  0  0  0
   47.0923   15.8196   13.3271 O   0  0  0  0  0  0  0  0  0  0  0  0
   44.3092    9.3891   11.3481 C   0  0  0  0  0  0  0  0  0  0  0  0
   43.3114    9.9735   10.9345 O   0  0  0  0  0  0  0  0  0  0  0  0
   44.3986    8.0235   11.4110 N   0  0  0  0  0  0  0  0  0  0  0  0
   43.3752    7.1748   10.8448 C   0  0  0  0  0  0  0  0  0  0  0  0
   43.4884    5.7653   11.3533 C   0  0  0  0  0  0  0  0  0  0  0  0
   43.3319    5.4817   12.7200 C   0  0  0  0  0  0  0  0  0  0  0  0
   43.4338    4.1682   13.1824 C   0  0  0  0  0  0  0  0  0  0  0  0
   43.6882    3.1395   12.2813 C   0  0  0  0  0  0  0  0  0  0  0  0
   43.8423    3.3957   10.9267 C   0  0  0  0  0  0  0  0  0  0  0  0
   43.7399    4.7060   10.4741 C   0  0  0  0  0  0  0  0  0  0  0  0
   43.7842    1.8810   12.7296 F   0  0  0  0  0  0  0  0  0  0  0  0
   43.8882    4.9455    9.1634 F   0  0  0  0  0  0  0  0  0  0  0  0
   46.9314    8.2840   12.2917 O   0  0  0  0  0  0  0  0  0  0  0  0
   49.0659    9.7330   13.0820 O   0  0  0  0  0  0  0  0  0  0  0  0
   50.0622   12.2204   13.1446 O   0  0  0  0  0  0  0  0  0  0  0  0
   49.6771   14.9212   15.2289 C   0  0  0  0  0  0  0  0  0  0  0  0
   44.5778   12.0123   11.5262 H   0  0  0  0  0  0  0  0  0  0  0  0
   46.8556   14.0457   14.3045 H   0  0  0  0  0  0  0  0  0  0  0  0
   45.3173   14.0637   12.3635 H   0  0  0  0  0  0  0  0  0  0  0  0
   46.6664   14.1285   11.2353 H   0  0  0  0  0  0  0  0  0  0  0  0
   50.6139   14.5358   13.3624 H   0  0  0  0  0  0  0  0  0  0  0  0
   49.5976   17.0614   13.8835 H   0  0  0  0  0  0  0  0  0  0  0  0
   50.1874   16.4979   12.3334 H   0  0  0  0  0  0  0  0  0  0  0  0
   47.7974   17.5293   12.4448 H   0  0  0  0  0  0  0  0  0  0  0  0
   48.0111   16.0670   11.4852 H   0  0  0  0  0  0  0  0  0  0  0  0
   45.2970    7.6034   11.6484 H   0  0  0  0  0  0  0  0  0  0  0  0
   42.3851    7.5778   11.0885 H   0  0  0  0  0  0  0  0  0  0  0  0
   43.4824    7.2219    9.7555 H   0  0  0  0  0  0  0  0  0  0  0  0
   43.1318    6.2852   13.4266 H   0  0  0  0  0  0  0  0  0  0  0  0
   43.3162    3.9409   14.2377 H   0  0  0  0  0  0  0  0  0  0  0  0
   44.0390    2.5874   10.2326 H   0  0  0  0  0  0  0  0  0  0  0  0
   48.8908    8.7760   12.9726 H   0  0  0  0  0  0  0  0  0  0  0  0
   50.4966   15.5542   15.5851 H   0  0  0  0  0  0  0  0  0  0  0  0
   48.7432   15.3060   15.6525 H   0  0  0  0  0  0  0  0  0  0  0  0
   49.8313   13.9137   15.6297 H   0  0  0  0  0  0  0  0  0  0  0  0
  1  2  1  0
  2  3  1  0
  3  4  2  0
  5  6  1  0
  6  1  2  0
  4  7  1  0
  5  4  1  0
 10  5  1  0
  7  8  1  0
  9 10  1  0
  8 11  1  0
  9  8  1  0
 14  9  1  0
 11 12  1  0
 12 13  1  0
 13 14  1  0
  1 15  1  0
 15 16  2  0
 15 17  1  0
 17 18  1  0
 18 19  1  0
 19 20  2  0
 19 24  1  0
 20 21  1  0
 21 22  2  0
 22 23  1  0
 23 24  2  0
 22 25  1  0
 24 26  1  0
  2 27  2  0
  3 28  1  0
  7 29  2  0
 11 30  1  0
  6 31  1  0
  9 32  1  6
 10 33  1  0
 10 34  1  0
 11 35  1  1
 12 36  1  0
 12 37  1  0
 13 38  1  0
 13 39  1  0
 17 40  1  0
 18 41  1  0
 18 42  1  0
 20 43  1  0
 21 44  1  0
 23 45  1  0
 28 46  1  0
 30 47  1  0
 30 48  1  0
 30 49  1  0
M  END
> <Uni-Dock RESULT> 
ENERGY=   -4.084  LOWER_BOUND=    3.235  UPPER_BOUND=    5.154
INTER + INTRA:          -4.084
INTER:                  -4.084
INTRA:                   0.000
UNBOUND:                 0.000

$$$$

     RDKit          3D

 49 52  0  0  0  0  0  0  0  0999 V2000
   48.6345    7.5358   14.9598 C   0  0  0  0  0  0  0  0  0  0  0  0
   47.9743    8.7097   14.3437 C   0  0  0  0  0  0  0  0  0  0  0  0
   46.8598    8.4915   13.3674 C   0  0  0  0  0  0  0  0  0  0  0  0
   46.4873    7.2222   13.0932 C   0  0  0  0  0  0  0  0  0  0  0  0
   47.1021    6.1180   13.7272 N   0  0  0  0  0  0  0  0  0  0  0  0
   48.1566    6.3332   14.6048 C   0  0  0  0  0  0  0  0  0  0  0  0
   45.3766    6.9809   12.0662 C   0  0  0  0  0  0  0  0  0  0  0  0
   44.8730    5.6808   11.9997 N   0  0  0  0  0  0  0  0  0  0  0  0
   45.1787    4.7386   13.0599 C   0  0  2  0  0  0  0  0  0  0  0  0
   46.6781    4.7489   13.3887 C   0  0  0  0  0  0  0  0  0  0  0  0
   43.7330    5.3887   11.1334 C   0  0  1  0  0  0  0  0  0  0  0  0
   43.8192    3.9628   10.5794 C   0  0  0  0  0  0  0  0  0  0  0  0
   44.8218    3.1211   11.3492 C   0  0  0  0  0  0  0  0  0  0  0  0
   44.7320    3.4189   12.7362 O   0  0  0  0  0  0  0  0  0  0  0  0
   49.7672    7.6033   15.9223 C   0  0  0  0  0  0  0  0  0  0  0  0
   50.3085    6.5874   16.3500 O   0  0  0  0  0  0  0  0  0  0  0  0
   50.1569    8.8644   16.2892 N   0  0  0  0  0  0  0  0  0  0  0  0
   51.3401    9.0843   17.0892 C   0  0  0  0  0  0  0  0  0  0  0  0
   51.3577   10.4685   17.6735 C   0  0  0  0  0  0  0  0  0  0  0  0
   50.3589   10.8802   18.5713 C   0  0  0  0  0  0  0  0  0  0  0  0
   50.3864   12.1667   19.1130 C   0  0  0  0  0  0  0  0  0  0  0  0
   51.4110   13.0395   18.7615 C   0  0  0  0  0  0  0  0  0  0  0  0
   52.4099   12.6531   17.8799 C   0  0  0  0  0  0  0  0  0  0  0  0
   52.3754   11.3707   17.3444 C   0  0  0  0  0  0  0  0  0  0  0  0
   51.4335   14.2723   19.2844 F   0  0  0  0  0  0  0  0  0  0  0  0
   53.3453   11.0041   16.4946 F   0  0  0  0  0  0  0  0  0  0  0  0
   48.3152    9.8671   14.5978 O   0  0  0  0  0  0  0  0  0  0  0  0
   46.2914    9.6288   12.8291 O   0  0  0  0  0  0  0  0  0  0  0  0
   44.9721    7.8589   11.3090 O   0  0  0  0  0  0  0  0  0  0  0  0
   42.4090    5.6424   11.8612 C   0  0  0  0  0  0  0  0  0  0  0  0
   48.5904    5.4197   15.0102 H   0  0  0  0  0  0  0  0  0  0  0  0
   44.6177    5.0544   13.9487 H   0  0  0  0  0  0  0  0  0  0  0  0
   46.8680    4.0553   14.2175 H   0  0  0  0  0  0  0  0  0  0  0  0
   47.2687    4.3896   12.5369 H   0  0  0  0  0  0  0  0  0  0  0  0
   43.7574    6.0766   10.2789 H   0  0  0  0  0  0  0  0  0  0  0  0
   42.8325    3.4849   10.6111 H   0  0  0  0  0  0  0  0  0  0  0  0
   44.1121    3.9808    9.5226 H   0  0  0  0  0  0  0  0  0  0  0  0
   44.6025    2.0575   11.2103 H   0  0  0  0  0  0  0  0  0  0  0  0
   45.8448    3.2879   10.9919 H   0  0  0  0  0  0  0  0  0  0  0  0
   49.7469    9.6626   15.8046 H   0  0  0  0  0  0  0  0  0  0  0  0
   51.3840    8.3418   17.8947 H   0  0  0  0  0  0  0  0  0  0  0  0
   52.2057    8.9075   16.4412 H   0  0  0  0  0  0  0  0  0  0  0  0
   49.5569   10.1983   18.8484 H   0  0  0  0  0  0  0  0  0  0  0  0
   49.6169   12.4934   19.8061 H   0  0  0  0  0  0  0  0  0  0  0  0
   53.2044   13.3397   17.6132 H   0  0  0  0  0  0  0  0  0  0  0  0
   46.7889   10.3849   13.2022 H   0  0  0  0  0  0  0  0  0  0  0  0
   41.5604    5.4916   11.1858 H   0  0  0  0  0  0  0  0  0  0  0  0
   42.2845    4.9702   12.7169 H   0  0  0  0  0  0  0  0  0  0  0  0
   42.3609    6.6696   12.2381 H   0  0  0  0  0  0  0  0  0  0  0  0
  1  2  1  0
  2  3  1  0
  3  4  2  0
  5  6  1  0
  6  1  2  0
  4  7  1  0
  5  4  1  0
 10  5  1  0
  7  8  1  0
  9 10  1  0
  8 11  1  0
  9  8  1  0
 14  9  1  0
 11 12  1  0
 12 13  1  0
 13 14  1  0
  1 15  1  0
 15 16  2  0
 15 17  1  0
 17 18  1  0
 18 19  1  0
 19 20  2  0
 19 24  1  0
 20 21  1  0
 21 22  2  0
 22 23  1  0
 23 24  2  0
 22 25  1  0
 24 26  1  0
  2 27  2  0
  3 28  1  0
  7 29  2  0
 11 30  1  0
  6 31  1  0
  9 32  1  6
 10 33  1  0
 10 34  1  0
 11 35  1  1
 12 36  1  0
 12 37  1  0
 13 38  1  0
 13 39  1  0
 17 40  1  0
 18 41  1  0
 18 42  1  0
 20 43  1  0
 21 44  1  0
 23 45  1  0
 28 46  1  0
 30 47  1  0
 30 48  1  0
 30 49  1  0
M  END
> <Uni-Dock RESULT> 
ENERGY=   -3.955  LOWER_BOUND=    6.574  UPPER_BOUND=   10.269
INTER + INTRA:          -3.955
INTER:                  -3.955
INTRA:                   0.000
UNBOUND:                 0.000

$$$$

     RDKit          3D

 49 52  0  0  0  0  0  0  0  0999 V2000
   50.0440    9.6136   11.6089 C   0  0  0  0  0  0  0  0  0  0  0  0
   49.3500    8.4103   12.1224 C   0  0  0  0  0  0  0  0  0  0  0  0
   47.8625    8.4426   12.2931 C   0  0  0  0  0  0  0  0  0  0  0  0
   47.2033    9.5730   11.9574 C   0  0  0  0  0  0  0  0  0  0  0  0
   47.8816   10.6945   11.4270 N   0  0  0  0  0  0  0  0  0  0  0  0
   49.2645   10.6629   11.3055 C   0  0  0  0  0  0  0  0  0  0  0  0
   45.6868    9.6362   12.1646 C   0  0  0  0  0  0  0  0  0  0  0  0
   45.0323   10.7245   11.5851 N   0  0  0  0  0  0  0  0  0  0  0  0
   45.7236   11.5351   10.6000 C   0  0  2  0  0  0  0  0  0  0  0  0
   47.1286   11.9140   11.0886 C   0  0  0  0  0  0  0  0  0  0  0  0
   43.5737   10.8016   11.6318 C   0  0  1  0  0  0  0  0  0  0  0  0
   43.1061   12.2586   11.7083 C   0  0  0  0  0  0  0  0  0  0  0  0
   44.2177   13.2252   11.3390 C   0  0  0  0  0  0  0  0  0  0  0  0
   44.9682   12.6990   10.2526 O   0  0  0  0  0  0  0  0  0  0  0  0
   51.5145    9.7308   11.4143 C   0  0  0  0  0  0  0  0  0  0  0  0
   52.0317   10.7801   11.0407 O   0  0  0  0  0  0  0  0  0  0  0  0
   52.2383    8.5986   11.6808 N   0  0  0  0  0  0  0  0  0  0  0  0
   53.6833    8.6127   11.6886 C   0  0  0  0  0  0  0  0  0  0  0  0
   54.2457    7.2206   11.6273 C   0  0  0  0  0  0  0  0  0  0  0  0
   54.0016    6.3973   10.5158 C   0  0  0  0  0  0  0  0  0  0  0  0
   54.5326    5.1070   10.4655 C   0  0  0  0  0  0  0  0  0  0  0  0
   55.3086    4.6408   11.5217 C   0  0  0  0  0  0  0  0  0  0  0  0
   55.5660    5.4378   12.6276 C   0  0  0  0  0  0  0  0  0  0  0  0
   55.0335    6.7211   12.6704 C   0  0  0  0  0  0  0  0  0  0  0  0
   55.8165    3.4027   11.4685 F   0  0  0  0  0  0  0  0  0  0  0  0
   55.2881    7.4860   13.7416 F   0  0  0  0  0  0  0  0  0  0  0  0
   49.9543    7.3792   12.4257 O   0  0  0  0  0  0  0  0  0  0  0  0
   47.2808    7.2884   12.7786 O   0  0  0  0  0  0  0  0  0  0  0  0
   45.0745    8.8092   12.8346 O   0  0  0  0  0  0  0  0  0  0  0  0
   42.9448   10.0584   10.4490 C   0  0  0  0  0  0  0  0  0  0  0  0
   49.6982   11.5876   10.9261 H   0  0  0  0  0  0  0  0  0  0  0  0
   45.8151   10.9321    9.6876 H   0  0  0  0  0  0  0  0  0  0  0  0
   47.6359   12.4928   10.3064 H   0  0  0  0  0  0  0  0  0  0  0  0
   47.0749   12.5608   11.9730 H   0  0  0  0  0  0  0  0  0  0  0  0
   43.2255   10.2951   12.5408 H   0  0  0  0  0  0  0  0  0  0  0  0
   42.2450   12.4142   11.0471 H   0  0  0  0  0  0  0  0  0  0  0  0
   42.7559   12.4945   12.7206 H   0  0  0  0  0  0  0  0  0  0  0  0
   43.7916   14.1853   11.0304 H   0  0  0  0  0  0  0  0  0  0  0  0
   44.8764   13.4250   12.1924 H   0  0  0  0  0  0  0  0  0  0  0  0
   51.7613    7.8022   12.1029 H   0  0  0  0  0  0  0  0  0  0  0  0
   54.0511    9.1983   10.8378 H   0  0  0  0  0  0  0  0  0  0  0  0
   53.9965    9.1360   12.5987 H   0  0  0  0  0  0  0  0  0  0  0  0
   53.3954    6.7606    9.6878 H   0  0  0  0  0  0  0  0  0  0  0  0
   54.3467    4.4635    9.6108 H   0  0  0  0  0  0  0  0  0  0  0  0
   56.1727    5.0661   13.4446 H   0  0  0  0  0  0  0  0  0  0  0  0
   48.0149    6.6629   12.9464 H   0  0  0  0  0  0  0  0  0  0  0  0
   41.8526   10.0579   10.5282 H   0  0  0  0  0  0  0  0  0  0  0  0
   43.2149   10.5204    9.4934 H   0  0  0  0  0  0  0  0  0  0  0  0
   43.2807    9.0164   10.4190 H   0  0  0  0  0  0  0  0  0  0  0  0
  1  2  1  0
  2  3  1  0
  3  4  2  0
  5  6  1  0
  6  1  2  0
  4  7  1  0
  5  4  1  0
 10  5  1  0
  7  8  1  0
  9 10  1  0
  8 11  1  0
  9  8  1  0
 14  9  1  0
 11 12  1  0
 12 13  1  0
 13 14  1  0
  1 15  1  0
 15 16  2  0
 15 17  1  0
 17 18  1  0
 18 19  1  0
 19 20  2  0
 19 24  1  0
 20 21  1  0
 21 22  2  0
 22 23  1  0
 23 24  2  0
 22 25  1  0
 24 26  1  0
  2 27  2  0
  3 28  1  0
  7 29  2  0
 11 30  1  0
  6 31  1  0
  9 32  1  6
 10 33  1  0
 10 34  1  0
 11 35  1  1
 12 36  1  0
 12 37  1  0
 13 38  1  0
 13 39  1  0
 17 40  1  0
 18 41  1  0
 18 42  1  0
 20 43  1  0
 21 44  1  0
 23 45  1  0
 28 46  1  0
 30 47  1  0
 30 48  1  0
 30 49  1  0
M  END
> <Uni-Dock RESULT> 
ENERGY=   -3.782  LOWER_BOUND=    6.105  UPPER_BOUND=    7.449
INTER + INTRA:          -3.782
INTER:                  -3.782
INTRA:                   0.000
UNBOUND:                 0.000

$$$$

     RDKit          3D

 49 52  0  0  0  0  0  0  0  0999 V2000
   48.7491    9.2449   16.5834 C   0  0  0  0  0  0  0  0  0  0  0  0
   49.4885    8.9837   15.3270 C   0  0  0  0  0  0  0  0  0  0  0  0
   49.8694   10.1370   14.4509 C   0  0  0  0  0  0  0  0  0  0  0  0
   49.5326   11.3831   14.8494 C   0  0  0  0  0  0  0  0  0  0  0  0
   48.8657   11.6125   16.0749 N   0  0  0  0  0  0  0  0  0  0  0  0
   48.4888   10.5317   16.8611 C   0  0  0  0  0  0  0  0  0  0  0  0
   49.8790   12.5699   13.9447 C   0  0  0  0  0  0  0  0  0  0  0  0
   49.7253   13.8376   14.5082 N   0  0  0  0  0  0  0  0  0  0  0  0
   49.5582   13.9684   15.9436 C   0  0  2  0  0  0  0  0  0  0  0  0
   48.5016   12.9849   16.4657 C   0  0  0  0  0  0  0  0  0  0  0  0
   50.1446   15.0196   13.7583 C   0  0  1  0  0  0  0  0  0  0  0  0
   49.2538   16.2212   14.0901 C   0  0  0  0  0  0  0  0  0  0  0  0
   48.4415   15.9866   15.3516 C   0  0  0  0  0  0  0  0  0  0  0  0
   49.2389   15.3121   16.3158 O   0  0  0  0  0  0  0  0  0  0  0  0
   48.2863    8.1970   17.5330 C   0  0  0  0  0  0  0  0  0  0  0  0
   47.6245    8.4787   18.5283 O   0  0  0  0  0  0  0  0  0  0  0  0
   48.6463    6.9132   17.2182 N   0  0  0  0  0  0  0  0  0  0  0  0
   48.1341    5.7838   17.9601 C   0  0  0  0  0  0  0  0  0  0  0  0
   48.9378    4.5425   17.6936 C   0  0  0  0  0  0  0  0  0  0  0  0
   50.2983    4.4818   18.0378 C   0  0  0  0  0  0  0  0  0  0  0  0
   51.0357    3.3222   17.7909 C   0  0  0  0  0  0  0  0  0  0  0  0
   50.4150    2.2241   17.2044 C   0  0  0  0  0  0  0  0  0  0  0  0
   49.0717    2.2601   16.8598 C   0  0  0  0  0  0  0  0  0  0  0  0
   48.3444    3.4183   17.1084 C   0  0  0  0  0  0  0  0  0  0  0  0
   51.1264    1.1137   16.9703 F   0  0  0  0  0  0  0  0  0  0  0  0
   47.0463    3.4448   16.7744 F   0  0  0  0  0  0  0  0  0  0  0  0
   49.7965    7.8452   14.9672 O   0  0  0  0  0  0  0  0  0  0  0  0
   50.5542    9.8219   13.2942 O   0  0  0  0  0  0  0  0  0  0  0  0
   50.2313   12.4318   12.7765 O   0  0  0  0  0  0  0  0  0  0  0  0
   51.6278   15.3229   13.9924 C   0  0  0  0  0  0  0  0  0  0  0  0
   47.9453   10.8076   17.7642 H   0  0  0  0  0  0  0  0  0  0  0  0
   50.5243   13.7317   16.4074 H   0  0  0  0  0  0  0  0  0  0  0  0
   48.4279   13.0836   17.5561 H   0  0  0  0  0  0  0  0  0  0  0  0
   47.5103   13.2231   16.0610 H   0  0  0  0  0  0  0  0  0  0  0  0
   50.0328   14.8121   12.6867 H   0  0  0  0  0  0  0  0  0  0  0  0
   49.8654   17.1243   14.2060 H   0  0  0  0  0  0  0  0  0  0  0  0
   48.5657   16.4269   13.2612 H   0  0  0  0  0  0  0  0  0  0  0  0
   48.1243   16.9446   15.7762 H   0  0  0  0  0  0  0  0  0  0  0  0
   47.5323   15.4106   15.1428 H   0  0  0  0  0  0  0  0  0  0  0  0
   49.0893    6.7374   16.3166 H   0  0  0  0  0  0  0  0  0  0  0  0
   48.1475    6.0103   19.0327 H   0  0  0  0  0  0  0  0  0  0  0  0
   47.0849    5.6564   17.6713 H   0  0  0  0  0  0  0  0  0  0  0  0
   50.7855    5.3397   18.4977 H   0  0  0  0  0  0  0  0  0  0  0  0
   52.0883    3.2681   18.0520 H   0  0  0  0  0  0  0  0  0  0  0  0
   48.5971    1.3992   16.4046 H   0  0  0  0  0  0  0  0  0  0  0  0
   50.6249    8.8457   13.2766 H   0  0  0  0  0  0  0  0  0  0  0  0
   51.9537   16.1650   13.3729 H   0  0  0  0  0  0  0  0  0  0  0  0
   51.8269   15.5756   15.0394 H   0  0  0  0  0  0  0  0  0  0  0  0
   52.2486   14.4573   13.7376 H   0  0  0  0  0  0  0  0  0  0  0  0
  1  2  1  0
  2  3  1  0
  3  4  2  0
  5  6  1  0
  6  1  2  0
  4  7  1  0
  5  4  1  0
 10  5  1  0
  7  8  1  0
  9 10  1  0
  8 11  1  0
  9  8  1  0
 14  9  1  0
 11 12  1  0
 12 13  1  0
 13 14  1  0
  1 15  1  0
 15 16  2  0
 15 17  1  0
 17 18  1  0
 18 19  1  0
 19 20  2  0
 19 24  1  0
 20 21  1  0
 21 22  2  0
 22 23  1  0
 23 24  2  0
 22 25  1  0
 24 26  1  0
  2 27  2  0
  3 28  1  0
  7 29  2  0
 11 30  1  0
  6 31  1  0
  9 32  1  6
 10 33  1  0
 10 34  1  0
 11 35  1  1
 12 36  1  0
 12 37  1  0
 13 38  1  0
 13 39  1  0
 17 40  1  0
 18 41  1  0
 18 42  1  0
 20 43  1  0
 21 44  1  0
 23 45  1  0
 28 46  1  0
 30 47  1  0
 30 48  1  0
 30 49  1  0
M  END
> <Uni-Dock RESULT> 
ENERGY=   -3.568  LOWER_BOUND=    7.488  UPPER_BOUND=    8.141
INTER + INTRA:          -3.568
INTER:                  -3.568
INTRA:                   0.000
UNBOUND:                 0.000

$$$$
