
     RDKit          3D

 49 52  0  0  0  0  0  0  0  0999 V2000
   44.4381   10.0316   11.5640 C   0  0  0  0  0  0  0  0  0  0  0  0
   43.1308    9.8437   10.8816 C   0  0  0  0  0  0  0  0  0  0  0  0
   42.3338   11.0664   10.5131 C   0  0  0  0  0  0  0  0  0  0  0  0
   42.8365   12.2747   10.8615 C   0  0  0  0  0  0  0  0  0  0  0  0
   44.0549   12.4248   11.5387 N   0  0  0  0  0  0  0  0  0  0  0  0
   44.8030   11.2940   11.8356 C   0  0  0  0  0  0  0  0  0  0  0  0
   42.0089   13.4983   10.5164 C   0  0  0  0  0  0  0  0  0  0  0  0
   42.4144   14.7165   11.0346 N   0  0  0  0  0  0  0  0  0  0  0  0
   43.5258   14.8265   11.9537 C   0  0  2  0  0  0  0  0  0  0  0  0
   44.6205   13.7675   11.7520 C   0  0  0  0  0  0  0  0  0  0  0  0
   41.4662   15.8301   11.0495 C   0  0  1  0  0  0  0  0  0  0  0  0
   41.5933   16.6145   12.3616 C   0  0  0  0  0  0  0  0  0  0  0  0
   41.8723   15.6379   13.5013 C   0  0  0  0  0  0  0  0  0  0  0  0
   43.0173   14.8027   13.2872 O   0  0  0  0  0  0  0  0  0  0  0  0
   45.3593    8.9267   11.9520 C   0  0  0  0  0  0  0  0  0  0  0  0
   46.4190    9.1465   12.5334 O   0  0  0  0  0  0  0  0  0  0  0  0
   44.9439    7.6650   11.6184 N   0  0  0  0  0  0  0  0  0  0  0  0
   45.6563    6.4902   12.0655 C   0  0  0  0  0  0  0  0  0  0  0  0
   45.2448    5.2569   11.3094 C   0  0  0  0  0  0  0  0  0  0  0  0
   45.1982    5.2446    9.9052 C   0  0  0  0  0  0  0  0  0  0  0  0
   44.8378    4.0816    9.2214 C   0  0  0  0  0  0  0  0  0  0  0  0
   44.5352    2.9283    9.9374 C   0  0  0  0  0  0  0  0  0  0  0  0
   44.5887    2.9118   11.3231 C   0  0  0  0  0  0  0  0  0  0  0  0
   44.9472    4.0742   11.9965 C   0  0  0  0  0  0  0  0  0  0  0  0
   44.1932    1.8142    9.2772 F   0  0  0  0  0  0  0  0  0  0  0  0
   45.0078    4.0457   13.3356 F   0  0  0  0  0  0  0  0  0  0  0  0
   42.7172    8.7124   10.6241 O   0  0  0  0  0  0  0  0  0  0  0  0
   41.1368   10.8548    9.8450 O   0  0  0  0  0  0  0  0  0  0  0  0
   40.9987   13.3847    9.8179 O   0  0  0  0  0  0  0  0  0  0  0  0
   41.6594   16.7320    9.8343 C   0  0  0  0  0  0  0  0  0  0  0  0
   45.7511   11.5055   12.3283 H   0  0  0  0  0  0  0  0  0  0  0  0
   44.0099   15.7994   11.7974 H   0  0  0  0  0  0  0  0  0  0  0  0
   45.2896   13.7676   12.6212 H   0  0  0  0  0  0  0  0  0  0  0  0
   45.2133   14.0240   10.8649 H   0  0  0  0  0  0  0  0  0  0  0  0
   40.4500   15.4175   11.0052 H   0  0  0  0  0  0  0  0  0  0  0  0
   40.6820   17.1907   12.5560 H   0  0  0  0  0  0  0  0  0  0  0  0
   42.4190   17.3343   12.2964 H   0  0  0  0  0  0  0  0  0  0  0  0
   42.0306   16.1830   14.4374 H   0  0  0  0  0  0  0  0  0  0  0  0
   41.0106   14.9781   13.6544 H   0  0  0  0  0  0  0  0  0  0  0  0
   43.9979    7.5514   11.2497 H   0  0  0  0  0  0  0  0  0  0  0  0
   46.7347    6.6491   11.9498 H   0  0  0  0  0  0  0  0  0  0  0  0
   45.4509    6.3883   13.1370 H   0  0  0  0  0  0  0  0  0  0  0  0
   45.4396    6.1431    9.3399 H   0  0  0  0  0  0  0  0  0  0  0  0
   44.7921    4.0685    8.1366 H   0  0  0  0  0  0  0  0  0  0  0  0
   44.3571    2.0071   11.8722 H   0  0  0  0  0  0  0  0  0  0  0  0
   40.7397   11.7288    9.6362 H   0  0  0  0  0  0  0  0  0  0  0  0
   42.6690   17.1568    9.8110 H   0  0  0  0  0  0  0  0  0  0  0  0
   40.9405   17.5576    9.8437 H   0  0  0  0  0  0  0  0  0  0  0  0
   41.5189   16.1694    8.9051 H   0  0  0  0  0  0  0  0  0  0  0  0
  1  2  1  0
  2  3  1  0
  3  4  2  0
  5  6  1  0
  6  1  2  0
  4  7  1  0
  5  4  1  0
 10  5  1  0
  7  8  1  0
  9 10  1  0
  8 11  1  0
  9  8  1  0
 14  9  1  0
 11 12  1  0
 12 13  1  0
 13 14  1  0
  1 15  1  0
 15 16  2  0
 15 17  1  0
 17 18  1  0
 18 19  1  0
 19 20  2  0
 19 24  1  0
 20 21  1  0
 21 22  2  0
 22 23  1  0
 23 24  2  0
 22 25  1  0
 24 26  1  0
  2 27  2  0
  3 28  1  0
  7 29  2  0
 11 30  1  0
  6 31  1  0
  9 32  1  1
 10 33  1  0
 10 34  1  0
 11 35  1  6
 12 36  1  0
 12 37  1  0
 13 38  1  0
 13 39  1  0
 17 40  1  0
 18 41  1  0
 18 42  1  0
 20 43  1  0
 21 44  1  0
 23 45  1  0
 28 46  1  0
 30 47  1  0
 30 48  1  0
 30 49  1  0
M  END
> <Uni-Dock RESULT> 
ENERGY=   -4.955  LOWER_BOUND=    0.000  UPPER_BOUND=    0.000
INTER + INTRA:          -4.955
INTER:                  -4.955
INTRA:                   0.000
UNBOUND:                 0.000

$$$$

     RDKit          3D

 49 52  0  0  0  0  0  0  0  0999 V2000
   44.4848   10.1815   11.6672 C   0  0  0  0  0  0  0  0  0  0  0  0
   43.1806    9.9886   10.9801 C   0  0  0  0  0  0  0  0  0  0  0  0
   42.3876   11.2087   10.5949 C   0  0  0  0  0  0  0  0  0  0  0  0
   42.8904   12.4197   10.9335 C   0  0  0  0  0  0  0  0  0  0  0  0
   44.1056   12.5750   11.6153 N   0  0  0  0  0  0  0  0  0  0  0  0
   44.8503   11.4461   11.9277 C   0  0  0  0  0  0  0  0  0  0  0  0
   42.0666   13.6410   10.5715 C   0  0  0  0  0  0  0  0  0  0  0  0
   42.4714   14.8639   11.0792 N   0  0  0  0  0  0  0  0  0  0  0  0
   43.5782   14.9817   12.0028 C   0  0  2  0  0  0  0  0  0  0  0  0
   44.6722   13.9190   11.8176 C   0  0  0  0  0  0  0  0  0  0  0  0
   41.5249   15.9791   11.0777 C   0  0  1  0  0  0  0  0  0  0  0  0
   41.6466   16.7767   12.3823 C   0  0  0  0  0  0  0  0  0  0  0  0
   41.9182   15.8115   13.5335 C   0  0  0  0  0  0  0  0  0  0  0  0
   43.0630   14.9725   13.3338 O   0  0  0  0  0  0  0  0  0  0  0  0
   45.4022    9.0793   12.0713 C   0  0  0  0  0  0  0  0  0  0  0  0
   46.4593    9.3034   12.6558 O   0  0  0  0  0  0  0  0  0  0  0  0
   44.9865    7.8149   11.7487 N   0  0  0  0  0  0  0  0  0  0  0  0
   45.6947    6.6436   12.2115 C   0  0  0  0  0  0  0  0  0  0  0  0
   45.2850    5.4032   11.4661 C   0  0  0  0  0  0  0  0  0  0  0  0
   45.2456    5.3765   10.0618 C   0  0  0  0  0  0  0  0  0  0  0  0
   44.8868    4.2071    9.3883 C   0  0  0  0  0  0  0  0  0  0  0  0
   44.5787    3.0617   10.1146 C   0  0  0  0  0  0  0  0  0  0  0  0
   44.6251    3.0594   11.5007 C   0  0  0  0  0  0  0  0  0  0  0  0
   44.9821    4.2281   12.1638 C   0  0  0  0  0  0  0  0  0  0  0  0
   44.2383    1.9414    9.4642 F   0  0  0  0  0  0  0  0  0  0  0  0
   45.0358    4.2134   13.5034 F   0  0  0  0  0  0  0  0  0  0  0  0
   42.7666    8.8554   10.7322 O   0  0  0  0  0  0  0  0  0  0  0  0
   41.1937   10.9921    9.9230 O   0  0  0  0  0  0  0  0  0  0  0  0
   41.0598   13.5218    9.8691 O   0  0  0  0  0  0  0  0  0  0  0  0
   41.7258   16.8681    9.8543 C   0  0  0  0  0  0  0  0  0  0  0  0
   45.7963   11.6612   12.4230 H   0  0  0  0  0  0  0  0  0  0  0  0
   44.0648   15.9521   11.8389 H   0  0  0  0  0  0  0  0  0  0  0  0
   45.3369   13.9269   12.6902 H   0  0  0  0  0  0  0  0  0  0  0  0
   45.2700   14.1653   10.9310 H   0  0  0  0  0  0  0  0  0  0  0  0
   40.5083   15.5677   11.0325 H   0  0  0  0  0  0  0  0  0  0  0  0
   40.7353   17.3564   12.5661 H   0  0  0  0  0  0  0  0  0  0  0  0
   42.4738   17.4946   12.3139 H   0  0  0  0  0  0  0  0  0  0  0  0
   42.0726   16.3661   14.4646 H   0  0  0  0  0  0  0  0  0  0  0  0
   41.0546   15.1547   13.6890 H   0  0  0  0  0  0  0  0  0  0  0  0
   44.0422    7.6989   11.3763 H   0  0  0  0  0  0  0  0  0  0  0  0
   46.7739    6.7996   12.0997 H   0  0  0  0  0  0  0  0  0  0  0  0
   45.4837    6.5531   13.2829 H   0  0  0  0  0  0  0  0  0  0  0  0
   45.4914    6.2687    9.4885 H   0  0  0  0  0  0  0  0  0  0  0  0
   44.8466    4.1829    8.3034 H   0  0  0  0  0  0  0  0  0  0  0  0
   44.3893    2.1608   12.0578 H   0  0  0  0  0  0  0  0  0  0  0  0
   40.7990   11.8645    9.7031 H   0  0  0  0  0  0  0  0  0  0  0  0
   42.7362   17.2910    9.8318 H   0  0  0  0  0  0  0  0  0  0  0  0
   41.0081   17.6949    9.8515 H   0  0  0  0  0  0  0  0  0  0  0  0
   41.5892   16.2961    8.9303 H   0  0  0  0  0  0  0  0  0  0  0  0
  1  2  1  0
  2  3  1  0
  3  4  2  0
  5  6  1  0
  6  1  2  0
  4  7  1  0
  5  4  1  0
 10  5  1  0
  7  8  1  0
  9 10  1  0
  8 11  1  0
  9  8  1  0
 14  9  1  0
 11 12  1  0
 12 13  1  0
 13 14  1  0
  1 15  1  0
 15 16  2  0
 15 17  1  0
 17 18  1  0
 18 19  1  0
 19 20  2  0
 19 24  1  0
 20 21  1  0
 21 22  2  0
 22 23  1  0
 23 24  2  0
 22 25  1  0
 24 26  1  0
  2 27  2  0
  3 28  1  0
  7 29  2  0
 11 30  1  0
  6 31  1  0
  9 32  1  1
 10 33  1  0
 10 34  1  0
 11 35  1  6
 12 36  1  0
 12 37  1  0
 13 38  1  0
 13 39  1  0
 17 40  1  0
 18 41  1  0
 18 42  1  0
 20 43  1  0
 21 44  1  0
 23 45  1  0
 28 46  1  0
 30 47  1  0
 30 48  1  0
 30 49  1  0
M  END
> <Uni-Dock RESULT> 
ENERGY=   -4.834  LOWER_BOUND=    0.193  UPPER_BOUND=    0.193
INTER + INTRA:          -4.834
INTER:                  -4.834
INTRA:                   0.000
UNBOUND:                 0.000

$$$$

     RDKit          3D

 49 52  0  0  0  0  0  0  0  0999 V2000
   44.7224    9.8743   11.5957 C   0  0  0  0  0  0  0  0  0  0  0  0
   43.5840    9.8664   10.6397 C   0  0  0  0  0  0  0  0  0  0  0  0
   43.0272   11.1870   10.1792 C   0  0  0  0  0  0  0  0  0  0  0  0
   43.5714   12.3146   10.6955 C   0  0  0  0  0  0  0  0  0  0  0  0
   44.6206   12.2959   11.6252 N   0  0  0  0  0  0  0  0  0  0  0  0
   45.1559   11.0746   12.0106 C   0  0  0  0  0  0  0  0  0  0  0  0
   42.9799   13.6390   10.2513 C   0  0  0  0  0  0  0  0  0  0  0  0
   43.3938   14.7827   10.9129 N   0  0  0  0  0  0  0  0  0  0  0  0
   44.2817   14.7294   12.0533 C   0  0  2  0  0  0  0  0  0  0  0  0
   45.2702   13.5536   12.0308 C   0  0  0  0  0  0  0  0  0  0  0  0
   42.5942   16.0011   10.7877 C   0  0  1  0  0  0  0  0  0  0  0  0
   42.5162   16.7228   12.1391 C   0  0  0  0  0  0  0  0  0  0  0  0
   42.4289   15.6843   13.2546 C   0  0  0  0  0  0  0  0  0  0  0  0
   43.4937   14.7249   13.2435 O   0  0  0  0  0  0  0  0  0  0  0  0
   45.4084    8.6552   12.1084 C   0  0  0  0  0  0  0  0  0  0  0  0
   46.3324    8.7276   12.9148 O   0  0  0  0  0  0  0  0  0  0  0  0
   44.9396    7.4636   11.6224 N   0  0  0  0  0  0  0  0  0  0  0  0
   45.4024    6.1982   12.1441 C   0  0  0  0  0  0  0  0  0  0  0  0
   45.0333    5.0478   11.2484 C   0  0  0  0  0  0  0  0  0  0  0  0
   45.2947    5.0855    9.8684 C   0  0  0  0  0  0  0  0  0  0  0  0
   44.9669    3.9963    9.0583 C   0  0  0  0  0  0  0  0  0  0  0  0
   44.3893    2.8657    9.6260 C   0  0  0  0  0  0  0  0  0  0  0  0
   44.1354    2.7992   10.9879 C   0  0  0  0  0  0  0  0  0  0  0  0
   44.4636    3.8882   11.7874 C   0  0  0  0  0  0  0  0  0  0  0  0
   44.0796    1.8221    8.8456 F   0  0  0  0  0  0  0  0  0  0  0  0
   44.2256    3.8104   13.1046 F   0  0  0  0  0  0  0  0  0  0  0  0
   43.1147    8.8017   10.2356 O   0  0  0  0  0  0  0  0  0  0  0  0
   41.9900   11.1419    9.2595 O   0  0  0  0  0  0  0  0  0  0  0  0
   42.1412   13.6697    9.3474 O   0  0  0  0  0  0  0  0  0  0  0  0
   43.1475   16.9112    9.6954 C   0  0  0  0  0  0  0  0  0  0  0  0
   45.9903   11.1550   12.7061 H   0  0  0  0  0  0  0  0  0  0  0  0
   44.8927   15.6415   12.0600 H   0  0  0  0  0  0  0  0  0  0  0  0
   45.7283   13.4458   13.0217 H   0  0  0  0  0  0  0  0  0  0  0  0
   46.0678   13.7648   11.3073 H   0  0  0  0  0  0  0  0  0  0  0  0
   41.5732   15.7152   10.5035 H   0  0  0  0  0  0  0  0  0  0  0  0
   41.6538   17.3979   12.1663 H   0  0  0  0  0  0  0  0  0  0  0  0
   43.4104   17.3400   12.2933 H   0  0  0  0  0  0  0  0  0  0  0  0
   42.4373   16.1767   14.2323 H   0  0  0  0  0  0  0  0  0  0  0  0
   41.4872   15.1283   13.1819 H   0  0  0  0  0  0  0  0  0  0  0  0
   44.0908    7.4761   11.0538 H   0  0  0  0  0  0  0  0  0  0  0  0
   46.4908    6.2300   12.2712 H   0  0  0  0  0  0  0  0  0  0  0  0
   44.9571    6.0880   13.1391 H   0  0  0  0  0  0  0  0  0  0  0  0
   45.7519    5.9658    9.4200 H   0  0  0  0  0  0  0  0  0  0  0  0
   45.1591    4.0231    7.9899 H   0  0  0  0  0  0  0  0  0  0  0  0
   43.6907    1.9120   11.4222 H   0  0  0  0  0  0  0  0  0  0  0  0
   41.7472   12.0634    9.0205 H   0  0  0  0  0  0  0  0  0  0  0  0
   44.1782   17.2122    9.9131 H   0  0  0  0  0  0  0  0  0  0  0  0
   42.5396   17.8165    9.5977 H   0  0  0  0  0  0  0  0  0  0  0  0
   43.1530   16.3991    8.7272 H   0  0  0  0  0  0  0  0  0  0  0  0
  1  2  1  0
  2  3  1  0
  3  4  2  0
  5  6  1  0
  6  1  2  0
  4  7  1  0
  5  4  1  0
 10  5  1  0
  7  8  1  0
  9 10  1  0
  8 11  1  0
  9  8  1  0
 14  9  1  0
 11 12  1  0
 12 13  1  0
 13 14  1  0
  1 15  1  0
 15 16  2  0
 15 17  1  0
 17 18  1  0
 18 19  1  0
 19 20  2  0
 19 24  1  0
 20 21  1  0
 21 22  2  0
 22 23  1  0
 23 24  2  0
 22 25  1  0
 24 26  1  0
  2 27  2  0
  3 28  1  0
  7 29  2  0
 11 30  1  0
  6 31  1  0
  9 32  1  1
 10 33  1  0
 10 34  1  0
 11 35  1  6
 12 36  1  0
 12 37  1  0
 13 38  1  0
 13 39  1  0
 17 40  1  0
 18 41  1  0
 18 42  1  0
 20 43  1  0
 21 44  1  0
 23 45  1  0
 28 46  1  0
 30 47  1  0
 30 48  1  0
 30 49  1  0
M  END
> <Uni-Dock RESULT> 
ENERGY=   -4.689  LOWER_BOUND=    0.730  UPPER_BOUND=    0.730
INTER + INTRA:          -4.689
INTER:                  -4.689
INTRA:                   0.000
UNBOUND:                 0.000

$$$$

     RDKit          3D

 49 52  0  0  0  0  0  0  0  0999 V2000
   54.3208    6.9397    7.2613 C   0  0  0  0  0  0  0  0  0  0  0  0
   53.4924    6.8451    8.4923 C   0  0  0  0  0  0  0  0  0  0  0  0
   53.9050    5.8661    9.5587 C   0  0  0  0  0  0  0  0  0  0  0  0
   54.9909    5.0933    9.3185 C   0  0  0  0  0  0  0  0  0  0  0  0
   55.7348    5.1744    8.1329 N   0  0  0  0  0  0  0  0  0  0  0  0
   55.3721    6.1103    7.1742 C   0  0  0  0  0  0  0  0  0  0  0  0
   55.3775    4.0859   10.3848 C   0  0  0  0  0  0  0  0  0  0  0  0
   56.3610    3.1630   10.0717 N   0  0  0  0  0  0  0  0  0  0  0  0
   56.9422    3.0811    8.7498 C   0  0  2  0  0  0  0  0  0  0  0  0
   56.9916    4.4193    7.9967 C   0  0  0  0  0  0  0  0  0  0  0  0
   56.4964    1.9648   10.8997 C   0  0  1  0  0  0  0  0  0  0  0  0
   56.7848    0.7433   10.0177 C   0  0  0  0  0  0  0  0  0  0  0  0
   55.9954    0.8698    8.7171 C   0  0  0  0  0  0  0  0  0  0  0  0
   56.2374    2.0891    8.0037 O   0  0  0  0  0  0  0  0  0  0  0  0
   54.0683    7.8869    6.1394 C   0  0  0  0  0  0  0  0  0  0  0  0
   54.7792    7.9022    5.1376 O   0  0  0  0  0  0  0  0  0  0  0  0
   52.9997    8.7277    6.3037 N   0  0  0  0  0  0  0  0  0  0  0  0
   52.5434    9.5897    5.2377 C   0  0  0  0  0  0  0  0  0  0  0  0
   51.6074   10.6571    5.7344 C   0  0  0  0  0  0  0  0  0  0  0  0
   51.9338   11.4533    6.8451 C   0  0  0  0  0  0  0  0  0  0  0  0
   51.0621   12.4560    7.2749 C   0  0  0  0  0  0  0  0  0  0  0  0
   49.8708   12.6719    6.5904 C   0  0  0  0  0  0  0  0  0  0  0  0
   49.5338   11.9088    5.4824 C   0  0  0  0  0  0  0  0  0  0  0  0
   50.4066   10.9117    5.0616 C   0  0  0  0  0  0  0  0  0  0  0  0
   49.0392   13.6369    7.0043 F   0  0  0  0  0  0  0  0  0  0  0  0
   50.0782   10.1869    3.9825 F   0  0  0  0  0  0  0  0  0  0  0  0
   52.4961    7.5557    8.6310 O   0  0  0  0  0  0  0  0  0  0  0  0
   53.1304    5.8309   10.7088 O   0  0  0  0  0  0  0  0  0  0  0  0
   54.8041    4.0904   11.4768 O   0  0  0  0  0  0  0  0  0  0  0  0
   57.5698    2.1535   11.9672 C   0  0  0  0  0  0  0  0  0  0  0  0
   56.0257    6.1299    6.3031 H   0  0  0  0  0  0  0  0  0  0  0  0
   57.9836    2.7482    8.8489 H   0  0  0  0  0  0  0  0  0  0  0  0
   57.2131    4.2321    6.9388 H   0  0  0  0  0  0  0  0  0  0  0  0
   57.7982    5.0379    8.4100 H   0  0  0  0  0  0  0  0  0  0  0  0
   55.5405    1.7890   11.4098 H   0  0  0  0  0  0  0  0  0  0  0  0
   56.5245   -0.1819   10.5436 H   0  0  0  0  0  0  0  0  0  0  0  0
   57.8553    0.6874    9.7830 H   0  0  0  0  0  0  0  0  0  0  0  0
   56.2364    0.0397    8.0453 H   0  0  0  0  0  0  0  0  0  0  0  0
   54.9196    0.8179    8.9203 H   0  0  0  0  0  0  0  0  0  0  0  0
   52.3833    8.5722    7.1035 H   0  0  0  0  0  0  0  0  0  0  0  0
   53.4063   10.0565    4.7487 H   0  0  0  0  0  0  0  0  0  0  0  0
   52.0556    8.9434    4.4995 H   0  0  0  0  0  0  0  0  0  0  0  0
   52.8676   11.2921    7.3809 H   0  0  0  0  0  0  0  0  0  0  0  0
   51.3052   13.0690    8.1376 H   0  0  0  0  0  0  0  0  0  0  0  0
   48.6065   12.0882    4.9519 H   0  0  0  0  0  0  0  0  0  0  0  0
   53.5266    5.1806   11.3296 H   0  0  0  0  0  0  0  0  0  0  0  0
   58.5474    2.3569   11.5165 H   0  0  0  0  0  0  0  0  0  0  0  0
   57.6599    1.2586   12.5914 H   0  0  0  0  0  0  0  0  0  0  0  0
   57.3267    2.9996   12.6189 H   0  0  0  0  0  0  0  0  0  0  0  0
  1  2  1  0
  2  3  1  0
  3  4  2  0
  5  6  1  0
  6  1  2  0
  4  7  1  0
  5  4  1  0
 10  5  1  0
  7  8  1  0
  9 10  1  0
  8 11  1  0
  9  8  1  0
 14  9  1  0
 11 12  1  0
 12 13  1  0
 13 14  1  0
  1 15  1  0
 15 16  2  0
 15 17  1  0
 17 18  1  0
 18 19  1  0
 19 20  2  0
 19 24  1  0
 20 21  1  0
 21 22  2  0
 22 23  1  0
 23 24  2  0
 22 25  1  0
 24 26  1  0
  2 27  2  0
  3 28  1  0
  7 29  2  0
 11 30  1  0
  6 31  1  0
  9 32  1  1
 10 33  1  0
 10 34  1  0
 11 35  1  6
 12 36  1  0
 12 37  1  0
 13 38  1  0
 13 39  1  0
 17 40  1  0
 18 41  1  0
 18 42  1  0
 20 43  1  0
 21 44  1  0
 23 45  1  0
 28 46  1  0
 30 47  1  0
 30 48  1  0
 30 49  1  0
M  END
> <Uni-Dock RESULT> 
ENERGY=   -4.647  LOWER_BOUND=   10.331  UPPER_BOUND=   14.540
INTER + INTRA:          -4.647
INTER:                  -4.647
INTRA:                   0.000
UNBOUND:                 0.000

$$$$

     RDKit          3D

 49 52  0  0  0  0  0  0  0  0999 V2000
   48.3445    9.4772   17.2474 C   0  0  0  0  0  0  0  0  0  0  0  0
   49.1785    9.3697   16.0213 C   0  0  0  0  0  0  0  0  0  0  0  0
   49.5894   10.6379   15.3221 C   0  0  0  0  0  0  0  0  0  0  0  0
   49.1404   11.8107   15.8291 C   0  0  0  0  0  0  0  0  0  0  0  0
   48.3232   11.8846   16.9659 N   0  0  0  0  0  0  0  0  0  0  0  0
   47.9855   10.7127   17.6286 C   0  0  0  0  0  0  0  0  0  0  0  0
   49.5316   13.0803   15.0967 C   0  0  0  0  0  0  0  0  0  0  0  0
   48.9249   14.2617   15.4880 N   0  0  0  0  0  0  0  0  0  0  0  0
   47.8813   14.2924   16.4889 C   0  0  2  0  0  0  0  0  0  0  0  0
   47.9963   13.1933   17.5563 C   0  0  0  0  0  0  0  0  0  0  0  0
   48.9766   15.4151   14.5898 C   0  0  1  0  0  0  0  0  0  0  0  0
   47.6300   16.1496   14.5955 C   0  0  0  0  0  0  0  0  0  0  0  0
   46.5034   15.1248   14.7012 C   0  0  0  0  0  0  0  0  0  0  0  0
   46.6165   14.2474   15.8289 O   0  0  0  0  0  0  0  0  0  0  0  0
   47.8956    8.3207   18.0723 C   0  0  0  0  0  0  0  0  0  0  0  0
   47.1890    8.4742   19.0655 O   0  0  0  0  0  0  0  0  0  0  0  0
   48.3218    7.0901   17.6481 N   0  0  0  0  0  0  0  0  0  0  0  0
   47.8407    5.8710   18.2562 C   0  0  0  0  0  0  0  0  0  0  0  0
   48.6848    4.6825   17.8860 C   0  0  0  0  0  0  0  0  0  0  0  0
   50.0846    4.7184   18.0019 C   0  0  0  0  0  0  0  0  0  0  0  0
   50.8484    3.5955   17.6768 C   0  0  0  0  0  0  0  0  0  0  0  0
   50.2157    2.4338   17.2473 C   0  0  0  0  0  0  0  0  0  0  0  0
   48.8345    2.3695   17.1392 C   0  0  0  0  0  0  0  0  0  0  0  0
   48.0813    3.4922   17.4637 C   0  0  0  0  0  0  0  0  0  0  0  0
   50.9521    1.3581   16.9397 F   0  0  0  0  0  0  0  0  0  0  0  0
   46.7461    3.4171   17.3676 F   0  0  0  0  0  0  0  0  0  0  0  0
   49.5240    8.2669   15.5954 O   0  0  0  0  0  0  0  0  0  0  0  0
   50.3974   10.5014   14.2030 O   0  0  0  0  0  0  0  0  0  0  0  0
   50.3448   13.0344   14.1705 O   0  0  0  0  0  0  0  0  0  0  0  0
   50.1269   16.3470   14.9585 C   0  0  0  0  0  0  0  0  0  0  0  0
   47.3801   10.8659   18.5210 H   0  0  0  0  0  0  0  0  0  0  0  0
   47.9445   15.2475   17.0266 H   0  0  0  0  0  0  0  0  0  0  0  0
   47.0569   13.1353   18.1197 H   0  0  0  0  0  0  0  0  0  0  0  0
   48.7994   13.4523   18.2577 H   0  0  0  0  0  0  0  0  0  0  0  0
   49.1523   15.0495   13.5699 H   0  0  0  0  0  0  0  0  0  0  0  0
   47.5194   16.7589   13.6916 H   0  0  0  0  0  0  0  0  0  0  0  0
   47.5732   16.8341   15.4514 H   0  0  0  0  0  0  0  0  0  0  0  0
   45.5355   15.6315   14.7717 H   0  0  0  0  0  0  0  0  0  0  0  0
   46.4748   14.4991   13.8018 H   0  0  0  0  0  0  0  0  0  0  0  0
   48.8002    7.0305   16.7474 H   0  0  0  0  0  0  0  0  0  0  0  0
   47.8263    5.9858   19.3463 H   0  0  0  0  0  0  0  0  0  0  0  0
   46.8043    5.7432   17.9242 H   0  0  0  0  0  0  0  0  0  0  0  0
   50.5844    5.6234   18.3430 H   0  0  0  0  0  0  0  0  0  0  0  0
   51.9311    3.6200   17.7565 H   0  0  0  0  0  0  0  0  0  0  0  0
   48.3500    1.4584   16.8096 H   0  0  0  0  0  0  0  0  0  0  0  0
   50.6172   11.3984   13.8681 H   0  0  0  0  0  0  0  0  0  0  0  0
   50.0186   16.7273   15.9802 H   0  0  0  0  0  0  0  0  0  0  0  0
   50.1686   17.2028   14.2770 H   0  0  0  0  0  0  0  0  0  0  0  0
   51.0866   15.8218   14.9042 H   0  0  0  0  0  0  0  0  0  0  0  0
  1  2  1  0
  2  3  1  0
  3  4  2  0
  5  6  1  0
  6  1  2  0
  4  7  1  0
  5  4  1  0
 10  5  1  0
  7  8  1  0
  9 10  1  0
  8 11  1  0
  9  8  1  0
 14  9  1  0
 11 12  1  0
 12 13  1  0
 13 14  1  0
  1 15  1  0
 15 16  2  0
 15 17  1  0
 17 18  1  0
 18 19  1  0
 19 20  2  0
 19 24  1  0
 20 21  1  0
 21 22  2  0
 22 23  1  0
 23 24  2  0
 22 25  1  0
 24 26  1  0
  2 27  2  0
  3 28  1  0
  7 29  2  0
 11 30  1  0
  6 31  1  0
  9 32  1  1
 10 33  1  0
 10 34  1  0
 11 35  1  6
 12 36  1  0
 12 37  1  0
 13 38  1  0
 13 39  1  0
 17 40  1  0
 18 41  1  0
 18 42  1  0
 20 43  1  0
 21 44  1  0
 23 45  1  0
 28 46  1  0
 30 47  1  0
 30 48  1  0
 30 49  1  0
M  END
> <Uni-Dock RESULT> 
ENERGY=   -4.504  LOWER_BOUND=    6.708  UPPER_BOUND=    7.828
INTER + INTRA:          -4.504
INTER:                  -4.504
INTRA:                   0.000
UNBOUND:                 0.000

$$$$

     RDKit          3D

 49 52  0  0  0  0  0  0  0  0999 V2000
   47.9017    8.3053   14.1777 C   0  0  0  0  0  0  0  0  0  0  0  0
   48.5064    7.0844   14.7727 C   0  0  0  0  0  0  0  0  0  0  0  0
   49.5556    7.2524   15.8389 C   0  0  0  0  0  0  0  0  0  0  0  0
   49.9210    8.5137   16.1700 C   0  0  0  0  0  0  0  0  0  0  0  0
   49.3629    9.6500   15.5677 N   0  0  0  0  0  0  0  0  0  0  0  0
   48.3653    9.4856   14.6167 C   0  0  0  0  0  0  0  0  0  0  0  0
   51.0039    8.6712   17.2207 C   0  0  0  0  0  0  0  0  0  0  0  0
   51.5204    9.9391   17.4274 N   0  0  0  0  0  0  0  0  0  0  0  0
   51.1270   11.0687   16.6143 C   0  0  2  0  0  0  0  0  0  0  0  0
   49.6892   10.9920   16.0785 C   0  0  0  0  0  0  0  0  0  0  0  0
   52.7944   10.0779   18.1325 C   0  0  1  0  0  0  0  0  0  0  0  0
   53.6473   11.1687   17.4723 C   0  0  0  0  0  0  0  0  0  0  0  0
   53.4417   11.1156   15.9605 C   0  0  0  0  0  0  0  0  0  0  0  0
   52.0710   11.2166   15.5540 O   0  0  0  0  0  0  0  0  0  0  0  0
   46.8251    8.3035   13.1480 C   0  0  0  0  0  0  0  0  0  0  0  0
   46.3804    9.3487   12.6798 O   0  0  0  0  0  0  0  0  0  0  0  0
   46.3736    7.0682   12.7658 N   0  0  0  0  0  0  0  0  0  0  0  0
   45.4456    6.9067   11.6701 C   0  0  0  0  0  0  0  0  0  0  0  0
   44.8244    5.5371   11.6519 C   0  0  0  0  0  0  0  0  0  0  0  0
   44.2524    4.9809   12.8085 C   0  0  0  0  0  0  0  0  0  0  0  0
   43.6582    3.7180   12.7644 C   0  0  0  0  0  0  0  0  0  0  0  0
   43.6242    3.0152   11.5647 C   0  0  0  0  0  0  0  0  0  0  0  0
   44.1687    3.5498   10.4066 C   0  0  0  0  0  0  0  0  0  0  0  0
   44.7596    4.8072   10.4592 C   0  0  0  0  0  0  0  0  0  0  0  0
   43.0503    1.8056   11.5263 F   0  0  0  0  0  0  0  0  0  0  0  0
   45.2729    5.3212    9.3323 F   0  0  0  0  0  0  0  0  0  0  0  0
   48.1505    5.9657   14.4000 O   0  0  0  0  0  0  0  0  0  0  0  0
   50.0711    6.0921   16.3974 O   0  0  0  0  0  0  0  0  0  0  0  0
   51.4134    7.6858   17.8392 O   0  0  0  0  0  0  0  0  0  0  0  0
   52.5734   10.3578   19.6158 C   0  0  0  0  0  0  0  0  0  0  0  0
   47.9630   10.4206   14.2288 H   0  0  0  0  0  0  0  0  0  0  0  0
   51.1741   11.9743   17.2331 H   0  0  0  0  0  0  0  0  0  0  0  0
   49.5549   11.7444   15.2916 H   0  0  0  0  0  0  0  0  0  0  0  0
   48.9874   11.2189   16.8909 H   0  0  0  0  0  0  0  0  0  0  0  0
   53.3409    9.1299   18.0458 H   0  0  0  0  0  0  0  0  0  0  0  0
   54.7048   11.0380   17.7270 H   0  0  0  0  0  0  0  0  0  0  0  0
   53.3499   12.1590   17.8398 H   0  0  0  0  0  0  0  0  0  0  0  0
   53.9919   11.9278   15.4745 H   0  0  0  0  0  0  0  0  0  0  0  0
   53.8337   10.1747   15.5576 H   0  0  0  0  0  0  0  0  0  0  0  0
   46.8756    6.2458   13.1055 H   0  0  0  0  0  0  0  0  0  0  0  0
   44.6583    7.6661   11.7414 H   0  0  0  0  0  0  0  0  0  0  0  0
   46.0094    7.1012   10.7510 H   0  0  0  0  0  0  0  0  0  0  0  0
   44.2714    5.5293   13.7487 H   0  0  0  0  0  0  0  0  0  0  0  0
   43.2219    3.2796   13.6569 H   0  0  0  0  0  0  0  0  0  0  0  0
   44.1323    2.9976    9.4753 H   0  0  0  0  0  0  0  0  0  0  0  0
   50.7139    6.3437   17.0965 H   0  0  0  0  0  0  0  0  0  0  0  0
   52.0090   11.2848   19.7657 H   0  0  0  0  0  0  0  0  0  0  0  0
   53.5293   10.4498   20.1415 H   0  0  0  0  0  0  0  0  0  0  0  0
   52.0041    9.5479   20.0846 H   0  0  0  0  0  0  0  0  0  0  0  0
  1  2  1  0
  2  3  1  0
  3  4  2  0
  5  6  1  0
  6  1  2  0
  4  7  1  0
  5  4  1  0
 10  5  1  0
  7  8  1  0
  9 10  1  0
  8 11  1  0
  9  8  1  0
 14  9  1  0
 11 12  1  0
 12 13  1  0
 13 14  1  0
  1 15  1  0
 15 16  2  0
 15 17  1  0
 17 18  1  0
 18 19  1  0
 19 20  2  0
 19 24  1  0
 20 21  1  0
 21 22  2  0
 22 23  1  0
 23 24  2  0
 22 25  1  0
 24 26  1  0
  2 27  2  0
  3 28  1  0
  7 29  2  0
 11 30  1  0
  6 31  1  0
  9 32  1  1
 10 33  1  0
 10 34  1  0
 11 35  1  6
 12 36  1  0
 12 37  1  0
 13 38  1  0
 13 39  1  0
 17 40  1  0
 18 41  1  0
 18 42  1  0
 20 43  1  0
 21 44  1  0
 23 45  1  0
 28 46  1  0
 30 47  1  0
 30 48  1  0
 30 49  1  0
M  END
> <Uni-Dock RESULT> 
ENERGY=   -4.429  LOWER_BOUND=    5.719  UPPER_BOUND=    8.510
INTER + INTRA:          -4.429
INTER:                  -4.429
INTRA:                   0.000
UNBOUND:                 0.000

$$$$

     RDKit          3D

 49 52  0  0  0  0  0  0  0  0999 V2000
   48.6047    8.6751   12.7804 C   0  0  0  0  0  0  0  0  0  0  0  0
   49.3042    7.8174   11.7878 C   0  0  0  0  0  0  0  0  0  0  0  0
   50.7532    8.0996   11.4933 C   0  0  0  0  0  0  0  0  0  0  0  0
   51.3310    9.1502   12.1230 C   0  0  0  0  0  0  0  0  0  0  0  0
   50.6398    9.9684   13.0277 N   0  0  0  0  0  0  0  0  0  0  0  0
   49.3165    9.6738   13.3252 C   0  0  0  0  0  0  0  0  0  0  0  0
   52.7815    9.4471   11.7930 C   0  0  0  0  0  0  0  0  0  0  0  0
   53.3238   10.6250   12.2782 N   0  0  0  0  0  0  0  0  0  0  0  0
   52.5271   11.5984   12.9921 C   0  0  2  0  0  0  0  0  0  0  0  0
   51.3629   10.9970   13.7941 C   0  0  0  0  0  0  0  0  0  0  0  0
   54.5628   11.1300   11.6870 C   0  0  1  0  0  0  0  0  0  0  0  0
   54.4938   12.6551   11.5384 C   0  0  0  0  0  0  0  0  0  0  0  0
   53.0709   13.0550   11.1563 C   0  0  0  0  0  0  0  0  0  0  0  0
   52.0677   12.5797   12.0630 O   0  0  0  0  0  0  0  0  0  0  0  0
   47.1893    8.4953   13.2093 C   0  0  0  0  0  0  0  0  0  0  0  0
   46.6615    9.2520   14.0206 O   0  0  0  0  0  0  0  0  0  0  0  0
   46.5280    7.4394   12.6404 N   0  0  0  0  0  0  0  0  0  0  0  0
   45.1121    7.2349   12.8427 C   0  0  0  0  0  0  0  0  0  0  0  0
   44.6750    5.8560   12.4310 C   0  0  0  0  0  0  0  0  0  0  0  0
   45.3601    4.7119   12.8734 C   0  0  0  0  0  0  0  0  0  0  0  0
   44.9229    3.4393   12.5000 C   0  0  0  0  0  0  0  0  0  0  0  0
   43.7962    3.3075   11.6953 C   0  0  0  0  0  0  0  0  0  0  0  0
   43.0947    4.4213   11.2586 C   0  0  0  0  0  0  0  0  0  0  0  0
   43.5372    5.6849   11.6337 C   0  0  0  0  0  0  0  0  0  0  0  0
   43.3785    2.0848   11.3424 F   0  0  0  0  0  0  0  0  0  0  0  0
   42.8460    6.7553   11.2167 F   0  0  0  0  0  0  0  0  0  0  0  0
   48.7075    6.8979   11.2261 O   0  0  0  0  0  0  0  0  0  0  0  0
   51.3834    7.2568   10.5899 O   0  0  0  0  0  0  0  0  0  0  0  0
   53.4292    8.6647   11.0932 O   0  0  0  0  0  0  0  0  0  0  0  0
   55.7767   10.6991   12.5045 C   0  0  0  0  0  0  0  0  0  0  0  0
   48.8691   10.3372   14.0643 H   0  0  0  0  0  0  0  0  0  0  0  0
   53.1713   12.1050   13.7227 H   0  0  0  0  0  0  0  0  0  0  0  0
   50.6794   11.7993   14.0981 H   0  0  0  0  0  0  0  0  0  0  0  0
   51.7558   10.5214   14.7015 H   0  0  0  0  0  0  0  0  0  0  0  0
   54.6640   10.7016   10.6814 H   0  0  0  0  0  0  0  0  0  0  0  0
   55.2115   13.0021   10.7868 H   0  0  0  0  0  0  0  0  0  0  0  0
   54.7610   13.1424   12.4847 H   0  0  0  0  0  0  0  0  0  0  0  0
   52.9836   14.1452   11.1079 H   0  0  0  0  0  0  0  0  0  0  0  0
   52.8225   12.6675   10.1616 H   0  0  0  0  0  0  0  0  0  0  0  0
   46.9913    6.9322   11.8842 H   0  0  0  0  0  0  0  0  0  0  0  0
   44.8650    7.3986   13.8981 H   0  0  0  0  0  0  0  0  0  0  0  0
   44.5977    8.0071   12.2598 H   0  0  0  0  0  0  0  0  0  0  0  0
   46.2392    4.8093   13.5080 H   0  0  0  0  0  0  0  0  0  0  0  0
   45.4532    2.5518   12.8321 H   0  0  0  0  0  0  0  0  0  0  0  0
   42.2146    4.3087   10.6370 H   0  0  0  0  0  0  0  0  0  0  0  0
   52.3246    7.5290   10.5167 H   0  0  0  0  0  0  0  0  0  0  0  0
   55.7202   11.0790   13.5305 H   0  0  0  0  0  0  0  0  0  0  0  0
   56.7023   11.0697   12.0523 H   0  0  0  0  0  0  0  0  0  0  0  0
   55.8399    9.6071   12.5623 H   0  0  0  0  0  0  0  0  0  0  0  0
  1  2  1  0
  2  3  1  0
  3  4  2  0
  5  6  1  0
  6  1  2  0
  4  7  1  0
  5  4  1  0
 10  5  1  0
  7  8  1  0
  9 10  1  0
  8 11  1  0
  9  8  1  0
 14  9  1  0
 11 12  1  0
 12 13  1  0
 13 14  1  0
  1 15  1  0
 15 16  2  0
 15 17  1  0
 17 18  1  0
 18 19  1  0
 19 20  2  0
 19 24  1  0
 20 21  1  0
 21 22  2  0
 22 23  1  0
 23 24  2  0
 22 25  1  0
 24 26  1  0
  2 27  2  0
  3 28  1  0
  7 29  2  0
 11 30  1  0
  6 31  1  0
  9 32  1  1
 10 33  1  0
 10 34  1  0
 11 35  1  6
 12 36  1  0
 12 37  1  0
 13 38  1  0
 13 39  1  0
 17 40  1  0
 18 41  1  0
 18 42  1  0
 20 43  1  0
 21 44  1  0
 23 45  1  0
 28 46  1  0
 30 47  1  0
 30 48  1  0
 30 49  1  0
M  END
> <Uni-Dock RESULT> 
ENERGY=   -3.829  LOWER_BOUND=    5.677  UPPER_BOUND=    8.118
INTER + INTRA:          -3.829
INTER:                  -3.829
INTRA:                   0.000
UNBOUND:                 0.000

$$$$

     RDKit          3D

 49 52  0  0  0  0  0  0  0  0999 V2000
   42.6172   10.5772   10.5551 C   0  0  0  0  0  0  0  0  0  0  0  0
   41.2503   10.0971   10.8889 C   0  0  0  0  0  0  0  0  0  0  0  0
   40.0845   11.0086   10.6127 C   0  0  0  0  0  0  0  0  0  0  0  0
   40.3510   12.2375   10.1099 C   0  0  0  0  0  0  0  0  0  0  0  0
   41.6526   12.6821    9.8381 N   0  0  0  0  0  0  0  0  0  0  0  0
   42.7173   11.8186   10.0555 C   0  0  0  0  0  0  0  0  0  0  0  0
   39.1719   13.1608    9.8678 C   0  0  0  0  0  0  0  0  0  0  0  0
   39.4431   14.4782    9.5396 N   0  0  0  0  0  0  0  0  0  0  0  0
   40.7915   15.0010    9.5194 C   0  0  2  0  0  0  0  0  0  0  0  0
   41.8654   13.9664    9.1498 C   0  0  0  0  0  0  0  0  0  0  0  0
   38.3788   15.4732    9.6689 C   0  0  1  0  0  0  0  0  0  0  0  0
   38.9439   16.7798   10.2404 C   0  0  0  0  0  0  0  0  0  0  0  0
   40.0149   16.4487   11.2768 C   0  0  0  0  0  0  0  0  0  0  0  0
   41.0639   15.6059   10.7832 O   0  0  0  0  0  0  0  0  0  0  0  0
   43.8629    9.7786   10.7285 C   0  0  0  0  0  0  0  0  0  0  0  0
   44.9673   10.2406   10.4523 O   0  0  0  0  0  0  0  0  0  0  0  0
   43.6896    8.5091   11.2123 N   0  0  0  0  0  0  0  0  0  0  0  0
   44.8136    7.6771   11.5755 C   0  0  0  0  0  0  0  0  0  0  0  0
   44.4200    6.2350   11.7414 C   0  0  0  0  0  0  0  0  0  0  0  0
   43.6677    5.5674   10.7604 C   0  0  0  0  0  0  0  0  0  0  0  0
   43.3340    4.2211   10.9221 C   0  0  0  0  0  0  0  0  0  0  0  0
   43.7604    3.5379   12.0560 C   0  0  0  0  0  0  0  0  0  0  0  0
   44.5167    4.1714   13.0308 C   0  0  0  0  0  0  0  0  0  0  0  0
   44.8436    5.5123   12.8630 C   0  0  0  0  0  0  0  0  0  0  0  0
   43.4408    2.2458   12.2053 F   0  0  0  0  0  0  0  0  0  0  0  0
   45.5850    6.1133   13.8046 F   0  0  0  0  0  0  0  0  0  0  0  0
   41.0826    8.9785   11.3763 O   0  0  0  0  0  0  0  0  0  0  0  0
   38.8216   10.5138   10.9023 O   0  0  0  0  0  0  0  0  0  0  0  0
   38.0199   12.7377    9.9901 O   0  0  0  0  0  0  0  0  0  0  0  0
   37.6750   15.7011    8.3347 C   0  0  0  0  0  0  0  0  0  0  0  0
   43.6874   12.2322    9.7829 H   0  0  0  0  0  0  0  0  0  0  0  0
   40.8477   15.7858    8.7537 H   0  0  0  0  0  0  0  0  0  0  0  0
   42.8564   14.3704    9.3909 H   0  0  0  0  0  0  0  0  0  0  0  0
   41.8281   13.7756    8.0699 H   0  0  0  0  0  0  0  0  0  0  0  0
   37.6359   15.0920   10.3814 H   0  0  0  0  0  0  0  0  0  0  0  0
   38.1449   17.3837   10.6845 H   0  0  0  0  0  0  0  0  0  0  0  0
   39.3932   17.3822    9.4407 H   0  0  0  0  0  0  0  0  0  0  0  0
   40.4771   17.3678   11.6510 H   0  0  0  0  0  0  0  0  0  0  0  0
   39.5650   15.9407   12.1375 H   0  0  0  0  0  0  0  0  0  0  0  0
   42.7585    8.2399   11.5354 H   0  0  0  0  0  0  0  0  0  0  0  0
   45.5933    7.7591   10.8093 H   0  0  0  0  0  0  0  0  0  0  0  0
   45.2206    8.0891   12.5057 H   0  0  0  0  0  0  0  0  0  0  0  0
   43.3363    6.0960    9.8683 H   0  0  0  0  0  0  0  0  0  0  0  0
   42.7458    3.7022   10.1712 H   0  0  0  0  0  0  0  0  0  0  0  0
   44.8494    3.6296   13.9079 H   0  0  0  0  0  0  0  0  0  0  0  0
   38.1571   11.1902   10.6448 H   0  0  0  0  0  0  0  0  0  0  0  0
   38.3747   16.0616    7.5726 H   0  0  0  0  0  0  0  0  0  0  0  0
   36.8721   16.4381    8.4387 H   0  0  0  0  0  0  0  0  0  0  0  0
   37.2355   14.7697    7.9619 H   0  0  0  0  0  0  0  0  0  0  0  0
  1  2  1  0
  2  3  1  0
  3  4  2  0
  5  6  1  0
  6  1  2  0
  4  7  1  0
  5  4  1  0
 10  5  1  0
  7  8  1  0
  9 10  1  0
  8 11  1  0
  9  8  1  0
 14  9  1  0
 11 12  1  0
 12 13  1  0
 13 14  1  0
  1 15  1  0
 15 16  2  0
 15 17  1  0
 17 18  1  0
 18 19  1  0
 19 20  2  0
 19 24  1  0
 20 21  1  0
 21 22  2  0
 22 23  1  0
 23 24  2  0
 22 25  1  0
 24 26  1  0
  2 27  2  0
  3 28  1  0
  7 29  2  0
 11 30  1  0
  6 31  1  0
  9 32  1  1
 10 33  1  0
 10 34  1  0
 11 35  1  6
 12 36  1  0
 12 37  1  0
 13 38  1  0
 13 39  1  0
 17 40  1  0
 18 41  1  0
 18 42  1  0
 20 43  1  0
 21 44  1  0
 23 45  1  0
 28 46  1  0
 30 47  1  0
 30 48  1  0
 30 49  1  0
M  END
> <Uni-Dock RESULT> 
ENERGY=   -3.706  LOWER_BOUND=    2.220  UPPER_BOUND=    2.705
INTER + INTRA:          -3.706
INTER:                  -3.706
INTRA:                   0.000
UNBOUND:                 0.000

$$$$

     RDKit          3D

 49 52  0  0  0  0  0  0  0  0999 V2000
   51.8523    6.3560   19.4284 C   0  0  0  0  0  0  0  0  0  0  0  0
   50.7764    5.6710   18.6645 C   0  0  0  0  0  0  0  0  0  0  0  0
   51.0029    4.2478   18.2293 C   0  0  0  0  0  0  0  0  0  0  0  0
   52.1969    3.6811   18.5249 C   0  0  0  0  0  0  0  0  0  0  0  0
   53.2113    4.3604   19.2142 N   0  0  0  0  0  0  0  0  0  0  0  0
   52.9766    5.6574   19.6491 C   0  0  0  0  0  0  0  0  0  0  0  0
   52.4279    2.2585   18.0514 C   0  0  0  0  0  0  0  0  0  0  0  0
   53.7050    1.7383   18.1759 N   0  0  0  0  0  0  0  0  0  0  0  0
   54.8154    2.5371   18.6459 C   0  0  2  0  0  0  0  0  0  0  0  0
   54.4240    3.6416   19.6396 C   0  0  0  0  0  0  0  0  0  0  0  0
   54.0616    0.5463   17.4068 C   0  0  1  0  0  0  0  0  0  0  0  0
   55.4893    0.6774   16.8612 C   0  0  0  0  0  0  0  0  0  0  0  0
   55.7392    2.1297   16.4623 C   0  0  0  0  0  0  0  0  0  0  0  0
   55.5011    3.0732   17.5146 O   0  0  0  0  0  0  0  0  0  0  0  0
   51.7612    7.7432   19.9640 C   0  0  0  0  0  0  0  0  0  0  0  0
   52.6951    8.2614   20.5712 O   0  0  0  0  0  0  0  0  0  0  0  0
   50.5766    8.3905   19.7327 N   0  0  0  0  0  0  0  0  0  0  0  0
   50.4010    9.7875   20.0568 C   0  0  0  0  0  0  0  0  0  0  0  0
   48.9525   10.1921   20.0510 C   0  0  0  0  0  0  0  0  0  0  0  0
   47.9848    9.4466   20.7453 C   0  0  0  0  0  0  0  0  0  0  0  0
   46.6489    9.8535   20.7480 C   0  0  0  0  0  0  0  0  0  0  0  0
   46.2804   11.0096   20.0683 C   0  0  0  0  0  0  0  0  0  0  0  0
   47.2200   11.7701   19.3885 C   0  0  0  0  0  0  0  0  0  0  0  0
   48.5478   11.3575   19.3895 C   0  0  0  0  0  0  0  0  0  0  0  0
   44.9986   11.3978   20.0764 F   0  0  0  0  0  0  0  0  0  0  0  0
   49.4512   12.1053   18.7396 F   0  0  0  0  0  0  0  0  0  0  0  0
   49.7265    6.2583   18.4004 O   0  0  0  0  0  0  0  0  0  0  0  0
   49.9638    3.6284   17.5509 O   0  0  0  0  0  0  0  0  0  0  0  0
   51.5019    1.6148   17.5520 O   0  0  0  0  0  0  0  0  0  0  0  0
   53.8936   -0.7179   18.2441 C   0  0  0  0  0  0  0  0  0  0  0  0
   53.8032    6.0951   20.2073 H   0  0  0  0  0  0  0  0  0  0  0  0
   55.5138    1.8797   19.1800 H   0  0  0  0  0  0  0  0  0  0  0  0
   55.2623    4.3396   19.7546 H   0  0  0  0  0  0  0  0  0  0  0  0
   54.2180    3.1913   20.6188 H   0  0  0  0  0  0  0  0  0  0  0  0
   53.3821    0.4748   16.5478 H   0  0  0  0  0  0  0  0  0  0  0  0
   55.6387    0.0072   16.0075 H   0  0  0  0  0  0  0  0  0  0  0  0
   56.2182    0.3860   17.6280 H   0  0  0  0  0  0  0  0  0  0  0  0
   56.7743    2.2586   16.1300 H   0  0  0  0  0  0  0  0  0  0  0  0
   55.0938    2.4081   15.6214 H   0  0  0  0  0  0  0  0  0  0  0  0
   49.8962    7.9434   19.1155 H   0  0  0  0  0  0  0  0  0  0  0  0
   50.8357    9.9928   21.0420 H   0  0  0  0  0  0  0  0  0  0  0  0
   50.9768   10.3553   19.3174 H   0  0  0  0  0  0  0  0  0  0  0  0
   48.2690    8.5441   21.2836 H   0  0  0  0  0  0  0  0  0  0  0  0
   45.8954    9.2769   21.2760 H   0  0  0  0  0  0  0  0  0  0  0  0
   46.9248   12.6724   18.8668 H   0  0  0  0  0  0  0  0  0  0  0  0
   50.2280    2.7020   17.3581 H   0  0  0  0  0  0  0  0  0  0  0  0
   54.5331   -0.6937   19.1334 H   0  0  0  0  0  0  0  0  0  0  0  0
   54.1509   -1.6082   17.6612 H   0  0  0  0  0  0  0  0  0  0  0  0
   52.8588   -0.8234   18.5873 H   0  0  0  0  0  0  0  0  0  0  0  0
  1  2  1  0
  2  3  1  0
  3  4  2  0
  5  6  1  0
  6  1  2  0
  4  7  1  0
  5  4  1  0
 10  5  1  0
  7  8  1  0
  9 10  1  0
  8 11  1  0
  9  8  1  0
 14  9  1  0
 11 12  1  0
 12 13  1  0
 13 14  1  0
  1 15  1  0
 15 16  2  0
 15 17  1  0
 17 18  1  0
 18 19  1  0
 19 20  2  0
 19 24  1  0
 20 21  1  0
 21 22  2  0
 22 23  1  0
 23 24  2  0
 22 25  1  0
 24 26  1  0
  2 27  2  0
  3 28  1  0
  7 29  2  0
 11 30  1  0
  6 31  1  0
  9 32  1  1
 10 33  1  0
 10 34  1  0
 11 35  1  6
 12 36  1  0
 12 37  1  0
 13 38  1  0
 13 39  1  0
 17 40  1  0
 18 41  1  0
 18 42  1  0
 20 43  1  0
 21 44  1  0
 23 45  1  0
 28 46  1  0
 30 47  1  0
 30 48  1  0
 30 49  1  0
M  END
> <Uni-Dock RESULT> 
ENERGY=   -3.552  LOWER_BOUND=   10.402  UPPER_BOUND=   14.822
INTER + INTRA:          -3.552
INTER:                  -3.552
INTRA:                   0.000
UNBOUND:                 0.000

$$$$
