
     RDKit          3D

 49 52  0  0  0  0  0  0  0  0999 V2000
   46.2394    5.8342   12.8717 C   0  0  0  0  0  0  0  0  0  0  0  0
   46.1066    7.2345   12.3842 C   0  0  0  0  0  0  0  0  0  0  0  0
   46.8524    8.3200   13.1151 C   0  0  0  0  0  0  0  0  0  0  0  0
   47.6927    7.9433   14.1071 C   0  0  0  0  0  0  0  0  0  0  0  0
   47.8678    6.6057   14.4900 N   0  0  0  0  0  0  0  0  0  0  0  0
   47.1028    5.6229   13.8786 C   0  0  0  0  0  0  0  0  0  0  0  0
   48.5064    9.0286   14.7877 C   0  0  0  0  0  0  0  0  0  0  0  0
   49.6017    8.6297   15.5463 N   0  0  0  0  0  0  0  0  0  0  0  0
   49.9707    7.2215   15.6369 C   0  0  2  0  0  0  0  0  0  0  0  0
   48.7501    6.2857   15.6170 C   0  0  0  0  0  0  0  0  0  0  0  0
   50.6034    9.6420   15.9015 C   0  0  1  0  0  0  0  0  0  0  0  0
   51.5947    9.1237   16.9438 C   0  0  0  0  0  0  0  0  0  0  0  0
   50.9452    7.9995   17.7137 C   0  0  0  0  0  0  0  0  0  0  0  0
   50.7166    6.9117   16.8221 O   0  0  0  0  0  0  0  0  0  0  0  0
   45.5255    4.6644   12.2875 C   0  0  0  0  0  0  0  0  0  0  0  0
   45.7646    3.5183   12.6587 O   0  0  0  0  0  0  0  0  0  0  0  0
   44.6171    4.9637   11.3023 N   0  0  0  0  0  0  0  0  0  0  0  0
   44.0463    3.9419   10.4518 C   0  0  0  0  0  0  0  0  0  0  0  0
   44.9475    3.5974    9.2910 C   0  0  0  0  0  0  0  0  0  0  0  0
   45.6529    4.5829    8.5781 C   0  0  0  0  0  0  0  0  0  0  0  0
   46.4761    4.2257    7.5093 C   0  0  0  0  0  0  0  0  0  0  0  0
   46.5845    2.8907    7.1364 C   0  0  0  0  0  0  0  0  0  0  0  0
   45.8764    1.9033    7.8055 C   0  0  0  0  0  0  0  0  0  0  0  0
   45.0595    2.2659    8.8699 C   0  0  0  0  0  0  0  0  0  0  0  0
   47.3764    2.5554    6.1127 F   0  0  0  0  0  0  0  0  0  0  0  0
   44.3620    1.3063    9.4949 F   0  0  0  0  0  0  0  0  0  0  0  0
   45.4173    7.4891   11.3943 O   0  0  0  0  0  0  0  0  0  0  0  0
   46.6419    9.6217   12.6929 O   0  0  0  0  0  0  0  0  0  0  0  0
   48.2023   10.2127   14.6315 O   0  0  0  0  0  0  0  0  0  0  0  0
   51.3581   10.1623   14.6723 C   0  0  0  0  0  0  0  0  0  0  0  0
   47.2605    4.6222   14.2756 H   0  0  0  0  0  0  0  0  0  0  0  0
   50.6117    7.0006   14.7748 H   0  0  0  0  0  0  0  0  0  0  0  0
   48.1897    6.3716   16.5551 H   0  0  0  0  0  0  0  0  0  0  0  0
   49.1030    5.2489   15.5601 H   0  0  0  0  0  0  0  0  0  0  0  0
   50.0515   10.4863   16.3393 H   0  0  0  0  0  0  0  0  0  0  0  0
   52.4954    8.7358   16.4478 H   0  0  0  0  0  0  0  0  0  0  0  0
   51.9108    9.9365   17.6091 H   0  0  0  0  0  0  0  0  0  0  0  0
   49.9996    8.3016   18.1870 H   0  0  0  0  0  0  0  0  0  0  0  0
   51.6153    7.6509   18.5110 H   0  0  0  0  0  0  0  0  0  0  0  0
   44.5537    5.9332   10.9906 H   0  0  0  0  0  0  0  0  0  0  0  0
   43.8439    3.0581   11.0650 H   0  0  0  0  0  0  0  0  0  0  0  0
   43.0935    4.3238   10.0696 H   0  0  0  0  0  0  0  0  0  0  0  0
   45.5736    5.6315    8.8571 H   0  0  0  0  0  0  0  0  0  0  0  0
   47.0298    4.9827    6.9586 H   0  0  0  0  0  0  0  0  0  0  0  0
   45.9561    0.8664    7.5027 H   0  0  0  0  0  0  0  0  0  0  0  0
   47.0996   10.2310   13.3132 H   0  0  0  0  0  0  0  0  0  0  0  0
   51.8668    9.3471   14.1475 H   0  0  0  0  0  0  0  0  0  0  0  0
   52.1104   10.9019   14.9585 H   0  0  0  0  0  0  0  0  0  0  0  0
   50.6830   10.6401   13.9577 H   0  0  0  0  0  0  0  0  0  0  0  0
  1  2  1  0
  2  3  1  0
  3  4  2  0
  5  6  1  0
  6  1  2  0
  4  7  1  0
  5  4  1  0
 10  5  1  0
  7  8  1  0
  9 10  1  0
  8 11  1  0
  9  8  1  0
 14  9  1  0
 11 12  1  0
 12 13  1  0
 13 14  1  0
  1 15  1  0
 15 16  2  0
 15 17  1  0
 17 18  1  0
 18 19  1  0
 19 20  2  0
 19 24  1  0
 20 21  1  0
 21 22  2  0
 22 23  1  0
 23 24  2  0
 22 25  1  0
 24 26  1  0
  2 27  2  0
  3 28  1  0
  7 29  2  0
 11 30  1  0
  6 31  1  0
  9 32  1  6
 10 33  1  0
 10 34  1  0
 11 35  1  6
 12 36  1  0
 12 37  1  0
 13 38  1  0
 13 39  1  0
 17 40  1  0
 18 41  1  0
 18 42  1  0
 20 43  1  0
 21 44  1  0
 23 45  1  0
 28 46  1  0
 30 47  1  0
 30 48  1  0
 30 49  1  0
M  END
> <Uni-Dock RESULT> 
ENERGY=   -6.127  LOWER_BOUND=    0.000  UPPER_BOUND=    0.000
INTER + INTRA:          -6.127
INTER:                  -6.127
INTRA:                   0.000
UNBOUND:                 0.000

$$$$

     RDKit          3D

 49 52  0  0  0  0  0  0  0  0999 V2000
   46.2742    5.7570   13.0584 C   0  0  0  0  0  0  0  0  0  0  0  0
   46.1385    7.1700   12.6100 C   0  0  0  0  0  0  0  0  0  0  0  0
   46.9098    8.2320   13.3488 C   0  0  0  0  0  0  0  0  0  0  0  0
   47.7725    7.8252   14.3092 C   0  0  0  0  0  0  0  0  0  0  0  0
   47.9482    6.4772   14.6536 N   0  0  0  0  0  0  0  0  0  0  0  0
   47.1614    5.5149   14.0373 C   0  0  0  0  0  0  0  0  0  0  0  0
   48.6105    8.8879   14.9960 C   0  0  0  0  0  0  0  0  0  0  0  0
   49.7219    8.4633   15.7160 N   0  0  0  0  0  0  0  0  0  0  0  0
   50.0837    7.0510   15.7615 C   0  0  2  0  0  0  0  0  0  0  0  0
   48.8568    6.1234   15.7492 C   0  0  0  0  0  0  0  0  0  0  0  0
   50.7391    9.4601   16.0709 C   0  0  1  0  0  0  0  0  0  0  0  0
   51.7530    8.9095   17.0741 C   0  0  0  0  0  0  0  0  0  0  0  0
   51.1158    7.7701   17.8318 C   0  0  0  0  0  0  0  0  0  0  0  0
   50.8573    6.7067   16.9191 O   0  0  0  0  0  0  0  0  0  0  0  0
   45.5378    4.6068   12.4634 C   0  0  0  0  0  0  0  0  0  0  0  0
   45.7786    3.4501   12.7992 O   0  0  0  0  0  0  0  0  0  0  0  0
   44.6068    4.9365   11.5095 N   0  0  0  0  0  0  0  0  0  0  0  0
   44.0078    3.9401   10.6484 C   0  0  0  0  0  0  0  0  0  0  0  0
   44.8769    3.6197    9.4566 C   0  0  0  0  0  0  0  0  0  0  0  0
   45.5706    4.6187    8.7510 C   0  0  0  0  0  0  0  0  0  0  0  0
   46.3639    4.2838    7.6528 C   0  0  0  0  0  0  0  0  0  0  0  0
   46.4539    2.9581    7.2437 C   0  0  0  0  0  0  0  0  0  0  0  0
   45.7564    1.9583    7.9056 C   0  0  0  0  0  0  0  0  0  0  0  0
   44.9692    2.2987    8.9992 C   0  0  0  0  0  0  0  0  0  0  0  0
   47.2173    2.6442    6.1919 F   0  0  0  0  0  0  0  0  0  0  0  0
   44.2815    1.3278    9.6175 F   0  0  0  0  0  0  0  0  0  0  0  0
   45.4260    7.4538   11.6448 O   0  0  0  0  0  0  0  0  0  0  0  0
   46.6974    9.5453   12.9651 O   0  0  0  0  0  0  0  0  0  0  0  0
   48.3104   10.0774   14.8775 O   0  0  0  0  0  0  0  0  0  0  0  0
   51.4658   10.0069   14.8363 C   0  0  0  0  0  0  0  0  0  0  0  0
   47.3225    4.5036   14.4048 H   0  0  0  0  0  0  0  0  0  0  0  0
   50.7011    6.8482   14.8780 H   0  0  0  0  0  0  0  0  0  0  0  0
   48.3209    6.1888   16.7032 H   0  0  0  0  0  0  0  0  0  0  0  0
   49.2011    5.0863   15.6572 H   0  0  0  0  0  0  0  0  0  0  0  0
   50.2041   10.2964   16.5438 H   0  0  0  0  0  0  0  0  0  0  0  0
   52.6382    8.5289   16.5457 H   0  0  0  0  0  0  0  0  0  0  0  0
   52.0913    9.7032   17.7515 H   0  0  0  0  0  0  0  0  0  0  0  0
   50.1846    8.0657   18.3365 H   0  0  0  0  0  0  0  0  0  0  0  0
   51.8035    7.3973   18.6027 H   0  0  0  0  0  0  0  0  0  0  0  0
   44.5420    5.9139   11.2241 H   0  0  0  0  0  0  0  0  0  0  0  0
   43.8151    3.0422   11.2440 H   0  0  0  0  0  0  0  0  0  0  0  0
   43.0482    4.3373   10.3004 H   0  0  0  0  0  0  0  0  0  0  0  0
   45.5054    5.6603    9.0583 H   0  0  0  0  0  0  0  0  0  0  0  0
   46.9086    5.0512    7.1075 H   0  0  0  0  0  0  0  0  0  0  0  0
   45.8214    0.9290    7.5747 H   0  0  0  0  0  0  0  0  0  0  0  0
   47.1747   10.1359   13.5887 H   0  0  0  0  0  0  0  0  0  0  0  0
   51.9555    9.2023   14.2784 H   0  0  0  0  0  0  0  0  0  0  0  0
   52.2300   10.7344   15.1219 H   0  0  0  0  0  0  0  0  0  0  0  0
   50.7760   10.5067   14.1515 H   0  0  0  0  0  0  0  0  0  0  0  0
  1  2  1  0
  2  3  1  0
  3  4  2  0
  5  6  1  0
  6  1  2  0
  4  7  1  0
  5  4  1  0
 10  5  1  0
  7  8  1  0
  9 10  1  0
  8 11  1  0
  9  8  1  0
 14  9  1  0
 11 12  1  0
 12 13  1  0
 13 14  1  0
  1 15  1  0
 15 16  2  0
 15 17  1  0
 17 18  1  0
 18 19  1  0
 19 20  2  0
 19 24  1  0
 20 21  1  0
 21 22  2  0
 22 23  1  0
 23 24  2  0
 22 25  1  0
 24 26  1  0
  2 27  2  0
  3 28  1  0
  7 29  2  0
 11 30  1  0
  6 31  1  0
  9 32  1  6
 10 33  1  0
 10 34  1  0
 11 35  1  6
 12 36  1  0
 12 37  1  0
 13 38  1  0
 13 39  1  0
 17 40  1  0
 18 41  1  0
 18 42  1  0
 20 43  1  0
 21 44  1  0
 23 45  1  0
 28 46  1  0
 30 47  1  0
 30 48  1  0
 30 49  1  0
M  END
> <Uni-Dock RESULT> 
ENERGY=   -6.071  LOWER_BOUND=    0.231  UPPER_BOUND=    0.231
INTER + INTRA:          -6.071
INTER:                  -6.071
INTRA:                   0.000
UNBOUND:                 0.000

$$$$

     RDKit          3D

 49 52  0  0  0  0  0  0  0  0999 V2000
   45.8055    7.8242   12.8410 C   0  0  0  0  0  0  0  0  0  0  0  0
   45.3870    8.9184   11.9225 C   0  0  0  0  0  0  0  0  0  0  0  0
   46.1670   10.2068   11.9430 C   0  0  0  0  0  0  0  0  0  0  0  0
   47.2765   10.2546   12.7167 C   0  0  0  0  0  0  0  0  0  0  0  0
   47.7007    9.1769   13.5073 N   0  0  0  0  0  0  0  0  0  0  0  0
   46.9218    8.0300   13.5590 C   0  0  0  0  0  0  0  0  0  0  0  0
   48.1084   11.5233   12.6734 C   0  0  0  0  0  0  0  0  0  0  0  0
   49.4033   11.4597   13.1767 N   0  0  0  0  0  0  0  0  0  0  0  0
   49.9446   10.2025   13.6806 C   0  0  2  0  0  0  0  0  0  0  0  0
   48.8794    9.3303   14.3665 C   0  0  0  0  0  0  0  0  0  0  0  0
   50.3382   12.5336   12.8201 C   0  0  1  0  0  0  0  0  0  0  0  0
   51.6220   12.4716   13.6481 C   0  0  0  0  0  0  0  0  0  0  0  0
   51.3333   11.7397   14.9363 C   0  0  0  0  0  0  0  0  0  0  0  0
   51.0067   10.3877   14.6266 O   0  0  0  0  0  0  0  0  0  0  0  0
   45.1044    6.5163   12.9724 C   0  0  0  0  0  0  0  0  0  0  0  0
   45.5645    5.6101   13.6621 O   0  0  0  0  0  0  0  0  0  0  0  0
   43.9405    6.3997   12.2533 N   0  0  0  0  0  0  0  0  0  0  0  0
   43.2893    5.1233   12.0533 C   0  0  0  0  0  0  0  0  0  0  0  0
   43.8874    4.3523   10.9017 C   0  0  0  0  0  0  0  0  0  0  0  0
   44.2608    4.9795    9.7000 C   0  0  0  0  0  0  0  0  0  0  0  0
   44.8098    4.2328    8.6565 C   0  0  0  0  0  0  0  0  0  0  0  0
   44.9711    2.8593    8.7998 C   0  0  0  0  0  0  0  0  0  0  0  0
   44.5838    2.2132    9.9645 C   0  0  0  0  0  0  0  0  0  0  0  0
   44.0391    2.9630   11.0001 C   0  0  0  0  0  0  0  0  0  0  0  0
   45.4995    2.1505    7.7968 F   0  0  0  0  0  0  0  0  0  0  0  0
   43.6472    2.3251   12.1125 F   0  0  0  0  0  0  0  0  0  0  0  0
   44.4370    8.7597   11.1531 O   0  0  0  0  0  0  0  0  0  0  0  0
   45.7028   11.2358   11.1414 O   0  0  0  0  0  0  0  0  0  0  0  0
   47.6380   12.5488   12.1773 O   0  0  0  0  0  0  0  0  0  0  0  0
   50.6772   12.5299   11.3247 C   0  0  0  0  0  0  0  0  0  0  0  0
   47.2938    7.2674   14.2401 H   0  0  0  0  0  0  0  0  0  0  0  0
   50.3576    9.6619   12.8203 H   0  0  0  0  0  0  0  0  0  0  0  0
   48.5793    9.7770   15.3215 H   0  0  0  0  0  0  0  0  0  0  0  0
   49.3232    8.3563   14.6055 H   0  0  0  0  0  0  0  0  0  0  0  0
   49.8263   13.4801   13.0463 H   0  0  0  0  0  0  0  0  0  0  0  0
   52.3994   11.9229   13.0985 H   0  0  0  0  0  0  0  0  0  0  0  0
   52.0050   13.4820   13.8371 H   0  0  0  0  0  0  0  0  0  0  0  0
   50.5169   12.2005   15.5112 H   0  0  0  0  0  0  0  0  0  0  0  0
   52.2254   11.7360   15.5770 H   0  0  0  0  0  0  0  0  0  0  0  0
   43.6850    7.1675   11.6319 H   0  0  0  0  0  0  0  0  0  0  0  0
   43.3597    4.5520   12.9843 H   0  0  0  0  0  0  0  0  0  0  0  0
   42.2318    5.3202   11.8468 H   0  0  0  0  0  0  0  0  0  0  0  0
   44.1360    6.0529    9.5735 H   0  0  0  0  0  0  0  0  0  0  0  0
   45.1071    4.7135    7.7272 H   0  0  0  0  0  0  0  0  0  0  0  0
   44.7013    1.1412   10.0654 H   0  0  0  0  0  0  0  0  0  0  0  0
   46.2332   12.0421   11.3266 H   0  0  0  0  0  0  0  0  0  0  0  0
   51.1214   11.5757   11.0233 H   0  0  0  0  0  0  0  0  0  0  0  0
   51.3868   13.3251   11.0819 H   0  0  0  0  0  0  0  0  0  0  0  0
   49.7870   12.6848   10.7096 H   0  0  0  0  0  0  0  0  0  0  0  0
  1  2  1  0
  2  3  1  0
  3  4  2  0
  5  6  1  0
  6  1  2  0
  4  7  1  0
  5  4  1  0
 10  5  1  0
  7  8  1  0
  9 10  1  0
  8 11  1  0
  9  8  1  0
 14  9  1  0
 11 12  1  0
 12 13  1  0
 13 14  1  0
  1 15  1  0
 15 16  2  0
 15 17  1  0
 17 18  1  0
 18 19  1  0
 19 20  2  0
 19 24  1  0
 20 21  1  0
 21 22  2  0
 22 23  1  0
 23 24  2  0
 22 25  1  0
 24 26  1  0
  2 27  2  0
  3 28  1  0
  7 29  2  0
 11 30  1  0
  6 31  1  0
  9 32  1  6
 10 33  1  0
 10 34  1  0
 11 35  1  6
 12 36  1  0
 12 37  1  0
 13 38  1  0
 13 39  1  0
 17 40  1  0
 18 41  1  0
 18 42  1  0
 20 43  1  0
 21 44  1  0
 23 45  1  0
 28 46  1  0
 30 47  1  0
 30 48  1  0
 30 49  1  0
M  END
> <Uni-Dock RESULT> 
ENERGY=   -5.159  LOWER_BOUND=    2.248  UPPER_BOUND=    2.947
INTER + INTRA:          -5.159
INTER:                  -5.159
INTRA:                   0.000
UNBOUND:                 0.000

$$$$

     RDKit          3D

 49 52  0  0  0  0  0  0  0  0999 V2000
   48.5769    5.5071   16.5342 C   0  0  0  0  0  0  0  0  0  0  0  0
   48.9102    6.7800   15.8380 C   0  0  0  0  0  0  0  0  0  0  0  0
   48.4052    6.9803   14.4332 C   0  0  0  0  0  0  0  0  0  0  0  0
   47.5794    6.0363   13.9243 C   0  0  0  0  0  0  0  0  0  0  0  0
   47.2082    4.8859   14.6351 N   0  0  0  0  0  0  0  0  0  0  0  0
   47.7571    4.6609   15.8893 C   0  0  0  0  0  0  0  0  0  0  0  0
   47.0042    6.2787   12.5410 C   0  0  0  0  0  0  0  0  0  0  0  0
   45.9089    5.5123   12.1575 N   0  0  0  0  0  0  0  0  0  0  0  0
   45.3162    4.5488   13.0783 C   0  0  2  0  0  0  0  0  0  0  0  0
   46.3593    3.8793   13.9892 C   0  0  0  0  0  0  0  0  0  0  0  0
   45.1156    5.9647   11.0085 C   0  0  1  0  0  0  0  0  0  0  0  0
   44.1208    4.8996   10.5462 C   0  0  0  0  0  0  0  0  0  0  0  0
   44.6216    3.5451   10.9858 C   0  0  0  0  0  0  0  0  0  0  0  0
   44.6071    3.4964   12.4099 O   0  0  0  0  0  0  0  0  0  0  0  0
   49.0460    5.1428   17.9004 C   0  0  0  0  0  0  0  0  0  0  0  0
   48.6431    4.1299   18.4664 O   0  0  0  0  0  0  0  0  0  0  0  0
   49.9262    6.0271   18.4737 N   0  0  0  0  0  0  0  0  0  0  0  0
   50.2621    5.9693   19.8797 C   0  0  0  0  0  0  0  0  0  0  0  0
   49.2430    6.6776   20.7390 C   0  0  0  0  0  0  0  0  0  0  0  0
   48.6678    7.9019   20.3553 C   0  0  0  0  0  0  0  0  0  0  0  0
   47.7293    8.5276   21.1771 C   0  0  0  0  0  0  0  0  0  0  0  0
   47.3754    7.9462   22.3894 C   0  0  0  0  0  0  0  0  0  0  0  0
   47.9501    6.7536   22.8034 C   0  0  0  0  0  0  0  0  0  0  0  0
   48.8830    6.1352   21.9795 C   0  0  0  0  0  0  0  0  0  0  0  0
   46.4743    8.5503   23.1709 F   0  0  0  0  0  0  0  0  0  0  0  0
   49.4491    4.9947   22.3998 F   0  0  0  0  0  0  0  0  0  0  0  0
   49.5671    7.6521   16.4105 O   0  0  0  0  0  0  0  0  0  0  0  0
   48.8026    8.1349   13.7806 O   0  0  0  0  0  0  0  0  0  0  0  0
   47.4914    7.1498   11.8179 O   0  0  0  0  0  0  0  0  0  0  0  0
   44.3808    7.2793   11.2971 C   0  0  0  0  0  0  0  0  0  0  0  0
   47.4602    3.7183   16.3445 H   0  0  0  0  0  0  0  0  0  0  0  0
   44.5931    5.0958   13.6953 H   0  0  0  0  0  0  0  0  0  0  0  0
   46.9855    3.1917   13.4090 H   0  0  0  0  0  0  0  0  0  0  0  0
   45.8352    3.2683   14.7338 H   0  0  0  0  0  0  0  0  0  0  0  0
   45.8279    6.1501   10.1916 H   0  0  0  0  0  0  0  0  0  0  0  0
   43.1379    5.0769   11.0045 H   0  0  0  0  0  0  0  0  0  0  0  0
   43.9887    4.9455    9.4582 H   0  0  0  0  0  0  0  0  0  0  0  0
   45.6328    3.3263   10.6134 H   0  0  0  0  0  0  0  0  0  0  0  0
   43.9554    2.7562   10.6116 H   0  0  0  0  0  0  0  0  0  0  0  0
   50.1305    6.8906   17.9701 H   0  0  0  0  0  0  0  0  0  0  0  0
   50.3529    4.9174   20.1684 H   0  0  0  0  0  0  0  0  0  0  0  0
   51.2386    6.4489   20.0066 H   0  0  0  0  0  0  0  0  0  0  0  0
   48.9391    8.3694   19.4111 H   0  0  0  0  0  0  0  0  0  0  0  0
   47.2756    9.4712   20.8824 H   0  0  0  0  0  0  0  0  0  0  0  0
   47.6788    6.3118   23.7544 H   0  0  0  0  0  0  0  0  0  0  0  0
   48.4943    8.0910   12.8486 H   0  0  0  0  0  0  0  0  0  0  0  0
   43.7102    7.1760   12.1563 H   0  0  0  0  0  0  0  0  0  0  0  0
   43.7828    7.5908   10.4367 H   0  0  0  0  0  0  0  0  0  0  0  0
   45.0788    8.0896   11.5227 H   0  0  0  0  0  0  0  0  0  0  0  0
  1  2  1  0
  2  3  1  0
  3  4  2  0
  5  6  1  0
  6  1  2  0
  4  7  1  0
  5  4  1  0
 10  5  1  0
  7  8  1  0
  9 10  1  0
  8 11  1  0
  9  8  1  0
 14  9  1  0
 11 12  1  0
 12 13  1  0
 13 14  1  0
  1 15  1  0
 15 16  2  0
 15 17  1  0
 17 18  1  0
 18 19  1  0
 19 20  2  0
 19 24  1  0
 20 21  1  0
 21 22  2  0
 22 23  1  0
 23 24  2  0
 22 25  1  0
 24 26  1  0
  2 27  2  0
  3 28  1  0
  7 29  2  0
 11 30  1  0
  6 31  1  0
  9 32  1  6
 10 33  1  0
 10 34  1  0
 11 35  1  6
 12 36  1  0
 12 37  1  0
 13 38  1  0
 13 39  1  0
 17 40  1  0
 18 41  1  0
 18 42  1  0
 20 43  1  0
 21 44  1  0
 23 45  1  0
 28 46  1  0
 30 47  1  0
 30 48  1  0
 30 49  1  0
M  END
> <Uni-Dock RESULT> 
ENERGY=   -4.469  LOWER_BOUND=    4.772  UPPER_BOUND=    9.521
INTER + INTRA:          -4.469
INTER:                  -4.469
INTRA:                   0.000
UNBOUND:                 0.000

$$$$

     RDKit          3D

 49 52  0  0  0  0  0  0  0  0999 V2000
   49.4510    6.5876   16.1605 C   0  0  0  0  0  0  0  0  0  0  0  0
   48.5193    5.4402   16.3379 C   0  0  0  0  0  0  0  0  0  0  0  0
   48.3947    4.8252   17.7071 C   0  0  0  0  0  0  0  0  0  0  0  0
   49.0542    5.4254   18.7253 C   0  0  0  0  0  0  0  0  0  0  0  0
   49.8575    6.5611   18.5479 N   0  0  0  0  0  0  0  0  0  0  0  0
   50.0460    7.0612   17.2676 C   0  0  0  0  0  0  0  0  0  0  0  0
   48.8623    4.8554   20.1187 C   0  0  0  0  0  0  0  0  0  0  0  0
   49.2412    5.6499   21.1954 N   0  0  0  0  0  0  0  0  0  0  0  0
   49.7580    6.9968   20.9805 C   0  0  2  0  0  0  0  0  0  0  0  0
   50.5896    7.1148   19.6918 C   0  0  0  0  0  0  0  0  0  0  0  0
   48.7387    5.2954   22.5281 C   0  0  1  0  0  0  0  0  0  0  0  0
   49.4413    6.0857   23.6324 C   0  0  0  0  0  0  0  0  0  0  0  0
   50.7890    6.5365   23.1237 C   0  0  0  0  0  0  0  0  0  0  0  0
   50.5858    7.4589   22.0567 O   0  0  0  0  0  0  0  0  0  0  0  0
   49.7200    7.2652   14.8614 C   0  0  0  0  0  0  0  0  0  0  0  0
   50.4103    8.2793   14.7994 O   0  0  0  0  0  0  0  0  0  0  0  0
   49.1237    6.6911   13.7658 N   0  0  0  0  0  0  0  0  0  0  0  0
   49.0568    7.3678   12.4888 C   0  0  0  0  0  0  0  0  0  0  0  0
   47.8964    8.3301   12.4134 C   0  0  0  0  0  0  0  0  0  0  0  0
   46.6321    8.0145   12.9416 C   0  0  0  0  0  0  0  0  0  0  0  0
   45.5826    8.9300   12.8519 C   0  0  0  0  0  0  0  0  0  0  0  0
   45.7838   10.1525   12.2211 C   0  0  0  0  0  0  0  0  0  0  0  0
   47.0136   10.4754   11.6668 C   0  0  0  0  0  0  0  0  0  0  0  0
   48.0548    9.5596   11.7608 C   0  0  0  0  0  0  0  0  0  0  0  0
   44.7744   11.0256   12.1405 F   0  0  0  0  0  0  0  0  0  0  0  0
   49.2326    9.8726   11.2017 F   0  0  0  0  0  0  0  0  0  0  0  0
   47.8547    5.0220   15.3875 O   0  0  0  0  0  0  0  0  0  0  0  0
   47.5870    3.7066   17.8230 O   0  0  0  0  0  0  0  0  0  0  0  0
   48.3591    3.7394   20.2613 O   0  0  0  0  0  0  0  0  0  0  0  0
   47.2199    5.4759   22.6383 C   0  0  0  0  0  0  0  0  0  0  0  0
   50.7284    7.9070   17.2142 H   0  0  0  0  0  0  0  0  0  0  0  0
   48.8925    7.6674   20.9167 H   0  0  0  0  0  0  0  0  0  0  0  0
   51.5434    6.5866   19.8050 H   0  0  0  0  0  0  0  0  0  0  0  0
   50.8370    8.1706   19.5286 H   0  0  0  0  0  0  0  0  0  0  0  0
   48.9616    4.2282   22.6715 H   0  0  0  0  0  0  0  0  0  0  0  0
   48.8498    6.9736   23.8958 H   0  0  0  0  0  0  0  0  0  0  0  0
   49.5375    5.4749   24.5385 H   0  0  0  0  0  0  0  0  0  0  0  0
   51.4141    5.6990   22.7814 H   0  0  0  0  0  0  0  0  0  0  0  0
   51.3401    7.0539   23.9205 H   0  0  0  0  0  0  0  0  0  0  0  0
   48.4892    5.9079   13.9239 H   0  0  0  0  0  0  0  0  0  0  0  0
   50.0063    7.8872   12.3249 H   0  0  0  0  0  0  0  0  0  0  0  0
   48.9428    6.6018   11.7141 H   0  0  0  0  0  0  0  0  0  0  0  0
   46.4603    7.0597   13.4341 H   0  0  0  0  0  0  0  0  0  0  0  0
   44.6043    8.6944   13.2649 H   0  0  0  0  0  0  0  0  0  0  0  0
   47.1606   11.4247   11.1664 H   0  0  0  0  0  0  0  0  0  0  0  0
   47.6763    3.3476   18.7334 H   0  0  0  0  0  0  0  0  0  0  0  0
   46.9293    6.5101   22.4271 H   0  0  0  0  0  0  0  0  0  0  0  0
   46.8672    5.2235   23.6417 H   0  0  0  0  0  0  0  0  0  0  0  0
   46.6860    4.8355   21.9316 H   0  0  0  0  0  0  0  0  0  0  0  0
  1  2  1  0
  2  3  1  0
  3  4  2  0
  5  6  1  0
  6  1  2  0
  4  7  1  0
  5  4  1  0
 10  5  1  0
  7  8  1  0
  9 10  1  0
  8 11  1  0
  9  8  1  0
 14  9  1  0
 11 12  1  0
 12 13  1  0
 13 14  1  0
  1 15  1  0
 15 16  2  0
 15 17  1  0
 17 18  1  0
 18 19  1  0
 19 20  2  0
 19 24  1  0
 20 21  1  0
 21 22  2  0
 22 23  1  0
 23 24  2  0
 22 25  1  0
 24 26  1  0
  2 27  2  0
  3 28  1  0
  7 29  2  0
 11 30  1  0
  6 31  1  0
  9 32  1  6
 10 33  1  0
 10 34  1  0
 11 35  1  6
 12 36  1  0
 12 37  1  0
 13 38  1  0
 13 39  1  0
 17 40  1  0
 18 41  1  0
 18 42  1  0
 20 43  1  0
 21 44  1  0
 23 45  1  0
 28 46  1  0
 30 47  1  0
 30 48  1  0
 30 49  1  0
M  END
> <Uni-Dock RESULT> 
ENERGY=   -3.978  LOWER_BOUND=    4.717  UPPER_BOUND=    6.998
INTER + INTRA:          -3.978
INTER:                  -3.978
INTRA:                   0.000
UNBOUND:                 0.000

$$$$

     RDKit          3D

 49 52  0  0  0  0  0  0  0  0999 V2000
   49.9619    9.4730   11.8960 C   0  0  0  0  0  0  0  0  0  0  0  0
   49.1740    8.2325   12.1338 C   0  0  0  0  0  0  0  0  0  0  0  0
   47.6847    8.3563   12.3218 C   0  0  0  0  0  0  0  0  0  0  0  0
   47.1317    9.5797   12.1505 C   0  0  0  0  0  0  0  0  0  0  0  0
   47.8863   10.7198   11.8388 N   0  0  0  0  0  0  0  0  0  0  0  0
   49.2679   10.6156   11.7658 C   0  0  0  0  0  0  0  0  0  0  0  0
   45.6217    9.6888   12.2578 C   0  0  0  0  0  0  0  0  0  0  0  0
   45.0232   10.8375   11.7515 N   0  0  0  0  0  0  0  0  0  0  0  0
   45.8240   11.8690   11.1018 C   0  0  2  0  0  0  0  0  0  0  0  0
   47.2191   12.0215   11.7313 C   0  0  0  0  0  0  0  0  0  0  0  0
   43.5764   10.8133   11.5054 C   0  0  1  0  0  0  0  0  0  0  0  0
   43.0244   12.2075   11.2067 C   0  0  0  0  0  0  0  0  0  0  0  0
   43.9523   13.2353   11.8075 C   0  0  0  0  0  0  0  0  0  0  0  0
   45.2062   13.1630   11.1345 O   0  0  0  0  0  0  0  0  0  0  0  0
   51.4432    9.5176   11.7440 C   0  0  0  0  0  0  0  0  0  0  0  0
   52.0238   10.5548   11.4346 O   0  0  0  0  0  0  0  0  0  0  0  0
   52.0899    8.3235   11.9473 N   0  0  0  0  0  0  0  0  0  0  0  0
   53.4751    8.1309   11.5767 C   0  0  0  0  0  0  0  0  0  0  0  0
   53.6314    7.7810   10.1168 C   0  0  0  0  0  0  0  0  0  0  0  0
   52.7540    6.8962    9.4652 C   0  0  0  0  0  0  0  0  0  0  0  0
   52.9312    6.5959    8.1139 C   0  0  0  0  0  0  0  0  0  0  0  0
   53.9914    7.1604    7.4137 C   0  0  0  0  0  0  0  0  0  0  0  0
   54.8873    8.0133    8.0412 C   0  0  0  0  0  0  0  0  0  0  0  0
   54.7041    8.3092    9.3868 C   0  0  0  0  0  0  0  0  0  0  0  0
   54.1541    6.8697    6.1188 F   0  0  0  0  0  0  0  0  0  0  0  0
   55.5891    9.1167    9.9890 F   0  0  0  0  0  0  0  0  0  0  0  0
   49.7308    7.1329   12.1554 O   0  0  0  0  0  0  0  0  0  0  0  0
   46.9908    7.1976   12.6266 O   0  0  0  0  0  0  0  0  0  0  0  0
   44.9734    8.7648   12.7529 O   0  0  0  0  0  0  0  0  0  0  0  0
   43.1997    9.8465   10.3764 C   0  0  0  0  0  0  0  0  0  0  0  0
   49.7778   11.5579   11.5766 H   0  0  0  0  0  0  0  0  0  0  0  0
   45.9302   11.5790   10.0495 H   0  0  0  0  0  0  0  0  0  0  0  0
   47.1400   12.4742   12.7265 H   0  0  0  0  0  0  0  0  0  0  0  0
   47.8066   12.7169   11.1199 H   0  0  0  0  0  0  0  0  0  0  0  0
   43.1090   10.4475   12.4311 H   0  0  0  0  0  0  0  0  0  0  0  0
   42.9759   12.3695   10.1209 H   0  0  0  0  0  0  0  0  0  0  0  0
   42.0050   12.3080   11.5993 H   0  0  0  0  0  0  0  0  0  0  0  0
   44.0980   13.0938   12.8882 H   0  0  0  0  0  0  0  0  0  0  0  0
   43.5447   14.2445   11.6601 H   0  0  0  0  0  0  0  0  0  0  0  0
   51.5190    7.4928   12.1054 H   0  0  0  0  0  0  0  0  0  0  0  0
   54.0264    9.0445   11.8206 H   0  0  0  0  0  0  0  0  0  0  0  0
   53.8709    7.3136   12.1893 H   0  0  0  0  0  0  0  0  0  0  0  0
   51.9228    6.4446   10.0027 H   0  0  0  0  0  0  0  0  0  0  0  0
   52.2515    5.9179    7.6027 H   0  0  0  0  0  0  0  0  0  0  0  0
   55.7181    8.4406    7.4931 H   0  0  0  0  0  0  0  0  0  0  0  0
   46.0577    7.4332   12.8248 H   0  0  0  0  0  0  0  0  0  0  0  0
   43.7012   10.1172    9.4416 H   0  0  0  0  0  0  0  0  0  0  0  0
   42.1216    9.8550   10.1967 H   0  0  0  0  0  0  0  0  0  0  0  0
   43.4850    8.8186   10.6146 H   0  0  0  0  0  0  0  0  0  0  0  0
  1  2  1  0
  2  3  1  0
  3  4  2  0
  5  6  1  0
  6  1  2  0
  4  7  1  0
  5  4  1  0
 10  5  1  0
  7  8  1  0
  9 10  1  0
  8 11  1  0
  9  8  1  0
 14  9  1  0
 11 12  1  0
 12 13  1  0
 13 14  1  0
  1 15  1  0
 15 16  2  0
 15 17  1  0
 17 18  1  0
 18 19  1  0
 19 20  2  0
 19 24  1  0
 20 21  1  0
 21 22  2  0
 22 23  1  0
 23 24  2  0
 22 25  1  0
 24 26  1  0
  2 27  2  0
  3 28  1  0
  7 29  2  0
 11 30  1  0
  6 31  1  0
  9 32  1  6
 10 33  1  0
 10 34  1  0
 11 35  1  6
 12 36  1  0
 12 37  1  0
 13 38  1  0
 13 39  1  0
 17 40  1  0
 18 41  1  0
 18 42  1  0
 20 43  1  0
 21 44  1  0
 23 45  1  0
 28 46  1  0
 30 47  1  0
 30 48  1  0
 30 49  1  0
M  END
> <Uni-Dock RESULT> 
ENERGY=   -3.806  LOWER_BOUND=    5.278  UPPER_BOUND=    7.939
INTER + INTRA:          -3.806
INTER:                  -3.806
INTRA:                   0.000
UNBOUND:                 0.000

$$$$

     RDKit          3D

 49 52  0  0  0  0  0  0  0  0999 V2000
   48.5214    6.7666   16.8007 C   0  0  0  0  0  0  0  0  0  0  0  0
   48.7605    5.3643   17.2393 C   0  0  0  0  0  0  0  0  0  0  0  0
   48.9975    5.1035   18.7036 C   0  0  0  0  0  0  0  0  0  0  0  0
   48.8669    6.1479   19.5546 C   0  0  0  0  0  0  0  0  0  0  0  0
   48.5531    7.4454   19.1253 N   0  0  0  0  0  0  0  0  0  0  0  0
   48.4347    7.6965   17.7660 C   0  0  0  0  0  0  0  0  0  0  0  0
   49.0237    5.8684   21.0381 C   0  0  0  0  0  0  0  0  0  0  0  0
   48.5583    6.8324   21.9259 N   0  0  0  0  0  0  0  0  0  0  0  0
   47.9033    8.0402   21.4364 C   0  0  2  0  0  0  0  0  0  0  0  0
   48.4913    8.5358   20.1043 C   0  0  0  0  0  0  0  0  0  0  0  0
   48.3574    6.4438   23.3270 C   0  0  1  0  0  0  0  0  0  0  0  0
   48.1026    7.6549   24.2248 C   0  0  0  0  0  0  0  0  0  0  0  0
   48.6932    8.8786   23.5674 C   0  0  0  0  0  0  0  0  0  0  0  0
   47.9798    9.1343   22.3607 O   0  0  0  0  0  0  0  0  0  0  0  0
   48.3237    7.1878   15.3855 C   0  0  0  0  0  0  0  0  0  0  0  0
   48.0158    8.3416   15.0982 O   0  0  0  0  0  0  0  0  0  0  0  0
   48.4840    6.1953   14.4502 N   0  0  0  0  0  0  0  0  0  0  0  0
   48.0664    6.3648   13.0755 C   0  0  0  0  0  0  0  0  0  0  0  0
   46.5959    6.0811   12.8871 C   0  0  0  0  0  0  0  0  0  0  0  0
   45.9557    5.0092   13.5338 C   0  0  0  0  0  0  0  0  0  0  0  0
   44.5941    4.7776   13.3339 C   0  0  0  0  0  0  0  0  0  0  0  0
   43.8716    5.6002   12.4769 C   0  0  0  0  0  0  0  0  0  0  0  0
   44.4866    6.6463   11.8052 C   0  0  0  0  0  0  0  0  0  0  0  0
   45.8426    6.8721   12.0098 C   0  0  0  0  0  0  0  0  0  0  0  0
   42.5670    5.3737   12.2916 F   0  0  0  0  0  0  0  0  0  0  0  0
   46.4317    7.8718   11.3380 F   0  0  0  0  0  0  0  0  0  0  0  0
   48.7438    4.4421   16.4213 O   0  0  0  0  0  0  0  0  0  0  0  0
   49.3021    3.8034   19.0697 O   0  0  0  0  0  0  0  0  0  0  0  0
   49.5214    4.8050   21.4130 O   0  0  0  0  0  0  0  0  0  0  0  0
   47.2228    5.4247   23.4856 C   0  0  0  0  0  0  0  0  0  0  0  0
   48.2474    8.7394   17.5188 H   0  0  0  0  0  0  0  0  0  0  0  0
   46.8428    7.7975   21.2972 H   0  0  0  0  0  0  0  0  0  0  0  0
   49.4968    8.9434   20.2606 H   0  0  0  0  0  0  0  0  0  0  0  0
   47.8749    9.3639   19.7344 H   0  0  0  0  0  0  0  0  0  0  0  0
   49.2903    5.9617   23.6534 H   0  0  0  0  0  0  0  0  0  0  0  0
   47.0221    7.8104   24.3511 H   0  0  0  0  0  0  0  0  0  0  0  0
   48.5289    7.4890   25.2218 H   0  0  0  0  0  0  0  0  0  0  0  0
   49.7659    8.7677   23.3525 H   0  0  0  0  0  0  0  0  0  0  0  0
   48.5778    9.7525   24.2226 H   0  0  0  0  0  0  0  0  0  0  0  0
   48.6443    5.2452   14.7858 H   0  0  0  0  0  0  0  0  0  0  0  0
   48.3100    7.3860   12.7657 H   0  0  0  0  0  0  0  0  0  0  0  0
   48.6507    5.6687   12.4639 H   0  0  0  0  0  0  0  0  0  0  0  0
   46.5105    4.3557   14.2037 H   0  0  0  0  0  0  0  0  0  0  0  0
   44.0918    3.9544   13.8369 H   0  0  0  0  0  0  0  0  0  0  0  0
   43.9207    7.2763   11.1298 H   0  0  0  0  0  0  0  0  0  0  0  0
   49.5341    3.7920   20.0245 H   0  0  0  0  0  0  0  0  0  0  0  0
   46.2779    5.8235   23.1025 H   0  0  0  0  0  0  0  0  0  0  0  0
   47.0774    5.1607   24.5364 H   0  0  0  0  0  0  0  0  0  0  0  0
   47.4324    4.5006   22.9407 H   0  0  0  0  0  0  0  0  0  0  0  0
  1  2  1  0
  2  3  1  0
  3  4  2  0
  5  6  1  0
  6  1  2  0
  4  7  1  0
  5  4  1  0
 10  5  1  0
  7  8  1  0
  9 10  1  0
  8 11  1  0
  9  8  1  0
 14  9  1  0
 11 12  1  0
 12 13  1  0
 13 14  1  0
  1 15  1  0
 15 16  2  0
 15 17  1  0
 17 18  1  0
 18 19  1  0
 19 20  2  0
 19 24  1  0
 20 21  1  0
 21 22  2  0
 22 23  1  0
 23 24  2  0
 22 25  1  0
 24 26  1  0
  2 27  2  0
  3 28  1  0
  7 29  2  0
 11 30  1  0
  6 31  1  0
  9 32  1  6
 10 33  1  0
 10 34  1  0
 11 35  1  6
 12 36  1  0
 12 37  1  0
 13 38  1  0
 13 39  1  0
 17 40  1  0
 18 41  1  0
 18 42  1  0
 20 43  1  0
 21 44  1  0
 23 45  1  0
 28 46  1  0
 30 47  1  0
 30 48  1  0
 30 49  1  0
M  END
> <Uni-Dock RESULT> 
ENERGY=   -3.728  LOWER_BOUND=    4.191  UPPER_BOUND=    6.617
INTER + INTRA:          -3.728
INTER:                  -3.728
INTRA:                   0.000
UNBOUND:                 0.000

$$$$

     RDKit          3D

 49 52  0  0  0  0  0  0  0  0999 V2000
   48.5570    8.5438   15.9819 C   0  0  0  0  0  0  0  0  0  0  0  0
   49.5446    7.6044   16.5805 C   0  0  0  0  0  0  0  0  0  0  0  0
   50.0029    7.8534   17.9935 C   0  0  0  0  0  0  0  0  0  0  0  0
   49.4031    8.8547   18.6789 C   0  0  0  0  0  0  0  0  0  0  0  0
   48.4095    9.6714   18.1202 N   0  0  0  0  0  0  0  0  0  0  0  0
   48.0648    9.4992   16.7873 C   0  0  0  0  0  0  0  0  0  0  0  0
   49.8054    9.0522   20.1289 C   0  0  0  0  0  0  0  0  0  0  0  0
   48.9703    9.8261   20.9274 N   0  0  0  0  0  0  0  0  0  0  0  0
   47.7330   10.3816   20.3906 C   0  0  2  0  0  0  0  0  0  0  0  0
   47.8534   10.7759   18.9088 C   0  0  0  0  0  0  0  0  0  0  0  0
   49.1237    9.7326   22.3842 C   0  0  1  0  0  0  0  0  0  0  0  0
   48.3341   10.8205   23.1127 C   0  0  0  0  0  0  0  0  0  0  0  0
   48.1217   11.9795   22.1693 C   0  0  0  0  0  0  0  0  0  0  0  0
   47.2868   11.5462   21.0989 O   0  0  0  0  0  0  0  0  0  0  0  0
   48.0500    8.4594   14.5836 C   0  0  0  0  0  0  0  0  0  0  0  0
   47.1499    9.1933   14.1839 O   0  0  0  0  0  0  0  0  0  0  0  0
   48.6400    7.4962   13.8028 N   0  0  0  0  0  0  0  0  0  0  0  0
   48.0862    7.1014   12.5259 C   0  0  0  0  0  0  0  0  0  0  0  0
   46.9867    6.0778   12.6733 C   0  0  0  0  0  0  0  0  0  0  0  0
   47.0752    5.0171   13.5920 C   0  0  0  0  0  0  0  0  0  0  0  0
   46.0384    4.0892   13.6989 C   0  0  0  0  0  0  0  0  0  0  0  0
   44.9207    4.2041   12.8800 C   0  0  0  0  0  0  0  0  0  0  0  0
   44.8227    5.2248   11.9458 C   0  0  0  0  0  0  0  0  0  0  0  0
   45.8584    6.1462   11.8456 C   0  0  0  0  0  0  0  0  0  0  0  0
   43.9303    3.3127   12.9891 F   0  0  0  0  0  0  0  0  0  0  0  0
   45.7635    7.1153   10.9237 F   0  0  0  0  0  0  0  0  0  0  0  0
   49.9578    6.6378   15.9366 O   0  0  0  0  0  0  0  0  0  0  0  0
   50.9849    7.0150   18.4932 O   0  0  0  0  0  0  0  0  0  0  0  0
   50.8238    8.5099   20.5624 O   0  0  0  0  0  0  0  0  0  0  0  0
   48.7286    8.3505   22.9179 C   0  0  0  0  0  0  0  0  0  0  0  0
   47.3287   10.2116   16.4205 H   0  0  0  0  0  0  0  0  0  0  0  0
   46.9602    9.6110   20.4997 H   0  0  0  0  0  0  0  0  0  0  0  0
   48.4931   11.6595   18.8011 H   0  0  0  0  0  0  0  0  0  0  0  0
   46.8617   11.0641   18.5401 H   0  0  0  0  0  0  0  0  0  0  0  0
   50.1926    9.8814   22.5951 H   0  0  0  0  0  0  0  0  0  0  0  0
   47.3529   10.4328   23.4201 H   0  0  0  0  0  0  0  0  0  0  0  0
   48.8626   11.1336   24.0215 H   0  0  0  0  0  0  0  0  0  0  0  0
   49.0653   12.3793   21.7707 H   0  0  0  0  0  0  0  0  0  0  0  0
   47.6101   12.8009   22.6889 H   0  0  0  0  0  0  0  0  0  0  0  0
   49.3109    6.8681   14.2460 H   0  0  0  0  0  0  0  0  0  0  0  0
   47.7189    7.9989   12.0183 H   0  0  0  0  0  0  0  0  0  0  0  0
   48.9002    6.6750   11.9298 H   0  0  0  0  0  0  0  0  0  0  0  0
   47.9461    4.9135   14.2358 H   0  0  0  0  0  0  0  0  0  0  0  0
   46.0980    3.2707   14.4128 H   0  0  0  0  0  0  0  0  0  0  0  0
   43.9547    5.3021   11.3026 H   0  0  0  0  0  0  0  0  0  0  0  0
   51.2638    7.3481   19.3746 H   0  0  0  0  0  0  0  0  0  0  0  0
   47.6896    8.1132   22.6675 H   0  0  0  0  0  0  0  0  0  0  0  0
   48.8333    8.3058   24.0051 H   0  0  0  0  0  0  0  0  0  0  0  0
   49.3552    7.5612   22.4948 H   0  0  0  0  0  0  0  0  0  0  0  0
  1  2  1  0
  2  3  1  0
  3  4  2  0
  5  6  1  0
  6  1  2  0
  4  7  1  0
  5  4  1  0
 10  5  1  0
  7  8  1  0
  9 10  1  0
  8 11  1  0
  9  8  1  0
 14  9  1  0
 11 12  1  0
 12 13  1  0
 13 14  1  0
  1 15  1  0
 15 16  2  0
 15 17  1  0
 17 18  1  0
 18 19  1  0
 19 20  2  0
 19 24  1  0
 20 21  1  0
 21 22  2  0
 22 23  1  0
 23 24  2  0
 22 25  1  0
 24 26  1  0
  2 27  2  0
  3 28  1  0
  7 29  2  0
 11 30  1  0
  6 31  1  0
  9 32  1  6
 10 33  1  0
 10 34  1  0
 11 35  1  6
 12 36  1  0
 12 37  1  0
 13 38  1  0
 13 39  1  0
 17 40  1  0
 18 41  1  0
 18 42  1  0
 20 43  1  0
 21 44  1  0
 23 45  1  0
 28 46  1  0
 30 47  1  0
 30 48  1  0
 30 49  1  0
M  END
> <Uni-Dock RESULT> 
ENERGY=   -3.681  LOWER_BOUND=    3.577  UPPER_BOUND=    6.061
INTER + INTRA:          -3.681
INTER:                  -3.681
INTRA:                   0.000
UNBOUND:                 0.000

$$$$

     RDKit          3D

 49 52  0  0  0  0  0  0  0  0999 V2000
   51.4996    4.4825   17.6796 C   0  0  0  0  0  0  0  0  0  0  0  0
   50.8832    3.1285   17.7328 C   0  0  0  0  0  0  0  0  0  0  0  0
   51.7936    1.9299   17.7875 C   0  0  0  0  0  0  0  0  0  0  0  0
   53.1230    2.1582   17.8996 C   0  0  0  0  0  0  0  0  0  0  0  0
   53.6739    3.4472   17.9367 N   0  0  0  0  0  0  0  0  0  0  0  0
   52.8372    4.5435   17.7855 C   0  0  0  0  0  0  0  0  0  0  0  0
   54.0332    0.9517   18.0385 C   0  0  0  0  0  0  0  0  0  0  0  0
   55.3280    1.1732   18.4952 N   0  0  0  0  0  0  0  0  0  0  0  0
   55.7662    2.5135   18.8681 C   0  0  2  0  0  0  0  0  0  0  0  0
   55.1303    3.6097   17.9964 C   0  0  0  0  0  0  0  0  0  0  0  0
   56.0957    0.0221   18.9852 C   0  0  1  0  0  0  0  0  0  0  0  0
   57.5692    0.3683   19.2010 C   0  0  0  0  0  0  0  0  0  0  0  0
   57.9224    1.5494   18.3299 C   0  0  0  0  0  0  0  0  0  0  0  0
   57.1879    2.6832   18.7833 O   0  0  0  0  0  0  0  0  0  0  0  0
   50.7344    5.7561   17.5705 C   0  0  0  0  0  0  0  0  0  0  0  0
   51.2934    6.8471   17.6475 O   0  0  0  0  0  0  0  0  0  0  0  0
   49.3785    5.6137   17.4074 N   0  0  0  0  0  0  0  0  0  0  0  0
   48.4686    6.7284   17.5574 C   0  0  0  0  0  0  0  0  0  0  0  0
   48.1051    6.9774   19.0011 C   0  0  0  0  0  0  0  0  0  0  0  0
   47.8452    5.9242   19.8957 C   0  0  0  0  0  0  0  0  0  0  0  0
   47.5108    6.1939   21.2235 C   0  0  0  0  0  0  0  0  0  0  0  0
   47.4165    7.5110   21.6587 C   0  0  0  0  0  0  0  0  0  0  0  0
   47.6399    8.5677   20.7883 C   0  0  0  0  0  0  0  0  0  0  0  0
   47.9738    8.2919   19.4677 C   0  0  0  0  0  0  0  0  0  0  0  0
   47.0975    7.7620   22.9326 F   0  0  0  0  0  0  0  0  0  0  0  0
   48.1653    9.3208   18.6295 F   0  0  0  0  0  0  0  0  0  0  0  0
   49.6572    3.0002   17.7512 O   0  0  0  0  0  0  0  0  0  0  0  0
   51.1941    0.6825   17.7491 O   0  0  0  0  0  0  0  0  0  0  0  0
   53.6041   -0.1739   17.7778 O   0  0  0  0  0  0  0  0  0  0  0  0
   55.5000   -0.5628   20.2714 C   0  0  0  0  0  0  0  0  0  0  0  0
   53.3536    5.5010   17.7685 H   0  0  0  0  0  0  0  0  0  0  0  0
   55.4759    2.6677   19.9144 H   0  0  0  0  0  0  0  0  0  0  0  0
   55.5432    3.5758   16.9815 H   0  0  0  0  0  0  0  0  0  0  0  0
   55.4018    4.5887   18.4092 H   0  0  0  0  0  0  0  0  0  0  0  0
   56.0326   -0.7495   18.2044 H   0  0  0  0  0  0  0  0  0  0  0  0
   57.7428    0.6414   20.2511 H   0  0  0  0  0  0  0  0  0  0  0  0
   58.2029   -0.4990   18.9784 H   0  0  0  0  0  0  0  0  0  0  0  0
   57.7132    1.3681   17.2657 H   0  0  0  0  0  0  0  0  0  0  0  0
   58.9926    1.7790   18.4202 H   0  0  0  0  0  0  0  0  0  0  0  0
   48.9892    4.6716   17.4515 H   0  0  0  0  0  0  0  0  0  0  0  0
   48.9340    7.6141   17.1135 H   0  0  0  0  0  0  0  0  0  0  0  0
   47.5611    6.4933   16.9909 H   0  0  0  0  0  0  0  0  0  0  0  0
   47.9116    4.8892   19.5668 H   0  0  0  0  0  0  0  0  0  0  0  0
   47.3157    5.3833   21.9219 H   0  0  0  0  0  0  0  0  0  0  0  0
   47.5534    9.5916   21.1306 H   0  0  0  0  0  0  0  0  0  0  0  0
   51.8965   -0.0018   17.6855 H   0  0  0  0  0  0  0  0  0  0  0  0
   55.4648    0.1885   21.0670 H   0  0  0  0  0  0  0  0  0  0  0  0
   56.0943   -1.4073   20.6296 H   0  0  0  0  0  0  0  0  0  0  0  0
   54.4795   -0.9218   20.1155 H   0  0  0  0  0  0  0  0  0  0  0  0
  1  2  1  0
  2  3  1  0
  3  4  2  0
  5  6  1  0
  6  1  2  0
  4  7  1  0
  5  4  1  0
 10  5  1  0
  7  8  1  0
  9 10  1  0
  8 11  1  0
  9  8  1  0
 14  9  1  0
 11 12  1  0
 12 13  1  0
 13 14  1  0
  1 15  1  0
 15 16  2  0
 15 17  1  0
 17 18  1  0
 18 19  1  0
 19 20  2  0
 19 24  1  0
 20 21  1  0
 21 22  2  0
 22 23  1  0
 23 24  2  0
 22 25  1  0
 24 26  1  0
  2 27  2  0
  3 28  1  0
  7 29  2  0
 11 30  1  0
  6 31  1  0
  9 32  1  6
 10 33  1  0
 10 34  1  0
 11 35  1  6
 12 36  1  0
 12 37  1  0
 13 38  1  0
 13 39  1  0
 17 40  1  0
 18 41  1  0
 18 42  1  0
 20 43  1  0
 21 44  1  0
 23 45  1  0
 28 46  1  0
 30 47  1  0
 30 48  1  0
 30 49  1  0
M  END
> <Uni-Dock RESULT> 
ENERGY=   -3.662  LOWER_BOUND=    7.356  UPPER_BOUND=   10.670
INTER + INTRA:          -3.662
INTER:                  -3.662
INTRA:                   0.000
UNBOUND:                 0.000

$$$$
