
     RDKit          3D

 49 52  0  0  0  0  0  0  0  0999 V2000
   46.4297    6.2358   13.0243 C   0  0  0  0  0  0  0  0  0  0  0  0
   46.1775    7.6051   12.5208 C   0  0  0  0  0  0  0  0  0  0  0  0
   46.8955    8.7581   13.1508 C   0  0  0  0  0  0  0  0  0  0  0  0
   47.7481    8.5030   14.1677 C   0  0  0  0  0  0  0  0  0  0  0  0
   47.9468    7.1958   14.6546 N   0  0  0  0  0  0  0  0  0  0  0  0
   47.2959    6.1314   14.0433 C   0  0  0  0  0  0  0  0  0  0  0  0
   48.4851    9.6692   14.8172 C   0  0  0  0  0  0  0  0  0  0  0  0
   49.0939    9.4181   16.0426 N   0  0  0  0  0  0  0  0  0  0  0  0
   49.0363    8.1280   16.6871 C   0  0  2  0  0  0  0  0  0  0  0  0
   48.9429    6.9485   15.7101 C   0  0  0  0  0  0  0  0  0  0  0  0
   49.4265   10.5472   16.9092 C   0  0  1  0  0  0  0  0  0  0  0  0
   49.1104   10.1954   18.3692 C   0  0  0  0  0  0  0  0  0  0  0  0
   47.8587    9.3215   18.4104 C   0  0  0  0  0  0  0  0  0  0  0  0
   47.9588    8.1263   17.6242 O   0  0  0  0  0  0  0  0  0  0  0  0
   45.8097    4.9996   12.4750 C   0  0  0  0  0  0  0  0  0  0  0  0
   46.1365    3.8862   12.8751 O   0  0  0  0  0  0  0  0  0  0  0  0
   44.8657    5.2020   11.5019 N   0  0  0  0  0  0  0  0  0  0  0  0
   44.2408    4.1127   10.7838 C   0  0  0  0  0  0  0  0  0  0  0  0
   44.9815    3.7294    9.5276 C   0  0  0  0  0  0  0  0  0  0  0  0
   45.6846    4.6638    8.7484 C   0  0  0  0  0  0  0  0  0  0  0  0
   46.3284    4.2628    7.5749 C   0  0  0  0  0  0  0  0  0  0  0  0
   46.2597    2.9343    7.1697 C   0  0  0  0  0  0  0  0  0  0  0  0
   45.5544    1.9976    7.9090 C   0  0  0  0  0  0  0  0  0  0  0  0
   44.9170    2.4043    9.0756 C   0  0  0  0  0  0  0  0  0  0  0  0
   46.8766    2.5572    6.0422 F   0  0  0  0  0  0  0  0  0  0  0  0
   44.2158    1.4971    9.7708 F   0  0  0  0  0  0  0  0  0  0  0  0
   45.3997    7.8324   11.5903 O   0  0  0  0  0  0  0  0  0  0  0  0
   46.6054   10.0073   12.6381 O   0  0  0  0  0  0  0  0  0  0  0  0
   48.5467   10.7840   14.3036 O   0  0  0  0  0  0  0  0  0  0  0  0
   50.8820   10.9693   16.7339 C   0  0  0  0  0  0  0  0  0  0  0  0
   47.5415    5.1581   14.4664 H   0  0  0  0  0  0  0  0  0  0  0  0
   49.9665    7.9828   17.2518 H   0  0  0  0  0  0  0  0  0  0  0  0
   49.9151    6.7975   15.2246 H   0  0  0  0  0  0  0  0  0  0  0  0
   48.6940    6.0369   16.2671 H   0  0  0  0  0  0  0  0  0  0  0  0
   48.7918   11.3973   16.6268 H   0  0  0  0  0  0  0  0  0  0  0  0
   48.9712   11.1056   18.9627 H   0  0  0  0  0  0  0  0  0  0  0  0
   49.9465    9.6441   18.8179 H   0  0  0  0  0  0  0  0  0  0  0  0
   47.6395    9.0217   19.4402 H   0  0  0  0  0  0  0  0  0  0  0  0
   46.9906    9.8831   18.0462 H   0  0  0  0  0  0  0  0  0  0  0  0
   44.6759    6.1533   11.1913 H   0  0  0  0  0  0  0  0  0  0  0  0
   44.1580    3.2539   11.4591 H   0  0  0  0  0  0  0  0  0  0  0  0
   43.2298    4.4383   10.5161 H   0  0  0  0  0  0  0  0  0  0  0  0
   45.7402    5.7083    9.0464 H   0  0  0  0  0  0  0  0  0  0  0  0
   46.8802    4.9791    6.9735 H   0  0  0  0  0  0  0  0  0  0  0  0
   45.4967    0.9666    7.5815 H   0  0  0  0  0  0  0  0  0  0  0  0
   45.9638    9.8615   11.9138 H   0  0  0  0  0  0  0  0  0  0  0  0
   51.5663   10.1501   16.9810 H   0  0  0  0  0  0  0  0  0  0  0  0
   51.0812   11.2610   15.6972 H   0  0  0  0  0  0  0  0  0  0  0  0
   51.1207   11.8213   17.3786 H   0  0  0  0  0  0  0  0  0  0  0  0
  1  2  1  0
  2  3  1  0
  3  4  2  0
  5  6  1  0
  6  1  2  0
  4  7  1  0
  5  4  1  0
 10  5  1  0
  7  8  1  0
  9 10  1  0
  8 11  1  0
  9  8  1  0
 14  9  1  0
 11 12  1  0
 12 13  1  0
 13 14  1  0
  1 15  1  0
 15 16  2  0
 15 17  1  0
 17 18  1  0
 18 19  1  0
 19 20  2  0
 19 24  1  0
 20 21  1  0
 21 22  2  0
 22 23  1  0
 23 24  2  0
 22 25  1  0
 24 26  1  0
  2 27  2  0
  3 28  1  0
  7 29  2  0
 11 30  1  0
  6 31  1  0
  9 32  1  6
 10 33  1  0
 10 34  1  0
 11 35  1  6
 12 36  1  0
 12 37  1  0
 13 38  1  0
 13 39  1  0
 17 40  1  0
 18 41  1  0
 18 42  1  0
 20 43  1  0
 21 44  1  0
 23 45  1  0
 28 46  1  0
 30 47  1  0
 30 48  1  0
 30 49  1  0
M  END
> <Uni-Dock RESULT> 
ENERGY=   -5.897  LOWER_BOUND=    0.000  UPPER_BOUND=    0.000
INTER + INTRA:          -5.897
INTER:                  -5.897
INTRA:                   0.000
UNBOUND:                 0.000

$$$$

     RDKit          3D

 49 52  0  0  0  0  0  0  0  0999 V2000
   46.4363    6.2527   12.9567 C   0  0  0  0  0  0  0  0  0  0  0  0
   46.1893    7.6201   12.4456 C   0  0  0  0  0  0  0  0  0  0  0  0
   46.9031    8.7751   13.0767 C   0  0  0  0  0  0  0  0  0  0  0  0
   47.7472    8.5234   14.1015 C   0  0  0  0  0  0  0  0  0  0  0  0
   47.9408    7.2181   14.5954 N   0  0  0  0  0  0  0  0  0  0  0  0
   47.2940    6.1517   13.9831 C   0  0  0  0  0  0  0  0  0  0  0  0
   48.4800    9.6916   14.7523 C   0  0  0  0  0  0  0  0  0  0  0  0
   49.0786    9.4450   15.9836 N   0  0  0  0  0  0  0  0  0  0  0  0
   49.0145    8.1576   16.6328 C   0  0  2  0  0  0  0  0  0  0  0  0
   48.9281    6.9742   15.6599 C   0  0  0  0  0  0  0  0  0  0  0  0
   49.4050   10.5774   16.8484 C   0  0  1  0  0  0  0  0  0  0  0  0
   49.0768   10.2317   18.3071 C   0  0  0  0  0  0  0  0  0  0  0  0
   47.8240    9.3591   18.3417 C   0  0  0  0  0  0  0  0  0  0  0  0
   47.9295    8.1606   17.5612 O   0  0  0  0  0  0  0  0  0  0  0  0
   45.8196    5.0148   12.4074 C   0  0  0  0  0  0  0  0  0  0  0  0
   46.1422    3.9028   12.8146 O   0  0  0  0  0  0  0  0  0  0  0  0
   44.8838    5.2140   11.4258 N   0  0  0  0  0  0  0  0  0  0  0  0
   44.2637    4.1223   10.7071 C   0  0  0  0  0  0  0  0  0  0  0  0
   45.0143    3.7333    9.4585 C   0  0  0  0  0  0  0  0  0  0  0  0
   45.7245    4.6639    8.6812 C   0  0  0  0  0  0  0  0  0  0  0  0
   46.3775    4.2576    7.5146 C   0  0  0  0  0  0  0  0  0  0  0  0
   46.3110    2.9276    7.1143 C   0  0  0  0  0  0  0  0  0  0  0  0
   45.5989    1.9944    7.8516 C   0  0  0  0  0  0  0  0  0  0  0  0
   44.9524    2.4064    9.0114 C   0  0  0  0  0  0  0  0  0  0  0  0
   46.9367    2.5453    5.9935 F   0  0  0  0  0  0  0  0  0  0  0  0
   44.2447    1.5026    9.7045 F   0  0  0  0  0  0  0  0  0  0  0  0
   45.4193    7.8443   11.5079 O   0  0  0  0  0  0  0  0  0  0  0  0
   46.6184   10.0224   12.5566 O   0  0  0  0  0  0  0  0  0  0  0  0
   48.5467   10.8043   14.2347 O   0  0  0  0  0  0  0  0  0  0  0  0
   50.8623   10.9975   16.6831 C   0  0  0  0  0  0  0  0  0  0  0  0
   47.5353    5.1800   14.4121 H   0  0  0  0  0  0  0  0  0  0  0  0
   49.9400    8.0139   17.2057 H   0  0  0  0  0  0  0  0  0  0  0  0
   49.9041    6.8204   15.1830 H   0  0  0  0  0  0  0  0  0  0  0  0
   48.6739    6.0651   16.2185 H   0  0  0  0  0  0  0  0  0  0  0  0
   48.7734   11.4268   16.5573 H   0  0  0  0  0  0  0  0  0  0  0  0
   48.9336   11.1445   18.8958 H   0  0  0  0  0  0  0  0  0  0  0  0
   49.9087    9.6815   18.7648 H   0  0  0  0  0  0  0  0  0  0  0  0
   47.5961    9.0636   19.3708 H   0  0  0  0  0  0  0  0  0  0  0  0
   46.9594    9.9198   17.9681 H   0  0  0  0  0  0  0  0  0  0  0  0
   44.6973    6.1642   11.1098 H   0  0  0  0  0  0  0  0  0  0  0  0
   44.1747    3.2663   11.3852 H   0  0  0  0  0  0  0  0  0  0  0  0
   43.2552    4.4476   10.4299 H   0  0  0  0  0  0  0  0  0  0  0  0
   45.7787    5.7096    8.9754 H   0  0  0  0  0  0  0  0  0  0  0  0
   46.9349    4.9711    6.9149 H   0  0  0  0  0  0  0  0  0  0  0  0
   45.5430    0.9622    7.5279 H   0  0  0  0  0  0  0  0  0  0  0  0
   45.9825    9.8742   11.8277 H   0  0  0  0  0  0  0  0  0  0  0  0
   51.5438   10.1788   16.9392 H   0  0  0  0  0  0  0  0  0  0  0  0
   51.0702   11.2848   15.6469 H   0  0  0  0  0  0  0  0  0  0  0  0
   51.0965   11.8519   17.3263 H   0  0  0  0  0  0  0  0  0  0  0  0
  1  2  1  0
  2  3  1  0
  3  4  2  0
  5  6  1  0
  6  1  2  0
  4  7  1  0
  5  4  1  0
 10  5  1  0
  7  8  1  0
  9 10  1  0
  8 11  1  0
  9  8  1  0
 14  9  1  0
 11 12  1  0
 12 13  1  0
 13 14  1  0
  1 15  1  0
 15 16  2  0
 15 17  1  0
 17 18  1  0
 18 19  1  0
 19 20  2  0
 19 24  1  0
 20 21  1  0
 21 22  2  0
 22 23  1  0
 23 24  2  0
 22 25  1  0
 24 26  1  0
  2 27  2  0
  3 28  1  0
  7 29  2  0
 11 30  1  0
  6 31  1  0
  9 32  1  6
 10 33  1  0
 10 34  1  0
 11 35  1  6
 12 36  1  0
 12 37  1  0
 13 38  1  0
 13 39  1  0
 17 40  1  0
 18 41  1  0
 18 42  1  0
 20 43  1  0
 21 44  1  0
 23 45  1  0
 28 46  1  0
 30 47  1  0
 30 48  1  0
 30 49  1  0
M  END
> <Uni-Dock RESULT> 
ENERGY=   -5.878  LOWER_BOUND=    0.073  UPPER_BOUND=    0.073
INTER + INTRA:          -5.878
INTER:                  -5.878
INTRA:                   0.000
UNBOUND:                 0.000

$$$$

     RDKit          3D

 49 52  0  0  0  0  0  0  0  0999 V2000
   47.0602    6.4747   13.6912 C   0  0  0  0  0  0  0  0  0  0  0  0
   46.8737    7.8706   13.2343 C   0  0  0  0  0  0  0  0  0  0  0  0
   47.8208    8.9274   13.7119 C   0  0  0  0  0  0  0  0  0  0  0  0
   48.8134    8.5645   14.5539 C   0  0  0  0  0  0  0  0  0  0  0  0
   48.9514    7.2365   15.0041 N   0  0  0  0  0  0  0  0  0  0  0  0
   48.0833    6.2600   14.5317 C   0  0  0  0  0  0  0  0  0  0  0  0
   49.7842    9.6320   15.0470 C   0  0  0  0  0  0  0  0  0  0  0  0
   50.5780    9.2972   16.1393 N   0  0  0  0  0  0  0  0  0  0  0  0
   50.4970    8.0125   16.7918 C   0  0  2  0  0  0  0  0  0  0  0  0
   50.0922    6.8648   15.8572 C   0  0  0  0  0  0  0  0  0  0  0  0
   51.1901   10.3698   16.9213 C   0  0  1  0  0  0  0  0  0  0  0  0
   51.1134   10.0344   18.4169 C   0  0  0  0  0  0  0  0  0  0  0  0
   49.8013    9.3047   18.6963 C   0  0  0  0  0  0  0  0  0  0  0  0
   49.6191    8.1172   17.9132 O   0  0  0  0  0  0  0  0  0  0  0  0
   46.2144    5.3231   13.2752 C   0  0  0  0  0  0  0  0  0  0  0  0
   46.4831    4.1747   13.6149 O   0  0  0  0  0  0  0  0  0  0  0  0
   45.1348    5.6432   12.4936 N   0  0  0  0  0  0  0  0  0  0  0  0
   44.2694    4.6406   11.9117 C   0  0  0  0  0  0  0  0  0  0  0  0
   44.7161    4.1953   10.5421 C   0  0  0  0  0  0  0  0  0  0  0  0
   45.3623    5.0567    9.6394 C   0  0  0  0  0  0  0  0  0  0  0  0
   45.7279    4.6035    8.3692 C   0  0  0  0  0  0  0  0  0  0  0  0
   45.4369    3.2969    7.9928 C   0  0  0  0  0  0  0  0  0  0  0  0
   44.7808    2.4339    8.8567 C   0  0  0  0  0  0  0  0  0  0  0  0
   44.4209    2.8922   10.1189 C   0  0  0  0  0  0  0  0  0  0  0  0
   45.7873    2.8697    6.7727 F   0  0  0  0  0  0  0  0  0  0  0  0
   43.7639    2.0588   10.9385 F   0  0  0  0  0  0  0  0  0  0  0  0
   45.9670    8.1964   12.4634 O   0  0  0  0  0  0  0  0  0  0  0  0
   47.5822   10.2084   13.2538 O   0  0  0  0  0  0  0  0  0  0  0  0
   49.8737   10.7403   14.5235 O   0  0  0  0  0  0  0  0  0  0  0  0
   52.6256   10.6298   16.4751 C   0  0  0  0  0  0  0  0  0  0  0  0
   48.2927    5.2595   14.9082 H   0  0  0  0  0  0  0  0  0  0  0  0
   51.4937    7.7565   17.1744 H   0  0  0  0  0  0  0  0  0  0  0  0
   50.9342    6.6135   15.2002 H   0  0  0  0  0  0  0  0  0  0  0  0
   49.8507    5.9786   16.4568 H   0  0  0  0  0  0  0  0  0  0  0  0
   50.6132   11.2891   16.7563 H   0  0  0  0  0  0  0  0  0  0  0  0
   51.1897   10.9459   19.0198 H   0  0  0  0  0  0  0  0  0  0  0  0
   51.9511    9.3871   18.7057 H   0  0  0  0  0  0  0  0  0  0  0  0
   49.7450    9.0164   19.7508 H   0  0  0  0  0  0  0  0  0  0  0  0
   48.9491    9.9645   18.4963 H   0  0  0  0  0  0  0  0  0  0  0  0
   44.9983    6.6141   12.2174 H   0  0  0  0  0  0  0  0  0  0  0  0
   44.2179    3.7868   12.5963 H   0  0  0  0  0  0  0  0  0  0  0  0
   43.2692    5.0804   11.8348 H   0  0  0  0  0  0  0  0  0  0  0  0
   45.5890    6.0843    9.9148 H   0  0  0  0  0  0  0  0  0  0  0  0
   46.2351    5.2626    7.6709 H   0  0  0  0  0  0  0  0  0  0  0  0
   44.5482    1.4206    8.5526 H   0  0  0  0  0  0  0  0  0  0  0  0
   46.8050   10.1452   12.6627 H   0  0  0  0  0  0  0  0  0  0  0  0
   53.2478    9.7361   16.5960 H   0  0  0  0  0  0  0  0  0  0  0  0
   52.6601   10.9124   15.4176 H   0  0  0  0  0  0  0  0  0  0  0  0
   53.0738   11.4406   17.0584 H   0  0  0  0  0  0  0  0  0  0  0  0
  1  2  1  0
  2  3  1  0
  3  4  2  0
  5  6  1  0
  6  1  2  0
  4  7  1  0
  5  4  1  0
 10  5  1  0
  7  8  1  0
  9 10  1  0
  8 11  1  0
  9  8  1  0
 14  9  1  0
 11 12  1  0
 12 13  1  0
 13 14  1  0
  1 15  1  0
 15 16  2  0
 15 17  1  0
 17 18  1  0
 18 19  1  0
 19 20  2  0
 19 24  1  0
 20 21  1  0
 21 22  2  0
 22 23  1  0
 23 24  2  0
 22 25  1  0
 24 26  1  0
  2 27  2  0
  3 28  1  0
  7 29  2  0
 11 30  1  0
  6 31  1  0
  9 32  1  6
 10 33  1  0
 10 34  1  0
 11 35  1  6
 12 36  1  0
 12 37  1  0
 13 38  1  0
 13 39  1  0
 17 40  1  0
 18 41  1  0
 18 42  1  0
 20 43  1  0
 21 44  1  0
 23 45  1  0
 28 46  1  0
 30 47  1  0
 30 48  1  0
 30 49  1  0
M  END
> <Uni-Dock RESULT> 
ENERGY=   -5.182  LOWER_BOUND=    1.168  UPPER_BOUND=    1.314
INTER + INTRA:          -5.182
INTER:                  -5.182
INTRA:                   0.000
UNBOUND:                 0.000

$$$$

     RDKit          3D

 49 52  0  0  0  0  0  0  0  0999 V2000
   47.1188    6.7011   13.7108 C   0  0  0  0  0  0  0  0  0  0  0  0
   46.9318    8.0820   13.2105 C   0  0  0  0  0  0  0  0  0  0  0  0
   47.9005    9.1458   13.6247 C   0  0  0  0  0  0  0  0  0  0  0  0
   48.9128    8.8030   14.4517 C   0  0  0  0  0  0  0  0  0  0  0  0
   49.0518    7.4902   14.9443 N   0  0  0  0  0  0  0  0  0  0  0  0
   48.1628    6.5061   14.5302 C   0  0  0  0  0  0  0  0  0  0  0  0
   49.9058    9.8778   14.8805 C   0  0  0  0  0  0  0  0  0  0  0  0
   50.7265    9.5738   15.9619 N   0  0  0  0  0  0  0  0  0  0  0  0
   50.6525    8.3133   16.6610 C   0  0  2  0  0  0  0  0  0  0  0  0
   50.2124    7.1377   15.7786 C   0  0  0  0  0  0  0  0  0  0  0  0
   51.3689   10.6671   16.6889 C   0  0  1  0  0  0  0  0  0  0  0  0
   51.3305   10.3847   18.1968 C   0  0  0  0  0  0  0  0  0  0  0  0
   50.0204    9.6777   18.5372 C   0  0  0  0  0  0  0  0  0  0  0  0
   49.8066    8.4654   17.8015 O   0  0  0  0  0  0  0  0  0  0  0  0
   46.2522    5.5439   13.3586 C   0  0  0  0  0  0  0  0  0  0  0  0
   46.5203    4.4055   13.7309 O   0  0  0  0  0  0  0  0  0  0  0  0
   45.1542    5.8468   12.5958 N   0  0  0  0  0  0  0  0  0  0  0  0
   44.2646    4.8328   12.0732 C   0  0  0  0  0  0  0  0  0  0  0  0
   44.6698    4.3358   10.7085 C   0  0  0  0  0  0  0  0  0  0  0  0
   45.2982    5.1591    9.7588 C   0  0  0  0  0  0  0  0  0  0  0  0
   45.6249    4.6585    8.4959 C   0  0  0  0  0  0  0  0  0  0  0  0
   45.3125    3.3423    8.1735 C   0  0  0  0  0  0  0  0  0  0  0  0
   44.6730    2.5162    9.0847 C   0  0  0  0  0  0  0  0  0  0  0  0
   44.3519    3.0216   10.3394 C   0  0  0  0  0  0  0  0  0  0  0  0
   45.6257    2.8695    6.9602 F   0  0  0  0  0  0  0  0  0  0  0  0
   43.7106    2.2235   11.2053 F   0  0  0  0  0  0  0  0  0  0  0  0
   46.0071    8.3893   12.4535 O   0  0  0  0  0  0  0  0  0  0  0  0
   47.6605   10.4122   13.1287 O   0  0  0  0  0  0  0  0  0  0  0  0
   49.9904   10.9663   14.3162 O   0  0  0  0  0  0  0  0  0  0  0  0
   52.7938   10.8977   16.1951 C   0  0  0  0  0  0  0  0  0  0  0  0
   48.3738    5.5174   14.9357 H   0  0  0  0  0  0  0  0  0  0  0  0
   51.6571    8.0614   17.0252 H   0  0  0  0  0  0  0  0  0  0  0  0
   51.0339    6.8557   15.1082 H   0  0  0  0  0  0  0  0  0  0  0  0
   49.9799    6.2753   16.4153 H   0  0  0  0  0  0  0  0  0  0  0  0
   50.7956   11.5855   16.5075 H   0  0  0  0  0  0  0  0  0  0  0  0
   51.4311   11.3159   18.7652 H   0  0  0  0  0  0  0  0  0  0  0  0
   52.1703    9.7400   18.4853 H   0  0  0  0  0  0  0  0  0  0  0  0
   49.9906    9.4268   19.6024 H   0  0  0  0  0  0  0  0  0  0  0  0
   49.1687   10.3382   18.3374 H   0  0  0  0  0  0  0  0  0  0  0  0
   45.0185    6.8086   12.2896 H   0  0  0  0  0  0  0  0  0  0  0  0
   44.2246    4.0038   12.7885 H   0  0  0  0  0  0  0  0  0  0  0  0
   43.2664    5.2791   12.0081 H   0  0  0  0  0  0  0  0  0  0  0  0
   45.5412    6.1934    9.9918 H   0  0  0  0  0  0  0  0  0  0  0  0
   46.1184    5.2879    7.7613 H   0  0  0  0  0  0  0  0  0  0  0  0
   44.4236    1.4952    8.8228 H   0  0  0  0  0  0  0  0  0  0  0  0
   46.8668   10.3359   12.5615 H   0  0  0  0  0  0  0  0  0  0  0  0
   53.4115   10.0030   16.3303 H   0  0  0  0  0  0  0  0  0  0  0  0
   52.8017   11.1429   15.1277 H   0  0  0  0  0  0  0  0  0  0  0  0
   53.2648   11.7241   16.7372 H   0  0  0  0  0  0  0  0  0  0  0  0
  1  2  1  0
  2  3  1  0
  3  4  2  0
  5  6  1  0
  6  1  2  0
  4  7  1  0
  5  4  1  0
 10  5  1  0
  7  8  1  0
  9 10  1  0
  8 11  1  0
  9  8  1  0
 14  9  1  0
 11 12  1  0
 12 13  1  0
 13 14  1  0
  1 15  1  0
 15 16  2  0
 15 17  1  0
 17 18  1  0
 18 19  1  0
 19 20  2  0
 19 24  1  0
 20 21  1  0
 21 22  2  0
 22 23  1  0
 23 24  2  0
 22 25  1  0
 24 26  1  0
  2 27  2  0
  3 28  1  0
  7 29  2  0
 11 30  1  0
  6 31  1  0
  9 32  1  6
 10 33  1  0
 10 34  1  0
 11 35  1  6
 12 36  1  0
 12 37  1  0
 13 38  1  0
 13 39  1  0
 17 40  1  0
 18 41  1  0
 18 42  1  0
 20 43  1  0
 21 44  1  0
 23 45  1  0
 28 46  1  0
 30 47  1  0
 30 48  1  0
 30 49  1  0
M  END
> <Uni-Dock RESULT> 
ENERGY=   -5.135  LOWER_BOUND=    1.272  UPPER_BOUND=    1.487
INTER + INTRA:          -5.135
INTER:                  -5.135
INTRA:                   0.000
UNBOUND:                 0.000

$$$$

     RDKit          3D

 49 52  0  0  0  0  0  0  0  0999 V2000
   43.5091   12.1441    8.2957 C   0  0  0  0  0  0  0  0  0  0  0  0
   43.3603   13.5581    8.7087 C   0  0  0  0  0  0  0  0  0  0  0  0
   42.5302   13.8835    9.9115 C   0  0  0  0  0  0  0  0  0  0  0  0
   41.9384   12.8661   10.5754 C   0  0  0  0  0  0  0  0  0  0  0  0
   42.0644   11.5306   10.1443 N   0  0  0  0  0  0  0  0  0  0  0  0
   42.8602   11.2390    9.0433 C   0  0  0  0  0  0  0  0  0  0  0  0
   41.0905   13.1851   11.8019 C   0  0  0  0  0  0  0  0  0  0  0  0
   40.2518   12.1746   12.2610 N   0  0  0  0  0  0  0  0  0  0  0  0
   40.1680   10.8849   11.6186 C   0  0  2  0  0  0  0  0  0  0  0  0
   41.4709   10.4429   10.9393 C   0  0  0  0  0  0  0  0  0  0  0  0
   39.1256   12.5299   13.1224 C   0  0  1  0  0  0  0  0  0  0  0  0
   37.8891   11.7103   12.7295 C   0  0  0  0  0  0  0  0  0  0  0  0
   37.8829   11.5144   11.2150 C   0  0  0  0  0  0  0  0  0  0  0  0
   39.0705   10.8931   10.7050 O   0  0  0  0  0  0  0  0  0  0  0  0
   44.3243   11.6760    7.1421 C   0  0  0  0  0  0  0  0  0  0  0  0
   44.4837   10.4808    6.9128 O   0  0  0  0  0  0  0  0  0  0  0  0
   44.8751   12.6691    6.3745 N   0  0  0  0  0  0  0  0  0  0  0  0
   45.7817   12.3964    5.2806 C   0  0  0  0  0  0  0  0  0  0  0  0
   47.2288   12.3692    5.7034 C   0  0  0  0  0  0  0  0  0  0  0  0
   47.7304   13.1766    6.7383 C   0  0  0  0  0  0  0  0  0  0  0  0
   49.0870   13.1372    7.0706 C   0  0  0  0  0  0  0  0  0  0  0  0
   49.9467   12.3045    6.3625 C   0  0  0  0  0  0  0  0  0  0  0  0
   49.4809   11.5146    5.3230 C   0  0  0  0  0  0  0  0  0  0  0  0
   48.1298   11.5591    4.9989 C   0  0  0  0  0  0  0  0  0  0  0  0
   51.2465   12.2737    6.6841 F   0  0  0  0  0  0  0  0  0  0  0  0
   47.6926   10.8111    3.9755 F   0  0  0  0  0  0  0  0  0  0  0  0
   43.9048   14.4833    8.1005 O   0  0  0  0  0  0  0  0  0  0  0  0
   42.4269   15.2225   10.2338 O   0  0  0  0  0  0  0  0  0  0  0  0
   41.1273   14.2749   12.3689 O   0  0  0  0  0  0  0  0  0  0  0  0
   39.4772   12.3481   14.5957 C   0  0  0  0  0  0  0  0  0  0  0  0
   42.9245   10.1768    8.8103 H   0  0  0  0  0  0  0  0  0  0  0  0
   39.9538   10.1303   12.3867 H   0  0  0  0  0  0  0  0  0  0  0  0
   42.2011   10.1496   11.7038 H   0  0  0  0  0  0  0  0  0  0  0  0
   41.2701    9.5699   10.3061 H   0  0  0  0  0  0  0  0  0  0  0  0
   38.8881   13.5893   12.9600 H   0  0  0  0  0  0  0  0  0  0  0  0
   36.9736   12.2116   13.0624 H   0  0  0  0  0  0  0  0  0  0  0  0
   37.9126   10.7275   13.2172 H   0  0  0  0  0  0  0  0  0  0  0  0
   37.0318   10.8940   10.9164 H   0  0  0  0  0  0  0  0  0  0  0  0
   37.7725   12.4795   10.7071 H   0  0  0  0  0  0  0  0  0  0  0  0
   44.7333   13.6394    6.6500 H   0  0  0  0  0  0  0  0  0  0  0  0
   45.4964   11.4427    4.8228 H   0  0  0  0  0  0  0  0  0  0  0  0
   45.6421   13.1896    4.5381 H   0  0  0  0  0  0  0  0  0  0  0  0
   47.0731   13.8401    7.2958 H   0  0  0  0  0  0  0  0  0  0  0  0
   49.4782   13.7527    7.8752 H   0  0  0  0  0  0  0  0  0  0  0  0
   50.1586   10.8762    4.7692 H   0  0  0  0  0  0  0  0  0  0  0  0
   42.9674   15.7031    9.5747 H   0  0  0  0  0  0  0  0  0  0  0  0
   39.7462   11.3089   14.8152 H   0  0  0  0  0  0  0  0  0  0  0  0
   40.3326   12.9734   14.8726 H   0  0  0  0  0  0  0  0  0  0  0  0
   38.6325   12.6254   15.2347 H   0  0  0  0  0  0  0  0  0  0  0  0
  1  2  1  0
  2  3  1  0
  3  4  2  0
  5  6  1  0
  6  1  2  0
  4  7  1  0
  5  4  1  0
 10  5  1  0
  7  8  1  0
  9 10  1  0
  8 11  1  0
  9  8  1  0
 14  9  1  0
 11 12  1  0
 12 13  1  0
 13 14  1  0
  1 15  1  0
 15 16  2  0
 15 17  1  0
 17 18  1  0
 18 19  1  0
 19 20  2  0
 19 24  1  0
 20 21  1  0
 21 22  2  0
 22 23  1  0
 23 24  2  0
 22 25  1  0
 24 26  1  0
  2 27  2  0
  3 28  1  0
  7 29  2  0
 11 30  1  0
  6 31  1  0
  9 32  1  6
 10 33  1  0
 10 34  1  0
 11 35  1  6
 12 36  1  0
 12 37  1  0
 13 38  1  0
 13 39  1  0
 17 40  1  0
 18 41  1  0
 18 42  1  0
 20 43  1  0
 21 44  1  0
 23 45  1  0
 28 46  1  0
 30 47  1  0
 30 48  1  0
 30 49  1  0
M  END
> <Uni-Dock RESULT> 
ENERGY=   -3.983  LOWER_BOUND=    8.488  UPPER_BOUND=    9.720
INTER + INTRA:          -3.983
INTER:                  -3.983
INTRA:                   0.000
UNBOUND:                 0.000

$$$$

     RDKit          3D

 49 52  0  0  0  0  0  0  0  0999 V2000
   48.3863    8.2832   17.3915 C   0  0  0  0  0  0  0  0  0  0  0  0
   48.5477    6.8160   17.2768 C   0  0  0  0  0  0  0  0  0  0  0  0
   48.4660    5.9740   18.5122 C   0  0  0  0  0  0  0  0  0  0  0  0
   48.2528    6.5917   19.6951 C   0  0  0  0  0  0  0  0  0  0  0  0
   48.1372    7.9930   19.7862 N   0  0  0  0  0  0  0  0  0  0  0  0
   48.1869    8.7606   18.6292 C   0  0  0  0  0  0  0  0  0  0  0  0
   48.1676    5.7448   20.9602 C   0  0  0  0  0  0  0  0  0  0  0  0
   48.2687    6.4207   22.1719 N   0  0  0  0  0  0  0  0  0  0  0  0
   48.4527    7.8500   22.2493 C   0  0  2  0  0  0  0  0  0  0  0  0
   47.8260    8.6218   21.0805 C   0  0  0  0  0  0  0  0  0  0  0  0
   48.6296    5.6675   23.3715 C   0  0  1  0  0  0  0  0  0  0  0  0
   49.6096    6.4837   24.2250 C   0  0  0  0  0  0  0  0  0  0  0  0
   50.5358    7.2722   23.3017 C   0  0  0  0  0  0  0  0  0  0  0  0
   49.8464    8.1310   22.3831 O   0  0  0  0  0  0  0  0  0  0  0  0
   48.4159    9.2344   16.2475 C   0  0  0  0  0  0  0  0  0  0  0  0
   48.1782   10.4288   16.4006 O   0  0  0  0  0  0  0  0  0  0  0  0
   48.7200    8.6777   15.0324 N   0  0  0  0  0  0  0  0  0  0  0  0
   48.6877    9.4333   13.7991 C   0  0  0  0  0  0  0  0  0  0  0  0
   47.3447    9.3929   13.1148 C   0  0  0  0  0  0  0  0  0  0  0  0
   46.4949    8.2758   13.1804 C   0  0  0  0  0  0  0  0  0  0  0  0
   45.2735    8.2765   12.5017 C   0  0  0  0  0  0  0  0  0  0  0  0
   44.9052    9.3840   11.7456 C   0  0  0  0  0  0  0  0  0  0  0  0
   45.7354   10.4897   11.6470 C   0  0  0  0  0  0  0  0  0  0  0  0
   46.9486   10.4815   12.3257 C   0  0  0  0  0  0  0  0  0  0  0  0
   43.7345    9.3771   11.0950 F   0  0  0  0  0  0  0  0  0  0  0  0
   47.7567   11.5445   12.2040 F   0  0  0  0  0  0  0  0  0  0  0  0
   48.7398    6.2566   16.1939 O   0  0  0  0  0  0  0  0  0  0  0  0
   48.6350    4.6150   18.3331 O   0  0  0  0  0  0  0  0  0  0  0  0
   48.0217    4.5247   20.9334 O   0  0  0  0  0  0  0  0  0  0  0  0
   47.3907    5.2653   24.1657 C   0  0  0  0  0  0  0  0  0  0  0  0
   48.0514    9.8281   18.7978 H   0  0  0  0  0  0  0  0  0  0  0  0
   47.9531    8.2134   23.1569 H   0  0  0  0  0  0  0  0  0  0  0  0
   46.7348    8.6344   21.1933 H   0  0  0  0  0  0  0  0  0  0  0  0
   48.1833    9.6588   21.0994 H   0  0  0  0  0  0  0  0  0  0  0  0
   49.1442    4.7492   23.0602 H   0  0  0  0  0  0  0  0  0  0  0  0
   50.1844    5.8256   24.8859 H   0  0  0  0  0  0  0  0  0  0  0  0
   49.0626    7.1855   24.8672 H   0  0  0  0  0  0  0  0  0  0  0  0
   51.2158    7.8966   23.8901 H   0  0  0  0  0  0  0  0  0  0  0  0
   51.1559    6.5884   22.7106 H   0  0  0  0  0  0  0  0  0  0  0  0
   48.8651    7.6712   14.9751 H   0  0  0  0  0  0  0  0  0  0  0  0
   48.9776   10.4671   14.0175 H   0  0  0  0  0  0  0  0  0  0  0  0
   49.4405    8.9987   13.1325 H   0  0  0  0  0  0  0  0  0  0  0  0
   46.7722    7.3980   13.7598 H   0  0  0  0  0  0  0  0  0  0  0  0
   44.6092    7.4192   12.5560 H   0  0  0  0  0  0  0  0  0  0  0  0
   45.4463   11.3445   11.0477 H   0  0  0  0  0  0  0  0  0  0  0  0
   48.7633    4.4815   17.3723 H   0  0  0  0  0  0  0  0  0  0  0  0
   46.8209    6.1444   24.4863 H   0  0  0  0  0  0  0  0  0  0  0  0
   46.7225    4.6454   23.5584 H   0  0  0  0  0  0  0  0  0  0  0  0
   47.6683    4.6934   25.0570 H   0  0  0  0  0  0  0  0  0  0  0  0
  1  2  1  0
  2  3  1  0
  3  4  2  0
  5  6  1  0
  6  1  2  0
  4  7  1  0
  5  4  1  0
 10  5  1  0
  7  8  1  0
  9 10  1  0
  8 11  1  0
  9  8  1  0
 14  9  1  0
 11 12  1  0
 12 13  1  0
 13 14  1  0
  1 15  1  0
 15 16  2  0
 15 17  1  0
 17 18  1  0
 18 19  1  0
 19 20  2  0
 19 24  1  0
 20 21  1  0
 21 22  2  0
 22 23  1  0
 23 24  2  0
 22 25  1  0
 24 26  1  0
  2 27  2  0
  3 28  1  0
  7 29  2  0
 11 30  1  0
  6 31  1  0
  9 32  1  6
 10 33  1  0
 10 34  1  0
 11 35  1  6
 12 36  1  0
 12 37  1  0
 13 38  1  0
 13 39  1  0
 17 40  1  0
 18 41  1  0
 18 42  1  0
 20 43  1  0
 21 44  1  0
 23 45  1  0
 28 46  1  0
 30 47  1  0
 30 48  1  0
 30 49  1  0
M  END
> <Uni-Dock RESULT> 
ENERGY=   -3.980  LOWER_BOUND=    4.493  UPPER_BOUND=    7.215
INTER + INTRA:          -3.980
INTER:                  -3.980
INTRA:                   0.000
UNBOUND:                 0.000

$$$$

     RDKit          3D

 49 52  0  0  0  0  0  0  0  0999 V2000
   46.4801    9.1576   12.6038 C   0  0  0  0  0  0  0  0  0  0  0  0
   47.1896   10.4554   12.5376 C   0  0  0  0  0  0  0  0  0  0  0  0
   46.5497   11.6011   11.8165 C   0  0  0  0  0  0  0  0  0  0  0  0
   45.3421   11.4026   11.2434 C   0  0  0  0  0  0  0  0  0  0  0  0
   44.7004   10.1491   11.2883 N   0  0  0  0  0  0  0  0  0  0  0  0
   45.2916    9.1020   11.9843 C   0  0  0  0  0  0  0  0  0  0  0  0
   44.6805   12.5619   10.5063 C   0  0  0  0  0  0  0  0  0  0  0  0
   43.6143   12.2436    9.6714 N   0  0  0  0  0  0  0  0  0  0  0  0
   43.1473   10.8898    9.4922 C   0  0  2  0  0  0  0  0  0  0  0  0
   43.3506    9.9941   10.7213 C   0  0  0  0  0  0  0  0  0  0  0  0
   43.2267   13.1928    8.6295 C   0  0  1  0  0  0  0  0  0  0  0  0
   42.8831   12.4385    7.3380 C   0  0  0  0  0  0  0  0  0  0  0  0
   43.8086   11.2311    7.2058 C   0  0  0  0  0  0  0  0  0  0  0  0
   43.7620   10.3383    8.3272 O   0  0  0  0  0  0  0  0  0  0  0  0
   46.9835    7.9477   13.3088 C   0  0  0  0  0  0  0  0  0  0  0  0
   46.3005    6.9327   13.4077 O   0  0  0  0  0  0  0  0  0  0  0  0
   48.2455    8.0590   13.8321 N   0  0  0  0  0  0  0  0  0  0  0  0
   48.8486    7.0212   14.6397 C   0  0  0  0  0  0  0  0  0  0  0  0
   48.5761    7.1844   16.1137 C   0  0  0  0  0  0  0  0  0  0  0  0
   48.4372    8.4429   16.7232 C   0  0  0  0  0  0  0  0  0  0  0  0
   48.2169    8.5408   18.0995 C   0  0  0  0  0  0  0  0  0  0  0  0
   48.1494    7.3859   18.8712 C   0  0  0  0  0  0  0  0  0  0  0  0
   48.3050    6.1335   18.2976 C   0  0  0  0  0  0  0  0  0  0  0  0
   48.5233    6.0445   16.9276 C   0  0  0  0  0  0  0  0  0  0  0  0
   47.9410    7.4868   20.1903 F   0  0  0  0  0  0  0  0  0  0  0  0
   48.6982    4.8307   16.3854 F   0  0  0  0  0  0  0  0  0  0  0  0
   48.2912   10.6321   13.0647 O   0  0  0  0  0  0  0  0  0  0  0  0
   47.2712   12.7783   11.7859 O   0  0  0  0  0  0  0  0  0  0  0  0
   45.0571   13.7257   10.6258 O   0  0  0  0  0  0  0  0  0  0  0  0
   42.0723   14.0779    9.0893 C   0  0  0  0  0  0  0  0  0  0  0  0
   44.7029    8.1855   11.9928 H   0  0  0  0  0  0  0  0  0  0  0  0
   42.0646   10.9194    9.3127 H   0  0  0  0  0  0  0  0  0  0  0  0
   42.6269   10.2694   11.4986 H   0  0  0  0  0  0  0  0  0  0  0  0
   43.1695    8.9492   10.4408 H   0  0  0  0  0  0  0  0  0  0  0  0
   44.0863   13.8418    8.4173 H   0  0  0  0  0  0  0  0  0  0  0  0
   42.9772   13.0999    6.4697 H   0  0  0  0  0  0  0  0  0  0  0  0
   41.8427   12.0905    7.3653 H   0  0  0  0  0  0  0  0  0  0  0  0
   43.5519   10.6526    6.3127 H   0  0  0  0  0  0  0  0  0  0  0  0
   44.8480   11.5594    7.0898 H   0  0  0  0  0  0  0  0  0  0  0  0
   48.7367    8.9471   13.7465 H   0  0  0  0  0  0  0  0  0  0  0  0
   48.4843    6.0503   14.2861 H   0  0  0  0  0  0  0  0  0  0  0  0
   49.9298    7.0653   14.4702 H   0  0  0  0  0  0  0  0  0  0  0  0
   48.4965    9.3562   16.1354 H   0  0  0  0  0  0  0  0  0  0  0  0
   48.1003    9.5105   18.5741 H   0  0  0  0  0  0  0  0  0  0  0  0
   48.2615    5.2389   18.9069 H   0  0  0  0  0  0  0  0  0  0  0  0
   48.0925   12.6069   12.2895 H   0  0  0  0  0  0  0  0  0  0  0  0
   41.1879   13.4809    9.3381 H   0  0  0  0  0  0  0  0  0  0  0  0
   42.3480   14.6442    9.9852 H   0  0  0  0  0  0  0  0  0  0  0  0
   41.7943   14.7923    8.3077 H   0  0  0  0  0  0  0  0  0  0  0  0
  1  2  1  0
  2  3  1  0
  3  4  2  0
  5  6  1  0
  6  1  2  0
  4  7  1  0
  5  4  1  0
 10  5  1  0
  7  8  1  0
  9 10  1  0
  8 11  1  0
  9  8  1  0
 14  9  1  0
 11 12  1  0
 12 13  1  0
 13 14  1  0
  1 15  1  0
 15 16  2  0
 15 17  1  0
 17 18  1  0
 18 19  1  0
 19 20  2  0
 19 24  1  0
 20 21  1  0
 21 22  2  0
 22 23  1  0
 23 24  2  0
 22 25  1  0
 24 26  1  0
  2 27  2  0
  3 28  1  0
  7 29  2  0
 11 30  1  0
  6 31  1  0
  9 32  1  6
 10 33  1  0
 10 34  1  0
 11 35  1  6
 12 36  1  0
 12 37  1  0
 13 38  1  0
 13 39  1  0
 17 40  1  0
 18 41  1  0
 18 42  1  0
 20 43  1  0
 21 44  1  0
 23 45  1  0
 28 46  1  0
 30 47  1  0
 30 48  1  0
 30 49  1  0
M  END
> <Uni-Dock RESULT> 
ENERGY=   -3.956  LOWER_BOUND=    4.895  UPPER_BOUND=    8.518
INTER + INTRA:          -3.956
INTER:                  -3.956
INTRA:                   0.000
UNBOUND:                 0.000

$$$$

     RDKit          3D

 49 52  0  0  0  0  0  0  0  0999 V2000
   51.6093    4.5345   17.7144 C   0  0  0  0  0  0  0  0  0  0  0  0
   50.9506    3.2089   17.7468 C   0  0  0  0  0  0  0  0  0  0  0  0
   51.7966    1.9743   17.7884 C   0  0  0  0  0  0  0  0  0  0  0  0
   53.1402    2.1186   17.7880 C   0  0  0  0  0  0  0  0  0  0  0  0
   53.7466    3.3887   17.7213 N   0  0  0  0  0  0  0  0  0  0  0  0
   52.9507    4.5275   17.7113 C   0  0  0  0  0  0  0  0  0  0  0  0
   54.0124    0.8686   17.8303 C   0  0  0  0  0  0  0  0  0  0  0  0
   55.3560    1.0337   17.5098 N   0  0  0  0  0  0  0  0  0  0  0  0
   55.9145    2.3137   17.1457 C   0  0  2  0  0  0  0  0  0  0  0  0
   55.2116    3.5086   17.8034 C   0  0  0  0  0  0  0  0  0  0  0  0
   56.1341   -0.1367   17.1082 C   0  0  1  0  0  0  0  0  0  0  0  0
   57.0656    0.2299   15.9450 C   0  0  0  0  0  0  0  0  0  0  0  0
   56.3599    1.2387   15.0416 C   0  0  0  0  0  0  0  0  0  0  0  0
   55.9281    2.4250   15.7220 O   0  0  0  0  0  0  0  0  0  0  0  0
   50.8947    5.8396   17.7004 C   0  0  0  0  0  0  0  0  0  0  0  0
   51.5020    6.9038   17.7720 O   0  0  0  0  0  0  0  0  0  0  0  0
   49.5295    5.7574   17.6074 N   0  0  0  0  0  0  0  0  0  0  0  0
   48.6715    6.9194   17.6885 C   0  0  0  0  0  0  0  0  0  0  0  0
   48.2303    7.2327   19.0959 C   0  0  0  0  0  0  0  0  0  0  0  0
   48.0167    6.2350   20.0621 C   0  0  0  0  0  0  0  0  0  0  0  0
   47.5770    6.5757   21.3439 C   0  0  0  0  0  0  0  0  0  0  0  0
   47.3359    7.9086   21.6589 C   0  0  0  0  0  0  0  0  0  0  0  0
   47.5180    8.9094   20.7172 C   0  0  0  0  0  0  0  0  0  0  0  0
   47.9562    8.5623   19.4443 C   0  0  0  0  0  0  0  0  0  0  0  0
   46.9117    8.2281   22.8884 F   0  0  0  0  0  0  0  0  0  0  0  0
   48.1050    9.5338   18.5322 F   0  0  0  0  0  0  0  0  0  0  0  0
   49.7232    3.0827   17.7493 O   0  0  0  0  0  0  0  0  0  0  0  0
   51.1164    0.7725   17.8075 O   0  0  0  0  0  0  0  0  0  0  0  0
   53.5701   -0.2395   18.1255 O   0  0  0  0  0  0  0  0  0  0  0  0
   56.9076   -0.7180   18.2878 C   0  0  0  0  0  0  0  0  0  0  0  0
   53.5112    5.4614   17.6957 H   0  0  0  0  0  0  0  0  0  0  0  0
   56.9565    2.3459   17.4902 H   0  0  0  0  0  0  0  0  0  0  0  0
   55.4851    3.5552   18.8649 H   0  0  0  0  0  0  0  0  0  0  0  0
   55.5487    4.4353   17.3229 H   0  0  0  0  0  0  0  0  0  0  0  0
   55.4388   -0.9061   16.7481 H   0  0  0  0  0  0  0  0  0  0  0  0
   57.3498   -0.6664   15.3827 H   0  0  0  0  0  0  0  0  0  0  0  0
   57.9924    0.6776   16.3256 H   0  0  0  0  0  0  0  0  0  0  0  0
   57.0236    1.5482   14.2279 H   0  0  0  0  0  0  0  0  0  0  0  0
   55.4755    0.7834   14.5810 H   0  0  0  0  0  0  0  0  0  0  0  0
   49.0922    4.8377   17.5933 H   0  0  0  0  0  0  0  0  0  0  0  0
   49.2013    7.7733   17.2520 H   0  0  0  0  0  0  0  0  0  0  0  0
   47.7875    6.7134   17.0754 H   0  0  0  0  0  0  0  0  0  0  0  0
   48.1917    5.1871   19.8291 H   0  0  0  0  0  0  0  0  0  0  0  0
   47.4185    5.8095   22.0969 H   0  0  0  0  0  0  0  0  0  0  0  0
   47.3182    9.9444   20.9669 H   0  0  0  0  0  0  0  0  0  0  0  0
   50.1645    0.9990   17.8071 H   0  0  0  0  0  0  0  0  0  0  0  0
   57.6058    0.0155   18.7060 H   0  0  0  0  0  0  0  0  0  0  0  0
   56.2264   -1.0170   19.0915 H   0  0  0  0  0  0  0  0  0  0  0  0
   57.4799   -1.5996   17.9816 H   0  0  0  0  0  0  0  0  0  0  0  0
  1  2  1  0
  2  3  1  0
  3  4  2  0
  5  6  1  0
  6  1  2  0
  4  7  1  0
  5  4  1  0
 10  5  1  0
  7  8  1  0
  9 10  1  0
  8 11  1  0
  9  8  1  0
 14  9  1  0
 11 12  1  0
 12 13  1  0
 13 14  1  0
  1 15  1  0
 15 16  2  0
 15 17  1  0
 17 18  1  0
 18 19  1  0
 19 20  2  0
 19 24  1  0
 20 21  1  0
 21 22  2  0
 22 23  1  0
 23 24  2  0
 22 25  1  0
 24 26  1  0
  2 27  2  0
  3 28  1  0
  7 29  2  0
 11 30  1  0
  6 31  1  0
  9 32  1  6
 10 33  1  0
 10 34  1  0
 11 35  1  6
 12 36  1  0
 12 37  1  0
 13 38  1  0
 13 39  1  0
 17 40  1  0
 18 41  1  0
 18 42  1  0
 20 43  1  0
 21 44  1  0
 23 45  1  0
 28 46  1  0
 30 47  1  0
 30 48  1  0
 30 49  1  0
M  END
> <Uni-Dock RESULT> 
ENERGY=   -3.889  LOWER_BOUND=    7.513  UPPER_BOUND=   11.056
INTER + INTRA:          -3.889
INTER:                  -3.889
INTRA:                   0.000
UNBOUND:                 0.000

$$$$

     RDKit          3D

 49 52  0  0  0  0  0  0  0  0999 V2000
   48.7586   11.6758   22.6199 C   0  0  0  0  0  0  0  0  0  0  0  0
   48.0153   12.2535   21.4772 C   0  0  0  0  0  0  0  0  0  0  0  0
   48.4500   13.5715   20.9152 C   0  0  0  0  0  0  0  0  0  0  0  0
   49.5088   14.1912   21.4817 C   0  0  0  0  0  0  0  0  0  0  0  0
   50.1802   13.6403   22.5912 N   0  0  0  0  0  0  0  0  0  0  0  0
   49.7847   12.4036   23.0857 C   0  0  0  0  0  0  0  0  0  0  0  0
   49.9609   15.5339   20.9180 C   0  0  0  0  0  0  0  0  0  0  0  0
   50.8281   16.2822   21.7073 N   0  0  0  0  0  0  0  0  0  0  0  0
   51.2830   15.8318   23.0008 C   0  0  2  0  0  0  0  0  0  0  0  0
   51.3779   14.3057   23.1298 C   0  0  0  0  0  0  0  0  0  0  0  0
   50.9524   17.7164   21.4539 C   0  0  1  0  0  0  0  0  0  0  0  0
   51.0277   18.4769   22.7847 C   0  0  0  0  0  0  0  0  0  0  0  0
   50.1302   17.7819   23.8063 C   0  0  0  0  0  0  0  0  0  0  0  0
   50.4452   16.3977   24.0093 O   0  0  0  0  0  0  0  0  0  0  0  0
   48.4554   10.3657   23.2572 C   0  0  0  0  0  0  0  0  0  0  0  0
   49.1720    9.9003   24.1383 O   0  0  0  0  0  0  0  0  0  0  0  0
   47.3351    9.7320   22.7859 N   0  0  0  0  0  0  0  0  0  0  0  0
   46.9520    8.4045   23.2148 C   0  0  0  0  0  0  0  0  0  0  0  0
   47.5344    7.3127   22.3532 C   0  0  0  0  0  0  0  0  0  0  0  0
   47.7670    7.4771   20.9772 C   0  0  0  0  0  0  0  0  0  0  0  0
   48.2790    6.4229   20.2164 C   0  0  0  0  0  0  0  0  0  0  0  0
   48.5456    5.2003   20.8231 C   0  0  0  0  0  0  0  0  0  0  0  0
   48.3044    5.0057   22.1742 C   0  0  0  0  0  0  0  0  0  0  0  0
   47.7954    6.0597   22.9244 C   0  0  0  0  0  0  0  0  0  0  0  0
   49.0335    4.1929   20.0876 F   0  0  0  0  0  0  0  0  0  0  0  0
   47.5411    5.8548   24.2248 F   0  0  0  0  0  0  0  0  0  0  0  0
   47.0505   11.6824   20.9620 O   0  0  0  0  0  0  0  0  0  0  0  0
   47.7061   14.0553   19.8569 O   0  0  0  0  0  0  0  0  0  0  0  0
   49.5866   15.9550   19.8257 O   0  0  0  0  0  0  0  0  0  0  0  0
   52.1537   18.0188   20.5635 C   0  0  0  0  0  0  0  0  0  0  0  0
   50.3869   12.0451   23.9196 H   0  0  0  0  0  0  0  0  0  0  0  0
   52.2994   16.2147   23.1615 H   0  0  0  0  0  0  0  0  0  0  0  0
   52.2454   13.9438   22.5641 H   0  0  0  0  0  0  0  0  0  0  0  0
   51.5230   14.0406   24.1843 H   0  0  0  0  0  0  0  0  0  0  0  0
   50.0492   18.0532   20.9287 H   0  0  0  0  0  0  0  0  0  0  0  0
   50.7279   19.5218   22.6481 H   0  0  0  0  0  0  0  0  0  0  0  0
   52.0584   18.4851   23.1612 H   0  0  0  0  0  0  0  0  0  0  0  0
   50.2024   18.2825   24.7771 H   0  0  0  0  0  0  0  0  0  0  0  0
   49.0816   17.8379   23.4917 H   0  0  0  0  0  0  0  0  0  0  0  0
   46.8120   10.1598   22.0238 H   0  0  0  0  0  0  0  0  0  0  0  0
   47.2579    8.2753   24.2590 H   0  0  0  0  0  0  0  0  0  0  0  0
   45.8590    8.3510   23.1676 H   0  0  0  0  0  0  0  0  0  0  0  0
   47.5552    8.4240   20.4855 H   0  0  0  0  0  0  0  0  0  0  0  0
   48.4686    6.5473   19.1544 H   0  0  0  0  0  0  0  0  0  0  0  0
   48.5049    4.0473   22.6376 H   0  0  0  0  0  0  0  0  0  0  0  0
   47.0194   13.3818   19.6770 H   0  0  0  0  0  0  0  0  0  0  0  0
   53.0876   17.6831   21.0278 H   0  0  0  0  0  0  0  0  0  0  0  0
   52.0639   17.5058   19.6001 H   0  0  0  0  0  0  0  0  0  0  0  0
   52.2344   19.0933   20.3702 H   0  0  0  0  0  0  0  0  0  0  0  0
  1  2  1  0
  2  3  1  0
  3  4  2  0
  5  6  1  0
  6  1  2  0
  4  7  1  0
  5  4  1  0
 10  5  1  0
  7  8  1  0
  9 10  1  0
  8 11  1  0
  9  8  1  0
 14  9  1  0
 11 12  1  0
 12 13  1  0
 13 14  1  0
  1 15  1  0
 15 16  2  0
 15 17  1  0
 17 18  1  0
 18 19  1  0
 19 20  2  0
 19 24  1  0
 20 21  1  0
 21 22  2  0
 22 23  1  0
 23 24  2  0
 22 25  1  0
 24 26  1  0
  2 27  2  0
  3 28  1  0
  7 29  2  0
 11 30  1  0
  6 31  1  0
  9 32  1  6
 10 33  1  0
 10 34  1  0
 11 35  1  6
 12 36  1  0
 12 37  1  0
 13 38  1  0
 13 39  1  0
 17 40  1  0
 18 41  1  0
 18 42  1  0
 20 43  1  0
 21 44  1  0
 23 45  1  0
 28 46  1  0
 30 47  1  0
 30 48  1  0
 30 49  1  0
M  END
> <Uni-Dock RESULT> 
ENERGY=   -3.803  LOWER_BOUND=    9.199  UPPER_BOUND=   11.478
INTER + INTRA:          -3.803
INTER:                  -3.803
INTRA:                   0.000
UNBOUND:                 0.000

$$$$
