
     RDKit          3D

 49 52  0  0  0  0  0  0  0  0999 V2000
   44.3463   10.0642   11.5135 C   0  0  0  0  0  0  0  0  0  0  0  0
   43.0160    9.8624   10.8960 C   0  0  0  0  0  0  0  0  0  0  0  0
   42.1745   11.0569   10.5690 C   0  0  0  0  0  0  0  0  0  0  0  0
   42.6551   12.2819   10.8758 C   0  0  0  0  0  0  0  0  0  0  0  0
   43.9017   12.4485   11.5110 N   0  0  0  0  0  0  0  0  0  0  0  0
   44.6900   11.3347   11.7732 C   0  0  0  0  0  0  0  0  0  0  0  0
   41.8053   13.5055   10.5514 C   0  0  0  0  0  0  0  0  0  0  0  0
   42.1705   14.6992   11.1654 N   0  0  0  0  0  0  0  0  0  0  0  0
   43.2905   14.7940   12.0705 C   0  0  2  0  0  0  0  0  0  0  0  0
   44.4212   13.8021   11.7661 C   0  0  0  0  0  0  0  0  0  0  0  0
   41.1844   15.7740   11.2595 C   0  0  1  0  0  0  0  0  0  0  0  0
   41.2759   16.4470   12.6357 C   0  0  0  0  0  0  0  0  0  0  0  0
   41.6112   15.3894   13.6850 C   0  0  0  0  0  0  0  0  0  0  0  0
   42.8162   14.6618   13.4109 O   0  0  0  0  0  0  0  0  0  0  0  0
   45.3015    8.9756   11.8545 C   0  0  0  0  0  0  0  0  0  0  0  0
   46.3766    9.2095   12.4000 O   0  0  0  0  0  0  0  0  0  0  0  0
   44.8981    7.7095   11.5199 N   0  0  0  0  0  0  0  0  0  0  0  0
   45.6485    6.5459   11.9335 C   0  0  0  0  0  0  0  0  0  0  0  0
   45.2464    5.3262   11.1532 C   0  0  0  0  0  0  0  0  0  0  0  0
   45.3975    5.2853    9.7571 C   0  0  0  0  0  0  0  0  0  0  0  0
   45.0284    4.1442    9.0422 C   0  0  0  0  0  0  0  0  0  0  0  0
   44.5133    3.0442    9.7203 C   0  0  0  0  0  0  0  0  0  0  0  0
   44.3606    3.0601   11.0989 C   0  0  0  0  0  0  0  0  0  0  0  0
   44.7301    4.2000   11.8037 C   0  0  0  0  0  0  0  0  0  0  0  0
   44.1615    1.9516    9.0304 F   0  0  0  0  0  0  0  0  0  0  0  0
   44.5824    4.2061   13.1361 F   0  0  0  0  0  0  0  0  0  0  0  0
   42.5721    8.7415   10.6363 O   0  0  0  0  0  0  0  0  0  0  0  0
   40.9474   10.7950    9.9918 O   0  0  0  0  0  0  0  0  0  0  0  0
   40.8402   13.4611    9.7917 O   0  0  0  0  0  0  0  0  0  0  0  0
   41.3548   16.7818   10.1269 C   0  0  0  0  0  0  0  0  0  0  0  0
   45.6520   11.5689   12.2273 H   0  0  0  0  0  0  0  0  0  0  0  0
   43.7293   15.7956   11.9721 H   0  0  0  0  0  0  0  0  0  0  0  0
   44.9622   14.1280   10.8689 H   0  0  0  0  0  0  0  0  0  0  0  0
   45.1273   13.7905   12.6053 H   0  0  0  0  0  0  0  0  0  0  0  0
   40.1834   15.3323   11.1708 H   0  0  0  0  0  0  0  0  0  0  0  0
   40.3360   16.9545   12.8787 H   0  0  0  0  0  0  0  0  0  0  0  0
   42.0630   17.2117   12.6342 H   0  0  0  0  0  0  0  0  0  0  0  0
   41.7235   15.8544   14.6696 H   0  0  0  0  0  0  0  0  0  0  0  0
   40.7970   14.6598   13.7636 H   0  0  0  0  0  0  0  0  0  0  0  0
   43.9443    7.5749   11.1852 H   0  0  0  0  0  0  0  0  0  0  0  0
   45.4733    6.4152   13.0071 H   0  0  0  0  0  0  0  0  0  0  0  0
   46.7209    6.7323   11.8015 H   0  0  0  0  0  0  0  0  0  0  0  0
   45.8020    6.1443    9.2247 H   0  0  0  0  0  0  0  0  0  0  0  0
   45.1393    4.1061    7.9627 H   0  0  0  0  0  0  0  0  0  0  0  0
   43.9604    2.1975   11.6183 H   0  0  0  0  0  0  0  0  0  0  0  0
   40.8924    9.8219    9.9023 H   0  0  0  0  0  0  0  0  0  0  0  0
   42.3487   17.2421   10.1501 H   0  0  0  0  0  0  0  0  0  0  0  0
   40.6069   17.5780   10.1984 H   0  0  0  0  0  0  0  0  0  0  0  0
   41.2418   16.2955    9.1520 H   0  0  0  0  0  0  0  0  0  0  0  0
  1  2  1  0
  2  3  1  0
  3  4  2  0
  5  6  1  0
  6  1  2  0
  4  7  1  0
  5  4  1  0
 10  5  1  0
  7  8  1  0
  9 10  1  0
  8 11  1  0
  9  8  1  0
 14  9  1  0
 11 12  1  0
 12 13  1  0
 13 14  1  0
  1 15  1  0
 15 16  2  0
 15 17  1  0
 17 18  1  0
 18 19  1  0
 19 20  2  0
 19 24  1  0
 20 21  1  0
 21 22  2  0
 22 23  1  0
 23 24  2  0
 22 25  1  0
 24 26  1  0
  2 27  2  0
  3 28  1  0
  7 29  2  0
 11 30  1  0
  6 31  1  0
  9 32  1  1
 10 33  1  0
 10 34  1  0
 11 35  1  6
 12 36  1  0
 12 37  1  0
 13 38  1  0
 13 39  1  0
 17 40  1  0
 18 41  1  0
 18 42  1  0
 20 43  1  0
 21 44  1  0
 23 45  1  0
 28 46  1  0
 30 47  1  0
 30 48  1  0
 30 49  1  0
M  END
> <Uni-Dock RESULT> 
ENERGY=   -5.003  LOWER_BOUND=    0.000  UPPER_BOUND=    0.000
INTER + INTRA:          -5.003
INTER:                  -5.003
INTRA:                   0.000
UNBOUND:                 0.000

$$$$

     RDKit          3D

 49 52  0  0  0  0  0  0  0  0999 V2000
   48.2915    9.5202   17.3236 C   0  0  0  0  0  0  0  0  0  0  0  0
   49.0075    9.3920   16.0342 C   0  0  0  0  0  0  0  0  0  0  0  0
   49.3963   10.6311   15.2889 C   0  0  0  0  0  0  0  0  0  0  0  0
   49.0537   11.8280   15.8141 C   0  0  0  0  0  0  0  0  0  0  0  0
   48.3263   11.9260   17.0169 N   0  0  0  0  0  0  0  0  0  0  0  0
   48.0061   10.7702   17.7185 C   0  0  0  0  0  0  0  0  0  0  0  0
   49.4406   13.0966   15.0621 C   0  0  0  0  0  0  0  0  0  0  0  0
   48.8003   14.2700   15.4475 N   0  0  0  0  0  0  0  0  0  0  0  0
   47.8135   14.3045   16.4998 C   0  0  2  0  0  0  0  0  0  0  0  0
   48.0323   13.2489   17.5920 C   0  0  0  0  0  0  0  0  0  0  0  0
   48.7803   15.3995   14.5199 C   0  0  1  0  0  0  0  0  0  0  0  0
   47.4007   16.0714   14.5459 C   0  0  0  0  0  0  0  0  0  0  0  0
   46.3296   15.0006   14.7405 C   0  0  0  0  0  0  0  0  0  0  0  0
   46.5126   14.2046   15.9194 O   0  0  0  0  0  0  0  0  0  0  0  0
   47.8800    8.3805   18.1869 C   0  0  0  0  0  0  0  0  0  0  0  0
   47.2550    8.5551   19.2296 O   0  0  0  0  0  0  0  0  0  0  0  0
   48.2446    7.1381   17.7384 N   0  0  0  0  0  0  0  0  0  0  0  0
   47.7762    5.9354   18.3882 C   0  0  0  0  0  0  0  0  0  0  0  0
   48.5852    4.7374   17.9771 C   0  0  0  0  0  0  0  0  0  0  0  0
   49.9659    4.6827   18.2301 C   0  0  0  0  0  0  0  0  0  0  0  0
   50.7071    3.5617   17.8514 C   0  0  0  0  0  0  0  0  0  0  0  0
   50.0702    2.4954   17.2250 C   0  0  0  0  0  0  0  0  0  0  0  0
   48.7069    2.5252   16.9703 C   0  0  0  0  0  0  0  0  0  0  0  0
   47.9758    3.6449   17.3500 C   0  0  0  0  0  0  0  0  0  0  0  0
   50.7851    1.4218   16.8645 F   0  0  0  0  0  0  0  0  0  0  0  0
   46.6584    3.6646   17.1031 F   0  0  0  0  0  0  0  0  0  0  0  0
   49.3003    8.2971   15.5479 O   0  0  0  0  0  0  0  0  0  0  0  0
   50.0644   10.4372   14.0958 O   0  0  0  0  0  0  0  0  0  0  0  0
   50.2708   13.1042   14.1559 O   0  0  0  0  0  0  0  0  0  0  0  0
   49.8964   16.3916   14.8321 C   0  0  0  0  0  0  0  0  0  0  0  0
   47.4808   10.9512   18.6555 H   0  0  0  0  0  0  0  0  0  0  0  0
   47.8781   15.2792   17.0011 H   0  0  0  0  0  0  0  0  0  0  0  0
   48.8861   13.5401   18.2165 H   0  0  0  0  0  0  0  0  0  0  0  0
   47.1423   13.2004   18.2311 H   0  0  0  0  0  0  0  0  0  0  0  0
   48.9442   15.0149   13.5048 H   0  0  0  0  0  0  0  0  0  0  0  0
   47.2290   16.6325   13.6207 H   0  0  0  0  0  0  0  0  0  0  0  0
   47.3426   16.7901   15.3730 H   0  0  0  0  0  0  0  0  0  0  0  0
   45.3392   15.4622   14.8048 H   0  0  0  0  0  0  0  0  0  0  0  0
   46.3129   14.3187   13.8825 H   0  0  0  0  0  0  0  0  0  0  0  0
   48.6503    7.0566   16.8063 H   0  0  0  0  0  0  0  0  0  0  0  0
   46.7189    5.8189   18.1256 H   0  0  0  0  0  0  0  0  0  0  0  0
   47.8271    6.0600   19.4763 H   0  0  0  0  0  0  0  0  0  0  0  0
   50.4660    5.5153   18.7217 H   0  0  0  0  0  0  0  0  0  0  0  0
   51.7751    3.5132   18.0409 H   0  0  0  0  0  0  0  0  0  0  0  0
   48.2195    1.6887   16.4837 H   0  0  0  0  0  0  0  0  0  0  0  0
   50.1582    9.4684   13.9924 H   0  0  0  0  0  0  0  0  0  0  0  0
   49.7982   16.7948   15.8460 H   0  0  0  0  0  0  0  0  0  0  0  0
   49.8810   17.2292   14.1274 H   0  0  0  0  0  0  0  0  0  0  0  0
   50.8772   15.9088   14.7651 H   0  0  0  0  0  0  0  0  0  0  0  0
  1  2  1  0
  2  3  1  0
  3  4  2  0
  5  6  1  0
  6  1  2  0
  4  7  1  0
  5  4  1  0
 10  5  1  0
  7  8  1  0
  9 10  1  0
  8 11  1  0
  9  8  1  0
 14  9  1  0
 11 12  1  0
 12 13  1  0
 13 14  1  0
  1 15  1  0
 15 16  2  0
 15 17  1  0
 17 18  1  0
 18 19  1  0
 19 20  2  0
 19 24  1  0
 20 21  1  0
 21 22  2  0
 22 23  1  0
 23 24  2  0
 22 25  1  0
 24 26  1  0
  2 27  2  0
  3 28  1  0
  7 29  2  0
 11 30  1  0
  6 31  1  0
  9 32  1  1
 10 33  1  0
 10 34  1  0
 11 35  1  6
 12 36  1  0
 12 37  1  0
 13 38  1  0
 13 39  1  0
 17 40  1  0
 18 41  1  0
 18 42  1  0
 20 43  1  0
 21 44  1  0
 23 45  1  0
 28 46  1  0
 30 47  1  0
 30 48  1  0
 30 49  1  0
M  END
> <Uni-Dock RESULT> 
ENERGY=   -4.662  LOWER_BOUND=    6.703  UPPER_BOUND=    7.887
INTER + INTRA:          -4.662
INTER:                  -4.662
INTRA:                   0.000
UNBOUND:                 0.000

$$$$

     RDKit          3D

 49 52  0  0  0  0  0  0  0  0999 V2000
   54.4121    7.1450    7.0840 C   0  0  0  0  0  0  0  0  0  0  0  0
   53.5083    6.9828    8.2453 C   0  0  0  0  0  0  0  0  0  0  0  0
   53.8660    6.0001    9.3168 C   0  0  0  0  0  0  0  0  0  0  0  0
   54.9966    5.2751    9.1691 C   0  0  0  0  0  0  0  0  0  0  0  0
   55.8157    5.4079    8.0302 N   0  0  0  0  0  0  0  0  0  0  0  0
   55.4935    6.3512    7.0623 C   0  0  0  0  0  0  0  0  0  0  0  0
   55.3689    4.2683   10.2517 C   0  0  0  0  0  0  0  0  0  0  0  0
   56.3355    3.3243    9.9200 N   0  0  0  0  0  0  0  0  0  0  0  0
   56.9620    3.2806    8.6207 C   0  0  2  0  0  0  0  0  0  0  0  0
   57.0748    4.6507    7.9387 C   0  0  0  0  0  0  0  0  0  0  0  0
   56.4227    2.0973   10.7094 C   0  0  1  0  0  0  0  0  0  0  0  0
   56.6747    0.8988    9.7845 C   0  0  0  0  0  0  0  0  0  0  0  0
   55.9243    1.1167    8.4726 C   0  0  0  0  0  0  0  0  0  0  0  0
   56.2689    2.3372    7.8029 O   0  0  0  0  0  0  0  0  0  0  0  0
   54.2030    8.1079    5.9692 C   0  0  0  0  0  0  0  0  0  0  0  0
   54.9743    8.1663    5.0154 O   0  0  0  0  0  0  0  0  0  0  0  0
   53.1006    8.9137    6.0837 N   0  0  0  0  0  0  0  0  0  0  0  0
   52.6858    9.7804    5.0045 C   0  0  0  0  0  0  0  0  0  0  0  0
   51.7109   10.8212    5.4786 C   0  0  0  0  0  0  0  0  0  0  0  0
   52.0761   11.7485    6.4687 C   0  0  0  0  0  0  0  0  0  0  0  0
   51.1657   12.7167    6.8966 C   0  0  0  0  0  0  0  0  0  0  0  0
   49.8943   12.7619    6.3339 C   0  0  0  0  0  0  0  0  0  0  0  0
   49.5139   11.8601    5.3509 C   0  0  0  0  0  0  0  0  0  0  0  0
   50.4258   10.8988    4.9304 C   0  0  0  0  0  0  0  0  0  0  0  0
   49.0248   13.6930    6.7468 F   0  0  0  0  0  0  0  0  0  0  0  0
   50.0515   10.0331    3.9778 F   0  0  0  0  0  0  0  0  0  0  0  0
   52.4665    7.6317    8.3665 O   0  0  0  0  0  0  0  0  0  0  0  0
   52.9799    5.9034   10.3718 O   0  0  0  0  0  0  0  0  0  0  0  0
   54.8514    4.2702   11.3665 O   0  0  0  0  0  0  0  0  0  0  0  0
   57.4934    2.2099   11.7904 C   0  0  0  0  0  0  0  0  0  0  0  0
   56.2085    6.4078    6.2425 H   0  0  0  0  0  0  0  0  0  0  0  0
   57.9905    2.9172    8.7460 H   0  0  0  0  0  0  0  0  0  0  0  0
   57.8575    5.2413    8.4311 H   0  0  0  0  0  0  0  0  0  0  0  0
   57.3624    4.5096    6.8897 H   0  0  0  0  0  0  0  0  0  0  0  0
   55.4568    1.9374   11.2059 H   0  0  0  0  0  0  0  0  0  0  0  0
   56.3570   -0.0323   10.2666 H   0  0  0  0  0  0  0  0  0  0  0  0
   57.7467    0.8007    9.5715 H   0  0  0  0  0  0  0  0  0  0  0  0
   56.1241    0.2928    7.7801 H   0  0  0  0  0  0  0  0  0  0  0  0
   54.8429    1.1333    8.6510 H   0  0  0  0  0  0  0  0  0  0  0  0
   52.4370    8.7270    6.8353 H   0  0  0  0  0  0  0  0  0  0  0  0
   52.2498    9.1415    4.2285 H   0  0  0  0  0  0  0  0  0  0  0  0
   53.5636   10.2689    4.5653 H   0  0  0  0  0  0  0  0  0  0  0  0
   53.0711   11.7160    6.9091 H   0  0  0  0  0  0  0  0  0  0  0  0
   51.4395   13.4349    7.6635 H   0  0  0  0  0  0  0  0  0  0  0  0
   48.5220   11.9047    4.9173 H   0  0  0  0  0  0  0  0  0  0  0  0
   52.2679    6.5492   10.1875 H   0  0  0  0  0  0  0  0  0  0  0  0
   58.4815    2.3932   11.3541 H   0  0  0  0  0  0  0  0  0  0  0  0
   57.5459    1.2913   12.3835 H   0  0  0  0  0  0  0  0  0  0  0  0
   57.2758    3.0412   12.4695 H   0  0  0  0  0  0  0  0  0  0  0  0
  1  2  1  0
  2  3  1  0
  3  4  2  0
  5  6  1  0
  6  1  2  0
  4  7  1  0
  5  4  1  0
 10  5  1  0
  7  8  1  0
  9 10  1  0
  8 11  1  0
  9  8  1  0
 14  9  1  0
 11 12  1  0
 12 13  1  0
 13 14  1  0
  1 15  1  0
 15 16  2  0
 15 17  1  0
 17 18  1  0
 18 19  1  0
 19 20  2  0
 19 24  1  0
 20 21  1  0
 21 22  2  0
 22 23  1  0
 23 24  2  0
 22 25  1  0
 24 26  1  0
  2 27  2  0
  3 28  1  0
  7 29  2  0
 11 30  1  0
  6 31  1  0
  9 32  1  1
 10 33  1  0
 10 34  1  0
 11 35  1  6
 12 36  1  0
 12 37  1  0
 13 38  1  0
 13 39  1  0
 17 40  1  0
 18 41  1  0
 18 42  1  0
 20 43  1  0
 21 44  1  0
 23 45  1  0
 28 46  1  0
 30 47  1  0
 30 48  1  0
 30 49  1  0
M  END
> <Uni-Dock RESULT> 
ENERGY=   -4.550  LOWER_BOUND=   10.309  UPPER_BOUND=   14.604
INTER + INTRA:          -4.550
INTER:                  -4.550
INTRA:                   0.000
UNBOUND:                 0.000

$$$$

     RDKit          3D

 49 52  0  0  0  0  0  0  0  0999 V2000
   47.8008    8.4608   14.1569 C   0  0  0  0  0  0  0  0  0  0  0  0
   48.5021    7.2478   14.6348 C   0  0  0  0  0  0  0  0  0  0  0  0
   49.6048    7.3897   15.6376 C   0  0  0  0  0  0  0  0  0  0  0  0
   49.9370    8.6321   16.0524 C   0  0  0  0  0  0  0  0  0  0  0  0
   49.2915    9.7773   15.5453 N   0  0  0  0  0  0  0  0  0  0  0  0
   48.2435    9.6295   14.6450 C   0  0  0  0  0  0  0  0  0  0  0  0
   51.0612    8.7894   17.0702 C   0  0  0  0  0  0  0  0  0  0  0  0
   51.5903   10.0669   17.2228 N   0  0  0  0  0  0  0  0  0  0  0  0
   51.1162   11.1978   16.4619 C   0  0  2  0  0  0  0  0  0  0  0  0
   49.6344   11.1081   16.0730 C   0  0  0  0  0  0  0  0  0  0  0  0
   52.9154   10.2142   17.8218 C   0  0  1  0  0  0  0  0  0  0  0  0
   53.7106   11.2910   17.0711 C   0  0  0  0  0  0  0  0  0  0  0  0
   53.3557   11.2271   15.5872 C   0  0  0  0  0  0  0  0  0  0  0  0
   51.9544   11.3723   15.3191 O   0  0  0  0  0  0  0  0  0  0  0  0
   46.6654    8.4657   13.1954 C   0  0  0  0  0  0  0  0  0  0  0  0
   46.1510    9.5127   12.8114 O   0  0  0  0  0  0  0  0  0  0  0  0
   46.2420    7.2321   12.7751 N   0  0  0  0  0  0  0  0  0  0  0  0
   45.2597    7.0905   11.7248 C   0  0  0  0  0  0  0  0  0  0  0  0
   44.6812    5.7037   11.6961 C   0  0  0  0  0  0  0  0  0  0  0  0
   43.9912    5.1908   12.8071 C   0  0  0  0  0  0  0  0  0  0  0  0
   43.4506    3.9041   12.7674 C   0  0  0  0  0  0  0  0  0  0  0  0
   43.5948    3.1325   11.6191 C   0  0  0  0  0  0  0  0  0  0  0  0
   44.2672    3.6204   10.5082 C   0  0  0  0  0  0  0  0  0  0  0  0
   44.8030    4.9023   10.5555 C   0  0  0  0  0  0  0  0  0  0  0  0
   43.0736    1.8992   11.5854 F   0  0  0  0  0  0  0  0  0  0  0  0
   45.4485    5.3677    9.4767 F   0  0  0  0  0  0  0  0  0  0  0  0
   48.2097    6.1171   14.2384 O   0  0  0  0  0  0  0  0  0  0  0  0
   50.2123    6.2170   16.0417 O   0  0  0  0  0  0  0  0  0  0  0  0
   51.4956    7.8481   17.7304 O   0  0  0  0  0  0  0  0  0  0  0  0
   52.8173   10.5228   19.3127 C   0  0  0  0  0  0  0  0  0  0  0  0
   47.7818   10.5688   14.3434 H   0  0  0  0  0  0  0  0  0  0  0  0
   51.2138   12.0972   17.0842 H   0  0  0  0  0  0  0  0  0  0  0  0
   49.0121   11.2880   16.9586 H   0  0  0  0  0  0  0  0  0  0  0  0
   49.4076   11.8848   15.3325 H   0  0  0  0  0  0  0  0  0  0  0  0
   53.4527    9.2637   17.7083 H   0  0  0  0  0  0  0  0  0  0  0  0
   54.7864   11.1497   17.2222 H   0  0  0  0  0  0  0  0  0  0  0  0
   53.4601   12.2875   17.4563 H   0  0  0  0  0  0  0  0  0  0  0  0
   53.8801   12.0153   15.0377 H   0  0  0  0  0  0  0  0  0  0  0  0
   53.6748   10.2692   15.1606 H   0  0  0  0  0  0  0  0  0  0  0  0
   46.7923    6.4139   13.0350 H   0  0  0  0  0  0  0  0  0  0  0  0
   45.7588    7.3401   10.7819 H   0  0  0  0  0  0  0  0  0  0  0  0
   44.4568    7.8230   11.8692 H   0  0  0  0  0  0  0  0  0  0  0  0
   43.8758    5.7937   13.7061 H   0  0  0  0  0  0  0  0  0  0  0  0
   42.9185    3.4996   13.6232 H   0  0  0  0  0  0  0  0  0  0  0  0
   44.3724    3.0125    9.6176 H   0  0  0  0  0  0  0  0  0  0  0  0
   49.7533    5.4960   15.5645 H   0  0  0  0  0  0  0  0  0  0  0  0
   52.2686   11.4542   19.4909 H   0  0  0  0  0  0  0  0  0  0  0  0
   53.8132   10.6219   19.7561 H   0  0  0  0  0  0  0  0  0  0  0  0
   52.2871    9.7239   19.8421 H   0  0  0  0  0  0  0  0  0  0  0  0
  1  2  1  0
  2  3  1  0
  3  4  2  0
  5  6  1  0
  6  1  2  0
  4  7  1  0
  5  4  1  0
 10  5  1  0
  7  8  1  0
  9 10  1  0
  8 11  1  0
  9  8  1  0
 14  9  1  0
 11 12  1  0
 12 13  1  0
 13 14  1  0
  1 15  1  0
 15 16  2  0
 15 17  1  0
 17 18  1  0
 18 19  1  0
 19 20  2  0
 19 24  1  0
 20 21  1  0
 21 22  2  0
 22 23  1  0
 23 24  2  0
 22 25  1  0
 24 26  1  0
  2 27  2  0
  3 28  1  0
  7 29  2  0
 11 30  1  0
  6 31  1  0
  9 32  1  1
 10 33  1  0
 10 34  1  0
 11 35  1  6
 12 36  1  0
 12 37  1  0
 13 38  1  0
 13 39  1  0
 17 40  1  0
 18 41  1  0
 18 42  1  0
 20 43  1  0
 21 44  1  0
 23 45  1  0
 28 46  1  0
 30 47  1  0
 30 48  1  0
 30 49  1  0
M  END
> <Uni-Dock RESULT> 
ENERGY=   -4.525  LOWER_BOUND=    5.735  UPPER_BOUND=    8.514
INTER + INTRA:          -4.525
INTER:                  -4.525
INTRA:                   0.000
UNBOUND:                 0.000

$$$$

     RDKit          3D

 49 52  0  0  0  0  0  0  0  0999 V2000
   45.8102   10.2886   11.9568 C   0  0  0  0  0  0  0  0  0  0  0  0
   44.3648   10.3259   11.6390 C   0  0  0  0  0  0  0  0  0  0  0  0
   43.6269    9.0377   11.4439 C   0  0  0  0  0  0  0  0  0  0  0  0
   44.3200    7.8819   11.5416 C   0  0  0  0  0  0  0  0  0  0  0  0
   45.7064    7.8709   11.7933 N   0  0  0  0  0  0  0  0  0  0  0  0
   46.3714    9.0712   12.0114 C   0  0  0  0  0  0  0  0  0  0  0  0
   43.5803    6.5639   11.3407 C   0  0  0  0  0  0  0  0  0  0  0  0
   44.3641    5.4355   11.1226 N   0  0  0  0  0  0  0  0  0  0  0  0
   45.8056    5.4899   11.0799 C   0  0  2  0  0  0  0  0  0  0  0  0
   46.4124    6.5901   11.9611 C   0  0  0  0  0  0  0  0  0  0  0  0
   43.7535    4.2627   10.4998 C   0  0  1  0  0  0  0  0  0  0  0  0
   44.7264    3.6439    9.4869 C   0  0  0  0  0  0  0  0  0  0  0  0
   45.5139    4.7617    8.8070 C   0  0  0  0  0  0  0  0  0  0  0  0
   46.2253    5.6084    9.7202 O   0  0  0  0  0  0  0  0  0  0  0  0
   46.6575   11.4844   12.2136 C   0  0  0  0  0  0  0  0  0  0  0  0
   47.8611   11.3851   12.4365 O   0  0  0  0  0  0  0  0  0  0  0  0
   46.0043   12.6886   12.1829 N   0  0  0  0  0  0  0  0  0  0  0  0
   46.7256   13.9387   12.2553 C   0  0  0  0  0  0  0  0  0  0  0  0
   45.8095   15.0841   12.5827 C   0  0  0  0  0  0  0  0  0  0  0  0
   45.0826   15.1008   13.7847 C   0  0  0  0  0  0  0  0  0  0  0  0
   44.2402   16.1735   14.0831 C   0  0  0  0  0  0  0  0  0  0  0  0
   44.1270   17.2298   13.1852 C   0  0  0  0  0  0  0  0  0  0  0  0
   44.8395   17.2373   11.9950 C   0  0  0  0  0  0  0  0  0  0  0  0
   45.6760   16.1656   11.7048 C   0  0  0  0  0  0  0  0  0  0  0  0
   43.3185   18.2571   13.4763 F   0  0  0  0  0  0  0  0  0  0  0  0
   46.3635   16.1819   10.5541 F   0  0  0  0  0  0  0  0  0  0  0  0
   43.7400   11.3836   11.5304 O   0  0  0  0  0  0  0  0  0  0  0  0
   42.2811    9.1471   11.1536 O   0  0  0  0  0  0  0  0  0  0  0  0
   42.3542    6.4806   11.3630 O   0  0  0  0  0  0  0  0  0  0  0  0
   43.3104    3.2471   11.5484 C   0  0  0  0  0  0  0  0  0  0  0  0
   47.4304    8.9567   12.2390 H   0  0  0  0  0  0  0  0  0  0  0  0
   46.1979    4.5398   11.4657 H   0  0  0  0  0  0  0  0  0  0  0  0
   46.3330    6.2993   13.0161 H   0  0  0  0  0  0  0  0  0  0  0  0
   47.4757    6.7031   11.7169 H   0  0  0  0  0  0  0  0  0  0  0  0
   42.8623    4.5897    9.9485 H   0  0  0  0  0  0  0  0  0  0  0  0
   44.1827    3.0440    8.7488 H   0  0  0  0  0  0  0  0  0  0  0  0
   45.4277    2.9700    9.9950 H   0  0  0  0  0  0  0  0  0  0  0  0
   46.2451    4.3405    8.1099 H   0  0  0  0  0  0  0  0  0  0  0  0
   44.8412    5.4000    8.2226 H   0  0  0  0  0  0  0  0  0  0  0  0
   45.0342   12.7085   11.8694 H   0  0  0  0  0  0  0  0  0  0  0  0
   47.2210   14.0806   11.2884 H   0  0  0  0  0  0  0  0  0  0  0  0
   47.5134   13.8668   13.0145 H   0  0  0  0  0  0  0  0  0  0  0  0
   45.1710   14.2760   14.4896 H   0  0  0  0  0  0  0  0  0  0  0  0
   43.6728   16.1922   15.0088 H   0  0  0  0  0  0  0  0  0  0  0  0
   44.7463   18.0657   11.3029 H   0  0  0  0  0  0  0  0  0  0  0  0
   42.0820   10.1055   11.1500 H   0  0  0  0  0  0  0  0  0  0  0  0
   44.1584    2.8990   12.1484 H   0  0  0  0  0  0  0  0  0  0  0  0
   42.8453    2.3764   11.0751 H   0  0  0  0  0  0  0  0  0  0  0  0
   42.5821    3.6897   12.2365 H   0  0  0  0  0  0  0  0  0  0  0  0
  1  2  1  0
  2  3  1  0
  3  4  2  0
  5  6  1  0
  6  1  2  0
  4  7  1  0
  5  4  1  0
 10  5  1  0
  7  8  1  0
  9 10  1  0
  8 11  1  0
  9  8  1  0
 14  9  1  0
 11 12  1  0
 12 13  1  0
 13 14  1  0
  1 15  1  0
 15 16  2  0
 15 17  1  0
 17 18  1  0
 18 19  1  0
 19 20  2  0
 19 24  1  0
 20 21  1  0
 21 22  2  0
 22 23  1  0
 23 24  2  0
 22 25  1  0
 24 26  1  0
  2 27  2  0
  3 28  1  0
  7 29  2  0
 11 30  1  0
  6 31  1  0
  9 32  1  1
 10 33  1  0
 10 34  1  0
 11 35  1  6
 12 36  1  0
 12 37  1  0
 13 38  1  0
 13 39  1  0
 17 40  1  0
 18 41  1  0
 18 42  1  0
 20 43  1  0
 21 44  1  0
 23 45  1  0
 28 46  1  0
 30 47  1  0
 30 48  1  0
 30 49  1  0
M  END
> <Uni-Dock RESULT> 
ENERGY=   -4.137  LOWER_BOUND=    4.214  UPPER_BOUND=    9.450
INTER + INTRA:          -4.137
INTER:                  -4.137
INTRA:                   0.000
UNBOUND:                 0.000

$$$$

     RDKit          3D

 49 52  0  0  0  0  0  0  0  0999 V2000
   45.6853   10.0620   11.8800 C   0  0  0  0  0  0  0  0  0  0  0  0
   46.9260    9.3964   12.3375 C   0  0  0  0  0  0  0  0  0  0  0  0
   48.0677   10.2348   12.8227 C   0  0  0  0  0  0  0  0  0  0  0  0
   47.9297   11.5788   12.8006 C   0  0  0  0  0  0  0  0  0  0  0  0
   46.7596   12.1932   12.3122 N   0  0  0  0  0  0  0  0  0  0  0  0
   45.6926   11.4034   11.9018 C   0  0  0  0  0  0  0  0  0  0  0  0
   49.0872   12.4430   13.2883 C   0  0  0  0  0  0  0  0  0  0  0  0
   49.0442   13.7918   12.9506 N   0  0  0  0  0  0  0  0  0  0  0  0
   47.9697   14.3622   12.1742 C   0  0  2  0  0  0  0  0  0  0  0  0
   46.6203   13.6576   12.3688 C   0  0  0  0  0  0  0  0  0  0  0  0
   50.2821   14.5680   12.9893 C   0  0  1  0  0  0  0  0  0  0  0  0
   50.3422   15.5146   11.7828 C   0  0  0  0  0  0  0  0  0  0  0  0
   49.7069   14.8250   10.5776 C   0  0  0  0  0  0  0  0  0  0  0  0
   48.3569   14.3951   10.8002 O   0  0  0  0  0  0  0  0  0  0  0  0
   44.4626    9.3559   11.4107 C   0  0  0  0  0  0  0  0  0  0  0  0
   43.4780    9.9705   11.0095 O   0  0  0  0  0  0  0  0  0  0  0  0
   44.5159    7.9875   11.4583 N   0  0  0  0  0  0  0  0  0  0  0  0
   43.4681    7.1727   10.8870 C   0  0  0  0  0  0  0  0  0  0  0  0
   43.5437    5.7548   11.3794 C   0  0  0  0  0  0  0  0  0  0  0  0
   43.4219    5.4630   12.7481 C   0  0  0  0  0  0  0  0  0  0  0  0
   43.4855    4.1416   13.1946 C   0  0  0  0  0  0  0  0  0  0  0  0
   43.6661    3.1130   12.2757 C   0  0  0  0  0  0  0  0  0  0  0  0
   43.7831    3.3772   10.9189 C   0  0  0  0  0  0  0  0  0  0  0  0
   43.7191    4.6954   10.4822 C   0  0  0  0  0  0  0  0  0  0  0  0
   43.7255    1.8470   12.7085 F   0  0  0  0  0  0  0  0  0  0  0  0
   43.8298    4.9420    9.1692 F   0  0  0  0  0  0  0  0  0  0  0  0
   47.0558    8.1699   12.3368 O   0  0  0  0  0  0  0  0  0  0  0  0
   49.1918    9.5478   13.2374 O   0  0  0  0  0  0  0  0  0  0  0  0
   50.0227   11.9908   13.9448 O   0  0  0  0  0  0  0  0  0  0  0  0
   50.4194   15.3249   14.3068 C   0  0  0  0  0  0  0  0  0  0  0  0
   44.8192   11.9696   11.5808 H   0  0  0  0  0  0  0  0  0  0  0  0
   47.8214   15.3998   12.5012 H   0  0  0  0  0  0  0  0  0  0  0  0
   46.2104   13.9175   13.3529 H   0  0  0  0  0  0  0  0  0  0  0  0
   45.9169   14.0063   11.6029 H   0  0  0  0  0  0  0  0  0  0  0  0
   51.1277   13.8727   12.9094 H   0  0  0  0  0  0  0  0  0  0  0  0
   51.3783   15.7994   11.5689 H   0  0  0  0  0  0  0  0  0  0  0  0
   49.7922   16.4398   11.9967 H   0  0  0  0  0  0  0  0  0  0  0  0
   49.7004   15.4988    9.7150 H   0  0  0  0  0  0  0  0  0  0  0  0
   50.2906   13.9419   10.2930 H   0  0  0  0  0  0  0  0  0  0  0  0
   45.4055    7.5424   11.6827 H   0  0  0  0  0  0  0  0  0  0  0  0
   43.5746    7.2289    9.7980 H   0  0  0  0  0  0  0  0  0  0  0  0
   42.4900    7.5996   11.1385 H   0  0  0  0  0  0  0  0  0  0  0  0
   43.2788    6.2663   13.4687 H   0  0  0  0  0  0  0  0  0  0  0  0
   43.3952    3.9083   14.2512 H   0  0  0  0  0  0  0  0  0  0  0  0
   43.9215    2.5689   10.2108 H   0  0  0  0  0  0  0  0  0  0  0  0
   48.9831    8.5975   13.1304 H   0  0  0  0  0  0  0  0  0  0  0  0
   49.5872   16.0221   14.4537 H   0  0  0  0  0  0  0  0  0  0  0  0
   51.3531   15.8957   14.3324 H   0  0  0  0  0  0  0  0  0  0  0  0
   50.4205   14.6328   15.1557 H   0  0  0  0  0  0  0  0  0  0  0  0
  1  2  1  0
  2  3  1  0
  3  4  2  0
  5  6  1  0
  6  1  2  0
  4  7  1  0
  5  4  1  0
 10  5  1  0
  7  8  1  0
  9 10  1  0
  8 11  1  0
  9  8  1  0
 14  9  1  0
 11 12  1  0
 12 13  1  0
 13 14  1  0
  1 15  1  0
 15 16  2  0
 15 17  1  0
 17 18  1  0
 18 19  1  0
 19 20  2  0
 19 24  1  0
 20 21  1  0
 21 22  2  0
 22 23  1  0
 23 24  2  0
 22 25  1  0
 24 26  1  0
  2 27  2  0
  3 28  1  0
  7 29  2  0
 11 30  1  0
  6 31  1  0
  9 32  1  1
 10 33  1  0
 10 34  1  0
 11 35  1  6
 12 36  1  0
 12 37  1  0
 13 38  1  0
 13 39  1  0
 17 40  1  0
 18 41  1  0
 18 42  1  0
 20 43  1  0
 21 44  1  0
 23 45  1  0
 28 46  1  0
 30 47  1  0
 30 48  1  0
 30 49  1  0
M  END
> <Uni-Dock RESULT> 
ENERGY=   -3.978  LOWER_BOUND=    3.490  UPPER_BOUND=    5.569
INTER + INTRA:          -3.978
INTER:                  -3.978
INTRA:                   0.000
UNBOUND:                 0.000

$$$$

     RDKit          3D

 49 52  0  0  0  0  0  0  0  0999 V2000
   48.4621    7.2834   15.0805 C   0  0  0  0  0  0  0  0  0  0  0  0
   48.3742    5.9300   15.6740 C   0  0  0  0  0  0  0  0  0  0  0  0
   47.6057    4.8658   14.9538 C   0  0  0  0  0  0  0  0  0  0  0  0
   46.9961    5.1912   13.7926 C   0  0  0  0  0  0  0  0  0  0  0  0
   47.0491    6.4993   13.2718 N   0  0  0  0  0  0  0  0  0  0  0  0
   47.7981    7.4674   13.9294 C   0  0  0  0  0  0  0  0  0  0  0  0
   46.2071    4.1168   13.0524 C   0  0  0  0  0  0  0  0  0  0  0  0
   45.3371    4.5548   12.0592 N   0  0  0  0  0  0  0  0  0  0  0  0
   45.1717    5.9512   11.7346 C   0  0  2  0  0  0  0  0  0  0  0  0
   46.4303    6.7973   11.9697 C   0  0  0  0  0  0  0  0  0  0  0  0
   44.2570    3.6696   11.6276 C   0  0  1  0  0  0  0  0  0  0  0  0
   42.9704    4.4798   11.4187 C   0  0  0  0  0  0  0  0  0  0  0  0
   42.9084    5.5924   12.4628 C   0  0  0  0  0  0  0  0  0  0  0  0
   44.0474    6.4639   12.4503 O   0  0  0  0  0  0  0  0  0  0  0  0
   49.2212    8.4223   15.6640 C   0  0  0  0  0  0  0  0  0  0  0  0
   49.2230    9.5320   15.1381 O   0  0  0  0  0  0  0  0  0  0  0  0
   49.9085    8.1452   16.8167 N   0  0  0  0  0  0  0  0  0  0  0  0
   50.5555    9.1896   17.5773 C   0  0  0  0  0  0  0  0  0  0  0  0
   51.5409    8.6238   18.5609 C   0  0  0  0  0  0  0  0  0  0  0  0
   52.6385    7.8652   18.1214 C   0  0  0  0  0  0  0  0  0  0  0  0
   53.5528    7.3507   19.0427 C   0  0  0  0  0  0  0  0  0  0  0  0
   53.3740    7.5968   20.4000 C   0  0  0  0  0  0  0  0  0  0  0  0
   52.3008    8.3479   20.8563 C   0  0  0  0  0  0  0  0  0  0  0  0
   51.3945    8.8565   19.9330 C   0  0  0  0  0  0  0  0  0  0  0  0
   54.2542    7.1021   21.2799 F   0  0  0  0  0  0  0  0  0  0  0  0
   50.3619    9.5840   20.3817 F   0  0  0  0  0  0  0  0  0  0  0  0
   48.9150    5.6424   16.7444 O   0  0  0  0  0  0  0  0  0  0  0  0
   47.5684    3.6268   15.5629 O   0  0  0  0  0  0  0  0  0  0  0  0
   46.3163    2.9193   13.3065 O   0  0  0  0  0  0  0  0  0  0  0  0
   44.6452    2.8948   10.3721 C   0  0  0  0  0  0  0  0  0  0  0  0
   47.8117    8.4343   13.4279 H   0  0  0  0  0  0  0  0  0  0  0  0
   44.9465    6.0317   10.6631 H   0  0  0  0  0  0  0  0  0  0  0  0
   47.1697    6.5779   11.1893 H   0  0  0  0  0  0  0  0  0  0  0  0
   46.1686    7.8603   11.9033 H   0  0  0  0  0  0  0  0  0  0  0  0
   44.0665    2.9427   12.4278 H   0  0  0  0  0  0  0  0  0  0  0  0
   42.0913    3.8297   11.4876 H   0  0  0  0  0  0  0  0  0  0  0  0
   42.9610    4.9281   10.4172 H   0  0  0  0  0  0  0  0  0  0  0  0
   42.0186    6.2103   12.3061 H   0  0  0  0  0  0  0  0  0  0  0  0
   42.8318    5.1656   13.4696 H   0  0  0  0  0  0  0  0  0  0  0  0
   49.7626    7.2410   17.2651 H   0  0  0  0  0  0  0  0  0  0  0  0
   49.7651    9.7590   18.0788 H   0  0  0  0  0  0  0  0  0  0  0  0
   51.0678    9.8791   16.8960 H   0  0  0  0  0  0  0  0  0  0  0  0
   52.7813    7.6730   17.0595 H   0  0  0  0  0  0  0  0  0  0  0  0
   54.4020    6.7610   18.7109 H   0  0  0  0  0  0  0  0  0  0  0  0
   52.1713    8.5358   21.9155 H   0  0  0  0  0  0  0  0  0  0  0  0
   48.0975    3.7117   16.3819 H   0  0  0  0  0  0  0  0  0  0  0  0
   44.8701    3.5716    9.5405 H   0  0  0  0  0  0  0  0  0  0  0  0
   43.8355    2.2270   10.0608 H   0  0  0  0  0  0  0  0  0  0  0  0
   45.5384    2.2864   10.5499 H   0  0  0  0  0  0  0  0  0  0  0  0
  1  2  1  0
  2  3  1  0
  3  4  2  0
  5  6  1  0
  6  1  2  0
  4  7  1  0
  5  4  1  0
 10  5  1  0
  7  8  1  0
  9 10  1  0
  8 11  1  0
  9  8  1  0
 14  9  1  0
 11 12  1  0
 12 13  1  0
 13 14  1  0
  1 15  1  0
 15 16  2  0
 15 17  1  0
 17 18  1  0
 18 19  1  0
 19 20  2  0
 19 24  1  0
 20 21  1  0
 21 22  2  0
 22 23  1  0
 23 24  2  0
 22 25  1  0
 24 26  1  0
  2 27  2  0
  3 28  1  0
  7 29  2  0
 11 30  1  0
  6 31  1  0
  9 32  1  1
 10 33  1  0
 10 34  1  0
 11 35  1  6
 12 36  1  0
 12 37  1  0
 13 38  1  0
 13 39  1  0
 17 40  1  0
 18 41  1  0
 18 42  1  0
 20 43  1  0
 21 44  1  0
 23 45  1  0
 28 46  1  0
 30 47  1  0
 30 48  1  0
 30 49  1  0
M  END
> <Uni-Dock RESULT> 
ENERGY=   -3.777  LOWER_BOUND=    7.057  UPPER_BOUND=   10.419
INTER + INTRA:          -3.777
INTER:                  -3.777
INTRA:                   0.000
UNBOUND:                 0.000

$$$$

     RDKit          3D

 49 52  0  0  0  0  0  0  0  0999 V2000
   46.0128    8.7507   12.3928 C   0  0  0  0  0  0  0  0  0  0  0  0
   46.8286    9.9860   12.4012 C   0  0  0  0  0  0  0  0  0  0  0  0
   48.1586    9.9777   13.0891 C   0  0  0  0  0  0  0  0  0  0  0  0
   48.5550    8.8408   13.7023 C   0  0  0  0  0  0  0  0  0  0  0  0
   47.7397    7.6918   13.7269 N   0  0  0  0  0  0  0  0  0  0  0  0
   46.5255    7.7003   13.0514 C   0  0  0  0  0  0  0  0  0  0  0  0
   49.9055    8.8217   14.4096 C   0  0  0  0  0  0  0  0  0  0  0  0
   50.1325    7.7706   15.2923 N   0  0  0  0  0  0  0  0  0  0  0  0
   49.1502    6.7437   15.5433 C   0  0  2  0  0  0  0  0  0  0  0  0
   48.2363    6.4518   14.3455 C   0  0  0  0  0  0  0  0  0  0  0  0
   51.1750    7.9147   16.3067 C   0  0  1  0  0  0  0  0  0  0  0  0
   50.6899    7.3296   17.6400 C   0  0  0  0  0  0  0  0  0  0  0  0
   49.1949    7.6030   17.7884 C   0  0  0  0  0  0  0  0  0  0  0  0
   48.4017    7.0924   16.7082 O   0  0  0  0  0  0  0  0  0  0  0  0
   44.6953    8.6040   11.7173 C   0  0  0  0  0  0  0  0  0  0  0  0
   44.0521    7.5598   11.7800 O   0  0  0  0  0  0  0  0  0  0  0  0
   44.2582    9.7057   11.0297 N   0  0  0  0  0  0  0  0  0  0  0  0
   42.9305    9.7616   10.4623 C   0  0  0  0  0  0  0  0  0  0  0  0
   42.8085   10.8712    9.4561 C   0  0  0  0  0  0  0  0  0  0  0  0
   43.6145   10.8885    8.3056 C   0  0  0  0  0  0  0  0  0  0  0  0
   43.4879   11.9197    7.3728 C   0  0  0  0  0  0  0  0  0  0  0  0
   42.5552   12.9295    7.5861 C   0  0  0  0  0  0  0  0  0  0  0  0
   41.7449   12.9297    8.7119 C   0  0  0  0  0  0  0  0  0  0  0  0
   41.8771   11.8998    9.6363 C   0  0  0  0  0  0  0  0  0  0  0  0
   42.4366   13.9160    6.6880 F   0  0  0  0  0  0  0  0  0  0  0  0
   41.0881   11.9056   10.7200 F   0  0  0  0  0  0  0  0  0  0  0  0
   46.4541   11.0279   11.8579 O   0  0  0  0  0  0  0  0  0  0  0  0
   48.8670   11.1628   13.0546 O   0  0  0  0  0  0  0  0  0  0  0  0
   50.7631    9.6828   14.2267 O   0  0  0  0  0  0  0  0  0  0  0  0
   52.4820    7.2727   15.8518 C   0  0  0  0  0  0  0  0  0  0  0  0
   45.9878    6.7539   13.0934 H   0  0  0  0  0  0  0  0  0  0  0  0
   49.6792    5.8059   15.7583 H   0  0  0  0  0  0  0  0  0  0  0  0
   48.7983    5.8985   13.5827 H   0  0  0  0  0  0  0  0  0  0  0  0
   47.3987    5.8248   14.6745 H   0  0  0  0  0  0  0  0  0  0  0  0
   51.3604    8.9856   16.4609 H   0  0  0  0  0  0  0  0  0  0  0  0
   51.2511    7.7612   18.4760 H   0  0  0  0  0  0  0  0  0  0  0  0
   50.8595    6.2457   17.6646 H   0  0  0  0  0  0  0  0  0  0  0  0
   48.8179    7.1568   18.7141 H   0  0  0  0  0  0  0  0  0  0  0  0
   49.0097    8.6816   17.8513 H   0  0  0  0  0  0  0  0  0  0  0  0
   44.7804   10.5767   11.1229 H   0  0  0  0  0  0  0  0  0  0  0  0
   42.2302    9.8918   11.2948 H   0  0  0  0  0  0  0  0  0  0  0  0
   42.6919    8.8031    9.9863 H   0  0  0  0  0  0  0  0  0  0  0  0
   44.3437   10.0984    8.1360 H   0  0  0  0  0  0  0  0  0  0  0  0
   44.1093   11.9416    6.4827 H   0  0  0  0  0  0  0  0  0  0  0  0
   41.0199   13.7196    8.8681 H   0  0  0  0  0  0  0  0  0  0  0  0
   48.3180   11.7917   12.5435 H   0  0  0  0  0  0  0  0  0  0  0  0
   52.3534    6.2018   15.6596 H   0  0  0  0  0  0  0  0  0  0  0  0
   53.2603    7.3932   16.6121 H   0  0  0  0  0  0  0  0  0  0  0  0
   52.8393    7.7314   14.9236 H   0  0  0  0  0  0  0  0  0  0  0  0
  1  2  1  0
  2  3  1  0
  3  4  2  0
  5  6  1  0
  6  1  2  0
  4  7  1  0
  5  4  1  0
 10  5  1  0
  7  8  1  0
  9 10  1  0
  8 11  1  0
  9  8  1  0
 14  9  1  0
 11 12  1  0
 12 13  1  0
 13 14  1  0
  1 15  1  0
 15 16  2  0
 15 17  1  0
 17 18  1  0
 18 19  1  0
 19 20  2  0
 19 24  1  0
 20 21  1  0
 21 22  2  0
 22 23  1  0
 23 24  2  0
 22 25  1  0
 24 26  1  0
  2 27  2  0
  3 28  1  0
  7 29  2  0
 11 30  1  0
  6 31  1  0
  9 32  1  1
 10 33  1  0
 10 34  1  0
 11 35  1  6
 12 36  1  0
 12 37  1  0
 13 38  1  0
 13 39  1  0
 17 40  1  0
 18 41  1  0
 18 42  1  0
 20 43  1  0
 21 44  1  0
 23 45  1  0
 28 46  1  0
 30 47  1  0
 30 48  1  0
 30 49  1  0
M  END
> <Uni-Dock RESULT> 
ENERGY=   -3.747  LOWER_BOUND=    4.838  UPPER_BOUND=    8.911
INTER + INTRA:          -3.747
INTER:                  -3.747
INTRA:                   0.000
UNBOUND:                 0.000

$$$$

     RDKit          3D

 49 52  0  0  0  0  0  0  0  0999 V2000
   50.1594    6.7543   16.1328 C   0  0  0  0  0  0  0  0  0  0  0  0
   49.1513    5.7941   16.6362 C   0  0  0  0  0  0  0  0  0  0  0  0
   48.0072    5.4063   15.7516 C   0  0  0  0  0  0  0  0  0  0  0  0
   47.9247    5.9715   14.5270 C   0  0  0  0  0  0  0  0  0  0  0  0
   48.8665    6.9229   14.0876 N   0  0  0  0  0  0  0  0  0  0  0  0
   49.9450    7.2445   14.9025 C   0  0  0  0  0  0  0  0  0  0  0  0
   46.7617    5.5875   13.6190 C   0  0  0  0  0  0  0  0  0  0  0  0
   46.5254    6.4136   12.5249 N   0  0  0  0  0  0  0  0  0  0  0  0
   47.3259    7.5823   12.2492 C   0  0  2  0  0  0  0  0  0  0  0  0
   48.7814    7.4641   12.7212 C   0  0  0  0  0  0  0  0  0  0  0  0
   45.2117    6.3776   11.8851 C   0  0  1  0  0  0  0  0  0  0  0  0
   44.7710    7.8011   11.5180 C   0  0  0  0  0  0  0  0  0  0  0  0
   45.2621    8.7667   12.5942 C   0  0  0  0  0  0  0  0  0  0  0  0
   46.6802    8.7285   12.8046 O   0  0  0  0  0  0  0  0  0  0  0  0
   51.3641    7.1978   16.8849 C   0  0  0  0  0  0  0  0  0  0  0  0
   52.1432    8.0269   16.4224 O   0  0  0  0  0  0  0  0  0  0  0  0
   51.5376    6.6209   18.1157 N   0  0  0  0  0  0  0  0  0  0  0  0
   52.5704    7.0719   19.0201 C   0  0  0  0  0  0  0  0  0  0  0  0
   52.8159    6.0737   20.1163 C   0  0  0  0  0  0  0  0  0  0  0  0
   53.2444    4.7698   19.8168 C   0  0  0  0  0  0  0  0  0  0  0  0
   53.4775    3.8522   20.8431 C   0  0  0  0  0  0  0  0  0  0  0  0
   53.2872    4.2370   22.1662 C   0  0  0  0  0  0  0  0  0  0  0  0
   52.8701    5.5208   22.4857 C   0  0  0  0  0  0  0  0  0  0  0  0
   52.6398    6.4286   21.4584 C   0  0  0  0  0  0  0  0  0  0  0  0
   53.5131    3.3537   23.1473 F   0  0  0  0  0  0  0  0  0  0  0  0
   52.2399    7.6681   21.7756 F   0  0  0  0  0  0  0  0  0  0  0  0
   49.2190    5.2960   17.7624 O   0  0  0  0  0  0  0  0  0  0  0  0
   47.1072    4.5041   16.2840 O   0  0  0  0  0  0  0  0  0  0  0  0
   46.0539    4.6043   13.8264 O   0  0  0  0  0  0  0  0  0  0  0  0
   45.2139    5.4570   10.6686 C   0  0  0  0  0  0  0  0  0  0  0  0
   50.6395    7.9568   14.4588 H   0  0  0  0  0  0  0  0  0  0  0  0
   47.3691    7.7216   11.1610 H   0  0  0  0  0  0  0  0  0  0  0  0
   49.3275    6.7832   12.0564 H   0  0  0  0  0  0  0  0  0  0  0  0
   49.2595    8.4498   12.6683 H   0  0  0  0  0  0  0  0  0  0  0  0
   44.4870    5.9807   12.6078 H   0  0  0  0  0  0  0  0  0  0  0  0
   43.6814    7.8517   11.4152 H   0  0  0  0  0  0  0  0  0  0  0  0
   45.1990    8.0950   10.5513 H   0  0  0  0  0  0  0  0  0  0  0  0
   44.9953    9.7952   12.3311 H   0  0  0  0  0  0  0  0  0  0  0  0
   44.7811    8.5439   13.5536 H   0  0  0  0  0  0  0  0  0  0  0  0
   50.7896    6.0371   18.4895 H   0  0  0  0  0  0  0  0  0  0  0  0
   52.2479    8.0399   19.4194 H   0  0  0  0  0  0  0  0  0  0  0  0
   53.4988    7.2452   18.4632 H   0  0  0  0  0  0  0  0  0  0  0  0
   53.3956    4.4671   18.7822 H   0  0  0  0  0  0  0  0  0  0  0  0
   53.8059    2.8417   20.6194 H   0  0  0  0  0  0  0  0  0  0  0  0
   52.7267    5.8116   23.5195 H   0  0  0  0  0  0  0  0  0  0  0  0
   47.4385    4.2875   17.1792 H   0  0  0  0  0  0  0  0  0  0  0  0
   45.9382    5.7916    9.9178 H   0  0  0  0  0  0  0  0  0  0  0  0
   44.2246    5.4275   10.2009 H   0  0  0  0  0  0  0  0  0  0  0  0
   45.4860    4.4350   10.9536 H   0  0  0  0  0  0  0  0  0  0  0  0
  1  2  1  0
  2  3  1  0
  3  4  2  0
  5  6  1  0
  6  1  2  0
  4  7  1  0
  5  4  1  0
 10  5  1  0
  7  8  1  0
  9 10  1  0
  8 11  1  0
  9  8  1  0
 14  9  1  0
 11 12  1  0
 12 13  1  0
 13 14  1  0
  1 15  1  0
 15 16  2  0
 15 17  1  0
 17 18  1  0
 18 19  1  0
 19 20  2  0
 19 24  1  0
 20 21  1  0
 21 22  2  0
 22 23  1  0
 23 24  2  0
 22 25  1  0
 24 26  1  0
  2 27  2  0
  3 28  1  0
  7 29  2  0
 11 30  1  0
  6 31  1  0
  9 32  1  1
 10 33  1  0
 10 34  1  0
 11 35  1  6
 12 36  1  0
 12 37  1  0
 13 38  1  0
 13 39  1  0
 17 40  1  0
 18 41  1  0
 18 42  1  0
 20 43  1  0
 21 44  1  0
 23 45  1  0
 28 46  1  0
 30 47  1  0
 30 48  1  0
 30 49  1  0
M  END
> <Uni-Dock RESULT> 
ENERGY=   -3.744  LOWER_BOUND=    7.710  UPPER_BOUND=   10.646
INTER + INTRA:          -3.744
INTER:                  -3.744
INTRA:                   0.000
UNBOUND:                 0.000

$$$$
