
     RDKit          3D

 71 70  0  0  0  0  0  0  0  0999 V2000
   47.5074    6.4426   12.8463 C   0  0  0  0  0  0  0  0  0  0  0  0
   46.2834    6.3512   12.1640 C   0  0  0  0  0  0  0  0  0  0  0  0
   47.6983    5.6521   13.9920 C   0  0  0  0  0  0  0  0  0  0  0  0
   45.2890    5.4887   12.6231 C   0  0  0  0  0  0  0  0  0  0  0  0
   46.6903    4.8002   14.4360 C   0  0  0  0  0  0  0  0  0  0  0  0
   45.4804    4.7114   13.7593 C   0  0  0  0  0  0  0  0  0  0  0  0
   49.5503    9.7051   12.7099 N   0  0  0  0  0  0  0  0  0  0  0  0
   48.6054    7.3823   12.3960 C   0  0  2  0  0  0  0  0  0  0  0  0
   48.6487    8.6692   13.2574 C   0  0  0  0  0  0  0  0  0  0  0  0
   46.9338    4.0603   15.5558 O   0  0  0  0  0  0  0  0  0  0  0  0
   44.0942    5.3791   11.9722 O   0  0  0  0  0  0  0  0  0  0  0  0
   48.4284    7.7579   11.0246 O   0  0  0  0  0  0  0  0  0  0  0  0
   50.9803    9.3642   12.7465 C   0  0  0  0  0  0  0  0  0  0  0  0
   51.7359   10.4688   12.0022 C   0  0  0  0  0  0  0  0  0  0  0  0
   51.5285    9.2314   14.1689 C   0  0  0  0  0  0  0  0  0  0  0  0
   48.4050    7.7741   12.6883 S   0  0  0  0  0  0  0  0  0  0  0  0
   47.2731    8.6453   12.8759 O   0  0  0  0  0  0  0  0  0  0  0  0
   48.9170    7.3871   11.3983 O   0  0  0  0  0  0  0  0  0  0  0  0
   48.0945    6.4432   13.5282 O   0  0  0  0  0  0  0  0  0  0  0  0
   49.6467    8.3742   13.5081 O   0  0  0  0  0  0  0  0  0  0  0  0
   47.5741    7.1258   13.8848 C   0  0  0  0  0  0  0  0  0  0  0  0
   46.5842    7.7488   13.1062 C   0  0  0  0  0  0  0  0  0  0  0  0
   47.6029    5.7233   13.9424 C   0  0  0  0  0  0  0  0  0  0  0  0
   45.6648    6.9763   12.3980 C   0  0  0  0  0  0  0  0  0  0  0  0
   46.6750    4.9715   13.2267 C   0  0  0  0  0  0  0  0  0  0  0  0
   45.7029    5.5883   12.4492 C   0  0  0  0  0  0  0  0  0  0  0  0
   50.5048    7.5901   13.0065 N   0  0  0  0  0  0  0  0  0  0  0  0
   48.5686    7.9669   14.6628 C   0  0  2  0  0  0  0  0  0  0  0  0
   50.0617    7.6197   14.4052 C   0  0  0  0  0  0  0  0  0  0  0  0
   46.7542    3.6134   13.3195 O   0  0  0  0  0  0  0  0  0  0  0  0
   44.6949    7.5537   11.6312 O   0  0  0  0  0  0  0  0  0  0  0  0
   48.3004    7.8480   16.0642 O   0  0  0  0  0  0  0  0  0  0  0  0
   51.1319    8.8176   12.5192 C   0  0  0  0  0  0  0  0  0  0  0  0
   51.7243    8.5164   11.1399 C   0  0  0  0  0  0  0  0  0  0  0  0
   50.1668    9.9972   12.4177 C   0  0  0  0  0  0  0  0  0  0  0  0
   46.1208    6.9548   11.2743 H   0  0  0  0  0  0  0  0  0  0  0  0
   48.6338    5.6937   14.5452 H   0  0  0  0  0  0  0  0  0  0  0  0
   44.6874    4.0511   14.0920 H   0  0  0  0  0  0  0  0  0  0  0  0
   49.4027   10.5679   13.2372 H   0  0  0  0  0  0  0  0  0  0  0  0
   49.5614    6.8501   12.4517 H   0  0  0  0  0  0  0  0  0  0  0  0
   48.8800    8.4425   14.3040 H   0  0  0  0  0  0  0  0  0  0  0  0
   47.6455    9.1152   13.2577 H   0  0  0  0  0  0  0  0  0  0  0  0
   46.1518    3.5121   15.7354 H   0  0  0  0  0  0  0  0  0  0  0  0
   44.1295    5.9384   11.1778 H   0  0  0  0  0  0  0  0  0  0  0  0
   48.8912    8.6182   10.9538 H   0  0  0  0  0  0  0  0  0  0  0  0
   51.1604    8.4296   12.2038 H   0  0  0  0  0  0  0  0  0  0  0  0
   51.6154   11.4420   12.4915 H   0  0  0  0  0  0  0  0  0  0  0  0
   52.8078   10.2445   11.9612 H   0  0  0  0  0  0  0  0  0  0  0  0
   51.3801   10.5608   10.9696 H   0  0  0  0  0  0  0  0  0  0  0  0
   51.0929    8.3730   14.6900 H   0  0  0  0  0  0  0  0  0  0  0  0
   51.3263   10.1302   14.7626 H   0  0  0  0  0  0  0  0  0  0  0  0
   52.6138    9.0805   14.1514 H   0  0  0  0  0  0  0  0  0  0  0  0
   47.4854    6.6951   14.2529 H   0  0  0  0  0  0  0  0  0  0  0  0
   50.4559    7.9399   13.1668 H   0  0  0  0  0  0  0  0  0  0  0  0
   46.5394    8.8332   13.0579 H   0  0  0  0  0  0  0  0  0  0  0  0
   48.3481    5.2063   14.5437 H   0  0  0  0  0  0  0  0  0  0  0  0
   44.9741    5.0135   11.8883 H   0  0  0  0  0  0  0  0  0  0  0  0
   49.7485    7.2880   12.3918 H   0  0  0  0  0  0  0  0  0  0  0  0
   48.4078    9.0213   14.4194 H   0  0  0  0  0  0  0  0  0  0  0  0
   50.6975    8.2821   15.0080 H   0  0  0  0  0  0  0  0  0  0  0  0
   50.2559    6.6222   14.8205 H   0  0  0  0  0  0  0  0  0  0  0  0
   46.0717    3.2237   12.7487 H   0  0  0  0  0  0  0  0  0  0  0  0
   44.7689    8.5194   11.7024 H   0  0  0  0  0  0  0  0  0  0  0  0
   47.4829    7.3318   16.1726 H   0  0  0  0  0  0  0  0  0  0  0  0
   51.9635    9.0915   13.1798 H   0  0  0  0  0  0  0  0  0  0  0  0
   52.4413    7.6892   11.1919 H   0  0  0  0  0  0  0  0  0  0  0  0
   52.2572    9.3897   10.7481 H   0  0  0  0  0  0  0  0  0  0  0  0
   50.9463    8.2453   10.4173 H   0  0  0  0  0  0  0  0  0  0  0  0
   49.8693   10.3519   13.4085 H   0  0  0  0  0  0  0  0  0  0  0  0
   50.6396   10.8429   11.9061 H   0  0  0  0  0  0  0  0  0  0  0  0
   49.2637    9.7318   11.8575 H   0  0  0  0  0  0  0  0  0  0  0  0
  2  1  2  0
  3  1  1  0
  4  2  1  0
  5  3  2  0
  6  4  2  0
  7  9  1  0
  8  1  1  0
  9  8  1  0
 10  5  1  0
 11  4  1  0
 12  8  1  0
 13  7  1  0
 14 13  1  0
 15 13  1  0
  6  5  1  0
 17 16  2  0
 18 16  2  0
 19 16  1  0
 20 16  1  0
 22 21  2  0
 23 21  1  0
 24 22  1  0
 25 23  2  0
 26 24  2  0
 27 29  1  0
 28 21  1  0
 29 28  1  0
 30 25  1  0
 31 24  1  0
 32 28  1  0
 33 27  1  0
 34 33  1  0
 35 33  1  0
 26 25  1  0
  2 36  1  0
  3 37  1  0
  6 38  1  0
  7 39  1  0
  8 40  1  6
  9 41  1  0
  9 42  1  0
 10 43  1  0
 11 44  1  0
 12 45  1  0
 13 46  1  0
 14 47  1  0
 14 48  1  0
 14 49  1  0
 15 50  1  0
 15 51  1  0
 15 52  1  0
 19 53  1  0
 20 54  1  0
 22 55  1  0
 23 56  1  0
 26 57  1  0
 27 58  1  0
 28 59  1  1
 29 60  1  0
 29 61  1  0
 30 62  1  0
 31 63  1  0
 32 64  1  0
 33 65  1  0
 34 66  1  0
 34 67  1  0
 34 68  1  0
 35 69  1  0
 35 70  1  0
 35 71  1  0
M  END
> <Uni-Dock RESULT> 
ENERGY=   -4.689  LOWER_BOUND=    0.000  UPPER_BOUND=    0.000
INTER + INTRA:          -4.689
INTER:                  -4.689
INTRA:                   0.000
UNBOUND:                 0.000

$$$$

     RDKit          3D

 71 70  0  0  0  0  0  0  0  0999 V2000
   47.6735    7.6847   19.8541 C   0  0  0  0  0  0  0  0  0  0  0  0
   47.7769    6.7616   20.9073 C   0  0  0  0  0  0  0  0  0  0  0  0
   47.8070    7.2173   18.5358 C   0  0  0  0  0  0  0  0  0  0  0  0
   48.0047    5.4132   20.6361 C   0  0  0  0  0  0  0  0  0  0  0  0
   48.0384    5.8669   18.2873 C   0  0  0  0  0  0  0  0  0  0  0  0
   48.1402    4.9556   19.3308 C   0  0  0  0  0  0  0  0  0  0  0  0
   48.6307   11.3719   20.4228 N   0  0  0  0  0  0  0  0  0  0  0  0
   47.4494    9.1607   20.1038 C   0  0  2  0  0  0  0  0  0  0  0  0
   48.7619    9.9720   19.9659 C   0  0  0  0  0  0  0  0  0  0  0  0
   48.1620    5.4742   16.9868 O   0  0  0  0  0  0  0  0  0  0  0  0
   48.1025    4.4975   21.6438 O   0  0  0  0  0  0  0  0  0  0  0  0
   46.9118    9.3833   21.4133 O   0  0  0  0  0  0  0  0  0  0  0  0
   47.7588   12.2158   19.5920 C   0  0  0  0  0  0  0  0  0  0  0  0
   47.6173   13.5670   20.2984 C   0  0  0  0  0  0  0  0  0  0  0  0
   48.3011   12.4269   18.1767 C   0  0  0  0  0  0  0  0  0  0  0  0
   47.9699    9.2454   20.1365 S   0  0  0  0  0  0  0  0  0  0  0  0
   49.1671    8.9561   20.8836 O   0  0  0  0  0  0  0  0  0  0  0  0
   46.6816    9.4758   20.7393 O   0  0  0  0  0  0  0  0  0  0  0  0
   47.8181    8.0711   19.0544 O   0  0  0  0  0  0  0  0  0  0  0  0
   48.2584   10.5056   19.1864 O   0  0  0  0  0  0  0  0  0  0  0  0
   48.7116    8.1023   19.3086 C   0  0  0  0  0  0  0  0  0  0  0  0
   49.0852    7.8321   20.6359 C   0  0  0  0  0  0  0  0  0  0  0  0
   47.8658    7.1966   18.6487 C   0  0  0  0  0  0  0  0  0  0  0  0
   48.6053    6.6911   21.2773 C   0  0  0  0  0  0  0  0  0  0  0  0
   47.3981    6.0634   19.3087 C   0  0  0  0  0  0  0  0  0  0  0  0
   47.7600    5.8024   20.6243 C   0  0  0  0  0  0  0  0  0  0  0  0
   47.0504   10.6719   18.8466 N   0  0  0  0  0  0  0  0  0  0  0  0
   49.2415    9.3392   18.6079 C   0  0  2  0  0  0  0  0  0  0  0  0
   48.1522   10.2494   17.9743 C   0  0  0  0  0  0  0  0  0  0  0  0
   46.5775    5.2219   18.6175 O   0  0  0  0  0  0  0  0  0  0  0  0
   48.9485    6.4051   22.5666 O   0  0  0  0  0  0  0  0  0  0  0  0
   50.1695    8.9498   17.5895 O   0  0  0  0  0  0  0  0  0  0  0  0
   47.2065   11.9876   19.4648 C   0  0  0  0  0  0  0  0  0  0  0  0
   45.8773   12.3417   20.1369 C   0  0  0  0  0  0  0  0  0  0  0  0
   48.3347   12.0489   20.4926 C   0  0  0  0  0  0  0  0  0  0  0  0
   47.6737    7.1070   21.9331 H   0  0  0  0  0  0  0  0  0  0  0  0
   47.7303    7.9017   17.6941 H   0  0  0  0  0  0  0  0  0  0  0  0
   48.3181    3.9011   19.1525 H   0  0  0  0  0  0  0  0  0  0  0  0
   49.5639   11.7876   20.4504 H   0  0  0  0  0  0  0  0  0  0  0  0
   46.6976    9.5222   19.3936 H   0  0  0  0  0  0  0  0  0  0  0  0
   49.1633    9.9137   18.9482 H   0  0  0  0  0  0  0  0  0  0  0  0
   49.5178    9.5141   20.6174 H   0  0  0  0  0  0  0  0  0  0  0  0
   48.3085    4.5137   16.9706 H   0  0  0  0  0  0  0  0  0  0  0  0
   47.9366    4.9546   22.4857 H   0  0  0  0  0  0  0  0  0  0  0  0
   47.1789   10.3016   21.6252 H   0  0  0  0  0  0  0  0  0  0  0  0
   46.7561   11.7785   19.5306 H   0  0  0  0  0  0  0  0  0  0  0  0
   48.5822   14.0785   20.3906 H   0  0  0  0  0  0  0  0  0  0  0  0
   46.9405   14.2255   19.7423 H   0  0  0  0  0  0  0  0  0  0  0  0
   47.2009   13.4424   21.3045 H   0  0  0  0  0  0  0  0  0  0  0  0
   48.3029   11.4949   17.6028 H   0  0  0  0  0  0  0  0  0  0  0  0
   49.3240   12.8201   18.1932 H   0  0  0  0  0  0  0  0  0  0  0  0
   47.6778   13.1418   17.6277 H   0  0  0  0  0  0  0  0  0  0  0  0
   48.7169    7.7235   18.8780 H   0  0  0  0  0  0  0  0  0  0  0  0
   47.3901   10.8528   18.8944 H   0  0  0  0  0  0  0  0  0  0  0  0
   49.7477    8.5160   21.1593 H   0  0  0  0  0  0  0  0  0  0  0  0
   47.5643    7.3672   17.6172 H   0  0  0  0  0  0  0  0  0  0  0  0
   47.4032    4.9226   21.1485 H   0  0  0  0  0  0  0  0  0  0  0  0
   46.8419    9.9552   19.5422 H   0  0  0  0  0  0  0  0  0  0  0  0
   49.8192    9.9317   19.3235 H   0  0  0  0  0  0  0  0  0  0  0  0
   48.6338   11.1138   17.4978 H   0  0  0  0  0  0  0  0  0  0  0  0
   47.7008    9.7058   17.1341 H   0  0  0  0  0  0  0  0  0  0  0  0
   46.3069    4.4993   19.2075 H   0  0  0  0  0  0  0  0  0  0  0  0
   49.5552    7.0903   22.8916 H   0  0  0  0  0  0  0  0  0  0  0  0
   50.3085    7.9894   17.6587 H   0  0  0  0  0  0  0  0  0  0  0  0
   47.3901   12.7385   18.6868 H   0  0  0  0  0  0  0  0  0  0  0  0
   45.0549   12.3304   19.4126 H   0  0  0  0  0  0  0  0  0  0  0  0
   45.9188   13.3463   20.5719 H   0  0  0  0  0  0  0  0  0  0  0  0
   45.6311   11.6376   20.9398 H   0  0  0  0  0  0  0  0  0  0  0  0
   49.3139   11.9814   20.0104 H   0  0  0  0  0  0  0  0  0  0  0  0
   48.3131   12.9997   21.0367 H   0  0  0  0  0  0  0  0  0  0  0  0
   48.2531   11.2420   21.2290 H   0  0  0  0  0  0  0  0  0  0  0  0
  2  1  2  0
  3  1  1  0
  4  2  1  0
  5  3  2  0
  6  4  2  0
  7  9  1  0
  8  1  1  0
  9  8  1  0
 10  5  1  0
 11  4  1  0
 12  8  1  0
 13  7  1  0
 14 13  1  0
 15 13  1  0
  6  5  1  0
 17 16  2  0
 18 16  2  0
 19 16  1  0
 20 16  1  0
 22 21  2  0
 23 21  1  0
 24 22  1  0
 25 23  2  0
 26 24  2  0
 27 29  1  0
 28 21  1  0
 29 28  1  0
 30 25  1  0
 31 24  1  0
 32 28  1  0
 33 27  1  0
 34 33  1  0
 35 33  1  0
 26 25  1  0
  2 36  1  0
  3 37  1  0
  6 38  1  0
  7 39  1  0
  8 40  1  6
  9 41  1  0
  9 42  1  0
 10 43  1  0
 11 44  1  0
 12 45  1  0
 13 46  1  0
 14 47  1  0
 14 48  1  0
 14 49  1  0
 15 50  1  0
 15 51  1  0
 15 52  1  0
 19 53  1  0
 20 54  1  0
 22 55  1  0
 23 56  1  0
 26 57  1  0
 27 58  1  0
 28 59  1  1
 29 60  1  0
 29 61  1  0
 30 62  1  0
 31 63  1  0
 32 64  1  0
 33 65  1  0
 34 66  1  0
 34 67  1  0
 34 68  1  0
 35 69  1  0
 35 70  1  0
 35 71  1  0
M  END
> <Uni-Dock RESULT> 
ENERGY=   -4.645  LOWER_BOUND=    5.671  UPPER_BOUND=    7.635
INTER + INTRA:          -4.645
INTER:                  -4.645
INTRA:                   0.000
UNBOUND:                 0.000

$$$$

     RDKit          3D

 71 70  0  0  0  0  0  0  0  0999 V2000
   47.2822    7.3335   12.6172 C   0  0  0  0  0  0  0  0  0  0  0  0
   46.0571    7.7083   12.0421 C   0  0  0  0  0  0  0  0  0  0  0  0
   47.3351    6.1504   13.3733 C   0  0  0  0  0  0  0  0  0  0  0  0
   44.9266    6.9129   12.2233 C   0  0  0  0  0  0  0  0  0  0  0  0
   46.1930    5.3728   13.5454 C   0  0  0  0  0  0  0  0  0  0  0  0
   44.9823    5.7455   12.9754 C   0  0  0  0  0  0  0  0  0  0  0  0
   49.8795   10.0232   13.5420 N   0  0  0  0  0  0  0  0  0  0  0  0
   48.5286    8.1788   12.4650 C   0  0  2  0  0  0  0  0  0  0  0  0
   48.8095    9.0213   13.7343 C   0  0  0  0  0  0  0  0  0  0  0  0
   46.3066    4.2370   14.2922 O   0  0  0  0  0  0  0  0  0  0  0  0
   43.7271    7.2546   11.6684 O   0  0  0  0  0  0  0  0  0  0  0  0
   48.4129    9.0661   11.3458 O   0  0  0  0  0  0  0  0  0  0  0  0
   51.2247    9.4630   13.3442 C   0  0  0  0  0  0  0  0  0  0  0  0
   52.1621   10.6256   13.0057 C   0  0  0  0  0  0  0  0  0  0  0  0
   51.7496    8.7169   14.5727 C   0  0  0  0  0  0  0  0  0  0  0  0
   48.4043    8.4592   12.8951 S   0  0  0  0  0  0  0  0  0  0  0  0
   47.4496    9.3695   13.4740 O   0  0  0  0  0  0  0  0  0  0  0  0
   48.8291    8.5069   11.5191 O   0  0  0  0  0  0  0  0  0  0  0  0
   47.8644    6.9810   13.2058 O   0  0  0  0  0  0  0  0  0  0  0  0
   49.7396    8.4936   13.7839 O   0  0  0  0  0  0  0  0  0  0  0  0
   47.4782    7.5551   13.8264 C   0  0  0  0  0  0  0  0  0  0  0  0
   46.6117    8.5789   13.4080 C   0  0  0  0  0  0  0  0  0  0  0  0
   47.2538    6.2497   13.3607 C   0  0  0  0  0  0  0  0  0  0  0  0
   45.5631    8.2922   12.5352 C   0  0  0  0  0  0  0  0  0  0  0  0
   46.2005    5.9861   12.4892 C   0  0  0  0  0  0  0  0  0  0  0  0
   45.3504    7.0010   12.0682 C   0  0  0  0  0  0  0  0  0  0  0  0
   50.4385    7.8258   12.9665 N   0  0  0  0  0  0  0  0  0  0  0  0
   48.6136    7.8657   14.7836 C   0  0  2  0  0  0  0  0  0  0  0  0
   50.0177    7.4000   14.3063 C   0  0  0  0  0  0  0  0  0  0  0  0
   46.0339    4.6998   12.0686 O   0  0  0  0  0  0  0  0  0  0  0  0
   44.7081    9.2668   12.1095 O   0  0  0  0  0  0  0  0  0  0  0  0
   48.3380    7.2746   16.0583 O   0  0  0  0  0  0  0  0  0  0  0  0
   51.2735    9.0252   12.9209 C   0  0  0  0  0  0  0  0  0  0  0  0
   51.7923    9.1715   11.4879 C   0  0  0  0  0  0  0  0  0  0  0  0
   50.5365   10.2979   13.3333 C   0  0  0  0  0  0  0  0  0  0  0  0
   46.0000    8.6200   11.4522 H   0  0  0  0  0  0  0  0  0  0  0  0
   48.2665    5.8263   13.8319 H   0  0  0  0  0  0  0  0  0  0  0  0
   44.0855    5.1490   13.0990 H   0  0  0  0  0  0  0  0  0  0  0  0
   49.8937   10.6360   14.3597 H   0  0  0  0  0  0  0  0  0  0  0  0
   49.3732    7.5151   12.2495 H   0  0  0  0  0  0  0  0  0  0  0  0
   49.0033    8.3830   14.6034 H   0  0  0  0  0  0  0  0  0  0  0  0
   47.9033    9.5931   13.9734 H   0  0  0  0  0  0  0  0  0  0  0  0
   45.4397    3.7983   14.3145 H   0  0  0  0  0  0  0  0  0  0  0  0
   43.8573    8.0574   11.1358 H   0  0  0  0  0  0  0  0  0  0  0  0
   49.0229    9.8009   11.5631 H   0  0  0  0  0  0  0  0  0  0  0  0
   51.2294    8.7852   12.4835 H   0  0  0  0  0  0  0  0  0  0  0  0
   52.2226   11.3490   13.8268 H   0  0  0  0  0  0  0  0  0  0  0  0
   53.1756   10.2600   12.8056 H   0  0  0  0  0  0  0  0  0  0  0  0
   51.8216   11.1563   12.1093 H   0  0  0  0  0  0  0  0  0  0  0  0
   51.1699    7.8100   14.7714 H   0  0  0  0  0  0  0  0  0  0  0  0
   51.7172    9.3466   15.4692 H   0  0  0  0  0  0  0  0  0  0  0  0
   52.7898    8.4071   14.4203 H   0  0  0  0  0  0  0  0  0  0  0  0
   47.3158    7.0385   14.0154 H   0  0  0  0  0  0  0  0  0  0  0  0
   50.4546    8.0927   13.2475 H   0  0  0  0  0  0  0  0  0  0  0  0
   46.7631    9.5933   13.7664 H   0  0  0  0  0  0  0  0  0  0  0  0
   47.8976    5.4295   13.6720 H   0  0  0  0  0  0  0  0  0  0  0  0
   44.5260    6.8078   11.3906 H   0  0  0  0  0  0  0  0  0  0  0  0
   49.6359    7.9061   12.3416 H   0  0  0  0  0  0  0  0  0  0  0  0
   48.6441    8.9452   14.9587 H   0  0  0  0  0  0  0  0  0  0  0  0
   50.7667    7.6726   15.0619 H   0  0  0  0  0  0  0  0  0  0  0  0
   50.0315    6.3023   14.3089 H   0  0  0  0  0  0  0  0  0  0  0  0
   45.2884    4.6714   11.4466 H   0  0  0  0  0  0  0  0  0  0  0  0
   44.9558   10.1084   12.5260 H   0  0  0  0  0  0  0  0  0  0  0  0
   47.4416    6.8978   16.0290 H   0  0  0  0  0  0  0  0  0  0  0  0
   52.1454    8.8895   13.5723 H   0  0  0  0  0  0  0  0  0  0  0  0
   52.3485    8.2795   11.1779 H   0  0  0  0  0  0  0  0  0  0  0  0
   52.4714   10.0273   11.4073 H   0  0  0  0  0  0  0  0  0  0  0  0
   50.9732    9.3241   10.7760 H   0  0  0  0  0  0  0  0  0  0  0  0
   50.3148   10.2979   14.4042 H   0  0  0  0  0  0  0  0  0  0  0  0
   51.1507   11.1835   13.1359 H   0  0  0  0  0  0  0  0  0  0  0  0
   49.5965   10.4152   12.7833 H   0  0  0  0  0  0  0  0  0  0  0  0
  2  1  2  0
  3  1  1  0
  4  2  1  0
  5  3  2  0
  6  4  2  0
  7  9  1  0
  8  1  1  0
  9  8  1  0
 10  5  1  0
 11  4  1  0
 12  8  1  0
 13  7  1  0
 14 13  1  0
 15 13  1  0
  6  5  1  0
 17 16  2  0
 18 16  2  0
 19 16  1  0
 20 16  1  0
 22 21  2  0
 23 21  1  0
 24 22  1  0
 25 23  2  0
 26 24  2  0
 27 29  1  0
 28 21  1  0
 29 28  1  0
 30 25  1  0
 31 24  1  0
 32 28  1  0
 33 27  1  0
 34 33  1  0
 35 33  1  0
 26 25  1  0
  2 36  1  0
  3 37  1  0
  6 38  1  0
  7 39  1  0
  8 40  1  6
  9 41  1  0
  9 42  1  0
 10 43  1  0
 11 44  1  0
 12 45  1  0
 13 46  1  0
 14 47  1  0
 14 48  1  0
 14 49  1  0
 15 50  1  0
 15 51  1  0
 15 52  1  0
 19 53  1  0
 20 54  1  0
 22 55  1  0
 23 56  1  0
 26 57  1  0
 27 58  1  0
 28 59  1  1
 29 60  1  0
 29 61  1  0
 30 62  1  0
 31 63  1  0
 32 64  1  0
 33 65  1  0
 34 66  1  0
 34 67  1  0
 34 68  1  0
 35 69  1  0
 35 70  1  0
 35 71  1  0
M  END
> <Uni-Dock RESULT> 
ENERGY=   -4.626  LOWER_BOUND=    0.879  UPPER_BOUND=    1.074
INTER + INTRA:          -4.626
INTER:                  -4.626
INTRA:                   0.000
UNBOUND:                 0.000

$$$$

     RDKit          3D

 71 70  0  0  0  0  0  0  0  0999 V2000
   48.0091    7.3963   12.4530 C   0  0  0  0  0  0  0  0  0  0  0  0
   49.0465    7.0539   13.3354 C   0  0  0  0  0  0  0  0  0  0  0  0
   48.0928    8.6146   11.7582 C   0  0  0  0  0  0  0  0  0  0  0  0
   50.1313    7.9127   13.5066 C   0  0  0  0  0  0  0  0  0  0  0  0
   49.1832    9.4597   11.9472 C   0  0  0  0  0  0  0  0  0  0  0  0
   50.2083    9.1189   12.8205 C   0  0  0  0  0  0  0  0  0  0  0  0
   44.4472    6.0602   13.0562 N   0  0  0  0  0  0  0  0  0  0  0  0
   46.8021    6.5047   12.2539 C   0  0  2  0  0  0  0  0  0  0  0  0
   45.5715    7.0201   13.0413 C   0  0  0  0  0  0  0  0  0  0  0  0
   49.2066   10.6300   11.2467 O   0  0  0  0  0  0  0  0  0  0  0  0
   51.1539    7.5974   14.3542 O   0  0  0  0  0  0  0  0  0  0  0  0
   47.0812    5.1629   12.6723 O   0  0  0  0  0  0  0  0  0  0  0  0
   43.8022    5.8410   11.7530 C   0  0  0  0  0  0  0  0  0  0  0  0
   42.7814    4.7131   11.9286 C   0  0  0  0  0  0  0  0  0  0  0  0
   43.1036    7.0906   11.2125 C   0  0  0  0  0  0  0  0  0  0  0  0
   46.5490    6.7394   12.6539 S   0  0  0  0  0  0  0  0  0  0  0  0
   46.5567    6.9823   14.0738 O   0  0  0  0  0  0  0  0  0  0  0  0
   46.9279    5.4872   12.0501 O   0  0  0  0  0  0  0  0  0  0  0  0
   47.4285    7.9058   11.9914 O   0  0  0  0  0  0  0  0  0  0  0  0
   45.0900    7.0931   12.0879 O   0  0  0  0  0  0  0  0  0  0  0  0
   47.1420    8.2099   12.8217 C   0  0  0  0  0  0  0  0  0  0  0  0
   47.5520    7.5614   13.9989 C   0  0  0  0  0  0  0  0  0  0  0  0
   48.1161    8.5737   11.8783 C   0  0  0  0  0  0  0  0  0  0  0  0
   48.9012    7.2776   14.2054 C   0  0  0  0  0  0  0  0  0  0  0  0
   49.4581    8.2801   12.1050 C   0  0  0  0  0  0  0  0  0  0  0  0
   49.8611    7.6299   13.2647 C   0  0  0  0  0  0  0  0  0  0  0  0
   45.2888    6.5967   10.9405 N   0  0  0  0  0  0  0  0  0  0  0  0
   45.6748    8.5270   12.6015 C   0  0  2  0  0  0  0  0  0  0  0  0
   45.0901    8.0163   11.2548 C   0  0  0  0  0  0  0  0  0  0  0  0
   50.3579    8.6554   11.1518 O   0  0  0  0  0  0  0  0  0  0  0  0
   49.3278    6.6460   15.3373 O   0  0  0  0  0  0  0  0  0  0  0  0
   45.4747    9.9421   12.6865 O   0  0  0  0  0  0  0  0  0  0  0  0
   44.1758    5.7140   11.2865 C   0  0  0  0  0  0  0  0  0  0  0  0
   44.4721    4.3394   10.6808 C   0  0  0  0  0  0  0  0  0  0  0  0
   43.9518    5.5754   12.7911 C   0  0  0  0  0  0  0  0  0  0  0  0
   48.9977    6.1135   13.8789 H   0  0  0  0  0  0  0  0  0  0  0  0
   47.3100    8.9126   11.0645 H   0  0  0  0  0  0  0  0  0  0  0  0
   51.0644    9.7657   12.9761 H   0  0  0  0  0  0  0  0  0  0  0  0
   43.7468    6.3990   13.7187 H   0  0  0  0  0  0  0  0  0  0  0  0
   46.5800    6.4562   11.1822 H   0  0  0  0  0  0  0  0  0  0  0  0
   45.2561    8.0083   12.6887 H   0  0  0  0  0  0  0  0  0  0  0  0
   45.8667    7.1518   14.0905 H   0  0  0  0  0  0  0  0  0  0  0  0
   50.0244   11.1042   11.4719 H   0  0  0  0  0  0  0  0  0  0  0  0
   50.9847    6.7114   14.7168 H   0  0  0  0  0  0  0  0  0  0  0  0
   46.1998    4.7952   12.8897 H   0  0  0  0  0  0  0  0  0  0  0  0
   44.5392    5.4963   11.0192 H   0  0  0  0  0  0  0  0  0  0  0  0
   41.9971    4.9849   12.6442 H   0  0  0  0  0  0  0  0  0  0  0  0
   42.2973    4.4772   10.9742 H   0  0  0  0  0  0  0  0  0  0  0  0
   43.2657    3.7974   12.2863 H   0  0  0  0  0  0  0  0  0  0  0  0
   43.8221    7.8778   10.9633 H   0  0  0  0  0  0  0  0  0  0  0  0
   42.3894    7.4968   11.9379 H   0  0  0  0  0  0  0  0  0  0  0  0
   42.5509    6.8571   10.2954 H   0  0  0  0  0  0  0  0  0  0  0  0
   47.3885    8.6759   12.5957 H   0  0  0  0  0  0  0  0  0  0  0  0
   45.0153    6.6809   11.2024 H   0  0  0  0  0  0  0  0  0  0  0  0
   46.8138    7.2819   14.7454 H   0  0  0  0  0  0  0  0  0  0  0  0
   47.8372    9.0870   10.9602 H   0  0  0  0  0  0  0  0  0  0  0  0
   50.9034    7.3969   13.4531 H   0  0  0  0  0  0  0  0  0  0  0  0
   46.1688    6.2577   11.3300 H   0  0  0  0  0  0  0  0  0  0  0  0
   45.0923    8.0962   13.4214 H   0  0  0  0  0  0  0  0  0  0  0  0
   44.0284    8.2907   11.1929 H   0  0  0  0  0  0  0  0  0  0  0  0
   45.5558    8.5891   10.4423 H   0  0  0  0  0  0  0  0  0  0  0  0
   51.2416    8.3607   11.4269 H   0  0  0  0  0  0  0  0  0  0  0  0
   48.5637    6.4788   15.9129 H   0  0  0  0  0  0  0  0  0  0  0  0
   46.3141   10.3499   12.9614 H   0  0  0  0  0  0  0  0  0  0  0  0
   43.2550    6.0854   10.8204 H   0  0  0  0  0  0  0  0  0  0  0  0
   44.6107    4.4092    9.5959 H   0  0  0  0  0  0  0  0  0  0  0  0
   43.6414    3.6487   10.8628 H   0  0  0  0  0  0  0  0  0  0  0  0
   45.3779    3.8963   11.1100 H   0  0  0  0  0  0  0  0  0  0  0  0
   43.5605    6.5020   13.2203 H   0  0  0  0  0  0  0  0  0  0  0  0
   43.2165    4.7913   13.0036 H   0  0  0  0  0  0  0  0  0  0  0  0
   44.8782    5.3136   13.3138 H   0  0  0  0  0  0  0  0  0  0  0  0
  2  1  2  0
  3  1  1  0
  4  2  1  0
  5  3  2  0
  6  4  2  0
  7  9  1  0
  8  1  1  0
  9  8  1  0
 10  5  1  0
 11  4  1  0
 12  8  1  0
 13  7  1  0
 14 13  1  0
 15 13  1  0
  6  5  1  0
 17 16  2  0
 18 16  2  0
 19 16  1  0
 20 16  1  0
 22 21  2  0
 23 21  1  0
 24 22  1  0
 25 23  2  0
 26 24  2  0
 27 29  1  0
 28 21  1  0
 29 28  1  0
 30 25  1  0
 31 24  1  0
 32 28  1  0
 33 27  1  0
 34 33  1  0
 35 33  1  0
 26 25  1  0
  2 36  1  0
  3 37  1  0
  6 38  1  0
  7 39  1  0
  8 40  1  6
  9 41  1  0
  9 42  1  0
 10 43  1  0
 11 44  1  0
 12 45  1  0
 13 46  1  0
 14 47  1  0
 14 48  1  0
 14 49  1  0
 15 50  1  0
 15 51  1  0
 15 52  1  0
 19 53  1  0
 20 54  1  0
 22 55  1  0
 23 56  1  0
 26 57  1  0
 27 58  1  0
 28 59  1  1
 29 60  1  0
 29 61  1  0
 30 62  1  0
 31 63  1  0
 32 64  1  0
 33 65  1  0
 34 66  1  0
 34 67  1  0
 34 68  1  0
 35 69  1  0
 35 70  1  0
 35 71  1  0
M  END
> <Uni-Dock RESULT> 
ENERGY=   -4.444  LOWER_BOUND=    2.128  UPPER_BOUND=    5.553
INTER + INTRA:          -4.444
INTER:                  -4.444
INTRA:                   0.000
UNBOUND:                 0.000

$$$$

     RDKit          3D

 71 70  0  0  0  0  0  0  0  0999 V2000
   46.9582    8.4111   13.1802 C   0  0  0  0  0  0  0  0  0  0  0  0
   46.1074    7.3303   12.8971 C   0  0  0  0  0  0  0  0  0  0  0  0
   46.6839    9.6550   12.5873 C   0  0  0  0  0  0  0  0  0  0  0  0
   45.0164    7.5029   12.0465 C   0  0  0  0  0  0  0  0  0  0  0  0
   45.5912    9.8046   11.7374 C   0  0  0  0  0  0  0  0  0  0  0  0
   44.7509    8.7341   11.4589 C   0  0  0  0  0  0  0  0  0  0  0  0
   50.6459    7.7728   14.0908 N   0  0  0  0  0  0  0  0  0  0  0  0
   48.1667    8.2628   14.0796 C   0  0  2  0  0  0  0  0  0  0  0  0
   49.4785    8.1455   13.2638 C   0  0  0  0  0  0  0  0  0  0  0  0
   45.3784   11.0357   11.1899 O   0  0  0  0  0  0  0  0  0  0  0  0
   44.1727    6.4681   11.7622 O   0  0  0  0  0  0  0  0  0  0  0  0
   48.0449    7.1052   14.9153 O   0  0  0  0  0  0  0  0  0  0  0  0
   51.0742    8.7968   15.0555 C   0  0  0  0  0  0  0  0  0  0  0  0
   52.1772    8.1809   15.9210 C   0  0  0  0  0  0  0  0  0  0  0  0
   51.5936   10.0709   14.3859 C   0  0  0  0  0  0  0  0  0  0  0  0
   48.4687    8.1233   13.6692 S   0  0  0  0  0  0  0  0  0  0  0  0
   48.6856    7.1301   12.6485 O   0  0  0  0  0  0  0  0  0  0  0  0
   48.0709    7.8154   15.0194 O   0  0  0  0  0  0  0  0  0  0  0  0
   47.4202    9.1740   13.0612 O   0  0  0  0  0  0  0  0  0  0  0  0
   49.7869    9.0311   13.7801 O   0  0  0  0  0  0  0  0  0  0  0  0
   47.8234    8.7372   12.3467 C   0  0  0  0  0  0  0  0  0  0  0  0
   47.6584    7.3528   12.1724 C   0  0  0  0  0  0  0  0  0  0  0  0
   46.6838    9.5316   12.5500 C   0  0  0  0  0  0  0  0  0  0  0  0
   46.3833    6.7909   12.2181 C   0  0  0  0  0  0  0  0  0  0  0  0
   45.4198    8.9493   12.5923 C   0  0  0  0  0  0  0  0  0  0  0  0
   45.2587    7.5790   12.4298 C   0  0  0  0  0  0  0  0  0  0  0  0
   49.4283    9.6247   14.8392 N   0  0  0  0  0  0  0  0  0  0  0  0
   49.2103    9.3495   12.2876 C   0  0  2  0  0  0  0  0  0  0  0  0
   49.5897   10.2292   13.5118 C   0  0  0  0  0  0  0  0  0  0  0  0
   44.3509    9.7710   12.7955 O   0  0  0  0  0  0  0  0  0  0  0  0
   46.1932    5.4495   12.0555 O   0  0  0  0  0  0  0  0  0  0  0  0
   49.3347   10.1346   11.0967 O   0  0  0  0  0  0  0  0  0  0  0  0
   50.6357    9.0307   15.4110 C   0  0  0  0  0  0  0  0  0  0  0  0
   50.3264    8.6678   16.8659 C   0  0  0  0  0  0  0  0  0  0  0  0
   51.1183    7.7895   14.6630 C   0  0  0  0  0  0  0  0  0  0  0  0
   46.3048    6.3616   13.3497 H   0  0  0  0  0  0  0  0  0  0  0  0
   47.3187   10.5158   12.7849 H   0  0  0  0  0  0  0  0  0  0  0  0
   43.8953    8.8361   10.8008 H   0  0  0  0  0  0  0  0  0  0  0  0
   51.4258    7.5614   13.4653 H   0  0  0  0  0  0  0  0  0  0  0  0
   48.2074    9.1278   14.7507 H   0  0  0  0  0  0  0  0  0  0  0  0
   49.6687    9.0524   12.6794 H   0  0  0  0  0  0  0  0  0  0  0  0
   49.3569    7.3340   12.5345 H   0  0  0  0  0  0  0  0  0  0  0  0
   44.5827   10.9891   10.6339 H   0  0  0  0  0  0  0  0  0  0  0  0
   44.4546    5.6959   12.2813 H   0  0  0  0  0  0  0  0  0  0  0  0
   48.9713    6.8715   15.1313 H   0  0  0  0  0  0  0  0  0  0  0  0
   50.2465    9.0552   15.7253 H   0  0  0  0  0  0  0  0  0  0  0  0
   53.0527    7.9029   15.3234 H   0  0  0  0  0  0  0  0  0  0  0  0
   52.5069    8.8892   16.6895 H   0  0  0  0  0  0  0  0  0  0  0  0
   51.8172    7.2826   16.4353 H   0  0  0  0  0  0  0  0  0  0  0  0
   50.7965   10.6006   13.8550 H   0  0  0  0  0  0  0  0  0  0  0  0
   52.3936    9.8506   13.6698 H   0  0  0  0  0  0  0  0  0  0  0  0
   51.9970   10.7627   15.1341 H   0  0  0  0  0  0  0  0  0  0  0  0
   47.5143    9.1443   12.0865 H   0  0  0  0  0  0  0  0  0  0  0  0
   49.7363    9.5118   14.6323 H   0  0  0  0  0  0  0  0  0  0  0  0
   48.5277    6.7234   12.0032 H   0  0  0  0  0  0  0  0  0  0  0  0
   46.7719   10.6086   12.6778 H   0  0  0  0  0  0  0  0  0  0  0  0
   44.2794    7.1140   12.4596 H   0  0  0  0  0  0  0  0  0  0  0  0
   48.6491    8.9661   14.8466 H   0  0  0  0  0  0  0  0  0  0  0  0
   49.9479    8.5474   12.1913 H   0  0  0  0  0  0  0  0  0  0  0  0
   50.6069   10.6206   13.3759 H   0  0  0  0  0  0  0  0  0  0  0  0
   48.9594   11.1278   13.4938 H   0  0  0  0  0  0  0  0  0  0  0  0
   43.5460    9.2286   12.8329 H   0  0  0  0  0  0  0  0  0  0  0  0
   47.0522    5.0258   11.8951 H   0  0  0  0  0  0  0  0  0  0  0  0
   48.5302   10.0062   10.5649 H   0  0  0  0  0  0  0  0  0  0  0  0
   51.4402    9.7762   15.4236 H   0  0  0  0  0  0  0  0  0  0  0  0
   50.0029    9.5494   17.4309 H   0  0  0  0  0  0  0  0  0  0  0  0
   51.2166    8.2669   17.3628 H   0  0  0  0  0  0  0  0  0  0  0  0
   49.5348    7.9129   16.9337 H   0  0  0  0  0  0  0  0  0  0  0  0
   51.5187    8.0505   13.6793 H   0  0  0  0  0  0  0  0  0  0  0  0
   51.9255    7.2937   15.2135 H   0  0  0  0  0  0  0  0  0  0  0  0
   50.3111    7.0613   14.5280 H   0  0  0  0  0  0  0  0  0  0  0  0
  2  1  2  0
  3  1  1  0
  4  2  1  0
  5  3  2  0
  6  4  2  0
  7  9  1  0
  8  1  1  0
  9  8  1  0
 10  5  1  0
 11  4  1  0
 12  8  1  0
 13  7  1  0
 14 13  1  0
 15 13  1  0
  6  5  1  0
 17 16  2  0
 18 16  2  0
 19 16  1  0
 20 16  1  0
 22 21  2  0
 23 21  1  0
 24 22  1  0
 25 23  2  0
 26 24  2  0
 27 29  1  0
 28 21  1  0
 29 28  1  0
 30 25  1  0
 31 24  1  0
 32 28  1  0
 33 27  1  0
 34 33  1  0
 35 33  1  0
 26 25  1  0
  2 36  1  0
  3 37  1  0
  6 38  1  0
  7 39  1  0
  8 40  1  6
  9 41  1  0
  9 42  1  0
 10 43  1  0
 11 44  1  0
 12 45  1  0
 13 46  1  0
 14 47  1  0
 14 48  1  0
 14 49  1  0
 15 50  1  0
 15 51  1  0
 15 52  1  0
 19 53  1  0
 20 54  1  0
 22 55  1  0
 23 56  1  0
 26 57  1  0
 27 58  1  0
 28 59  1  1
 29 60  1  0
 29 61  1  0
 30 62  1  0
 31 63  1  0
 32 64  1  0
 33 65  1  0
 34 66  1  0
 34 67  1  0
 34 68  1  0
 35 69  1  0
 35 70  1  0
 35 71  1  0
M  END
> <Uni-Dock RESULT> 
ENERGY=   -4.306  LOWER_BOUND=    1.716  UPPER_BOUND=    3.571
INTER + INTRA:          -4.306
INTER:                  -4.306
INTRA:                   0.000
UNBOUND:                 0.000

$$$$

     RDKit          3D

 71 70  0  0  0  0  0  0  0  0999 V2000
   47.6404   10.2832   19.2640 C   0  0  0  0  0  0  0  0  0  0  0  0
   47.6761   11.2284   18.2260 C   0  0  0  0  0  0  0  0  0  0  0  0
   47.4951   10.7408   20.5844 C   0  0  0  0  0  0  0  0  0  0  0  0
   47.5660   12.5881   18.5138 C   0  0  0  0  0  0  0  0  0  0  0  0
   47.3910   12.1036   20.8502 C   0  0  0  0  0  0  0  0  0  0  0  0
   47.4264   13.0368   19.8218 C   0  0  0  0  0  0  0  0  0  0  0  0
   49.4471    6.9059   18.8571 N   0  0  0  0  0  0  0  0  0  0  0  0
   47.7793    8.7994   18.9990 C   0  0  2  0  0  0  0  0  0  0  0  0
   49.2080    8.2909   19.3157 C   0  0  0  0  0  0  0  0  0  0  0  0
   47.2546   12.4865   22.1523 O   0  0  0  0  0  0  0  0  0  0  0  0
   47.5919   13.5240   17.5204 O   0  0  0  0  0  0  0  0  0  0  0  0
   47.4793    8.4924   17.6318 O   0  0  0  0  0  0  0  0  0  0  0  0
   48.6800    5.8751   19.5724 C   0  0  0  0  0  0  0  0  0  0  0  0
   48.9311    4.5406   18.8647 C   0  0  0  0  0  0  0  0  0  0  0  0
   49.0656    5.7577   21.0486 C   0  0  0  0  0  0  0  0  0  0  0  0
   48.3054    8.8308   19.0361 S   0  0  0  0  0  0  0  0  0  0  0  0
   49.4975    9.3896   18.4512 O   0  0  0  0  0  0  0  0  0  0  0  0
   47.1888    8.3378   18.2703 O   0  0  0  0  0  0  0  0  0  0  0  0
   47.7603    9.9210   20.0789 O   0  0  0  0  0  0  0  0  0  0  0  0
   48.7360    7.6442   20.0263 O   0  0  0  0  0  0  0  0  0  0  0  0
   48.6644   10.0905   19.9452 C   0  0  0  0  0  0  0  0  0  0  0  0
   49.1400   10.4633   18.6767 C   0  0  0  0  0  0  0  0  0  0  0  0
   47.5621   10.7762   20.4801 C   0  0  0  0  0  0  0  0  0  0  0  0
   48.5101   11.4855   17.9682 C   0  0  0  0  0  0  0  0  0  0  0  0
   46.9482   11.7937   19.7548 C   0  0  0  0  0  0  0  0  0  0  0  0
   47.4130   12.1547   18.4964 C   0  0  0  0  0  0  0  0  0  0  0  0
   47.5598    7.2116   20.2050 N   0  0  0  0  0  0  0  0  0  0  0  0
   49.3558    8.9844   20.7199 C   0  0  2  0  0  0  0  0  0  0  0  0
   48.4188    7.8457   21.2116 C   0  0  0  0  0  0  0  0  0  0  0  0
   45.8803   12.4216   20.3246 O   0  0  0  0  0  0  0  0  0  0  0  0
   48.9479   11.8664   16.7331 O   0  0  0  0  0  0  0  0  0  0  0  0
   50.0350    9.5454   21.8487 O   0  0  0  0  0  0  0  0  0  0  0  0
   48.0794    5.9747   19.6237 C   0  0  0  0  0  0  0  0  0  0  0  0
   46.9593    5.3536   18.7848 C   0  0  0  0  0  0  0  0  0  0  0  0
   49.3181    6.1823   18.7544 C   0  0  0  0  0  0  0  0  0  0  0  0
   47.7860   10.8903   17.1984 H   0  0  0  0  0  0  0  0  0  0  0  0
   47.4606   10.0386   21.4143 H   0  0  0  0  0  0  0  0  0  0  0  0
   47.3444   14.1008   20.0133 H   0  0  0  0  0  0  0  0  0  0  0  0
   50.4440    6.7043   18.9564 H   0  0  0  0  0  0  0  0  0  0  0  0
   47.0387    8.2679   19.6067 H   0  0  0  0  0  0  0  0  0  0  0  0
   49.4504    8.4140   20.3770 H   0  0  0  0  0  0  0  0  0  0  0  0
   49.9238    8.9161   18.7661 H   0  0  0  0  0  0  0  0  0  0  0  0
   47.1840   13.4554   22.1798 H   0  0  0  0  0  0  0  0  0  0  0  0
   47.6415   13.0595   16.6678 H   0  0  0  0  0  0  0  0  0  0  0  0
   47.9661    7.6591   17.4647 H   0  0  0  0  0  0  0  0  0  0  0  0
   47.6067    6.0820   19.4973 H   0  0  0  0  0  0  0  0  0  0  0  0
   49.9880    4.2537   18.9050 H   0  0  0  0  0  0  0  0  0  0  0  0
   48.3480    3.7390   19.3320 H   0  0  0  0  0  0  0  0  0  0  0  0
   48.6326    4.5925   17.8114 H   0  0  0  0  0  0  0  0  0  0  0  0
   48.7884    6.6555   21.6100 H   0  0  0  0  0  0  0  0  0  0  0  0
   50.1430    5.5973   21.1706 H   0  0  0  0  0  0  0  0  0  0  0  0
   48.5476    4.9128   21.5164 H   0  0  0  0  0  0  0  0  0  0  0  0
   48.5304   10.4523   20.3696 H   0  0  0  0  0  0  0  0  0  0  0  0
   47.9341    7.1101   20.2039 H   0  0  0  0  0  0  0  0  0  0  0  0
   49.9986    9.9514   18.2511 H   0  0  0  0  0  0  0  0  0  0  0  0
   47.1731   10.5224   21.4641 H   0  0  0  0  0  0  0  0  0  0  0  0
   46.9440   12.9464   17.9224 H   0  0  0  0  0  0  0  0  0  0  0  0
   47.2923    7.8800   19.4820 H   0  0  0  0  0  0  0  0  0  0  0  0
   50.1376    8.5472   20.0918 H   0  0  0  0  0  0  0  0  0  0  0  0
   49.0114    7.0972   21.7547 H   0  0  0  0  0  0  0  0  0  0  0  0
   47.7536    8.2602   21.9803 H   0  0  0  0  0  0  0  0  0  0  0  0
   45.5377   13.0800   19.6981 H   0  0  0  0  0  0  0  0  0  0  0  0
   49.7269   11.3368   16.4968 H   0  0  0  0  0  0  0  0  0  0  0  0
   49.9683   10.5142   21.7905 H   0  0  0  0  0  0  0  0  0  0  0  0
   48.3195    5.2658   20.4253 H   0  0  0  0  0  0  0  0  0  0  0  0
   46.0670    5.1703   19.3941 H   0  0  0  0  0  0  0  0  0  0  0  0
   47.2761    4.3915   18.3674 H   0  0  0  0  0  0  0  0  0  0  0  0
   46.6721    6.0038   17.9507 H   0  0  0  0  0  0  0  0  0  0  0  0
   50.1872    6.4515   19.3611 H   0  0  0  0  0  0  0  0  0  0  0  0
   49.5763    5.2612   18.2201 H   0  0  0  0  0  0  0  0  0  0  0  0
   49.1588    6.9672   18.0071 H   0  0  0  0  0  0  0  0  0  0  0  0
  2  1  2  0
  3  1  1  0
  4  2  1  0
  5  3  2  0
  6  4  2  0
  7  9  1  0
  8  1  1  0
  9  8  1  0
 10  5  1  0
 11  4  1  0
 12  8  1  0
 13  7  1  0
 14 13  1  0
 15 13  1  0
  6  5  1  0
 17 16  2  0
 18 16  2  0
 19 16  1  0
 20 16  1  0
 22 21  2  0
 23 21  1  0
 24 22  1  0
 25 23  2  0
 26 24  2  0
 27 29  1  0
 28 21  1  0
 29 28  1  0
 30 25  1  0
 31 24  1  0
 32 28  1  0
 33 27  1  0
 34 33  1  0
 35 33  1  0
 26 25  1  0
  2 36  1  0
  3 37  1  0
  6 38  1  0
  7 39  1  0
  8 40  1  6
  9 41  1  0
  9 42  1  0
 10 43  1  0
 11 44  1  0
 12 45  1  0
 13 46  1  0
 14 47  1  0
 14 48  1  0
 14 49  1  0
 15 50  1  0
 15 51  1  0
 15 52  1  0
 19 53  1  0
 20 54  1  0
 22 55  1  0
 23 56  1  0
 26 57  1  0
 27 58  1  0
 28 59  1  1
 29 60  1  0
 29 61  1  0
 30 62  1  0
 31 63  1  0
 32 64  1  0
 33 65  1  0
 34 66  1  0
 34 67  1  0
 34 68  1  0
 35 69  1  0
 35 70  1  0
 35 71  1  0
M  END
> <Uni-Dock RESULT> 
ENERGY=   -4.182  LOWER_BOUND=    5.896  UPPER_BOUND=    8.128
INTER + INTRA:          -4.182
INTER:                  -4.182
INTRA:                   0.000
UNBOUND:                 0.000

$$$$

     RDKit          3D

 71 70  0  0  0  0  0  0  0  0999 V2000
   47.8410   12.1952   17.9318 C   0  0  0  0  0  0  0  0  0  0  0  0
   46.9922   12.1104   19.0473 C   0  0  0  0  0  0  0  0  0  0  0  0
   48.7162   11.1274   17.6711 C   0  0  0  0  0  0  0  0  0  0  0  0
   47.0258   10.9840   19.8681 C   0  0  0  0  0  0  0  0  0  0  0  0
   48.7366   10.0134   18.5062 C   0  0  0  0  0  0  0  0  0  0  0  0
   47.8959    9.9317   19.6089 C   0  0  0  0  0  0  0  0  0  0  0  0
   48.9752   15.6388   16.6313 N   0  0  0  0  0  0  0  0  0  0  0  0
   47.8537   13.4090   17.0274 C   0  0  2  0  0  0  0  0  0  0  0  0
   49.0544   14.3394   17.3320 C   0  0  0  0  0  0  0  0  0  0  0  0
   49.6099    9.0104   18.2029 O   0  0  0  0  0  0  0  0  0  0  0  0
   46.2055   10.8774   20.9540 O   0  0  0  0  0  0  0  0  0  0  0  0
   46.6446   14.1652   17.1672 O   0  0  0  0  0  0  0  0  0  0  0  0
   49.1163   15.5642   15.1695 C   0  0  0  0  0  0  0  0  0  0  0  0
   48.8506   16.9644   14.6094 C   0  0  0  0  0  0  0  0  0  0  0  0
   50.4994   15.0837   14.7247 C   0  0  0  0  0  0  0  0  0  0  0  0
   48.2166   13.6446   17.3305 S   0  0  0  0  0  0  0  0  0  0  0  0
   48.4875   14.1943   18.6342 O   0  0  0  0  0  0  0  0  0  0  0  0
   46.9585   13.7876   16.6429 O   0  0  0  0  0  0  0  0  0  0  0  0
   48.5701   12.0824   17.4167 O   0  0  0  0  0  0  0  0  0  0  0  0
   49.3485   14.1622   16.3180 O   0  0  0  0  0  0  0  0  0  0  0  0
   49.0334   12.5113   18.0989 C   0  0  0  0  0  0  0  0  0  0  0  0
   48.3393   13.1637   19.1317 C   0  0  0  0  0  0  0  0  0  0  0  0
   48.6766   11.1926   17.7751 C   0  0  0  0  0  0  0  0  0  0  0  0
   47.3084   12.5074   19.8027 C   0  0  0  0  0  0  0  0  0  0  0  0
   47.6436   10.5564   18.4581 C   0  0  0  0  0  0  0  0  0  0  0  0
   46.9512   11.2059   19.4723 C   0  0  0  0  0  0  0  0  0  0  0  0
   48.7673   13.7452   15.2736 N   0  0  0  0  0  0  0  0  0  0  0  0
   50.1614   13.2226   17.3753 C   0  0  2  0  0  0  0  0  0  0  0  0
   50.0321   13.2472   15.8264 C   0  0  0  0  0  0  0  0  0  0  0  0
   47.3403    9.2768   18.0977 O   0  0  0  0  0  0  0  0  0  0  0  0
   46.6149   13.1173   20.8072 O   0  0  0  0  0  0  0  0  0  0  0  0
   51.4102   12.6166   17.7263 O   0  0  0  0  0  0  0  0  0  0  0  0
   48.7619   15.1550   14.8861 C   0  0  0  0  0  0  0  0  0  0  0  0
   47.4565   15.4206   14.1313 C   0  0  0  0  0  0  0  0  0  0  0  0
   48.8754   16.1137   16.0698 C   0  0  0  0  0  0  0  0  0  0  0  0
   46.3075   12.9275   19.2616 H   0  0  0  0  0  0  0  0  0  0  0  0
   49.3865   11.1559   16.8151 H   0  0  0  0  0  0  0  0  0  0  0  0
   47.8993    9.0698   20.2667 H   0  0  0  0  0  0  0  0  0  0  0  0
   49.7072   16.2472   17.0033 H   0  0  0  0  0  0  0  0  0  0  0  0
   47.8873   13.0659   15.9875 H   0  0  0  0  0  0  0  0  0  0  0  0
   50.0088   13.8352   17.1445 H   0  0  0  0  0  0  0  0  0  0  0  0
   49.0411   14.5759   18.4040 H   0  0  0  0  0  0  0  0  0  0  0  0
   49.5036    8.3036   18.8614 H   0  0  0  0  0  0  0  0  0  0  0  0
   45.6263   11.6580   20.9739 H   0  0  0  0  0  0  0  0  0  0  0  0
   46.8998   15.0709   16.8953 H   0  0  0  0  0  0  0  0  0  0  0  0
   48.3533   14.8996   14.7492 H   0  0  0  0  0  0  0  0  0  0  0  0
   49.5832   17.6925   14.9756 H   0  0  0  0  0  0  0  0  0  0  0  0
   48.9011   16.9594   13.5147 H   0  0  0  0  0  0  0  0  0  0  0  0
   47.8514   17.3166   14.8903 H   0  0  0  0  0  0  0  0  0  0  0  0
   50.6738   14.0409   15.0076 H   0  0  0  0  0  0  0  0  0  0  0  0
   51.2968   15.6948   15.1630 H   0  0  0  0  0  0  0  0  0  0  0  0
   50.5957   15.1419   13.6346 H   0  0  0  0  0  0  0  0  0  0  0  0
   49.2405   11.9770   18.1233 H   0  0  0  0  0  0  0  0  0  0  0  0
   49.0151   14.0110   15.4093 H   0  0  0  0  0  0  0  0  0  0  0  0
   48.6085   14.1806   19.4036 H   0  0  0  0  0  0  0  0  0  0  0  0
   49.1992   10.6519   16.9886 H   0  0  0  0  0  0  0  0  0  0  0  0
   46.1456   10.7205   20.0123 H   0  0  0  0  0  0  0  0  0  0  0  0
   47.9877   13.5259   15.8943 H   0  0  0  0  0  0  0  0  0  0  0  0
   50.2206   14.2531   17.7377 H   0  0  0  0  0  0  0  0  0  0  0  0
   50.8897   13.7843   15.3992 H   0  0  0  0  0  0  0  0  0  0  0  0
   50.1568   12.2207   15.4579 H   0  0  0  0  0  0  0  0  0  0  0  0
   46.5870    8.9750   18.6314 H   0  0  0  0  0  0  0  0  0  0  0  0
   46.9789   14.0066   20.9479 H   0  0  0  0  0  0  0  0  0  0  0  0
   51.2410   11.9561   18.4203 H   0  0  0  0  0  0  0  0  0  0  0  0
   49.5873   15.3468   14.1899 H   0  0  0  0  0  0  0  0  0  0  0  0
   47.3646   14.7616   13.2605 H   0  0  0  0  0  0  0  0  0  0  0  0
   47.4228   16.4534   13.7675 H   0  0  0  0  0  0  0  0  0  0  0  0
   46.5811   15.2607   14.7709 H   0  0  0  0  0  0  0  0  0  0  0  0
   49.8727   16.0745   16.5170 H   0  0  0  0  0  0  0  0  0  0  0  0
   48.7115   17.1483   15.7487 H   0  0  0  0  0  0  0  0  0  0  0  0
   48.1368   15.8849   16.8458 H   0  0  0  0  0  0  0  0  0  0  0  0
  2  1  2  0
  3  1  1  0
  4  2  1  0
  5  3  2  0
  6  4  2  0
  7  9  1  0
  8  1  1  0
  9  8  1  0
 10  5  1  0
 11  4  1  0
 12  8  1  0
 13  7  1  0
 14 13  1  0
 15 13  1  0
  6  5  1  0
 17 16  2  0
 18 16  2  0
 19 16  1  0
 20 16  1  0
 22 21  2  0
 23 21  1  0
 24 22  1  0
 25 23  2  0
 26 24  2  0
 27 29  1  0
 28 21  1  0
 29 28  1  0
 30 25  1  0
 31 24  1  0
 32 28  1  0
 33 27  1  0
 34 33  1  0
 35 33  1  0
 26 25  1  0
  2 36  1  0
  3 37  1  0
  6 38  1  0
  7 39  1  0
  8 40  1  6
  9 41  1  0
  9 42  1  0
 10 43  1  0
 11 44  1  0
 12 45  1  0
 13 46  1  0
 14 47  1  0
 14 48  1  0
 14 49  1  0
 15 50  1  0
 15 51  1  0
 15 52  1  0
 19 53  1  0
 20 54  1  0
 22 55  1  0
 23 56  1  0
 26 57  1  0
 27 58  1  0
 28 59  1  1
 29 60  1  0
 29 61  1  0
 30 62  1  0
 31 63  1  0
 32 64  1  0
 33 65  1  0
 34 66  1  0
 34 67  1  0
 34 68  1  0
 35 69  1  0
 35 70  1  0
 35 71  1  0
M  END
> <Uni-Dock RESULT> 
ENERGY=   -4.176  LOWER_BOUND=    6.340  UPPER_BOUND=    7.749
INTER + INTRA:          -4.176
INTER:                  -4.176
INTRA:                   0.000
UNBOUND:                 0.000

$$$$

     RDKit          3D

 71 70  0  0  0  0  0  0  0  0999 V2000
   49.4967    5.6894   16.7233 C   0  0  0  0  0  0  0  0  0  0  0  0
   48.6847    4.9381   17.5883 C   0  0  0  0  0  0  0  0  0  0  0  0
   50.8748    5.7599   16.9879 C   0  0  0  0  0  0  0  0  0  0  0  0
   49.2475    4.2795   18.6806 C   0  0  0  0  0  0  0  0  0  0  0  0
   51.4159    5.0978   18.0868 C   0  0  0  0  0  0  0  0  0  0  0  0
   50.6107    4.3551   18.9410 C   0  0  0  0  0  0  0  0  0  0  0  0
   48.0122    8.6751   14.7951 N   0  0  0  0  0  0  0  0  0  0  0  0
   48.9244    6.4387   15.5392 C   0  0  2  0  0  0  0  0  0  0  0  0
   48.7740    7.9519   15.8355 C   0  0  0  0  0  0  0  0  0  0  0  0
   52.7599    5.2062   18.2929 O   0  0  0  0  0  0  0  0  0  0  0  0
   48.4784    3.5386   19.5308 O   0  0  0  0  0  0  0  0  0  0  0  0
   47.6411    5.9165   15.1735 O   0  0  0  0  0  0  0  0  0  0  0  0
   48.6820    8.7692   13.4894 C   0  0  0  0  0  0  0  0  0  0  0  0
   47.6904    9.4003   12.5079 C   0  0  0  0  0  0  0  0  0  0  0  0
   49.9659    9.6007   13.5332 C   0  0  0  0  0  0  0  0  0  0  0  0
   48.8357    6.8653   15.8380 S   0  0  0  0  0  0  0  0  0  0  0  0
   48.0936    7.3878   16.9567 O   0  0  0  0  0  0  0  0  0  0  0  0
   48.2893    5.9524   14.8662 O   0  0  0  0  0  0  0  0  0  0  0  0
   50.1710    6.2164   16.4453 O   0  0  0  0  0  0  0  0  0  0  0  0
   49.4406    8.1000   15.0111 O   0  0  0  0  0  0  0  0  0  0  0  0
   49.8534    6.8321   17.0649 C   0  0  0  0  0  0  0  0  0  0  0  0
   48.6033    6.6459   17.6788 C   0  0  0  0  0  0  0  0  0  0  0  0
   50.7660    5.7652   17.0569 C   0  0  0  0  0  0  0  0  0  0  0  0
   48.2833    5.4155   18.2510 C   0  0  0  0  0  0  0  0  0  0  0  0
   50.4253    4.5449   17.6341 C   0  0  0  0  0  0  0  0  0  0  0  0
   49.1852    4.3587   18.2319 C   0  0  0  0  0  0  0  0  0  0  0  0
   49.8174    7.4029   14.0238 N   0  0  0  0  0  0  0  0  0  0  0  0
   50.2048    8.1741   16.4506 C   0  0  2  0  0  0  0  0  0  0  0  0
   50.6834    8.1118   14.9729 C   0  0  0  0  0  0  0  0  0  0  0  0
   51.3514    3.5449   17.5933 O   0  0  0  0  0  0  0  0  0  0  0  0
   47.0759    5.2049   18.8508 O   0  0  0  0  0  0  0  0  0  0  0  0
   51.2171    8.8092   17.2391 O   0  0  0  0  0  0  0  0  0  0  0  0
   48.8983    8.2457   13.2603 C   0  0  0  0  0  0  0  0  0  0  0  0
   48.2586    7.3692   12.1802 C   0  0  0  0  0  0  0  0  0  0  0  0
   47.8069    8.8878   14.1144 C   0  0  0  0  0  0  0  0  0  0  0  0
   47.6165    4.8718   17.3961 H   0  0  0  0  0  0  0  0  0  0  0  0
   51.5358    6.3298   16.3389 H   0  0  0  0  0  0  0  0  0  0  0  0
   51.0181    3.8327   19.7992 H   0  0  0  0  0  0  0  0  0  0  0  0
   47.8212    9.6188   15.1373 H   0  0  0  0  0  0  0  0  0  0  0  0
   49.5819    6.2793   14.6775 H   0  0  0  0  0  0  0  0  0  0  0  0
   49.7457    8.4208   16.0260 H   0  0  0  0  0  0  0  0  0  0  0  0
   48.1959    8.0637   16.7621 H   0  0  0  0  0  0  0  0  0  0  0  0
   52.9904    4.6881   19.0822 H   0  0  0  0  0  0  0  0  0  0  0  0
   47.5669    3.5386   19.1928 H   0  0  0  0  0  0  0  0  0  0  0  0
   47.2013    6.6660   14.7216 H   0  0  0  0  0  0  0  0  0  0  0  0
   48.9158    7.7679   13.1111 H   0  0  0  0  0  0  0  0  0  0  0  0
   47.4121   10.4161   12.8107 H   0  0  0  0  0  0  0  0  0  0  0  0
   48.1235    9.4568   11.5029 H   0  0  0  0  0  0  0  0  0  0  0  0
   46.7740    8.8033   12.4373 H   0  0  0  0  0  0  0  0  0  0  0  0
   50.7407    9.1142   14.1339 H   0  0  0  0  0  0  0  0  0  0  0  0
   49.7845   10.5975   13.9514 H   0  0  0  0  0  0  0  0  0  0  0  0
   50.3750    9.7316   12.5249 H   0  0  0  0  0  0  0  0  0  0  0  0
   50.3593    6.6794   17.2879 H   0  0  0  0  0  0  0  0  0  0  0  0
   49.7043    7.7579   14.1317 H   0  0  0  0  0  0  0  0  0  0  0  0
   47.8882    7.4635   17.7043 H   0  0  0  0  0  0  0  0  0  0  0  0
   51.7476    5.8761   16.6005 H   0  0  0  0  0  0  0  0  0  0  0  0
   48.9088    3.4133   18.6859 H   0  0  0  0  0  0  0  0  0  0  0  0
   49.3260    6.6357   14.4829 H   0  0  0  0  0  0  0  0  0  0  0  0
   49.3308    8.8296   16.5077 H   0  0  0  0  0  0  0  0  0  0  0  0
   50.9082    9.1278   14.6213 H   0  0  0  0  0  0  0  0  0  0  0  0
   51.6577    7.6064   14.9516 H   0  0  0  0  0  0  0  0  0  0  0  0
   50.9682    2.7510   18.0011 H   0  0  0  0  0  0  0  0  0  0  0  0
   46.5568    6.0248   18.8127 H   0  0  0  0  0  0  0  0  0  0  0  0
   51.3653    8.2676   18.0336 H   0  0  0  0  0  0  0  0  0  0  0  0
   49.4634    9.0347   12.7494 H   0  0  0  0  0  0  0  0  0  0  0  0
   49.0223    6.9177   11.5368 H   0  0  0  0  0  0  0  0  0  0  0  0
   47.5983    7.9641   11.5396 H   0  0  0  0  0  0  0  0  0  0  0  0
   47.6630    6.5601   12.6178 H   0  0  0  0  0  0  0  0  0  0  0  0
   48.2202    9.6572   14.7726 H   0  0  0  0  0  0  0  0  0  0  0  0
   47.0580    9.3785   13.4829 H   0  0  0  0  0  0  0  0  0  0  0  0
   47.2881    8.1451   14.7302 H   0  0  0  0  0  0  0  0  0  0  0  0
  2  1  2  0
  3  1  1  0
  4  2  1  0
  5  3  2  0
  6  4  2  0
  7  9  1  0
  8  1  1  0
  9  8  1  0
 10  5  1  0
 11  4  1  0
 12  8  1  0
 13  7  1  0
 14 13  1  0
 15 13  1  0
  6  5  1  0
 17 16  2  0
 18 16  2  0
 19 16  1  0
 20 16  1  0
 22 21  2  0
 23 21  1  0
 24 22  1  0
 25 23  2  0
 26 24  2  0
 27 29  1  0
 28 21  1  0
 29 28  1  0
 30 25  1  0
 31 24  1  0
 32 28  1  0
 33 27  1  0
 34 33  1  0
 35 33  1  0
 26 25  1  0
  2 36  1  0
  3 37  1  0
  6 38  1  0
  7 39  1  0
  8 40  1  6
  9 41  1  0
  9 42  1  0
 10 43  1  0
 11 44  1  0
 12 45  1  0
 13 46  1  0
 14 47  1  0
 14 48  1  0
 14 49  1  0
 15 50  1  0
 15 51  1  0
 15 52  1  0
 19 53  1  0
 20 54  1  0
 22 55  1  0
 23 56  1  0
 26 57  1  0
 27 58  1  0
 28 59  1  1
 29 60  1  0
 29 61  1  0
 30 62  1  0
 31 63  1  0
 32 64  1  0
 33 65  1  0
 34 66  1  0
 34 67  1  0
 34 68  1  0
 35 69  1  0
 35 70  1  0
 35 71  1  0
M  END
> <Uni-Dock RESULT> 
ENERGY=   -4.095  LOWER_BOUND=    3.154  UPPER_BOUND=    4.817
INTER + INTRA:          -4.095
INTER:                  -4.095
INTRA:                   0.000
UNBOUND:                 0.000

$$$$

     RDKit          3D

 71 70  0  0  0  0  0  0  0  0999 V2000
   47.8354   10.6750   18.4251 C   0  0  0  0  0  0  0  0  0  0  0  0
   47.8494   12.0597   18.6584 C   0  0  0  0  0  0  0  0  0  0  0  0
   47.3635    9.8274   19.4415 C   0  0  0  0  0  0  0  0  0  0  0  0
   47.3995   12.5688   19.8758 C   0  0  0  0  0  0  0  0  0  0  0  0
   46.9226   10.3564   20.6517 C   0  0  0  0  0  0  0  0  0  0  0  0
   46.9373   11.7265   20.8801 C   0  0  0  0  0  0  0  0  0  0  0  0
   50.3706    9.1063   15.9864 N   0  0  0  0  0  0  0  0  0  0  0  0
   48.3356   10.0779   17.1272 C   0  0  2  0  0  0  0  0  0  0  0  0
   49.7612    9.4904   17.2774 C   0  0  0  0  0  0  0  0  0  0  0  0
   46.4788    9.4828   21.6007 O   0  0  0  0  0  0  0  0  0  0  0  0
   47.3983   13.9114   20.1220 O   0  0  0  0  0  0  0  0  0  0  0  0
   48.3555   11.0608   16.0847 O   0  0  0  0  0  0  0  0  0  0  0  0
   49.7298    7.9666   15.3134 C   0  0  0  0  0  0  0  0  0  0  0  0
   50.3839    7.8178   13.9368 C   0  0  0  0  0  0  0  0  0  0  0  0
   49.8643    6.6571   16.0936 C   0  0  0  0  0  0  0  0  0  0  0  0
   48.8275   10.0480   17.3178 S   0  0  0  0  0  0  0  0  0  0  0  0
   49.9552   10.8067   17.7953 O   0  0  0  0  0  0  0  0  0  0  0  0
   47.9970   10.4514   16.2116 O   0  0  0  0  0  0  0  0  0  0  0  0
   47.8845    9.7917   18.5898 O   0  0  0  0  0  0  0  0  0  0  0  0
   49.3217    8.5564   16.9940 O   0  0  0  0  0  0  0  0  0  0  0  0
   48.7397    9.9688   18.9078 C   0  0  0  0  0  0  0  0  0  0  0  0
   49.3404   11.2185   18.6807 C   0  0  0  0  0  0  0  0  0  0  0  0
   47.4387    9.9319   19.4344 C   0  0  0  0  0  0  0  0  0  0  0  0
   48.6405   12.3906   18.9631 C   0  0  0  0  0  0  0  0  0  0  0  0
   46.7580   11.1150   19.7087 C   0  0  0  0  0  0  0  0  0  0  0  0
   47.3491   12.3502   19.4743 C   0  0  0  0  0  0  0  0  0  0  0  0
   48.2539    8.2058   16.4115 N   0  0  0  0  0  0  0  0  0  0  0  0
   49.5052    8.6933   18.6093 C   0  0  2  0  0  0  0  0  0  0  0  0
   48.7640    7.6865   17.6856 C   0  0  0  0  0  0  0  0  0  0  0  0
   45.4963   11.0162   20.2162 O   0  0  0  0  0  0  0  0  0  0  0  0
   49.1972   13.6180   18.7494 O   0  0  0  0  0  0  0  0  0  0  0  0
   49.8368    8.0373   19.8379 O   0  0  0  0  0  0  0  0  0  0  0  0
   49.1224    7.9968   15.2540 C   0  0  0  0  0  0  0  0  0  0  0  0
   48.3292    8.3912   14.0053 C   0  0  0  0  0  0  0  0  0  0  0  0
   50.4209    8.7990   15.3128 C   0  0  0  0  0  0  0  0  0  0  0  0
   48.2095   12.7293   17.8811 H   0  0  0  0  0  0  0  0  0  0  0  0
   47.3351    8.7499   19.2966 H   0  0  0  0  0  0  0  0  0  0  0  0
   46.5952   12.1528   21.8164 H   0  0  0  0  0  0  0  0  0  0  0  0
   51.3539    8.8821   16.1516 H   0  0  0  0  0  0  0  0  0  0  0  0
   47.6314    9.3013   16.8089 H   0  0  0  0  0  0  0  0  0  0  0  0
   49.7797    8.6639   17.9963 H   0  0  0  0  0  0  0  0  0  0  0  0
   50.4111   10.2708   17.6948 H   0  0  0  0  0  0  0  0  0  0  0  0
   46.1972    9.9937   22.3780 H   0  0  0  0  0  0  0  0  0  0  0  0
   47.6969   14.3673   19.3169 H   0  0  0  0  0  0  0  0  0  0  0  0
   49.0323   10.7282   15.4596 H   0  0  0  0  0  0  0  0  0  0  0  0
   48.6677    8.1758   15.1438 H   0  0  0  0  0  0  0  0  0  0  0  0
   51.4536    7.5944   14.0191 H   0  0  0  0  0  0  0  0  0  0  0  0
   49.9142    7.0055   13.3709 H   0  0  0  0  0  0  0  0  0  0  0  0
   50.2724    8.7354   13.3479 H   0  0  0  0  0  0  0  0  0  0  0  0
   49.3052    6.6892   17.0340 H   0  0  0  0  0  0  0  0  0  0  0  0
   50.9119    6.4341   16.3262 H   0  0  0  0  0  0  0  0  0  0  0  0
   49.4663    5.8185   15.5110 H   0  0  0  0  0  0  0  0  0  0  0  0
   48.4579    9.8168   19.3837 H   0  0  0  0  0  0  0  0  0  0  0  0
   48.6355    8.1396   16.4327 H   0  0  0  0  0  0  0  0  0  0  0  0
   50.3507   11.2668   18.2838 H   0  0  0  0  0  0  0  0  0  0  0  0
   46.9458    8.9824   19.6336 H   0  0  0  0  0  0  0  0  0  0  0  0
   46.8295   13.2785   19.6851 H   0  0  0  0  0  0  0  0  0  0  0  0
   47.9807    9.1848   16.5010 H   0  0  0  0  0  0  0  0  0  0  0  0
   50.4614    8.9542   18.1460 H   0  0  0  0  0  0  0  0  0  0  0  0
   49.3984    6.8039   17.5279 H   0  0  0  0  0  0  0  0  0  0  0  0
   47.8999    7.2921   18.2360 H   0  0  0  0  0  0  0  0  0  0  0  0
   45.1361   11.9115   20.3270 H   0  0  0  0  0  0  0  0  0  0  0  0
   50.1013   13.5009   18.4147 H   0  0  0  0  0  0  0  0  0  0  0  0
   49.5741    8.6196   20.5717 H   0  0  0  0  0  0  0  0  0  0  0  0
   49.3641    6.9307   15.1651 H   0  0  0  0  0  0  0  0  0  0  0  0
   47.4040    7.8089   13.9269 H   0  0  0  0  0  0  0  0  0  0  0  0
   48.9146    8.2022   13.0988 H   0  0  0  0  0  0  0  0  0  0  0  0
   48.0607    9.4536   14.0168 H   0  0  0  0  0  0  0  0  0  0  0  0
   51.0902    8.4131   16.0868 H   0  0  0  0  0  0  0  0  0  0  0  0
   50.9621    8.7320   14.3624 H   0  0  0  0  0  0  0  0  0  0  0  0
   50.2309    9.8589   15.5137 H   0  0  0  0  0  0  0  0  0  0  0  0
  2  1  2  0
  3  1  1  0
  4  2  1  0
  5  3  2  0
  6  4  2  0
  7  9  1  0
  8  1  1  0
  9  8  1  0
 10  5  1  0
 11  4  1  0
 12  8  1  0
 13  7  1  0
 14 13  1  0
 15 13  1  0
  6  5  1  0
 17 16  2  0
 18 16  2  0
 19 16  1  0
 20 16  1  0
 22 21  2  0
 23 21  1  0
 24 22  1  0
 25 23  2  0
 26 24  2  0
 27 29  1  0
 28 21  1  0
 29 28  1  0
 30 25  1  0
 31 24  1  0
 32 28  1  0
 33 27  1  0
 34 33  1  0
 35 33  1  0
 26 25  1  0
  2 36  1  0
  3 37  1  0
  6 38  1  0
  7 39  1  0
  8 40  1  6
  9 41  1  0
  9 42  1  0
 10 43  1  0
 11 44  1  0
 12 45  1  0
 13 46  1  0
 14 47  1  0
 14 48  1  0
 14 49  1  0
 15 50  1  0
 15 51  1  0
 15 52  1  0
 19 53  1  0
 20 54  1  0
 22 55  1  0
 23 56  1  0
 26 57  1  0
 27 58  1  0
 28 59  1  1
 29 60  1  0
 29 61  1  0
 30 62  1  0
 31 63  1  0
 32 64  1  0
 33 65  1  0
 34 66  1  0
 34 67  1  0
 34 68  1  0
 35 69  1  0
 35 70  1  0
 35 71  1  0
M  END
> <Uni-Dock RESULT> 
ENERGY=   -4.044  LOWER_BOUND=    4.690  UPPER_BOUND=    6.876
INTER + INTRA:          -4.044
INTER:                  -4.044
INTRA:                   0.000
UNBOUND:                 0.000

$$$$
