
     RDKit          3D

 71 70  0  0  0  0  0  0  0  0999 V2000
   45.5164    5.0183   12.1970 C   0  0  0  0  0  0  0  0  0  0  0  0
   45.1840    5.1788   10.8448 C   0  0  0  0  0  0  0  0  0  0  0  0
   44.8559    4.0122   12.9287 C   0  0  0  0  0  0  0  0  0  0  0  0
   44.2182    4.3645   10.2543 C   0  0  0  0  0  0  0  0  0  0  0  0
   43.8935    3.2087   12.3196 C   0  0  0  0  0  0  0  0  0  0  0  0
   43.5667    3.3773   10.9818 C   0  0  0  0  0  0  0  0  0  0  0  0
   48.2112    7.7794   12.8522 N   0  0  0  0  0  0  0  0  0  0  0  0
   46.5618    5.8550   12.9105 C   0  0  2  0  0  0  0  0  0  0  0  0
   47.1259    7.0773   12.1383 C   0  0  0  0  0  0  0  0  0  0  0  0
   43.2447    2.2305   13.0137 O   0  0  0  0  0  0  0  0  0  0  0  0
   43.9393    4.5738    8.9357 O   0  0  0  0  0  0  0  0  0  0  0  0
   47.6596    4.9970   13.2592 O   0  0  0  0  0  0  0  0  0  0  0  0
   47.7511    8.6499   13.9418 C   0  0  0  0  0  0  0  0  0  0  0  0
   47.1051    9.9276   13.4056 C   0  0  0  0  0  0  0  0  0  0  0  0
   48.9611    9.0125   14.8092 C   0  0  0  0  0  0  0  0  0  0  0  0
   46.2860    6.5620   12.1467 S   0  0  0  0  0  0  0  0  0  0  0  0
   46.6807    5.9864   10.8864 O   0  0  0  0  0  0  0  0  0  0  0  0
   45.7893    7.9072   12.2919 O   0  0  0  0  0  0  0  0  0  0  0  0
   45.2238    5.5542   12.8015 O   0  0  0  0  0  0  0  0  0  0  0  0
   47.5169    6.4270   13.1662 O   0  0  0  0  0  0  0  0  0  0  0  0
   45.3827    4.9057   12.6469 C   0  0  0  0  0  0  0  0  0  0  0  0
   44.3101    5.8038   12.5217 C   0  0  0  0  0  0  0  0  0  0  0  0
   45.4633    3.8291   11.7485 C   0  0  0  0  0  0  0  0  0  0  0  0
   43.3456    5.6185   11.5345 C   0  0  0  0  0  0  0  0  0  0  0  0
   44.4845    3.6585   10.7707 C   0  0  0  0  0  0  0  0  0  0  0  0
   43.4225    4.5467   10.6544 C   0  0  0  0  0  0  0  0  0  0  0  0
   47.1761    7.4867   13.2328 N   0  0  0  0  0  0  0  0  0  0  0  0
   46.4294    5.1275   13.7201 C   0  0  2  0  0  0  0  0  0  0  0  0
   47.5741    6.0747   13.2719 C   0  0  0  0  0  0  0  0  0  0  0  0
   44.5352    2.6125    9.8956 O   0  0  0  0  0  0  0  0  0  0  0  0
   42.3269    6.5244   11.4625 O   0  0  0  0  0  0  0  0  0  0  0  0
   46.9933    3.8664   14.1070 O   0  0  0  0  0  0  0  0  0  0  0  0
   48.2238    8.3718   12.7160 C   0  0  0  0  0  0  0  0  0  0  0  0
   47.5607    9.6907   12.3129 C   0  0  0  0  0  0  0  0  0  0  0  0
   49.3161    8.6361   13.7556 C   0  0  0  0  0  0  0  0  0  0  0  0
   45.6610    5.9317   10.2232 H   0  0  0  0  0  0  0  0  0  0  0  0
   45.1115    3.8664   13.9757 H   0  0  0  0  0  0  0  0  0  0  0  0
   42.8163    2.7376   10.5297 H   0  0  0  0  0  0  0  0  0  0  0  0
   48.8150    7.0504   13.2454 H   0  0  0  0  0  0  0  0  0  0  0  0
   46.1191    6.2091   13.8485 H   0  0  0  0  0  0  0  0  0  0  0  0
   46.3236    7.7618   11.8448 H   0  0  0  0  0  0  0  0  0  0  0  0
   47.5839    6.7192   11.2081 H   0  0  0  0  0  0  0  0  0  0  0  0
   43.5510    2.2476   13.9356 H   0  0  0  0  0  0  0  0  0  0  0  0
   43.2118    3.9820    8.6770 H   0  0  0  0  0  0  0  0  0  0  0  0
   47.8277    4.4308   12.4849 H   0  0  0  0  0  0  0  0  0  0  0  0
   47.0345    8.1253   14.5825 H   0  0  0  0  0  0  0  0  0  0  0  0
   47.7705   10.4519   12.7103 H   0  0  0  0  0  0  0  0  0  0  0  0
   46.1673    9.7185   12.8840 H   0  0  0  0  0  0  0  0  0  0  0  0
   46.8730   10.6153   14.2261 H   0  0  0  0  0  0  0  0  0  0  0  0
   49.7262    9.5449   14.2317 H   0  0  0  0  0  0  0  0  0  0  0  0
   48.6625    9.6572   15.6433 H   0  0  0  0  0  0  0  0  0  0  0  0
   49.4203    8.1137   15.2363 H   0  0  0  0  0  0  0  0  0  0  0  0
   45.4656    4.6479   12.5174 H   0  0  0  0  0  0  0  0  0  0  0  0
   47.4782    7.2038   13.7645 H   0  0  0  0  0  0  0  0  0  0  0  0
   44.2262    6.6590   13.1879 H   0  0  0  0  0  0  0  0  0  0  0  0
   46.2896    3.1284   11.8289 H   0  0  0  0  0  0  0  0  0  0  0  0
   42.6764    4.3882    9.8841 H   0  0  0  0  0  0  0  0  0  0  0  0
   46.8675    7.8010   14.1514 H   0  0  0  0  0  0  0  0  0  0  0  0
   45.9362    5.5251   14.6163 H   0  0  0  0  0  0  0  0  0  0  0  0
   48.4142    5.9461   13.9642 H   0  0  0  0  0  0  0  0  0  0  0  0
   47.9341    5.7568   12.2856 H   0  0  0  0  0  0  0  0  0  0  0  0
   45.3085    2.0675   10.1204 H   0  0  0  0  0  0  0  0  0  0  0  0
   41.7600    6.2822   10.7110 H   0  0  0  0  0  0  0  0  0  0  0  0
   47.3765    3.9953   14.9913 H   0  0  0  0  0  0  0  0  0  0  0  0
   48.6774    7.9389   11.8149 H   0  0  0  0  0  0  0  0  0  0  0  0
   46.7837    9.5250   11.5583 H   0  0  0  0  0  0  0  0  0  0  0  0
   48.2965   10.3783   11.8837 H   0  0  0  0  0  0  0  0  0  0  0  0
   47.0978   10.1886   13.1728 H   0  0  0  0  0  0  0  0  0  0  0  0
   49.8615    7.7211   14.0052 H   0  0  0  0  0  0  0  0  0  0  0  0
   50.0467    9.3560   13.3713 H   0  0  0  0  0  0  0  0  0  0  0  0
   48.8971    9.0486   14.6810 H   0  0  0  0  0  0  0  0  0  0  0  0
  2  1  2  0
  3  1  1  0
  4  2  1  0
  5  3  2  0
  6  4  2  0
  7  9  1  0
  8  1  1  0
  9  8  1  0
 10  5  1  0
 11  4  1  0
 12  8  1  0
 13  7  1  0
 14 13  1  0
 15 13  1  0
  6  5  1  0
 17 16  2  0
 18 16  2  0
 19 16  1  0
 20 16  1  0
 22 21  2  0
 23 21  1  0
 24 22  1  0
 25 23  2  0
 26 24  2  0
 27 29  1  0
 28 21  1  0
 29 28  1  0
 30 25  1  0
 31 24  1  0
 32 28  1  0
 33 27  1  0
 34 33  1  0
 35 33  1  0
 26 25  1  0
  2 36  1  0
  3 37  1  0
  6 38  1  0
  7 39  1  0
  8 40  1  6
  9 41  1  0
  9 42  1  0
 10 43  1  0
 11 44  1  0
 12 45  1  0
 13 46  1  0
 14 47  1  0
 14 48  1  0
 14 49  1  0
 15 50  1  0
 15 51  1  0
 15 52  1  0
 19 53  1  0
 20 54  1  0
 22 55  1  0
 23 56  1  0
 26 57  1  0
 27 58  1  0
 28 59  1  6
 29 60  1  0
 29 61  1  0
 30 62  1  0
 31 63  1  0
 32 64  1  0
 33 65  1  0
 34 66  1  0
 34 67  1  0
 34 68  1  0
 35 69  1  0
 35 70  1  0
 35 71  1  0
M  END
> <Uni-Dock RESULT> 
ENERGY=   -6.226  LOWER_BOUND=    0.000  UPPER_BOUND=    0.000
INTER + INTRA:          -6.226
INTER:                  -6.226
INTRA:                   0.000
UNBOUND:                 0.000

$$$$

     RDKit          3D

 71 70  0  0  0  0  0  0  0  0999 V2000
   47.4938    8.3190   12.6730 C   0  0  0  0  0  0  0  0  0  0  0  0
   48.6719    7.7514   12.1684 C   0  0  0  0  0  0  0  0  0  0  0  0
   47.6000    9.4873   13.4525 C   0  0  0  0  0  0  0  0  0  0  0  0
   49.9093    8.3319   12.4448 C   0  0  0  0  0  0  0  0  0  0  0  0
   48.8467   10.0519   13.7171 C   0  0  0  0  0  0  0  0  0  0  0  0
   50.0084    9.4811   13.2179 C   0  0  0  0  0  0  0  0  0  0  0  0
   44.6638    5.9333   11.4023 N   0  0  0  0  0  0  0  0  0  0  0  0
   46.1097    7.7557   12.4099 C   0  0  2  0  0  0  0  0  0  0  0  0
   46.0390    6.3674   11.7199 C   0  0  0  0  0  0  0  0  0  0  0  0
   48.9670   11.1825   14.4700 O   0  0  0  0  0  0  0  0  0  0  0  0
   51.0172    7.7288   11.9260 O   0  0  0  0  0  0  0  0  0  0  0  0
   45.3900    8.6983   11.5997 O   0  0  0  0  0  0  0  0  0  0  0  0
   43.9109    5.4249   12.5562 C   0  0  0  0  0  0  0  0  0  0  0  0
   44.3901    4.0337   12.9711 C   0  0  0  0  0  0  0  0  0  0  0  0
   42.4288    5.3629   12.1719 C   0  0  0  0  0  0  0  0  0  0  0  0
   46.6754    6.8462   12.3003 S   0  0  0  0  0  0  0  0  0  0  0  0
   47.5229    7.0208   11.1486 O   0  0  0  0  0  0  0  0  0  0  0  0
   46.5351    5.5992   13.0093 O   0  0  0  0  0  0  0  0  0  0  0  0
   47.0857    7.9858   13.3518 O   0  0  0  0  0  0  0  0  0  0  0  0
   45.1905    7.3048   11.9035 O   0  0  0  0  0  0  0  0  0  0  0  0
   47.2661    8.5599   13.0239 C   0  0  0  0  0  0  0  0  0  0  0  0
   47.7928    7.6471   13.9524 C   0  0  0  0  0  0  0  0  0  0  0  0
   48.1594    9.3158   12.2470 C   0  0  0  0  0  0  0  0  0  0  0  0
   49.1702    7.5083   14.1027 C   0  0  0  0  0  0  0  0  0  0  0  0
   49.5349    9.1655   12.4166 C   0  0  0  0  0  0  0  0  0  0  0  0
   50.0508    8.2651   13.3403 C   0  0  0  0  0  0  0  0  0  0  0  0
   45.0850    6.3089   12.3941 N   0  0  0  0  0  0  0  0  0  0  0  0
   45.7648    8.6915   12.8656 C   0  0  2  0  0  0  0  0  0  0  0  0
   45.1640    7.6736   11.8599 C   0  0  0  0  0  0  0  0  0  0  0  0
   50.4212    9.8988   11.6823 O   0  0  0  0  0  0  0  0  0  0  0  0
   49.6221    6.6051   15.0213 O   0  0  0  0  0  0  0  0  0  0  0  0
   45.4438   10.0203   12.4306 O   0  0  0  0  0  0  0  0  0  0  0  0
   44.6106    5.3277   11.4141 C   0  0  0  0  0  0  0  0  0  0  0  0
   44.9901    3.9371   11.9279 C   0  0  0  0  0  0  0  0  0  0  0  0
   43.0959    5.4094   11.2072 C   0  0  0  0  0  0  0  0  0  0  0  0
   48.6585    6.8544   11.5553 H   0  0  0  0  0  0  0  0  0  0  0  0
   46.6943    9.9473   13.8410 H   0  0  0  0  0  0  0  0  0  0  0  0
   50.9666    9.9407   13.4354 H   0  0  0  0  0  0  0  0  0  0  0  0
   44.1809    6.7576   11.0310 H   0  0  0  0  0  0  0  0  0  0  0  0
   45.5887    7.6940   13.3721 H   0  0  0  0  0  0  0  0  0  0  0  0
   46.5797    5.6121   12.2992 H   0  0  0  0  0  0  0  0  0  0  0  0
   46.5459    6.4356   10.7496 H   0  0  0  0  0  0  0  0  0  0  0  0
   48.0835   11.4504   14.7727 H   0  0  0  0  0  0  0  0  0  0  0  0
   51.8043    8.2018   12.2474 H   0  0  0  0  0  0  0  0  0  0  0  0
   46.0093    9.0068   10.9143 H   0  0  0  0  0  0  0  0  0  0  0  0
   43.9997    6.1058   13.4092 H   0  0  0  0  0  0  0  0  0  0  0  0
   44.3737    3.3356   12.1264 H   0  0  0  0  0  0  0  0  0  0  0  0
   45.4077    4.0587   13.3699 H   0  0  0  0  0  0  0  0  0  0  0  0
   43.7451    3.6221   13.7551 H   0  0  0  0  0  0  0  0  0  0  0  0
   42.2610    4.6945   11.3190 H   0  0  0  0  0  0  0  0  0  0  0  0
   41.8250    4.9954   13.0091 H   0  0  0  0  0  0  0  0  0  0  0  0
   42.0513    6.3568   11.9056 H   0  0  0  0  0  0  0  0  0  0  0  0
   47.3769    8.7680   12.8379 H   0  0  0  0  0  0  0  0  0  0  0  0
   44.5716    6.7447   12.4192 H   0  0  0  0  0  0  0  0  0  0  0  0
   47.1310    7.0320   14.5573 H   0  0  0  0  0  0  0  0  0  0  0  0
   47.7679   10.0226   11.5208 H   0  0  0  0  0  0  0  0  0  0  0  0
   51.1251    8.1700   13.4500 H   0  0  0  0  0  0  0  0  0  0  0  0
   44.5063    6.2817   13.2320 H   0  0  0  0  0  0  0  0  0  0  0  0
   45.2951    8.5748   13.8505 H   0  0  0  0  0  0  0  0  0  0  0  0
   44.1623    8.0202   11.5806 H   0  0  0  0  0  0  0  0  0  0  0  0
   45.7630    7.6848   10.9408 H   0  0  0  0  0  0  0  0  0  0  0  0
   49.9151   10.4998   11.1097 H   0  0  0  0  0  0  0  0  0  0  0  0
   50.5934    6.5987   14.9859 H   0  0  0  0  0  0  0  0  0  0  0  0
   44.5134   10.1716   12.6697 H   0  0  0  0  0  0  0  0  0  0  0  0
   45.1170    5.4759   10.4514 H   0  0  0  0  0  0  0  0  0  0  0  0
   46.0734    3.8532   12.0700 H   0  0  0  0  0  0  0  0  0  0  0  0
   44.6902    3.1651   11.2120 H   0  0  0  0  0  0  0  0  0  0  0  0
   44.5041    3.7144   12.8849 H   0  0  0  0  0  0  0  0  0  0  0  0
   42.8029    6.3666   10.7656 H   0  0  0  0  0  0  0  0  0  0  0  0
   42.7574    4.6202   10.5274 H   0  0  0  0  0  0  0  0  0  0  0  0
   42.5552    5.2887   12.1533 H   0  0  0  0  0  0  0  0  0  0  0  0
  2  1  2  0
  3  1  1  0
  4  2  1  0
  5  3  2  0
  6  4  2  0
  7  9  1  0
  8  1  1  0
  9  8  1  0
 10  5  1  0
 11  4  1  0
 12  8  1  0
 13  7  1  0
 14 13  1  0
 15 13  1  0
  6  5  1  0
 17 16  2  0
 18 16  2  0
 19 16  1  0
 20 16  1  0
 22 21  2  0
 23 21  1  0
 24 22  1  0
 25 23  2  0
 26 24  2  0
 27 29  1  0
 28 21  1  0
 29 28  1  0
 30 25  1  0
 31 24  1  0
 32 28  1  0
 33 27  1  0
 34 33  1  0
 35 33  1  0
 26 25  1  0
  2 36  1  0
  3 37  1  0
  6 38  1  0
  7 39  1  0
  8 40  1  6
  9 41  1  0
  9 42  1  0
 10 43  1  0
 11 44  1  0
 12 45  1  0
 13 46  1  0
 14 47  1  0
 14 48  1  0
 14 49  1  0
 15 50  1  0
 15 51  1  0
 15 52  1  0
 19 53  1  0
 20 54  1  0
 22 55  1  0
 23 56  1  0
 26 57  1  0
 27 58  1  0
 28 59  1  6
 29 60  1  0
 29 61  1  0
 30 62  1  0
 31 63  1  0
 32 64  1  0
 33 65  1  0
 34 66  1  0
 34 67  1  0
 34 68  1  0
 35 69  1  0
 35 70  1  0
 35 71  1  0
M  END
> <Uni-Dock RESULT> 
ENERGY=   -5.845  LOWER_BOUND=    1.965  UPPER_BOUND=    6.003
INTER + INTRA:          -5.845
INTER:                  -5.845
INTRA:                   0.000
UNBOUND:                 0.000

$$$$

     RDKit          3D

 71 70  0  0  0  0  0  0  0  0999 V2000
   47.3421    6.6309   13.5780 C   0  0  0  0  0  0  0  0  0  0  0  0
   47.0739    7.9749   13.2840 C   0  0  0  0  0  0  0  0  0  0  0  0
   48.5361    6.3254   14.2598 C   0  0  0  0  0  0  0  0  0  0  0  0
   47.9761    8.9716   13.6540 C   0  0  0  0  0  0  0  0  0  0  0  0
   49.4248    7.3367   14.6209 C   0  0  0  0  0  0  0  0  0  0  0  0
   49.1541    8.6641   14.3220 C   0  0  0  0  0  0  0  0  0  0  0  0
   44.2860    4.6977   12.0818 N   0  0  0  0  0  0  0  0  0  0  0  0
   46.4086    5.4897   13.2196 C   0  0  2  0  0  0  0  0  0  0  0  0
   45.2059    5.8320   12.3006 C   0  0  0  0  0  0  0  0  0  0  0  0
   50.5850    7.0579   15.2811 O   0  0  0  0  0  0  0  0  0  0  0  0
   47.6569   10.2590   13.3362 O   0  0  0  0  0  0  0  0  0  0  0  0
   45.8980    4.9298   14.4397 O   0  0  0  0  0  0  0  0  0  0  0  0
   44.7729    3.7050   11.1153 C   0  0  0  0  0  0  0  0  0  0  0  0
   44.6772    4.2239    9.6804 C   0  0  0  0  0  0  0  0  0  0  0  0
   43.9229    2.4383   11.2598 C   0  0  0  0  0  0  0  0  0  0  0  0
   46.1139    6.1839   12.4512 S   0  0  0  0  0  0  0  0  0  0  0  0
   45.5159    7.3120   13.1183 O   0  0  0  0  0  0  0  0  0  0  0  0
   46.1164    6.0090   11.0206 O   0  0  0  0  0  0  0  0  0  0  0  0
   47.6255    6.0845   12.9784 O   0  0  0  0  0  0  0  0  0  0  0  0
   45.4786    4.8450   13.0646 O   0  0  0  0  0  0  0  0  0  0  0  0
   47.6624    6.2744   13.6359 C   0  0  0  0  0  0  0  0  0  0  0  0
   48.2193    6.6120   12.3914 C   0  0  0  0  0  0  0  0  0  0  0  0
   47.6452    7.2478   14.6483 C   0  0  0  0  0  0  0  0  0  0  0  0
   48.7513    7.8808   12.1768 C   0  0  0  0  0  0  0  0  0  0  0  0
   48.1878    8.5105   14.4147 C   0  0  0  0  0  0  0  0  0  0  0  0
   48.7424    8.8378   13.1836 C   0  0  0  0  0  0  0  0  0  0  0  0
   45.4196    4.7347   11.9565 N   0  0  0  0  0  0  0  0  0  0  0  0
   47.0784    4.8925   13.8498 C   0  0  2  0  0  0  0  0  0  0  0  0
   45.5934    4.7815   13.4130 C   0  0  0  0  0  0  0  0  0  0  0  0
   48.1940    9.4675   15.3876 O   0  0  0  0  0  0  0  0  0  0  0  0
   49.2788    8.1497   10.9467 O   0  0  0  0  0  0  0  0  0  0  0  0
   47.1838    4.5374   15.2357 O   0  0  0  0  0  0  0  0  0  0  0  0
   44.0148    4.7294   11.5386 C   0  0  0  0  0  0  0  0  0  0  0  0
   43.9682    5.1240   10.0608 C   0  0  0  0  0  0  0  0  0  0  0  0
   43.3642    3.3570   11.7305 C   0  0  0  0  0  0  0  0  0  0  0  0
   46.1680    8.2781   12.7661 H   0  0  0  0  0  0  0  0  0  0  0  0
   48.7530    5.2886   14.5066 H   0  0  0  0  0  0  0  0  0  0  0  0
   49.8601    9.4334   14.6159 H   0  0  0  0  0  0  0  0  0  0  0  0
   44.1705    4.2418   12.9925 H   0  0  0  0  0  0  0  0  0  0  0  0
   47.0082    4.7112   12.7340 H   0  0  0  0  0  0  0  0  0  0  0  0
   45.5445    6.2683   11.3555 H   0  0  0  0  0  0  0  0  0  0  0  0
   44.5976    6.5987   12.7959 H   0  0  0  0  0  0  0  0  0  0  0  0
   50.6544    6.0956   15.3958 H   0  0  0  0  0  0  0  0  0  0  0  0
   48.3973   10.8334   13.5974 H   0  0  0  0  0  0  0  0  0  0  0  0
   45.6700    5.6804   15.0169 H   0  0  0  0  0  0  0  0  0  0  0  0
   45.8106    3.4292   11.3302 H   0  0  0  0  0  0  0  0  0  0  0  0
   43.6636    4.5677    9.4451 H   0  0  0  0  0  0  0  0  0  0  0  0
   45.3659    5.0545    9.5040 H   0  0  0  0  0  0  0  0  0  0  0  0
   44.9341    3.4332    8.9670 H   0  0  0  0  0  0  0  0  0  0  0  0
   42.8639    2.6380   11.0572 H   0  0  0  0  0  0  0  0  0  0  0  0
   44.2571    1.6637   10.5606 H   0  0  0  0  0  0  0  0  0  0  0  0
   44.0043    2.0252   12.2717 H   0  0  0  0  0  0  0  0  0  0  0  0
   47.6351    6.4067   13.9040 H   0  0  0  0  0  0  0  0  0  0  0  0
   45.4558    4.1826   12.3411 H   0  0  0  0  0  0  0  0  0  0  0  0
   48.2325    5.8896   11.5790 H   0  0  0  0  0  0  0  0  0  0  0  0
   47.2135    7.0041   15.6149 H   0  0  0  0  0  0  0  0  0  0  0  0
   49.1569    9.8278   13.0314 H   0  0  0  0  0  0  0  0  0  0  0  0
   45.9109    3.9355   11.5593 H   0  0  0  0  0  0  0  0  0  0  0  0
   47.6905    4.1631   13.3041 H   0  0  0  0  0  0  0  0  0  0  0  0
   45.1714    3.8765   13.8653 H   0  0  0  0  0  0  0  0  0  0  0  0
   45.0343    5.6270   13.8327 H   0  0  0  0  0  0  0  0  0  0  0  0
   47.8056    9.0834   16.1920 H   0  0  0  0  0  0  0  0  0  0  0  0
   49.5758    9.0752   10.9413 H   0  0  0  0  0  0  0  0  0  0  0  0
   47.1337    3.5671   15.2764 H   0  0  0  0  0  0  0  0  0  0  0  0
   43.4474    5.4820   12.1016 H   0  0  0  0  0  0  0  0  0  0  0  0
   44.4175    6.1109    9.9036 H   0  0  0  0  0  0  0  0  0  0  0  0
   42.9338    5.1718    9.7057 H   0  0  0  0  0  0  0  0  0  0  0  0
   44.5053    4.4029    9.4338 H   0  0  0  0  0  0  0  0  0  0  0  0
   43.3121    3.0826   12.7884 H   0  0  0  0  0  0  0  0  0  0  0  0
   42.3393    3.3598   11.3442 H   0  0  0  0  0  0  0  0  0  0  0  0
   43.9179    2.5733   11.2001 H   0  0  0  0  0  0  0  0  0  0  0  0
  2  1  2  0
  3  1  1  0
  4  2  1  0
  5  3  2  0
  6  4  2  0
  7  9  1  0
  8  1  1  0
  9  8  1  0
 10  5  1  0
 11  4  1  0
 12  8  1  0
 13  7  1  0
 14 13  1  0
 15 13  1  0
  6  5  1  0
 17 16  2  0
 18 16  2  0
 19 16  1  0
 20 16  1  0
 22 21  2  0
 23 21  1  0
 24 22  1  0
 25 23  2  0
 26 24  2  0
 27 29  1  0
 28 21  1  0
 29 28  1  0
 30 25  1  0
 31 24  1  0
 32 28  1  0
 33 27  1  0
 34 33  1  0
 35 33  1  0
 26 25  1  0
  2 36  1  0
  3 37  1  0
  6 38  1  0
  7 39  1  0
  8 40  1  6
  9 41  1  0
  9 42  1  0
 10 43  1  0
 11 44  1  0
 12 45  1  0
 13 46  1  0
 14 47  1  0
 14 48  1  0
 14 49  1  0
 15 50  1  0
 15 51  1  0
 15 52  1  0
 19 53  1  0
 20 54  1  0
 22 55  1  0
 23 56  1  0
 26 57  1  0
 27 58  1  0
 28 59  1  6
 29 60  1  0
 29 61  1  0
 30 62  1  0
 31 63  1  0
 32 64  1  0
 33 65  1  0
 34 66  1  0
 34 67  1  0
 34 68  1  0
 35 69  1  0
 35 70  1  0
 35 71  1  0
M  END
> <Uni-Dock RESULT> 
ENERGY=   -5.575  LOWER_BOUND=    1.745  UPPER_BOUND=    5.576
INTER + INTRA:          -5.575
INTER:                  -5.575
INTRA:                   0.000
UNBOUND:                 0.000

$$$$

     RDKit          3D

 71 70  0  0  0  0  0  0  0  0999 V2000
   44.1970    4.1237   10.5961 C   0  0  0  0  0  0  0  0  0  0  0  0
   43.7399    5.4101   10.2783 C   0  0  0  0  0  0  0  0  0  0  0  0
   44.0640    3.6812   11.9267 C   0  0  0  0  0  0  0  0  0  0  0  0
   43.1790    6.2227   11.2629 C   0  0  0  0  0  0  0  0  0  0  0  0
   43.5003    4.5092   12.8960 C   0  0  0  0  0  0  0  0  0  0  0  0
   43.0548    5.7831   12.5742 C   0  0  0  0  0  0  0  0  0  0  0  0
   45.6166    2.7525    7.2168 N   0  0  0  0  0  0  0  0  0  0  0  0
   44.8089    3.1748    9.5825 C   0  0  2  0  0  0  0  0  0  0  0  0
   45.1223    3.7579    8.1789 C   0  0  0  0  0  0  0  0  0  0  0  0
   43.3644    4.0963   14.1885 O   0  0  0  0  0  0  0  0  0  0  0  0
   42.7563    7.4643   10.8886 O   0  0  0  0  0  0  0  0  0  0  0  0
   43.9178    2.0604    9.4185 O   0  0  0  0  0  0  0  0  0  0  0  0
   47.0251    2.3812    7.4036 C   0  0  0  0  0  0  0  0  0  0  0  0
   47.9659    3.4873    6.9252 C   0  0  0  0  0  0  0  0  0  0  0  0
   47.2930    1.1003    6.6066 C   0  0  0  0  0  0  0  0  0  0  0  0
   45.0543    4.1049    9.0986 S   0  0  0  0  0  0  0  0  0  0  0  0
   43.8065    4.7201    8.7247 O   0  0  0  0  0  0  0  0  0  0  0  0
   46.3455    4.6100    8.7049 O   0  0  0  0  0  0  0  0  0  0  0  0
   45.0331    3.9523   10.6952 O   0  0  0  0  0  0  0  0  0  0  0  0
   45.0142    2.5697    8.6358 O   0  0  0  0  0  0  0  0  0  0  0  0
   44.3972    3.8210   10.9144 C   0  0  0  0  0  0  0  0  0  0  0  0
   45.4259    4.7565   11.1128 C   0  0  0  0  0  0  0  0  0  0  0  0
   43.0761    4.2094   11.1914 C   0  0  0  0  0  0  0  0  0  0  0  0
   45.1370    6.0342   11.5849 C   0  0  0  0  0  0  0  0  0  0  0  0
   42.8087    5.4917   11.6684 C   0  0  0  0  0  0  0  0  0  0  0  0
   43.8305    6.4116   11.8681 C   0  0  0  0  0  0  0  0  0  0  0  0
   45.9872    2.9760    8.2727 N   0  0  0  0  0  0  0  0  0  0  0  0
   44.7275    2.4380   10.3904 C   0  0  2  0  0  0  0  0  0  0  0  0
   44.7789    2.3669    8.8410 C   0  0  0  0  0  0  0  0  0  0  0  0
   41.5346    5.8865   11.9568 O   0  0  0  0  0  0  0  0  0  0  0  0
   46.1789    6.8992   11.7578 O   0  0  0  0  0  0  0  0  0  0  0  0
   43.7526    1.4998   10.8673 O   0  0  0  0  0  0  0  0  0  0  0  0
   45.9924    2.9986    6.8072 C   0  0  0  0  0  0  0  0  0  0  0  0
   47.0407    4.0208    6.3621 C   0  0  0  0  0  0  0  0  0  0  0  0
   46.3202    1.6263    6.2132 C   0  0  0  0  0  0  0  0  0  0  0  0
   43.8074    5.8089    9.2698 H   0  0  0  0  0  0  0  0  0  0  0  0
   44.4022    2.6809   12.1870 H   0  0  0  0  0  0  0  0  0  0  0  0
   42.6171    6.4076   13.3457 H   0  0  0  0  0  0  0  0  0  0  0  0
   45.0357    1.9184    7.3492 H   0  0  0  0  0  0  0  0  0  0  0  0
   45.7378    2.7840   10.0132 H   0  0  0  0  0  0  0  0  0  0  0  0
   45.7972    4.6168    8.2512 H   0  0  0  0  0  0  0  0  0  0  0  0
   44.1886    4.1330    7.7422 H   0  0  0  0  0  0  0  0  0  0  0  0
   43.7421    3.2050   14.2719 H   0  0  0  0  0  0  0  0  0  0  0  0
   42.4475    7.9365   11.6811 H   0  0  0  0  0  0  0  0  0  0  0  0
   43.0174    2.4283    9.3696 H   0  0  0  0  0  0  0  0  0  0  0  0
   47.2332    2.1615    8.4560 H   0  0  0  0  0  0  0  0  0  0  0  0
   47.7487    3.7790    5.8914 H   0  0  0  0  0  0  0  0  0  0  0  0
   47.8919    4.3803    7.5516 H   0  0  0  0  0  0  0  0  0  0  0  0
   49.0075    3.1502    6.9636 H   0  0  0  0  0  0  0  0  0  0  0  0
   47.1054    1.2449    5.5359 H   0  0  0  0  0  0  0  0  0  0  0  0
   48.3343    0.7800    6.7236 H   0  0  0  0  0  0  0  0  0  0  0  0
   46.6555    0.2805    6.9568 H   0  0  0  0  0  0  0  0  0  0  0  0
   44.1012    3.8107   10.9640 H   0  0  0  0  0  0  0  0  0  0  0  0
   45.9338    2.3173    8.4047 H   0  0  0  0  0  0  0  0  0  0  0  0
   46.4581    4.4965   10.8909 H   0  0  0  0  0  0  0  0  0  0  0  0
   42.2685    3.4991   11.0384 H   0  0  0  0  0  0  0  0  0  0  0  0
   43.5920    7.4015   12.2400 H   0  0  0  0  0  0  0  0  0  0  0  0
   46.8244    2.5134    8.6233 H   0  0  0  0  0  0  0  0  0  0  0  0
   45.6869    2.1194   10.8174 H   0  0  0  0  0  0  0  0  0  0  0  0
   44.7219    1.3128    8.5456 H   0  0  0  0  0  0  0  0  0  0  0  0
   43.8839    2.8520    8.4321 H   0  0  0  0  0  0  0  0  0  0  0  0
   40.9413    5.1325   11.7986 H   0  0  0  0  0  0  0  0  0  0  0  0
   45.8179    7.7509   12.0563 H   0  0  0  0  0  0  0  0  0  0  0  0
   44.1667    0.6214   10.8153 H   0  0  0  0  0  0  0  0  0  0  0  0
   45.0185    3.3350    6.4283 H   0  0  0  0  0  0  0  0  0  0  0  0
   46.8166    5.0144    6.7662 H   0  0  0  0  0  0  0  0  0  0  0  0
   47.0601    4.1048    5.2708 H   0  0  0  0  0  0  0  0  0  0  0  0
   48.0462    3.7381    6.6948 H   0  0  0  0  0  0  0  0  0  0  0  0
   45.5447    0.8917    6.4498 H   0  0  0  0  0  0  0  0  0  0  0  0
   46.3896    1.6861    5.1218 H   0  0  0  0  0  0  0  0  0  0  0  0
   47.2780    1.2460    6.5875 H   0  0  0  0  0  0  0  0  0  0  0  0
  2  1  2  0
  3  1  1  0
  4  2  1  0
  5  3  2  0
  6  4  2  0
  7  9  1  0
  8  1  1  0
  9  8  1  0
 10  5  1  0
 11  4  1  0
 12  8  1  0
 13  7  1  0
 14 13  1  0
 15 13  1  0
  6  5  1  0
 17 16  2  0
 18 16  2  0
 19 16  1  0
 20 16  1  0
 22 21  2  0
 23 21  1  0
 24 22  1  0
 25 23  2  0
 26 24  2  0
 27 29  1  0
 28 21  1  0
 29 28  1  0
 30 25  1  0
 31 24  1  0
 32 28  1  0
 33 27  1  0
 34 33  1  0
 35 33  1  0
 26 25  1  0
  2 36  1  0
  3 37  1  0
  6 38  1  0
  7 39  1  0
  8 40  1  6
  9 41  1  0
  9 42  1  0
 10 43  1  0
 11 44  1  0
 12 45  1  0
 13 46  1  0
 14 47  1  0
 14 48  1  0
 14 49  1  0
 15 50  1  0
 15 51  1  0
 15 52  1  0
 19 53  1  0
 20 54  1  0
 22 55  1  0
 23 56  1  0
 26 57  1  0
 27 58  1  0
 28 59  1  6
 29 60  1  0
 29 61  1  0
 30 62  1  0
 31 63  1  0
 32 64  1  0
 33 65  1  0
 34 66  1  0
 34 67  1  0
 34 68  1  0
 35 69  1  0
 35 70  1  0
 35 71  1  0
M  END
> <Uni-Dock RESULT> 
ENERGY=   -5.473  LOWER_BOUND=    3.059  UPPER_BOUND=    5.498
INTER + INTRA:          -5.473
INTER:                  -5.473
INTRA:                   0.000
UNBOUND:                 0.000

$$$$

     RDKit          3D

 71 70  0  0  0  0  0  0  0  0999 V2000
   45.5116    6.6057   12.2931 C   0  0  0  0  0  0  0  0  0  0  0  0
   45.7780    5.2419   12.4770 C   0  0  0  0  0  0  0  0  0  0  0  0
   44.2058    6.9836   11.9239 C   0  0  0  0  0  0  0  0  0  0  0  0
   44.7721    4.2948   12.2883 C   0  0  0  0  0  0  0  0  0  0  0  0
   43.2145    6.0211   11.7404 C   0  0  0  0  0  0  0  0  0  0  0  0
   43.4877    4.6728   11.9197 C   0  0  0  0  0  0  0  0  0  0  0  0
   48.9446    8.3516   12.9865 N   0  0  0  0  0  0  0  0  0  0  0  0
   46.5463    7.6981   12.4885 C   0  0  2  0  0  0  0  0  0  0  0  0
   48.0144    7.2414   12.6992 C   0  0  0  0  0  0  0  0  0  0  0  0
   41.9457    6.3702   11.3829 O   0  0  0  0  0  0  0  0  0  0  0  0
   45.0975    2.9843   12.4807 O   0  0  0  0  0  0  0  0  0  0  0  0
   46.1535    8.4884   13.6215 O   0  0  0  0  0  0  0  0  0  0  0  0
   49.3322    9.1339   11.8056 C   0  0  0  0  0  0  0  0  0  0  0  0
   50.3181    8.3680   10.9232 C   0  0  0  0  0  0  0  0  0  0  0  0
   49.9793   10.4373   12.2853 C   0  0  0  0  0  0  0  0  0  0  0  0
   47.2133    6.8881   12.2470 S   0  0  0  0  0  0  0  0  0  0  0  0
   47.0958    5.9228   13.3100 O   0  0  0  0  0  0  0  0  0  0  0  0
   48.1905    6.8012   11.1912 O   0  0  0  0  0  0  0  0  0  0  0  0
   45.7590    7.0234   11.5841 O   0  0  0  0  0  0  0  0  0  0  0  0
   47.3944    8.3391   12.9060 O   0  0  0  0  0  0  0  0  0  0  0  0
   45.2715    6.9542   12.0609 C   0  0  0  0  0  0  0  0  0  0  0  0
   45.6679    6.3761   10.8437 C   0  0  0  0  0  0  0  0  0  0  0  0
   44.5103    6.1813   12.9531 C   0  0  0  0  0  0  0  0  0  0  0  0
   45.3010    5.0700   10.5298 C   0  0  0  0  0  0  0  0  0  0  0  0
   44.1491    4.8774   12.6174 C   0  0  0  0  0  0  0  0  0  0  0  0
   44.5391    4.3120   11.4097 C   0  0  0  0  0  0  0  0  0  0  0  0
   48.1936    8.2493   12.1335 N   0  0  0  0  0  0  0  0  0  0  0  0
   45.6878    8.3733   12.3916 C   0  0  2  0  0  0  0  0  0  0  0  0
   47.0818    8.4601   13.0681 C   0  0  0  0  0  0  0  0  0  0  0  0
   43.3988    4.1126   13.4628 O   0  0  0  0  0  0  0  0  0  0  0  0
   45.7159    4.5632    9.3320 O   0  0  0  0  0  0  0  0  0  0  0  0
   44.7120    8.9689   13.2583 O   0  0  0  0  0  0  0  0  0  0  0  0
   49.5060    8.2326   12.7858 C   0  0  0  0  0  0  0  0  0  0  0  0
   50.4967    7.5793   11.8197 C   0  0  0  0  0  0  0  0  0  0  0  0
   49.9851    9.6409   13.1475 C   0  0  0  0  0  0  0  0  0  0  0  0
   46.7622    4.8848   12.7679 H   0  0  0  0  0  0  0  0  0  0  0  0
   43.9795    8.0389   11.7896 H   0  0  0  0  0  0  0  0  0  0  0  0
   42.6987    3.9430   11.7735 H   0  0  0  0  0  0  0  0  0  0  0  0
   48.4601    8.9688   13.6461 H   0  0  0  0  0  0  0  0  0  0  0  0
   46.5072    8.3524   11.6101 H   0  0  0  0  0  0  0  0  0  0  0  0
   48.3602    6.6287   11.8605 H   0  0  0  0  0  0  0  0  0  0  0  0
   48.0545    6.6006   13.5886 H   0  0  0  0  0  0  0  0  0  0  0  0
   41.9093    7.3340   11.2656 H   0  0  0  0  0  0  0  0  0  0  0  0
   44.3238    2.4387   12.2568 H   0  0  0  0  0  0  0  0  0  0  0  0
   45.8611    7.8639   14.3092 H   0  0  0  0  0  0  0  0  0  0  0  0
   48.4524    9.4042   11.2122 H   0  0  0  0  0  0  0  0  0  0  0  0
   51.1874    8.0263   11.4964 H   0  0  0  0  0  0  0  0  0  0  0  0
   49.8524    7.4935   10.4610 H   0  0  0  0  0  0  0  0  0  0  0  0
   50.6849    9.0063   10.1119 H   0  0  0  0  0  0  0  0  0  0  0  0
   50.8736   10.2449   12.8899 H   0  0  0  0  0  0  0  0  0  0  0  0
   50.2782   11.0594   11.4342 H   0  0  0  0  0  0  0  0  0  0  0  0
   49.2782   11.0232   12.8906 H   0  0  0  0  0  0  0  0  0  0  0  0
   45.0985    6.8738   12.2927 H   0  0  0  0  0  0  0  0  0  0  0  0
   47.9610    8.8601   12.2974 H   0  0  0  0  0  0  0  0  0  0  0  0
   46.2736    6.9387   10.1374 H   0  0  0  0  0  0  0  0  0  0  0  0
   44.2001    6.6122   13.9009 H   0  0  0  0  0  0  0  0  0  0  0  0
   44.2430    3.2957   11.1762 H   0  0  0  0  0  0  0  0  0  0  0  0
   48.1765    8.9441   11.3887 H   0  0  0  0  0  0  0  0  0  0  0  0
   45.6753    8.9680   11.4694 H   0  0  0  0  0  0  0  0  0  0  0  0
   47.1735    9.4474   13.5355 H   0  0  0  0  0  0  0  0  0  0  0  0
   47.1292    7.7264   13.8823 H   0  0  0  0  0  0  0  0  0  0  0  0
   43.1793    4.6505   14.2425 H   0  0  0  0  0  0  0  0  0  0  0  0
   45.4134    3.6413    9.2732 H   0  0  0  0  0  0  0  0  0  0  0  0
   44.8138    9.9318   13.1677 H   0  0  0  0  0  0  0  0  0  0  0  0
   49.4719    7.6164   13.6938 H   0  0  0  0  0  0  0  0  0  0  0  0
   50.1787    6.5638   11.5583 H   0  0  0  0  0  0  0  0  0  0  0  0
   51.4901    7.5076   12.2741 H   0  0  0  0  0  0  0  0  0  0  0  0
   50.5931    8.1542   10.8913 H   0  0  0  0  0  0  0  0  0  0  0  0
   49.3378   10.1038   13.8983 H   0  0  0  0  0  0  0  0  0  0  0  0
   50.9967    9.6075   13.5660 H   0  0  0  0  0  0  0  0  0  0  0  0
   50.0102   10.2940   12.2672 H   0  0  0  0  0  0  0  0  0  0  0  0
  2  1  2  0
  3  1  1  0
  4  2  1  0
  5  3  2  0
  6  4  2  0
  7  9  1  0
  8  1  1  0
  9  8  1  0
 10  5  1  0
 11  4  1  0
 12  8  1  0
 13  7  1  0
 14 13  1  0
 15 13  1  0
  6  5  1  0
 17 16  2  0
 18 16  2  0
 19 16  1  0
 20 16  1  0
 22 21  2  0
 23 21  1  0
 24 22  1  0
 25 23  2  0
 26 24  2  0
 27 29  1  0
 28 21  1  0
 29 28  1  0
 30 25  1  0
 31 24  1  0
 32 28  1  0
 33 27  1  0
 34 33  1  0
 35 33  1  0
 26 25  1  0
  2 36  1  0
  3 37  1  0
  6 38  1  0
  7 39  1  0
  8 40  1  6
  9 41  1  0
  9 42  1  0
 10 43  1  0
 11 44  1  0
 12 45  1  0
 13 46  1  0
 14 47  1  0
 14 48  1  0
 14 49  1  0
 15 50  1  0
 15 51  1  0
 15 52  1  0
 19 53  1  0
 20 54  1  0
 22 55  1  0
 23 56  1  0
 26 57  1  0
 27 58  1  0
 28 59  1  6
 29 60  1  0
 29 61  1  0
 30 62  1  0
 31 63  1  0
 32 64  1  0
 33 65  1  0
 34 66  1  0
 34 67  1  0
 34 68  1  0
 35 69  1  0
 35 70  1  0
 35 71  1  0
M  END
> <Uni-Dock RESULT> 
ENERGY=   -5.217  LOWER_BOUND=    1.434  UPPER_BOUND=    2.849
INTER + INTRA:          -5.217
INTER:                  -5.217
INTRA:                   0.000
UNBOUND:                 0.000

$$$$

     RDKit          3D

 71 70  0  0  0  0  0  0  0  0999 V2000
   49.6809    4.5764   18.3904 C   0  0  0  0  0  0  0  0  0  0  0  0
   49.4341    3.7430   17.2907 C   0  0  0  0  0  0  0  0  0  0  0  0
   48.5840    5.2201   18.9956 C   0  0  0  0  0  0  0  0  0  0  0  0
   48.1352    3.5710   16.8134 C   0  0  0  0  0  0  0  0  0  0  0  0
   47.2933    5.0348   18.5031 C   0  0  0  0  0  0  0  0  0  0  0  0
   47.0581    4.2120   17.4111 C   0  0  0  0  0  0  0  0  0  0  0  0
   53.5634    4.4188   18.8557 N   0  0  0  0  0  0  0  0  0  0  0  0
   51.0611    4.8079   18.9764 C   0  0  2  0  0  0  0  0  0  0  0  0
   52.2651    4.2479   18.1732 C   0  0  0  0  0  0  0  0  0  0  0  0
   46.2206    5.6506   19.0773 O   0  0  0  0  0  0  0  0  0  0  0  0
   47.9634    2.7489   15.7387 O   0  0  0  0  0  0  0  0  0  0  0  0
   51.0907    4.2323   20.2919 O   0  0  0  0  0  0  0  0  0  0  0  0
   54.1117    5.7788   18.7756 C   0  0  0  0  0  0  0  0  0  0  0  0
   54.6609    6.0820   17.3814 C   0  0  0  0  0  0  0  0  0  0  0  0
   55.2372    5.9035   19.8079 C   0  0  0  0  0  0  0  0  0  0  0  0
   51.3544    4.5643   17.9695 S   0  0  0  0  0  0  0  0  0  0  0  0
   50.9771    3.1916   17.7480 O   0  0  0  0  0  0  0  0  0  0  0  0
   52.1339    5.3404   17.0382 O   0  0  0  0  0  0  0  0  0  0  0  0
   50.0044    5.3667   18.2954 O   0  0  0  0  0  0  0  0  0  0  0  0
   52.1197    4.6525   19.3762 O   0  0  0  0  0  0  0  0  0  0  0  0
   49.5693    4.9701   18.6463 C   0  0  0  0  0  0  0  0  0  0  0  0
   49.6151    5.7191   17.4590 C   0  0  0  0  0  0  0  0  0  0  0  0
   48.6544    3.9080   18.7333 C   0  0  0  0  0  0  0  0  0  0  0  0
   48.7618    5.4176   16.4006 C   0  0  0  0  0  0  0  0  0  0  0  0
   47.8053    3.6259   17.6643 C   0  0  0  0  0  0  0  0  0  0  0  0
   47.8508    4.3732   16.4940 C   0  0  0  0  0  0  0  0  0  0  0  0
   52.7581    5.1988   18.6431 N   0  0  0  0  0  0  0  0  0  0  0  0
   50.5117    5.3049   19.7848 C   0  0  2  0  0  0  0  0  0  0  0  0
   51.8901    4.6019   19.6649 C   0  0  0  0  0  0  0  0  0  0  0  0
   46.8996    2.6073   17.7316 O   0  0  0  0  0  0  0  0  0  0  0  0
   48.8530    6.1812   15.2726 O   0  0  0  0  0  0  0  0  0  0  0  0
   49.9070    4.9341   21.0317 O   0  0  0  0  0  0  0  0  0  0  0  0
   54.0204    4.4770   18.4589 C   0  0  0  0  0  0  0  0  0  0  0  0
   54.6088    4.9060   17.1130 C   0  0  0  0  0  0  0  0  0  0  0  0
   55.0194    4.7727   19.5805 C   0  0  0  0  0  0  0  0  0  0  0  0
   50.2350    3.2126   16.7829 H   0  0  0  0  0  0  0  0  0  0  0  0
   48.7571    5.8602   19.8577 H   0  0  0  0  0  0  0  0  0  0  0  0
   46.0442    4.0816   17.0480 H   0  0  0  0  0  0  0  0  0  0  0  0
   53.4028    4.1858   19.8408 H   0  0  0  0  0  0  0  0  0  0  0  0
   51.1937    5.8894   19.0949 H   0  0  0  0  0  0  0  0  0  0  0  0
   52.2838    4.6549   17.1571 H   0  0  0  0  0  0  0  0  0  0  0  0
   52.1396    3.1630   18.0704 H   0  0  0  0  0  0  0  0  0  0  0  0
   46.5365    6.2120   19.8047 H   0  0  0  0  0  0  0  0  0  0  0  0
   47.0258    2.7718   15.4802 H   0  0  0  0  0  0  0  0  0  0  0  0
   50.6466    3.3678   20.2280 H   0  0  0  0  0  0  0  0  0  0  0  0
   53.3489    6.5215   19.0316 H   0  0  0  0  0  0  0  0  0  0  0  0
   55.3858    5.3244   17.0625 H   0  0  0  0  0  0  0  0  0  0  0  0
   53.8646    6.1246   16.6335 H   0  0  0  0  0  0  0  0  0  0  0  0
   55.1681    7.0529   17.3701 H   0  0  0  0  0  0  0  0  0  0  0  0
   56.0435    5.1861   19.6141 H   0  0  0  0  0  0  0  0  0  0  0  0
   55.6722    6.9089   19.7896 H   0  0  0  0  0  0  0  0  0  0  0  0
   54.8601    5.7268   20.8218 H   0  0  0  0  0  0  0  0  0  0  0  0
   49.3994    4.7482   18.7560 H   0  0  0  0  0  0  0  0  0  0  0  0
   52.7852    5.3689   19.2945 H   0  0  0  0  0  0  0  0  0  0  0  0
   50.3237    6.5364   17.3495 H   0  0  0  0  0  0  0  0  0  0  0  0
   48.6101    3.3158   19.6431 H   0  0  0  0  0  0  0  0  0  0  0  0
   47.1780    4.1304   15.6794 H   0  0  0  0  0  0  0  0  0  0  0  0
   52.9375    6.1801   18.8495 H   0  0  0  0  0  0  0  0  0  0  0  0
   50.6428    6.3937   19.8250 H   0  0  0  0  0  0  0  0  0  0  0  0
   52.3833    4.6487   20.6426 H   0  0  0  0  0  0  0  0  0  0  0  0
   51.7301    3.5381   19.4493 H   0  0  0  0  0  0  0  0  0  0  0  0
   46.9645    2.2027   18.6134 H   0  0  0  0  0  0  0  0  0  0  0  0
   48.2245    5.8307   14.6192 H   0  0  0  0  0  0  0  0  0  0  0  0
   50.3526    5.4564   21.7204 H   0  0  0  0  0  0  0  0  0  0  0  0
   53.8370    3.3956   18.4118 H   0  0  0  0  0  0  0  0  0  0  0  0
   53.9136    4.6903   16.2938 H   0  0  0  0  0  0  0  0  0  0  0  0
   55.5387    4.3662   16.9077 H   0  0  0  0  0  0  0  0  0  0  0  0
   54.8324    5.9790   17.0944 H   0  0  0  0  0  0  0  0  0  0  0  0
   54.6588    4.4048   20.5456 H   0  0  0  0  0  0  0  0  0  0  0  0
   55.9775    4.2804   19.3819 H   0  0  0  0  0  0  0  0  0  0  0  0
   55.2107    5.8483   19.6735 H   0  0  0  0  0  0  0  0  0  0  0  0
  2  1  2  0
  3  1  1  0
  4  2  1  0
  5  3  2  0
  6  4  2  0
  7  9  1  0
  8  1  1  0
  9  8  1  0
 10  5  1  0
 11  4  1  0
 12  8  1  0
 13  7  1  0
 14 13  1  0
 15 13  1  0
  6  5  1  0
 17 16  2  0
 18 16  2  0
 19 16  1  0
 20 16  1  0
 22 21  2  0
 23 21  1  0
 24 22  1  0
 25 23  2  0
 26 24  2  0
 27 29  1  0
 28 21  1  0
 29 28  1  0
 30 25  1  0
 31 24  1  0
 32 28  1  0
 33 27  1  0
 34 33  1  0
 35 33  1  0
 26 25  1  0
  2 36  1  0
  3 37  1  0
  6 38  1  0
  7 39  1  0
  8 40  1  6
  9 41  1  0
  9 42  1  0
 10 43  1  0
 11 44  1  0
 12 45  1  0
 13 46  1  0
 14 47  1  0
 14 48  1  0
 14 49  1  0
 15 50  1  0
 15 51  1  0
 15 52  1  0
 19 53  1  0
 20 54  1  0
 22 55  1  0
 23 56  1  0
 26 57  1  0
 27 58  1  0
 28 59  1  6
 29 60  1  0
 29 61  1  0
 30 62  1  0
 31 63  1  0
 32 64  1  0
 33 65  1  0
 34 66  1  0
 34 67  1  0
 34 68  1  0
 35 69  1  0
 35 70  1  0
 35 71  1  0
M  END
> <Uni-Dock RESULT> 
ENERGY=   -4.818  LOWER_BOUND=    6.144  UPPER_BOUND=    7.989
INTER + INTRA:          -4.818
INTER:                  -4.818
INTRA:                   0.000
UNBOUND:                 0.000

$$$$

     RDKit          3D

 71 70  0  0  0  0  0  0  0  0999 V2000
   48.0130    7.8254   20.9181 C   0  0  0  0  0  0  0  0  0  0  0  0
   47.4667    7.7274   22.2053 C   0  0  0  0  0  0  0  0  0  0  0  0
   48.7723    6.7421   20.4343 C   0  0  0  0  0  0  0  0  0  0  0  0
   47.6834    6.5875   22.9787 C   0  0  0  0  0  0  0  0  0  0  0  0
   48.9770    5.6116   21.2235 C   0  0  0  0  0  0  0  0  0  0  0  0
   48.4369    5.5245   22.4984 C   0  0  0  0  0  0  0  0  0  0  0  0
   46.8930   11.3620   19.6720 N   0  0  0  0  0  0  0  0  0  0  0  0
   47.8154    9.0250   20.0103 C   0  0  2  0  0  0  0  0  0  0  0  0
   47.1470   10.2761   20.6398 C   0  0  0  0  0  0  0  0  0  0  0  0
   49.7096    4.5544   20.7703 O   0  0  0  0  0  0  0  0  0  0  0  0
   47.1264    6.5562   24.2233 O   0  0  0  0  0  0  0  0  0  0  0  0
   47.0242    8.6094   18.8860 O   0  0  0  0  0  0  0  0  0  0  0  0
   48.0839   12.1459   19.3197 C   0  0  0  0  0  0  0  0  0  0  0  0
   48.4961   13.0826   20.4555 C   0  0  0  0  0  0  0  0  0  0  0  0
   47.7630   12.9689   18.0677 C   0  0  0  0  0  0  0  0  0  0  0  0
   47.6939    9.5208   20.9583 S   0  0  0  0  0  0  0  0  0  0  0  0
   46.5054    8.9752   21.5626 O   0  0  0  0  0  0  0  0  0  0  0  0
   48.4242   10.6405   21.4970 O   0  0  0  0  0  0  0  0  0  0  0  0
   48.7125    8.2980   20.7583 O   0  0  0  0  0  0  0  0  0  0  0  0
   47.3539    9.8985   19.4370 O   0  0  0  0  0  0  0  0  0  0  0  0
   48.3700    7.7233   20.6097 C   0  0  0  0  0  0  0  0  0  0  0  0
   49.2872    8.2081   21.5565 C   0  0  0  0  0  0  0  0  0  0  0  0
   47.5467    6.6429   20.9668 C   0  0  0  0  0  0  0  0  0  0  0  0
   49.3813    7.6187   22.8146 C   0  0  0  0  0  0  0  0  0  0  0  0
   47.6603    6.0637   22.2297 C   0  0  0  0  0  0  0  0  0  0  0  0
   48.5730    6.5434   23.1608 C   0  0  0  0  0  0  0  0  0  0  0  0
   47.8613   10.7919   19.8705 N   0  0  0  0  0  0  0  0  0  0  0  0
   48.2731    8.3826   19.2486 C   0  0  2  0  0  0  0  0  0  0  0  0
   47.3067    9.5966   19.2242 C   0  0  0  0  0  0  0  0  0  0  0  0
   46.8801    5.0048   22.5937 O   0  0  0  0  0  0  0  0  0  0  0  0
   50.2916    8.1337   23.6919 O   0  0  0  0  0  0  0  0  0  0  0  0
   47.8350    7.4193   18.2800 O   0  0  0  0  0  0  0  0  0  0  0  0
   46.9148   11.9090   19.9366 C   0  0  0  0  0  0  0  0  0  0  0  0
   47.4300   12.8928   20.9893 C   0  0  0  0  0  0  0  0  0  0  0  0
   46.7706   12.6194   18.5882 C   0  0  0  0  0  0  0  0  0  0  0  0
   46.8662    8.5247   22.6348 H   0  0  0  0  0  0  0  0  0  0  0  0
   49.1924    6.7972   19.4327 H   0  0  0  0  0  0  0  0  0  0  0  0
   48.6080    4.6330   23.0922 H   0  0  0  0  0  0  0  0  0  0  0  0
   46.5317   10.9128   18.8245 H   0  0  0  0  0  0  0  0  0  0  0  0
   48.7994    9.3130   19.6230 H   0  0  0  0  0  0  0  0  0  0  0  0
   47.7127   10.6297   21.5078 H   0  0  0  0  0  0  0  0  0  0  0  0
   46.1554    9.9900   21.0115 H   0  0  0  0  0  0  0  0  0  0  0  0
   50.0457    4.7659   19.8835 H   0  0  0  0  0  0  0  0  0  0  0  0
   47.4083    5.7374   24.6664 H   0  0  0  0  0  0  0  0  0  0  0  0
   46.3094    8.0502   19.2396 H   0  0  0  0  0  0  0  0  0  0  0  0
   48.9236   11.4879   19.0727 H   0  0  0  0  0  0  0  0  0  0  0  0
   47.6620   13.7181   20.7738 H   0  0  0  0  0  0  0  0  0  0  0  0
   48.8515   12.5281   21.3282 H   0  0  0  0  0  0  0  0  0  0  0  0
   49.3118   13.7402   20.1355 H   0  0  0  0  0  0  0  0  0  0  0  0
   46.9266   13.6565   18.2405 H   0  0  0  0  0  0  0  0  0  0  0  0
   48.6294   13.5659   17.7621 H   0  0  0  0  0  0  0  0  0  0  0  0
   47.5000   12.3167   17.2270 H   0  0  0  0  0  0  0  0  0  0  0  0
   48.1769    7.4940   20.5928 H   0  0  0  0  0  0  0  0  0  0  0  0
   47.9023   10.6791   19.2075 H   0  0  0  0  0  0  0  0  0  0  0  0
   49.9272    9.0550   21.3210 H   0  0  0  0  0  0  0  0  0  0  0  0
   46.8285    6.2594   20.2475 H   0  0  0  0  0  0  0  0  0  0  0  0
   48.6387    6.0726   24.1350 H   0  0  0  0  0  0  0  0  0  0  0  0
   48.7231   11.0837   19.4124 H   0  0  0  0  0  0  0  0  0  0  0  0
   49.2784    8.6908   18.9342 H   0  0  0  0  0  0  0  0  0  0  0  0
   47.0654    9.8198   18.1785 H   0  0  0  0  0  0  0  0  0  0  0  0
   46.3633    9.3109   19.7056 H   0  0  0  0  0  0  0  0  0  0  0  0
   46.3215    4.7657   21.8346 H   0  0  0  0  0  0  0  0  0  0  0  0
   50.2156    7.6440   24.5281 H   0  0  0  0  0  0  0  0  0  0  0  0
   48.1110    7.7569   17.4109 H   0  0  0  0  0  0  0  0  0  0  0  0
   45.9298   11.5542   20.2671 H   0  0  0  0  0  0  0  0  0  0  0  0
   47.5275   12.4068   21.9666 H   0  0  0  0  0  0  0  0  0  0  0  0
   46.7373   13.7325   21.1059 H   0  0  0  0  0  0  0  0  0  0  0  0
   48.4093   13.3014   20.7143 H   0  0  0  0  0  0  0  0  0  0  0  0
   46.3295   11.9614   17.8337 H   0  0  0  0  0  0  0  0  0  0  0  0
   46.1158   13.4925   18.6815 H   0  0  0  0  0  0  0  0  0  0  0  0
   47.7401   12.9687   18.2136 H   0  0  0  0  0  0  0  0  0  0  0  0
  2  1  2  0
  3  1  1  0
  4  2  1  0
  5  3  2  0
  6  4  2  0
  7  9  1  0
  8  1  1  0
  9  8  1  0
 10  5  1  0
 11  4  1  0
 12  8  1  0
 13  7  1  0
 14 13  1  0
 15 13  1  0
  6  5  1  0
 17 16  2  0
 18 16  2  0
 19 16  1  0
 20 16  1  0
 22 21  2  0
 23 21  1  0
 24 22  1  0
 25 23  2  0
 26 24  2  0
 27 29  1  0
 28 21  1  0
 29 28  1  0
 30 25  1  0
 31 24  1  0
 32 28  1  0
 33 27  1  0
 34 33  1  0
 35 33  1  0
 26 25  1  0
  2 36  1  0
  3 37  1  0
  6 38  1  0
  7 39  1  0
  8 40  1  6
  9 41  1  0
  9 42  1  0
 10 43  1  0
 11 44  1  0
 12 45  1  0
 13 46  1  0
 14 47  1  0
 14 48  1  0
 14 49  1  0
 15 50  1  0
 15 51  1  0
 15 52  1  0
 19 53  1  0
 20 54  1  0
 22 55  1  0
 23 56  1  0
 26 57  1  0
 27 58  1  0
 28 59  1  6
 29 60  1  0
 29 61  1  0
 30 62  1  0
 31 63  1  0
 32 64  1  0
 33 65  1  0
 34 66  1  0
 34 67  1  0
 34 68  1  0
 35 69  1  0
 35 70  1  0
 35 71  1  0
M  END
> <Uni-Dock RESULT> 
ENERGY=   -4.790  LOWER_BOUND=    8.047  UPPER_BOUND=    9.997
INTER + INTRA:          -4.790
INTER:                  -4.790
INTRA:                   0.000
UNBOUND:                 0.000

$$$$

     RDKit          3D

 71 70  0  0  0  0  0  0  0  0999 V2000
   48.1160   10.4550   21.4142 C   0  0  0  0  0  0  0  0  0  0  0  0
   46.8091   10.6204   20.9351 C   0  0  0  0  0  0  0  0  0  0  0  0
   49.0561   11.4683   21.1434 C   0  0  0  0  0  0  0  0  0  0  0  0
   46.4641   11.7570   20.2047 C   0  0  0  0  0  0  0  0  0  0  0  0
   48.6909   12.5968   20.4114 C   0  0  0  0  0  0  0  0  0  0  0  0
   47.3964   12.7506   19.9366 C   0  0  0  0  0  0  0  0  0  0  0  0
   48.0378    6.9862   23.2242 N   0  0  0  0  0  0  0  0  0  0  0  0
   48.5685    9.2546   22.2244 C   0  0  2  0  0  0  0  0  0  0  0  0
   47.5720    8.0703   22.3364 C   0  0  0  0  0  0  0  0  0  0  0  0
   49.5888   13.5867   20.1404 O   0  0  0  0  0  0  0  0  0  0  0  0
   45.1767   11.8558   19.7651 O   0  0  0  0  0  0  0  0  0  0  0  0
   48.8844    9.7042   23.5514 O   0  0  0  0  0  0  0  0  0  0  0  0
   49.0505    6.1086   22.6233 C   0  0  0  0  0  0  0  0  0  0  0  0
   48.4352    5.1679   21.5870 C   0  0  0  0  0  0  0  0  0  0  0  0
   49.6967    5.2856   23.7427 C   0  0  0  0  0  0  0  0  0  0  0  0
   47.7587    8.7893   21.6889 S   0  0  0  0  0  0  0  0  0  0  0  0
   46.5471    9.4344   22.1262 O   0  0  0  0  0  0  0  0  0  0  0  0
   47.7842    7.6298   20.8331 O   0  0  0  0  0  0  0  0  0  0  0  0
   48.6755    9.9283   21.0297 O   0  0  0  0  0  0  0  0  0  0  0  0
   48.6187    8.4061   22.9874 O   0  0  0  0  0  0  0  0  0  0  0  0
   48.5905   10.5237   21.3584 C   0  0  0  0  0  0  0  0  0  0  0  0
   48.4854    9.9920   20.0626 C   0  0  0  0  0  0  0  0  0  0  0  0
   47.8426   11.6697   21.6748 C   0  0  0  0  0  0  0  0  0  0  0  0
   47.6658   10.5991   19.1146 C   0  0  0  0  0  0  0  0  0  0  0  0
   47.0321   12.2653   20.7097 C   0  0  0  0  0  0  0  0  0  0  0  0
   46.9357   11.7385   19.4277 C   0  0  0  0  0  0  0  0  0  0  0  0
   48.5854    7.4867   22.3572 N   0  0  0  0  0  0  0  0  0  0  0  0
   49.4791    9.8450   22.3812 C   0  0  2  0  0  0  0  0  0  0  0  0
   48.7627    8.7060   23.1544 C   0  0  0  0  0  0  0  0  0  0  0  0
   46.3069   13.3867   20.9907 O   0  0  0  0  0  0  0  0  0  0  0  0
   47.6050   10.0362   17.8723 O   0  0  0  0  0  0  0  0  0  0  0  0
   49.9561   10.8177   23.3217 O   0  0  0  0  0  0  0  0  0  0  0  0
   47.8225    6.4448   23.0504 C   0  0  0  0  0  0  0  0  0  0  0  0
   47.3346    5.4476   21.9971 C   0  0  0  0  0  0  0  0  0  0  0  0
   48.6664    5.7188   24.1013 C   0  0  0  0  0  0  0  0  0  0  0  0
   46.0351    9.8792   21.1150 H   0  0  0  0  0  0  0  0  0  0  0  0
   50.0712   11.3611   21.5190 H   0  0  0  0  0  0  0  0  0  0  0  0
   47.1358   13.6392   19.3716 H   0  0  0  0  0  0  0  0  0  0  0  0
   48.4441    7.4432   24.0468 H   0  0  0  0  0  0  0  0  0  0  0  0
   49.4996    8.8861   21.7789 H   0  0  0  0  0  0  0  0  0  0  0  0
   47.2954    7.6938   21.3464 H   0  0  0  0  0  0  0  0  0  0  0  0
   46.6471    8.4371   22.7982 H   0  0  0  0  0  0  0  0  0  0  0  0
   50.4524   13.3322   20.5057 H   0  0  0  0  0  0  0  0  0  0  0  0
   45.0968   12.6605   19.2243 H   0  0  0  0  0  0  0  0  0  0  0  0
   48.1783   10.3224   23.8118 H   0  0  0  0  0  0  0  0  0  0  0  0
   49.8435    6.6969   22.1498 H   0  0  0  0  0  0  0  0  0  0  0  0
   47.5952    4.6030   22.0071 H   0  0  0  0  0  0  0  0  0  0  0  0
   48.0727    5.7125   20.7111 H   0  0  0  0  0  0  0  0  0  0  0  0
   49.1786    4.4448   21.2339 H   0  0  0  0  0  0  0  0  0  0  0  0
   48.9584    4.6659   24.2653 H   0  0  0  0  0  0  0  0  0  0  0  0
   50.4679    4.6195   23.3401 H   0  0  0  0  0  0  0  0  0  0  0  0
   50.1780    5.9377   24.4805 H   0  0  0  0  0  0  0  0  0  0  0  0
   48.4873   10.7663   21.5020 H   0  0  0  0  0  0  0  0  0  0  0  0
   49.1067    7.5821   22.7733 H   0  0  0  0  0  0  0  0  0  0  0  0
   49.0354    9.0951   19.7883 H   0  0  0  0  0  0  0  0  0  0  0  0
   47.9090   12.0903   22.6743 H   0  0  0  0  0  0  0  0  0  0  0  0
   46.2972   12.2236   18.6982 H   0  0  0  0  0  0  0  0  0  0  0  0
   49.4854    7.1219   22.0494 H   0  0  0  0  0  0  0  0  0  0  0  0
   50.3698    9.4563   21.8714 H   0  0  0  0  0  0  0  0  0  0  0  0
   49.3511    8.4796   24.0511 H   0  0  0  0  0  0  0  0  0  0  0  0
   47.7899    9.0713   23.5064 H   0  0  0  0  0  0  0  0  0  0  0  0
   46.5010   13.6507   21.9062 H   0  0  0  0  0  0  0  0  0  0  0  0
   46.9729   10.5477   17.3398 H   0  0  0  0  0  0  0  0  0  0  0  0
   50.7578   10.4422   23.7241 H   0  0  0  0  0  0  0  0  0  0  0  0
   46.9368    6.8787   23.5326 H   0  0  0  0  0  0  0  0  0  0  0  0
   46.7164    5.9455   21.2417 H   0  0  0  0  0  0  0  0  0  0  0  0
   46.7249    4.6645   22.4589 H   0  0  0  0  0  0  0  0  0  0  0  0
   48.1723    4.9616   21.4835 H   0  0  0  0  0  0  0  0  0  0  0  0
   48.9643    6.3919   24.9108 H   0  0  0  0  0  0  0  0  0  0  0  0
   48.0972    4.8991   24.5526 H   0  0  0  0  0  0  0  0  0  0  0  0
   49.5743    5.2906   23.6602 H   0  0  0  0  0  0  0  0  0  0  0  0
  2  1  2  0
  3  1  1  0
  4  2  1  0
  5  3  2  0
  6  4  2  0
  7  9  1  0
  8  1  1  0
  9  8  1  0
 10  5  1  0
 11  4  1  0
 12  8  1  0
 13  7  1  0
 14 13  1  0
 15 13  1  0
  6  5  1  0
 17 16  2  0
 18 16  2  0
 19 16  1  0
 20 16  1  0
 22 21  2  0
 23 21  1  0
 24 22  1  0
 25 23  2  0
 26 24  2  0
 27 29  1  0
 28 21  1  0
 29 28  1  0
 30 25  1  0
 31 24  1  0
 32 28  1  0
 33 27  1  0
 34 33  1  0
 35 33  1  0
 26 25  1  0
  2 36  1  0
  3 37  1  0
  6 38  1  0
  7 39  1  0
  8 40  1  6
  9 41  1  0
  9 42  1  0
 10 43  1  0
 11 44  1  0
 12 45  1  0
 13 46  1  0
 14 47  1  0
 14 48  1  0
 14 49  1  0
 15 50  1  0
 15 51  1  0
 15 52  1  0
 19 53  1  0
 20 54  1  0
 22 55  1  0
 23 56  1  0
 26 57  1  0
 27 58  1  0
 28 59  1  6
 29 60  1  0
 29 61  1  0
 30 62  1  0
 31 63  1  0
 32 64  1  0
 33 65  1  0
 34 66  1  0
 34 67  1  0
 34 68  1  0
 35 69  1  0
 35 70  1  0
 35 71  1  0
M  END
> <Uni-Dock RESULT> 
ENERGY=   -4.453  LOWER_BOUND=    8.822  UPPER_BOUND=   11.254
INTER + INTRA:          -4.453
INTER:                  -4.453
INTRA:                   0.000
UNBOUND:                 0.000

$$$$

     RDKit          3D

 71 70  0  0  0  0  0  0  0  0999 V2000
   49.1611    5.7634   17.9194 C   0  0  0  0  0  0  0  0  0  0  0  0
   47.9676    5.0284   17.9345 C   0  0  0  0  0  0  0  0  0  0  0  0
   50.3720    5.0610   17.7634 C   0  0  0  0  0  0  0  0  0  0  0  0
   47.9924    3.6401   17.8064 C   0  0  0  0  0  0  0  0  0  0  0  0
   50.3750    3.6729   17.6369 C   0  0  0  0  0  0  0  0  0  0  0  0
   49.1896    2.9524   17.6577 C   0  0  0  0  0  0  0  0  0  0  0  0
   48.0061    9.4705   18.4076 N   0  0  0  0  0  0  0  0  0  0  0  0
   49.2192    7.2746   18.0421 C   0  0  2  0  0  0  0  0  0  0  0  0
   47.8962    7.9979   18.4095 C   0  0  0  0  0  0  0  0  0  0  0  0
   51.5383    2.9778   17.4853 O   0  0  0  0  0  0  0  0  0  0  0  0
   46.7967    2.9844   17.8316 O   0  0  0  0  0  0  0  0  0  0  0  0
   49.6919    7.8067   16.7947 O   0  0  0  0  0  0  0  0  0  0  0  0
   48.6679   10.0267   19.5948 C   0  0  0  0  0  0  0  0  0  0  0  0
   47.7596    9.9692   20.8232 C   0  0  0  0  0  0  0  0  0  0  0  0
   49.0378   11.4839   19.2988 C   0  0  0  0  0  0  0  0  0  0  0  0
   48.2910    7.1080   18.5618 S   0  0  0  0  0  0  0  0  0  0  0  0
   47.3624    6.5815   17.5944 O   0  0  0  0  0  0  0  0  0  0  0  0
   47.9223    7.4829   19.9038 O   0  0  0  0  0  0  0  0  0  0  0  0
   49.5121    6.0710   18.6408 O   0  0  0  0  0  0  0  0  0  0  0  0
   49.0091    8.3907   17.9202 O   0  0  0  0  0  0  0  0  0  0  0  0
   49.6310    5.7943   18.0251 C   0  0  0  0  0  0  0  0  0  0  0  0
   49.3319    5.3953   19.3382 C   0  0  0  0  0  0  0  0  0  0  0  0
   49.3003    4.9282   16.9700 C   0  0  0  0  0  0  0  0  0  0  0  0
   48.7319    4.1626   19.5821 C   0  0  0  0  0  0  0  0  0  0  0  0
   48.7048    3.6962   17.2361 C   0  0  0  0  0  0  0  0  0  0  0  0
   48.4159    3.3038   18.5372 C   0  0  0  0  0  0  0  0  0  0  0  0
   48.6671    8.7038   18.9343 N   0  0  0  0  0  0  0  0  0  0  0  0
   50.2748    7.1434   17.7761 C   0  0  2  0  0  0  0  0  0  0  0  0
   49.2458    8.2981   17.6481 C   0  0  0  0  0  0  0  0  0  0  0  0
   48.3868    2.8331   16.2279 O   0  0  0  0  0  0  0  0  0  0  0  0
   48.4658    3.8302   20.8792 O   0  0  0  0  0  0  0  0  0  0  0  0
   51.0605    7.0851   16.5772 O   0  0  0  0  0  0  0  0  0  0  0  0
   47.6238    9.7252   18.8059 C   0  0  0  0  0  0  0  0  0  0  0  0
   46.8175    9.7318   20.1065 C   0  0  0  0  0  0  0  0  0  0  0  0
   48.2106   11.1161   18.5516 C   0  0  0  0  0  0  0  0  0  0  0  0
   46.9998    5.5100   18.0450 H   0  0  0  0  0  0  0  0  0  0  0  0
   51.3059    5.6177   17.7369 H   0  0  0  0  0  0  0  0  0  0  0  0
   49.2177    1.8729   17.5547 H   0  0  0  0  0  0  0  0  0  0  0  0
   48.5559    9.7164   17.5783 H   0  0  0  0  0  0  0  0  0  0  0  0
   49.9715    7.5166   18.8015 H   0  0  0  0  0  0  0  0  0  0  0  0
   47.4915    7.6221   19.3547 H   0  0  0  0  0  0  0  0  0  0  0  0
   47.1495    7.7685   17.6394 H   0  0  0  0  0  0  0  0  0  0  0  0
   52.2812    3.6032   17.5181 H   0  0  0  0  0  0  0  0  0  0  0  0
   46.9692    2.0277   17.7943 H   0  0  0  0  0  0  0  0  0  0  0  0
   49.2290    7.3189   16.0902 H   0  0  0  0  0  0  0  0  0  0  0  0
   49.5980    9.4899   19.8090 H   0  0  0  0  0  0  0  0  0  0  0  0
   46.7915   10.4446   20.6285 H   0  0  0  0  0  0  0  0  0  0  0  0
   47.5735    8.9397   21.1408 H   0  0  0  0  0  0  0  0  0  0  0  0
   48.2218   10.4904   21.6687 H   0  0  0  0  0  0  0  0  0  0  0  0
   48.1504   12.0877   19.0743 H   0  0  0  0  0  0  0  0  0  0  0  0
   49.5437   11.9390   20.1576 H   0  0  0  0  0  0  0  0  0  0  0  0
   49.7197   11.5490   18.4432 H   0  0  0  0  0  0  0  0  0  0  0  0
   49.6148    5.6705   17.7521 H   0  0  0  0  0  0  0  0  0  0  0  0
   49.2002    9.0092   18.6575 H   0  0  0  0  0  0  0  0  0  0  0  0
   49.5567    6.0485   20.1778 H   0  0  0  0  0  0  0  0  0  0  0  0
   49.5205    5.2244   15.9483 H   0  0  0  0  0  0  0  0  0  0  0  0
   47.9525    2.3397   18.7132 H   0  0  0  0  0  0  0  0  0  0  0  0
   49.3943    9.0181   19.5749 H   0  0  0  0  0  0  0  0  0  0  0  0
   50.9810    7.3523   18.5897 H   0  0  0  0  0  0  0  0  0  0  0  0
   49.7488    9.1534   17.1824 H   0  0  0  0  0  0  0  0  0  0  0  0
   48.4509    7.9921   16.9566 H   0  0  0  0  0  0  0  0  0  0  0  0
   48.6755    3.2295   15.3883 H   0  0  0  0  0  0  0  0  0  0  0  0
   48.0214    2.9658   20.8843 H   0  0  0  0  0  0  0  0  0  0  0  0
   51.7065    7.8096   16.6353 H   0  0  0  0  0  0  0  0  0  0  0  0
   46.9364    9.4665   17.9900 H   0  0  0  0  0  0  0  0  0  0  0  0
   46.3770    8.7473   20.3003 H   0  0  0  0  0  0  0  0  0  0  0  0
   45.9976   10.4549   20.0497 H   0  0  0  0  0  0  0  0  0  0  0  0
   47.4420    9.9993   20.9667 H   0  0  0  0  0  0  0  0  0  0  0  0
   48.7273   11.1631   17.5884 H   0  0  0  0  0  0  0  0  0  0  0  0
   47.4171   11.8708   18.5324 H   0  0  0  0  0  0  0  0  0  0  0  0
   48.9218   11.4006   19.3362 H   0  0  0  0  0  0  0  0  0  0  0  0
  2  1  2  0
  3  1  1  0
  4  2  1  0
  5  3  2  0
  6  4  2  0
  7  9  1  0
  8  1  1  0
  9  8  1  0
 10  5  1  0
 11  4  1  0
 12  8  1  0
 13  7  1  0
 14 13  1  0
 15 13  1  0
  6  5  1  0
 17 16  2  0
 18 16  2  0
 19 16  1  0
 20 16  1  0
 22 21  2  0
 23 21  1  0
 24 22  1  0
 25 23  2  0
 26 24  2  0
 27 29  1  0
 28 21  1  0
 29 28  1  0
 30 25  1  0
 31 24  1  0
 32 28  1  0
 33 27  1  0
 34 33  1  0
 35 33  1  0
 26 25  1  0
  2 36  1  0
  3 37  1  0
  6 38  1  0
  7 39  1  0
  8 40  1  6
  9 41  1  0
  9 42  1  0
 10 43  1  0
 11 44  1  0
 12 45  1  0
 13 46  1  0
 14 47  1  0
 14 48  1  0
 14 49  1  0
 15 50  1  0
 15 51  1  0
 15 52  1  0
 19 53  1  0
 20 54  1  0
 22 55  1  0
 23 56  1  0
 26 57  1  0
 27 58  1  0
 28 59  1  6
 29 60  1  0
 29 61  1  0
 30 62  1  0
 31 63  1  0
 32 64  1  0
 33 65  1  0
 34 66  1  0
 34 67  1  0
 34 68  1  0
 35 69  1  0
 35 70  1  0
 35 71  1  0
M  END
> <Uni-Dock RESULT> 
ENERGY=   -4.396  LOWER_BOUND=    6.145  UPPER_BOUND=    7.371
INTER + INTRA:          -4.396
INTER:                  -4.396
INTRA:                   0.000
UNBOUND:                 0.000

$$$$
