
     RDKit          3D

 71 70  0  0  0  0  0  0  0  0999 V2000
   41.3343   11.0267   11.5554 C   0  0  0  0  0  0  0  0  0  0  0  0
   40.3342   10.1596   11.0810 C   0  0  0  0  0  0  0  0  0  0  0  0
   40.9342   12.1538   12.2937 C   0  0  0  0  0  0  0  0  0  0  0  0
   38.9869   10.4312   11.3214 C   0  0  0  0  0  0  0  0  0  0  0  0
   39.5832   12.4077   12.5245 C   0  0  0  0  0  0  0  0  0  0  0  0
   38.6000   11.5554   12.0382 C   0  0  0  0  0  0  0  0  0  0  0  0
   45.0304   11.4782   10.5552 N   0  0  0  0  0  0  0  0  0  0  0  0
   42.8052   10.7197   11.3442 C   0  0  2  0  0  0  0  0  0  0  0  0
   43.6533   11.9284   10.8662 C   0  0  0  0  0  0  0  0  0  0  0  0
   39.2617   13.5163   13.2534 O   0  0  0  0  0  0  0  0  0  0  0  0
   38.0069    9.5987   10.8647 O   0  0  0  0  0  0  0  0  0  0  0  0
   42.9728    9.6666   10.3815 O   0  0  0  0  0  0  0  0  0  0  0  0
   45.9217   12.5933   10.1922 C   0  0  0  0  0  0  0  0  0  0  0  0
   45.5458   13.2328    8.8546 C   0  0  0  0  0  0  0  0  0  0  0  0
   47.3528   12.0508   10.1153 C   0  0  0  0  0  0  0  0  0  0  0  0
   42.8883   11.2814   10.8886 S   0  0  0  0  0  0  0  0  0  0  0  0
   43.8035   10.8033   11.8937 O   0  0  0  0  0  0  0  0  0  0  0  0
   41.9429   10.4395   10.1994 O   0  0  0  0  0  0  0  0  0  0  0  0
   42.0354   12.4776   11.5324 O   0  0  0  0  0  0  0  0  0  0  0  0
   43.7643   12.0721    9.8017 O   0  0  0  0  0  0  0  0  0  0  0  0
   44.1153   12.2847    9.8629 C   0  0  0  0  0  0  0  0  0  0  0  0
   45.3984   12.0195    9.3464 C   0  0  0  0  0  0  0  0  0  0  0  0
   44.0279   12.9977   11.0688 C   0  0  0  0  0  0  0  0  0  0  0  0
   46.5405   12.4273   10.0333 C   0  0  0  0  0  0  0  0  0  0  0  0
   45.1828   13.3945   11.7424 C   0  0  0  0  0  0  0  0  0  0  0  0
   46.4440   13.1131   11.2350 C   0  0  0  0  0  0  0  0  0  0  0  0
   41.5676   10.5815   10.7625 N   0  0  0  0  0  0  0  0  0  0  0  0
   42.8916   11.8494    9.0728 C   0  0  2  0  0  0  0  0  0  0  0  0
   41.5437   11.7337    9.8367 C   0  0  0  0  0  0  0  0  0  0  0  0
   45.0258   14.0726   12.9167 O   0  0  0  0  0  0  0  0  0  0  0  0
   47.7879   12.1682    9.5472 O   0  0  0  0  0  0  0  0  0  0  0  0
   43.1590   10.5690    8.4776 O   0  0  0  0  0  0  0  0  0  0  0  0
   40.3565   10.4148   11.5810 C   0  0  0  0  0  0  0  0  0  0  0  0
   40.2089   11.5093   12.6409 C   0  0  0  0  0  0  0  0  0  0  0  0
   39.0807   10.2763   10.7504 C   0  0  0  0  0  0  0  0  0  0  0  0
   40.6189    9.2717   10.5217 H   0  0  0  0  0  0  0  0  0  0  0  0
   41.6651   12.8397   12.7131 H   0  0  0  0  0  0  0  0  0  0  0  0
   37.5456   11.7450   12.2065 H   0  0  0  0  0  0  0  0  0  0  0  0
   45.4137   11.0202   11.3865 H   0  0  0  0  0  0  0  0  0  0  0  0
   43.2075   10.3423   12.2928 H   0  0  0  0  0  0  0  0  0  0  0  0
   43.6756   12.7113   11.6326 H   0  0  0  0  0  0  0  0  0  0  0  0
   43.1911   12.3404    9.9614 H   0  0  0  0  0  0  0  0  0  0  0  0
   38.3288   13.4445   13.5122 H   0  0  0  0  0  0  0  0  0  0  0  0
   38.4337    8.8111   10.4837 H   0  0  0  0  0  0  0  0  0  0  0  0
   43.8842    9.7899   10.0440 H   0  0  0  0  0  0  0  0  0  0  0  0
   45.8959   13.3557   10.9819 H   0  0  0  0  0  0  0  0  0  0  0  0
   44.5799   13.7440    8.9111 H   0  0  0  0  0  0  0  0  0  0  0  0
   45.4922   12.4860    8.0533 H   0  0  0  0  0  0  0  0  0  0  0  0
   46.2903   13.9829    8.5637 H   0  0  0  0  0  0  0  0  0  0  0  0
   47.4571   11.3051    9.3165 H   0  0  0  0  0  0  0  0  0  0  0  0
   48.0623   12.8638    9.9157 H   0  0  0  0  0  0  0  0  0  0  0  0
   47.6520   11.5810   11.0606 H   0  0  0  0  0  0  0  0  0  0  0  0
   41.0924   12.3097   11.3226 H   0  0  0  0  0  0  0  0  0  0  0  0
   44.4205   12.6105   10.2880 H   0  0  0  0  0  0  0  0  0  0  0  0
   45.4885   11.4881    8.4018 H   0  0  0  0  0  0  0  0  0  0  0  0
   43.0705   13.2619   11.5082 H   0  0  0  0  0  0  0  0  0  0  0  0
   47.3483   13.4203   11.7481 H   0  0  0  0  0  0  0  0  0  0  0  0
   42.3723   10.6797   11.3879 H   0  0  0  0  0  0  0  0  0  0  0  0
   42.7612   12.5663    8.2542 H   0  0  0  0  0  0  0  0  0  0  0  0
   41.3067   12.6732   10.3437 H   0  0  0  0  0  0  0  0  0  0  0  0
   40.7657   11.5511    9.0864 H   0  0  0  0  0  0  0  0  0  0  0  0
   45.9059   14.2280   13.2976 H   0  0  0  0  0  0  0  0  0  0  0  0
   47.6948   11.6377    8.7387 H   0  0  0  0  0  0  0  0  0  0  0  0
   42.7171    9.9292    9.0760 H   0  0  0  0  0  0  0  0  0  0  0  0
   40.4869    9.4662   12.1174 H   0  0  0  0  0  0  0  0  0  0  0  0
   41.0965   11.5568   13.2783 H   0  0  0  0  0  0  0  0  0  0  0  0
   39.3511   11.2955   13.2882 H   0  0  0  0  0  0  0  0  0  0  0  0
   40.0496   12.4968   12.1945 H   0  0  0  0  0  0  0  0  0  0  0  0
   38.8062   11.2144   10.2549 H   0  0  0  0  0  0  0  0  0  0  0  0
   39.1937    9.5009    9.9840 H   0  0  0  0  0  0  0  0  0  0  0  0
   38.2411    9.9855   11.3909 H   0  0  0  0  0  0  0  0  0  0  0  0
  2  1  2  0
  3  1  1  0
  4  2  1  0
  5  3  2  0
  6  4  2  0
  7  9  1  0
  8  1  1  0
  9  8  1  0
 10  5  1  0
 11  4  1  0
 12  8  1  0
 13  7  1  0
 14 13  1  0
 15 13  1  0
  6  5  1  0
 17 16  2  0
 18 16  2  0
 19 16  1  0
 20 16  1  0
 22 21  2  0
 23 21  1  0
 24 22  1  0
 25 23  2  0
 26 24  2  0
 27 29  1  0
 28 21  1  0
 29 28  1  0
 30 25  1  0
 31 24  1  0
 32 28  1  0
 33 27  1  0
 34 33  1  0
 35 33  1  0
 26 25  1  0
  2 36  1  0
  3 37  1  0
  6 38  1  0
  7 39  1  0
  8 40  1  1
  9 41  1  0
  9 42  1  0
 10 43  1  0
 11 44  1  0
 12 45  1  0
 13 46  1  0
 14 47  1  0
 14 48  1  0
 14 49  1  0
 15 50  1  0
 15 51  1  0
 15 52  1  0
 19 53  1  0
 20 54  1  0
 22 55  1  0
 23 56  1  0
 26 57  1  0
 27 58  1  0
 28 59  1  6
 29 60  1  0
 29 61  1  0
 30 62  1  0
 31 63  1  0
 32 64  1  0
 33 65  1  0
 34 66  1  0
 34 67  1  0
 34 68  1  0
 35 69  1  0
 35 70  1  0
 35 71  1  0
M  END
> <Uni-Dock RESULT> 
ENERGY=   -5.247  LOWER_BOUND=    0.000  UPPER_BOUND=    0.000
INTER + INTRA:          -5.247
INTER:                  -5.247
INTRA:                   0.000
UNBOUND:                 0.000

$$$$

     RDKit          3D

 71 70  0  0  0  0  0  0  0  0999 V2000
   47.2946   11.4943   19.9185 C   0  0  0  0  0  0  0  0  0  0  0  0
   47.1014   12.0805   18.6551 C   0  0  0  0  0  0  0  0  0  0  0  0
   47.9216   12.2638   20.9137 C   0  0  0  0  0  0  0  0  0  0  0  0
   47.5433   13.3792   18.4003 C   0  0  0  0  0  0  0  0  0  0  0  0
   48.3552   13.5600   20.6403 C   0  0  0  0  0  0  0  0  0  0  0  0
   48.1758   14.1263   19.3846 C   0  0  0  0  0  0  0  0  0  0  0  0
   47.2306    7.8195   21.0834 N   0  0  0  0  0  0  0  0  0  0  0  0
   46.7767   10.1016   20.2259 C   0  0  2  0  0  0  0  0  0  0  0  0
   47.7876    9.1879   20.9687 C   0  0  0  0  0  0  0  0  0  0  0  0
   48.9519   14.2558   21.6519 O   0  0  0  0  0  0  0  0  0  0  0  0
   47.3635   13.9585   17.1779 O   0  0  0  0  0  0  0  0  0  0  0  0
   46.3879    9.4249   19.0197 O   0  0  0  0  0  0  0  0  0  0  0  0
   48.0939    6.9213   21.8692 C   0  0  0  0  0  0  0  0  0  0  0  0
   49.4137    6.6095   21.1617 C   0  0  0  0  0  0  0  0  0  0  0  0
   47.3250    5.6186   22.1140 C   0  0  0  0  0  0  0  0  0  0  0  0
   47.4500    9.8295   20.2768 S   0  0  0  0  0  0  0  0  0  0  0  0
   46.2965    9.5165   21.0818 O   0  0  0  0  0  0  0  0  0  0  0  0
   47.3762   10.2623   18.9040 O   0  0  0  0  0  0  0  0  0  0  0  0
   48.2999   10.9467   21.0528 O   0  0  0  0  0  0  0  0  0  0  0  0
   48.4360    8.5673   20.3684 O   0  0  0  0  0  0  0  0  0  0  0  0
   48.4851    8.3045   20.6857 C   0  0  0  0  0  0  0  0  0  0  0  0
   48.2104    6.9238   20.7268 C   0  0  0  0  0  0  0  0  0  0  0  0
   48.4496    9.0168   21.8947 C   0  0  0  0  0  0  0  0  0  0  0  0
   47.8832    6.2986   21.9287 C   0  0  0  0  0  0  0  0  0  0  0  0
   48.1171    8.3734   23.0865 C   0  0  0  0  0  0  0  0  0  0  0  0
   47.8302    7.0154   23.1149 C   0  0  0  0  0  0  0  0  0  0  0  0
   47.2915   10.8750   19.2130 N   0  0  0  0  0  0  0  0  0  0  0  0
   48.8657    8.9474   19.3617 C   0  0  2  0  0  0  0  0  0  0  0  0
   48.7183   10.4892   19.2401 C   0  0  0  0  0  0  0  0  0  0  0  0
   48.0880    9.1285   24.2233 O   0  0  0  0  0  0  0  0  0  0  0  0
   47.6067    4.9643   21.9790 O   0  0  0  0  0  0  0  0  0  0  0  0
   48.0734    8.3568   18.3182 O   0  0  0  0  0  0  0  0  0  0  0  0
   47.0388   12.3233   19.1579 C   0  0  0  0  0  0  0  0  0  0  0  0
   47.4046   13.0333   20.4636 C   0  0  0  0  0  0  0  0  0  0  0  0
   47.6944   13.0054   17.9572 C   0  0  0  0  0  0  0  0  0  0  0  0
   46.6035   11.5120   17.8734 H   0  0  0  0  0  0  0  0  0  0  0  0
   48.0668   11.8742   21.9175 H   0  0  0  0  0  0  0  0  0  0  0  0
   48.5136   15.1316   19.1580 H   0  0  0  0  0  0  0  0  0  0  0  0
   46.3226    7.8808   21.5519 H   0  0  0  0  0  0  0  0  0  0  0  0
   45.8672   10.2090   20.8304 H   0  0  0  0  0  0  0  0  0  0  0  0
   48.0118    9.5892   21.9634 H   0  0  0  0  0  0  0  0  0  0  0  0
   48.7175    9.1558   20.3888 H   0  0  0  0  0  0  0  0  0  0  0  0
   48.9988   15.1886   21.3869 H   0  0  0  0  0  0  0  0  0  0  0  0
   46.8161   13.3609   16.6386 H   0  0  0  0  0  0  0  0  0  0  0  0
   46.4297    8.4739   19.2514 H   0  0  0  0  0  0  0  0  0  0  0  0
   48.3018    7.3749   22.8472 H   0  0  0  0  0  0  0  0  0  0  0  0
   50.0477    7.4981   21.0844 H   0  0  0  0  0  0  0  0  0  0  0  0
   49.2451    6.2196   20.1506 H   0  0  0  0  0  0  0  0  0  0  0  0
   49.9816    5.8566   21.7205 H   0  0  0  0  0  0  0  0  0  0  0  0
   47.1151    5.0934   21.1733 H   0  0  0  0  0  0  0  0  0  0  0  0
   47.9047    4.9447   22.7572 H   0  0  0  0  0  0  0  0  0  0  0  0
   46.3690    5.8091   22.6179 H   0  0  0  0  0  0  0  0  0  0  0  0
   48.5185   11.6496   20.4050 H   0  0  0  0  0  0  0  0  0  0  0  0
   48.4459    8.2686   21.2999 H   0  0  0  0  0  0  0  0  0  0  0  0
   48.2546    6.3484   19.8050 H   0  0  0  0  0  0  0  0  0  0  0  0
   48.6797   10.0772   21.9399 H   0  0  0  0  0  0  0  0  0  0  0  0
   47.5746    6.5042   24.0362 H   0  0  0  0  0  0  0  0  0  0  0  0
   46.8332   10.4960   20.0465 H   0  0  0  0  0  0  0  0  0  0  0  0
   49.9110    8.6861   19.1620 H   0  0  0  0  0  0  0  0  0  0  0  0
   49.2731   10.9930   20.0365 H   0  0  0  0  0  0  0  0  0  0  0  0
   49.1671   10.7787   18.2828 H   0  0  0  0  0  0  0  0  0  0  0  0
   47.7853    8.5649   24.9545 H   0  0  0  0  0  0  0  0  0  0  0  0
   47.6272    4.6154   21.0726 H   0  0  0  0  0  0  0  0  0  0  0  0
   47.3545    9.0069   18.1656 H   0  0  0  0  0  0  0  0  0  0  0  0
   45.9544   12.4324   19.0280 H   0  0  0  0  0  0  0  0  0  0  0  0
   46.8776   12.5861   21.3114 H   0  0  0  0  0  0  0  0  0  0  0  0
   47.1125   14.0882   20.4152 H   0  0  0  0  0  0  0  0  0  0  0  0
   48.4805   12.9961   20.6659 H   0  0  0  0  0  0  0  0  0  0  0  0
   48.7859   13.0409   18.0472 H   0  0  0  0  0  0  0  0  0  0  0  0
   47.4413   12.4873   17.0251 H   0  0  0  0  0  0  0  0  0  0  0  0
   47.3388   14.0375   17.8667 H   0  0  0  0  0  0  0  0  0  0  0  0
  2  1  2  0
  3  1  1  0
  4  2  1  0
  5  3  2  0
  6  4  2  0
  7  9  1  0
  8  1  1  0
  9  8  1  0
 10  5  1  0
 11  4  1  0
 12  8  1  0
 13  7  1  0
 14 13  1  0
 15 13  1  0
  6  5  1  0
 17 16  2  0
 18 16  2  0
 19 16  1  0
 20 16  1  0
 22 21  2  0
 23 21  1  0
 24 22  1  0
 25 23  2  0
 26 24  2  0
 27 29  1  0
 28 21  1  0
 29 28  1  0
 30 25  1  0
 31 24  1  0
 32 28  1  0
 33 27  1  0
 34 33  1  0
 35 33  1  0
 26 25  1  0
  2 36  1  0
  3 37  1  0
  6 38  1  0
  7 39  1  0
  8 40  1  1
  9 41  1  0
  9 42  1  0
 10 43  1  0
 11 44  1  0
 12 45  1  0
 13 46  1  0
 14 47  1  0
 14 48  1  0
 14 49  1  0
 15 50  1  0
 15 51  1  0
 15 52  1  0
 19 53  1  0
 20 54  1  0
 22 55  1  0
 23 56  1  0
 26 57  1  0
 27 58  1  0
 28 59  1  6
 29 60  1  0
 29 61  1  0
 30 62  1  0
 31 63  1  0
 32 64  1  0
 33 65  1  0
 34 66  1  0
 34 67  1  0
 34 68  1  0
 35 69  1  0
 35 70  1  0
 35 71  1  0
M  END
> <Uni-Dock RESULT> 
ENERGY=   -5.071  LOWER_BOUND=   10.027  UPPER_BOUND=   11.837
INTER + INTRA:          -5.071
INTER:                  -5.071
INTRA:                   0.000
UNBOUND:                 0.000

$$$$

     RDKit          3D

 71 70  0  0  0  0  0  0  0  0999 V2000
   44.9752    5.1919   11.6454 C   0  0  0  0  0  0  0  0  0  0  0  0
   44.1791    4.0604   11.8962 C   0  0  0  0  0  0  0  0  0  0  0  0
   45.4722    5.3733   10.3433 C   0  0  0  0  0  0  0  0  0  0  0  0
   43.9155    3.1392   10.8819 C   0  0  0  0  0  0  0  0  0  0  0  0
   45.1971    4.4424    9.3429 C   0  0  0  0  0  0  0  0  0  0  0  0
   44.4236    3.3182    9.6025 C   0  0  0  0  0  0  0  0  0  0  0  0
   46.8623    7.5817   14.0105 N   0  0  0  0  0  0  0  0  0  0  0  0
   45.2306    6.2276   12.7246 C   0  0  2  0  0  0  0  0  0  0  0  0
   46.7082    6.6884   12.8382 C   0  0  0  0  0  0  0  0  0  0  0  0
   45.7051    4.6801    8.0983 O   0  0  0  0  0  0  0  0  0  0  0  0
   43.1460    2.0362   11.1130 O   0  0  0  0  0  0  0  0  0  0  0  0
   44.8329    5.7303   14.0124 O   0  0  0  0  0  0  0  0  0  0  0  0
   48.2205    8.1406   14.1213 C   0  0  0  0  0  0  0  0  0  0  0  0
   49.2661    7.0773   14.4616 C   0  0  0  0  0  0  0  0  0  0  0  0
   48.2048    9.2115   15.2173 C   0  0  0  0  0  0  0  0  0  0  0  0
   45.9362    6.0534   12.7673 S   0  0  0  0  0  0  0  0  0  0  0  0
   45.3320    7.3594   12.8438 O   0  0  0  0  0  0  0  0  0  0  0  0
   45.2753    4.8391   13.1749 O   0  0  0  0  0  0  0  0  0  0  0  0
   46.4064    5.8195   11.2517 O   0  0  0  0  0  0  0  0  0  0  0  0
   47.3490    6.1509   13.5212 O   0  0  0  0  0  0  0  0  0  0  0  0
   47.5995    6.4802   13.5518 C   0  0  0  0  0  0  0  0  0  0  0  0
   47.9769    7.1858   14.7108 C   0  0  0  0  0  0  0  0  0  0  0  0
   47.6220    7.1680   12.3284 C   0  0  0  0  0  0  0  0  0  0  0  0
   48.3291    8.5325   14.6412 C   0  0  0  0  0  0  0  0  0  0  0  0
   47.9746    8.5165   12.2802 C   0  0  0  0  0  0  0  0  0  0  0  0
   48.3280    9.2090   13.4304 C   0  0  0  0  0  0  0  0  0  0  0  0
   45.0301    4.8818   12.5298 N   0  0  0  0  0  0  0  0  0  0  0  0
   47.2484    5.0051   13.6611 C   0  0  2  0  0  0  0  0  0  0  0  0
   46.4184    4.3742   12.5092 C   0  0  0  0  0  0  0  0  0  0  0  0
   47.9624    9.1277   11.0598 O   0  0  0  0  0  0  0  0  0  0  0  0
   48.6877    9.2279   15.7580 O   0  0  0  0  0  0  0  0  0  0  0  0
   46.5190    4.7943   14.8812 O   0  0  0  0  0  0  0  0  0  0  0  0
   44.1709    4.3902   11.4415 C   0  0  0  0  0  0  0  0  0  0  0  0
   44.5645    4.9637   10.0780 C   0  0  0  0  0  0  0  0  0  0  0  0
   44.0735    2.8655   11.3908 C   0  0  0  0  0  0  0  0  0  0  0  0
   43.7686    3.9064   12.8912 H   0  0  0  0  0  0  0  0  0  0  0  0
   46.0647    6.2464   10.0842 H   0  0  0  0  0  0  0  0  0  0  0  0
   44.2071    2.5841    8.8341 H   0  0  0  0  0  0  0  0  0  0  0  0
   46.2039    8.3590   13.9104 H   0  0  0  0  0  0  0  0  0  0  0  0
   44.5917    7.0944   12.5139 H   0  0  0  0  0  0  0  0  0  0  0  0
   47.0223    7.2061   11.9248 H   0  0  0  0  0  0  0  0  0  0  0  0
   47.3393    5.8016   12.9699 H   0  0  0  0  0  0  0  0  0  0  0  0
   45.2614    4.0830    7.4745 H   0  0  0  0  0  0  0  0  0  0  0  0
   42.7785    2.1079   12.0117 H   0  0  0  0  0  0  0  0  0  0  0  0
   45.3500    6.2660   14.6491 H   0  0  0  0  0  0  0  0  0  0  0  0
   48.4930    8.6324   13.1782 H   0  0  0  0  0  0  0  0  0  0  0  0
   49.3968    6.3653   13.6411 H   0  0  0  0  0  0  0  0  0  0  0  0
   48.9896    6.5158   15.3622 H   0  0  0  0  0  0  0  0  0  0  0  0
   50.2424    7.5416   14.6433 H   0  0  0  0  0  0  0  0  0  0  0  0
   47.9728    8.7780   16.1987 H   0  0  0  0  0  0  0  0  0  0  0  0
   49.1821    9.7055   15.2866 H   0  0  0  0  0  0  0  0  0  0  0  0
   47.4603    9.9888   15.0040 H   0  0  0  0  0  0  0  0  0  0  0  0
   46.0938    4.9298   10.9830 H   0  0  0  0  0  0  0  0  0  0  0  0
   47.7655    6.9959   13.2577 H   0  0  0  0  0  0  0  0  0  0  0  0
   47.9883    6.6658   15.6659 H   0  0  0  0  0  0  0  0  0  0  0  0
   47.3715    6.6774   11.3925 H   0  0  0  0  0  0  0  0  0  0  0  0
   48.6078   10.2561   13.4041 H   0  0  0  0  0  0  0  0  0  0  0  0
   45.0541    5.9046   12.4891 H   0  0  0  0  0  0  0  0  0  0  0  0
   48.1907    4.4522   13.7473 H   0  0  0  0  0  0  0  0  0  0  0  0
   46.9097    4.5381   11.5462 H   0  0  0  0  0  0  0  0  0  0  0  0
   46.3882    3.2937   12.6917 H   0  0  0  0  0  0  0  0  0  0  0  0
   48.1681   10.0684   11.1893 H   0  0  0  0  0  0  0  0  0  0  0  0
   48.5853    8.6424   16.5264 H   0  0  0  0  0  0  0  0  0  0  0  0
   45.5805    4.7619   14.5971 H   0  0  0  0  0  0  0  0  0  0  0  0
   43.1630    4.7623   11.6656 H   0  0  0  0  0  0  0  0  0  0  0  0
   44.5639    6.0573   10.1002 H   0  0  0  0  0  0  0  0  0  0  0  0
   43.8443    4.6506    9.3139 H   0  0  0  0  0  0  0  0  0  0  0  0
   45.5558    4.6243    9.7584 H   0  0  0  0  0  0  0  0  0  0  0  0
   45.0129    2.4018   11.0694 H   0  0  0  0  0  0  0  0  0  0  0  0
   43.8042    2.4567   12.3715 H   0  0  0  0  0  0  0  0  0  0  0  0
   43.2968    2.5586   10.6822 H   0  0  0  0  0  0  0  0  0  0  0  0
  2  1  2  0
  3  1  1  0
  4  2  1  0
  5  3  2  0
  6  4  2  0
  7  9  1  0
  8  1  1  0
  9  8  1  0
 10  5  1  0
 11  4  1  0
 12  8  1  0
 13  7  1  0
 14 13  1  0
 15 13  1  0
  6  5  1  0
 17 16  2  0
 18 16  2  0
 19 16  1  0
 20 16  1  0
 22 21  2  0
 23 21  1  0
 24 22  1  0
 25 23  2  0
 26 24  2  0
 27 29  1  0
 28 21  1  0
 29 28  1  0
 30 25  1  0
 31 24  1  0
 32 28  1  0
 33 27  1  0
 34 33  1  0
 35 33  1  0
 26 25  1  0
  2 36  1  0
  3 37  1  0
  6 38  1  0
  7 39  1  0
  8 40  1  1
  9 41  1  0
  9 42  1  0
 10 43  1  0
 11 44  1  0
 12 45  1  0
 13 46  1  0
 14 47  1  0
 14 48  1  0
 14 49  1  0
 15 50  1  0
 15 51  1  0
 15 52  1  0
 19 53  1  0
 20 54  1  0
 22 55  1  0
 23 56  1  0
 26 57  1  0
 27 58  1  0
 28 59  1  6
 29 60  1  0
 29 61  1  0
 30 62  1  0
 31 63  1  0
 32 64  1  0
 33 65  1  0
 34 66  1  0
 34 67  1  0
 34 68  1  0
 35 69  1  0
 35 70  1  0
 35 71  1  0
M  END
> <Uni-Dock RESULT> 
ENERGY=   -4.923  LOWER_BOUND=    6.263  UPPER_BOUND=    7.678
INTER + INTRA:          -4.923
INTER:                  -4.923
INTRA:                   0.000
UNBOUND:                 0.000

$$$$

     RDKit          3D

 71 70  0  0  0  0  0  0  0  0999 V2000
   46.0074    6.7050   13.0230 C   0  0  0  0  0  0  0  0  0  0  0  0
   46.3263    5.3710   13.3330 C   0  0  0  0  0  0  0  0  0  0  0  0
   44.8943    6.9425   12.1984 C   0  0  0  0  0  0  0  0  0  0  0  0
   45.5683    4.3211   12.8136 C   0  0  0  0  0  0  0  0  0  0  0  0
   44.1486    5.8803   11.6899 C   0  0  0  0  0  0  0  0  0  0  0  0
   44.4798    4.5645   11.9870 C   0  0  0  0  0  0  0  0  0  0  0  0
   48.0601    9.9600   13.2617 N   0  0  0  0  0  0  0  0  0  0  0  0
   46.7920    7.8590   13.6188 C   0  0  2  0  0  0  0  0  0  0  0  0
   47.1789    8.9671   12.6033 C   0  0  0  0  0  0  0  0  0  0  0  0
   43.0763    6.1792   10.8996 O   0  0  0  0  0  0  0  0  0  0  0  0
   45.8686    3.0223   13.1053 O   0  0  0  0  0  0  0  0  0  0  0  0
   48.0050    7.3895   14.2289 O   0  0  0  0  0  0  0  0  0  0  0  0
   48.3849   11.0978   12.3845 C   0  0  0  0  0  0  0  0  0  0  0  0
   49.2754   10.6953   11.2078 C   0  0  0  0  0  0  0  0  0  0  0  0
   49.1008   12.1579   13.2282 C   0  0  0  0  0  0  0  0  0  0  0  0
   47.0731    8.0414   12.9725 S   0  0  0  0  0  0  0  0  0  0  0  0
   46.6228    8.9121   14.0287 O   0  0  0  0  0  0  0  0  0  0  0  0
   47.5964    6.7167   13.1936 O   0  0  0  0  0  0  0  0  0  0  0  0
   45.8685    7.8775   11.9262 O   0  0  0  0  0  0  0  0  0  0  0  0
   48.1312    8.8763   12.1023 O   0  0  0  0  0  0  0  0  0  0  0  0
   48.1391    9.2856   12.0345 C   0  0  0  0  0  0  0  0  0  0  0  0
   49.1205   10.2169   12.4255 C   0  0  0  0  0  0  0  0  0  0  0  0
   46.8305    9.7543   11.8392 C   0  0  0  0  0  0  0  0  0  0  0  0
   48.7880   11.5532   12.6410 C   0  0  0  0  0  0  0  0  0  0  0  0
   46.5174   11.0948   12.0629 C   0  0  0  0  0  0  0  0  0  0  0  0
   47.4875   12.0025   12.4657 C   0  0  0  0  0  0  0  0  0  0  0  0
   46.9223    6.5634   13.1790 N   0  0  0  0  0  0  0  0  0  0  0  0
   48.5434    7.8421   11.7815 C   0  0  2  0  0  0  0  0  0  0  0  0
   47.4236    6.7653   11.8030 C   0  0  0  0  0  0  0  0  0  0  0  0
   45.2227   11.4805   11.8674 O   0  0  0  0  0  0  0  0  0  0  0  0
   49.7280   12.4619   13.0284 O   0  0  0  0  0  0  0  0  0  0  0  0
   49.5248    7.4604   12.7595 O   0  0  0  0  0  0  0  0  0  0  0  0
   45.8152    5.6025   13.3039 C   0  0  0  0  0  0  0  0  0  0  0  0
   44.5107    6.1280   12.6997 C   0  0  0  0  0  0  0  0  0  0  0  0
   46.1554    4.2153   12.7592 C   0  0  0  0  0  0  0  0  0  0  0  0
   47.1726    5.1616   13.9828 H   0  0  0  0  0  0  0  0  0  0  0  0
   44.5818    7.9538   11.9534 H   0  0  0  0  0  0  0  0  0  0  0  0
   43.9107    3.7295   11.5932 H   0  0  0  0  0  0  0  0  0  0  0  0
   47.5755   10.3213   14.0877 H   0  0  0  0  0  0  0  0  0  0  0  0
   46.1865    8.2948   14.4234 H   0  0  0  0  0  0  0  0  0  0  0  0
   46.2827    9.4596   12.2095 H   0  0  0  0  0  0  0  0  0  0  0  0
   47.7149    8.5007   11.7682 H   0  0  0  0  0  0  0  0  0  0  0  0
   42.5408    5.3750   10.8046 H   0  0  0  0  0  0  0  0  0  0  0  0
   46.5766    3.0193   13.7735 H   0  0  0  0  0  0  0  0  0  0  0  0
   48.5892    8.1757   14.2426 H   0  0  0  0  0  0  0  0  0  0  0  0
   47.4569   11.5447   12.0043 H   0  0  0  0  0  0  0  0  0  0  0  0
   48.7479   10.0358   10.5120 H   0  0  0  0  0  0  0  0  0  0  0  0
   50.1820   10.1804   11.5479 H   0  0  0  0  0  0  0  0  0  0  0  0
   49.5860   11.5800   10.6398 H   0  0  0  0  0  0  0  0  0  0  0  0
   50.0595   11.7856   13.6117 H   0  0  0  0  0  0  0  0  0  0  0  0
   49.3000   13.0558   12.6298 H   0  0  0  0  0  0  0  0  0  0  0  0
   48.4880   12.4656   14.0849 H   0  0  0  0  0  0  0  0  0  0  0  0
   45.7759    6.9202   11.7351 H   0  0  0  0  0  0  0  0  0  0  0  0
   47.7737    9.7803   11.9924 H   0  0  0  0  0  0  0  0  0  0  0  0
   50.1455    9.8795   12.5605 H   0  0  0  0  0  0  0  0  0  0  0  0
   46.0315    9.0969   11.5094 H   0  0  0  0  0  0  0  0  0  0  0  0
   47.2562   13.0475   12.6385 H   0  0  0  0  0  0  0  0  0  0  0  0
   46.6138    7.4658   13.5516 H   0  0  0  0  0  0  0  0  0  0  0  0
   49.0326    7.8084   10.8015 H   0  0  0  0  0  0  0  0  0  0  0  0
   46.6264    7.0249   11.1010 H   0  0  0  0  0  0  0  0  0  0  0  0
   47.8766    5.8262   11.4649 H   0  0  0  0  0  0  0  0  0  0  0  0
   45.1435   12.4160   12.1173 H   0  0  0  0  0  0  0  0  0  0  0  0
   50.5673   11.9918   13.1639 H   0  0  0  0  0  0  0  0  0  0  0  0
   49.0130    6.9596   13.4302 H   0  0  0  0  0  0  0  0  0  0  0  0
   45.6432    5.4837   14.3813 H   0  0  0  0  0  0  0  0  0  0  0  0
   44.2343    7.0883   13.1444 H   0  0  0  0  0  0  0  0  0  0  0  0
   43.6925    5.4268   12.8984 H   0  0  0  0  0  0  0  0  0  0  0  0
   44.5812    6.2564   11.6142 H   0  0  0  0  0  0  0  0  0  0  0  0
   46.2436    4.2104   11.6669 H   0  0  0  0  0  0  0  0  0  0  0  0
   47.0964    3.8470   13.1836 H   0  0  0  0  0  0  0  0  0  0  0  0
   45.3711    3.4996   13.0283 H   0  0  0  0  0  0  0  0  0  0  0  0
  2  1  2  0
  3  1  1  0
  4  2  1  0
  5  3  2  0
  6  4  2  0
  7  9  1  0
  8  1  1  0
  9  8  1  0
 10  5  1  0
 11  4  1  0
 12  8  1  0
 13  7  1  0
 14 13  1  0
 15 13  1  0
  6  5  1  0
 17 16  2  0
 18 16  2  0
 19 16  1  0
 20 16  1  0
 22 21  2  0
 23 21  1  0
 24 22  1  0
 25 23  2  0
 26 24  2  0
 27 29  1  0
 28 21  1  0
 29 28  1  0
 30 25  1  0
 31 24  1  0
 32 28  1  0
 33 27  1  0
 34 33  1  0
 35 33  1  0
 26 25  1  0
  2 36  1  0
  3 37  1  0
  6 38  1  0
  7 39  1  0
  8 40  1  1
  9 41  1  0
  9 42  1  0
 10 43  1  0
 11 44  1  0
 12 45  1  0
 13 46  1  0
 14 47  1  0
 14 48  1  0
 14 49  1  0
 15 50  1  0
 15 51  1  0
 15 52  1  0
 19 53  1  0
 20 54  1  0
 22 55  1  0
 23 56  1  0
 26 57  1  0
 27 58  1  0
 28 59  1  6
 29 60  1  0
 29 61  1  0
 30 62  1  0
 31 63  1  0
 32 64  1  0
 33 65  1  0
 34 66  1  0
 34 67  1  0
 34 68  1  0
 35 69  1  0
 35 70  1  0
 35 71  1  0
M  END
> <Uni-Dock RESULT> 
ENERGY=   -4.828  LOWER_BOUND=    4.870  UPPER_BOUND=    6.463
INTER + INTRA:          -4.828
INTER:                  -4.828
INTRA:                   0.000
UNBOUND:                 0.000

$$$$

     RDKit          3D

 71 70  0  0  0  0  0  0  0  0999 V2000
   47.6270   10.7177   18.9109 C   0  0  0  0  0  0  0  0  0  0  0  0
   47.9731   11.3211   17.6890 C   0  0  0  0  0  0  0  0  0  0  0  0
   47.3569   11.5551   20.0069 C   0  0  0  0  0  0  0  0  0  0  0  0
   48.0656   12.7094   17.5841 C   0  0  0  0  0  0  0  0  0  0  0  0
   47.4535   12.9401   19.8823 C   0  0  0  0  0  0  0  0  0  0  0  0
   47.8124   13.5283   18.6762 C   0  0  0  0  0  0  0  0  0  0  0  0
   48.0641    7.1149   20.2127 N   0  0  0  0  0  0  0  0  0  0  0  0
   47.4748    9.2126   19.0285 C   0  0  2  0  0  0  0  0  0  0  0  0
   48.1514    8.5927   20.2802 C   0  0  0  0  0  0  0  0  0  0  0  0
   47.1729   13.6971   20.9832 O   0  0  0  0  0  0  0  0  0  0  0  0
   48.4025   13.3070   16.4045 O   0  0  0  0  0  0  0  0  0  0  0  0
   48.0178    8.5537   17.8730 O   0  0  0  0  0  0  0  0  0  0  0  0
   48.5965    6.4609   21.4203 C   0  0  0  0  0  0  0  0  0  0  0  0
   50.1104    6.6289   21.5589 C   0  0  0  0  0  0  0  0  0  0  0  0
   48.2525    4.9697   21.3429 C   0  0  0  0  0  0  0  0  0  0  0  0
   48.0611    9.1562   19.4564 S   0  0  0  0  0  0  0  0  0  0  0  0
   46.8150    8.4385   19.5490 O   0  0  0  0  0  0  0  0  0  0  0  0
   48.6064    9.6600   18.2210 O   0  0  0  0  0  0  0  0  0  0  0  0
   47.9790   10.4102   20.4532 O   0  0  0  0  0  0  0  0  0  0  0  0
   49.1717    8.2532   20.1811 O   0  0  0  0  0  0  0  0  0  0  0  0
   49.1200    7.9923   20.4995 C   0  0  0  0  0  0  0  0  0  0  0  0
   49.2987    6.5955   20.5218 C   0  0  0  0  0  0  0  0  0  0  0  0
   48.2301    8.5548   21.4279 C   0  0  0  0  0  0  0  0  0  0  0  0
   48.5865    5.8010   21.4185 C   0  0  0  0  0  0  0  0  0  0  0  0
   47.5247    7.7423   22.3152 C   0  0  0  0  0  0  0  0  0  0  0  0
   47.6936    6.3643   22.3180 C   0  0  0  0  0  0  0  0  0  0  0  0
   48.1891   10.1891   18.3762 N   0  0  0  0  0  0  0  0  0  0  0  0
   49.9342    8.8302   19.5268 C   0  0  2  0  0  0  0  0  0  0  0  0
   49.4170   10.2575   19.1965 C   0  0  0  0  0  0  0  0  0  0  0  0
   46.6655    8.3534   23.1821 O   0  0  0  0  0  0  0  0  0  0  0  0
   48.7448    4.4468   21.4430 O   0  0  0  0  0  0  0  0  0  0  0  0
   50.0457    8.1159   18.2848 O   0  0  0  0  0  0  0  0  0  0  0  0
   47.5814   11.4898   18.0547 C   0  0  0  0  0  0  0  0  0  0  0  0
   46.9571   12.1647   19.2785 C   0  0  0  0  0  0  0  0  0  0  0  0
   48.5348   12.4386   17.3284 C   0  0  0  0  0  0  0  0  0  0  0  0
   48.1702   10.6957   16.8217 H   0  0  0  0  0  0  0  0  0  0  0  0
   47.0523   11.1453   20.9660 H   0  0  0  0  0  0  0  0  0  0  0  0
   47.8963   14.6041   18.5681 H   0  0  0  0  0  0  0  0  0  0  0  0
   47.0785    6.8557   20.1169 H   0  0  0  0  0  0  0  0  0  0  0  0
   46.4015    8.9851   19.0418 H   0  0  0  0  0  0  0  0  0  0  0  0
   47.6749    8.9578   21.1970 H   0  0  0  0  0  0  0  0  0  0  0  0
   49.2050    8.8958   20.2912 H   0  0  0  0  0  0  0  0  0  0  0  0
   47.0697   14.6183   20.6949 H   0  0  0  0  0  0  0  0  0  0  0  0
   48.4397   12.6183   15.7175 H   0  0  0  0  0  0  0  0  0  0  0  0
   48.2142    7.6452   18.1824 H   0  0  0  0  0  0  0  0  0  0  0  0
   48.1003    6.8721   22.3093 H   0  0  0  0  0  0  0  0  0  0  0  0
   50.3835    7.6720   21.7455 H   0  0  0  0  0  0  0  0  0  0  0  0
   50.6361    6.2929   20.6569 H   0  0  0  0  0  0  0  0  0  0  0  0
   50.4872    6.0414   22.4042 H   0  0  0  0  0  0  0  0  0  0  0  0
   48.7488    4.4869   20.4911 H   0  0  0  0  0  0  0  0  0  0  0  0
   48.5695    4.4536   22.2579 H   0  0  0  0  0  0  0  0  0  0  0  0
   47.1711    4.8153   21.2388 H   0  0  0  0  0  0  0  0  0  0  0  0
   48.2856   11.1983   19.9569 H   0  0  0  0  0  0  0  0  0  0  0  0
   48.7715    7.8944   20.9985 H   0  0  0  0  0  0  0  0  0  0  0  0
   50.0005    6.1412   19.8261 H   0  0  0  0  0  0  0  0  0  0  0  0
   48.0670    9.6269   21.4857 H   0  0  0  0  0  0  0  0  0  0  0  0
   47.1536    5.7235   23.0060 H   0  0  0  0  0  0  0  0  0  0  0  0
   47.4963    9.6190   18.8696 H   0  0  0  0  0  0  0  0  0  0  0  0
   50.9448    8.9192   19.9412 H   0  0  0  0  0  0  0  0  0  0  0  0
   49.2766   10.8376   20.1127 H   0  0  0  0  0  0  0  0  0  0  0  0
   50.1957   10.7502   18.6027 H   0  0  0  0  0  0  0  0  0  0  0  0
   46.2059    7.6646   23.6903 H   0  0  0  0  0  0  0  0  0  0  0  0
   49.3512    4.1988   20.7257 H   0  0  0  0  0  0  0  0  0  0  0  0
   49.3637    8.5252   17.7105 H   0  0  0  0  0  0  0  0  0  0  0  0
   46.7624   11.2723   17.3572 H   0  0  0  0  0  0  0  0  0  0  0  0
   46.2230   11.5078   19.7538 H   0  0  0  0  0  0  0  0  0  0  0  0
   46.4337   13.0798   18.9798 H   0  0  0  0  0  0  0  0  0  0  0  0
   47.7091   12.4415   20.0254 H   0  0  0  0  0  0  0  0  0  0  0  0
   49.3372   12.7987   17.9822 H   0  0  0  0  0  0  0  0  0  0  0  0
   48.9902   11.9486   16.4602 H   0  0  0  0  0  0  0  0  0  0  0  0
   47.9907   13.3161   16.9628 H   0  0  0  0  0  0  0  0  0  0  0  0
  2  1  2  0
  3  1  1  0
  4  2  1  0
  5  3  2  0
  6  4  2  0
  7  9  1  0
  8  1  1  0
  9  8  1  0
 10  5  1  0
 11  4  1  0
 12  8  1  0
 13  7  1  0
 14 13  1  0
 15 13  1  0
  6  5  1  0
 17 16  2  0
 18 16  2  0
 19 16  1  0
 20 16  1  0
 22 21  2  0
 23 21  1  0
 24 22  1  0
 25 23  2  0
 26 24  2  0
 27 29  1  0
 28 21  1  0
 29 28  1  0
 30 25  1  0
 31 24  1  0
 32 28  1  0
 33 27  1  0
 34 33  1  0
 35 33  1  0
 26 25  1  0
  2 36  1  0
  3 37  1  0
  6 38  1  0
  7 39  1  0
  8 40  1  1
  9 41  1  0
  9 42  1  0
 10 43  1  0
 11 44  1  0
 12 45  1  0
 13 46  1  0
 14 47  1  0
 14 48  1  0
 14 49  1  0
 15 50  1  0
 15 51  1  0
 15 52  1  0
 19 53  1  0
 20 54  1  0
 22 55  1  0
 23 56  1  0
 26 57  1  0
 27 58  1  0
 28 59  1  6
 29 60  1  0
 29 61  1  0
 30 62  1  0
 31 63  1  0
 32 64  1  0
 33 65  1  0
 34 66  1  0
 34 67  1  0
 34 68  1  0
 35 69  1  0
 35 70  1  0
 35 71  1  0
M  END
> <Uni-Dock RESULT> 
ENERGY=   -4.598  LOWER_BOUND=    9.789  UPPER_BOUND=   11.579
INTER + INTRA:          -4.598
INTER:                  -4.598
INTRA:                   0.000
UNBOUND:                 0.000

$$$$

     RDKit          3D

 71 70  0  0  0  0  0  0  0  0999 V2000
   54.4165    5.8690    8.4144 C   0  0  0  0  0  0  0  0  0  0  0  0
   54.1622    5.2881    9.6695 C   0  0  0  0  0  0  0  0  0  0  0  0
   55.7032    5.7222    7.8683 C   0  0  0  0  0  0  0  0  0  0  0  0
   55.1702    4.6086   10.3543 C   0  0  0  0  0  0  0  0  0  0  0  0
   56.6969    5.0388    8.5673 C   0  0  0  0  0  0  0  0  0  0  0  0
   56.4428    4.4821    9.8142 C   0  0  0  0  0  0  0  0  0  0  0  0
   52.5495    8.5853    6.4141 N   0  0  0  0  0  0  0  0  0  0  0  0
   53.3182    6.5688    7.6357 C   0  0  2  0  0  0  0  0  0  0  0  0
   53.7333    7.9318    7.0204 C   0  0  0  0  0  0  0  0  0  0  0  0
   57.9236    4.9271    7.9788 O   0  0  0  0  0  0  0  0  0  0  0  0
   54.9366    4.0422   11.5736 O   0  0  0  0  0  0  0  0  0  0  0  0
   52.1717    6.8022    8.4693 O   0  0  0  0  0  0  0  0  0  0  0  0
   52.8890    9.8392    5.7198 C   0  0  0  0  0  0  0  0  0  0  0  0
   53.3331   10.9411    6.6832 C   0  0  0  0  0  0  0  0  0  0  0  0
   51.6499   10.3042    4.9474 C   0  0  0  0  0  0  0  0  0  0  0  0
   53.6325    7.2202    7.7188 S   0  0  0  0  0  0  0  0  0  0  0  0
   52.9544    6.6967    6.5601 O   0  0  0  0  0  0  0  0  0  0  0  0
   53.3238    6.8320    9.0721 O   0  0  0  0  0  0  0  0  0  0  0  0
   55.2034    6.9592    7.5261 O   0  0  0  0  0  0  0  0  0  0  0  0
   53.5662    8.8196    7.6121 O   0  0  0  0  0  0  0  0  0  0  0  0
   53.5591    9.0521    7.2686 C   0  0  0  0  0  0  0  0  0  0  0  0
   52.5336    9.9017    6.8100 C   0  0  0  0  0  0  0  0  0  0  0  0
   54.4370    8.5102    6.3167 C   0  0  0  0  0  0  0  0  0  0  0  0
   52.3826   10.1650    5.4496 C   0  0  0  0  0  0  0  0  0  0  0  0
   54.2672    8.7836    4.9597 C   0  0  0  0  0  0  0  0  0  0  0  0
   53.2425    9.6079    4.5149 C   0  0  0  0  0  0  0  0  0  0  0  0
   53.7621    6.3215    8.9128 N   0  0  0  0  0  0  0  0  0  0  0  0
   53.7110    8.8095    8.7616 C   0  0  2  0  0  0  0  0  0  0  0  0
   54.5150    7.5583    9.2107 C   0  0  0  0  0  0  0  0  0  0  0  0
   55.1482    8.2132    4.0870 O   0  0  0  0  0  0  0  0  0  0  0  0
   51.3880   10.9788    4.9935 O   0  0  0  0  0  0  0  0  0  0  0  0
   52.4026    8.7123    9.3481 O   0  0  0  0  0  0  0  0  0  0  0  0
   54.4613    5.0708    9.2465 C   0  0  0  0  0  0  0  0  0  0  0  0
   55.6507    4.7985    8.3222 C   0  0  0  0  0  0  0  0  0  0  0  0
   54.8738    4.9832   10.7158 C   0  0  0  0  0  0  0  0  0  0  0  0
   53.1698    5.3730   10.1057 H   0  0  0  0  0  0  0  0  0  0  0  0
   55.9465    6.1213    6.8875 H   0  0  0  0  0  0  0  0  0  0  0  0
   57.2089    3.9528   10.3702 H   0  0  0  0  0  0  0  0  0  0  0  0
   52.1425    7.9415    5.7304 H   0  0  0  0  0  0  0  0  0  0  0  0
   52.9907    5.8911    6.8373 H   0  0  0  0  0  0  0  0  0  0  0  0
   54.5157    7.7924    6.2660 H   0  0  0  0  0  0  0  0  0  0  0  0
   54.1308    8.5672    7.8206 H   0  0  0  0  0  0  0  0  0  0  0  0
   58.4303    4.2583    8.4672 H   0  0  0  0  0  0  0  0  0  0  0  0
   53.9850    4.1188   11.7643 H   0  0  0  0  0  0  0  0  0  0  0  0
   51.7021    7.5431    8.0332 H   0  0  0  0  0  0  0  0  0  0  0  0
   53.6862    9.6497    4.9889 H   0  0  0  0  0  0  0  0  0  0  0  0
   54.2879   10.6977    7.1592 H   0  0  0  0  0  0  0  0  0  0  0  0
   52.5897   11.1088    7.4718 H   0  0  0  0  0  0  0  0  0  0  0  0
   53.4725   11.8875    6.1478 H   0  0  0  0  0  0  0  0  0  0  0  0
   50.8215   10.5463    5.6257 H   0  0  0  0  0  0  0  0  0  0  0  0
   51.8785   11.2004    4.3570 H   0  0  0  0  0  0  0  0  0  0  0  0
   51.3032    9.5324    4.2488 H   0  0  0  0  0  0  0  0  0  0  0  0
   55.5397    6.5720    8.3618 H   0  0  0  0  0  0  0  0  0  0  0  0
   53.7450    9.0600    6.6808 H   0  0  0  0  0  0  0  0  0  0  0  0
   51.8561   10.3503    7.5327 H   0  0  0  0  0  0  0  0  0  0  0  0
   55.2671    7.8715    6.6036 H   0  0  0  0  0  0  0  0  0  0  0  0
   53.1037    9.8305    3.4629 H   0  0  0  0  0  0  0  0  0  0  0  0
   53.5319    6.3097    7.9151 H   0  0  0  0  0  0  0  0  0  0  0  0
   54.1919    9.6972    9.1879 H   0  0  0  0  0  0  0  0  0  0  0  0
   55.5121    7.5598    8.7615 H   0  0  0  0  0  0  0  0  0  0  0  0
   54.6360    7.6293   10.2978 H   0  0  0  0  0  0  0  0  0  0  0  0
   54.8720    8.4415    3.1840 H   0  0  0  0  0  0  0  0  0  0  0  0
   50.8400   11.2427    5.7509 H   0  0  0  0  0  0  0  0  0  0  0  0
   52.2514    7.7471    9.4386 H   0  0  0  0  0  0  0  0  0  0  0  0
   53.7336    4.2672    9.0757 H   0  0  0  0  0  0  0  0  0  0  0  0
   55.3367    4.7921    7.2745 H   0  0  0  0  0  0  0  0  0  0  0  0
   56.0826    3.8157    8.5414 H   0  0  0  0  0  0  0  0  0  0  0  0
   56.4447    5.5437    8.4413 H   0  0  0  0  0  0  0  0  0  0  0  0
   55.6805    5.6831   10.9611 H   0  0  0  0  0  0  0  0  0  0  0  0
   54.0233    5.1913   11.3751 H   0  0  0  0  0  0  0  0  0  0  0  0
   55.2318    3.9748   10.9495 H   0  0  0  0  0  0  0  0  0  0  0  0
  2  1  2  0
  3  1  1  0
  4  2  1  0
  5  3  2  0
  6  4  2  0
  7  9  1  0
  8  1  1  0
  9  8  1  0
 10  5  1  0
 11  4  1  0
 12  8  1  0
 13  7  1  0
 14 13  1  0
 15 13  1  0
  6  5  1  0
 17 16  2  0
 18 16  2  0
 19 16  1  0
 20 16  1  0
 22 21  2  0
 23 21  1  0
 24 22  1  0
 25 23  2  0
 26 24  2  0
 27 29  1  0
 28 21  1  0
 29 28  1  0
 30 25  1  0
 31 24  1  0
 32 28  1  0
 33 27  1  0
 34 33  1  0
 35 33  1  0
 26 25  1  0
  2 36  1  0
  3 37  1  0
  6 38  1  0
  7 39  1  0
  8 40  1  1
  9 41  1  0
  9 42  1  0
 10 43  1  0
 11 44  1  0
 12 45  1  0
 13 46  1  0
 14 47  1  0
 14 48  1  0
 14 49  1  0
 15 50  1  0
 15 51  1  0
 15 52  1  0
 19 53  1  0
 20 54  1  0
 22 55  1  0
 23 56  1  0
 26 57  1  0
 27 58  1  0
 28 59  1  6
 29 60  1  0
 29 61  1  0
 30 62  1  0
 31 63  1  0
 32 64  1  0
 33 65  1  0
 34 66  1  0
 34 67  1  0
 34 68  1  0
 35 69  1  0
 35 70  1  0
 35 71  1  0
M  END
> <Uni-Dock RESULT> 
ENERGY=   -4.541  LOWER_BOUND=   10.985  UPPER_BOUND=   13.273
INTER + INTRA:          -4.541
INTER:                  -4.541
INTRA:                   0.000
UNBOUND:                 0.000

$$$$

     RDKit          3D

 71 70  0  0  0  0  0  0  0  0999 V2000
   49.3733    4.7610   18.4764 C   0  0  0  0  0  0  0  0  0  0  0  0
   48.1422    4.6858   17.8012 C   0  0  0  0  0  0  0  0  0  0  0  0
   50.3169    3.7459   18.2428 C   0  0  0  0  0  0  0  0  0  0  0  0
   47.8664    3.6190   16.9452 C   0  0  0  0  0  0  0  0  0  0  0  0
   50.0233    2.6886   17.3831 C   0  0  0  0  0  0  0  0  0  0  0  0
   48.7983    2.6123   16.7325 C   0  0  0  0  0  0  0  0  0  0  0  0
   50.4849    6.7631   21.5783 N   0  0  0  0  0  0  0  0  0  0  0  0
   49.7071    5.9392   19.3724 C   0  0  2  0  0  0  0  0  0  0  0  0
   50.3388    5.5525   20.7363 C   0  0  0  0  0  0  0  0  0  0  0  0
   50.9850    1.7381   17.1953 O   0  0  0  0  0  0  0  0  0  0  0  0
   46.6749    3.5336   16.2857 O   0  0  0  0  0  0  0  0  0  0  0  0
   48.5327    6.7201   19.6461 O   0  0  0  0  0  0  0  0  0  0  0  0
   51.1733    6.4875   22.8510 C   0  0  0  0  0  0  0  0  0  0  0  0
   50.3412    5.6127   23.7901 C   0  0  0  0  0  0  0  0  0  0  0  0
   51.4696    7.8288   23.5302 C   0  0  0  0  0  0  0  0  0  0  0  0
   49.6910    5.5268   19.9721 S   0  0  0  0  0  0  0  0  0  0  0  0
   50.5954    6.6017   19.6511 O   0  0  0  0  0  0  0  0  0  0  0  0
   48.3375    5.4446   19.4833 O   0  0  0  0  0  0  0  0  0  0  0  0
   50.4006    4.1495   19.5571 O   0  0  0  0  0  0  0  0  0  0  0  0
   49.6715    5.3986   21.5712 O   0  0  0  0  0  0  0  0  0  0  0  0
   49.9789    5.4809   21.8373 C   0  0  0  0  0  0  0  0  0  0  0  0
   50.0252    6.4689   22.8400 C   0  0  0  0  0  0  0  0  0  0  0  0
   51.1963    5.0326   21.3013 C   0  0  0  0  0  0  0  0  0  0  0  0
   51.2431    7.0024   23.2580 C   0  0  0  0  0  0  0  0  0  0  0  0
   52.4044    5.5812   21.7310 C   0  0  0  0  0  0  0  0  0  0  0  0
   52.4395    6.5677   22.7072 C   0  0  0  0  0  0  0  0  0  0  0  0
   48.6621    5.1549   18.9459 N   0  0  0  0  0  0  0  0  0  0  0  0
   48.6348    4.9019   21.4260 C   0  0  2  0  0  0  0  0  0  0  0  0
   48.5502    4.1810   20.0523 C   0  0  0  0  0  0  0  0  0  0  0  0
   53.5499    5.1090   21.1583 O   0  0  0  0  0  0  0  0  0  0  0  0
   51.2993    7.9656   24.2215 O   0  0  0  0  0  0  0  0  0  0  0  0
   47.6612    5.9590   21.4167 O   0  0  0  0  0  0  0  0  0  0  0  0
   48.6522    4.5686   17.5966 C   0  0  0  0  0  0  0  0  0  0  0  0
   49.9284    3.7815   17.2890 C   0  0  0  0  0  0  0  0  0  0  0  0
   47.4057    3.7309   17.3114 C   0  0  0  0  0  0  0  0  0  0  0  0
   47.4021    5.4680   17.9519 H   0  0  0  0  0  0  0  0  0  0  0  0
   51.2969    3.7705   18.7113 H   0  0  0  0  0  0  0  0  0  0  0  0
   48.5560    1.7922   16.0656 H   0  0  0  0  0  0  0  0  0  0  0  0
   51.0369    7.4508   21.0587 H   0  0  0  0  0  0  0  0  0  0  0  0
   50.3954    6.5932   18.8223 H   0  0  0  0  0  0  0  0  0  0  0  0
   51.3141    5.0752   20.5884 H   0  0  0  0  0  0  0  0  0  0  0  0
   49.6742    4.8382   21.2365 H   0  0  0  0  0  0  0  0  0  0  0  0
   50.7305    1.2023   16.4267 H   0  0  0  0  0  0  0  0  0  0  0  0
   46.1802    4.3560   16.4489 H   0  0  0  0  0  0  0  0  0  0  0  0
   48.7455    7.1946   20.4764 H   0  0  0  0  0  0  0  0  0  0  0  0
   52.1342    5.9960   22.6494 H   0  0  0  0  0  0  0  0  0  0  0  0
   50.2182    4.6006   23.3927 H   0  0  0  0  0  0  0  0  0  0  0  0
   49.3446    6.0387   23.9581 H   0  0  0  0  0  0  0  0  0  0  0  0
   50.8334    5.5180   24.7650 H   0  0  0  0  0  0  0  0  0  0  0  0
   50.5449    8.3588   23.7926 H   0  0  0  0  0  0  0  0  0  0  0  0
   52.0459    7.6747   24.4511 H   0  0  0  0  0  0  0  0  0  0  0  0
   52.0633    8.4824   22.8788 H   0  0  0  0  0  0  0  0  0  0  0  0
   49.7457    3.6247   19.0499 H   0  0  0  0  0  0  0  0  0  0  0  0
   50.5935    5.4905   21.8850 H   0  0  0  0  0  0  0  0  0  0  0  0
   49.0949    6.8144   23.2849 H   0  0  0  0  0  0  0  0  0  0  0  0
   51.2355    4.2525   20.5468 H   0  0  0  0  0  0  0  0  0  0  0  0
   53.3730    6.9982   23.0517 H   0  0  0  0  0  0  0  0  0  0  0  0
   49.5291    5.6869   19.0634 H   0  0  0  0  0  0  0  0  0  0  0  0
   48.3346    4.1918   22.2049 H   0  0  0  0  0  0  0  0  0  0  0  0
   49.2987    3.3864   19.9879 H   0  0  0  0  0  0  0  0  0  0  0  0
   47.5596    3.7150   19.9964 H   0  0  0  0  0  0  0  0  0  0  0  0
   54.2978    5.6208   21.5085 H   0  0  0  0  0  0  0  0  0  0  0  0
   50.3898    8.2045   24.4658 H   0  0  0  0  0  0  0  0  0  0  0  0
   47.5860    6.2076   20.4706 H   0  0  0  0  0  0  0  0  0  0  0  0
   48.6256    5.4182   16.9021 H   0  0  0  0  0  0  0  0  0  0  0  0
   50.8149    4.4072   17.4265 H   0  0  0  0  0  0  0  0  0  0  0  0
   49.9229    3.4448   16.2463 H   0  0  0  0  0  0  0  0  0  0  0  0
   50.0288    2.8943   17.9235 H   0  0  0  0  0  0  0  0  0  0  0  0
   47.3940    2.7983   17.8867 H   0  0  0  0  0  0  0  0  0  0  0  0
   46.4938    4.2924   17.5448 H   0  0  0  0  0  0  0  0  0  0  0  0
   47.3640    3.4624   16.2503 H   0  0  0  0  0  0  0  0  0  0  0  0
  2  1  2  0
  3  1  1  0
  4  2  1  0
  5  3  2  0
  6  4  2  0
  7  9  1  0
  8  1  1  0
  9  8  1  0
 10  5  1  0
 11  4  1  0
 12  8  1  0
 13  7  1  0
 14 13  1  0
 15 13  1  0
  6  5  1  0
 17 16  2  0
 18 16  2  0
 19 16  1  0
 20 16  1  0
 22 21  2  0
 23 21  1  0
 24 22  1  0
 25 23  2  0
 26 24  2  0
 27 29  1  0
 28 21  1  0
 29 28  1  0
 30 25  1  0
 31 24  1  0
 32 28  1  0
 33 27  1  0
 34 33  1  0
 35 33  1  0
 26 25  1  0
  2 36  1  0
  3 37  1  0
  6 38  1  0
  7 39  1  0
  8 40  1  1
  9 41  1  0
  9 42  1  0
 10 43  1  0
 11 44  1  0
 12 45  1  0
 13 46  1  0
 14 47  1  0
 14 48  1  0
 14 49  1  0
 15 50  1  0
 15 51  1  0
 15 52  1  0
 19 53  1  0
 20 54  1  0
 22 55  1  0
 23 56  1  0
 26 57  1  0
 27 58  1  0
 28 59  1  6
 29 60  1  0
 29 61  1  0
 30 62  1  0
 31 63  1  0
 32 64  1  0
 33 65  1  0
 34 66  1  0
 34 67  1  0
 34 68  1  0
 35 69  1  0
 35 70  1  0
 35 71  1  0
M  END
> <Uni-Dock RESULT> 
ENERGY=   -4.489  LOWER_BOUND=   12.440  UPPER_BOUND=   13.928
INTER + INTRA:          -4.489
INTER:                  -4.489
INTRA:                   0.000
UNBOUND:                 0.000

$$$$

     RDKit          3D

 71 70  0  0  0  0  0  0  0  0999 V2000
   47.7878   12.7882   19.4019 C   0  0  0  0  0  0  0  0  0  0  0  0
   47.2259   13.0493   18.1397 C   0  0  0  0  0  0  0  0  0  0  0  0
   49.0092   13.4060   19.7207 C   0  0  0  0  0  0  0  0  0  0  0  0
   47.8807   13.8797   17.2294 C   0  0  0  0  0  0  0  0  0  0  0  0
   49.6479   14.2333   18.7984 C   0  0  0  0  0  0  0  0  0  0  0  0
   49.0949   14.4732   17.5469 C   0  0  0  0  0  0  0  0  0  0  0  0
   47.1241   10.0027   21.9838 N   0  0  0  0  0  0  0  0  0  0  0  0
   47.0647   11.9269   20.4206 C   0  0  2  0  0  0  0  0  0  0  0  0
   47.9611   10.8748   21.1266 C   0  0  0  0  0  0  0  0  0  0  0  0
   50.8289   14.8071   19.1722 O   0  0  0  0  0  0  0  0  0  0  0  0
   47.3469   14.1394   16.0008 O   0  0  0  0  0  0  0  0  0  0  0  0
   45.9720   11.2228   19.8089 O   0  0  0  0  0  0  0  0  0  0  0  0
   47.9228    9.0432   22.7655 C   0  0  0  0  0  0  0  0  0  0  0  0
   48.5920    7.9847   21.8873 C   0  0  0  0  0  0  0  0  0  0  0  0
   46.9909    8.3586   23.7710 C   0  0  0  0  0  0  0  0  0  0  0  0
   47.5615   11.3971   20.3704 S   0  0  0  0  0  0  0  0  0  0  0  0
   46.8798   11.8740   21.5470 O   0  0  0  0  0  0  0  0  0  0  0  0
   47.0000   11.4446   19.0437 O   0  0  0  0  0  0  0  0  0  0  0  0
   48.9753   12.1499   20.2848 O   0  0  0  0  0  0  0  0  0  0  0  0
   48.0266    9.8934   20.6810 O   0  0  0  0  0  0  0  0  0  0  0  0
   48.1320    9.7296   21.0474 C   0  0  0  0  0  0  0  0  0  0  0  0
   47.4912    8.6971   21.7593 C   0  0  0  0  0  0  0  0  0  0  0  0
   48.8853   10.6613   21.7786 C   0  0  0  0  0  0  0  0  0  0  0  0
   47.5808    8.6285   23.1485 C   0  0  0  0  0  0  0  0  0  0  0  0
   48.9601   10.5770   23.1687 C   0  0  0  0  0  0  0  0  0  0  0  0
   48.3104    9.5662   23.8640 C   0  0  0  0  0  0  0  0  0  0  0  0
   47.2647   12.0829   19.0698 N   0  0  0  0  0  0  0  0  0  0  0  0
   48.0356    9.7571   19.5304 C   0  0  2  0  0  0  0  0  0  0  0  0
   48.3396   11.1012   18.8129 C   0  0  0  0  0  0  0  0  0  0  0  0
   49.6987   11.5234   23.8185 O   0  0  0  0  0  0  0  0  0  0  0  0
   46.9573    7.6384   23.8488 O   0  0  0  0  0  0  0  0  0  0  0  0
   46.7107    9.3551   19.1456 O   0  0  0  0  0  0  0  0  0  0  0  0
   47.4827   13.4137   18.4816 C   0  0  0  0  0  0  0  0  0  0  0  0
   48.6130   14.1822   19.1707 C   0  0  0  0  0  0  0  0  0  0  0  0
   47.6839   13.3786   16.9666 C   0  0  0  0  0  0  0  0  0  0  0  0
   46.2731   12.5969   17.8755 H   0  0  0  0  0  0  0  0  0  0  0  0
   49.4726   13.2669   20.6936 H   0  0  0  0  0  0  0  0  0  0  0  0
   49.5846   15.1105   16.8188 H   0  0  0  0  0  0  0  0  0  0  0  0
   46.6073   10.5964   22.6381 H   0  0  0  0  0  0  0  0  0  0  0  0
   46.6241   12.5954   21.1710 H   0  0  0  0  0  0  0  0  0  0  0  0
   48.7332   11.3673   21.7284 H   0  0  0  0  0  0  0  0  0  0  0  0
   48.4536   10.2670   20.3584 H   0  0  0  0  0  0  0  0  0  0  0  0
   51.0369   15.5078   18.5333 H   0  0  0  0  0  0  0  0  0  0  0  0
   46.4562   13.7476   15.9701 H   0  0  0  0  0  0  0  0  0  0  0  0
   45.8164   10.4570   20.3996 H   0  0  0  0  0  0  0  0  0  0  0  0
   48.6901    9.5833   23.3358 H   0  0  0  0  0  0  0  0  0  0  0  0
   49.3601    8.4241   21.2435 H   0  0  0  0  0  0  0  0  0  0  0  0
   47.8621    7.4719   21.2495 H   0  0  0  0  0  0  0  0  0  0  0  0
   49.0861    7.2270   22.5065 H   0  0  0  0  0  0  0  0  0  0  0  0
   46.2169    7.7684   23.2636 H   0  0  0  0  0  0  0  0  0  0  0  0
   47.5586    7.6841   24.4243 H   0  0  0  0  0  0  0  0  0  0  0  0
   46.4912    9.0931   24.4150 H   0  0  0  0  0  0  0  0  0  0  0  0
   49.0765   12.4775   19.3661 H   0  0  0  0  0  0  0  0  0  0  0  0
   48.3727    9.8755   21.5958 H   0  0  0  0  0  0  0  0  0  0  0  0
   46.9209    7.9514   21.2102 H   0  0  0  0  0  0  0  0  0  0  0  0
   49.4289   11.4651   21.2910 H   0  0  0  0  0  0  0  0  0  0  0  0
   48.3652    9.4887   24.9440 H   0  0  0  0  0  0  0  0  0  0  0  0
   47.1520   12.1888   20.0820 H   0  0  0  0  0  0  0  0  0  0  0  0
   48.7283    8.9995   19.1469 H   0  0  0  0  0  0  0  0  0  0  0  0
   49.3261   11.4760   19.0995 H   0  0  0  0  0  0  0  0  0  0  0  0
   48.3591   10.8919   17.7370 H   0  0  0  0  0  0  0  0  0  0  0  0
   49.6099   11.3743   24.7744 H   0  0  0  0  0  0  0  0  0  0  0  0
   46.4454    7.0997   23.2232 H   0  0  0  0  0  0  0  0  0  0  0  0
   46.2473   10.2002   18.9620 H   0  0  0  0  0  0  0  0  0  0  0  0
   46.5575   13.9755   18.6630 H   0  0  0  0  0  0  0  0  0  0  0  0
   48.4286   14.2658   20.2456 H   0  0  0  0  0  0  0  0  0  0  0  0
   48.6784   15.1994   18.7689 H   0  0  0  0  0  0  0  0  0  0  0  0
   49.5872   13.7038   19.0226 H   0  0  0  0  0  0  0  0  0  0  0  0
   48.6418   12.9258   16.6873 H   0  0  0  0  0  0  0  0  0  0  0  0
   46.8802   12.8168   16.4770 H   0  0  0  0  0  0  0  0  0  0  0  0
   47.6701   14.3951   16.5588 H   0  0  0  0  0  0  0  0  0  0  0  0
  2  1  2  0
  3  1  1  0
  4  2  1  0
  5  3  2  0
  6  4  2  0
  7  9  1  0
  8  1  1  0
  9  8  1  0
 10  5  1  0
 11  4  1  0
 12  8  1  0
 13  7  1  0
 14 13  1  0
 15 13  1  0
  6  5  1  0
 17 16  2  0
 18 16  2  0
 19 16  1  0
 20 16  1  0
 22 21  2  0
 23 21  1  0
 24 22  1  0
 25 23  2  0
 26 24  2  0
 27 29  1  0
 28 21  1  0
 29 28  1  0
 30 25  1  0
 31 24  1  0
 32 28  1  0
 33 27  1  0
 34 33  1  0
 35 33  1  0
 26 25  1  0
  2 36  1  0
  3 37  1  0
  6 38  1  0
  7 39  1  0
  8 40  1  1
  9 41  1  0
  9 42  1  0
 10 43  1  0
 11 44  1  0
 12 45  1  0
 13 46  1  0
 14 47  1  0
 14 48  1  0
 14 49  1  0
 15 50  1  0
 15 51  1  0
 15 52  1  0
 19 53  1  0
 20 54  1  0
 22 55  1  0
 23 56  1  0
 26 57  1  0
 27 58  1  0
 28 59  1  6
 29 60  1  0
 29 61  1  0
 30 62  1  0
 31 63  1  0
 32 64  1  0
 33 65  1  0
 34 66  1  0
 34 67  1  0
 34 68  1  0
 35 69  1  0
 35 70  1  0
 35 71  1  0
M  END
> <Uni-Dock RESULT> 
ENERGY=   -4.471  LOWER_BOUND=    9.664  UPPER_BOUND=   11.819
INTER + INTRA:          -4.471
INTER:                  -4.471
INTRA:                   0.000
UNBOUND:                 0.000

$$$$

     RDKit          3D

 71 70  0  0  0  0  0  0  0  0999 V2000
   47.5621    8.9944   19.7026 C   0  0  0  0  0  0  0  0  0  0  0  0
   47.4595   10.2899   19.1655 C   0  0  0  0  0  0  0  0  0  0  0  0
   47.6747    8.8659   21.0976 C   0  0  0  0  0  0  0  0  0  0  0  0
   47.4929   11.4084   19.9989 C   0  0  0  0  0  0  0  0  0  0  0  0
   47.7052    9.9953   21.9140 C   0  0  0  0  0  0  0  0  0  0  0  0
   47.6202   11.2725   21.3747 C   0  0  0  0  0  0  0  0  0  0  0  0
   48.4651    5.6093   18.0930 N   0  0  0  0  0  0  0  0  0  0  0  0
   47.4785    7.7670   18.8145 C   0  0  2  0  0  0  0  0  0  0  0  0
   48.5518    6.6851   19.1084 C   0  0  0  0  0  0  0  0  0  0  0  0
   47.8106    9.8014   23.2612 O   0  0  0  0  0  0  0  0  0  0  0  0
   47.3961   12.6707   19.4899 O   0  0  0  0  0  0  0  0  0  0  0  0
   47.5994    8.1305   17.4299 O   0  0  0  0  0  0  0  0  0  0  0  0
   49.3884    4.4952   18.3689 C   0  0  0  0  0  0  0  0  0  0  0  0
   50.8555    4.8951   18.2039 C   0  0  0  0  0  0  0  0  0  0  0  0
   49.0575    3.3542   17.4011 C   0  0  0  0  0  0  0  0  0  0  0  0
   48.1768    7.5974   18.9313 S   0  0  0  0  0  0  0  0  0  0  0  0
   47.0476    6.7087   18.8238 O   0  0  0  0  0  0  0  0  0  0  0  0
   48.2578    8.8749   18.2688 O   0  0  0  0  0  0  0  0  0  0  0  0
   48.4266    7.8852   20.4894 O   0  0  0  0  0  0  0  0  0  0  0  0
   49.4800    6.7389   18.5593 O   0  0  0  0  0  0  0  0  0  0  0  0
   49.5443    6.3336   18.6202 C   0  0  0  0  0  0  0  0  0  0  0  0
   49.7372    5.3252   17.6561 C   0  0  0  0  0  0  0  0  0  0  0  0
   49.0208    5.9576   19.8672 C   0  0  0  0  0  0  0  0  0  0  0  0
   49.3867    4.0039   17.9281 C   0  0  0  0  0  0  0  0  0  0  0  0
   48.6736    4.6305   20.1188 C   0  0  0  0  0  0  0  0  0  0  0  0
   48.8504    3.6460   19.1561 C   0  0  0  0  0  0  0  0  0  0  0  0
   47.9127    9.0709   18.8351 N   0  0  0  0  0  0  0  0  0  0  0  0
   49.9639    7.7590   18.2989 C   0  0  2  0  0  0  0  0  0  0  0  0
   49.3468    8.9019   19.1515 C   0  0  0  0  0  0  0  0  0  0  0  0
   48.1572    4.3364   21.3476 O   0  0  0  0  0  0  0  0  0  0  0  0
   49.5607    3.0210   16.9992 O   0  0  0  0  0  0  0  0  0  0  0  0
   49.6506    8.0325   16.9233 O   0  0  0  0  0  0  0  0  0  0  0  0
   47.2153   10.0926   19.6314 C   0  0  0  0  0  0  0  0  0  0  0  0
   47.0413    9.6787   21.0948 C   0  0  0  0  0  0  0  0  0  0  0  0
   47.8489   11.4794   19.5224 C   0  0  0  0  0  0  0  0  0  0  0  0
   47.3542   10.4153   18.0905 H   0  0  0  0  0  0  0  0  0  0  0  0
   47.7235    7.8887   21.5701 H   0  0  0  0  0  0  0  0  0  0  0  0
   47.6483   12.1590   21.9987 H   0  0  0  0  0  0  0  0  0  0  0  0
   47.5100    5.2412   18.0962 H   0  0  0  0  0  0  0  0  0  0  0  0
   46.4780    7.3332   18.9370 H   0  0  0  0  0  0  0  0  0  0  0  0
   48.4150    6.2687   20.1128 H   0  0  0  0  0  0  0  0  0  0  0  0
   49.5411    7.1551   19.0584 H   0  0  0  0  0  0  0  0  0  0  0  0
   47.6031   10.6412   23.7019 H   0  0  0  0  0  0  0  0  0  0  0  0
   47.2035   12.5982   18.5384 H   0  0  0  0  0  0  0  0  0  0  0  0
   47.9015    7.3094   16.9894 H   0  0  0  0  0  0  0  0  0  0  0  0
   49.2229    4.1257   19.3895 H   0  0  0  0  0  0  0  0  0  0  0  0
   51.1629    5.6181   18.9656 H   0  0  0  0  0  0  0  0  0  0  0  0
   51.0432    5.3357   17.2173 H   0  0  0  0  0  0  0  0  0  0  0  0
   51.5072    4.0200   18.3091 H   0  0  0  0  0  0  0  0  0  0  0  0
   49.2368    3.6474   16.3586 H   0  0  0  0  0  0  0  0  0  0  0  0
   49.6762    2.4743   17.6177 H   0  0  0  0  0  0  0  0  0  0  0  0
   48.0082    3.0463   17.4923 H   0  0  0  0  0  0  0  0  0  0  0  0
   48.5340    8.8542   20.5939 H   0  0  0  0  0  0  0  0  0  0  0  0
   49.3898    5.8653   18.9903 H   0  0  0  0  0  0  0  0  0  0  0  0
   50.1627    5.5909   16.6912 H   0  0  0  0  0  0  0  0  0  0  0  0
   48.8740    6.6786   20.6660 H   0  0  0  0  0  0  0  0  0  0  0  0
   48.5879    2.6107   19.3423 H   0  0  0  0  0  0  0  0  0  0  0  0
   47.4388    8.1733   18.9701 H   0  0  0  0  0  0  0  0  0  0  0  0
   51.0541    7.8073   18.3987 H   0  0  0  0  0  0  0  0  0  0  0  0
   49.5226    8.7257   20.2163 H   0  0  0  0  0  0  0  0  0  0  0  0
   49.8676    9.8253   18.8731 H   0  0  0  0  0  0  0  0  0  0  0  0
   47.9089    3.3972   21.3558 H   0  0  0  0  0  0  0  0  0  0  0  0
   49.8867    3.4306   16.1808 H   0  0  0  0  0  0  0  0  0  0  0  0
   48.8076    8.5328   16.9641 H   0  0  0  0  0  0  0  0  0  0  0  0
   46.2092   10.1719   19.2000 H   0  0  0  0  0  0  0  0  0  0  0  0
   46.5236    8.7181   21.1692 H   0  0  0  0  0  0  0  0  0  0  0  0
   46.4356   10.4200   21.6279 H   0  0  0  0  0  0  0  0  0  0  0  0
   48.0006    9.5966   21.6170 H   0  0  0  0  0  0  0  0  0  0  0  0
   48.8225   11.5295   20.0229 H   0  0  0  0  0  0  0  0  0  0  0  0
   47.9842   11.7677   18.4737 H   0  0  0  0  0  0  0  0  0  0  0  0
   47.2013   12.2298   19.9888 H   0  0  0  0  0  0  0  0  0  0  0  0
  2  1  2  0
  3  1  1  0
  4  2  1  0
  5  3  2  0
  6  4  2  0
  7  9  1  0
  8  1  1  0
  9  8  1  0
 10  5  1  0
 11  4  1  0
 12  8  1  0
 13  7  1  0
 14 13  1  0
 15 13  1  0
  6  5  1  0
 17 16  2  0
 18 16  2  0
 19 16  1  0
 20 16  1  0
 22 21  2  0
 23 21  1  0
 24 22  1  0
 25 23  2  0
 26 24  2  0
 27 29  1  0
 28 21  1  0
 29 28  1  0
 30 25  1  0
 31 24  1  0
 32 28  1  0
 33 27  1  0
 34 33  1  0
 35 33  1  0
 26 25  1  0
  2 36  1  0
  3 37  1  0
  6 38  1  0
  7 39  1  0
  8 40  1  1
  9 41  1  0
  9 42  1  0
 10 43  1  0
 11 44  1  0
 12 45  1  0
 13 46  1  0
 14 47  1  0
 14 48  1  0
 14 49  1  0
 15 50  1  0
 15 51  1  0
 15 52  1  0
 19 53  1  0
 20 54  1  0
 22 55  1  0
 23 56  1  0
 26 57  1  0
 27 58  1  0
 28 59  1  6
 29 60  1  0
 29 61  1  0
 30 62  1  0
 31 63  1  0
 32 64  1  0
 33 65  1  0
 34 66  1  0
 34 67  1  0
 34 68  1  0
 35 69  1  0
 35 70  1  0
 35 71  1  0
M  END
> <Uni-Dock RESULT> 
ENERGY=   -4.402  LOWER_BOUND=   10.096  UPPER_BOUND=   11.631
INTER + INTRA:          -4.402
INTER:                  -4.402
INTRA:                   0.000
UNBOUND:                 0.000

$$$$
