
     RDKit          3D

 71 70  0  0  0  0  0  0  0  0999 V2000
   47.2951    7.8067   12.8675 C   0  0  0  0  0  0  0  0  0  0  0  0
   47.3759    8.6373   13.9996 C   0  0  0  0  0  0  0  0  0  0  0  0
   48.3354    7.8517   11.9274 C   0  0  0  0  0  0  0  0  0  0  0  0
   48.4817    9.4693   14.1840 C   0  0  0  0  0  0  0  0  0  0  0  0
   49.4332    8.6864   12.1356 C   0  0  0  0  0  0  0  0  0  0  0  0
   49.5155    9.4976   13.2592 C   0  0  0  0  0  0  0  0  0  0  0  0
   45.1605    4.6471   12.0364 N   0  0  0  0  0  0  0  0  0  0  0  0
   46.0566    6.9493   12.6716 C   0  0  2  0  0  0  0  0  0  0  0  0
   46.3133    5.5695   11.9977 C   0  0  0  0  0  0  0  0  0  0  0  0
   50.4230    8.6796   11.1958 O   0  0  0  0  0  0  0  0  0  0  0  0
   48.5811   10.2892   15.2704 O   0  0  0  0  0  0  0  0  0  0  0  0
   45.0944    7.6990   11.9271 O   0  0  0  0  0  0  0  0  0  0  0  0
   44.2567    4.8119   10.8925 C   0  0  0  0  0  0  0  0  0  0  0  0
   44.6430    3.8098    9.8033 C   0  0  0  0  0  0  0  0  0  0  0  0
   42.8123    4.5721   11.3404 C   0  0  0  0  0  0  0  0  0  0  0  0
   45.9678    6.6654   12.2656 S   0  0  0  0  0  0  0  0  0  0  0  0
   46.1889    5.6218   13.2354 O   0  0  0  0  0  0  0  0  0  0  0  0
   44.6902    7.2960   12.0434 O   0  0  0  0  0  0  0  0  0  0  0  0
   47.0482    7.8088   12.5780 O   0  0  0  0  0  0  0  0  0  0  0  0
   46.4684    6.1466   10.8324 O   0  0  0  0  0  0  0  0  0  0  0  0
   44.9471    5.8760   11.2916 C   0  0  0  0  0  0  0  0  0  0  0  0
   45.3834    5.6047    9.9837 C   0  0  0  0  0  0  0  0  0  0  0  0
   44.2025    4.8938   11.9669 C   0  0  0  0  0  0  0  0  0  0  0  0
   45.0785    4.3900    9.3758 C   0  0  0  0  0  0  0  0  0  0  0  0
   43.9030    3.6854   11.3367 C   0  0  0  0  0  0  0  0  0  0  0  0
   44.3367    3.4229   10.0427 C   0  0  0  0  0  0  0  0  0  0  0  0
   47.0393    8.4120   13.2564 N   0  0  0  0  0  0  0  0  0  0  0  0
   45.2958    7.2021   11.9357 C   0  0  2  0  0  0  0  0  0  0  0  0
   46.7925    7.2818   12.3305 C   0  0  0  0  0  0  0  0  0  0  0  0
   43.1754    2.7193   11.9722 O   0  0  0  0  0  0  0  0  0  0  0  0
   45.5366    4.1856    8.1055 O   0  0  0  0  0  0  0  0  0  0  0  0
   44.4856    7.4424   13.0927 O   0  0  0  0  0  0  0  0  0  0  0  0
   48.4599    8.7938   13.2796 C   0  0  0  0  0  0  0  0  0  0  0  0
   48.7887    9.4295   14.6319 C   0  0  0  0  0  0  0  0  0  0  0  0
   48.7531    9.7855   12.1538 C   0  0  0  0  0  0  0  0  0  0  0  0
   46.5625    8.6407   14.7222 H   0  0  0  0  0  0  0  0  0  0  0  0
   48.3108    7.2487   11.0230 H   0  0  0  0  0  0  0  0  0  0  0  0
   50.3601   10.1585   13.4234 H   0  0  0  0  0  0  0  0  0  0  0  0
   44.6551    4.7732   12.9164 H   0  0  0  0  0  0  0  0  0  0  0  0
   45.6132    6.7569   13.6577 H   0  0  0  0  0  0  0  0  0  0  0  0
   47.1356    5.0724   12.5299 H   0  0  0  0  0  0  0  0  0  0  0  0
   46.6464    5.6964   10.9613 H   0  0  0  0  0  0  0  0  0  0  0  0
   51.1619    9.2239   11.5275 H   0  0  0  0  0  0  0  0  0  0  0  0
   47.8444   10.0978   15.8749 H   0  0  0  0  0  0  0  0  0  0  0  0
   45.5442    8.4713   11.5407 H   0  0  0  0  0  0  0  0  0  0  0  0
   44.3077    5.8248   10.4747 H   0  0  0  0  0  0  0  0  0  0  0  0
   44.0079    3.9402    8.9225 H   0  0  0  0  0  0  0  0  0  0  0  0
   44.5291    2.7736   10.1484 H   0  0  0  0  0  0  0  0  0  0  0  0
   45.6828    3.9478    9.4823 H   0  0  0  0  0  0  0  0  0  0  0  0
   42.5089    5.3238   12.0806 H   0  0  0  0  0  0  0  0  0  0  0  0
   42.1240    4.6460   10.4913 H   0  0  0  0  0  0  0  0  0  0  0  0
   42.6867    3.5795   11.7893 H   0  0  0  0  0  0  0  0  0  0  0  0
   47.7935    7.3808   13.0477 H   0  0  0  0  0  0  0  0  0  0  0  0
   46.0246    6.7033   10.1602 H   0  0  0  0  0  0  0  0  0  0  0  0
   45.9591    6.3383    9.4248 H   0  0  0  0  0  0  0  0  0  0  0  0
   43.8548    5.0867   12.9801 H   0  0  0  0  0  0  0  0  0  0  0  0
   44.0829    2.4748    9.5793 H   0  0  0  0  0  0  0  0  0  0  0  0
   46.7752    8.0877   14.1891 H   0  0  0  0  0  0  0  0  0  0  0  0
   45.0610    8.0059   11.2268 H   0  0  0  0  0  0  0  0  0  0  0  0
   47.0995    6.3569   12.8364 H   0  0  0  0  0  0  0  0  0  0  0  0
   47.3938    7.3656   11.4171 H   0  0  0  0  0  0  0  0  0  0  0  0
   42.9132    3.0579   12.8454 H   0  0  0  0  0  0  0  0  0  0  0  0
   45.2546    3.3021    7.8199 H   0  0  0  0  0  0  0  0  0  0  0  0
   44.7970    8.3127   13.4099 H   0  0  0  0  0  0  0  0  0  0  0  0
   49.0995    7.9115   13.1661 H   0  0  0  0  0  0  0  0  0  0  0  0
   49.8326    9.7609   14.6580 H   0  0  0  0  0  0  0  0  0  0  0  0
   48.1555   10.2985   14.8394 H   0  0  0  0  0  0  0  0  0  0  0  0
   48.6508    8.7081   15.4438 H   0  0  0  0  0  0  0  0  0  0  0  0
   48.5559    9.3476   11.1694 H   0  0  0  0  0  0  0  0  0  0  0  0
   49.8075   10.0878   12.1703 H   0  0  0  0  0  0  0  0  0  0  0  0
   48.1431   10.6921   12.2492 H   0  0  0  0  0  0  0  0  0  0  0  0
  2  1  2  0
  3  1  1  0
  4  2  1  0
  5  3  2  0
  6  4  2  0
  7  9  1  0
  8  1  1  0
  9  8  1  0
 10  5  1  0
 11  4  1  0
 12  8  1  0
 13  7  1  0
 14 13  1  0
 15 13  1  0
  6  5  1  0
 17 16  2  0
 18 16  2  0
 19 16  1  0
 20 16  1  0
 22 21  2  0
 23 21  1  0
 24 22  1  0
 25 23  2  0
 26 24  2  0
 27 29  1  0
 28 21  1  0
 29 28  1  0
 30 25  1  0
 31 24  1  0
 32 28  1  0
 33 27  1  0
 34 33  1  0
 35 33  1  0
 26 25  1  0
  2 36  1  0
  3 37  1  0
  6 38  1  0
  7 39  1  0
  8 40  1  6
  9 41  1  0
  9 42  1  0
 10 43  1  0
 11 44  1  0
 12 45  1  0
 13 46  1  0
 14 47  1  0
 14 48  1  0
 14 49  1  0
 15 50  1  0
 15 51  1  0
 15 52  1  0
 19 53  1  0
 20 54  1  0
 22 55  1  0
 23 56  1  0
 26 57  1  0
 27 58  1  0
 28 59  1  1
 29 60  1  0
 29 61  1  0
 30 62  1  0
 31 63  1  0
 32 64  1  0
 33 65  1  0
 34 66  1  0
 34 67  1  0
 34 68  1  0
 35 69  1  0
 35 70  1  0
 35 71  1  0
M  END
> <Uni-Dock RESULT> 
ENERGY=   -6.278  LOWER_BOUND=    0.000  UPPER_BOUND=    0.000
INTER + INTRA:          -6.278
INTER:                  -6.278
INTRA:                   0.000
UNBOUND:                 0.000

$$$$

     RDKit          3D

 71 70  0  0  0  0  0  0  0  0999 V2000
   45.4007    4.9574   11.9853 C   0  0  0  0  0  0  0  0  0  0  0  0
   44.6128    3.8997   12.4738 C   0  0  0  0  0  0  0  0  0  0  0  0
   45.4552    5.1681   10.5994 C   0  0  0  0  0  0  0  0  0  0  0  0
   43.8886    3.0963   11.5910 C   0  0  0  0  0  0  0  0  0  0  0  0
   44.7186    4.3564    9.7370 C   0  0  0  0  0  0  0  0  0  0  0  0
   43.9333    3.3196   10.2225 C   0  0  0  0  0  0  0  0  0  0  0  0
   46.9332    8.1272   13.6688 N   0  0  0  0  0  0  0  0  0  0  0  0
   46.2145    5.7824   12.9674 C   0  0  2  0  0  0  0  0  0  0  0  0
   46.3610    7.2875   12.5970 C   0  0  0  0  0  0  0  0  0  0  0  0
   44.7976    4.6153    8.3993 O   0  0  0  0  0  0  0  0  0  0  0  0
   43.1219    2.0600   12.0390 O   0  0  0  0  0  0  0  0  0  0  0  0
   47.4999    5.1765   13.1187 O   0  0  0  0  0  0  0  0  0  0  0  0
   48.3989    8.1824   13.6319 C   0  0  0  0  0  0  0  0  0  0  0  0
   48.8317    9.4178   12.8405 C   0  0  0  0  0  0  0  0  0  0  0  0
   48.9462    8.2535   15.0601 C   0  0  0  0  0  0  0  0  0  0  0  0
   46.5372    6.1455   12.8358 S   0  0  0  0  0  0  0  0  0  0  0  0
   45.5114    6.9553   13.4443 O   0  0  0  0  0  0  0  0  0  0  0  0
   47.6112    5.5254   13.5715 O   0  0  0  0  0  0  0  0  0  0  0  0
   45.7774    5.0092   11.9968 O   0  0  0  0  0  0  0  0  0  0  0  0
   47.2273    6.9918   11.6605 O   0  0  0  0  0  0  0  0  0  0  0  0
   47.8108    7.0871   13.1602 C   0  0  0  0  0  0  0  0  0  0  0  0
   48.4829    7.6616   12.0681 C   0  0  0  0  0  0  0  0  0  0  0  0
   47.6324    7.8609   14.3197 C   0  0  0  0  0  0  0  0  0  0  0  0
   48.9614    8.9669   12.1414 C   0  0  0  0  0  0  0  0  0  0  0  0
   48.1253    9.1652   14.3740 C   0  0  0  0  0  0  0  0  0  0  0  0
   48.7898    9.7279   13.2909 C   0  0  0  0  0  0  0  0  0  0  0  0
   45.3571    4.2702   12.3153 N   0  0  0  0  0  0  0  0  0  0  0  0
   47.2930    5.6672   13.0560 C   0  0  2  0  0  0  0  0  0  0  0  0
   46.0515    5.5665   12.1335 C   0  0  0  0  0  0  0  0  0  0  0  0
   47.9685    9.9329   15.4932 O   0  0  0  0  0  0  0  0  0  0  0  0
   49.6010    9.4689   11.0439 O   0  0  0  0  0  0  0  0  0  0  0  0
   46.9689    5.1402   14.3483 O   0  0  0  0  0  0  0  0  0  0  0  0
   44.4891    3.9547   11.1700 C   0  0  0  0  0  0  0  0  0  0  0  0
   43.3483    3.0485   11.6373 C   0  0  0  0  0  0  0  0  0  0  0  0
   45.2975    3.2525   10.0791 C   0  0  0  0  0  0  0  0  0  0  0  0
   44.5852    3.7002   13.5430 H   0  0  0  0  0  0  0  0  0  0  0  0
   46.0679    5.9559   10.1679 H   0  0  0  0  0  0  0  0  0  0  0  0
   43.3662    2.6760    9.5583 H   0  0  0  0  0  0  0  0  0  0  0  0
   46.6079    7.7863   14.5763 H   0  0  0  0  0  0  0  0  0  0  0  0
   45.7232    5.7308   13.9482 H   0  0  0  0  0  0  0  0  0  0  0  0
   45.3621    7.6886   12.3786 H   0  0  0  0  0  0  0  0  0  0  0  0
   46.9511    7.4092   11.6815 H   0  0  0  0  0  0  0  0  0  0  0  0
   44.1542    4.0434    7.9397 H   0  0  0  0  0  0  0  0  0  0  0  0
   43.1066    2.0798   13.0106 H   0  0  0  0  0  0  0  0  0  0  0  0
   47.6172    4.5299   12.4002 H   0  0  0  0  0  0  0  0  0  0  0  0
   48.8291    7.2913   13.1588 H   0  0  0  0  0  0  0  0  0  0  0  0
   49.9219    9.4596   12.7648 H   0  0  0  0  0  0  0  0  0  0  0  0
   48.4932   10.3451   13.3215 H   0  0  0  0  0  0  0  0  0  0  0  0
   48.4316    9.3999   11.8193 H   0  0  0  0  0  0  0  0  0  0  0  0
   48.6884    7.3433   15.6171 H   0  0  0  0  0  0  0  0  0  0  0  0
   50.0383    8.3409   15.0547 H   0  0  0  0  0  0  0  0  0  0  0  0
   48.5430    9.1147   15.6062 H   0  0  0  0  0  0  0  0  0  0  0  0
   44.8849    5.3536   11.7872 H   0  0  0  0  0  0  0  0  0  0  0  0
   48.0995    6.5801   11.4912 H   0  0  0  0  0  0  0  0  0  0  0  0
   48.6449    7.0966   11.1535 H   0  0  0  0  0  0  0  0  0  0  0  0
   47.1153    7.4322   15.1763 H   0  0  0  0  0  0  0  0  0  0  0  0
   49.1651   10.7435   13.3671 H   0  0  0  0  0  0  0  0  0  0  0  0
   44.7729    4.3667   13.1484 H   0  0  0  0  0  0  0  0  0  0  0  0
   48.0954    5.0321   12.6603 H   0  0  0  0  0  0  0  0  0  0  0  0
   45.3391    6.3678   12.3701 H   0  0  0  0  0  0  0  0  0  0  0  0
   46.3714    5.7145   11.0949 H   0  0  0  0  0  0  0  0  0  0  0  0
   47.5240    9.3972   16.1725 H   0  0  0  0  0  0  0  0  0  0  0  0
   49.8690   10.3807   11.2397 H   0  0  0  0  0  0  0  0  0  0  0  0
   46.6563    4.2355   14.1516 H   0  0  0  0  0  0  0  0  0  0  0  0
   44.0394    4.8671   10.7626 H   0  0  0  0  0  0  0  0  0  0  0  0
   42.7108    2.7652   10.7924 H   0  0  0  0  0  0  0  0  0  0  0  0
   43.7207    2.1285   12.0998 H   0  0  0  0  0  0  0  0  0  0  0  0
   42.7174    3.5642   12.3684 H   0  0  0  0  0  0  0  0  0  0  0  0
   46.1047    3.8898    9.7023 H   0  0  0  0  0  0  0  0  0  0  0  0
   44.6565    3.0001    9.2254 H   0  0  0  0  0  0  0  0  0  0  0  0
   45.7454    2.3219   10.4484 H   0  0  0  0  0  0  0  0  0  0  0  0
  2  1  2  0
  3  1  1  0
  4  2  1  0
  5  3  2  0
  6  4  2  0
  7  9  1  0
  8  1  1  0
  9  8  1  0
 10  5  1  0
 11  4  1  0
 12  8  1  0
 13  7  1  0
 14 13  1  0
 15 13  1  0
  6  5  1  0
 17 16  2  0
 18 16  2  0
 19 16  1  0
 20 16  1  0
 22 21  2  0
 23 21  1  0
 24 22  1  0
 25 23  2  0
 26 24  2  0
 27 29  1  0
 28 21  1  0
 29 28  1  0
 30 25  1  0
 31 24  1  0
 32 28  1  0
 33 27  1  0
 34 33  1  0
 35 33  1  0
 26 25  1  0
  2 36  1  0
  3 37  1  0
  6 38  1  0
  7 39  1  0
  8 40  1  6
  9 41  1  0
  9 42  1  0
 10 43  1  0
 11 44  1  0
 12 45  1  0
 13 46  1  0
 14 47  1  0
 14 48  1  0
 14 49  1  0
 15 50  1  0
 15 51  1  0
 15 52  1  0
 19 53  1  0
 20 54  1  0
 22 55  1  0
 23 56  1  0
 26 57  1  0
 27 58  1  0
 28 59  1  1
 29 60  1  0
 29 61  1  0
 30 62  1  0
 31 63  1  0
 32 64  1  0
 33 65  1  0
 34 66  1  0
 34 67  1  0
 34 68  1  0
 35 69  1  0
 35 70  1  0
 35 71  1  0
M  END
> <Uni-Dock RESULT> 
ENERGY=   -6.181  LOWER_BOUND=    0.954  UPPER_BOUND=    5.952
INTER + INTRA:          -6.181
INTER:                  -6.181
INTRA:                   0.000
UNBOUND:                 0.000

$$$$

     RDKit          3D

 71 70  0  0  0  0  0  0  0  0999 V2000
   45.8240    6.1626   12.3646 C   0  0  0  0  0  0  0  0  0  0  0  0
   44.6951    5.7691   13.1055 C   0  0  0  0  0  0  0  0  0  0  0  0
   45.8556    5.8807   10.9907 C   0  0  0  0  0  0  0  0  0  0  0  0
   43.6262    5.1310   12.4733 C   0  0  0  0  0  0  0  0  0  0  0  0
   44.7736    5.2476   10.3795 C   0  0  0  0  0  0  0  0  0  0  0  0
   43.6560    4.8696   11.1112 C   0  0  0  0  0  0  0  0  0  0  0  0
   48.7115    8.6931   13.0632 N   0  0  0  0  0  0  0  0  0  0  0  0
   46.9904    6.8108   13.0903 C   0  0  2  0  0  0  0  0  0  0  0  0
   47.7483    7.8987   12.2744 C   0  0  0  0  0  0  0  0  0  0  0  0
   44.8520    5.0107    9.0376 O   0  0  0  0  0  0  0  0  0  0  0  0
   42.5225    4.7336   13.1706 O   0  0  0  0  0  0  0  0  0  0  0  0
   47.8908    5.7859   13.5159 O   0  0  0  0  0  0  0  0  0  0  0  0
   50.0469    8.0876   13.1144 C   0  0  0  0  0  0  0  0  0  0  0  0
   50.9109    8.6907   12.0057 C   0  0  0  0  0  0  0  0  0  0  0  0
   50.6810    8.3571   14.4818 C   0  0  0  0  0  0  0  0  0  0  0  0
   47.4275    6.9344   12.8738 S   0  0  0  0  0  0  0  0  0  0  0  0
   46.9084    8.2565   13.1210 O   0  0  0  0  0  0  0  0  0  0  0  0
   48.1783    6.1737   13.8418 O   0  0  0  0  0  0  0  0  0  0  0  0
   46.1852    6.0452   12.3858 O   0  0  0  0  0  0  0  0  0  0  0  0
   48.3226    6.9766   11.5431 O   0  0  0  0  0  0  0  0  0  0  0  0
   49.0052    7.2732   12.9729 C   0  0  0  0  0  0  0  0  0  0  0  0
   49.7723    7.1204   11.8056 C   0  0  0  0  0  0  0  0  0  0  0  0
   49.2736    8.3677   13.8126 C   0  0  0  0  0  0  0  0  0  0  0  0
   50.7758    8.0343   11.4960 C   0  0  0  0  0  0  0  0  0  0  0  0
   50.2881    9.2686   13.4864 C   0  0  0  0  0  0  0  0  0  0  0  0
   51.0440    9.1119   12.3307 C   0  0  0  0  0  0  0  0  0  0  0  0
   45.5114    5.7061   12.8910 N   0  0  0  0  0  0  0  0  0  0  0  0
   47.9142    6.2702   13.2868 C   0  0  2  0  0  0  0  0  0  0  0  0
   46.6845    6.4380   12.3582 C   0  0  0  0  0  0  0  0  0  0  0  0
   50.5701   10.3358   14.2914 O   0  0  0  0  0  0  0  0  0  0  0  0
   51.4817    7.8329   10.3441 O   0  0  0  0  0  0  0  0  0  0  0  0
   47.4956    6.3739   14.6531 O   0  0  0  0  0  0  0  0  0  0  0  0
   44.5056    5.4597   11.8460 C   0  0  0  0  0  0  0  0  0  0  0  0
   43.1245    5.3415   12.4940 C   0  0  0  0  0  0  0  0  0  0  0  0
   44.8387    4.1718   11.0930 C   0  0  0  0  0  0  0  0  0  0  0  0
   44.6675    5.9490   14.1782 H   0  0  0  0  0  0  0  0  0  0  0  0
   46.7143    6.1411   10.3766 H   0  0  0  0  0  0  0  0  0  0  0  0
   42.8148    4.3663   10.6462 H   0  0  0  0  0  0  0  0  0  0  0  0
   48.3427    8.8334   14.0066 H   0  0  0  0  0  0  0  0  0  0  0  0
   46.6045    7.2903   13.9998 H   0  0  0  0  0  0  0  0  0  0  0  0
   47.0102    8.6047   11.8703 H   0  0  0  0  0  0  0  0  0  0  0  0
   48.2585    7.4556   11.4114 H   0  0  0  0  0  0  0  0  0  0  0  0
   43.9898    4.6654    8.7382 H   0  0  0  0  0  0  0  0  0  0  0  0
   42.5938    5.0624   14.0825 H   0  0  0  0  0  0  0  0  0  0  0  0
   47.6578    4.9640   13.0488 H   0  0  0  0  0  0  0  0  0  0  0  0
   50.0072    6.9998   12.9790 H   0  0  0  0  0  0  0  0  0  0  0  0
   51.9008    8.2256   11.9978 H   0  0  0  0  0  0  0  0  0  0  0  0
   51.0493    9.7713   12.1435 H   0  0  0  0  0  0  0  0  0  0  0  0
   50.4641    8.5296   11.0169 H   0  0  0  0  0  0  0  0  0  0  0  0
   50.0971    7.8778   15.2783 H   0  0  0  0  0  0  0  0  0  0  0  0
   51.6978    7.9518   14.5262 H   0  0  0  0  0  0  0  0  0  0  0  0
   50.7376    9.4308   14.6976 H   0  0  0  0  0  0  0  0  0  0  0  0
   45.5185    6.6596   12.0155 H   0  0  0  0  0  0  0  0  0  0  0  0
   48.9120    6.1952   11.5747 H   0  0  0  0  0  0  0  0  0  0  0  0
   49.5995    6.2860   11.1304 H   0  0  0  0  0  0  0  0  0  0  0  0
   48.6906    8.5017   14.7220 H   0  0  0  0  0  0  0  0  0  0  0  0
   51.8289    9.8277   12.1081 H   0  0  0  0  0  0  0  0  0  0  0  0
   45.0951    6.3047   13.6074 H   0  0  0  0  0  0  0  0  0  0  0  0
   48.3259    5.2599   13.1699 H   0  0  0  0  0  0  0  0  0  0  0  0
   46.4134    7.4990   12.2783 H   0  0  0  0  0  0  0  0  0  0  0  0
   46.9541    6.0965   11.3514 H   0  0  0  0  0  0  0  0  0  0  0  0
   49.9915   10.2922   15.0720 H   0  0  0  0  0  0  0  0  0  0  0  0
   52.1346    8.5457   10.2600 H   0  0  0  0  0  0  0  0  0  0  0  0
   46.8057    5.6862   14.7310 H   0  0  0  0  0  0  0  0  0  0  0  0
   44.4678    6.2970   11.1402 H   0  0  0  0  0  0  0  0  0  0  0  0
   42.3631    5.1158   11.7392 H   0  0  0  0  0  0  0  0  0  0  0  0
   43.0941    4.5488   13.2488 H   0  0  0  0  0  0  0  0  0  0  0  0
   42.8411    6.2816   12.9781 H   0  0  0  0  0  0  0  0  0  0  0  0
   45.8104    4.2375   10.5921 H   0  0  0  0  0  0  0  0  0  0  0  0
   44.0868    3.9708   10.3199 H   0  0  0  0  0  0  0  0  0  0  0  0
   44.8639    3.3078   11.7683 H   0  0  0  0  0  0  0  0  0  0  0  0
  2  1  2  0
  3  1  1  0
  4  2  1  0
  5  3  2  0
  6  4  2  0
  7  9  1  0
  8  1  1  0
  9  8  1  0
 10  5  1  0
 11  4  1  0
 12  8  1  0
 13  7  1  0
 14 13  1  0
 15 13  1  0
  6  5  1  0
 17 16  2  0
 18 16  2  0
 19 16  1  0
 20 16  1  0
 22 21  2  0
 23 21  1  0
 24 22  1  0
 25 23  2  0
 26 24  2  0
 27 29  1  0
 28 21  1  0
 29 28  1  0
 30 25  1  0
 31 24  1  0
 32 28  1  0
 33 27  1  0
 34 33  1  0
 35 33  1  0
 26 25  1  0
  2 36  1  0
  3 37  1  0
  6 38  1  0
  7 39  1  0
  8 40  1  6
  9 41  1  0
  9 42  1  0
 10 43  1  0
 11 44  1  0
 12 45  1  0
 13 46  1  0
 14 47  1  0
 14 48  1  0
 14 49  1  0
 15 50  1  0
 15 51  1  0
 15 52  1  0
 19 53  1  0
 20 54  1  0
 22 55  1  0
 23 56  1  0
 26 57  1  0
 27 58  1  0
 28 59  1  1
 29 60  1  0
 29 61  1  0
 30 62  1  0
 31 63  1  0
 32 64  1  0
 33 65  1  0
 34 66  1  0
 34 67  1  0
 34 68  1  0
 35 69  1  0
 35 70  1  0
 35 71  1  0
M  END
> <Uni-Dock RESULT> 
ENERGY=   -5.794  LOWER_BOUND=    1.443  UPPER_BOUND=    5.899
INTER + INTRA:          -5.794
INTER:                  -5.794
INTRA:                   0.000
UNBOUND:                 0.000

$$$$

     RDKit          3D

 71 70  0  0  0  0  0  0  0  0999 V2000
   47.8023    6.9681   13.4558 C   0  0  0  0  0  0  0  0  0  0  0  0
   49.1198    6.7974   13.9176 C   0  0  0  0  0  0  0  0  0  0  0  0
   47.2884    8.2700   13.3614 C   0  0  0  0  0  0  0  0  0  0  0  0
   49.8970    7.9078   14.2525 C   0  0  0  0  0  0  0  0  0  0  0  0
   48.0854    9.3646   13.6959 C   0  0  0  0  0  0  0  0  0  0  0  0
   49.3891    9.1940   14.1415 C   0  0  0  0  0  0  0  0  0  0  0  0
   45.3469    4.6428   11.5079 N   0  0  0  0  0  0  0  0  0  0  0  0
   46.9667    5.7380   13.1460 C   0  0  2  0  0  0  0  0  0  0  0  0
   45.9701    5.9027   11.9613 C   0  0  0  0  0  0  0  0  0  0  0  0
   47.5391   10.6092   13.5716 O   0  0  0  0  0  0  0  0  0  0  0  0
   51.1756    7.7689   14.7089 O   0  0  0  0  0  0  0  0  0  0  0  0
   46.2738    5.3451   14.3324 O   0  0  0  0  0  0  0  0  0  0  0  0
   44.1151    4.3189   12.2361 C   0  0  0  0  0  0  0  0  0  0  0  0
   42.9159    4.8489   11.4483 C   0  0  0  0  0  0  0  0  0  0  0  0
   44.0036    2.8015   12.4074 C   0  0  0  0  0  0  0  0  0  0  0  0
   46.4813    5.7491   13.0136 S   0  0  0  0  0  0  0  0  0  0  0  0
   47.0545    5.3250   11.7606 O   0  0  0  0  0  0  0  0  0  0  0  0
   46.1197    4.8449   14.0770 O   0  0  0  0  0  0  0  0  0  0  0  0
   47.4717    6.8606   13.6102 O   0  0  0  0  0  0  0  0  0  0  0  0
   45.1746    6.6281   12.7070 O   0  0  0  0  0  0  0  0  0  0  0  0
   45.0398    5.0304   12.8739 C   0  0  0  0  0  0  0  0  0  0  0  0
   43.9105    5.8618   12.7852 C   0  0  0  0  0  0  0  0  0  0  0  0
   45.0849    3.8739   12.0767 C   0  0  0  0  0  0  0  0  0  0  0  0
   42.8625    5.5393   11.9274 C   0  0  0  0  0  0  0  0  0  0  0  0
   44.0207    3.5663   11.2281 C   0  0  0  0  0  0  0  0  0  0  0  0
   42.9060    4.3921   11.1450 C   0  0  0  0  0  0  0  0  0  0  0  0
   48.2802    6.7320   14.0026 N   0  0  0  0  0  0  0  0  0  0  0  0
   46.1712    5.4043   13.8094 C   0  0  2  0  0  0  0  0  0  0  0  0
   46.9948    6.6044   13.2766 C   0  0  0  0  0  0  0  0  0  0  0  0
   44.0409    2.4441   10.4492 O   0  0  0  0  0  0  0  0  0  0  0  0
   41.7960    6.3914   11.8832 O   0  0  0  0  0  0  0  0  0  0  0  0
   47.0445    4.2907   14.0335 O   0  0  0  0  0  0  0  0  0  0  0  0
   48.8531    8.0794   13.8580 C   0  0  0  0  0  0  0  0  0  0  0  0
   50.3739    7.9986   14.0059 C   0  0  0  0  0  0  0  0  0  0  0  0
   48.2757    9.0102   14.9243 C   0  0  0  0  0  0  0  0  0  0  0  0
   49.5237    5.7934   14.0294 H   0  0  0  0  0  0  0  0  0  0  0  0
   46.2685    8.4562   13.0338 H   0  0  0  0  0  0  0  0  0  0  0  0
   50.0123   10.0390   14.4149 H   0  0  0  0  0  0  0  0  0  0  0  0
   46.0246    3.8813   11.5889 H   0  0  0  0  0  0  0  0  0  0  0  0
   47.6485    4.9156   12.8910 H   0  0  0  0  0  0  0  0  0  0  0  0
   46.5186    6.3126   11.1025 H   0  0  0  0  0  0  0  0  0  0  0  0
   45.1884    6.6309   12.2062 H   0  0  0  0  0  0  0  0  0  0  0  0
   48.2403   11.2676   13.7358 H   0  0  0  0  0  0  0  0  0  0  0  0
   51.4304    6.8331   14.6450 H   0  0  0  0  0  0  0  0  0  0  0  0
   46.3270    6.0776   14.9717 H   0  0  0  0  0  0  0  0  0  0  0  0
   44.1043    4.7647   13.2383 H   0  0  0  0  0  0  0  0  0  0  0  0
   41.9867    4.6546   11.9914 H   0  0  0  0  0  0  0  0  0  0  0  0
   42.8353    4.3697   10.4636 H   0  0  0  0  0  0  0  0  0  0  0  0
   42.9855    5.9326   11.2933 H   0  0  0  0  0  0  0  0  0  0  0  0
   44.8307    2.4214   13.0211 H   0  0  0  0  0  0  0  0  0  0  0  0
   43.0676    2.5340   12.9099 H   0  0  0  0  0  0  0  0  0  0  0  0
   44.0270    2.2819   11.4420 H   0  0  0  0  0  0  0  0  0  0  0  0
   47.9653    7.2423   12.8553 H   0  0  0  0  0  0  0  0  0  0  0  0
   44.6340    6.6239   13.5235 H   0  0  0  0  0  0  0  0  0  0  0  0
   43.8341    6.7642   13.3867 H   0  0  0  0  0  0  0  0  0  0  0  0
   45.9510    3.2171   12.1331 H   0  0  0  0  0  0  0  0  0  0  0  0
   42.0932    4.1220   10.4784 H   0  0  0  0  0  0  0  0  0  0  0  0
   48.9224    6.0592   13.5789 H   0  0  0  0  0  0  0  0  0  0  0  0
   45.7445    5.6587   14.7877 H   0  0  0  0  0  0  0  0  0  0  0  0
   47.2206    6.4644   12.2112 H   0  0  0  0  0  0  0  0  0  0  0  0
   46.3876    7.5138   13.3616 H   0  0  0  0  0  0  0  0  0  0  0  0
   44.8574    1.9520   10.6417 H   0  0  0  0  0  0  0  0  0  0  0  0
   41.1554    6.0425   11.2432 H   0  0  0  0  0  0  0  0  0  0  0  0
   47.7174    4.6505   14.6440 H   0  0  0  0  0  0  0  0  0  0  0  0
   48.6400    8.4857   12.8630 H   0  0  0  0  0  0  0  0  0  0  0  0
   50.8204    8.9971   13.9437 H   0  0  0  0  0  0  0  0  0  0  0  0
   50.6682    7.5585   14.9644 H   0  0  0  0  0  0  0  0  0  0  0  0
   50.8100    7.3915   13.2060 H   0  0  0  0  0  0  0  0  0  0  0  0
   47.1898    9.1123   14.8248 H   0  0  0  0  0  0  0  0  0  0  0  0
   48.7068   10.0150   14.8344 H   0  0  0  0  0  0  0  0  0  0  0  0
   48.4899    8.6430   15.9354 H   0  0  0  0  0  0  0  0  0  0  0  0
  2  1  2  0
  3  1  1  0
  4  2  1  0
  5  3  2  0
  6  4  2  0
  7  9  1  0
  8  1  1  0
  9  8  1  0
 10  5  1  0
 11  4  1  0
 12  8  1  0
 13  7  1  0
 14 13  1  0
 15 13  1  0
  6  5  1  0
 17 16  2  0
 18 16  2  0
 19 16  1  0
 20 16  1  0
 22 21  2  0
 23 21  1  0
 24 22  1  0
 25 23  2  0
 26 24  2  0
 27 29  1  0
 28 21  1  0
 29 28  1  0
 30 25  1  0
 31 24  1  0
 32 28  1  0
 33 27  1  0
 34 33  1  0
 35 33  1  0
 26 25  1  0
  2 36  1  0
  3 37  1  0
  6 38  1  0
  7 39  1  0
  8 40  1  6
  9 41  1  0
  9 42  1  0
 10 43  1  0
 11 44  1  0
 12 45  1  0
 13 46  1  0
 14 47  1  0
 14 48  1  0
 14 49  1  0
 15 50  1  0
 15 51  1  0
 15 52  1  0
 19 53  1  0
 20 54  1  0
 22 55  1  0
 23 56  1  0
 26 57  1  0
 27 58  1  0
 28 59  1  1
 29 60  1  0
 29 61  1  0
 30 62  1  0
 31 63  1  0
 32 64  1  0
 33 65  1  0
 34 66  1  0
 34 67  1  0
 34 68  1  0
 35 69  1  0
 35 70  1  0
 35 71  1  0
M  END
> <Uni-Dock RESULT> 
ENERGY=   -5.720  LOWER_BOUND=    1.549  UPPER_BOUND=    2.513
INTER + INTRA:          -5.720
INTER:                  -5.720
INTRA:                   0.000
UNBOUND:                 0.000

$$$$

     RDKit          3D

 71 70  0  0  0  0  0  0  0  0999 V2000
   45.5674    6.1356   12.5502 C   0  0  0  0  0  0  0  0  0  0  0  0
   45.5754    4.7379   12.7065 C   0  0  0  0  0  0  0  0  0  0  0  0
   44.3851    6.7550   12.1179 C   0  0  0  0  0  0  0  0  0  0  0  0
   44.4204    3.9953   12.4540 C   0  0  0  0  0  0  0  0  0  0  0  0
   43.2418    5.9934   11.8775 C   0  0  0  0  0  0  0  0  0  0  0  0
   43.2493    4.6150   12.0427 C   0  0  0  0  0  0  0  0  0  0  0  0
   47.9133    8.9690   13.8534 N   0  0  0  0  0  0  0  0  0  0  0  0
   46.8532    6.9092   12.7858 C   0  0  2  0  0  0  0  0  0  0  0  0
   46.6630    8.3275   13.3989 C   0  0  0  0  0  0  0  0  0  0  0  0
   42.1156    6.6496   11.4725 O   0  0  0  0  0  0  0  0  0  0  0  0
   44.4038    2.6376   12.5920 O   0  0  0  0  0  0  0  0  0  0  0  0
   47.5717    6.9886   11.5531 O   0  0  0  0  0  0  0  0  0  0  0  0
   48.5810    9.7354   12.7954 C   0  0  0  0  0  0  0  0  0  0  0  0
   48.1456   11.1988   12.8890 C   0  0  0  0  0  0  0  0  0  0  0  0
   50.0991    9.6260   12.9620 C   0  0  0  0  0  0  0  0  0  0  0  0
   46.9070    7.4033   12.7072 S   0  0  0  0  0  0  0  0  0  0  0  0
   46.9884    7.3866   14.1465 O   0  0  0  0  0  0  0  0  0  0  0  0
   48.0376    7.1916   11.8376 O   0  0  0  0  0  0  0  0  0  0  0  0
   45.7591    6.3570   12.3074 O   0  0  0  0  0  0  0  0  0  0  0  0
   46.2400    8.7884   12.2484 O   0  0  0  0  0  0  0  0  0  0  0  0
   47.8391    8.6946   12.4287 C   0  0  0  0  0  0  0  0  0  0  0  0
   47.2248    9.8227   11.8590 C   0  0  0  0  0  0  0  0  0  0  0  0
   48.8063    8.8918   13.4291 C   0  0  0  0  0  0  0  0  0  0  0  0
   47.5736   11.1034   12.2785 C   0  0  0  0  0  0  0  0  0  0  0  0
   49.1453   10.1845   13.8305 C   0  0  0  0  0  0  0  0  0  0  0  0
   48.5348   11.2965   13.2629 C   0  0  0  0  0  0  0  0  0  0  0  0
   45.8066    5.4504   12.3126 N   0  0  0  0  0  0  0  0  0  0  0  0
   47.4394    7.3101   11.9613 C   0  0  2  0  0  0  0  0  0  0  0  0
   46.0338    6.9057   12.4743 C   0  0  0  0  0  0  0  0  0  0  0  0
   50.0871   10.3994   14.7966 O   0  0  0  0  0  0  0  0  0  0  0  0
   46.9360   12.1579   11.6894 O   0  0  0  0  0  0  0  0  0  0  0  0
   48.3974    6.3290   12.3767 O   0  0  0  0  0  0  0  0  0  0  0  0
   44.3738    5.1182   12.3467 C   0  0  0  0  0  0  0  0  0  0  0  0
   44.2017    3.6803   12.8406 C   0  0  0  0  0  0  0  0  0  0  0  0
   43.7698    5.2642   10.9501 C   0  0  0  0  0  0  0  0  0  0  0  0
   46.4927    4.2366   13.0083 H   0  0  0  0  0  0  0  0  0  0  0  0
   44.3320    7.8291   11.9575 H   0  0  0  0  0  0  0  0  0  0  0  0
   42.3679    4.0135   11.8467 H   0  0  0  0  0  0  0  0  0  0  0  0
   48.5408    8.2566   14.2335 H   0  0  0  0  0  0  0  0  0  0  0  0
   47.4786    6.3315   13.4796 H   0  0  0  0  0  0  0  0  0  0  0  0
   46.0131    8.2391   14.2799 H   0  0  0  0  0  0  0  0  0  0  0  0
   46.1451    8.9908   12.6967 H   0  0  0  0  0  0  0  0  0  0  0  0
   41.3808    6.0079   11.4490 H   0  0  0  0  0  0  0  0  0  0  0  0
   45.2509    2.3520   12.9737 H   0  0  0  0  0  0  0  0  0  0  0  0
   46.9683    6.7326   10.8330 H   0  0  0  0  0  0  0  0  0  0  0  0
   48.3315    9.3558   11.7971 H   0  0  0  0  0  0  0  0  0  0  0  0
   48.5999   11.7841   12.0846 H   0  0  0  0  0  0  0  0  0  0  0  0
   48.4472   11.6501   13.8436 H   0  0  0  0  0  0  0  0  0  0  0  0
   47.0574   11.2999   12.7951 H   0  0  0  0  0  0  0  0  0  0  0  0
   50.4261    8.5853   12.8386 H   0  0  0  0  0  0  0  0  0  0  0  0
   50.6180   10.2283   12.2082 H   0  0  0  0  0  0  0  0  0  0  0  0
   50.4243    9.9720   13.9505 H   0  0  0  0  0  0  0  0  0  0  0  0
   45.1650    6.2710   13.0813 H   0  0  0  0  0  0  0  0  0  0  0  0
   46.4886    8.9243   11.3111 H   0  0  0  0  0  0  0  0  0  0  0  0
   46.4740    9.7147   11.0801 H   0  0  0  0  0  0  0  0  0  0  0  0
   49.2939    8.0299   13.8810 H   0  0  0  0  0  0  0  0  0  0  0  0
   48.8244   12.2887   13.5942 H   0  0  0  0  0  0  0  0  0  0  0  0
   46.2644    4.9942   13.1044 H   0  0  0  0  0  0  0  0  0  0  0  0
   47.4463    7.2975   10.8642 H   0  0  0  0  0  0  0  0  0  0  0  0
   45.9373    7.1466   13.5412 H   0  0  0  0  0  0  0  0  0  0  0  0
   45.2803    7.4969   11.9399 H   0  0  0  0  0  0  0  0  0  0  0  0
   50.4488    9.5386   15.0688 H   0  0  0  0  0  0  0  0  0  0  0  0
   47.2751   12.9766   12.0845 H   0  0  0  0  0  0  0  0  0  0  0  0
   48.0364    5.4947   12.0179 H   0  0  0  0  0  0  0  0  0  0  0  0
   43.8414    5.7727   13.0460 H   0  0  0  0  0  0  0  0  0  0  0  0
   43.1439    3.3952   12.8348 H   0  0  0  0  0  0  0  0  0  0  0  0
   44.7453    2.9655   12.2140 H   0  0  0  0  0  0  0  0  0  0  0  0
   44.5660    3.5764   13.8677 H   0  0  0  0  0  0  0  0  0  0  0  0
   43.8508    6.2923   10.5813 H   0  0  0  0  0  0  0  0  0  0  0  0
   42.7038    5.0053   10.9612 H   0  0  0  0  0  0  0  0  0  0  0  0
   44.2670    4.6054   10.2276 H   0  0  0  0  0  0  0  0  0  0  0  0
  2  1  2  0
  3  1  1  0
  4  2  1  0
  5  3  2  0
  6  4  2  0
  7  9  1  0
  8  1  1  0
  9  8  1  0
 10  5  1  0
 11  4  1  0
 12  8  1  0
 13  7  1  0
 14 13  1  0
 15 13  1  0
  6  5  1  0
 17 16  2  0
 18 16  2  0
 19 16  1  0
 20 16  1  0
 22 21  2  0
 23 21  1  0
 24 22  1  0
 25 23  2  0
 26 24  2  0
 27 29  1  0
 28 21  1  0
 29 28  1  0
 30 25  1  0
 31 24  1  0
 32 28  1  0
 33 27  1  0
 34 33  1  0
 35 33  1  0
 26 25  1  0
  2 36  1  0
  3 37  1  0
  6 38  1  0
  7 39  1  0
  8 40  1  6
  9 41  1  0
  9 42  1  0
 10 43  1  0
 11 44  1  0
 12 45  1  0
 13 46  1  0
 14 47  1  0
 14 48  1  0
 14 49  1  0
 15 50  1  0
 15 51  1  0
 15 52  1  0
 19 53  1  0
 20 54  1  0
 22 55  1  0
 23 56  1  0
 26 57  1  0
 27 58  1  0
 28 59  1  1
 29 60  1  0
 29 61  1  0
 30 62  1  0
 31 63  1  0
 32 64  1  0
 33 65  1  0
 34 66  1  0
 34 67  1  0
 34 68  1  0
 35 69  1  0
 35 70  1  0
 35 71  1  0
M  END
> <Uni-Dock RESULT> 
ENERGY=   -5.482  LOWER_BOUND=    1.567  UPPER_BOUND=    6.116
INTER + INTRA:          -5.482
INTER:                  -5.482
INTRA:                   0.000
UNBOUND:                 0.000

$$$$

     RDKit          3D

 71 70  0  0  0  0  0  0  0  0999 V2000
   45.3701    6.5374   12.3251 C   0  0  0  0  0  0  0  0  0  0  0  0
   44.0078    6.6151   11.9843 C   0  0  0  0  0  0  0  0  0  0  0  0
   45.9128    5.2816   12.6360 C   0  0  0  0  0  0  0  0  0  0  0  0
   43.2269    5.4586   11.9396 C   0  0  0  0  0  0  0  0  0  0  0  0
   45.1149    4.1391   12.5788 C   0  0  0  0  0  0  0  0  0  0  0  0
   43.7729    4.2172   12.2320 C   0  0  0  0  0  0  0  0  0  0  0  0
   48.3782    8.9725   11.8234 N   0  0  0  0  0  0  0  0  0  0  0  0
   46.1806    7.8192   12.4121 C   0  0  2  0  0  0  0  0  0  0  0  0
   47.6685    7.6861   11.9739 C   0  0  0  0  0  0  0  0  0  0  0  0
   45.6982    2.9419   12.8773 O   0  0  0  0  0  0  0  0  0  0  0  0
   41.9015    5.5079   11.6181 O   0  0  0  0  0  0  0  0  0  0  0  0
   46.0945    8.3251   13.7458 O   0  0  0  0  0  0  0  0  0  0  0  0
   48.9963    9.4349   13.0710 C   0  0  0  0  0  0  0  0  0  0  0  0
   50.4545    8.9742   13.1059 C   0  0  0  0  0  0  0  0  0  0  0  0
   48.9248   10.9627   13.1442 C   0  0  0  0  0  0  0  0  0  0  0  0
   46.6595    7.8438   12.5648 S   0  0  0  0  0  0  0  0  0  0  0  0
   46.8435    8.1582   11.1699 O   0  0  0  0  0  0  0  0  0  0  0  0
   46.3393    8.8243   13.5724 O   0  0  0  0  0  0  0  0  0  0  0  0
   45.5575    6.6800   12.6239 O   0  0  0  0  0  0  0  0  0  0  0  0
   47.9613    7.0674   13.0904 O   0  0  0  0  0  0  0  0  0  0  0  0
   47.9080    8.6768   13.1657 C   0  0  0  0  0  0  0  0  0  0  0  0
   48.9404    7.9426   13.7737 C   0  0  0  0  0  0  0  0  0  0  0  0
   48.2509    9.7868   12.3750 C   0  0  0  0  0  0  0  0  0  0  0  0
   50.2701    8.3140   13.5950 C   0  0  0  0  0  0  0  0  0  0  0  0
   49.5898   10.1452   12.2139 C   0  0  0  0  0  0  0  0  0  0  0  0
   50.6067    9.4156   12.8182 C   0  0  0  0  0  0  0  0  0  0  0  0
   44.6608    6.7565   12.5039 N   0  0  0  0  0  0  0  0  0  0  0  0
   46.4684    8.2507   13.3687 C   0  0  2  0  0  0  0  0  0  0  0  0
   46.1264    6.9606   12.5806 C   0  0  0  0  0  0  0  0  0  0  0  0
   49.9453   11.2241   11.4549 O   0  0  0  0  0  0  0  0  0  0  0  0
   51.2267    7.5559   14.2080 O   0  0  0  0  0  0  0  0  0  0  0  0
   45.5632    9.2941   12.9883 O   0  0  0  0  0  0  0  0  0  0  0  0
   44.3236    5.3595   12.1888 C   0  0  0  0  0  0  0  0  0  0  0  0
   42.9667    5.3157   11.4832 C   0  0  0  0  0  0  0  0  0  0  0  0
   44.2687    4.5325   13.4733 C   0  0  0  0  0  0  0  0  0  0  0  0
   43.5617    7.5847   11.7732 H   0  0  0  0  0  0  0  0  0  0  0  0
   46.9536    5.1690   12.9294 H   0  0  0  0  0  0  0  0  0  0  0  0
   43.1420    3.3353   12.1963 H   0  0  0  0  0  0  0  0  0  0  0  0
   47.7312    9.6757   11.4592 H   0  0  0  0  0  0  0  0  0  0  0  0
   45.7106    8.5670   11.7594 H   0  0  0  0  0  0  0  0  0  0  0  0
   47.6974    7.1909   10.9939 H   0  0  0  0  0  0  0  0  0  0  0  0
   48.2231    7.0402   12.6642 H   0  0  0  0  0  0  0  0  0  0  0  0
   45.0529    2.2338   12.6920 H   0  0  0  0  0  0  0  0  0  0  0  0
   41.6793    6.4143   11.3465 H   0  0  0  0  0  0  0  0  0  0  0  0
   45.7355    7.6212   14.3149 H   0  0  0  0  0  0  0  0  0  0  0  0
   48.4795    9.0389   13.9537 H   0  0  0  0  0  0  0  0  0  0  0  0
   50.9265    9.2730   14.0462 H   0  0  0  0  0  0  0  0  0  0  0  0
   51.0367    9.4123   12.2844 H   0  0  0  0  0  0  0  0  0  0  0  0
   50.5317    7.8825   13.0317 H   0  0  0  0  0  0  0  0  0  0  0  0
   47.8801   11.2981   13.1778 H   0  0  0  0  0  0  0  0  0  0  0  0
   49.4213   11.3328   14.0480 H   0  0  0  0  0  0  0  0  0  0  0  0
   49.4076   11.4328   12.2792 H   0  0  0  0  0  0  0  0  0  0  0  0
   45.5743    6.2225   11.7581 H   0  0  0  0  0  0  0  0  0  0  0  0
   47.9680    7.1562   14.0656 H   0  0  0  0  0  0  0  0  0  0  0  0
   48.7185    7.0791   14.3959 H   0  0  0  0  0  0  0  0  0  0  0  0
   47.4646   10.3684   11.8973 H   0  0  0  0  0  0  0  0  0  0  0  0
   51.6378    9.7235   12.6768 H   0  0  0  0  0  0  0  0  0  0  0  0
   44.3231    7.3511   11.7442 H   0  0  0  0  0  0  0  0  0  0  0  0
   46.3037    8.0797   14.4399 H   0  0  0  0  0  0  0  0  0  0  0  0
   46.5123    7.0310   11.5551 H   0  0  0  0  0  0  0  0  0  0  0  0
   46.6309    6.1119   13.0583 H   0  0  0  0  0  0  0  0  0  0  0  0
   49.1340   11.6523   11.1321 H   0  0  0  0  0  0  0  0  0  0  0  0
   52.0954    7.9286   13.9890 H   0  0  0  0  0  0  0  0  0  0  0  0
   44.6839    8.9064   13.1661 H   0  0  0  0  0  0  0  0  0  0  0  0
   45.0640    4.9273   11.5065 H   0  0  0  0  0  0  0  0  0  0  0  0
   42.6740    4.2806   11.2754 H   0  0  0  0  0  0  0  0  0  0  0  0
   42.1768    5.7729   12.0882 H   0  0  0  0  0  0  0  0  0  0  0  0
   43.0098    5.8451   10.5259 H   0  0  0  0  0  0  0  0  0  0  0  0
   45.2364    4.5199   13.9862 H   0  0  0  0  0  0  0  0  0  0  0  0
   44.0043    3.4913   13.2513 H   0  0  0  0  0  0  0  0  0  0  0  0
   43.5206    4.9265   14.1720 H   0  0  0  0  0  0  0  0  0  0  0  0
  2  1  2  0
  3  1  1  0
  4  2  1  0
  5  3  2  0
  6  4  2  0
  7  9  1  0
  8  1  1  0
  9  8  1  0
 10  5  1  0
 11  4  1  0
 12  8  1  0
 13  7  1  0
 14 13  1  0
 15 13  1  0
  6  5  1  0
 17 16  2  0
 18 16  2  0
 19 16  1  0
 20 16  1  0
 22 21  2  0
 23 21  1  0
 24 22  1  0
 25 23  2  0
 26 24  2  0
 27 29  1  0
 28 21  1  0
 29 28  1  0
 30 25  1  0
 31 24  1  0
 32 28  1  0
 33 27  1  0
 34 33  1  0
 35 33  1  0
 26 25  1  0
  2 36  1  0
  3 37  1  0
  6 38  1  0
  7 39  1  0
  8 40  1  6
  9 41  1  0
  9 42  1  0
 10 43  1  0
 11 44  1  0
 12 45  1  0
 13 46  1  0
 14 47  1  0
 14 48  1  0
 14 49  1  0
 15 50  1  0
 15 51  1  0
 15 52  1  0
 19 53  1  0
 20 54  1  0
 22 55  1  0
 23 56  1  0
 26 57  1  0
 27 58  1  0
 28 59  1  1
 29 60  1  0
 29 61  1  0
 30 62  1  0
 31 63  1  0
 32 64  1  0
 33 65  1  0
 34 66  1  0
 34 67  1  0
 34 68  1  0
 35 69  1  0
 35 70  1  0
 35 71  1  0
M  END
> <Uni-Dock RESULT> 
ENERGY=   -5.475  LOWER_BOUND=    1.826  UPPER_BOUND=    6.026
INTER + INTRA:          -5.475
INTER:                  -5.475
INTRA:                   0.000
UNBOUND:                 0.000

$$$$

     RDKit          3D

 71 70  0  0  0  0  0  0  0  0999 V2000
   47.9435   10.7029   20.6319 C   0  0  0  0  0  0  0  0  0  0  0  0
   47.8272   11.9798   21.2099 C   0  0  0  0  0  0  0  0  0  0  0  0
   48.0075   10.6031   19.2340 C   0  0  0  0  0  0  0  0  0  0  0  0
   47.7978   13.1177   20.4014 C   0  0  0  0  0  0  0  0  0  0  0  0
   47.9824   11.7541   18.4468 C   0  0  0  0  0  0  0  0  0  0  0  0
   47.8781   13.0141   19.0203 C   0  0  0  0  0  0  0  0  0  0  0  0
   48.9895    7.2248   22.0597 N   0  0  0  0  0  0  0  0  0  0  0  0
   47.9237    9.4822   21.5357 C   0  0  2  0  0  0  0  0  0  0  0  0
   48.8184    8.2997   21.0614 C   0  0  0  0  0  0  0  0  0  0  0  0
   48.0621   11.5991   17.0931 O   0  0  0  0  0  0  0  0  0  0  0  0
   47.6792   14.3674   20.9370 O   0  0  0  0  0  0  0  0  0  0  0  0
   46.5700    9.0533   21.6956 O   0  0  0  0  0  0  0  0  0  0  0  0
   47.9425    6.2000   21.9829 C   0  0  0  0  0  0  0  0  0  0  0  0
   48.4326    5.0514   21.0997 C   0  0  0  0  0  0  0  0  0  0  0  0
   47.6243    5.6844   23.3890 C   0  0  0  0  0  0  0  0  0  0  0  0
   47.9260    9.0063   21.3721 S   0  0  0  0  0  0  0  0  0  0  0  0
   49.2457    9.0599   21.9500 O   0  0  0  0  0  0  0  0  0  0  0  0
   46.7348    8.6912   22.1210 O   0  0  0  0  0  0  0  0  0  0  0  0
   47.7002   10.4105   20.6306 O   0  0  0  0  0  0  0  0  0  0  0  0
   47.9538    7.9965   20.1257 O   0  0  0  0  0  0  0  0  0  0  0  0
   47.6272    7.4340   21.6007 C   0  0  0  0  0  0  0  0  0  0  0  0
   47.4875    6.6310   20.4560 C   0  0  0  0  0  0  0  0  0  0  0  0
   48.3111    6.9071   22.7095 C   0  0  0  0  0  0  0  0  0  0  0  0
   48.0143    5.3426   20.4294 C   0  0  0  0  0  0  0  0  0  0  0  0
   48.8262    5.6110   22.6637 C   0  0  0  0  0  0  0  0  0  0  0  0
   48.6844    4.8212   21.5291 C   0  0  0  0  0  0  0  0  0  0  0  0
   47.5220   11.2165   21.0083 N   0  0  0  0  0  0  0  0  0  0  0  0
   47.0514    8.8353   21.6051 C   0  0  2  0  0  0  0  0  0  0  0  0
   47.8764    9.8064   20.7226 C   0  0  0  0  0  0  0  0  0  0  0  0
   49.4889    5.0767   23.7323 O   0  0  0  0  0  0  0  0  0  0  0  0
   47.8498    4.6153   19.2851 O   0  0  0  0  0  0  0  0  0  0  0  0
   46.9713    9.3557   22.9376 O   0  0  0  0  0  0  0  0  0  0  0  0
   47.9204   12.1092   19.9088 C   0  0  0  0  0  0  0  0  0  0  0  0
   48.1663   13.5136   20.4642 C   0  0  0  0  0  0  0  0  0  0  0  0
   46.8208   12.1547   18.8479 C   0  0  0  0  0  0  0  0  0  0  0  0
   47.7422   12.0744   22.2904 H   0  0  0  0  0  0  0  0  0  0  0  0
   48.0732    9.6391   18.7354 H   0  0  0  0  0  0  0  0  0  0  0  0
   47.8462   13.9140   18.4151 H   0  0  0  0  0  0  0  0  0  0  0  0
   49.0252    7.6346   22.9960 H   0  0  0  0  0  0  0  0  0  0  0  0
   48.2787    9.7858   22.5297 H   0  0  0  0  0  0  0  0  0  0  0  0
   49.8208    8.6911   20.8413 H   0  0  0  0  0  0  0  0  0  0  0  0
   48.4394    7.8736   20.1254 H   0  0  0  0  0  0  0  0  0  0  0  0
   48.1403   12.4839   16.6891 H   0  0  0  0  0  0  0  0  0  0  0  0
   47.7301   14.2985   21.9052 H   0  0  0  0  0  0  0  0  0  0  0  0
   46.0287    9.4983   21.0195 H   0  0  0  0  0  0  0  0  0  0  0  0
   47.0119    6.5983   21.5603 H   0  0  0  0  0  0  0  0  0  0  0  0
   47.6528    4.2918   20.9942 H   0  0  0  0  0  0  0  0  0  0  0  0
   49.3199    4.5642   21.5254 H   0  0  0  0  0  0  0  0  0  0  0  0
   48.6887    5.4017   20.0922 H   0  0  0  0  0  0  0  0  0  0  0  0
   47.2174    6.4913   24.0122 H   0  0  0  0  0  0  0  0  0  0  0  0
   46.8758    4.8853   23.3507 H   0  0  0  0  0  0  0  0  0  0  0  0
   48.5167    5.2852   23.8858 H   0  0  0  0  0  0  0  0  0  0  0  0
   48.5860   10.7714   20.4205 H   0  0  0  0  0  0  0  0  0  0  0  0
   47.0275    7.7239   19.9630 H   0  0  0  0  0  0  0  0  0  0  0  0
   46.9628    6.9988   19.5778 H   0  0  0  0  0  0  0  0  0  0  0  0
   48.4279    7.5140   23.6056 H   0  0  0  0  0  0  0  0  0  0  0  0
   49.0926    3.8155   21.5274 H   0  0  0  0  0  0  0  0  0  0  0  0
   48.0413   11.4833   21.8473 H   0  0  0  0  0  0  0  0  0  0  0  0
   46.0202    8.7892   21.2333 H   0  0  0  0  0  0  0  0  0  0  0  0
   48.9486    9.6800   20.9223 H   0  0  0  0  0  0  0  0  0  0  0  0
   47.7115    9.5511   19.6688 H   0  0  0  0  0  0  0  0  0  0  0  0
   49.4753    5.7254   24.4568 H   0  0  0  0  0  0  0  0  0  0  0  0
   48.2707    3.7503   19.4124 H   0  0  0  0  0  0  0  0  0  0  0  0
   46.5880   10.2456   22.8100 H   0  0  0  0  0  0  0  0  0  0  0  0
   48.8558   11.7670   19.4522 H   0  0  0  0  0  0  0  0  0  0  0  0
   48.4240   14.2074   19.6563 H   0  0  0  0  0  0  0  0  0  0  0  0
   47.2844   13.9098   20.9782 H   0  0  0  0  0  0  0  0  0  0  0  0
   48.9995   13.5097   21.1744 H   0  0  0  0  0  0  0  0  0  0  0  0
   46.6429   11.1671   18.4092 H   0  0  0  0  0  0  0  0  0  0  0  0
   47.1016   12.8289   18.0293 H   0  0  0  0  0  0  0  0  0  0  0  0
   45.8733   12.5142   19.2678 H   0  0  0  0  0  0  0  0  0  0  0  0
  2  1  2  0
  3  1  1  0
  4  2  1  0
  5  3  2  0
  6  4  2  0
  7  9  1  0
  8  1  1  0
  9  8  1  0
 10  5  1  0
 11  4  1  0
 12  8  1  0
 13  7  1  0
 14 13  1  0
 15 13  1  0
  6  5  1  0
 17 16  2  0
 18 16  2  0
 19 16  1  0
 20 16  1  0
 22 21  2  0
 23 21  1  0
 24 22  1  0
 25 23  2  0
 26 24  2  0
 27 29  1  0
 28 21  1  0
 29 28  1  0
 30 25  1  0
 31 24  1  0
 32 28  1  0
 33 27  1  0
 34 33  1  0
 35 33  1  0
 26 25  1  0
  2 36  1  0
  3 37  1  0
  6 38  1  0
  7 39  1  0
  8 40  1  6
  9 41  1  0
  9 42  1  0
 10 43  1  0
 11 44  1  0
 12 45  1  0
 13 46  1  0
 14 47  1  0
 14 48  1  0
 14 49  1  0
 15 50  1  0
 15 51  1  0
 15 52  1  0
 19 53  1  0
 20 54  1  0
 22 55  1  0
 23 56  1  0
 26 57  1  0
 27 58  1  0
 28 59  1  1
 29 60  1  0
 29 61  1  0
 30 62  1  0
 31 63  1  0
 32 64  1  0
 33 65  1  0
 34 66  1  0
 34 67  1  0
 34 68  1  0
 35 69  1  0
 35 70  1  0
 35 71  1  0
M  END
> <Uni-Dock RESULT> 
ENERGY=   -5.106  LOWER_BOUND=    8.359  UPPER_BOUND=    9.852
INTER + INTRA:          -5.106
INTER:                  -5.106
INTRA:                   0.000
UNBOUND:                 0.000

$$$$

     RDKit          3D

 71 70  0  0  0  0  0  0  0  0999 V2000
   48.2062    7.4561   20.5569 C   0  0  0  0  0  0  0  0  0  0  0  0
   48.5568    6.1821   20.0751 C   0  0  0  0  0  0  0  0  0  0  0  0
   47.7817    7.5756   21.8887 C   0  0  0  0  0  0  0  0  0  0  0  0
   48.4995    5.0709   20.9184 C   0  0  0  0  0  0  0  0  0  0  0  0
   47.7381    6.4525   22.7144 C   0  0  0  0  0  0  0  0  0  0  0  0
   48.0947    5.1977   22.2393 C   0  0  0  0  0  0  0  0  0  0  0  0
   48.9161   11.0717   19.2711 N   0  0  0  0  0  0  0  0  0  0  0  0
   48.2326    8.6365   19.6012 C   0  0  2  0  0  0  0  0  0  0  0  0
   48.6524    9.9914   20.2430 C   0  0  0  0  0  0  0  0  0  0  0  0
   47.3312    6.6290   24.0052 O   0  0  0  0  0  0  0  0  0  0  0  0
   48.8282    3.8233   20.4736 O   0  0  0  0  0  0  0  0  0  0  0  0
   46.9502    8.7519   18.9814 O   0  0  0  0  0  0  0  0  0  0  0  0
   47.7133   11.8377   18.9260 C   0  0  0  0  0  0  0  0  0  0  0  0
   47.6326   13.0717   19.8263 C   0  0  0  0  0  0  0  0  0  0  0  0
   47.7784   12.2615   17.4561 C   0  0  0  0  0  0  0  0  0  0  0  0
   48.0813    9.1019   19.7188 S   0  0  0  0  0  0  0  0  0  0  0  0
   49.4983    9.3406   19.6019 O   0  0  0  0  0  0  0  0  0  0  0  0
   47.1671    9.1392   18.6043 O   0  0  0  0  0  0  0  0  0  0  0  0
   47.9209    7.6870   20.4569 O   0  0  0  0  0  0  0  0  0  0  0  0
   47.4838   10.0995   20.8241 O   0  0  0  0  0  0  0  0  0  0  0  0
   47.5540   10.5667   19.2829 C   0  0  0  0  0  0  0  0  0  0  0  0
   46.8792   11.3249   20.2546 C   0  0  0  0  0  0  0  0  0  0  0  0
   48.4406   11.2265   18.4147 C   0  0  0  0  0  0  0  0  0  0  0  0
   47.0866   12.6984   20.3473 C   0  0  0  0  0  0  0  0  0  0  0  0
   48.6291   12.6050   18.5211 C   0  0  0  0  0  0  0  0  0  0  0  0
   47.9584   13.3498   19.4838 C   0  0  0  0  0  0  0  0  0  0  0  0
   48.0501    6.8593   20.1068 N   0  0  0  0  0  0  0  0  0  0  0  0
   47.3179    9.0723   19.2043 C   0  0  2  0  0  0  0  0  0  0  0  0
   47.9876    8.3145   20.3789 C   0  0  0  0  0  0  0  0  0  0  0  0
   49.4813   13.2676   17.6836 O   0  0  0  0  0  0  0  0  0  0  0  0
   46.4047   13.3772   21.3167 O   0  0  0  0  0  0  0  0  0  0  0  0
   47.7936    8.5396   17.9622 O   0  0  0  0  0  0  0  0  0  0  0  0
   48.2390    6.0842   21.3429 C   0  0  0  0  0  0  0  0  0  0  0  0
   48.9420    4.7669   21.0089 C   0  0  0  0  0  0  0  0  0  0  0  0
   46.8854    5.8007   21.9942 C   0  0  0  0  0  0  0  0  0  0  0  0
   48.8559    6.0649   19.0355 H   0  0  0  0  0  0  0  0  0  0  0  0
   47.4761    8.5328   22.3042 H   0  0  0  0  0  0  0  0  0  0  0  0
   48.0527    4.3168   22.8711 H   0  0  0  0  0  0  0  0  0  0  0  0
   49.3442   10.6749   18.4314 H   0  0  0  0  0  0  0  0  0  0  0  0
   48.9515    8.4141   18.8014 H   0  0  0  0  0  0  0  0  0  0  0  0
   49.5837    9.8346   20.8038 H   0  0  0  0  0  0  0  0  0  0  0  0
   47.9050   10.3276   20.9707 H   0  0  0  0  0  0  0  0  0  0  0  0
   47.4539    5.7862   24.4814 H   0  0  0  0  0  0  0  0  0  0  0  0
   49.1811    3.8962   19.5709 H   0  0  0  0  0  0  0  0  0  0  0  0
   46.3211    8.2013   19.4805 H   0  0  0  0  0  0  0  0  0  0  0  0
   46.8001   11.2444   19.0571 H   0  0  0  0  0  0  0  0  0  0  0  0
   46.7216   13.6389   19.6151 H   0  0  0  0  0  0  0  0  0  0  0  0
   48.4884   13.7420   19.6713 H   0  0  0  0  0  0  0  0  0  0  0  0
   47.6079   12.7931   20.8869 H   0  0  0  0  0  0  0  0  0  0  0  0
   47.7784   11.3806   16.8010 H   0  0  0  0  0  0  0  0  0  0  0  0
   46.9102   12.8738   17.1886 H   0  0  0  0  0  0  0  0  0  0  0  0
   48.6808   12.8468   17.2427 H   0  0  0  0  0  0  0  0  0  0  0  0
   48.7419    7.5338   20.9684 H   0  0  0  0  0  0  0  0  0  0  0  0
   46.5206   10.1597   20.6583 H   0  0  0  0  0  0  0  0  0  0  0  0
   46.1824   10.8543   20.9438 H   0  0  0  0  0  0  0  0  0  0  0  0
   48.9712   10.6559   17.6547 H   0  0  0  0  0  0  0  0  0  0  0  0
   48.1238   14.4212   19.5372 H   0  0  0  0  0  0  0  0  0  0  0  0
   48.8613    6.7103   19.5031 H   0  0  0  0  0  0  0  0  0  0  0  0
   46.2362    8.8895   19.2200 H   0  0  0  0  0  0  0  0  0  0  0  0
   49.0141    8.6757   20.5252 H   0  0  0  0  0  0  0  0  0  0  0  0
   47.4338    8.5327   21.3002 H   0  0  0  0  0  0  0  0  0  0  0  0
   49.8438   12.6281   17.0468 H   0  0  0  0  0  0  0  0  0  0  0  0
   46.6538   14.3135   21.2635 H   0  0  0  0  0  0  0  0  0  0  0  0
   47.5843    7.5874   18.0298 H   0  0  0  0  0  0  0  0  0  0  0  0
   48.8773    6.6289   22.0474 H   0  0  0  0  0  0  0  0  0  0  0  0
   49.0565    4.1525   21.9088 H   0  0  0  0  0  0  0  0  0  0  0  0
   48.3831    4.1811   20.2716 H   0  0  0  0  0  0  0  0  0  0  0  0
   49.9430    4.9523   20.6062 H   0  0  0  0  0  0  0  0  0  0  0  0
   46.3705    6.7263   22.2729 H   0  0  0  0  0  0  0  0  0  0  0  0
   47.0135    5.2108   22.9102 H   0  0  0  0  0  0  0  0  0  0  0  0
   46.2274    5.2367   21.3218 H   0  0  0  0  0  0  0  0  0  0  0  0
  2  1  2  0
  3  1  1  0
  4  2  1  0
  5  3  2  0
  6  4  2  0
  7  9  1  0
  8  1  1  0
  9  8  1  0
 10  5  1  0
 11  4  1  0
 12  8  1  0
 13  7  1  0
 14 13  1  0
 15 13  1  0
  6  5  1  0
 17 16  2  0
 18 16  2  0
 19 16  1  0
 20 16  1  0
 22 21  2  0
 23 21  1  0
 24 22  1  0
 25 23  2  0
 26 24  2  0
 27 29  1  0
 28 21  1  0
 29 28  1  0
 30 25  1  0
 31 24  1  0
 32 28  1  0
 33 27  1  0
 34 33  1  0
 35 33  1  0
 26 25  1  0
  2 36  1  0
  3 37  1  0
  6 38  1  0
  7 39  1  0
  8 40  1  6
  9 41  1  0
  9 42  1  0
 10 43  1  0
 11 44  1  0
 12 45  1  0
 13 46  1  0
 14 47  1  0
 14 48  1  0
 14 49  1  0
 15 50  1  0
 15 51  1  0
 15 52  1  0
 19 53  1  0
 20 54  1  0
 22 55  1  0
 23 56  1  0
 26 57  1  0
 27 58  1  0
 28 59  1  1
 29 60  1  0
 29 61  1  0
 30 62  1  0
 31 63  1  0
 32 64  1  0
 33 65  1  0
 34 66  1  0
 34 67  1  0
 34 68  1  0
 35 69  1  0
 35 70  1  0
 35 71  1  0
M  END
> <Uni-Dock RESULT> 
ENERGY=   -5.103  LOWER_BOUND=    7.860  UPPER_BOUND=   10.200
INTER + INTRA:          -5.103
INTER:                  -5.103
INTRA:                   0.000
UNBOUND:                 0.000

$$$$

     RDKit          3D

 71 70  0  0  0  0  0  0  0  0999 V2000
   48.4122    7.7683   18.3274 C   0  0  0  0  0  0  0  0  0  0  0  0
   48.8734    6.7627   17.4589 C   0  0  0  0  0  0  0  0  0  0  0  0
   47.7799    7.3860   19.5200 C   0  0  0  0  0  0  0  0  0  0  0  0
   48.7183    5.4168   17.7961 C   0  0  0  0  0  0  0  0  0  0  0  0
   47.6416    6.0353   19.8387 C   0  0  0  0  0  0  0  0  0  0  0  0
   48.1070    5.0447   18.9846 C   0  0  0  0  0  0  0  0  0  0  0  0
   49.2039   11.5768   18.6417 N   0  0  0  0  0  0  0  0  0  0  0  0
   48.5523    9.2219   17.9093 C   0  0  2  0  0  0  0  0  0  0  0  0
   48.8239   10.2171   19.0753 C   0  0  0  0  0  0  0  0  0  0  0  0
   47.0313    5.7208   21.0183 O   0  0  0  0  0  0  0  0  0  0  0  0
   49.1512    4.4221   16.9680 O   0  0  0  0  0  0  0  0  0  0  0  0
   47.3805    9.6049   17.1866 O   0  0  0  0  0  0  0  0  0  0  0  0
   48.0474   12.4542   18.4293 C   0  0  0  0  0  0  0  0  0  0  0  0
   47.7879   13.2553   19.7063 C   0  0  0  0  0  0  0  0  0  0  0  0
   48.3298   13.4026   17.2609 C   0  0  0  0  0  0  0  0  0  0  0  0
   48.3701    9.6122   18.1696 S   0  0  0  0  0  0  0  0  0  0  0  0
   49.7798    9.8323   18.3766 O   0  0  0  0  0  0  0  0  0  0  0  0
   47.6420   10.0994   17.0243 O   0  0  0  0  0  0  0  0  0  0  0  0
   48.1392    8.0288   18.2791 O   0  0  0  0  0  0  0  0  0  0  0  0
   47.5756   10.1332   19.4623 O   0  0  0  0  0  0  0  0  0  0  0  0
   47.8731   11.1487   18.2463 C   0  0  0  0  0  0  0  0  0  0  0  0
   47.0307   11.5016   19.3142 C   0  0  0  0  0  0  0  0  0  0  0  0
   48.8645   12.0605   17.8452 C   0  0  0  0  0  0  0  0  0  0  0  0
   47.1785   12.7294   19.9534 C   0  0  0  0  0  0  0  0  0  0  0  0
   48.9914   13.2884   18.4959 C   0  0  0  0  0  0  0  0  0  0  0  0
   48.1549   13.6322   19.5512 C   0  0  0  0  0  0  0  0  0  0  0  0
   48.3473    7.3927   17.6657 N   0  0  0  0  0  0  0  0  0  0  0  0
   47.6985    9.8047   17.5694 C   0  0  2  0  0  0  0  0  0  0  0  0
   48.1979    8.6364   18.4572 C   0  0  0  0  0  0  0  0  0  0  0  0
   49.9439   14.1921   18.1185 O   0  0  0  0  0  0  0  0  0  0  0  0
   46.3320   13.0101   20.9879 O   0  0  0  0  0  0  0  0  0  0  0  0
   48.3799    9.7693   16.3095 O   0  0  0  0  0  0  0  0  0  0  0  0
   48.3631    6.2003   18.5273 C   0  0  0  0  0  0  0  0  0  0  0  0
   49.1502    5.0872   17.8326 C   0  0  0  0  0  0  0  0  0  0  0  0
   46.9333    5.7336   18.8003 C   0  0  0  0  0  0  0  0  0  0  0  0
   49.3358    7.0400   16.5139 H   0  0  0  0  0  0  0  0  0  0  0  0
   47.3834    8.1226   20.2145 H   0  0  0  0  0  0  0  0  0  0  0  0
   47.9932    3.9915   19.2190 H   0  0  0  0  0  0  0  0  0  0  0  0
   49.7708   11.5156   17.7928 H   0  0  0  0  0  0  0  0  0  0  0  0
   49.3947    9.2975   17.2087 H   0  0  0  0  0  0  0  0  0  0  0  0
   49.6597    9.8294   19.6733 H   0  0  0  0  0  0  0  0  0  0  0  0
   47.9613   10.2750   19.7490 H   0  0  0  0  0  0  0  0  0  0  0  0
   47.1034    4.7567   21.1512 H   0  0  0  0  0  0  0  0  0  0  0  0
   49.6394    4.8215   16.2285 H   0  0  0  0  0  0  0  0  0  0  0  0
   46.6979    8.9262   17.3333 H   0  0  0  0  0  0  0  0  0  0  0  0
   47.1436   11.8850   18.1797 H   0  0  0  0  0  0  0  0  0  0  0  0
   46.9045   13.8888   19.5863 H   0  0  0  0  0  0  0  0  0  0  0  0
   48.6364   13.9066   19.9544 H   0  0  0  0  0  0  0  0  0  0  0  0
   47.6052   12.5953   20.5632 H   0  0  0  0  0  0  0  0  0  0  0  0
   48.4601   12.8374   16.3289 H   0  0  0  0  0  0  0  0  0  0  0  0
   47.4961   14.0979   17.1134 H   0  0  0  0  0  0  0  0  0  0  0  0
   49.2361   13.9961   17.4308 H   0  0  0  0  0  0  0  0  0  0  0  0
   48.8738    7.6667   18.8162 H   0  0  0  0  0  0  0  0  0  0  0  0
   46.6491   10.2824   19.1828 H   0  0  0  0  0  0  0  0  0  0  0  0
   46.2490   10.8267   19.6538 H   0  0  0  0  0  0  0  0  0  0  0  0
   49.5255   11.8051   17.0189 H   0  0  0  0  0  0  0  0  0  0  0  0
   48.2767   14.5970   20.0332 H   0  0  0  0  0  0  0  0  0  0  0  0
   49.2477    7.4586   17.1863 H   0  0  0  0  0  0  0  0  0  0  0  0
   46.6339    9.6640   17.3442 H   0  0  0  0  0  0  0  0  0  0  0  0
   49.1770    8.8821   18.8891 H   0  0  0  0  0  0  0  0  0  0  0  0
   47.4996    8.5055   19.2927 H   0  0  0  0  0  0  0  0  0  0  0  0
   50.4217   13.8316   17.3519 H   0  0  0  0  0  0  0  0  0  0  0  0
   46.5573   13.8879   21.3346 H   0  0  0  0  0  0  0  0  0  0  0  0
   48.1920    8.8701   15.9762 H   0  0  0  0  0  0  0  0  0  0  0  0
   48.8655    6.4158   19.4769 H   0  0  0  0  0  0  0  0  0  0  0  0
   49.1405    4.1736   18.4372 H   0  0  0  0  0  0  0  0  0  0  0  0
   48.7326    4.8438   16.8500 H   0  0  0  0  0  0  0  0  0  0  0  0
   50.1959    5.3800   17.6934 H   0  0  0  0  0  0  0  0  0  0  0  0
   46.3526    6.4996   19.3254 H   0  0  0  0  0  0  0  0  0  0  0  0
   46.9337    4.8361   19.4311 H   0  0  0  0  0  0  0  0  0  0  0  0
   46.4070    5.4888   17.8697 H   0  0  0  0  0  0  0  0  0  0  0  0
  2  1  2  0
  3  1  1  0
  4  2  1  0
  5  3  2  0
  6  4  2  0
  7  9  1  0
  8  1  1  0
  9  8  1  0
 10  5  1  0
 11  4  1  0
 12  8  1  0
 13  7  1  0
 14 13  1  0
 15 13  1  0
  6  5  1  0
 17 16  2  0
 18 16  2  0
 19 16  1  0
 20 16  1  0
 22 21  2  0
 23 21  1  0
 24 22  1  0
 25 23  2  0
 26 24  2  0
 27 29  1  0
 28 21  1  0
 29 28  1  0
 30 25  1  0
 31 24  1  0
 32 28  1  0
 33 27  1  0
 34 33  1  0
 35 33  1  0
 26 25  1  0
  2 36  1  0
  3 37  1  0
  6 38  1  0
  7 39  1  0
  8 40  1  6
  9 41  1  0
  9 42  1  0
 10 43  1  0
 11 44  1  0
 12 45  1  0
 13 46  1  0
 14 47  1  0
 14 48  1  0
 14 49  1  0
 15 50  1  0
 15 51  1  0
 15 52  1  0
 19 53  1  0
 20 54  1  0
 22 55  1  0
 23 56  1  0
 26 57  1  0
 27 58  1  0
 28 59  1  1
 29 60  1  0
 29 61  1  0
 30 62  1  0
 31 63  1  0
 32 64  1  0
 33 65  1  0
 34 66  1  0
 34 67  1  0
 34 68  1  0
 35 69  1  0
 35 70  1  0
 35 71  1  0
M  END
> <Uni-Dock RESULT> 
ENERGY=   -4.923  LOWER_BOUND=    6.507  UPPER_BOUND=    9.300
INTER + INTRA:          -4.923
INTER:                  -4.923
INTRA:                   0.000
UNBOUND:                 0.000

$$$$
