
     RDKit          3D

 71 70  0  0  0  0  0  0  0  0999 V2000
   45.5949    6.3199   12.0547 C   0  0  0  0  0  0  0  0  0  0  0  0
   44.5940    6.0463   13.0045 C   0  0  0  0  0  0  0  0  0  0  0  0
   45.4639    5.7917   10.7584 C   0  0  0  0  0  0  0  0  0  0  0  0
   43.4857    5.2799   12.6504 C   0  0  0  0  0  0  0  0  0  0  0  0
   44.3468    5.0261   10.4267 C   0  0  0  0  0  0  0  0  0  0  0  0
   43.3553    4.7681   11.3655 C   0  0  0  0  0  0  0  0  0  0  0  0
   49.2589    6.8242   13.0883 N   0  0  0  0  0  0  0  0  0  0  0  0
   46.8128    7.1466   12.4156 C   0  0  2  0  0  0  0  0  0  0  0  0
   47.8821    6.2957   13.1483 C   0  0  0  0  0  0  0  0  0  0  0  0
   44.1897    4.5060    9.1741 O   0  0  0  0  0  0  0  0  0  0  0  0
   42.4942    5.0136   13.5494 O   0  0  0  0  0  0  0  0  0  0  0  0
   46.3850    8.2291   13.2473 O   0  0  0  0  0  0  0  0  0  0  0  0
   49.4564    8.1300   13.7326 C   0  0  0  0  0  0  0  0  0  0  0  0
   49.2839    8.0726   15.2505 C   0  0  0  0  0  0  0  0  0  0  0  0
   50.8748    8.5992   13.3970 C   0  0  0  0  0  0  0  0  0  0  0  0
   46.8513    7.1545   12.9690 S   0  0  0  0  0  0  0  0  0  0  0  0
   47.4113    7.5316   14.2424 O   0  0  0  0  0  0  0  0  0  0  0  0
   45.9799    8.0015   12.1945 O   0  0  0  0  0  0  0  0  0  0  0  0
   46.0878    5.7554   13.1461 O   0  0  0  0  0  0  0  0  0  0  0  0
   48.0907    6.7253   12.0464 O   0  0  0  0  0  0  0  0  0  0  0  0
   48.7836    6.9575   13.0849 C   0  0  0  0  0  0  0  0  0  0  0  0
   49.2524    7.7156   11.9965 C   0  0  0  0  0  0  0  0  0  0  0  0
   49.2789    7.2403   14.3673 C   0  0  0  0  0  0  0  0  0  0  0  0
   50.1806    8.7352   12.2017 C   0  0  0  0  0  0  0  0  0  0  0  0
   50.2117    8.2600   14.5485 C   0  0  0  0  0  0  0  0  0  0  0  0
   50.6594    9.0169   13.4745 C   0  0  0  0  0  0  0  0  0  0  0  0
   45.2801    5.4629   12.6703 N   0  0  0  0  0  0  0  0  0  0  0  0
   47.7289    5.8952   12.8587 C   0  0  2  0  0  0  0  0  0  0  0  0
   46.3094    6.5105   12.8357 C   0  0  0  0  0  0  0  0  0  0  0  0
   50.7082    8.5509   15.7846 O   0  0  0  0  0  0  0  0  0  0  0  0
   50.6330    9.4982   11.1662 O   0  0  0  0  0  0  0  0  0  0  0  0
   47.8013    4.8878   13.8738 O   0  0  0  0  0  0  0  0  0  0  0  0
   43.9310    6.0167   12.4634 C   0  0  0  0  0  0  0  0  0  0  0  0
   42.9246    4.8657   12.5475 C   0  0  0  0  0  0  0  0  0  0  0  0
   43.7919    6.7117   11.1067 C   0  0  0  0  0  0  0  0  0  0  0  0
   44.6913    6.4413   14.0135 H   0  0  0  0  0  0  0  0  0  0  0  0
   46.2367    5.9832   10.0184 H   0  0  0  0  0  0  0  0  0  0  0  0
   42.4866    4.1747   11.0974 H   0  0  0  0  0  0  0  0  0  0  0  0
   49.8882    6.1434   13.5113 H   0  0  0  0  0  0  0  0  0  0  0  0
   47.2434    7.5825   11.5053 H   0  0  0  0  0  0  0  0  0  0  0  0
   47.5880    6.1288   14.1911 H   0  0  0  0  0  0  0  0  0  0  0  0
   47.9259    5.3067   12.6769 H   0  0  0  0  0  0  0  0  0  0  0  0
   44.9517    4.7663    8.6297 H   0  0  0  0  0  0  0  0  0  0  0  0
   42.7054    5.4622   14.3834 H   0  0  0  0  0  0  0  0  0  0  0  0
   45.9147    8.8464   12.6641 H   0  0  0  0  0  0  0  0  0  0  0  0
   48.7742    8.8749   13.3087 H   0  0  0  0  0  0  0  0  0  0  0  0
   48.2545    7.8363   15.5325 H   0  0  0  0  0  0  0  0  0  0  0  0
   49.5341    9.0362   15.7064 H   0  0  0  0  0  0  0  0  0  0  0  0
   49.9427    7.3184   15.6930 H   0  0  0  0  0  0  0  0  0  0  0  0
   51.0660    9.5880   13.8274 H   0  0  0  0  0  0  0  0  0  0  0  0
   51.0154    8.6787   12.3137 H   0  0  0  0  0  0  0  0  0  0  0  0
   51.6335    7.9106   13.7850 H   0  0  0  0  0  0  0  0  0  0  0  0
   45.5024    5.6424   12.3718 H   0  0  0  0  0  0  0  0  0  0  0  0
   48.8814    6.7088   12.6247 H   0  0  0  0  0  0  0  0  0  0  0  0
   48.8734    7.5129   11.0002 H   0  0  0  0  0  0  0  0  0  0  0  0
   48.9229    6.6623   15.2150 H   0  0  0  0  0  0  0  0  0  0  0  0
   51.3788    9.8156   13.6271 H   0  0  0  0  0  0  0  0  0  0  0  0
   45.2662    4.9242   13.5376 H   0  0  0  0  0  0  0  0  0  0  0  0
   47.9379    5.3955   11.9050 H   0  0  0  0  0  0  0  0  0  0  0  0
   46.1210    7.0429   13.7760 H   0  0  0  0  0  0  0  0  0  0  0  0
   46.2651    7.2419   12.0224 H   0  0  0  0  0  0  0  0  0  0  0  0
   50.3997    7.8715   16.4044 H   0  0  0  0  0  0  0  0  0  0  0  0
   50.2481    9.1660   10.3390 H   0  0  0  0  0  0  0  0  0  0  0  0
   47.2882    4.1436   13.5173 H   0  0  0  0  0  0  0  0  0  0  0  0
   43.6958    6.7261   13.2666 H   0  0  0  0  0  0  0  0  0  0  0  0
   41.9024    5.2396   12.4371 H   0  0  0  0  0  0  0  0  0  0  0  0
   42.9873    4.3563   13.5148 H   0  0  0  0  0  0  0  0  0  0  0  0
   43.0979    4.1250   11.7588 H   0  0  0  0  0  0  0  0  0  0  0  0
   44.1520    6.0733   10.2913 H   0  0  0  0  0  0  0  0  0  0  0  0
   44.3528    7.6553   11.0825 H   0  0  0  0  0  0  0  0  0  0  0  0
   42.7432    6.9557   10.9022 H   0  0  0  0  0  0  0  0  0  0  0  0
  2  1  2  0
  3  1  1  0
  4  2  1  0
  5  3  2  0
  6  4  2  0
  7  9  1  0
  8  1  1  0
  9  8  1  0
 10  5  1  0
 11  4  1  0
 12  8  1  0
 13  7  1  0
 14 13  1  0
 15 13  1  0
  6  5  1  0
 17 16  2  0
 18 16  2  0
 19 16  1  0
 20 16  1  0
 22 21  2  0
 23 21  1  0
 24 22  1  0
 25 23  2  0
 26 24  2  0
 27 29  1  0
 28 21  1  0
 29 28  1  0
 30 25  1  0
 31 24  1  0
 32 28  1  0
 33 27  1  0
 34 33  1  0
 35 33  1  0
 26 25  1  0
  2 36  1  0
  3 37  1  0
  6 38  1  0
  7 39  1  0
  8 40  1  1
  9 41  1  0
  9 42  1  0
 10 43  1  0
 11 44  1  0
 12 45  1  0
 13 46  1  0
 14 47  1  0
 14 48  1  0
 14 49  1  0
 15 50  1  0
 15 51  1  0
 15 52  1  0
 19 53  1  0
 20 54  1  0
 22 55  1  0
 23 56  1  0
 26 57  1  0
 27 58  1  0
 28 59  1  6
 29 60  1  0
 29 61  1  0
 30 62  1  0
 31 63  1  0
 32 64  1  0
 33 65  1  0
 34 66  1  0
 34 67  1  0
 34 68  1  0
 35 69  1  0
 35 70  1  0
 35 71  1  0
M  END
> <Uni-Dock RESULT> 
ENERGY=   -6.451  LOWER_BOUND=    0.000  UPPER_BOUND=    0.000
INTER + INTRA:          -6.451
INTER:                  -6.451
INTRA:                   0.000
UNBOUND:                 0.000

$$$$

     RDKit          3D

 71 70  0  0  0  0  0  0  0  0999 V2000
   47.7557    7.9930   13.2378 C   0  0  0  0  0  0  0  0  0  0  0  0
   47.6234    8.3061   14.6028 C   0  0  0  0  0  0  0  0  0  0  0  0
   48.7301    8.6640   12.4783 C   0  0  0  0  0  0  0  0  0  0  0  0
   48.4621    9.2529   15.1868 C   0  0  0  0  0  0  0  0  0  0  0  0
   49.5575    9.6090   13.0836 C   0  0  0  0  0  0  0  0  0  0  0  0
   49.4302    9.9066   14.4349 C   0  0  0  0  0  0  0  0  0  0  0  0
   44.7439    6.8754   11.1336 N   0  0  0  0  0  0  0  0  0  0  0  0
   46.8527    6.9707   12.5772 C   0  0  2  0  0  0  0  0  0  0  0  0
   45.4792    7.5834   12.1997 C   0  0  0  0  0  0  0  0  0  0  0  0
   50.5167   10.2713   12.3724 O   0  0  0  0  0  0  0  0  0  0  0  0
   48.3636    9.5626   16.5122 O   0  0  0  0  0  0  0  0  0  0  0  0
   46.6765    5.8798   13.4857 O   0  0  0  0  0  0  0  0  0  0  0  0
   44.3521    5.4958   11.4538 C   0  0  0  0  0  0  0  0  0  0  0  0
   43.3030    5.4215   12.5634 C   0  0  0  0  0  0  0  0  0  0  0  0
   43.7890    4.8686   10.1755 C   0  0  0  0  0  0  0  0  0  0  0  0
   46.4110    6.9009   12.9056 S   0  0  0  0  0  0  0  0  0  0  0  0
   45.1575    6.3206   13.3170 O   0  0  0  0  0  0  0  0  0  0  0  0
   47.6905    6.2685   13.1050 O   0  0  0  0  0  0  0  0  0  0  0  0
   46.5234    8.3680   13.5435 O   0  0  0  0  0  0  0  0  0  0  0  0
   46.2535    7.2436   11.3469 O   0  0  0  0  0  0  0  0  0  0  0  0
   45.0693    6.8113   11.4993 C   0  0  0  0  0  0  0  0  0  0  0  0
   45.7245    6.1101   10.4706 C   0  0  0  0  0  0  0  0  0  0  0  0
   43.8339    6.3321   11.9619 C   0  0  0  0  0  0  0  0  0  0  0  0
   45.1548    4.9545    9.9383 C   0  0  0  0  0  0  0  0  0  0  0  0
   43.2796    5.1782   11.4105 C   0  0  0  0  0  0  0  0  0  0  0  0
   43.9370    4.4797   10.4072 C   0  0  0  0  0  0  0  0  0  0  0  0
   47.3442    8.8182   13.8396 N   0  0  0  0  0  0  0  0  0  0  0  0
   45.7275    8.0288   12.1127 C   0  0  2  0  0  0  0  0  0  0  0  0
   46.7455    7.6249   13.2056 C   0  0  0  0  0  0  0  0  0  0  0  0
   42.0798    4.6956   11.8427 O   0  0  0  0  0  0  0  0  0  0  0  0
   45.7812    4.2453    8.9565 O   0  0  0  0  0  0  0  0  0  0  0  0
   44.7438    8.9070   12.6711 O   0  0  0  0  0  0  0  0  0  0  0  0
   48.4466    8.4838   14.7574 C   0  0  0  0  0  0  0  0  0  0  0  0
   48.8246    9.7502   15.5307 C   0  0  0  0  0  0  0  0  0  0  0  0
   49.6782    7.9576   14.0162 C   0  0  0  0  0  0  0  0  0  0  0  0
   46.8652    7.8002   15.1969 H   0  0  0  0  0  0  0  0  0  0  0  0
   48.8339    8.4424   11.4192 H   0  0  0  0  0  0  0  0  0  0  0  0
   50.0817   10.6404   14.8992 H   0  0  0  0  0  0  0  0  0  0  0  0
   43.9114    7.4141   10.8987 H   0  0  0  0  0  0  0  0  0  0  0  0
   47.3428    6.5739   11.6792 H   0  0  0  0  0  0  0  0  0  0  0  0
   44.8480    7.6825   13.0905 H   0  0  0  0  0  0  0  0  0  0  0  0
   45.6413    8.5993   11.8206 H   0  0  0  0  0  0  0  0  0  0  0  0
   50.4910    9.9635   11.4508 H   0  0  0  0  0  0  0  0  0  0  0  0
   47.6748    9.0059   16.9087 H   0  0  0  0  0  0  0  0  0  0  0  0
   47.5190    5.3977   13.4933 H   0  0  0  0  0  0  0  0  0  0  0  0
   45.2295    4.9015   11.7312 H   0  0  0  0  0  0  0  0  0  0  0  0
   43.7002    5.7701   13.5203 H   0  0  0  0  0  0  0  0  0  0  0  0
   42.9627    4.3907   12.7074 H   0  0  0  0  0  0  0  0  0  0  0  0
   42.4248    6.0263   12.3154 H   0  0  0  0  0  0  0  0  0  0  0  0
   43.5094    3.8240   10.3491 H   0  0  0  0  0  0  0  0  0  0  0  0
   44.5331    4.8814    9.3719 H   0  0  0  0  0  0  0  0  0  0  0  0
   42.8999    5.4003    9.8191 H   0  0  0  0  0  0  0  0  0  0  0  0
   47.4599    8.6407   13.4848 H   0  0  0  0  0  0  0  0  0  0  0  0
   45.3137    7.0895   11.1171 H   0  0  0  0  0  0  0  0  0  0  0  0
   46.6834    6.4648   10.1075 H   0  0  0  0  0  0  0  0  0  0  0  0
   43.3200    6.8647   12.7567 H   0  0  0  0  0  0  0  0  0  0  0  0
   43.5017    3.5764    9.9908 H   0  0  0  0  0  0  0  0  0  0  0  0
   46.6060    9.2621   14.3879 H   0  0  0  0  0  0  0  0  0  0  0  0
   46.2326    8.5891   11.3165 H   0  0  0  0  0  0  0  0  0  0  0  0
   46.2431    7.0310   13.9789 H   0  0  0  0  0  0  0  0  0  0  0  0
   47.5123    6.9941   12.7446 H   0  0  0  0  0  0  0  0  0  0  0  0
   41.6912    5.3446   12.4498 H   0  0  0  0  0  0  0  0  0  0  0  0
   46.5941    4.7112    8.7017 H   0  0  0  0  0  0  0  0  0  0  0  0
   45.2121    9.7485   12.8008 H   0  0  0  0  0  0  0  0  0  0  0  0
   48.1073    7.7361   15.4852 H   0  0  0  0  0  0  0  0  0  0  0  0
   49.6170    9.5371   16.2543 H   0  0  0  0  0  0  0  0  0  0  0  0
   47.9672   10.1441   16.0865 H   0  0  0  0  0  0  0  0  0  0  0  0
   49.1868   10.5359   14.8583 H   0  0  0  0  0  0  0  0  0  0  0  0
   49.9598    8.6190   13.1883 H   0  0  0  0  0  0  0  0  0  0  0  0
   49.5013    6.9520   13.6125 H   0  0  0  0  0  0  0  0  0  0  0  0
   50.5366    7.8858   14.6936 H   0  0  0  0  0  0  0  0  0  0  0  0
  2  1  2  0
  3  1  1  0
  4  2  1  0
  5  3  2  0
  6  4  2  0
  7  9  1  0
  8  1  1  0
  9  8  1  0
 10  5  1  0
 11  4  1  0
 12  8  1  0
 13  7  1  0
 14 13  1  0
 15 13  1  0
  6  5  1  0
 17 16  2  0
 18 16  2  0
 19 16  1  0
 20 16  1  0
 22 21  2  0
 23 21  1  0
 24 22  1  0
 25 23  2  0
 26 24  2  0
 27 29  1  0
 28 21  1  0
 29 28  1  0
 30 25  1  0
 31 24  1  0
 32 28  1  0
 33 27  1  0
 34 33  1  0
 35 33  1  0
 26 25  1  0
  2 36  1  0
  3 37  1  0
  6 38  1  0
  7 39  1  0
  8 40  1  1
  9 41  1  0
  9 42  1  0
 10 43  1  0
 11 44  1  0
 12 45  1  0
 13 46  1  0
 14 47  1  0
 14 48  1  0
 14 49  1  0
 15 50  1  0
 15 51  1  0
 15 52  1  0
 19 53  1  0
 20 54  1  0
 22 55  1  0
 23 56  1  0
 26 57  1  0
 27 58  1  0
 28 59  1  6
 29 60  1  0
 29 61  1  0
 30 62  1  0
 31 63  1  0
 32 64  1  0
 33 65  1  0
 34 66  1  0
 34 67  1  0
 34 68  1  0
 35 69  1  0
 35 70  1  0
 35 71  1  0
M  END
> <Uni-Dock RESULT> 
ENERGY=   -6.273  LOWER_BOUND=    1.340  UPPER_BOUND=    5.887
INTER + INTRA:          -6.273
INTER:                  -6.273
INTRA:                   0.000
UNBOUND:                 0.000

$$$$

     RDKit          3D

 71 70  0  0  0  0  0  0  0  0999 V2000
   45.5426    6.1392   12.1819 C   0  0  0  0  0  0  0  0  0  0  0  0
   45.4282    5.7980   10.8220 C   0  0  0  0  0  0  0  0  0  0  0  0
   44.6087    5.6172   13.0941 C   0  0  0  0  0  0  0  0  0  0  0  0
   44.4145    4.9407   10.3998 C   0  0  0  0  0  0  0  0  0  0  0  0
   43.6015    4.7621   12.6486 C   0  0  0  0  0  0  0  0  0  0  0  0
   43.4997    4.4192   11.3059 C   0  0  0  0  0  0  0  0  0  0  0  0
   46.9599    9.5327   13.2878 N   0  0  0  0  0  0  0  0  0  0  0  0
   46.6329    7.0736   12.6664 C   0  0  2  0  0  0  0  0  0  0  0  0
   46.2570    8.5592   12.4295 C   0  0  0  0  0  0  0  0  0  0  0  0
   42.6850    4.2349   13.5126 O   0  0  0  0  0  0  0  0  0  0  0  0
   44.2921    4.5827    9.0886 O   0  0  0  0  0  0  0  0  0  0  0  0
   47.8389    6.7497   11.9684 O   0  0  0  0  0  0  0  0  0  0  0  0
   48.4176    9.5853   13.1101 C   0  0  0  0  0  0  0  0  0  0  0  0
   48.8273   10.1279   11.7408 C   0  0  0  0  0  0  0  0  0  0  0  0
   48.9829   10.4902   14.2083 C   0  0  0  0  0  0  0  0  0  0  0  0
   46.8261    7.3482   12.2247 S   0  0  0  0  0  0  0  0  0  0  0  0
   47.6836    8.2680   11.5206 O   0  0  0  0  0  0  0  0  0  0  0  0
   47.2181    6.0123   12.5969 O   0  0  0  0  0  0  0  0  0  0  0  0
   45.4531    7.2095   11.4078 O   0  0  0  0  0  0  0  0  0  0  0  0
   46.3347    8.1171   13.5434 O   0  0  0  0  0  0  0  0  0  0  0  0
   47.0034    9.0896   13.0746 C   0  0  0  0  0  0  0  0  0  0  0  0
   47.4350    8.7726   14.3756 C   0  0  0  0  0  0  0  0  0  0  0  0
   47.7652    9.9876   12.3111 C   0  0  0  0  0  0  0  0  0  0  0  0
   48.6061    9.3351   14.8810 C   0  0  0  0  0  0  0  0  0  0  0  0
   48.9295   10.5432   12.8390 C   0  0  0  0  0  0  0  0  0  0  0  0
   49.3610   10.2152   14.1169 C   0  0  0  0  0  0  0  0  0  0  0  0
   44.8915    6.4073   11.3353 N   0  0  0  0  0  0  0  0  0  0  0  0
   45.7646    8.4242   12.5137 C   0  0  2  0  0  0  0  0  0  0  0  0
   46.0927    7.0288   11.9312 C   0  0  0  0  0  0  0  0  0  0  0  0
   49.6839   11.4193   12.1163 O   0  0  0  0  0  0  0  0  0  0  0  0
   49.0566    9.0262   16.1304 O   0  0  0  0  0  0  0  0  0  0  0  0
   45.1677    9.2414   11.5005 O   0  0  0  0  0  0  0  0  0  0  0  0
   45.1144    5.0087   10.9304 C   0  0  0  0  0  0  0  0  0  0  0  0
   43.9016    4.5484   10.1169 C   0  0  0  0  0  0  0  0  0  0  0  0
   45.2986    4.0798   12.1330 C   0  0  0  0  0  0  0  0  0  0  0  0
   46.1394    6.2053   10.1064 H   0  0  0  0  0  0  0  0  0  0  0  0
   44.6765    5.8837   14.1457 H   0  0  0  0  0  0  0  0  0  0  0  0
   42.7151    3.7491   10.9684 H   0  0  0  0  0  0  0  0  0  0  0  0
   46.5684   10.4583   13.1193 H   0  0  0  0  0  0  0  0  0  0  0  0
   46.8159    6.9016   13.7347 H   0  0  0  0  0  0  0  0  0  0  0  0
   46.3904    8.8227   11.3738 H   0  0  0  0  0  0  0  0  0  0  0  0
   45.1906    8.6897   12.6489 H   0  0  0  0  0  0  0  0  0  0  0  0
   42.8784    4.5577   14.4088 H   0  0  0  0  0  0  0  0  0  0  0  0
   45.0154    4.9925    8.5882 H   0  0  0  0  0  0  0  0  0  0  0  0
   48.1460    5.9068   12.3394 H   0  0  0  0  0  0  0  0  0  0  0  0
   48.8598    8.5951   13.2651 H   0  0  0  0  0  0  0  0  0  0  0  0
   48.5265    9.4563   10.9325 H   0  0  0  0  0  0  0  0  0  0  0  0
   49.9141   10.2462   11.6794 H   0  0  0  0  0  0  0  0  0  0  0  0
   48.3786   11.1094   11.5565 H   0  0  0  0  0  0  0  0  0  0  0  0
   50.0751   10.5398   14.1431 H   0  0  0  0  0  0  0  0  0  0  0  0
   48.7293   10.1060   15.2021 H   0  0  0  0  0  0  0  0  0  0  0  0
   48.5945   11.5119   14.1335 H   0  0  0  0  0  0  0  0  0  0  0  0
   44.9991    6.4081   11.7343 H   0  0  0  0  0  0  0  0  0  0  0  0
   46.6391    9.0446   13.4599 H   0  0  0  0  0  0  0  0  0  0  0  0
   46.8600    8.0746   14.9751 H   0  0  0  0  0  0  0  0  0  0  0  0
   47.4422   10.2383   11.3049 H   0  0  0  0  0  0  0  0  0  0  0  0
   50.2744   10.6457   14.5156 H   0  0  0  0  0  0  0  0  0  0  0  0
   44.6686    6.9432   10.4952 H   0  0  0  0  0  0  0  0  0  0  0  0
   45.0252    8.3318   13.3184 H   0  0  0  0  0  0  0  0  0  0  0  0
   46.8617    7.1227   11.1547 H   0  0  0  0  0  0  0  0  0  0  0  0
   46.5027    6.4088   12.7349 H   0  0  0  0  0  0  0  0  0  0  0  0
   49.2006   11.6403   11.3049 H   0  0  0  0  0  0  0  0  0  0  0  0
   48.4148    8.4375   16.5596 H   0  0  0  0  0  0  0  0  0  0  0  0
   44.2734    8.8782   11.3884 H   0  0  0  0  0  0  0  0  0  0  0  0
   45.9960    4.9486   10.2801 H   0  0  0  0  0  0  0  0  0  0  0  0
   44.0430    3.5231    9.7621 H   0  0  0  0  0  0  0  0  0  0  0  0
   43.7513    5.1841    9.2380 H   0  0  0  0  0  0  0  0  0  0  0  0
   42.9853    4.5722   10.7173 H   0  0  0  0  0  0  0  0  0  0  0  0
   44.5001    4.2182   12.8715 H   0  0  0  0  0  0  0  0  0  0  0  0
   46.2631    4.2542   12.6277 H   0  0  0  0  0  0  0  0  0  0  0  0
   45.2840    3.0303   11.8176 H   0  0  0  0  0  0  0  0  0  0  0  0
  2  1  2  0
  3  1  1  0
  4  2  1  0
  5  3  2  0
  6  4  2  0
  7  9  1  0
  8  1  1  0
  9  8  1  0
 10  5  1  0
 11  4  1  0
 12  8  1  0
 13  7  1  0
 14 13  1  0
 15 13  1  0
  6  5  1  0
 17 16  2  0
 18 16  2  0
 19 16  1  0
 20 16  1  0
 22 21  2  0
 23 21  1  0
 24 22  1  0
 25 23  2  0
 26 24  2  0
 27 29  1  0
 28 21  1  0
 29 28  1  0
 30 25  1  0
 31 24  1  0
 32 28  1  0
 33 27  1  0
 34 33  1  0
 35 33  1  0
 26 25  1  0
  2 36  1  0
  3 37  1  0
  6 38  1  0
  7 39  1  0
  8 40  1  1
  9 41  1  0
  9 42  1  0
 10 43  1  0
 11 44  1  0
 12 45  1  0
 13 46  1  0
 14 47  1  0
 14 48  1  0
 14 49  1  0
 15 50  1  0
 15 51  1  0
 15 52  1  0
 19 53  1  0
 20 54  1  0
 22 55  1  0
 23 56  1  0
 26 57  1  0
 27 58  1  0
 28 59  1  6
 29 60  1  0
 29 61  1  0
 30 62  1  0
 31 63  1  0
 32 64  1  0
 33 65  1  0
 34 66  1  0
 34 67  1  0
 34 68  1  0
 35 69  1  0
 35 70  1  0
 35 71  1  0
M  END
> <Uni-Dock RESULT> 
ENERGY=   -6.024  LOWER_BOUND=    1.577  UPPER_BOUND=    3.039
INTER + INTRA:          -6.024
INTER:                  -6.024
INTRA:                   0.000
UNBOUND:                 0.000

$$$$

     RDKit          3D

 71 70  0  0  0  0  0  0  0  0999 V2000
   43.2167   12.0490    8.9623 C   0  0  0  0  0  0  0  0  0  0  0  0
   43.1310   11.4426    7.6960 C   0  0  0  0  0  0  0  0  0  0  0  0
   44.4476   12.5885    9.3753 C   0  0  0  0  0  0  0  0  0  0  0  0
   44.2483   11.4000    6.8648 C   0  0  0  0  0  0  0  0  0  0  0  0
   45.5530   12.5332    8.5273 C   0  0  0  0  0  0  0  0  0  0  0  0
   45.4602   11.9430    7.2728 C   0  0  0  0  0  0  0  0  0  0  0  0
   41.0534   10.8644   11.9058 N   0  0  0  0  0  0  0  0  0  0  0  0
   42.0177   12.1041    9.8876 C   0  0  2  0  0  0  0  0  0  0  0  0
   41.8262   10.7687   10.6520 C   0  0  0  0  0  0  0  0  0  0  0  0
   46.7590   13.0547    8.8990 O   0  0  0  0  0  0  0  0  0  0  0  0
   44.1863   10.8309    5.6260 O   0  0  0  0  0  0  0  0  0  0  0  0
   40.8601   12.3946    9.0988 O   0  0  0  0  0  0  0  0  0  0  0  0
   39.6573   11.2952   11.7490 C   0  0  0  0  0  0  0  0  0  0  0  0
   38.7999   10.2656   11.0128 C   0  0  0  0  0  0  0  0  0  0  0  0
   39.0866   11.5267   13.1508 C   0  0  0  0  0  0  0  0  0  0  0  0
   41.6526   11.7258    9.7106 S   0  0  0  0  0  0  0  0  0  0  0  0
   40.4083   10.9984    9.7122 O   0  0  0  0  0  0  0  0  0  0  0  0
   41.8107   13.0416    9.1448 O   0  0  0  0  0  0  0  0  0  0  0  0
   42.7780   10.8022    9.0381 O   0  0  0  0  0  0  0  0  0  0  0  0
   42.1462   11.7682   11.2358 O   0  0  0  0  0  0  0  0  0  0  0  0
   41.1106   11.0683   11.4599 C   0  0  0  0  0  0  0  0  0  0  0  0
   41.1063   12.2289   12.2550 C   0  0  0  0  0  0  0  0  0  0  0  0
   39.9482   10.2837   11.4052 C   0  0  0  0  0  0  0  0  0  0  0  0
   39.9590   12.5904   12.9596 C   0  0  0  0  0  0  0  0  0  0  0  0
   38.8144   10.6606   12.1231 C   0  0  0  0  0  0  0  0  0  0  0  0
   38.8087   11.8153   12.8933 C   0  0  0  0  0  0  0  0  0  0  0  0
   43.5396   11.1047    8.4970 N   0  0  0  0  0  0  0  0  0  0  0  0
   42.3413   10.7201   10.6500 C   0  0  2  0  0  0  0  0  0  0  0  0
   42.3655   11.4897    9.3079 C   0  0  0  0  0  0  0  0  0  0  0  0
   37.6750    9.9127   12.0865 O   0  0  0  0  0  0  0  0  0  0  0  0
   39.9232   13.7223   13.7190 O   0  0  0  0  0  0  0  0  0  0  0  0
   42.3983    9.3114   10.3990 O   0  0  0  0  0  0  0  0  0  0  0  0
   43.7009   11.9400    7.2946 C   0  0  0  0  0  0  0  0  0  0  0  0
   44.7847   11.3084    6.4166 C   0  0  0  0  0  0  0  0  0  0  0  0
   44.1016   13.3771    7.6370 C   0  0  0  0  0  0  0  0  0  0  0  0
   42.1858   11.0125    7.3714 H   0  0  0  0  0  0  0  0  0  0  0  0
   44.5320   13.0474   10.3570 H   0  0  0  0  0  0  0  0  0  0  0  0
   46.3247   11.9083    6.6171 H   0  0  0  0  0  0  0  0  0  0  0  0
   41.0740    9.9582   12.3715 H   0  0  0  0  0  0  0  0  0  0  0  0
   42.1429   12.9275   10.6021 H   0  0  0  0  0  0  0  0  0  0  0  0
   41.3832   10.0124    9.9934 H   0  0  0  0  0  0  0  0  0  0  0  0
   42.8122   10.3870   10.9425 H   0  0  0  0  0  0  0  0  0  0  0  0
   46.6751   13.4316    9.7910 H   0  0  0  0  0  0  0  0  0  0  0  0
   43.2769   10.5309    5.4696 H   0  0  0  0  0  0  0  0  0  0  0  0
   40.9352   13.3287    8.8454 H   0  0  0  0  0  0  0  0  0  0  0  0
   39.6083   12.2589   11.2304 H   0  0  0  0  0  0  0  0  0  0  0  0
   39.1158   10.1444    9.9734 H   0  0  0  0  0  0  0  0  0  0  0  0
   37.7489   10.5730   11.0008 H   0  0  0  0  0  0  0  0  0  0  0  0
   38.8512    9.2882   11.5034 H   0  0  0  0  0  0  0  0  0  0  0  0
   38.0524   11.8824   13.0925 H   0  0  0  0  0  0  0  0  0  0  0  0
   39.6657   12.2845   13.6896 H   0  0  0  0  0  0  0  0  0  0  0  0
   39.0939   10.6093   13.7496 H   0  0  0  0  0  0  0  0  0  0  0  0
   43.5290   11.3818    8.8034 H   0  0  0  0  0  0  0  0  0  0  0  0
   41.5456   11.1842   11.7437 H   0  0  0  0  0  0  0  0  0  0  0  0
   41.9954   12.8491   12.3018 H   0  0  0  0  0  0  0  0  0  0  0  0
   39.9398    9.3864   10.7933 H   0  0  0  0  0  0  0  0  0  0  0  0
   37.9175   12.1058   13.4412 H   0  0  0  0  0  0  0  0  0  0  0  0
   43.3831   10.1435    8.1901 H   0  0  0  0  0  0  0  0  0  0  0  0
   43.2296   10.9695   11.2429 H   0  0  0  0  0  0  0  0  0  0  0  0
   41.4558   11.2675    8.7368 H   0  0  0  0  0  0  0  0  0  0  0  0
   42.3694   12.5623    9.5270 H   0  0  0  0  0  0  0  0  0  0  0  0
   37.8668    9.0882   11.6128 H   0  0  0  0  0  0  0  0  0  0  0  0
   40.8002   14.1387   13.7047 H   0  0  0  0  0  0  0  0  0  0  0  0
   43.3136    9.1501   10.1153 H   0  0  0  0  0  0  0  0  0  0  0  0
   42.7660   11.9452    6.7204 H   0  0  0  0  0  0  0  0  0  0  0  0
   44.9103   11.8779    5.4910 H   0  0  0  0  0  0  0  0  0  0  0  0
   44.5203   10.2824    6.1398 H   0  0  0  0  0  0  0  0  0  0  0  0
   45.7523   11.2857    6.9304 H   0  0  0  0  0  0  0  0  0  0  0  0
   44.9542   13.4014    8.3259 H   0  0  0  0  0  0  0  0  0  0  0  0
   43.2683   13.9249    8.0964 H   0  0  0  0  0  0  0  0  0  0  0  0
   44.3871   13.9257    6.7323 H   0  0  0  0  0  0  0  0  0  0  0  0
  2  1  2  0
  3  1  1  0
  4  2  1  0
  5  3  2  0
  6  4  2  0
  7  9  1  0
  8  1  1  0
  9  8  1  0
 10  5  1  0
 11  4  1  0
 12  8  1  0
 13  7  1  0
 14 13  1  0
 15 13  1  0
  6  5  1  0
 17 16  2  0
 18 16  2  0
 19 16  1  0
 20 16  1  0
 22 21  2  0
 23 21  1  0
 24 22  1  0
 25 23  2  0
 26 24  2  0
 27 29  1  0
 28 21  1  0
 29 28  1  0
 30 25  1  0
 31 24  1  0
 32 28  1  0
 33 27  1  0
 34 33  1  0
 35 33  1  0
 26 25  1  0
  2 36  1  0
  3 37  1  0
  6 38  1  0
  7 39  1  0
  8 40  1  1
  9 41  1  0
  9 42  1  0
 10 43  1  0
 11 44  1  0
 12 45  1  0
 13 46  1  0
 14 47  1  0
 14 48  1  0
 14 49  1  0
 15 50  1  0
 15 51  1  0
 15 52  1  0
 19 53  1  0
 20 54  1  0
 22 55  1  0
 23 56  1  0
 26 57  1  0
 27 58  1  0
 28 59  1  6
 29 60  1  0
 29 61  1  0
 30 62  1  0
 31 63  1  0
 32 64  1  0
 33 65  1  0
 34 66  1  0
 34 67  1  0
 34 68  1  0
 35 69  1  0
 35 70  1  0
 35 71  1  0
M  END
> <Uni-Dock RESULT> 
ENERGY=   -5.851  LOWER_BOUND=    6.826  UPPER_BOUND=    9.157
INTER + INTRA:          -5.851
INTER:                  -5.851
INTRA:                   0.000
UNBOUND:                 0.000

$$$$

     RDKit          3D

 71 70  0  0  0  0  0  0  0  0999 V2000
   47.9763    9.3147   19.9249 C   0  0  0  0  0  0  0  0  0  0  0  0
   46.6557    9.7967   19.8748 C   0  0  0  0  0  0  0  0  0  0  0  0
   49.0223   10.2229   20.1653 C   0  0  0  0  0  0  0  0  0  0  0  0
   46.3979   11.1502   20.0808 C   0  0  0  0  0  0  0  0  0  0  0  0
   48.7408   11.5735   20.3672 C   0  0  0  0  0  0  0  0  0  0  0  0
   47.4335   12.0427   20.3279 C   0  0  0  0  0  0  0  0  0  0  0  0
   49.0889    6.2881   17.8395 N   0  0  0  0  0  0  0  0  0  0  0  0
   48.2843    7.8480   19.6993 C   0  0  2  0  0  0  0  0  0  0  0  0
   48.3217    7.4996   18.1888 C   0  0  0  0  0  0  0  0  0  0  0  0
   49.7355   12.4770   20.6093 O   0  0  0  0  0  0  0  0  0  0  0  0
   45.1242   11.6394   20.0524 O   0  0  0  0  0  0  0  0  0  0  0  0
   47.2791    7.0754   20.3619 O   0  0  0  0  0  0  0  0  0  0  0  0
   48.5667    5.0337   18.3991 C   0  0  0  0  0  0  0  0  0  0  0  0
   47.2117    4.6420   17.8095 C   0  0  0  0  0  0  0  0  0  0  0  0
   49.5906    3.9350   18.1009 C   0  0  0  0  0  0  0  0  0  0  0  0
   47.8439    7.6213   19.4494 S   0  0  0  0  0  0  0  0  0  0  0  0
   47.0633    6.5549   18.8745 O   0  0  0  0  0  0  0  0  0  0  0  0
   47.9502    7.8625   20.8662 O   0  0  0  0  0  0  0  0  0  0  0  0
   47.3781    9.0047   18.7853 O   0  0  0  0  0  0  0  0  0  0  0  0
   49.3232    7.4639   18.8507 O   0  0  0  0  0  0  0  0  0  0  0  0
   48.8215    6.4972   18.1978 C   0  0  0  0  0  0  0  0  0  0  0  0
   49.9308    6.0661   18.9478 C   0  0  0  0  0  0  0  0  0  0  0  0
   48.0046    5.5334   17.5865 C   0  0  0  0  0  0  0  0  0  0  0  0
   50.1958    4.7044   19.0862 C   0  0  0  0  0  0  0  0  0  0  0  0
   48.2921    4.1773   17.7326 C   0  0  0  0  0  0  0  0  0  0  0  0
   49.3779    3.7553   18.4873 C   0  0  0  0  0  0  0  0  0  0  0  0
   47.3524    9.8851   19.2194 N   0  0  0  0  0  0  0  0  0  0  0  0
   48.5077    7.9754   18.1070 C   0  0  2  0  0  0  0  0  0  0  0  0
   47.7040    8.4546   19.3392 C   0  0  0  0  0  0  0  0  0  0  0  0
   47.5137    3.2238   17.1461 O   0  0  0  0  0  0  0  0  0  0  0  0
   51.2517    4.2614   19.8264 O   0  0  0  0  0  0  0  0  0  0  0  0
   47.7742    8.2632   16.9113 O   0  0  0  0  0  0  0  0  0  0  0  0
   46.7450   10.4279   20.4466 C   0  0  0  0  0  0  0  0  0  0  0  0
   46.2056   11.8264   20.1339 C   0  0  0  0  0  0  0  0  0  0  0  0
   47.7489   10.5191   21.5985 C   0  0  0  0  0  0  0  0  0  0  0  0
   45.8402    9.1038   19.6786 H   0  0  0  0  0  0  0  0  0  0  0  0
   50.0489    9.8667   20.1926 H   0  0  0  0  0  0  0  0  0  0  0  0
   47.2228   13.0952   20.4906 H   0  0  0  0  0  0  0  0  0  0  0  0
   49.1307    6.2101   16.8242 H   0  0  0  0  0  0  0  0  0  0  0  0
   49.2475    7.5997   20.1627 H   0  0  0  0  0  0  0  0  0  0  0  0
   47.3037    7.4291   17.7883 H   0  0  0  0  0  0  0  0  0  0  0  0
   48.8095    8.3218   17.6518 H   0  0  0  0  0  0  0  0  0  0  0  0
   50.5883   12.0105   20.6092 H   0  0  0  0  0  0  0  0  0  0  0  0
   44.5130   10.9000   19.9064 H   0  0  0  0  0  0  0  0  0  0  0  0
   47.4625    7.1539   21.3119 H   0  0  0  0  0  0  0  0  0  0  0  0
   48.4921    5.1012   19.4899 H   0  0  0  0  0  0  0  0  0  0  0  0
   46.4292    5.3539   18.0848 H   0  0  0  0  0  0  0  0  0  0  0  0
   46.9000    3.6574   18.1734 H   0  0  0  0  0  0  0  0  0  0  0  0
   47.2588    4.5891   16.7169 H   0  0  0  0  0  0  0  0  0  0  0  0
   49.2660    2.9794   18.5261 H   0  0  0  0  0  0  0  0  0  0  0  0
   50.5645    4.1771   18.5398 H   0  0  0  0  0  0  0  0  0  0  0  0
   49.7330    3.7932   17.0239 H   0  0  0  0  0  0  0  0  0  0  0  0
   47.7101    9.7274   19.3532 H   0  0  0  0  0  0  0  0  0  0  0  0
   49.2763    6.7707   18.1599 H   0  0  0  0  0  0  0  0  0  0  0  0
   50.5674    6.7994   19.4318 H   0  0  0  0  0  0  0  0  0  0  0  0
   47.1446    5.8549   17.0063 H   0  0  0  0  0  0  0  0  0  0  0  0
   49.5880    2.6964   18.6033 H   0  0  0  0  0  0  0  0  0  0  0  0
   46.6610    9.9568   18.4714 H   0  0  0  0  0  0  0  0  0  0  0  0
   49.4527    8.5276   18.0361 H   0  0  0  0  0  0  0  0  0  0  0  0
   46.7790    7.8717   19.4281 H   0  0  0  0  0  0  0  0  0  0  0  0
   48.3046    8.2677   20.2351 H   0  0  0  0  0  0  0  0  0  0  0  0
   46.8770    3.6663   16.5634 H   0  0  0  0  0  0  0  0  0  0  0  0
   51.7535    5.0276   20.1486 H   0  0  0  0  0  0  0  0  0  0  0  0
   47.8432    9.2270   16.8077 H   0  0  0  0  0  0  0  0  0  0  0  0
   45.8959    9.8011   20.7467 H   0  0  0  0  0  0  0  0  0  0  0  0
   45.7099   12.2526   21.0111 H   0  0  0  0  0  0  0  0  0  0  0  0
   45.4707   11.7939   19.3226 H   0  0  0  0  0  0  0  0  0  0  0  0
   47.0108   12.5086   19.8391 H   0  0  0  0  0  0  0  0  0  0  0  0
   48.6715   11.0224   21.2862 H   0  0  0  0  0  0  0  0  0  0  0  0
   48.0089    9.5233   21.9808 H   0  0  0  0  0  0  0  0  0  0  0  0
   47.3265   11.0851   22.4365 H   0  0  0  0  0  0  0  0  0  0  0  0
  2  1  2  0
  3  1  1  0
  4  2  1  0
  5  3  2  0
  6  4  2  0
  7  9  1  0
  8  1  1  0
  9  8  1  0
 10  5  1  0
 11  4  1  0
 12  8  1  0
 13  7  1  0
 14 13  1  0
 15 13  1  0
  6  5  1  0
 17 16  2  0
 18 16  2  0
 19 16  1  0
 20 16  1  0
 22 21  2  0
 23 21  1  0
 24 22  1  0
 25 23  2  0
 26 24  2  0
 27 29  1  0
 28 21  1  0
 29 28  1  0
 30 25  1  0
 31 24  1  0
 32 28  1  0
 33 27  1  0
 34 33  1  0
 35 33  1  0
 26 25  1  0
  2 36  1  0
  3 37  1  0
  6 38  1  0
  7 39  1  0
  8 40  1  1
  9 41  1  0
  9 42  1  0
 10 43  1  0
 11 44  1  0
 12 45  1  0
 13 46  1  0
 14 47  1  0
 14 48  1  0
 14 49  1  0
 15 50  1  0
 15 51  1  0
 15 52  1  0
 19 53  1  0
 20 54  1  0
 22 55  1  0
 23 56  1  0
 26 57  1  0
 27 58  1  0
 28 59  1  6
 29 60  1  0
 29 61  1  0
 30 62  1  0
 31 63  1  0
 32 64  1  0
 33 65  1  0
 34 66  1  0
 34 67  1  0
 34 68  1  0
 35 69  1  0
 35 70  1  0
 35 71  1  0
M  END
> <Uni-Dock RESULT> 
ENERGY=   -5.215  LOWER_BOUND=    5.692  UPPER_BOUND=    8.258
INTER + INTRA:          -5.215
INTER:                  -5.215
INTRA:                   0.000
UNBOUND:                 0.000

$$$$

     RDKit          3D

 71 70  0  0  0  0  0  0  0  0999 V2000
   47.6786   11.1436   20.0881 C   0  0  0  0  0  0  0  0  0  0  0  0
   47.3229   11.6186   18.8127 C   0  0  0  0  0  0  0  0  0  0  0  0
   48.2414   12.0394   21.0141 C   0  0  0  0  0  0  0  0  0  0  0  0
   47.5112   12.9607   18.4896 C   0  0  0  0  0  0  0  0  0  0  0  0
   48.4220   13.3781   20.6683 C   0  0  0  0  0  0  0  0  0  0  0  0
   48.0585   13.8447   19.4110 C   0  0  0  0  0  0  0  0  0  0  0  0
   48.8425    7.5242   20.6293 N   0  0  0  0  0  0  0  0  0  0  0  0
   47.4888    9.6875   20.4630 C   0  0  2  0  0  0  0  0  0  0  0  0
   48.6439    8.8050   19.9232 C   0  0  0  0  0  0  0  0  0  0  0  0
   48.9599   14.2719   21.5492 O   0  0  0  0  0  0  0  0  0  0  0  0
   47.1599   13.4487   17.2646 O   0  0  0  0  0  0  0  0  0  0  0  0
   46.2373    9.2495   19.9262 O   0  0  0  0  0  0  0  0  0  0  0  0
   47.7160    6.5840   20.5487 C   0  0  0  0  0  0  0  0  0  0  0  0
   47.4919    6.0496   19.1340 C   0  0  0  0  0  0  0  0  0  0  0  0
   48.0211    5.4179   21.4929 C   0  0  0  0  0  0  0  0  0  0  0  0
   47.4300    9.4000   19.9922 S   0  0  0  0  0  0  0  0  0  0  0  0
   47.2049    8.2245   19.1893 O   0  0  0  0  0  0  0  0  0  0  0  0
   46.3773   10.1433   20.6373 O   0  0  0  0  0  0  0  0  0  0  0  0
   48.2656   10.4558   19.1211 O   0  0  0  0  0  0  0  0  0  0  0  0
   48.5079    8.9814   21.1033 O   0  0  0  0  0  0  0  0  0  0  0  0
   48.5018    7.8600   20.5075 C   0  0  0  0  0  0  0  0  0  0  0  0
   48.2009    7.6979   21.8722 C   0  0  0  0  0  0  0  0  0  0  0  0
   48.3271    6.7676   19.6437 C   0  0  0  0  0  0  0  0  0  0  0  0
   47.7255    6.4752   22.3437 C   0  0  0  0  0  0  0  0  0  0  0  0
   47.8568    5.5522   20.1381 C   0  0  0  0  0  0  0  0  0  0  0  0
   47.5452    5.4010   21.4823 C   0  0  0  0  0  0  0  0  0  0  0  0
   48.1986   11.4346   19.1621 N   0  0  0  0  0  0  0  0  0  0  0  0
   48.9571    9.2102   19.9963 C   0  0  2  0  0  0  0  0  0  0  0  0
   47.7517   10.1381   19.7132 C   0  0  0  0  0  0  0  0  0  0  0  0
   47.6816    4.4771   19.3180 O   0  0  0  0  0  0  0  0  0  0  0  0
   47.4058    6.3004   23.6577 O   0  0  0  0  0  0  0  0  0  0  0  0
   49.7408    9.0616   18.8070 O   0  0  0  0  0  0  0  0  0  0  0  0
   47.1035   12.4128   19.0461 C   0  0  0  0  0  0  0  0  0  0  0  0
   47.6197   13.6150   18.2505 C   0  0  0  0  0  0  0  0  0  0  0  0
   46.6038   12.8879   20.4127 C   0  0  0  0  0  0  0  0  0  0  0  0
   46.8967   10.9311   18.0852 H   0  0  0  0  0  0  0  0  0  0  0  0
   48.5342   11.6830   21.9983 H   0  0  0  0  0  0  0  0  0  0  0  0
   48.1985   14.8896   19.1516 H   0  0  0  0  0  0  0  0  0  0  0  0
   49.6802    7.0755   20.2613 H   0  0  0  0  0  0  0  0  0  0  0  0
   47.4281    9.5945   21.5547 H   0  0  0  0  0  0  0  0  0  0  0  0
   48.5178    8.6270   18.8488 H   0  0  0  0  0  0  0  0  0  0  0  0
   49.5864    9.3533   20.0377 H   0  0  0  0  0  0  0  0  0  0  0  0
   49.1627   13.8091   22.3796 H   0  0  0  0  0  0  0  0  0  0  0  0
   46.7631   12.7294   16.7482 H   0  0  0  0  0  0  0  0  0  0  0  0
   45.5505    9.6667   20.4708 H   0  0  0  0  0  0  0  0  0  0  0  0
   46.7975    7.0520   20.9192 H   0  0  0  0  0  0  0  0  0  0  0  0
   47.1749    6.8396   18.4481 H   0  0  0  0  0  0  0  0  0  0  0  0
   46.7126    5.2804   19.1285 H   0  0  0  0  0  0  0  0  0  0  0  0
   48.4051    5.5955   18.7358 H   0  0  0  0  0  0  0  0  0  0  0  0
   47.1951    4.6987   21.4972 H   0  0  0  0  0  0  0  0  0  0  0  0
   48.1557    5.7709   22.5210 H   0  0  0  0  0  0  0  0  0  0  0  0
   48.9312    4.8837   21.1988 H   0  0  0  0  0  0  0  0  0  0  0  0
   48.1852   11.3250   19.5603 H   0  0  0  0  0  0  0  0  0  0  0  0
   48.8231    8.0842   20.8675 H   0  0  0  0  0  0  0  0  0  0  0  0
   48.3244    8.5355   22.5507 H   0  0  0  0  0  0  0  0  0  0  0  0
   48.5549    6.8819   18.5880 H   0  0  0  0  0  0  0  0  0  0  0  0
   47.1702    4.4532   21.8561 H   0  0  0  0  0  0  0  0  0  0  0  0
   48.5517   11.2491   18.2221 H   0  0  0  0  0  0  0  0  0  0  0  0
   49.6126    9.6640   20.7495 H   0  0  0  0  0  0  0  0  0  0  0  0
   47.0792    9.6617   18.9894 H   0  0  0  0  0  0  0  0  0  0  0  0
   47.1964   10.2743   20.6467 H   0  0  0  0  0  0  0  0  0  0  0  0
   48.0491    4.6951   18.4472 H   0  0  0  0  0  0  0  0  0  0  0  0
   47.6181    7.1135   24.1440 H   0  0  0  0  0  0  0  0  0  0  0  0
   50.1918    9.9160   18.7026 H   0  0  0  0  0  0  0  0  0  0  0  0
   46.2719   11.9710   18.4830 H   0  0  0  0  0  0  0  0  0  0  0  0
   46.8239   14.3518   18.1071 H   0  0  0  0  0  0  0  0  0  0  0  0
   47.9708   13.3108   17.2588 H   0  0  0  0  0  0  0  0  0  0  0  0
   48.4474   14.1117   18.7690 H   0  0  0  0  0  0  0  0  0  0  0  0
   47.4342   13.2079   21.0532 H   0  0  0  0  0  0  0  0  0  0  0  0
   46.0499   12.0951   20.9325 H   0  0  0  0  0  0  0  0  0  0  0  0
   45.9207   13.7376   20.3014 H   0  0  0  0  0  0  0  0  0  0  0  0
  2  1  2  0
  3  1  1  0
  4  2  1  0
  5  3  2  0
  6  4  2  0
  7  9  1  0
  8  1  1  0
  9  8  1  0
 10  5  1  0
 11  4  1  0
 12  8  1  0
 13  7  1  0
 14 13  1  0
 15 13  1  0
  6  5  1  0
 17 16  2  0
 18 16  2  0
 19 16  1  0
 20 16  1  0
 22 21  2  0
 23 21  1  0
 24 22  1  0
 25 23  2  0
 26 24  2  0
 27 29  1  0
 28 21  1  0
 29 28  1  0
 30 25  1  0
 31 24  1  0
 32 28  1  0
 33 27  1  0
 34 33  1  0
 35 33  1  0
 26 25  1  0
  2 36  1  0
  3 37  1  0
  6 38  1  0
  7 39  1  0
  8 40  1  1
  9 41  1  0
  9 42  1  0
 10 43  1  0
 11 44  1  0
 12 45  1  0
 13 46  1  0
 14 47  1  0
 14 48  1  0
 14 49  1  0
 15 50  1  0
 15 51  1  0
 15 52  1  0
 19 53  1  0
 20 54  1  0
 22 55  1  0
 23 56  1  0
 26 57  1  0
 27 58  1  0
 28 59  1  6
 29 60  1  0
 29 61  1  0
 30 62  1  0
 31 63  1  0
 32 64  1  0
 33 65  1  0
 34 66  1  0
 34 67  1  0
 34 68  1  0
 35 69  1  0
 35 70  1  0
 35 71  1  0
M  END
> <Uni-Dock RESULT> 
ENERGY=   -5.210  LOWER_BOUND=    7.184  UPPER_BOUND=    9.434
INTER + INTRA:          -5.210
INTER:                  -5.210
INTRA:                   0.000
UNBOUND:                 0.000

$$$$

     RDKit          3D

 71 70  0  0  0  0  0  0  0  0999 V2000
   40.6763   11.5430   10.7049 C   0  0  0  0  0  0  0  0  0  0  0  0
   40.5383   12.3821   11.8255 C   0  0  0  0  0  0  0  0  0  0  0  0
   39.8097   10.4443   10.5682 C   0  0  0  0  0  0  0  0  0  0  0  0
   39.5436   12.1309   12.7680 C   0  0  0  0  0  0  0  0  0  0  0  0
   38.8223   10.2114   11.5247 C   0  0  0  0  0  0  0  0  0  0  0  0
   38.6831   11.0498   12.6240 C   0  0  0  0  0  0  0  0  0  0  0  0
   44.0887   10.9573    9.0437 N   0  0  0  0  0  0  0  0  0  0  0  0
   41.7531   11.7912    9.6678 C   0  0  2  0  0  0  0  0  0  0  0  0
   43.1255   11.2346   10.1272 C   0  0  0  0  0  0  0  0  0  0  0  0
   37.9626    9.1564   11.4145 O   0  0  0  0  0  0  0  0  0  0  0  0
   39.3799   12.9392   13.8553 O   0  0  0  0  0  0  0  0  0  0  0  0
   41.8393   13.2017    9.4449 O   0  0  0  0  0  0  0  0  0  0  0  0
   44.5127   12.1309    8.2678 C   0  0  0  0  0  0  0  0  0  0  0  0
   45.3474   13.1131    9.0899 C   0  0  0  0  0  0  0  0  0  0  0  0
   45.3394   11.6251    7.0825 C   0  0  0  0  0  0  0  0  0  0  0  0
   42.1322   12.1250    9.8972 S   0  0  0  0  0  0  0  0  0  0  0  0
   43.3289   12.9276    9.9305 O   0  0  0  0  0  0  0  0  0  0  0  0
   40.8856   12.5687    9.3266 O   0  0  0  0  0  0  0  0  0  0  0  0
   41.8039   11.6433   11.3912 O   0  0  0  0  0  0  0  0  0  0  0  0
   42.5432   10.7404    9.2003 O   0  0  0  0  0  0  0  0  0  0  0  0
   43.7082   11.2450    9.1706 C   0  0  0  0  0  0  0  0  0  0  0  0
   43.2999   10.8638    7.8794 C   0  0  0  0  0  0  0  0  0  0  0  0
   44.8707   12.0189    9.3096 C   0  0  0  0  0  0  0  0  0  0  0  0
   44.0360   11.2648    6.7656 C   0  0  0  0  0  0  0  0  0  0  0  0
   45.5951   12.4031    8.1824 C   0  0  0  0  0  0  0  0  0  0  0  0
   45.1799   12.0391    6.9089 C   0  0  0  0  0  0  0  0  0  0  0  0
   40.9135   11.4990   11.7793 N   0  0  0  0  0  0  0  0  0  0  0  0
   42.8662   10.8567   10.3673 C   0  0  2  0  0  0  0  0  0  0  0  0
   41.6991   11.8505   10.5778 C   0  0  0  0  0  0  0  0  0  0  0  0
   46.7284   13.1530    8.2937 O   0  0  0  0  0  0  0  0  0  0  0  0
   43.6481   10.9268    5.5028 O   0  0  0  0  0  0  0  0  0  0  0  0
   43.6690   10.7983   11.5517 O   0  0  0  0  0  0  0  0  0  0  0  0
   39.6902   12.3077   11.9176 C   0  0  0  0  0  0  0  0  0  0  0  0
   39.0910   12.0342   13.2999 C   0  0  0  0  0  0  0  0  0  0  0  0
   38.6524   11.9768   10.8422 C   0  0  0  0  0  0  0  0  0  0  0  0
   41.2109   13.2287   11.9462 H   0  0  0  0  0  0  0  0  0  0  0  0
   39.9141    9.7793    9.7147 H   0  0  0  0  0  0  0  0  0  0  0  0
   37.9086   10.8638   13.3617 H   0  0  0  0  0  0  0  0  0  0  0  0
   44.9099   10.5065    9.4450 H   0  0  0  0  0  0  0  0  0  0  0  0
   41.4618   11.3261    8.7176 H   0  0  0  0  0  0  0  0  0  0  0  0
   43.5775   11.9006   10.8714 H   0  0  0  0  0  0  0  0  0  0  0  0
   42.9632   10.2736   10.6296 H   0  0  0  0  0  0  0  0  0  0  0  0
   38.1754    8.6630   10.6045 H   0  0  0  0  0  0  0  0  0  0  0  0
   40.0235   13.6633   13.8010 H   0  0  0  0  0  0  0  0  0  0  0  0
   41.0452   13.4432    8.9414 H   0  0  0  0  0  0  0  0  0  0  0  0
   43.6437   12.6457    7.8437 H   0  0  0  0  0  0  0  0  0  0  0  0
   44.7609   13.5725    9.8898 H   0  0  0  0  0  0  0  0  0  0  0  0
   45.7280   13.9226    8.4582 H   0  0  0  0  0  0  0  0  0  0  0  0
   46.2112   12.6138    9.5407 H   0  0  0  0  0  0  0  0  0  0  0  0
   45.6560   12.4603    6.4486 H   0  0  0  0  0  0  0  0  0  0  0  0
   44.7530   10.9419    6.4587 H   0  0  0  0  0  0  0  0  0  0  0  0
   46.2385   11.0924    7.4114 H   0  0  0  0  0  0  0  0  0  0  0  0
   40.8764   11.3359   11.4014 H   0  0  0  0  0  0  0  0  0  0  0  0
   43.5176   10.7534    9.0985 H   0  0  0  0  0  0  0  0  0  0  0  0
   42.3994   10.2712    7.7558 H   0  0  0  0  0  0  0  0  0  0  0  0
   45.1944   12.3201   10.3016 H   0  0  0  0  0  0  0  0  0  0  0  0
   45.7455   12.3514    6.0364 H   0  0  0  0  0  0  0  0  0  0  0  0
   41.5079   11.6924   12.5867 H   0  0  0  0  0  0  0  0  0  0  0  0
   42.4745    9.8455   10.2034 H   0  0  0  0  0  0  0  0  0  0  0  0
   42.0947   12.8661   10.7013 H   0  0  0  0  0  0  0  0  0  0  0  0
   41.0742   11.8418    9.6789 H   0  0  0  0  0  0  0  0  0  0  0  0
   46.9547   13.2254    9.2341 H   0  0  0  0  0  0  0  0  0  0  0  0
   42.8636   10.3572    5.5566 H   0  0  0  0  0  0  0  0  0  0  0  0
   43.1269   10.3066   12.1910 H   0  0  0  0  0  0  0  0  0  0  0  0
   39.9448   13.3738   11.8682 H   0  0  0  0  0  0  0  0  0  0  0  0
   38.1983   12.6460   13.4601 H   0  0  0  0  0  0  0  0  0  0  0  0
   39.8045   12.2766   14.0945 H   0  0  0  0  0  0  0  0  0  0  0  0
   38.8013   10.9831   13.4089 H   0  0  0  0  0  0  0  0  0  0  0  0
   38.4785   10.8965   10.7729 H   0  0  0  0  0  0  0  0  0  0  0  0
   38.9694   12.3415    9.8563 H   0  0  0  0  0  0  0  0  0  0  0  0
   37.6932   12.4560   11.0691 H   0  0  0  0  0  0  0  0  0  0  0  0
  2  1  2  0
  3  1  1  0
  4  2  1  0
  5  3  2  0
  6  4  2  0
  7  9  1  0
  8  1  1  0
  9  8  1  0
 10  5  1  0
 11  4  1  0
 12  8  1  0
 13  7  1  0
 14 13  1  0
 15 13  1  0
  6  5  1  0
 17 16  2  0
 18 16  2  0
 19 16  1  0
 20 16  1  0
 22 21  2  0
 23 21  1  0
 24 22  1  0
 25 23  2  0
 26 24  2  0
 27 29  1  0
 28 21  1  0
 29 28  1  0
 30 25  1  0
 31 24  1  0
 32 28  1  0
 33 27  1  0
 34 33  1  0
 35 33  1  0
 26 25  1  0
  2 36  1  0
  3 37  1  0
  6 38  1  0
  7 39  1  0
  8 40  1  1
  9 41  1  0
  9 42  1  0
 10 43  1  0
 11 44  1  0
 12 45  1  0
 13 46  1  0
 14 47  1  0
 14 48  1  0
 14 49  1  0
 15 50  1  0
 15 51  1  0
 15 52  1  0
 19 53  1  0
 20 54  1  0
 22 55  1  0
 23 56  1  0
 26 57  1  0
 27 58  1  0
 28 59  1  6
 29 60  1  0
 29 61  1  0
 30 62  1  0
 31 63  1  0
 32 64  1  0
 33 65  1  0
 34 66  1  0
 34 67  1  0
 34 68  1  0
 35 69  1  0
 35 70  1  0
 35 71  1  0
M  END
> <Uni-Dock RESULT> 
ENERGY=   -5.088  LOWER_BOUND=    6.658  UPPER_BOUND=    7.993
INTER + INTRA:          -5.088
INTER:                  -5.088
INTRA:                   0.000
UNBOUND:                 0.000

$$$$

     RDKit          3D

 71 70  0  0  0  0  0  0  0  0999 V2000
   48.1565    7.5052   19.9646 C   0  0  0  0  0  0  0  0  0  0  0  0
   47.5304    6.9616   21.1009 C   0  0  0  0  0  0  0  0  0  0  0  0
   49.0631    6.7094   19.2424 C   0  0  0  0  0  0  0  0  0  0  0  0
   47.7966    5.6489   21.4843 C   0  0  0  0  0  0  0  0  0  0  0  0
   49.3153    5.3986   19.6454 C   0  0  0  0  0  0  0  0  0  0  0  0
   48.6856    4.8627   20.7622 C   0  0  0  0  0  0  0  0  0  0  0  0
   48.9414   11.2555   19.7063 N   0  0  0  0  0  0  0  0  0  0  0  0
   47.8883    8.9318   19.5292 C   0  0  2  0  0  0  0  0  0  0  0  0
   48.7260    9.9454   20.3509 C   0  0  0  0  0  0  0  0  0  0  0  0
   50.1855    4.6006   18.9597 O   0  0  0  0  0  0  0  0  0  0  0  0
   47.1902    5.0940   22.5737 O   0  0  0  0  0  0  0  0  0  0  0  0
   46.4915    9.1925   19.6955 O   0  0  0  0  0  0  0  0  0  0  0  0
   47.7233   12.0397   19.4604 C   0  0  0  0  0  0  0  0  0  0  0  0
   47.0528   12.5109   20.7509 C   0  0  0  0  0  0  0  0  0  0  0  0
   48.1202   13.2548   18.6177 C   0  0  0  0  0  0  0  0  0  0  0  0
   47.6658    9.1994   19.9613 S   0  0  0  0  0  0  0  0  0  0  0  0
   47.0782   10.3188   20.6532 O   0  0  0  0  0  0  0  0  0  0  0  0
   46.9363    8.3394   19.0642 O   0  0  0  0  0  0  0  0  0  0  0  0
   48.3615    8.2431   21.0445 O   0  0  0  0  0  0  0  0  0  0  0  0
   48.9424    9.7774   19.1816 O   0  0  0  0  0  0  0  0  0  0  0  0
   48.6272   10.8759   19.7353 C   0  0  0  0  0  0  0  0  0  0  0  0
   48.6929   11.0259   18.3381 C   0  0  0  0  0  0  0  0  0  0  0  0
   48.0819   11.9181   20.5009 C   0  0  0  0  0  0  0  0  0  0  0  0
   48.2094   12.1861   17.7351 C   0  0  0  0  0  0  0  0  0  0  0  0
   47.6104   13.0723   19.8775 C   0  0  0  0  0  0  0  0  0  0  0  0
   47.6616   13.2096   18.4973 C   0  0  0  0  0  0  0  0  0  0  0  0
   48.4365    7.2649   21.0021 N   0  0  0  0  0  0  0  0  0  0  0  0
   49.0974    9.5858   20.3729 C   0  0  2  0  0  0  0  0  0  0  0  0
   47.9924    8.5037   20.3293 C   0  0  0  0  0  0  0  0  0  0  0  0
   47.0787   14.0982   20.6013 O   0  0  0  0  0  0  0  0  0  0  0  0
   48.2416   12.3453   16.3813 O   0  0  0  0  0  0  0  0  0  0  0  0
   49.4993    9.8101   21.7289 O   0  0  0  0  0  0  0  0  0  0  0  0
   47.4888    6.1507   20.8289 C   0  0  0  0  0  0  0  0  0  0  0  0
   47.9199    5.0094   21.7542 C   0  0  0  0  0  0  0  0  0  0  0  0
   47.4487    5.6433   19.3853 C   0  0  0  0  0  0  0  0  0  0  0  0
   46.8354    7.5727   21.6729 H   0  0  0  0  0  0  0  0  0  0  0  0
   49.5650    7.1212   18.3706 H   0  0  0  0  0  0  0  0  0  0  0  0
   48.8844    3.8397   21.0663 H   0  0  0  0  0  0  0  0  0  0  0  0
   49.5805   11.8013   20.2827 H   0  0  0  0  0  0  0  0  0  0  0  0
   48.1171    9.0389   18.4613 H   0  0  0  0  0  0  0  0  0  0  0  0
   48.2886   10.0830   21.3467 H   0  0  0  0  0  0  0  0  0  0  0  0
   49.7271    9.5264   20.5077 H   0  0  0  0  0  0  0  0  0  0  0  0
   50.5457    5.1031   18.2096 H   0  0  0  0  0  0  0  0  0  0  0  0
   46.5769    5.7449   22.9502 H   0  0  0  0  0  0  0  0  0  0  0  0
   46.0406    8.7011   18.9902 H   0  0  0  0  0  0  0  0  0  0  0  0
   47.0105   11.4643   18.8597 H   0  0  0  0  0  0  0  0  0  0  0  0
   46.6660   11.6724   21.3359 H   0  0  0  0  0  0  0  0  0  0  0  0
   46.2083   13.1722   20.5306 H   0  0  0  0  0  0  0  0  0  0  0  0
   47.7548   13.0713   21.3769 H   0  0  0  0  0  0  0  0  0  0  0  0
   47.2405   13.8608   18.3760 H   0  0  0  0  0  0  0  0  0  0  0  0
   48.5760   12.9438   17.6715 H   0  0  0  0  0  0  0  0  0  0  0  0
   48.8373   13.8964   19.1416 H   0  0  0  0  0  0  0  0  0  0  0  0
   48.5184    7.3801   20.6137 H   0  0  0  0  0  0  0  0  0  0  0  0
   49.0613   10.7028   19.4808 H   0  0  0  0  0  0  0  0  0  0  0  0
   49.1056   10.2257   17.7326 H   0  0  0  0  0  0  0  0  0  0  0  0
   48.0249   11.8124   21.5803 H   0  0  0  0  0  0  0  0  0  0  0  0
   47.2829   14.1084   18.0202 H   0  0  0  0  0  0  0  0  0  0  0  0
   48.4915    7.4751   21.9998 H   0  0  0  0  0  0  0  0  0  0  0  0
   49.9874    9.2366   19.8353 H   0  0  0  0  0  0  0  0  0  0  0  0
   47.0912    8.8736   20.8335 H   0  0  0  0  0  0  0  0  0  0  0  0
   47.7364    8.3160   19.2816 H   0  0  0  0  0  0  0  0  0  0  0  0
   47.2190   13.9117   21.5427 H   0  0  0  0  0  0  0  0  0  0  0  0
   48.6831   11.5769   15.9846 H   0  0  0  0  0  0  0  0  0  0  0  0
   50.0120    9.0195   21.9663 H   0  0  0  0  0  0  0  0  0  0  0  0
   46.4846    6.4690   21.1355 H   0  0  0  0  0  0  0  0  0  0  0  0
   47.2184    4.1727   21.6856 H   0  0  0  0  0  0  0  0  0  0  0  0
   47.9432    5.3358   22.7993 H   0  0  0  0  0  0  0  0  0  0  0  0
   48.9153    4.6352   21.4902 H   0  0  0  0  0  0  0  0  0  0  0  0
   48.4570    5.4471   19.0020 H   0  0  0  0  0  0  0  0  0  0  0  0
   46.9598    6.3681   18.7212 H   0  0  0  0  0  0  0  0  0  0  0  0
   46.8782    4.7101   19.3184 H   0  0  0  0  0  0  0  0  0  0  0  0
  2  1  2  0
  3  1  1  0
  4  2  1  0
  5  3  2  0
  6  4  2  0
  7  9  1  0
  8  1  1  0
  9  8  1  0
 10  5  1  0
 11  4  1  0
 12  8  1  0
 13  7  1  0
 14 13  1  0
 15 13  1  0
  6  5  1  0
 17 16  2  0
 18 16  2  0
 19 16  1  0
 20 16  1  0
 22 21  2  0
 23 21  1  0
 24 22  1  0
 25 23  2  0
 26 24  2  0
 27 29  1  0
 28 21  1  0
 29 28  1  0
 30 25  1  0
 31 24  1  0
 32 28  1  0
 33 27  1  0
 34 33  1  0
 35 33  1  0
 26 25  1  0
  2 36  1  0
  3 37  1  0
  6 38  1  0
  7 39  1  0
  8 40  1  1
  9 41  1  0
  9 42  1  0
 10 43  1  0
 11 44  1  0
 12 45  1  0
 13 46  1  0
 14 47  1  0
 14 48  1  0
 14 49  1  0
 15 50  1  0
 15 51  1  0
 15 52  1  0
 19 53  1  0
 20 54  1  0
 22 55  1  0
 23 56  1  0
 26 57  1  0
 27 58  1  0
 28 59  1  6
 29 60  1  0
 29 61  1  0
 30 62  1  0
 31 63  1  0
 32 64  1  0
 33 65  1  0
 34 66  1  0
 34 67  1  0
 34 68  1  0
 35 69  1  0
 35 70  1  0
 35 71  1  0
M  END
> <Uni-Dock RESULT> 
ENERGY=   -5.049  LOWER_BOUND=    7.098  UPPER_BOUND=    8.424
INTER + INTRA:          -5.049
INTER:                  -5.049
INTRA:                   0.000
UNBOUND:                 0.000

$$$$

     RDKit          3D

 71 70  0  0  0  0  0  0  0  0999 V2000
   46.2423    6.9451   12.4959 C   0  0  0  0  0  0  0  0  0  0  0  0
   46.5665    5.9163   13.3988 C   0  0  0  0  0  0  0  0  0  0  0  0
   45.4982    6.6298   11.3454 C   0  0  0  0  0  0  0  0  0  0  0  0
   46.1356    4.6136   13.1574 C   0  0  0  0  0  0  0  0  0  0  0  0
   45.0788    5.3187   11.1236 C   0  0  0  0  0  0  0  0  0  0  0  0
   45.3920    4.3082   12.0244 C   0  0  0  0  0  0  0  0  0  0  0  0
   48.5525    9.9702   11.9861 N   0  0  0  0  0  0  0  0  0  0  0  0
   46.7030    8.3694   12.7325 C   0  0  2  0  0  0  0  0  0  0  0  0
   48.1725    8.5751   12.2823 C   0  0  0  0  0  0  0  0  0  0  0  0
   44.3494    4.9846   10.0188 O   0  0  0  0  0  0  0  0  0  0  0  0
   46.4241    3.6014   14.0261 O   0  0  0  0  0  0  0  0  0  0  0  0
   46.5670    8.6550   14.1276 O   0  0  0  0  0  0  0  0  0  0  0  0
   48.4816   10.8937   13.1268 C   0  0  0  0  0  0  0  0  0  0  0  0
   49.5198   10.5825   14.2049 C   0  0  0  0  0  0  0  0  0  0  0  0
   48.7119   12.3086   12.5888 C   0  0  0  0  0  0  0  0  0  0  0  0
   47.1176    8.3519   13.1007 S   0  0  0  0  0  0  0  0  0  0  0  0
   48.1302    8.9009   13.9670 O   0  0  0  0  0  0  0  0  0  0  0  0
   45.7175    8.2991   13.4377 O   0  0  0  0  0  0  0  0  0  0  0  0
   47.5472    6.8592   12.7022 O   0  0  0  0  0  0  0  0  0  0  0  0
   47.2717    9.1121   11.6971 O   0  0  0  0  0  0  0  0  0  0  0  0
   48.2507    9.6922   12.2606 C   0  0  0  0  0  0  0  0  0  0  0  0
   47.3288   10.6364   11.7732 C   0  0  0  0  0  0  0  0  0  0  0  0
   49.2837   10.1307   13.1036 C   0  0  0  0  0  0  0  0  0  0  0  0
   47.4405   11.9771   12.1385 C   0  0  0  0  0  0  0  0  0  0  0  0
   49.3802   11.4773   13.4507 C   0  0  0  0  0  0  0  0  0  0  0  0
   48.4589   12.4032   12.9811 C   0  0  0  0  0  0  0  0  0  0  0  0
   46.9470    6.1000   12.5361 N   0  0  0  0  0  0  0  0  0  0  0  0
   48.0821    8.2297   11.9078 C   0  0  2  0  0  0  0  0  0  0  0  0
   47.0663    7.5395   12.8490 C   0  0  0  0  0  0  0  0  0  0  0  0
   50.3764   11.9261   14.2663 O   0  0  0  0  0  0  0  0  0  0  0  0
   46.5463   12.9069   11.6971 O   0  0  0  0  0  0  0  0  0  0  0  0
   49.3393    7.5470   11.9714 O   0  0  0  0  0  0  0  0  0  0  0  0
   45.8630    5.4416   13.2851 C   0  0  0  0  0  0  0  0  0  0  0  0
   45.9852    3.9302   13.0719 C   0  0  0  0  0  0  0  0  0  0  0  0
   44.4779    5.9061   12.8282 C   0  0  0  0  0  0  0  0  0  0  0  0
   47.1512    6.1479   14.2866 H   0  0  0  0  0  0  0  0  0  0  0  0
   45.2527    7.4122   10.6319 H   0  0  0  0  0  0  0  0  0  0  0  0
   45.0576    3.2908   11.8462 H   0  0  0  0  0  0  0  0  0  0  0  0
   49.4987    9.9771   11.6079 H   0  0  0  0  0  0  0  0  0  0  0  0
   46.0471    9.0623   12.1903 H   0  0  0  0  0  0  0  0  0  0  0  0
   48.8609    8.1458   13.0196 H   0  0  0  0  0  0  0  0  0  0  0  0
   48.3336    8.0218   11.3495 H   0  0  0  0  0  0  0  0  0  0  0  0
   44.2063    5.7842    9.4850 H   0  0  0  0  0  0  0  0  0  0  0  0
   46.9128    3.9707   14.7786 H   0  0  0  0  0  0  0  0  0  0  0  0
   45.6144    8.7441   14.2920 H   0  0  0  0  0  0  0  0  0  0  0  0
   47.4774   10.8873   13.5647 H   0  0  0  0  0  0  0  0  0  0  0  0
   49.3298    9.6185   14.6840 H   0  0  0  0  0  0  0  0  0  0  0  0
   49.5049   11.3457   14.9900 H   0  0  0  0  0  0  0  0  0  0  0  0
   50.5303   10.5634   13.7840 H   0  0  0  0  0  0  0  0  0  0  0  0
   48.6373   13.0451   13.3959 H   0  0  0  0  0  0  0  0  0  0  0  0
   47.9609   12.5685   11.8352 H   0  0  0  0  0  0  0  0  0  0  0  0
   49.7006   12.4127   12.1284 H   0  0  0  0  0  0  0  0  0  0  0  0
   46.7542    6.4125   12.3465 H   0  0  0  0  0  0  0  0  0  0  0  0
   48.0875    9.6516   11.7558 H   0  0  0  0  0  0  0  0  0  0  0  0
   46.5209   10.3111   11.1260 H   0  0  0  0  0  0  0  0  0  0  0  0
   50.0002    9.4102   13.4870 H   0  0  0  0  0  0  0  0  0  0  0  0
   48.5368   13.4482   13.2650 H   0  0  0  0  0  0  0  0  0  0  0  0
   47.8275    5.6641   12.8144 H   0  0  0  0  0  0  0  0  0  0  0  0
   47.7394    8.1602   10.8683 H   0  0  0  0  0  0  0  0  0  0  0  0
   47.3937    7.6468   13.8904 H   0  0  0  0  0  0  0  0  0  0  0  0
   46.1026    8.0486   12.7470 H   0  0  0  0  0  0  0  0  0  0  0  0
   51.0010   11.1986   14.4130 H   0  0  0  0  0  0  0  0  0  0  0  0
   45.9204   12.4785   11.0909 H   0  0  0  0  0  0  0  0  0  0  0  0
   49.1896    6.7135   11.4947 H   0  0  0  0  0  0  0  0  0  0  0  0
   45.9824    5.6390   14.3577 H   0  0  0  0  0  0  0  0  0  0  0  0
   45.2196    3.3978   13.6440 H   0  0  0  0  0  0  0  0  0  0  0  0
   46.9615    3.5622   13.4047 H   0  0  0  0  0  0  0  0  0  0  0  0
   45.8608    3.6641   12.0163 H   0  0  0  0  0  0  0  0  0  0  0  0
   44.3768    5.8507   11.7378 H   0  0  0  0  0  0  0  0  0  0  0  0
   44.2796    6.9391   13.1431 H   0  0  0  0  0  0  0  0  0  0  0  0
   43.6943    5.2795   13.2689 H   0  0  0  0  0  0  0  0  0  0  0  0
  2  1  2  0
  3  1  1  0
  4  2  1  0
  5  3  2  0
  6  4  2  0
  7  9  1  0
  8  1  1  0
  9  8  1  0
 10  5  1  0
 11  4  1  0
 12  8  1  0
 13  7  1  0
 14 13  1  0
 15 13  1  0
  6  5  1  0
 17 16  2  0
 18 16  2  0
 19 16  1  0
 20 16  1  0
 22 21  2  0
 23 21  1  0
 24 22  1  0
 25 23  2  0
 26 24  2  0
 27 29  1  0
 28 21  1  0
 29 28  1  0
 30 25  1  0
 31 24  1  0
 32 28  1  0
 33 27  1  0
 34 33  1  0
 35 33  1  0
 26 25  1  0
  2 36  1  0
  3 37  1  0
  6 38  1  0
  7 39  1  0
  8 40  1  1
  9 41  1  0
  9 42  1  0
 10 43  1  0
 11 44  1  0
 12 45  1  0
 13 46  1  0
 14 47  1  0
 14 48  1  0
 14 49  1  0
 15 50  1  0
 15 51  1  0
 15 52  1  0
 19 53  1  0
 20 54  1  0
 22 55  1  0
 23 56  1  0
 26 57  1  0
 27 58  1  0
 28 59  1  6
 29 60  1  0
 29 61  1  0
 30 62  1  0
 31 63  1  0
 32 64  1  0
 33 65  1  0
 34 66  1  0
 34 67  1  0
 34 68  1  0
 35 69  1  0
 35 70  1  0
 35 71  1  0
M  END
> <Uni-Dock RESULT> 
ENERGY=   -5.025  LOWER_BOUND=    2.282  UPPER_BOUND=    2.795
INTER + INTRA:          -5.025
INTER:                  -5.025
INTRA:                   0.000
UNBOUND:                 0.000

$$$$
