
     RDKit          3D

 71 70  0  0  0  0  0  0  0  0999 V2000
   45.2827    6.0134   11.6661 C   0  0  0  0  0  0  0  0  0  0  0  0
   45.0895    5.6622   10.3199 C   0  0  0  0  0  0  0  0  0  0  0  0
   44.6668    5.2385   12.6639 C   0  0  0  0  0  0  0  0  0  0  0  0
   44.3000    4.5594    9.9965 C   0  0  0  0  0  0  0  0  0  0  0  0
   43.8827    4.1422   12.3170 C   0  0  0  0  0  0  0  0  0  0  0  0
   43.6948    3.7932   10.9861 C   0  0  0  0  0  0  0  0  0  0  0  0
   48.6171    7.6591   12.6392 N   0  0  0  0  0  0  0  0  0  0  0  0
   46.1532    7.2005   12.0341 C   0  0  2  0  0  0  0  0  0  0  0  0
   47.4588    6.7574   12.7469 C   0  0  0  0  0  0  0  0  0  0  0  0
   43.3148    3.4231   13.3275 O   0  0  0  0  0  0  0  0  0  0  0  0
   44.0977    4.1886    8.7000 O   0  0  0  0  0  0  0  0  0  0  0  0
   45.3941    8.0874   12.8561 O   0  0  0  0  0  0  0  0  0  0  0  0
   48.6251    8.8889   13.4380 C   0  0  0  0  0  0  0  0  0  0  0  0
   48.0530    8.7711   14.8510 C   0  0  0  0  0  0  0  0  0  0  0  0
   48.0227   10.0761   12.6831 C   0  0  0  0  0  0  0  0  0  0  0  0
   46.3023    6.6595   12.6955 S   0  0  0  0  0  0  0  0  0  0  0  0
   45.6567    5.9847   13.7921 O   0  0  0  0  0  0  0  0  0  0  0  0
   47.7184    6.5979   12.4378 O   0  0  0  0  0  0  0  0  0  0  0  0
   45.5236    6.2194   11.3641 O   0  0  0  0  0  0  0  0  0  0  0  0
   45.9275    8.2168   12.7728 O   0  0  0  0  0  0  0  0  0  0  0  0
   46.7914    8.1414   13.0863 C   0  0  0  0  0  0  0  0  0  0  0  0
   46.7704    9.0786   12.0396 C   0  0  0  0  0  0  0  0  0  0  0  0
   47.6178    8.3844   14.1953 C   0  0  0  0  0  0  0  0  0  0  0  0
   47.5562   10.2251   12.1064 C   0  0  0  0  0  0  0  0  0  0  0  0
   48.3983    9.5391   14.2401 C   0  0  0  0  0  0  0  0  0  0  0  0
   48.3748   10.4643   13.2030 C   0  0  0  0  0  0  0  0  0  0  0  0
   45.8556    4.5563   11.9462 N   0  0  0  0  0  0  0  0  0  0  0  0
   45.9307    6.8934   13.0269 C   0  0  2  0  0  0  0  0  0  0  0  0
   46.3687    5.9389   11.8823 C   0  0  0  0  0  0  0  0  0  0  0  0
   49.2124    9.8043   15.3024 O   0  0  0  0  0  0  0  0  0  0  0  0
   47.4914   11.0994   11.0626 O   0  0  0  0  0  0  0  0  0  0  0  0
   44.5621    7.2809   12.8788 O   0  0  0  0  0  0  0  0  0  0  0  0
   44.4060    4.4158   11.7501 C   0  0  0  0  0  0  0  0  0  0  0  0
   44.0586    2.9315   11.9106 C   0  0  0  0  0  0  0  0  0  0  0  0
   43.9370    4.8977   10.3757 C   0  0  0  0  0  0  0  0  0  0  0  0
   45.5585    6.2487    9.5338 H   0  0  0  0  0  0  0  0  0  0  0  0
   44.7943    5.4898   13.7144 H   0  0  0  0  0  0  0  0  0  0  0  0
   43.0887    2.9393   10.7026 H   0  0  0  0  0  0  0  0  0  0  0  0
   48.7930    7.8835   11.6630 H   0  0  0  0  0  0  0  0  0  0  0  0
   46.4066    7.7525   11.1210 H   0  0  0  0  0  0  0  0  0  0  0  0
   47.7945    5.8222   12.2813 H   0  0  0  0  0  0  0  0  0  0  0  0
   47.2643    6.5046   13.7950 H   0  0  0  0  0  0  0  0  0  0  0  0
   42.8124    2.6874   12.9384 H   0  0  0  0  0  0  0  0  0  0  0  0
   44.5692    4.8068    8.1178 H   0  0  0  0  0  0  0  0  0  0  0  0
   44.4631    8.0160   12.5822 H   0  0  0  0  0  0  0  0  0  0  0  0
   49.6893    9.1305   13.5652 H   0  0  0  0  0  0  0  0  0  0  0  0
   48.5151    7.9391   15.3948 H   0  0  0  0  0  0  0  0  0  0  0  0
   46.9692    8.6237   14.8522 H   0  0  0  0  0  0  0  0  0  0  0  0
   48.2599    9.6843   15.4210 H   0  0  0  0  0  0  0  0  0  0  0  0
   48.2081   11.0095   13.2285 H   0  0  0  0  0  0  0  0  0  0  0  0
   46.9436    9.9835   12.5460 H   0  0  0  0  0  0  0  0  0  0  0  0
   48.4819   10.1839   11.6929 H   0  0  0  0  0  0  0  0  0  0  0  0
   44.5844    6.0847   11.6061 H   0  0  0  0  0  0  0  0  0  0  0  0
   46.6370    8.7059   12.3072 H   0  0  0  0  0  0  0  0  0  0  0  0
   46.1365    8.9208   11.1689 H   0  0  0  0  0  0  0  0  0  0  0  0
   47.6457    7.6714   15.0151 H   0  0  0  0  0  0  0  0  0  0  0  0
   48.9945   11.3520   13.2669 H   0  0  0  0  0  0  0  0  0  0  0  0
   46.1025    4.1549   12.8506 H   0  0  0  0  0  0  0  0  0  0  0  0
   46.0035    6.3594   13.9825 H   0  0  0  0  0  0  0  0  0  0  0  0
   46.1376    6.3768   10.9049 H   0  0  0  0  0  0  0  0  0  0  0  0
   47.4625    5.8496   11.9117 H   0  0  0  0  0  0  0  0  0  0  0  0
   49.1399    9.0794   15.9445 H   0  0  0  0  0  0  0  0  0  0  0  0
   48.0765   11.8529   11.2515 H   0  0  0  0  0  0  0  0  0  0  0  0
   44.4666    8.1809   13.2345 H   0  0  0  0  0  0  0  0  0  0  0  0
   43.8615    4.9562   12.5313 H   0  0  0  0  0  0  0  0  0  0  0  0
   44.5652    2.3162   11.1587 H   0  0  0  0  0  0  0  0  0  0  0  0
   42.9794    2.7735   11.8028 H   0  0  0  0  0  0  0  0  0  0  0  0
   44.3446    2.5632   12.9028 H   0  0  0  0  0  0  0  0  0  0  0  0
   44.0507    5.9807   10.2631 H   0  0  0  0  0  0  0  0  0  0  0  0
   42.8750    4.6733   10.2323 H   0  0  0  0  0  0  0  0  0  0  0  0
   44.4919    4.4079    9.5676 H   0  0  0  0  0  0  0  0  0  0  0  0
  2  1  2  0
  3  1  1  0
  4  2  1  0
  5  3  2  0
  6  4  2  0
  7  9  1  0
  8  1  1  0
  9  8  1  0
 10  5  1  0
 11  4  1  0
 12  8  1  0
 13  7  1  0
 14 13  1  0
 15 13  1  0
  6  5  1  0
 17 16  2  0
 18 16  2  0
 19 16  1  0
 20 16  1  0
 22 21  2  0
 23 21  1  0
 24 22  1  0
 25 23  2  0
 26 24  2  0
 27 29  1  0
 28 21  1  0
 29 28  1  0
 30 25  1  0
 31 24  1  0
 32 28  1  0
 33 27  1  0
 34 33  1  0
 35 33  1  0
 26 25  1  0
  2 36  1  0
  3 37  1  0
  6 38  1  0
  7 39  1  0
  8 40  1  1
  9 41  1  0
  9 42  1  0
 10 43  1  0
 11 44  1  0
 12 45  1  0
 13 46  1  0
 14 47  1  0
 14 48  1  0
 14 49  1  0
 15 50  1  0
 15 51  1  0
 15 52  1  0
 19 53  1  0
 20 54  1  0
 22 55  1  0
 23 56  1  0
 26 57  1  0
 27 58  1  0
 28 59  1  6
 29 60  1  0
 29 61  1  0
 30 62  1  0
 31 63  1  0
 32 64  1  0
 33 65  1  0
 34 66  1  0
 34 67  1  0
 34 68  1  0
 35 69  1  0
 35 70  1  0
 35 71  1  0
M  END
> <Uni-Dock RESULT> 
ENERGY=   -6.178  LOWER_BOUND=    0.000  UPPER_BOUND=    0.000
INTER + INTRA:          -6.178
INTER:                  -6.178
INTRA:                   0.000
UNBOUND:                 0.000

$$$$

     RDKit          3D

 71 70  0  0  0  0  0  0  0  0999 V2000
   47.1908    7.7863   12.4723 C   0  0  0  0  0  0  0  0  0  0  0  0
   47.0584    9.1005   12.9498 C   0  0  0  0  0  0  0  0  0  0  0  0
   48.4656    7.3250   12.1015 C   0  0  0  0  0  0  0  0  0  0  0  0
   48.1826    9.9191   13.0509 C   0  0  0  0  0  0  0  0  0  0  0  0
   49.5733    8.1604   12.2107 C   0  0  0  0  0  0  0  0  0  0  0  0
   49.4426    9.4586   12.6861 C   0  0  0  0  0  0  0  0  0  0  0  0
   44.7717    5.1239   13.8263 N   0  0  0  0  0  0  0  0  0  0  0  0
   45.9792    6.8781   12.3732 C   0  0  2  0  0  0  0  0  0  0  0  0
   46.0502    5.7109   13.3937 C   0  0  0  0  0  0  0  0  0  0  0  0
   50.7864    7.6571   11.8422 O   0  0  0  0  0  0  0  0  0  0  0  0
   48.0889   11.1974   13.5161 O   0  0  0  0  0  0  0  0  0  0  0  0
   45.8836    6.3870   11.0359 O   0  0  0  0  0  0  0  0  0  0  0  0
   44.0564    4.2406   12.8998 C   0  0  0  0  0  0  0  0  0  0  0  0
   44.9276    3.2987   12.0681 C   0  0  0  0  0  0  0  0  0  0  0  0
   43.0562    5.0016   12.0265 C   0  0  0  0  0  0  0  0  0  0  0  0
   46.6076    6.3143   12.5722 S   0  0  0  0  0  0  0  0  0  0  0  0
   47.8499    5.7660   12.0916 O   0  0  0  0  0  0  0  0  0  0  0  0
   45.9542    5.8815   13.7809 O   0  0  0  0  0  0  0  0  0  0  0  0
   46.8051    7.9045   12.6422 O   0  0  0  0  0  0  0  0  0  0  0  0
   45.5171    6.1891   11.4030 O   0  0  0  0  0  0  0  0  0  0  0  0
   45.3259    5.5214   12.0096 C   0  0  0  0  0  0  0  0  0  0  0  0
   44.1726    6.3004   11.8159 C   0  0  0  0  0  0  0  0  0  0  0  0
   45.1867    4.1318   12.1562 C   0  0  0  0  0  0  0  0  0  0  0  0
   42.9180    5.7001   11.7707 C   0  0  0  0  0  0  0  0  0  0  0  0
   43.9194    3.5519   12.1094 C   0  0  0  0  0  0  0  0  0  0  0  0
   42.7807    4.3256   11.9173 C   0  0  0  0  0  0  0  0  0  0  0  0
   48.2477    7.4925   13.6241 N   0  0  0  0  0  0  0  0  0  0  0  0
   46.6989    6.1657   12.0504 C   0  0  2  0  0  0  0  0  0  0  0  0
   46.8670    7.0985   13.2810 C   0  0  0  0  0  0  0  0  0  0  0  0
   43.7498    2.2053   12.2494 O   0  0  0  0  0  0  0  0  0  0  0  0
   41.8363    6.5066   11.5768 O   0  0  0  0  0  0  0  0  0  0  0  0
   46.9120    6.8801   10.8299 O   0  0  0  0  0  0  0  0  0  0  0  0
   48.9117    8.3661   12.6466 C   0  0  0  0  0  0  0  0  0  0  0  0
   50.3410    8.6133   13.1421 C   0  0  0  0  0  0  0  0  0  0  0  0
   48.2022    9.7092   12.4630 C   0  0  0  0  0  0  0  0  0  0  0  0
   46.0807    9.4752   13.2427 H   0  0  0  0  0  0  0  0  0  0  0  0
   48.5976    6.3137   11.7234 H   0  0  0  0  0  0  0  0  0  0  0  0
   50.2985   10.1187   12.7790 H   0  0  0  0  0  0  0  0  0  0  0  0
   44.1463    5.8562   14.1532 H   0  0  0  0  0  0  0  0  0  0  0  0
   45.0749    7.4698   12.5595 H   0  0  0  0  0  0  0  0  0  0  0  0
   46.5006    6.0985   14.3161 H   0  0  0  0  0  0  0  0  0  0  0  0
   46.7339    4.9290   13.0448 H   0  0  0  0  0  0  0  0  0  0  0  0
   51.4612    8.3425   11.9841 H   0  0  0  0  0  0  0  0  0  0  0  0
   47.1604   11.3888   13.7277 H   0  0  0  0  0  0  0  0  0  0  0  0
   46.2392    7.0739   10.4454 H   0  0  0  0  0  0  0  0  0  0  0  0
   43.4488    3.5929   13.5468 H   0  0  0  0  0  0  0  0  0  0  0  0
   45.6169    2.7337   12.7062 H   0  0  0  0  0  0  0  0  0  0  0  0
   45.5143    3.8297   11.3130 H   0  0  0  0  0  0  0  0  0  0  0  0
   44.3015    2.5683   11.5426 H   0  0  0  0  0  0  0  0  0  0  0  0
   42.4135    4.2997   11.4811 H   0  0  0  0  0  0  0  0  0  0  0  0
   43.5440    5.6424   11.2894 H   0  0  0  0  0  0  0  0  0  0  0  0
   42.3998    5.6304   12.6403 H   0  0  0  0  0  0  0  0  0  0  0  0
   47.4093    8.1561   11.9140 H   0  0  0  0  0  0  0  0  0  0  0  0
   44.6364    6.1865   11.8314 H   0  0  0  0  0  0  0  0  0  0  0  0
   44.2483    7.3794   11.6943 H   0  0  0  0  0  0  0  0  0  0  0  0
   46.0678    3.5131   12.3052 H   0  0  0  0  0  0  0  0  0  0  0  0
   41.8090    3.8449   11.8871 H   0  0  0  0  0  0  0  0  0  0  0  0
   48.8103    6.6503   13.7436 H   0  0  0  0  0  0  0  0  0  0  0  0
   47.4644    5.3810   12.0920 H   0  0  0  0  0  0  0  0  0  0  0  0
   46.2403    7.9912   13.1772 H   0  0  0  0  0  0  0  0  0  0  0  0
   46.4822    6.5719   14.1641 H   0  0  0  0  0  0  0  0  0  0  0  0
   44.6172    1.7903   12.3847 H   0  0  0  0  0  0  0  0  0  0  0  0
   41.0366    5.9538   11.5534 H   0  0  0  0  0  0  0  0  0  0  0  0
   46.3464    6.4802   10.1474 H   0  0  0  0  0  0  0  0  0  0  0  0
   48.9936    7.8616   11.6783 H   0  0  0  0  0  0  0  0  0  0  0  0
   50.3479    9.1213   14.1129 H   0  0  0  0  0  0  0  0  0  0  0  0
   50.8935    9.2384   12.4315 H   0  0  0  0  0  0  0  0  0  0  0  0
   50.8926    7.6714   13.2453 H   0  0  0  0  0  0  0  0  0  0  0  0
   47.2210    9.5907   11.9922 H   0  0  0  0  0  0  0  0  0  0  0  0
   48.7887   10.3673   11.8135 H   0  0  0  0  0  0  0  0  0  0  0  0
   48.0642   10.2245   13.4202 H   0  0  0  0  0  0  0  0  0  0  0  0
  2  1  2  0
  3  1  1  0
  4  2  1  0
  5  3  2  0
  6  4  2  0
  7  9  1  0
  8  1  1  0
  9  8  1  0
 10  5  1  0
 11  4  1  0
 12  8  1  0
 13  7  1  0
 14 13  1  0
 15 13  1  0
  6  5  1  0
 17 16  2  0
 18 16  2  0
 19 16  1  0
 20 16  1  0
 22 21  2  0
 23 21  1  0
 24 22  1  0
 25 23  2  0
 26 24  2  0
 27 29  1  0
 28 21  1  0
 29 28  1  0
 30 25  1  0
 31 24  1  0
 32 28  1  0
 33 27  1  0
 34 33  1  0
 35 33  1  0
 26 25  1  0
  2 36  1  0
  3 37  1  0
  6 38  1  0
  7 39  1  0
  8 40  1  1
  9 41  1  0
  9 42  1  0
 10 43  1  0
 11 44  1  0
 12 45  1  0
 13 46  1  0
 14 47  1  0
 14 48  1  0
 14 49  1  0
 15 50  1  0
 15 51  1  0
 15 52  1  0
 19 53  1  0
 20 54  1  0
 22 55  1  0
 23 56  1  0
 26 57  1  0
 27 58  1  0
 28 59  1  6
 29 60  1  0
 29 61  1  0
 30 62  1  0
 31 63  1  0
 32 64  1  0
 33 65  1  0
 34 66  1  0
 34 67  1  0
 34 68  1  0
 35 69  1  0
 35 70  1  0
 35 71  1  0
M  END
> <Uni-Dock RESULT> 
ENERGY=   -5.573  LOWER_BOUND=    1.454  UPPER_BOUND=    5.725
INTER + INTRA:          -5.573
INTER:                  -5.573
INTRA:                   0.000
UNBOUND:                 0.000

$$$$

     RDKit          3D

 71 70  0  0  0  0  0  0  0  0999 V2000
   48.0595    7.5110   12.7039 C   0  0  0  0  0  0  0  0  0  0  0  0
   49.3817    7.1984   12.3479 C   0  0  0  0  0  0  0  0  0  0  0  0
   47.7754    8.7974   13.1937 C   0  0  0  0  0  0  0  0  0  0  0  0
   50.3825    8.1600   12.4815 C   0  0  0  0  0  0  0  0  0  0  0  0
   48.7909    9.7407   13.3188 C   0  0  0  0  0  0  0  0  0  0  0  0
   50.0975    9.4324   12.9634 C   0  0  0  0  0  0  0  0  0  0  0  0
   45.2174    5.7844   10.7765 N   0  0  0  0  0  0  0  0  0  0  0  0
   46.9567    6.4804   12.5477 C   0  0  2  0  0  0  0  0  0  0  0  0
   45.9518    6.8776   11.4335 C   0  0  0  0  0  0  0  0  0  0  0  0
   48.4558   10.9747   13.7939 O   0  0  0  0  0  0  0  0  0  0  0  0
   51.6746    7.8903   12.1391 O   0  0  0  0  0  0  0  0  0  0  0  0
   46.2961    6.3231   13.8037 O   0  0  0  0  0  0  0  0  0  0  0  0
   44.1201    5.1396   11.5050 C   0  0  0  0  0  0  0  0  0  0  0  0
   43.2420    6.0661   12.3466 C   0  0  0  0  0  0  0  0  0  0  0  0
   44.5906    3.9251   12.3086 C   0  0  0  0  0  0  0  0  0  0  0  0
   46.5344    7.2191   12.3789 S   0  0  0  0  0  0  0  0  0  0  0  0
   46.1463    8.4768   12.9638 O   0  0  0  0  0  0  0  0  0  0  0  0
   46.1502    6.7972   11.0560 O   0  0  0  0  0  0  0  0  0  0  0  0
   48.1316    7.1322   12.4966 O   0  0  0  0  0  0  0  0  0  0  0  0
   46.0864    6.0429   13.3727 O   0  0  0  0  0  0  0  0  0  0  0  0
   45.4757    6.0462   12.6818 C   0  0  0  0  0  0  0  0  0  0  0  0
   46.0216    4.7566   12.7967 C   0  0  0  0  0  0  0  0  0  0  0  0
   44.1111    6.1785   12.3785 C   0  0  0  0  0  0  0  0  0  0  0  0
   45.2194    3.6345   12.6127 C   0  0  0  0  0  0  0  0  0  0  0  0
   43.3265    5.0401   12.1964 C   0  0  0  0  0  0  0  0  0  0  0  0
   43.8698    3.7659   12.3111 C   0  0  0  0  0  0  0  0  0  0  0  0
   48.0897    8.7282   11.6804 N   0  0  0  0  0  0  0  0  0  0  0  0
   46.3402    7.2755   12.8905 C   0  0  2  0  0  0  0  0  0  0  0  0
   47.4319    7.4116   11.7939 C   0  0  0  0  0  0  0  0  0  0  0  0
   41.9980    5.1341   11.8999 O   0  0  0  0  0  0  0  0  0  0  0  0
   45.8042    2.4097   12.7402 O   0  0  0  0  0  0  0  0  0  0  0  0
   46.9248    7.2150   14.1943 O   0  0  0  0  0  0  0  0  0  0  0  0
   48.9352    9.1070   12.8211 C   0  0  0  0  0  0  0  0  0  0  0  0
   49.4764   10.5151   12.5491 C   0  0  0  0  0  0  0  0  0  0  0  0
   50.1083    8.1499   13.0425 C   0  0  0  0  0  0  0  0  0  0  0  0
   49.6211    6.2090   11.9660 H   0  0  0  0  0  0  0  0  0  0  0  0
   46.7617    9.0661   13.4823 H   0  0  0  0  0  0  0  0  0  0  0  0
   50.8975   10.1597   13.0531 H   0  0  0  0  0  0  0  0  0  0  0  0
   45.8696    5.0783   10.4442 H   0  0  0  0  0  0  0  0  0  0  0  0
   47.4075    5.5113   12.3025 H   0  0  0  0  0  0  0  0  0  0  0  0
   46.5195    7.3529   10.6236 H   0  0  0  0  0  0  0  0  0  0  0  0
   45.2582    7.6470   11.7902 H   0  0  0  0  0  0  0  0  0  0  0  0
   49.2562   11.5260   13.8135 H   0  0  0  0  0  0  0  0  0  0  0  0
   51.7328    6.9729   11.8254 H   0  0  0  0  0  0  0  0  0  0  0  0
   46.9549    6.4787   14.5027 H   0  0  0  0  0  0  0  0  0  0  0  0
   43.4646    4.7372   10.7204 H   0  0  0  0  0  0  0  0  0  0  0  0
   42.8826    6.9146   11.7530 H   0  0  0  0  0  0  0  0  0  0  0  0
   43.7667    6.4567   13.2232 H   0  0  0  0  0  0  0  0  0  0  0  0
   42.3585    5.5266   12.7072 H   0  0  0  0  0  0  0  0  0  0  0  0
   43.7298    3.3620   12.6894 H   0  0  0  0  0  0  0  0  0  0  0  0
   45.2084    4.2015   13.1653 H   0  0  0  0  0  0  0  0  0  0  0  0
   45.1716    3.2403   11.6789 H   0  0  0  0  0  0  0  0  0  0  0  0
   48.3893    7.5937   13.3208 H   0  0  0  0  0  0  0  0  0  0  0  0
   45.9895    5.2320   12.8321 H   0  0  0  0  0  0  0  0  0  0  0  0
   47.0749    4.6214   13.0356 H   0  0  0  0  0  0  0  0  0  0  0  0
   43.6711    7.1681   12.2873 H   0  0  0  0  0  0  0  0  0  0  0  0
   43.2337    2.9001   12.1622 H   0  0  0  0  0  0  0  0  0  0  0  0
   47.3744    9.4438   11.5531 H   0  0  0  0  0  0  0  0  0  0  0  0
   45.7053    8.1700   12.8730 H   0  0  0  0  0  0  0  0  0  0  0  0
   48.1879    6.6260   11.9023 H   0  0  0  0  0  0  0  0  0  0  0  0
   46.9608    7.2318   10.8187 H   0  0  0  0  0  0  0  0  0  0  0  0
   41.7533    6.0719   11.8408 H   0  0  0  0  0  0  0  0  0  0  0  0
   45.1270    1.7259   12.6004 H   0  0  0  0  0  0  0  0  0  0  0  0
   46.3555    6.6568   14.7510 H   0  0  0  0  0  0  0  0  0  0  0  0
   48.3365    9.1676   13.7358 H   0  0  0  0  0  0  0  0  0  0  0  0
   50.0937   10.5408   11.6442 H   0  0  0  0  0  0  0  0  0  0  0  0
   50.0930   10.8605   13.3867 H   0  0  0  0  0  0  0  0  0  0  0  0
   48.6597   11.2361   12.4263 H   0  0  0  0  0  0  0  0  0  0  0  0
   49.7709    7.1591   13.3631 H   0  0  0  0  0  0  0  0  0  0  0  0
   50.7702    8.5296   13.8277 H   0  0  0  0  0  0  0  0  0  0  0  0
   50.7069    8.0313   12.1323 H   0  0  0  0  0  0  0  0  0  0  0  0
  2  1  2  0
  3  1  1  0
  4  2  1  0
  5  3  2  0
  6  4  2  0
  7  9  1  0
  8  1  1  0
  9  8  1  0
 10  5  1  0
 11  4  1  0
 12  8  1  0
 13  7  1  0
 14 13  1  0
 15 13  1  0
  6  5  1  0
 17 16  2  0
 18 16  2  0
 19 16  1  0
 20 16  1  0
 22 21  2  0
 23 21  1  0
 24 22  1  0
 25 23  2  0
 26 24  2  0
 27 29  1  0
 28 21  1  0
 29 28  1  0
 30 25  1  0
 31 24  1  0
 32 28  1  0
 33 27  1  0
 34 33  1  0
 35 33  1  0
 26 25  1  0
  2 36  1  0
  3 37  1  0
  6 38  1  0
  7 39  1  0
  8 40  1  1
  9 41  1  0
  9 42  1  0
 10 43  1  0
 11 44  1  0
 12 45  1  0
 13 46  1  0
 14 47  1  0
 14 48  1  0
 14 49  1  0
 15 50  1  0
 15 51  1  0
 15 52  1  0
 19 53  1  0
 20 54  1  0
 22 55  1  0
 23 56  1  0
 26 57  1  0
 27 58  1  0
 28 59  1  6
 29 60  1  0
 29 61  1  0
 30 62  1  0
 31 63  1  0
 32 64  1  0
 33 65  1  0
 34 66  1  0
 34 67  1  0
 34 68  1  0
 35 69  1  0
 35 70  1  0
 35 71  1  0
M  END
> <Uni-Dock RESULT> 
ENERGY=   -5.282  LOWER_BOUND=    1.518  UPPER_BOUND=    5.837
INTER + INTRA:          -5.282
INTER:                  -5.282
INTRA:                   0.000
UNBOUND:                 0.000

$$$$

     RDKit          3D

 71 70  0  0  0  0  0  0  0  0999 V2000
   49.5335    5.1931   21.2594 C   0  0  0  0  0  0  0  0  0  0  0  0
   50.8130    5.3394   21.8199 C   0  0  0  0  0  0  0  0  0  0  0  0
   48.4208    5.6634   21.9779 C   0  0  0  0  0  0  0  0  0  0  0  0
   50.9595    5.9457   23.0670 C   0  0  0  0  0  0  0  0  0  0  0  0
   48.5916    6.2649   23.2213 C   0  0  0  0  0  0  0  0  0  0  0  0
   49.8571    6.4125   23.7736 C   0  0  0  0  0  0  0  0  0  0  0  0
   49.2210    5.2911   17.4297 N   0  0  0  0  0  0  0  0  0  0  0  0
   49.3600    4.5510   19.8955 C   0  0  2  0  0  0  0  0  0  0  0  0
   48.8826    5.5771   18.8333 C   0  0  0  0  0  0  0  0  0  0  0  0
   47.4766    6.7079   23.8703 O   0  0  0  0  0  0  0  0  0  0  0  0
   52.1881    6.1083   23.6358 O   0  0  0  0  0  0  0  0  0  0  0  0
   48.4385    3.4669   20.0139 O   0  0  0  0  0  0  0  0  0  0  0  0
   48.4697    4.2468   16.7259 C   0  0  0  0  0  0  0  0  0  0  0  0
   46.9741    4.1762   17.0358 C   0  0  0  0  0  0  0  0  0  0  0  0
   49.1349    2.8735   16.8426 C   0  0  0  0  0  0  0  0  0  0  0  0
   48.7221    5.1389   19.8973 S   0  0  0  0  0  0  0  0  0  0  0  0
   47.5096    5.5124   20.5792 O   0  0  0  0  0  0  0  0  0  0  0  0
   49.2289    5.8181   18.7322 O   0  0  0  0  0  0  0  0  0  0  0  0
   49.8793    5.1008   21.0073 O   0  0  0  0  0  0  0  0  0  0  0  0
   48.6200    3.5877   19.5033 O   0  0  0  0  0  0  0  0  0  0  0  0
   48.4653    4.0634   18.7287 C   0  0  0  0  0  0  0  0  0  0  0  0
   49.5156    3.1581   18.5013 C   0  0  0  0  0  0  0  0  0  0  0  0
   47.5302    4.2855   17.7049 C   0  0  0  0  0  0  0  0  0  0  0  0
   49.6219    2.4963   17.2819 C   0  0  0  0  0  0  0  0  0  0  0  0
   47.6573    3.6126   16.4902 C   0  0  0  0  0  0  0  0  0  0  0  0
   48.6975    2.7175   16.2688 C   0  0  0  0  0  0  0  0  0  0  0  0
   49.3225    6.7655   21.3730 N   0  0  0  0  0  0  0  0  0  0  0  0
   48.3355    4.7823   20.0585 C   0  0  2  0  0  0  0  0  0  0  0  0
   49.5145    5.7626   20.3070 C   0  0  0  0  0  0  0  0  0  0  0  0
   46.7665    3.8066   15.4751 O   0  0  0  0  0  0  0  0  0  0  0  0
   50.6598    1.6274   17.1208 O   0  0  0  0  0  0  0  0  0  0  0  0
   48.2449    3.8104   21.1037 O   0  0  0  0  0  0  0  0  0  0  0  0
   49.2506    6.2243   22.7374 C   0  0  0  0  0  0  0  0  0  0  0  0
   48.9908    7.3983   23.6882 C   0  0  0  0  0  0  0  0  0  0  0  0
   50.5303    5.5028   23.1650 C   0  0  0  0  0  0  0  0  0  0  0  0
   51.6861    4.9830   21.2789 H   0  0  0  0  0  0  0  0  0  0  0  0
   47.4175    5.5589   21.5712 H   0  0  0  0  0  0  0  0  0  0  0  0
   50.0040    6.8823   24.7403 H   0  0  0  0  0  0  0  0  0  0  0  0
   50.2185    5.1135   17.3423 H   0  0  0  0  0  0  0  0  0  0  0  0
   50.3181    4.1205   19.5805 H   0  0  0  0  0  0  0  0  0  0  0  0
   49.3760    6.5339   19.0454 H   0  0  0  0  0  0  0  0  0  0  0  0
   47.8102    5.7758   18.9375 H   0  0  0  0  0  0  0  0  0  0  0  0
   47.7491    7.1131   24.7109 H   0  0  0  0  0  0  0  0  0  0  0  0
   52.8619    5.7367   23.0431 H   0  0  0  0  0  0  0  0  0  0  0  0
   48.5382    3.0938   20.9071 H   0  0  0  0  0  0  0  0  0  0  0  0
   48.5427    4.5198   15.6642 H   0  0  0  0  0  0  0  0  0  0  0  0
   46.5005    5.1576   16.9166 H   0  0  0  0  0  0  0  0  0  0  0  0
   46.7737    3.8180   18.0497 H   0  0  0  0  0  0  0  0  0  0  0  0
   46.4751    3.4901   16.3415 H   0  0  0  0  0  0  0  0  0  0  0  0
   48.6568    2.1582   16.1622 H   0  0  0  0  0  0  0  0  0  0  0  0
   49.0729    2.4605   17.8513 H   0  0  0  0  0  0  0  0  0  0  0  0
   50.1942    2.9267   16.5630 H   0  0  0  0  0  0  0  0  0  0  0  0
   49.4686    4.8107   21.8475 H   0  0  0  0  0  0  0  0  0  0  0  0
   49.2185    3.4453   18.7412 H   0  0  0  0  0  0  0  0  0  0  0  0
   50.2534    2.9612   19.2770 H   0  0  0  0  0  0  0  0  0  0  0  0
   46.7102    4.9809   17.8634 H   0  0  0  0  0  0  0  0  0  0  0  0
   48.7699    2.2108   15.3126 H   0  0  0  0  0  0  0  0  0  0  0  0
   48.4671    7.2875   21.1839 H   0  0  0  0  0  0  0  0  0  0  0  0
   47.3949    5.3466   20.0730 H   0  0  0  0  0  0  0  0  0  0  0  0
   50.4456    5.2110   20.4783 H   0  0  0  0  0  0  0  0  0  0  0  0
   49.6803    6.3379   19.3867 H   0  0  0  0  0  0  0  0  0  0  0  0
   46.1029    4.4568   15.7574 H   0  0  0  0  0  0  0  0  0  0  0  0
   50.5995    1.2319   16.2345 H   0  0  0  0  0  0  0  0  0  0  0  0
   47.9018    2.9870   20.7167 H   0  0  0  0  0  0  0  0  0  0  0  0
   48.3987    5.5432   22.8328 H   0  0  0  0  0  0  0  0  0  0  0  0
   49.8050    8.1307   23.6548 H   0  0  0  0  0  0  0  0  0  0  0  0
   48.8982    7.0452   24.7216 H   0  0  0  0  0  0  0  0  0  0  0  0
   48.0569    7.9136   23.4347 H   0  0  0  0  0  0  0  0  0  0  0  0
   50.6903    4.5834   22.5926 H   0  0  0  0  0  0  0  0  0  0  0  0
   50.4740    5.2145   24.2197 H   0  0  0  0  0  0  0  0  0  0  0  0
   51.4118    6.1420   23.0420 H   0  0  0  0  0  0  0  0  0  0  0  0
  2  1  2  0
  3  1  1  0
  4  2  1  0
  5  3  2  0
  6  4  2  0
  7  9  1  0
  8  1  1  0
  9  8  1  0
 10  5  1  0
 11  4  1  0
 12  8  1  0
 13  7  1  0
 14 13  1  0
 15 13  1  0
  6  5  1  0
 17 16  2  0
 18 16  2  0
 19 16  1  0
 20 16  1  0
 22 21  2  0
 23 21  1  0
 24 22  1  0
 25 23  2  0
 26 24  2  0
 27 29  1  0
 28 21  1  0
 29 28  1  0
 30 25  1  0
 31 24  1  0
 32 28  1  0
 33 27  1  0
 34 33  1  0
 35 33  1  0
 26 25  1  0
  2 36  1  0
  3 37  1  0
  6 38  1  0
  7 39  1  0
  8 40  1  1
  9 41  1  0
  9 42  1  0
 10 43  1  0
 11 44  1  0
 12 45  1  0
 13 46  1  0
 14 47  1  0
 14 48  1  0
 14 49  1  0
 15 50  1  0
 15 51  1  0
 15 52  1  0
 19 53  1  0
 20 54  1  0
 22 55  1  0
 23 56  1  0
 26 57  1  0
 27 58  1  0
 28 59  1  6
 29 60  1  0
 29 61  1  0
 30 62  1  0
 31 63  1  0
 32 64  1  0
 33 65  1  0
 34 66  1  0
 34 67  1  0
 34 68  1  0
 35 69  1  0
 35 70  1  0
 35 71  1  0
M  END
> <Uni-Dock RESULT> 
ENERGY=   -5.188  LOWER_BOUND=    7.220  UPPER_BOUND=   10.001
INTER + INTRA:          -5.188
INTER:                  -5.188
INTRA:                   0.000
UNBOUND:                 0.000

$$$$

     RDKit          3D

 71 70  0  0  0  0  0  0  0  0999 V2000
   46.0003    6.3703   12.7963 C   0  0  0  0  0  0  0  0  0  0  0  0
   44.6821    6.7256   12.4663 C   0  0  0  0  0  0  0  0  0  0  0  0
   46.3151    5.0103   12.9598 C   0  0  0  0  0  0  0  0  0  0  0  0
   43.7156    5.7337   12.3044 C   0  0  0  0  0  0  0  0  0  0  0  0
   45.3335    4.0379   12.7935 C   0  0  0  0  0  0  0  0  0  0  0  0
   44.0310    4.3893   12.4638 C   0  0  0  0  0  0  0  0  0  0  0  0
   48.8471    8.6080   11.5069 N   0  0  0  0  0  0  0  0  0  0  0  0
   47.0669    7.4374   12.9587 C   0  0  2  0  0  0  0  0  0  0  0  0
   48.1306    7.3638   11.8308 C   0  0  0  0  0  0  0  0  0  0  0  0
   45.6978    2.7338   12.9585 O   0  0  0  0  0  0  0  0  0  0  0  0
   42.4286    6.0450   11.9782 O   0  0  0  0  0  0  0  0  0  0  0  0
   47.6697    7.2900   14.2446 O   0  0  0  0  0  0  0  0  0  0  0  0
   49.8878    9.0778   12.4270 C   0  0  0  0  0  0  0  0  0  0  0  0
   50.7673    7.9934   13.0502 C   0  0  0  0  0  0  0  0  0  0  0  0
   49.3378   10.0354   13.4865 C   0  0  0  0  0  0  0  0  0  0  0  0
   47.5245    6.7777   12.6302 S   0  0  0  0  0  0  0  0  0  0  0  0
   47.9382    5.4243   12.8979 O   0  0  0  0  0  0  0  0  0  0  0  0
   47.9445    7.5315   11.4765 O   0  0  0  0  0  0  0  0  0  0  0  0
   45.9216    6.7871   12.6878 O   0  0  0  0  0  0  0  0  0  0  0  0
   47.8853    7.6760   13.9088 O   0  0  0  0  0  0  0  0  0  0  0  0
   48.5229    7.8649   13.2700 C   0  0  0  0  0  0  0  0  0  0  0  0
   47.9222    9.0675   13.6791 C   0  0  0  0  0  0  0  0  0  0  0  0
   49.9028    7.8522   13.0103 C   0  0  0  0  0  0  0  0  0  0  0  0
   48.6862   10.2217   13.8228 C   0  0  0  0  0  0  0  0  0  0  0  0
   50.6484    9.0212   13.1591 C   0  0  0  0  0  0  0  0  0  0  0  0
   50.0510   10.2090   13.5643 C   0  0  0  0  0  0  0  0  0  0  0  0
   46.0593    5.4516   11.4992 N   0  0  0  0  0  0  0  0  0  0  0  0
   47.7000    6.5991   13.1200 C   0  0  2  0  0  0  0  0  0  0  0  0
   46.6595    6.7146   11.9725 C   0  0  0  0  0  0  0  0  0  0  0  0
   51.9904    9.0427   12.9138 O   0  0  0  0  0  0  0  0  0  0  0  0
   48.0488   11.3573   14.2258 O   0  0  0  0  0  0  0  0  0  0  0  0
   47.0616    6.3109   14.3669 O   0  0  0  0  0  0  0  0  0  0  0  0
   45.1843    4.7726   12.4650 C   0  0  0  0  0  0  0  0  0  0  0  0
   44.7107    3.4648   11.8211 C   0  0  0  0  0  0  0  0  0  0  0  0
   43.9663    5.6091   12.8625 C   0  0  0  0  0  0  0  0  0  0  0  0
   44.4194    7.7723   12.3345 H   0  0  0  0  0  0  0  0  0  0  0  0
   47.3263    4.7059   13.2206 H   0  0  0  0  0  0  0  0  0  0  0  0
   43.2575    3.6409   12.3283 H   0  0  0  0  0  0  0  0  0  0  0  0
   48.1813    9.3566   11.3317 H   0  0  0  0  0  0  0  0  0  0  0  0
   46.5883    8.4239   12.9436 H   0  0  0  0  0  0  0  0  0  0  0  0
   47.6152    7.0934   10.9006 H   0  0  0  0  0  0  0  0  0  0  0  0
   48.8392    6.5489   12.0158 H   0  0  0  0  0  0  0  0  0  0  0  0
   44.9196    2.1732   12.7995 H   0  0  0  0  0  0  0  0  0  0  0  0
   42.3468    7.0099   11.9031 H   0  0  0  0  0  0  0  0  0  0  0  0
   46.9900    6.9439   14.8488 H   0  0  0  0  0  0  0  0  0  0  0  0
   50.5579    9.6841   11.8020 H   0  0  0  0  0  0  0  0  0  0  0  0
   51.1836    7.3334   12.2804 H   0  0  0  0  0  0  0  0  0  0  0  0
   50.2237    7.3789   13.7735 H   0  0  0  0  0  0  0  0  0  0  0  0
   51.6136    8.4486   13.5777 H   0  0  0  0  0  0  0  0  0  0  0  0
   50.1596   10.5077   14.0384 H   0  0  0  0  0  0  0  0  0  0  0  0
   48.6974    9.5338   14.2148 H   0  0  0  0  0  0  0  0  0  0  0  0
   48.7559   10.8408   13.0219 H   0  0  0  0  0  0  0  0  0  0  0  0
   45.6495    6.1248   13.3556 H   0  0  0  0  0  0  0  0  0  0  0  0
   47.9717    8.5998   13.5951 H   0  0  0  0  0  0  0  0  0  0  0  0
   46.8557    9.1081   13.8925 H   0  0  0  0  0  0  0  0  0  0  0  0
   50.3849    6.9307   12.6945 H   0  0  0  0  0  0  0  0  0  0  0  0
   50.6578   11.1017   13.6694 H   0  0  0  0  0  0  0  0  0  0  0  0
   46.8070    4.8120   11.2309 H   0  0  0  0  0  0  0  0  0  0  0  0
   48.3700    5.7564   12.9089 H   0  0  0  0  0  0  0  0  0  0  0  0
   45.8693    7.4255   12.2380 H   0  0  0  0  0  0  0  0  0  0  0  0
   47.1619    7.1486   11.0981 H   0  0  0  0  0  0  0  0  0  0  0  0
   52.2742    8.1577   12.6326 H   0  0  0  0  0  0  0  0  0  0  0  0
   48.7035   12.0730   14.2960 H   0  0  0  0  0  0  0  0  0  0  0  0
   47.5855    6.7257   15.0733 H   0  0  0  0  0  0  0  0  0  0  0  0
   45.7477    4.4992   13.3631 H   0  0  0  0  0  0  0  0  0  0  0  0
   44.1317    3.6517   10.9098 H   0  0  0  0  0  0  0  0  0  0  0  0
   44.0751    2.9013   12.5136 H   0  0  0  0  0  0  0  0  0  0  0  0
   45.5595    2.8216   11.5608 H   0  0  0  0  0  0  0  0  0  0  0  0
   44.2512    6.4955   13.4384 H   0  0  0  0  0  0  0  0  0  0  0  0
   43.2890    5.0245   13.4936 H   0  0  0  0  0  0  0  0  0  0  0  0
   43.4007    5.9375   11.9834 H   0  0  0  0  0  0  0  0  0  0  0  0
  2  1  2  0
  3  1  1  0
  4  2  1  0
  5  3  2  0
  6  4  2  0
  7  9  1  0
  8  1  1  0
  9  8  1  0
 10  5  1  0
 11  4  1  0
 12  8  1  0
 13  7  1  0
 14 13  1  0
 15 13  1  0
  6  5  1  0
 17 16  2  0
 18 16  2  0
 19 16  1  0
 20 16  1  0
 22 21  2  0
 23 21  1  0
 24 22  1  0
 25 23  2  0
 26 24  2  0
 27 29  1  0
 28 21  1  0
 29 28  1  0
 30 25  1  0
 31 24  1  0
 32 28  1  0
 33 27  1  0
 34 33  1  0
 35 33  1  0
 26 25  1  0
  2 36  1  0
  3 37  1  0
  6 38  1  0
  7 39  1  0
  8 40  1  1
  9 41  1  0
  9 42  1  0
 10 43  1  0
 11 44  1  0
 12 45  1  0
 13 46  1  0
 14 47  1  0
 14 48  1  0
 14 49  1  0
 15 50  1  0
 15 51  1  0
 15 52  1  0
 19 53  1  0
 20 54  1  0
 22 55  1  0
 23 56  1  0
 26 57  1  0
 27 58  1  0
 28 59  1  6
 29 60  1  0
 29 61  1  0
 30 62  1  0
 31 63  1  0
 32 64  1  0
 33 65  1  0
 34 66  1  0
 34 67  1  0
 34 68  1  0
 35 69  1  0
 35 70  1  0
 35 71  1  0
M  END
> <Uni-Dock RESULT> 
ENERGY=   -5.113  LOWER_BOUND=    1.613  UPPER_BOUND=    2.192
INTER + INTRA:          -5.113
INTER:                  -5.113
INTRA:                   0.000
UNBOUND:                 0.000

$$$$

     RDKit          3D

 71 70  0  0  0  0  0  0  0  0999 V2000
   47.8833   11.1885   20.5005 C   0  0  0  0  0  0  0  0  0  0  0  0
   48.4307   12.2062   21.2989 C   0  0  0  0  0  0  0  0  0  0  0  0
   47.3383   11.5271   19.2500 C   0  0  0  0  0  0  0  0  0  0  0  0
   48.4283   13.5237   20.8425 C   0  0  0  0  0  0  0  0  0  0  0  0
   47.3468   12.8493   18.8156 C   0  0  0  0  0  0  0  0  0  0  0  0
   47.8912   13.8547   19.6037 C   0  0  0  0  0  0  0  0  0  0  0  0
   49.4068    7.6700   20.7694 N   0  0  0  0  0  0  0  0  0  0  0  0
   47.8944    9.7477   20.9763 C   0  0  2  0  0  0  0  0  0  0  0  0
   48.8461    8.8674   20.1229 C   0  0  0  0  0  0  0  0  0  0  0  0
   46.8098   13.1182   17.5909 O   0  0  0  0  0  0  0  0  0  0  0  0
   48.9573   14.5337   21.5905 O   0  0  0  0  0  0  0  0  0  0  0  0
   46.5588    9.2439   20.9417 O   0  0  0  0  0  0  0  0  0  0  0  0
   48.5375    6.5046   20.9613 C   0  0  0  0  0  0  0  0  0  0  0  0
   47.5643    6.2025   19.8214 C   0  0  0  0  0  0  0  0  0  0  0  0
   47.8284    6.5255   22.3174 C   0  0  0  0  0  0  0  0  0  0  0  0
   47.9894    9.6523   20.1194 S   0  0  0  0  0  0  0  0  0  0  0  0
   47.3358    9.8971   18.8594 O   0  0  0  0  0  0  0  0  0  0  0  0
   49.2493    8.9657   20.2494 O   0  0  0  0  0  0  0  0  0  0  0  0
   48.1044   11.0706   20.8595 O   0  0  0  0  0  0  0  0  0  0  0  0
   46.9592    8.8849   21.0794 O   0  0  0  0  0  0  0  0  0  0  0  0
   47.5548    8.2495   20.7763 C   0  0  0  0  0  0  0  0  0  0  0  0
   47.5392    8.2212   22.1811 C   0  0  0  0  0  0  0  0  0  0  0  0
   47.6563    7.0364   20.0764 C   0  0  0  0  0  0  0  0  0  0  0  0
   47.6226    7.0098   22.8609 C   0  0  0  0  0  0  0  0  0  0  0  0
   47.7406    5.8345   20.7784 C   0  0  0  0  0  0  0  0  0  0  0  0
   47.7245    5.8101   22.1681 C   0  0  0  0  0  0  0  0  0  0  0  0
   48.8820   11.5927   19.3304 N   0  0  0  0  0  0  0  0  0  0  0  0
   47.4544    9.5645   20.0263 C   0  0  2  0  0  0  0  0  0  0  0  0
   48.6947   10.4679   20.2680 C   0  0  0  0  0  0  0  0  0  0  0  0
   47.8411    4.6390   20.1286 O   0  0  0  0  0  0  0  0  0  0  0  0
   47.5991    7.0449   24.2234 O   0  0  0  0  0  0  0  0  0  0  0  0
   46.2495   10.2293   20.4157 O   0  0  0  0  0  0  0  0  0  0  0  0
   47.8694   12.6544   19.4146 C   0  0  0  0  0  0  0  0  0  0  0  0
   48.1954   13.6920   18.3346 C   0  0  0  0  0  0  0  0  0  0  0  0
   47.8339   13.3426   20.7808 C   0  0  0  0  0  0  0  0  0  0  0  0
   48.8580   11.9640   22.2688 H   0  0  0  0  0  0  0  0  0  0  0  0
   46.9027   10.7609   18.6126 H   0  0  0  0  0  0  0  0  0  0  0  0
   47.9069   14.8885   19.2753 H   0  0  0  0  0  0  0  0  0  0  0  0
   49.8401    7.9235   21.6539 H   0  0  0  0  0  0  0  0  0  0  0  0
   48.2166    9.7215   22.0242 H   0  0  0  0  0  0  0  0  0  0  0  0
   49.7221    9.4749   19.8629 H   0  0  0  0  0  0  0  0  0  0  0  0
   48.3816    8.6059   19.1657 H   0  0  0  0  0  0  0  0  0  0  0  0
   46.8974   14.0708   17.4176 H   0  0  0  0  0  0  0  0  0  0  0  0
   49.2899   14.1666   22.4260 H   0  0  0  0  0  0  0  0  0  0  0  0
   45.9597    9.9897   21.1205 H   0  0  0  0  0  0  0  0  0  0  0  0
   49.2254    5.6488   21.0022 H   0  0  0  0  0  0  0  0  0  0  0  0
   48.0871    6.1562   18.8591 H   0  0  0  0  0  0  0  0  0  0  0  0
   46.7666    6.9469   19.7445 H   0  0  0  0  0  0  0  0  0  0  0  0
   47.0883    5.2275   19.9779 H   0  0  0  0  0  0  0  0  0  0  0  0
   47.3361    5.5637   22.5061 H   0  0  0  0  0  0  0  0  0  0  0  0
   47.0657    7.3040   22.3811 H   0  0  0  0  0  0  0  0  0  0  0  0
   48.5455    6.6865   23.1316 H   0  0  0  0  0  0  0  0  0  0  0  0
   47.3191   11.5972   20.6052 H   0  0  0  0  0  0  0  0  0  0  0  0
   47.4924    8.3938   21.7380 H   0  0  0  0  0  0  0  0  0  0  0  0
   47.4566    9.1443   22.7518 H   0  0  0  0  0  0  0  0  0  0  0  0
   47.6682    7.0388   18.9897 H   0  0  0  0  0  0  0  0  0  0  0  0
   47.7932    4.8592   22.6850 H   0  0  0  0  0  0  0  0  0  0  0  0
   48.8941   11.2287   18.3778 H   0  0  0  0  0  0  0  0  0  0  0  0
   47.3668    9.3610   18.9519 H   0  0  0  0  0  0  0  0  0  0  0  0
   48.7082   10.8371   21.2994 H   0  0  0  0  0  0  0  0  0  0  0  0
   49.5944    9.8469   20.1676 H   0  0  0  0  0  0  0  0  0  0  0  0
   47.8501    4.7999   19.1710 H   0  0  0  0  0  0  0  0  0  0  0  0
   47.6501    6.1335   24.5588 H   0  0  0  0  0  0  0  0  0  0  0  0
   45.6250    9.5543   20.7318 H   0  0  0  0  0  0  0  0  0  0  0  0
   46.8772   12.2542   19.1821 H   0  0  0  0  0  0  0  0  0  0  0  0
   49.1794   14.1461   18.4970 H   0  0  0  0  0  0  0  0  0  0  0  0
   47.4503   14.4957   18.3335 H   0  0  0  0  0  0  0  0  0  0  0  0
   48.1884   13.2395   17.3360 H   0  0  0  0  0  0  0  0  0  0  0  0
   47.4829   12.6676   21.5679 H   0  0  0  0  0  0  0  0  0  0  0  0
   47.1466   14.1947   20.7633 H   0  0  0  0  0  0  0  0  0  0  0  0
   48.8225   13.7191   21.0665 H   0  0  0  0  0  0  0  0  0  0  0  0
  2  1  2  0
  3  1  1  0
  4  2  1  0
  5  3  2  0
  6  4  2  0
  7  9  1  0
  8  1  1  0
  9  8  1  0
 10  5  1  0
 11  4  1  0
 12  8  1  0
 13  7  1  0
 14 13  1  0
 15 13  1  0
  6  5  1  0
 17 16  2  0
 18 16  2  0
 19 16  1  0
 20 16  1  0
 22 21  2  0
 23 21  1  0
 24 22  1  0
 25 23  2  0
 26 24  2  0
 27 29  1  0
 28 21  1  0
 29 28  1  0
 30 25  1  0
 31 24  1  0
 32 28  1  0
 33 27  1  0
 34 33  1  0
 35 33  1  0
 26 25  1  0
  2 36  1  0
  3 37  1  0
  6 38  1  0
  7 39  1  0
  8 40  1  1
  9 41  1  0
  9 42  1  0
 10 43  1  0
 11 44  1  0
 12 45  1  0
 13 46  1  0
 14 47  1  0
 14 48  1  0
 14 49  1  0
 15 50  1  0
 15 51  1  0
 15 52  1  0
 19 53  1  0
 20 54  1  0
 22 55  1  0
 23 56  1  0
 26 57  1  0
 27 58  1  0
 28 59  1  6
 29 60  1  0
 29 61  1  0
 30 62  1  0
 31 63  1  0
 32 64  1  0
 33 65  1  0
 34 66  1  0
 34 67  1  0
 34 68  1  0
 35 69  1  0
 35 70  1  0
 35 71  1  0
M  END
> <Uni-Dock RESULT> 
ENERGY=   -5.102  LOWER_BOUND=    7.914  UPPER_BOUND=   10.367
INTER + INTRA:          -5.102
INTER:                  -5.102
INTRA:                   0.000
UNBOUND:                 0.000

$$$$

     RDKit          3D

 71 70  0  0  0  0  0  0  0  0999 V2000
   47.6824    9.9951   19.6918 C   0  0  0  0  0  0  0  0  0  0  0  0
   47.1554   10.9056   20.6225 C   0  0  0  0  0  0  0  0  0  0  0  0
   47.9427   10.4376   18.3833 C   0  0  0  0  0  0  0  0  0  0  0  0
   46.9035   12.2224   20.2395 C   0  0  0  0  0  0  0  0  0  0  0  0
   47.6828   11.7568   18.0240 C   0  0  0  0  0  0  0  0  0  0  0  0
   47.1650   12.6575   18.9454 C   0  0  0  0  0  0  0  0  0  0  0  0
   49.9689    7.1974   21.0025 N   0  0  0  0  0  0  0  0  0  0  0  0
   47.9780    8.5635   20.0986 C   0  0  2  0  0  0  0  0  0  0  0  0
   49.5025    8.2723   20.1119 C   0  0  0  0  0  0  0  0  0  0  0  0
   47.9607   12.1317   16.7422 O   0  0  0  0  0  0  0  0  0  0  0  0
   46.3979   13.1321   21.1205 O   0  0  0  0  0  0  0  0  0  0  0  0
   47.2941    7.6835   19.2061 O   0  0  0  0  0  0  0  0  0  0  0  0
   49.7293    5.8057   20.6072 C   0  0  0  0  0  0  0  0  0  0  0  0
   49.8885    5.4976   19.1181 C   0  0  0  0  0  0  0  0  0  0  0  0
   48.4073    5.2648   21.1566 C   0  0  0  0  0  0  0  0  0  0  0  0
   48.6065    8.7171   19.5209 S   0  0  0  0  0  0  0  0  0  0  0  0
   48.8365    9.0413   18.1364 O   0  0  0  0  0  0  0  0  0  0  0  0
   49.6594    8.4603   20.4701 O   0  0  0  0  0  0  0  0  0  0  0  0
   47.6601    9.8699   20.1107 O   0  0  0  0  0  0  0  0  0  0  0  0
   47.6263    7.4494   19.5843 O   0  0  0  0  0  0  0  0  0  0  0  0
   48.4727    7.1331   19.7685 C   0  0  0  0  0  0  0  0  0  0  0  0
   47.6119    6.7572   20.8136 C   0  0  0  0  0  0  0  0  0  0  0  0
   49.4590    6.2275   19.3457 C   0  0  0  0  0  0  0  0  0  0  0  0
   47.7392    5.5085   21.4146 C   0  0  0  0  0  0  0  0  0  0  0  0
   49.5695    4.9823   19.9636 C   0  0  0  0  0  0  0  0  0  0  0  0
   48.7161    4.6136   20.9970 C   0  0  0  0  0  0  0  0  0  0  0  0
   48.9162   10.9720   19.4605 N   0  0  0  0  0  0  0  0  0  0  0  0
   48.3353    8.4884   19.1005 C   0  0  2  0  0  0  0  0  0  0  0  0
   48.6665    9.6527   20.0738 C   0  0  0  0  0  0  0  0  0  0  0  0
   50.5174    4.0802   19.5773 O   0  0  0  0  0  0  0  0  0  0  0  0
   46.8735    5.1985   22.4210 O   0  0  0  0  0  0  0  0  0  0  0  0
   47.0100    8.6153   18.5781 O   0  0  0  0  0  0  0  0  0  0  0  0
   47.7491   11.5986   18.8243 C   0  0  0  0  0  0  0  0  0  0  0  0
   48.2155   12.9177   18.1981 C   0  0  0  0  0  0  0  0  0  0  0  0
   46.6102   11.8814   19.8062 C   0  0  0  0  0  0  0  0  0  0  0  0
   46.9485   10.5825   21.6397 H   0  0  0  0  0  0  0  0  0  0  0  0
   48.3458    9.7536   17.6399 H   0  0  0  0  0  0  0  0  0  0  0  0
   46.9610   13.6891   18.6787 H   0  0  0  0  0  0  0  0  0  0  0  0
   49.6190    7.3509   21.9450 H   0  0  0  0  0  0  0  0  0  0  0  0
   47.5649    8.3854   21.0987 H   0  0  0  0  0  0  0  0  0  0  0  0
   50.0129    9.1724   20.4770 H   0  0  0  0  0  0  0  0  0  0  0  0
   49.8791    8.1194   19.0945 H   0  0  0  0  0  0  0  0  0  0  0  0
   47.7432   13.0739   16.6420 H   0  0  0  0  0  0  0  0  0  0  0  0
   46.2593   12.6975   21.9780 H   0  0  0  0  0  0  0  0  0  0  0  0
   46.4772    8.1302   18.9230 H   0  0  0  0  0  0  0  0  0  0  0  0
   50.5162    5.2328   21.1170 H   0  0  0  0  0  0  0  0  0  0  0  0
   50.8526    5.8589   18.7420 H   0  0  0  0  0  0  0  0  0  0  0  0
   49.0939    5.9423   18.5120 H   0  0  0  0  0  0  0  0  0  0  0  0
   49.8613    4.4147   18.9500 H   0  0  0  0  0  0  0  0  0  0  0  0
   48.3440    4.1808   21.0017 H   0  0  0  0  0  0  0  0  0  0  0  0
   47.5366    5.7173   20.6782 H   0  0  0  0  0  0  0  0  0  0  0  0
   48.3306    5.4417   22.2364 H   0  0  0  0  0  0  0  0  0  0  0  0
   47.0704   10.1628   19.3860 H   0  0  0  0  0  0  0  0  0  0  0  0
   47.7824    7.0089   20.4450 H   0  0  0  0  0  0  0  0  0  0  0  0
   46.8344    7.4353   21.1604 H   0  0  0  0  0  0  0  0  0  0  0  0
   50.1326    6.5004   18.5376 H   0  0  0  0  0  0  0  0  0  0  0  0
   48.8284    3.6385   21.4584 H   0  0  0  0  0  0  0  0  0  0  0  0
   49.6551   10.8768   18.7641 H   0  0  0  0  0  0  0  0  0  0  0  0
   49.0165    8.5380   18.2420 H   0  0  0  0  0  0  0  0  0  0  0  0
   47.8946    9.7415   20.8463 H   0  0  0  0  0  0  0  0  0  0  0  0
   49.5895    9.3971   20.6106 H   0  0  0  0  0  0  0  0  0  0  0  0
   51.0460    4.4655   18.8596 H   0  0  0  0  0  0  0  0  0  0  0  0
   47.0693    4.2986   22.7332 H   0  0  0  0  0  0  0  0  0  0  0  0
   46.6633    7.7201   18.4231 H   0  0  0  0  0  0  0  0  0  0  0  0
   47.3784   10.9719   18.0067 H   0  0  0  0  0  0  0  0  0  0  0  0
   48.6020   13.6082   18.9560 H   0  0  0  0  0  0  0  0  0  0  0  0
   47.3863   13.4148   17.6819 H   0  0  0  0  0  0  0  0  0  0  0  0
   49.0052   12.7466   17.4571 H   0  0  0  0  0  0  0  0  0  0  0  0
   46.1605   10.9582   20.1854 H   0  0  0  0  0  0  0  0  0  0  0  0
   45.8109   12.4454   19.3145 H   0  0  0  0  0  0  0  0  0  0  0  0
   46.9555   12.4723   20.6621 H   0  0  0  0  0  0  0  0  0  0  0  0
  2  1  2  0
  3  1  1  0
  4  2  1  0
  5  3  2  0
  6  4  2  0
  7  9  1  0
  8  1  1  0
  9  8  1  0
 10  5  1  0
 11  4  1  0
 12  8  1  0
 13  7  1  0
 14 13  1  0
 15 13  1  0
  6  5  1  0
 17 16  2  0
 18 16  2  0
 19 16  1  0
 20 16  1  0
 22 21  2  0
 23 21  1  0
 24 22  1  0
 25 23  2  0
 26 24  2  0
 27 29  1  0
 28 21  1  0
 29 28  1  0
 30 25  1  0
 31 24  1  0
 32 28  1  0
 33 27  1  0
 34 33  1  0
 35 33  1  0
 26 25  1  0
  2 36  1  0
  3 37  1  0
  6 38  1  0
  7 39  1  0
  8 40  1  1
  9 41  1  0
  9 42  1  0
 10 43  1  0
 11 44  1  0
 12 45  1  0
 13 46  1  0
 14 47  1  0
 14 48  1  0
 14 49  1  0
 15 50  1  0
 15 51  1  0
 15 52  1  0
 19 53  1  0
 20 54  1  0
 22 55  1  0
 23 56  1  0
 26 57  1  0
 27 58  1  0
 28 59  1  6
 29 60  1  0
 29 61  1  0
 30 62  1  0
 31 63  1  0
 32 64  1  0
 33 65  1  0
 34 66  1  0
 34 67  1  0
 34 68  1  0
 35 69  1  0
 35 70  1  0
 35 71  1  0
M  END
> <Uni-Dock RESULT> 
ENERGY=   -4.922  LOWER_BOUND=    7.527  UPPER_BOUND=    9.493
INTER + INTRA:          -4.922
INTER:                  -4.922
INTRA:                   0.000
UNBOUND:                 0.000

$$$$

     RDKit          3D

 71 70  0  0  0  0  0  0  0  0999 V2000
   40.6368   11.4550   10.7463 C   0  0  0  0  0  0  0  0  0  0  0  0
   39.8299   10.3061   10.7909 C   0  0  0  0  0  0  0  0  0  0  0  0
   40.3090   12.5459   11.5697 C   0  0  0  0  0  0  0  0  0  0  0  0
   38.7286   10.2640   11.6449 C   0  0  0  0  0  0  0  0  0  0  0  0
   39.2045   12.4810   12.4139 C   0  0  0  0  0  0  0  0  0  0  0  0
   38.4090   11.3436   12.4603 C   0  0  0  0  0  0  0  0  0  0  0  0
   44.3735   11.0045    9.9669 N   0  0  0  0  0  0  0  0  0  0  0  0
   41.8486   11.5090    9.8347 C   0  0  2  0  0  0  0  0  0  0  0  0
   43.1746   11.5283   10.6411 C   0  0  0  0  0  0  0  0  0  0  0  0
   38.9380   13.5672   13.1948 O   0  0  0  0  0  0  0  0  0  0  0  0
   37.9290    9.1617   11.7162 O   0  0  0  0  0  0  0  0  0  0  0  0
   41.7398   12.6595    8.9963 O   0  0  0  0  0  0  0  0  0  0  0  0
   45.0145   11.8275    8.9363 C   0  0  0  0  0  0  0  0  0  0  0  0
   45.0593   13.3304    9.2141 C   0  0  0  0  0  0  0  0  0  0  0  0
   44.4752   11.5290    7.5355 C   0  0  0  0  0  0  0  0  0  0  0  0
   42.1138   11.9837   10.5105 S   0  0  0  0  0  0  0  0  0  0  0  0
   41.8253   13.1852   11.2508 O   0  0  0  0  0  0  0  0  0  0  0  0
   43.2365   11.1232   10.7838 O   0  0  0  0  0  0  0  0  0  0  0  0
   40.7767   11.0982   10.5347 O   0  0  0  0  0  0  0  0  0  0  0  0
   42.2065   12.3618    8.9548 O   0  0  0  0  0  0  0  0  0  0  0  0
   43.0740   12.2536    9.2482 C   0  0  0  0  0  0  0  0  0  0  0  0
   42.8632   11.4149    8.1406 C   0  0  0  0  0  0  0  0  0  0  0  0
   44.3128   12.9013    9.3802 C   0  0  0  0  0  0  0  0  0  0  0  0
   43.8677   11.2338    7.1947 C   0  0  0  0  0  0  0  0  0  0  0  0
   45.3056   12.7036    8.4211 C   0  0  0  0  0  0  0  0  0  0  0  0
   45.0936   11.8735    7.3265 C   0  0  0  0  0  0  0  0  0  0  0  0
   40.8889   11.3178   12.3108 N   0  0  0  0  0  0  0  0  0  0  0  0
   41.9814   12.4651   10.2795 C   0  0  2  0  0  0  0  0  0  0  0  0
   41.6598   11.1620   11.0615 C   0  0  0  0  0  0  0  0  0  0  0  0
   46.5202   13.3171    8.5205 O   0  0  0  0  0  0  0  0  0  0  0  0
   43.6040   10.4113    6.1401 O   0  0  0  0  0  0  0  0  0  0  0  0
   40.8165   12.9724    9.6231 O   0  0  0  0  0  0  0  0  0  0  0  0
   39.5011   11.7693   12.1389 C   0  0  0  0  0  0  0  0  0  0  0  0
   38.8897   11.9288   13.5355 C   0  0  0  0  0  0  0  0  0  0  0  0
   38.6493   10.7938   11.3240 C   0  0  0  0  0  0  0  0  0  0  0  0
   40.0679    9.4516   10.1623 H   0  0  0  0  0  0  0  0  0  0  0  0
   40.9125   13.4506   11.5524 H   0  0  0  0  0  0  0  0  0  0  0  0
   37.5473   11.2792   13.1162 H   0  0  0  0  0  0  0  0  0  0  0  0
   44.1859   10.0761    9.5964 H   0  0  0  0  0  0  0  0  0  0  0  0
   41.8368   10.6331    9.1749 H   0  0  0  0  0  0  0  0  0  0  0  0
   43.0451   10.8783   11.5156 H   0  0  0  0  0  0  0  0  0  0  0  0
   43.3682   12.5265   11.0493 H   0  0  0  0  0  0  0  0  0  0  0  0
   38.1539   13.3737   13.7358 H   0  0  0  0  0  0  0  0  0  0  0  0
   38.2604    8.4910   11.0966 H   0  0  0  0  0  0  0  0  0  0  0  0
   40.7928   12.8192    8.8394 H   0  0  0  0  0  0  0  0  0  0  0  0
   46.0613   11.4938    8.9258 H   0  0  0  0  0  0  0  0  0  0  0  0
   45.4784   13.5351   10.2060 H   0  0  0  0  0  0  0  0  0  0  0  0
   44.0713   13.7960    9.1548 H   0  0  0  0  0  0  0  0  0  0  0  0
   45.7023   13.8322    8.4817 H   0  0  0  0  0  0  0  0  0  0  0  0
   45.0943   12.0201    6.7749 H   0  0  0  0  0  0  0  0  0  0  0  0
   43.4486   11.8741    7.3978 H   0  0  0  0  0  0  0  0  0  0  0  0
   44.5013   10.4524    7.3273 H   0  0  0  0  0  0  0  0  0  0  0  0
   40.0171   11.7161   10.5362 H   0  0  0  0  0  0  0  0  0  0  0  0
   42.7619   11.6783    8.5262 H   0  0  0  0  0  0  0  0  0  0  0  0
   41.9120   10.9028    8.0080 H   0  0  0  0  0  0  0  0  0  0  0  0
   44.4932   13.5550   10.2295 H   0  0  0  0  0  0  0  0  0  0  0  0
   45.8862   11.7390    6.5985 H   0  0  0  0  0  0  0  0  0  0  0  0
   41.3742   11.9792   12.9167 H   0  0  0  0  0  0  0  0  0  0  0  0
   42.3014   13.2366   10.9907 H   0  0  0  0  0  0  0  0  0  0  0  0
   41.1678   10.4319   10.4093 H   0  0  0  0  0  0  0  0  0  0  0  0
   42.6097   10.6974   11.3566 H   0  0  0  0  0  0  0  0  0  0  0  0
   46.5369   13.8554    9.3285 H   0  0  0  0  0  0  0  0  0  0  0  0
   44.3835   10.3913    5.5590 H   0  0  0  0  0  0  0  0  0  0  0  0
   41.1033   13.4152    8.8062 H   0  0  0  0  0  0  0  0  0  0  0  0
   39.4772   12.7567   11.6665 H   0  0  0  0  0  0  0  0  0  0  0  0
   38.8736   10.9773   14.0786 H   0  0  0  0  0  0  0  0  0  0  0  0
   37.8587   12.2941   13.4664 H   0  0  0  0  0  0  0  0  0  0  0  0
   39.4533   12.6544   14.1337 H   0  0  0  0  0  0  0  0  0  0  0  0
   38.9745   10.7431   10.2799 H   0  0  0  0  0  0  0  0  0  0  0  0
   37.6022   11.1137   11.3153 H   0  0  0  0  0  0  0  0  0  0  0  0
   38.6841    9.7825   11.7444 H   0  0  0  0  0  0  0  0  0  0  0  0
  2  1  2  0
  3  1  1  0
  4  2  1  0
  5  3  2  0
  6  4  2  0
  7  9  1  0
  8  1  1  0
  9  8  1  0
 10  5  1  0
 11  4  1  0
 12  8  1  0
 13  7  1  0
 14 13  1  0
 15 13  1  0
  6  5  1  0
 17 16  2  0
 18 16  2  0
 19 16  1  0
 20 16  1  0
 22 21  2  0
 23 21  1  0
 24 22  1  0
 25 23  2  0
 26 24  2  0
 27 29  1  0
 28 21  1  0
 29 28  1  0
 30 25  1  0
 31 24  1  0
 32 28  1  0
 33 27  1  0
 34 33  1  0
 35 33  1  0
 26 25  1  0
  2 36  1  0
  3 37  1  0
  6 38  1  0
  7 39  1  0
  8 40  1  1
  9 41  1  0
  9 42  1  0
 10 43  1  0
 11 44  1  0
 12 45  1  0
 13 46  1  0
 14 47  1  0
 14 48  1  0
 14 49  1  0
 15 50  1  0
 15 51  1  0
 15 52  1  0
 19 53  1  0
 20 54  1  0
 22 55  1  0
 23 56  1  0
 26 57  1  0
 27 58  1  0
 28 59  1  6
 29 60  1  0
 29 61  1  0
 30 62  1  0
 31 63  1  0
 32 64  1  0
 33 65  1  0
 34 66  1  0
 34 67  1  0
 34 68  1  0
 35 69  1  0
 35 70  1  0
 35 71  1  0
M  END
> <Uni-Dock RESULT> 
ENERGY=   -4.876  LOWER_BOUND=    6.483  UPPER_BOUND=    7.664
INTER + INTRA:          -4.876
INTER:                  -4.876
INTRA:                   0.000
UNBOUND:                 0.000

$$$$

     RDKit          3D

 71 70  0  0  0  0  0  0  0  0999 V2000
   41.3811   11.8772   11.2954 C   0  0  0  0  0  0  0  0  0  0  0  0
   41.1864   12.7865   12.3480 C   0  0  0  0  0  0  0  0  0  0  0  0
   40.4540   10.8355   11.1193 C   0  0  0  0  0  0  0  0  0  0  0  0
   40.0859   12.6458   13.1925 C   0  0  0  0  0  0  0  0  0  0  0  0
   39.3632   10.7149   11.9751 C   0  0  0  0  0  0  0  0  0  0  0  0
   39.1691   11.6162   13.0136 C   0  0  0  0  0  0  0  0  0  0  0  0
   43.0935   13.1568    8.1011 N   0  0  0  0  0  0  0  0  0  0  0  0
   42.5646   12.0278   10.3577 C   0  0  2  0  0  0  0  0  0  0  0  0
   42.1171   12.4275    8.9263 C   0  0  0  0  0  0  0  0  0  0  0  0
   38.4928    9.6884   11.7527 O   0  0  0  0  0  0  0  0  0  0  0  0
   39.8651   13.5151   14.2196 O   0  0  0  0  0  0  0  0  0  0  0  0
   43.2967   10.8020   10.3442 O   0  0  0  0  0  0  0  0  0  0  0  0
   44.2144   12.4121    7.5184 C   0  0  0  0  0  0  0  0  0  0  0  0
   43.8901   11.0074    7.0092 C   0  0  0  0  0  0  0  0  0  0  0  0
   45.4466   12.4122    8.4261 C   0  0  0  0  0  0  0  0  0  0  0  0
   41.9566   11.7107    9.8265 S   0  0  0  0  0  0  0  0  0  0  0  0
   41.1149   10.5634    9.6031 O   0  0  0  0  0  0  0  0  0  0  0  0
   42.0127   12.8483    8.9442 O   0  0  0  0  0  0  0  0  0  0  0  0
   41.6367   12.2323   11.3091 O   0  0  0  0  0  0  0  0  0  0  0  0
   43.4673   11.2003    9.9972 O   0  0  0  0  0  0  0  0  0  0  0  0
   43.4063   11.5526    9.1471 C   0  0  0  0  0  0  0  0  0  0  0  0
   44.4617   12.1863    9.8247 C   0  0  0  0  0  0  0  0  0  0  0  0
   43.5611   11.2524    7.7842 C   0  0  0  0  0  0  0  0  0  0  0  0
   45.6367   12.5078    9.1521 C   0  0  0  0  0  0  0  0  0  0  0  0
   44.7466   11.5854    7.1299 C   0  0  0  0  0  0  0  0  0  0  0  0
   45.7887   12.2120    7.8034 C   0  0  0  0  0  0  0  0  0  0  0  0
   39.9379   12.2426   10.7355 N   0  0  0  0  0  0  0  0  0  0  0  0
   42.1253   11.1893    9.8744 C   0  0  2  0  0  0  0  0  0  0  0  0
   41.3464   12.4484   10.3445 C   0  0  0  0  0  0  0  0  0  0  0  0
   44.9284   11.3085    5.8063 O   0  0  0  0  0  0  0  0  0  0  0  0
   46.6267   13.1185    9.8627 O   0  0  0  0  0  0  0  0  0  0  0  0
   42.4447   10.3392   10.9792 O   0  0  0  0  0  0  0  0  0  0  0  0
   39.7352   11.4436   11.9521 C   0  0  0  0  0  0  0  0  0  0  0  0
   38.2242   11.2900   12.1589 C   0  0  0  0  0  0  0  0  0  0  0  0
   40.3527   12.0812   13.1984 C   0  0  0  0  0  0  0  0  0  0  0  0
   41.8921   13.5996   12.4997 H   0  0  0  0  0  0  0  0  0  0  0  0
   40.5821   10.1134   10.3160 H   0  0  0  0  0  0  0  0  0  0  0  0
   38.3214   11.5350   13.6855 H   0  0  0  0  0  0  0  0  0  0  0  0
   43.4460   13.9630    8.6111 H   0  0  0  0  0  0  0  0  0  0  0  0
   43.2385   12.7957   10.7560 H   0  0  0  0  0  0  0  0  0  0  0  0
   41.2680   13.1161    9.0202 H   0  0  0  0  0  0  0  0  0  0  0  0
   41.7266   11.5597    8.3833 H   0  0  0  0  0  0  0  0  0  0  0  0
   37.7813    9.7382   12.4133 H   0  0  0  0  0  0  0  0  0  0  0  0
   40.5774   14.1754   14.2326 H   0  0  0  0  0  0  0  0  0  0  0  0
   43.2033   10.3953   11.2233 H   0  0  0  0  0  0  0  0  0  0  0  0
   44.5024   12.9929    6.6313 H   0  0  0  0  0  0  0  0  0  0  0  0
   43.0272   11.0229    6.3335 H   0  0  0  0  0  0  0  0  0  0  0  0
   43.6785   10.3067    7.8220 H   0  0  0  0  0  0  0  0  0  0  0  0
   44.7375   10.6048    6.4421 H   0  0  0  0  0  0  0  0  0  0  0  0
   46.3157   12.0109    7.8906 H   0  0  0  0  0  0  0  0  0  0  0  0
   45.3065   11.8093    9.3254 H   0  0  0  0  0  0  0  0  0  0  0  0
   45.7025   13.4320    8.7385 H   0  0  0  0  0  0  0  0  0  0  0  0
   41.4169   11.4486   11.8533 H   0  0  0  0  0  0  0  0  0  0  0  0
   44.0517   11.9496    9.7599 H   0  0  0  0  0  0  0  0  0  0  0  0
   44.3737   12.4276   10.8825 H   0  0  0  0  0  0  0  0  0  0  0  0
   42.7561   10.7609    7.2442 H   0  0  0  0  0  0  0  0  0  0  0  0
   46.6977   12.4595    7.2661 H   0  0  0  0  0  0  0  0  0  0  0  0
   39.4444   11.7932    9.9644 H   0  0  0  0  0  0  0  0  0  0  0  0
   41.4836   10.6041    9.2041 H   0  0  0  0  0  0  0  0  0  0  0  0
   41.8860   12.9572   11.1509 H   0  0  0  0  0  0  0  0  0  0  0  0
   41.3204   13.1643    9.5126 H   0  0  0  0  0  0  0  0  0  0  0  0
   44.1273   10.8828    5.4599 H   0  0  0  0  0  0  0  0  0  0  0  0
   47.3853   13.2686    9.2730 H   0  0  0  0  0  0  0  0  0  0  0  0
   43.2869    9.8955   10.7806 H   0  0  0  0  0  0  0  0  0  0  0  0
   40.1420   10.4359   11.8184 H   0  0  0  0  0  0  0  0  0  0  0  0
   37.7374   12.2609   12.3041 H   0  0  0  0  0  0  0  0  0  0  0  0
   38.0157   10.6741   13.0412 H   0  0  0  0  0  0  0  0  0  0  0  0
   37.7551   10.7975   11.2991 H   0  0  0  0  0  0  0  0  0  0  0  0
   41.4462   12.0972   13.1487 H   0  0  0  0  0  0  0  0  0  0  0  0
   40.0838   11.5115   14.0940 H   0  0  0  0  0  0  0  0  0  0  0  0
   40.0000   13.1089   13.3403 H   0  0  0  0  0  0  0  0  0  0  0  0
  2  1  2  0
  3  1  1  0
  4  2  1  0
  5  3  2  0
  6  4  2  0
  7  9  1  0
  8  1  1  0
  9  8  1  0
 10  5  1  0
 11  4  1  0
 12  8  1  0
 13  7  1  0
 14 13  1  0
 15 13  1  0
  6  5  1  0
 17 16  2  0
 18 16  2  0
 19 16  1  0
 20 16  1  0
 22 21  2  0
 23 21  1  0
 24 22  1  0
 25 23  2  0
 26 24  2  0
 27 29  1  0
 28 21  1  0
 29 28  1  0
 30 25  1  0
 31 24  1  0
 32 28  1  0
 33 27  1  0
 34 33  1  0
 35 33  1  0
 26 25  1  0
  2 36  1  0
  3 37  1  0
  6 38  1  0
  7 39  1  0
  8 40  1  1
  9 41  1  0
  9 42  1  0
 10 43  1  0
 11 44  1  0
 12 45  1  0
 13 46  1  0
 14 47  1  0
 14 48  1  0
 14 49  1  0
 15 50  1  0
 15 51  1  0
 15 52  1  0
 19 53  1  0
 20 54  1  0
 22 55  1  0
 23 56  1  0
 26 57  1  0
 27 58  1  0
 28 59  1  6
 29 60  1  0
 29 61  1  0
 30 62  1  0
 31 63  1  0
 32 64  1  0
 33 65  1  0
 34 66  1  0
 34 67  1  0
 34 68  1  0
 35 69  1  0
 35 70  1  0
 35 71  1  0
M  END
> <Uni-Dock RESULT> 
ENERGY=   -4.778  LOWER_BOUND=    6.491  UPPER_BOUND=    7.779
INTER + INTRA:          -4.778
INTER:                  -4.778
INTRA:                   0.000
UNBOUND:                 0.000

$$$$
