
     RDKit          3D

 71 70  0  0  0  0  0  0  0  0999 V2000
   45.1049    2.7394    8.5322 C   0  0  0  0  0  0  0  0  0  0  0  0
   45.6067    1.4235    8.5479 C   0  0  0  0  0  0  0  0  0  0  0  0
   45.6465    3.6367    7.5961 C   0  0  0  0  0  0  0  0  0  0  0  0
   46.6316    1.0424    7.6828 C   0  0  0  0  0  0  0  0  0  0  0  0
   46.6688    3.2364    6.7368 C   0  0  0  0  0  0  0  0  0  0  0  0
   47.1713    1.9423    6.7741 C   0  0  0  0  0  0  0  0  0  0  0  0
   45.1729    4.9692   10.6917 N   0  0  0  0  0  0  0  0  0  0  0  0
   43.9669    3.1408    9.4565 C   0  0  2  0  0  0  0  0  0  0  0  0
   43.9539    4.6156    9.9546 C   0  0  0  0  0  0  0  0  0  0  0  0
   47.1531    4.1596    5.8561 O   0  0  0  0  0  0  0  0  0  0  0  0
   47.1363   -0.2250    7.7003 O   0  0  0  0  0  0  0  0  0  0  0  0
   43.9595    2.2811   10.6115 O   0  0  0  0  0  0  0  0  0  0  0  0
   45.0282    6.1438   11.5478 C   0  0  0  0  0  0  0  0  0  0  0  0
   46.4067    6.7812   11.7074 C   0  0  0  0  0  0  0  0  0  0  0  0
   44.4540    5.7682   12.9148 C   0  0  0  0  0  0  0  0  0  0  0  0
   45.2455    4.3018    9.6278 S   0  0  0  0  0  0  0  0  0  0  0  0
   43.8230    4.3127    9.8611 O   0  0  0  0  0  0  0  0  0  0  0  0
   45.9372    5.3482    8.9165 O   0  0  0  0  0  0  0  0  0  0  0  0
   45.9572    4.0740   11.0473 O   0  0  0  0  0  0  0  0  0  0  0  0
   45.6032    2.9360    8.8663 O   0  0  0  0  0  0  0  0  0  0  0  0
   45.3023    5.3510   10.4935 C   0  0  0  0  0  0  0  0  0  0  0  0
   44.1183    4.7327   10.9300 C   0  0  0  0  0  0  0  0  0  0  0  0
   46.1523    5.9035   11.4662 C   0  0  0  0  0  0  0  0  0  0  0  0
   43.8171    4.6538   12.2893 C   0  0  0  0  0  0  0  0  0  0  0  0
   45.8350    5.8185   12.8211 C   0  0  0  0  0  0  0  0  0  0  0  0
   44.6688    5.1926   13.2477 C   0  0  0  0  0  0  0  0  0  0  0  0
   46.6297    3.2295    8.5763 N   0  0  0  0  0  0  0  0  0  0  0  0
   45.6139    5.4635    9.0103 C   0  0  2  0  0  0  0  0  0  0  0  0
   45.5137    4.1320    8.2128 C   0  0  0  0  0  0  0  0  0  0  0  0
   46.7090    6.3763   13.7109 O   0  0  0  0  0  0  0  0  0  0  0  0
   42.6528    4.0338   12.6391 O   0  0  0  0  0  0  0  0  0  0  0  0
   46.9347    5.9858    8.8057 O   0  0  0  0  0  0  0  0  0  0  0  0
   46.6489    1.9427    7.8650 C   0  0  0  0  0  0  0  0  0  0  0  0
   45.5092    1.0176    8.2952 C   0  0  0  0  0  0  0  0  0  0  0  0
   46.6934    2.0902    6.3439 C   0  0  0  0  0  0  0  0  0  0  0  0
   45.1908    0.7041    9.2492 H   0  0  0  0  0  0  0  0  0  0  0  0
   45.2933    4.6626    7.5274 H   0  0  0  0  0  0  0  0  0  0  0  0
   47.9672    1.6204    6.1145 H   0  0  0  0  0  0  0  0  0  0  0  0
   45.5101    4.1605   11.2177 H   0  0  0  0  0  0  0  0  0  0  0  0
   43.0313    2.9495    8.9185 H   0  0  0  0  0  0  0  0  0  0  0  0
   43.0796    4.7352   10.6070 H   0  0  0  0  0  0  0  0  0  0  0  0
   43.8259    5.3055    9.1127 H   0  0  0  0  0  0  0  0  0  0  0  0
   47.8800    3.7517    5.3551 H   0  0  0  0  0  0  0  0  0  0  0  0
   46.6933   -0.7229    8.4061 H   0  0  0  0  0  0  0  0  0  0  0  0
   43.2719    2.6183   11.2093 H   0  0  0  0  0  0  0  0  0  0  0  0
   44.3746    6.8861   11.0744 H   0  0  0  0  0  0  0  0  0  0  0  0
   46.3591    7.6467   12.3787 H   0  0  0  0  0  0  0  0  0  0  0  0
   46.7718    7.1481   10.7453 H   0  0  0  0  0  0  0  0  0  0  0  0
   47.1381    6.0770   12.1145 H   0  0  0  0  0  0  0  0  0  0  0  0
   44.4156    6.6478   13.5682 H   0  0  0  0  0  0  0  0  0  0  0  0
   45.0609    5.0038   13.4150 H   0  0  0  0  0  0  0  0  0  0  0  0
   43.4297    5.3824   12.8220 H   0  0  0  0  0  0  0  0  0  0  0  0
   45.4270    3.4185   11.5415 H   0  0  0  0  0  0  0  0  0  0  0  0
   46.0452    3.1914    8.0259 H   0  0  0  0  0  0  0  0  0  0  0  0
   43.4086    4.3150   10.2199 H   0  0  0  0  0  0  0  0  0  0  0  0
   47.0674    6.4152   11.1739 H   0  0  0  0  0  0  0  0  0  0  0  0
   44.4278    5.1279   14.3014 H   0  0  0  0  0  0  0  0  0  0  0  0
   46.5814    3.0463    9.5837 H   0  0  0  0  0  0  0  0  0  0  0  0
   44.9171    6.1922    8.5811 H   0  0  0  0  0  0  0  0  0  0  0  0
   45.6061    4.3930    7.1512 H   0  0  0  0  0  0  0  0  0  0  0  0
   44.5399    3.6538    8.3616 H   0  0  0  0  0  0  0  0  0  0  0  0
   46.3799    6.2307   14.6114 H   0  0  0  0  0  0  0  0  0  0  0  0
   42.5320    4.1170   13.5987 H   0  0  0  0  0  0  0  0  0  0  0  0
   47.4923    5.1817    8.7041 H   0  0  0  0  0  0  0  0  0  0  0  0
   47.5881    1.4564    8.1595 H   0  0  0  0  0  0  0  0  0  0  0  0
   45.4960    0.8915    9.3813 H   0  0  0  0  0  0  0  0  0  0  0  0
   45.6377    0.0254    7.8497 H   0  0  0  0  0  0  0  0  0  0  0  0
   44.5286    1.3926    7.9848 H   0  0  0  0  0  0  0  0  0  0  0  0
   45.7410    2.4502    5.9410 H   0  0  0  0  0  0  0  0  0  0  0  0
   47.4831    2.7834    6.0373 H   0  0  0  0  0  0  0  0  0  0  0  0
   46.9061    1.1248    5.8737 H   0  0  0  0  0  0  0  0  0  0  0  0
  2  1  2  0
  3  1  1  0
  4  2  1  0
  5  3  2  0
  6  4  2  0
  7  9  1  0
  8  1  1  0
  9  8  1  0
 10  5  1  0
 11  4  1  0
 12  8  1  0
 13  7  1  0
 14 13  1  0
 15 13  1  0
  6  5  1  0
 17 16  2  0
 18 16  2  0
 19 16  1  0
 20 16  1  0
 22 21  2  0
 23 21  1  0
 24 22  1  0
 25 23  2  0
 26 24  2  0
 27 29  1  0
 28 21  1  0
 29 28  1  0
 30 25  1  0
 31 24  1  0
 32 28  1  0
 33 27  1  0
 34 33  1  0
 35 33  1  0
 26 25  1  0
  2 36  1  0
  3 37  1  0
  6 38  1  0
  7 39  1  0
  8 40  1  1
  9 41  1  0
  9 42  1  0
 10 43  1  0
 11 44  1  0
 12 45  1  0
 13 46  1  0
 14 47  1  0
 14 48  1  0
 14 49  1  0
 15 50  1  0
 15 51  1  0
 15 52  1  0
 19 53  1  0
 20 54  1  0
 22 55  1  0
 23 56  1  0
 26 57  1  0
 27 58  1  0
 28 59  1  1
 29 60  1  0
 29 61  1  0
 30 62  1  0
 31 63  1  0
 32 64  1  0
 33 65  1  0
 34 66  1  0
 34 67  1  0
 34 68  1  0
 35 69  1  0
 35 70  1  0
 35 71  1  0
M  END
> <Uni-Dock RESULT> 
ENERGY=   -6.046  LOWER_BOUND=    0.000  UPPER_BOUND=    0.000
INTER + INTRA:          -6.046
INTER:                  -6.046
INTRA:                   0.000
UNBOUND:                 0.000

$$$$

     RDKit          3D

 71 70  0  0  0  0  0  0  0  0999 V2000
   45.4460    5.0849   12.8343 C   0  0  0  0  0  0  0  0  0  0  0  0
   45.4802    3.8781   12.1090 C   0  0  0  0  0  0  0  0  0  0  0  0
   44.3569    5.9472   12.6219 C   0  0  0  0  0  0  0  0  0  0  0  0
   44.4797    3.5736   11.1869 C   0  0  0  0  0  0  0  0  0  0  0  0
   43.3642    5.6241   11.6980 C   0  0  0  0  0  0  0  0  0  0  0  0
   43.4176    4.4412   10.9723 C   0  0  0  0  0  0  0  0  0  0  0  0
   47.3663    7.5247   12.8170 N   0  0  0  0  0  0  0  0  0  0  0  0
   46.5232    5.3976   13.8603 C   0  0  2  0  0  0  0  0  0  0  0  0
   46.8918    6.8973   14.0563 C   0  0  0  0  0  0  0  0  0  0  0  0
   42.3376    6.5087   11.5367 O   0  0  0  0  0  0  0  0  0  0  0  0
   44.5111    2.4150   10.4672 O   0  0  0  0  0  0  0  0  0  0  0  0
   47.7279    4.6835   13.5255 O   0  0  0  0  0  0  0  0  0  0  0  0
   48.1343    8.7489   13.0289 C   0  0  0  0  0  0  0  0  0  0  0  0
   47.9907    9.6154   11.7797 C   0  0  0  0  0  0  0  0  0  0  0  0
   49.6085    8.4412   13.2965 C   0  0  0  0  0  0  0  0  0  0  0  0
   46.3656    6.7626   12.8000 S   0  0  0  0  0  0  0  0  0  0  0  0
   46.8487    6.5687   14.1442 O   0  0  0  0  0  0  0  0  0  0  0  0
   45.4576    7.8207   12.4320 O   0  0  0  0  0  0  0  0  0  0  0  0
   47.6482    6.8144   11.8378 O   0  0  0  0  0  0  0  0  0  0  0  0
   45.6679    5.3961   12.3318 O   0  0  0  0  0  0  0  0  0  0  0  0
   47.1172    7.8977   12.7922 C   0  0  0  0  0  0  0  0  0  0  0  0
   47.8088    7.1485   13.7592 C   0  0  0  0  0  0  0  0  0  0  0  0
   47.8725    8.6866   11.9084 C   0  0  0  0  0  0  0  0  0  0  0  0
   49.2019    7.1750   13.8163 C   0  0  0  0  0  0  0  0  0  0  0  0
   49.2646    8.7041   11.9808 C   0  0  0  0  0  0  0  0  0  0  0  0
   49.9439    7.9492   12.9307 C   0  0  0  0  0  0  0  0  0  0  0  0
   45.1750    5.8178   11.4356 N   0  0  0  0  0  0  0  0  0  0  0  0
   45.5981    7.8918   12.7511 C   0  0  2  0  0  0  0  0  0  0  0  0
   44.9443    6.4806   12.7394 C   0  0  0  0  0  0  0  0  0  0  0  0
   49.9338    9.4929   11.0881 O   0  0  0  0  0  0  0  0  0  0  0  0
   49.8050    6.4176   14.7781 O   0  0  0  0  0  0  0  0  0  0  0  0
   45.1172    8.5951   11.5965 O   0  0  0  0  0  0  0  0  0  0  0  0
   44.5807    4.4795   11.3019 C   0  0  0  0  0  0  0  0  0  0  0  0
   45.2836    3.4360   12.1719 C   0  0  0  0  0  0  0  0  0  0  0  0
   43.0695    4.4602   11.5325 C   0  0  0  0  0  0  0  0  0  0  0  0
   46.3019    3.1843   12.2696 H   0  0  0  0  0  0  0  0  0  0  0  0
   44.2682    6.8879   13.1597 H   0  0  0  0  0  0  0  0  0  0  0  0
   42.6548    4.1807   10.2495 H   0  0  0  0  0  0  0  0  0  0  0  0
   47.8883    6.8458   12.2594 H   0  0  0  0  0  0  0  0  0  0  0  0
   46.1797    4.9978   14.8212 H   0  0  0  0  0  0  0  0  0  0  0  0
   47.6784    6.9460   14.8199 H   0  0  0  0  0  0  0  0  0  0  0  0
   46.0325    7.4582   14.4410 H   0  0  0  0  0  0  0  0  0  0  0  0
   41.7497    6.1705   10.8398 H   0  0  0  0  0  0  0  0  0  0  0  0
   45.3237    1.9344   10.6930 H   0  0  0  0  0  0  0  0  0  0  0  0
   48.4094    4.9697   14.1560 H   0  0  0  0  0  0  0  0  0  0  0  0
   47.7263    9.3173   13.8731 H   0  0  0  0  0  0  0  0  0  0  0  0
   48.5856   10.5317   11.8720 H   0  0  0  0  0  0  0  0  0  0  0  0
   46.9516    9.9262   11.6477 H   0  0  0  0  0  0  0  0  0  0  0  0
   48.3166    9.0896   10.8776 H   0  0  0  0  0  0  0  0  0  0  0  0
   50.1832    9.3708   13.3852 H   0  0  0  0  0  0  0  0  0  0  0  0
   50.0531    7.8467   12.4893 H   0  0  0  0  0  0  0  0  0  0  0  0
   49.7334    7.8864   14.2363 H   0  0  0  0  0  0  0  0  0  0  0  0
   48.2820    6.1413   12.1543 H   0  0  0  0  0  0  0  0  0  0  0  0
   44.7435    5.6237   12.0853 H   0  0  0  0  0  0  0  0  0  0  0  0
   47.2746    6.5440   14.4884 H   0  0  0  0  0  0  0  0  0  0  0  0
   47.3793    9.3039   11.1597 H   0  0  0  0  0  0  0  0  0  0  0  0
   51.0254    7.9652   12.9817 H   0  0  0  0  0  0  0  0  0  0  0  0
   46.1864    5.7437   11.2859 H   0  0  0  0  0  0  0  0  0  0  0  0
   45.2421    8.4447   13.6276 H   0  0  0  0  0  0  0  0  0  0  0  0
   43.8656    6.6321   12.8691 H   0  0  0  0  0  0  0  0  0  0  0  0
   45.3047    5.8705   13.5743 H   0  0  0  0  0  0  0  0  0  0  0  0
   50.8877    9.3979   11.2349 H   0  0  0  0  0  0  0  0  0  0  0  0
   50.7606    6.5875   14.7541 H   0  0  0  0  0  0  0  0  0  0  0  0
   44.9840    7.8859   10.9278 H   0  0  0  0  0  0  0  0  0  0  0  0
   44.7411    4.1883   10.2556 H   0  0  0  0  0  0  0  0  0  0  0  0
   46.3610    3.4323   11.9856 H   0  0  0  0  0  0  0  0  0  0  0  0
   44.9059    2.4341   11.9418 H   0  0  0  0  0  0  0  0  0  0  0  0
   45.1243    3.6095   13.2411 H   0  0  0  0  0  0  0  0  0  0  0  0
   42.8157    4.6133   12.5865 H   0  0  0  0  0  0  0  0  0  0  0  0
   42.5699    5.2335   10.9403 H   0  0  0  0  0  0  0  0  0  0  0  0
   42.6502    3.4955   11.2294 H   0  0  0  0  0  0  0  0  0  0  0  0
  2  1  2  0
  3  1  1  0
  4  2  1  0
  5  3  2  0
  6  4  2  0
  7  9  1  0
  8  1  1  0
  9  8  1  0
 10  5  1  0
 11  4  1  0
 12  8  1  0
 13  7  1  0
 14 13  1  0
 15 13  1  0
  6  5  1  0
 17 16  2  0
 18 16  2  0
 19 16  1  0
 20 16  1  0
 22 21  2  0
 23 21  1  0
 24 22  1  0
 25 23  2  0
 26 24  2  0
 27 29  1  0
 28 21  1  0
 29 28  1  0
 30 25  1  0
 31 24  1  0
 32 28  1  0
 33 27  1  0
 34 33  1  0
 35 33  1  0
 26 25  1  0
  2 36  1  0
  3 37  1  0
  6 38  1  0
  7 39  1  0
  8 40  1  1
  9 41  1  0
  9 42  1  0
 10 43  1  0
 11 44  1  0
 12 45  1  0
 13 46  1  0
 14 47  1  0
 14 48  1  0
 14 49  1  0
 15 50  1  0
 15 51  1  0
 15 52  1  0
 19 53  1  0
 20 54  1  0
 22 55  1  0
 23 56  1  0
 26 57  1  0
 27 58  1  0
 28 59  1  1
 29 60  1  0
 29 61  1  0
 30 62  1  0
 31 63  1  0
 32 64  1  0
 33 65  1  0
 34 66  1  0
 34 67  1  0
 34 68  1  0
 35 69  1  0
 35 70  1  0
 35 71  1  0
M  END
> <Uni-Dock RESULT> 
ENERGY=   -5.405  LOWER_BOUND=    3.131  UPPER_BOUND=    5.163
INTER + INTRA:          -5.405
INTER:                  -5.405
INTRA:                   0.000
UNBOUND:                 0.000

$$$$

     RDKit          3D

 71 70  0  0  0  0  0  0  0  0999 V2000
   48.7379    6.0706   17.5278 C   0  0  0  0  0  0  0  0  0  0  0  0
   48.0543    5.4954   16.4391 C   0  0  0  0  0  0  0  0  0  0  0  0
   48.8320    5.3215   18.7131 C   0  0  0  0  0  0  0  0  0  0  0  0
   47.4634    4.2378   16.5541 C   0  0  0  0  0  0  0  0  0  0  0  0
   48.2374    4.0641   18.8082 C   0  0  0  0  0  0  0  0  0  0  0  0
   47.5475    3.5141   17.7356 C   0  0  0  0  0  0  0  0  0  0  0  0
   48.1282    8.6157   19.1986 N   0  0  0  0  0  0  0  0  0  0  0  0
   49.4062    7.4287   17.3871 C   0  0  2  0  0  0  0  0  0  0  0  0
   49.4621    8.3191   18.6628 C   0  0  0  0  0  0  0  0  0  0  0  0
   48.3622    3.3927   19.9898 O   0  0  0  0  0  0  0  0  0  0  0  0
   46.7850    3.6778   15.5112 O   0  0  0  0  0  0  0  0  0  0  0  0
   48.7522    8.1809   16.3479 O   0  0  0  0  0  0  0  0  0  0  0  0
   48.0896    9.7774   20.0830 C   0  0  0  0  0  0  0  0  0  0  0  0
   46.9194    9.5951   21.0470 C   0  0  0  0  0  0  0  0  0  0  0  0
   47.9283   11.0751   19.2897 C   0  0  0  0  0  0  0  0  0  0  0  0
   48.4122    7.4535   18.8096 S   0  0  0  0  0  0  0  0  0  0  0  0
   49.5644    8.1940   18.3603 O   0  0  0  0  0  0  0  0  0  0  0  0
   48.3019    6.8904   20.1325 O   0  0  0  0  0  0  0  0  0  0  0  0
   47.1218    8.3605   18.5169 O   0  0  0  0  0  0  0  0  0  0  0  0
   48.1876    6.2365   17.7890 O   0  0  0  0  0  0  0  0  0  0  0  0
   48.1694    8.5100   19.6333 C   0  0  0  0  0  0  0  0  0  0  0  0
   48.9102    9.1474   18.6234 C   0  0  0  0  0  0  0  0  0  0  0  0
   47.0926    9.2117   20.2006 C   0  0  0  0  0  0  0  0  0  0  0  0
   48.5648   10.4265   18.1884 C   0  0  0  0  0  0  0  0  0  0  0  0
   46.7622   10.4911   19.7561 C   0  0  0  0  0  0  0  0  0  0  0  0
   47.4903   11.1108   18.7464 C   0  0  0  0  0  0  0  0  0  0  0  0
   47.4632    5.6874   18.4198 N   0  0  0  0  0  0  0  0  0  0  0  0
   48.5660    7.1288   20.1278 C   0  0  2  0  0  0  0  0  0  0  0  0
   48.7667    6.0622   19.0137 C   0  0  0  0  0  0  0  0  0  0  0  0
   45.7016   11.1129   20.3522 O   0  0  0  0  0  0  0  0  0  0  0  0
   49.3260   10.9800   17.2002 O   0  0  0  0  0  0  0  0  0  0  0  0
   47.5859    6.6139   21.0406 O   0  0  0  0  0  0  0  0  0  0  0  0
   47.5289    4.6652   17.3647 C   0  0  0  0  0  0  0  0  0  0  0  0
   48.1786    5.1870   16.0821 C   0  0  0  0  0  0  0  0  0  0  0  0
   48.1836    3.3616   17.8221 C   0  0  0  0  0  0  0  0  0  0  0  0
   47.9844    6.0462   15.5041 H   0  0  0  0  0  0  0  0  0  0  0  0
   49.3563    5.7062   19.5843 H   0  0  0  0  0  0  0  0  0  0  0  0
   47.0786    2.5403   17.7983 H   0  0  0  0  0  0  0  0  0  0  0  0
   47.4561    8.7035   18.4339 H   0  0  0  0  0  0  0  0  0  0  0  0
   50.4320    7.2499   17.0452 H   0  0  0  0  0  0  0  0  0  0  0  0
   49.9671    9.2544   18.3897 H   0  0  0  0  0  0  0  0  0  0  0  0
   50.0675    7.8401   19.4407 H   0  0  0  0  0  0  0  0  0  0  0  0
   47.8691    2.5574   19.9200 H   0  0  0  0  0  0  0  0  0  0  0  0
   46.7765    4.3102   14.7747 H   0  0  0  0  0  0  0  0  0  0  0  0
   49.1557    9.0647   16.3436 H   0  0  0  0  0  0  0  0  0  0  0  0
   49.0054    9.8340   20.6834 H   0  0  0  0  0  0  0  0  0  0  0  0
   46.8212   10.4645   21.7077 H   0  0  0  0  0  0  0  0  0  0  0  0
   47.0856    8.7276   21.6901 H   0  0  0  0  0  0  0  0  0  0  0  0
   45.9709    9.4629   20.5183 H   0  0  0  0  0  0  0  0  0  0  0  0
   47.8323   11.9298   19.9698 H   0  0  0  0  0  0  0  0  0  0  0  0
   47.0379   11.0529   18.6498 H   0  0  0  0  0  0  0  0  0  0  0  0
   48.8022   11.2601   18.6504 H   0  0  0  0  0  0  0  0  0  0  0  0
   47.2547    8.7921   17.6503 H   0  0  0  0  0  0  0  0  0  0  0  0
   48.2127    5.4128   18.3255 H   0  0  0  0  0  0  0  0  0  0  0  0
   49.7723    8.6641   18.1700 H   0  0  0  0  0  0  0  0  0  0  0  0
   46.5063    8.7688   21.0037 H   0  0  0  0  0  0  0  0  0  0  0  0
   47.2285   12.1041   18.4037 H   0  0  0  0  0  0  0  0  0  0  0  0
   47.0310    6.5318   18.0314 H   0  0  0  0  0  0  0  0  0  0  0  0
   49.4981    7.2360   20.6939 H   0  0  0  0  0  0  0  0  0  0  0  0
   49.1978    5.1775   19.4986 H   0  0  0  0  0  0  0  0  0  0  0  0
   49.4736    6.4117   18.2539 H   0  0  0  0  0  0  0  0  0  0  0  0
   45.5702   11.9802   19.9390 H   0  0  0  0  0  0  0  0  0  0  0  0
   49.0260   11.8909   17.0496 H   0  0  0  0  0  0  0  0  0  0  0  0
   46.9959    6.0711   20.4706 H   0  0  0  0  0  0  0  0  0  0  0  0
   46.4857    4.4231   17.1228 H   0  0  0  0  0  0  0  0  0  0  0  0
   47.6911    6.1046   15.7414 H   0  0  0  0  0  0  0  0  0  0  0  0
   48.0839    4.4464   15.2808 H   0  0  0  0  0  0  0  0  0  0  0  0
   49.2454    5.3968   16.2110 H   0  0  0  0  0  0  0  0  0  0  0  0
   49.2633    3.4752   17.9639 H   0  0  0  0  0  0  0  0  0  0  0  0
   47.7464    3.0085   18.7614 H   0  0  0  0  0  0  0  0  0  0  0  0
   48.0302    2.5759   17.0754 H   0  0  0  0  0  0  0  0  0  0  0  0
  2  1  2  0
  3  1  1  0
  4  2  1  0
  5  3  2  0
  6  4  2  0
  7  9  1  0
  8  1  1  0
  9  8  1  0
 10  5  1  0
 11  4  1  0
 12  8  1  0
 13  7  1  0
 14 13  1  0
 15 13  1  0
  6  5  1  0
 17 16  2  0
 18 16  2  0
 19 16  1  0
 20 16  1  0
 22 21  2  0
 23 21  1  0
 24 22  1  0
 25 23  2  0
 26 24  2  0
 27 29  1  0
 28 21  1  0
 29 28  1  0
 30 25  1  0
 31 24  1  0
 32 28  1  0
 33 27  1  0
 34 33  1  0
 35 33  1  0
 26 25  1  0
  2 36  1  0
  3 37  1  0
  6 38  1  0
  7 39  1  0
  8 40  1  1
  9 41  1  0
  9 42  1  0
 10 43  1  0
 11 44  1  0
 12 45  1  0
 13 46  1  0
 14 47  1  0
 14 48  1  0
 14 49  1  0
 15 50  1  0
 15 51  1  0
 15 52  1  0
 19 53  1  0
 20 54  1  0
 22 55  1  0
 23 56  1  0
 26 57  1  0
 27 58  1  0
 28 59  1  1
 29 60  1  0
 29 61  1  0
 30 62  1  0
 31 63  1  0
 32 64  1  0
 33 65  1  0
 34 66  1  0
 34 67  1  0
 34 68  1  0
 35 69  1  0
 35 70  1  0
 35 71  1  0
M  END
> <Uni-Dock RESULT> 
ENERGY=   -5.071  LOWER_BOUND=    7.561  UPPER_BOUND=   10.325
INTER + INTRA:          -5.071
INTER:                  -5.071
INTRA:                   0.000
UNBOUND:                 0.000

$$$$

     RDKit          3D

 71 70  0  0  0  0  0  0  0  0999 V2000
   45.3154    6.2330   11.7181 C   0  0  0  0  0  0  0  0  0  0  0  0
   43.9448    6.5500   11.6529 C   0  0  0  0  0  0  0  0  0  0  0  0
   45.6696    4.9316   12.1125 C   0  0  0  0  0  0  0  0  0  0  0  0
   42.9790    5.6077   12.0036 C   0  0  0  0  0  0  0  0  0  0  0  0
   44.6895    4.0016   12.4564 C   0  0  0  0  0  0  0  0  0  0  0  0
   43.3410    4.3303   12.4089 C   0  0  0  0  0  0  0  0  0  0  0  0
   47.5867    7.3783   13.4986 N   0  0  0  0  0  0  0  0  0  0  0  0
   46.3628    7.2546   11.3054 C   0  0  2  0  0  0  0  0  0  0  0  0
   47.7293    7.1985   12.0489 C   0  0  0  0  0  0  0  0  0  0  0  0
   45.1027    2.7576   12.8359 O   0  0  0  0  0  0  0  0  0  0  0  0
   41.6490    5.9089   11.9597 O   0  0  0  0  0  0  0  0  0  0  0  0
   45.8266    8.5820   11.4595 O   0  0  0  0  0  0  0  0  0  0  0  0
   48.8192    7.7831   14.1697 C   0  0  0  0  0  0  0  0  0  0  0  0
   48.7449    7.3035   15.6176 C   0  0  0  0  0  0  0  0  0  0  0  0
   49.0064    9.3004   14.1207 C   0  0  0  0  0  0  0  0  0  0  0  0
   46.7898    6.6355   12.8696 S   0  0  0  0  0  0  0  0  0  0  0  0
   47.5134    7.2570   11.7889 O   0  0  0  0  0  0  0  0  0  0  0  0
   47.2409    5.4397   13.5374 O   0  0  0  0  0  0  0  0  0  0  0  0
   46.5050    7.7720   13.9653 O   0  0  0  0  0  0  0  0  0  0  0  0
   45.3079    6.3180   12.3436 O   0  0  0  0  0  0  0  0  0  0  0  0
   47.8203    7.0328   13.6656 C   0  0  0  0  0  0  0  0  0  0  0  0
   47.9236    7.9812   12.6337 C   0  0  0  0  0  0  0  0  0  0  0  0
   48.0653    7.4630   14.9803 C   0  0  0  0  0  0  0  0  0  0  0  0
   48.2363    9.3099   12.9184 C   0  0  0  0  0  0  0  0  0  0  0  0
   48.3797    8.7947   15.2475 C   0  0  0  0  0  0  0  0  0  0  0  0
   48.4662    9.7316   14.2236 C   0  0  0  0  0  0  0  0  0  0  0  0
   45.0245    5.6577   13.1849 N   0  0  0  0  0  0  0  0  0  0  0  0
   47.5099    5.5788   13.3506 C   0  0  2  0  0  0  0  0  0  0  0  0
   46.2682    5.3516   12.4420 C   0  0  0  0  0  0  0  0  0  0  0  0
   48.6035    9.1420   16.5499 O   0  0  0  0  0  0  0  0  0  0  0  0
   48.3137   10.1756   11.8662 O   0  0  0  0  0  0  0  0  0  0  0  0
   47.2996    4.8302   14.5566 O   0  0  0  0  0  0  0  0  0  0  0  0
   43.7799    5.4572   12.4279 C   0  0  0  0  0  0  0  0  0  0  0  0
   43.5963    6.4919   11.3164 C   0  0  0  0  0  0  0  0  0  0  0  0
   43.6195    4.0358   11.8883 C   0  0  0  0  0  0  0  0  0  0  0  0
   43.6436    7.5443   11.3314 H   0  0  0  0  0  0  0  0  0  0  0  0
   46.7103    4.6228   12.1715 H   0  0  0  0  0  0  0  0  0  0  0  0
   42.5708    3.6182   12.6768 H   0  0  0  0  0  0  0  0  0  0  0  0
   46.8212    8.0256   13.6968 H   0  0  0  0  0  0  0  0  0  0  0  0
   46.5462    7.1140   10.2340 H   0  0  0  0  0  0  0  0  0  0  0  0
   48.3608    7.9964   11.6378 H   0  0  0  0  0  0  0  0  0  0  0  0
   48.2379    6.2485   11.8492 H   0  0  0  0  0  0  0  0  0  0  0  0
   44.3187    2.2367   13.0803 H   0  0  0  0  0  0  0  0  0  0  0  0
   41.5527    6.8392   11.6998 H   0  0  0  0  0  0  0  0  0  0  0  0
   46.5480    9.2019   11.2616 H   0  0  0  0  0  0  0  0  0  0  0  0
   49.6864    7.2983   13.7060 H   0  0  0  0  0  0  0  0  0  0  0  0
   49.6322    7.6207   16.1780 H   0  0  0  0  0  0  0  0  0  0  0  0
   48.7201    6.2119   15.6578 H   0  0  0  0  0  0  0  0  0  0  0  0
   47.8621    7.6933   16.1327 H   0  0  0  0  0  0  0  0  0  0  0  0
   49.8985    9.5941   14.6865 H   0  0  0  0  0  0  0  0  0  0  0  0
   48.1470    9.8305   14.5486 H   0  0  0  0  0  0  0  0  0  0  0  0
   49.1421    9.6499   13.0882 H   0  0  0  0  0  0  0  0  0  0  0  0
   46.2767    8.5929   13.4867 H   0  0  0  0  0  0  0  0  0  0  0  0
   45.1718    5.3507   12.4568 H   0  0  0  0  0  0  0  0  0  0  0  0
   47.7745    7.6981   11.5944 H   0  0  0  0  0  0  0  0  0  0  0  0
   48.0226    6.7587   15.8091 H   0  0  0  0  0  0  0  0  0  0  0  0
   48.7092   10.7650   14.4367 H   0  0  0  0  0  0  0  0  0  0  0  0
   45.0658    6.6339   13.4948 H   0  0  0  0  0  0  0  0  0  0  0  0
   48.3935    5.1506   12.8641 H   0  0  0  0  0  0  0  0  0  0  0  0
   46.2636    4.2875   12.1751 H   0  0  0  0  0  0  0  0  0  0  0  0
   46.3424    5.9337   11.5174 H   0  0  0  0  0  0  0  0  0  0  0  0
   48.7914   10.0922   16.5962 H   0  0  0  0  0  0  0  0  0  0  0  0
   48.6108   11.0394   12.1951 H   0  0  0  0  0  0  0  0  0  0  0  0
   46.3237    4.8511   14.6791 H   0  0  0  0  0  0  0  0  0  0  0  0
   42.9671    5.6112   13.1497 H   0  0  0  0  0  0  0  0  0  0  0  0
   43.6840    7.5085   11.7093 H   0  0  0  0  0  0  0  0  0  0  0  0
   42.6008    6.3960   10.8698 H   0  0  0  0  0  0  0  0  0  0  0  0
   44.3298    6.3740   10.5122 H   0  0  0  0  0  0  0  0  0  0  0  0
   44.3104    3.8322   11.0637 H   0  0  0  0  0  0  0  0  0  0  0  0
   43.7903    3.2934   12.6744 H   0  0  0  0  0  0  0  0  0  0  0  0
   42.6030    3.8839   11.5115 H   0  0  0  0  0  0  0  0  0  0  0  0
  2  1  2  0
  3  1  1  0
  4  2  1  0
  5  3  2  0
  6  4  2  0
  7  9  1  0
  8  1  1  0
  9  8  1  0
 10  5  1  0
 11  4  1  0
 12  8  1  0
 13  7  1  0
 14 13  1  0
 15 13  1  0
  6  5  1  0
 17 16  2  0
 18 16  2  0
 19 16  1  0
 20 16  1  0
 22 21  2  0
 23 21  1  0
 24 22  1  0
 25 23  2  0
 26 24  2  0
 27 29  1  0
 28 21  1  0
 29 28  1  0
 30 25  1  0
 31 24  1  0
 32 28  1  0
 33 27  1  0
 34 33  1  0
 35 33  1  0
 26 25  1  0
  2 36  1  0
  3 37  1  0
  6 38  1  0
  7 39  1  0
  8 40  1  1
  9 41  1  0
  9 42  1  0
 10 43  1  0
 11 44  1  0
 12 45  1  0
 13 46  1  0
 14 47  1  0
 14 48  1  0
 14 49  1  0
 15 50  1  0
 15 51  1  0
 15 52  1  0
 19 53  1  0
 20 54  1  0
 22 55  1  0
 23 56  1  0
 26 57  1  0
 27 58  1  0
 28 59  1  1
 29 60  1  0
 29 61  1  0
 30 62  1  0
 31 63  1  0
 32 64  1  0
 33 65  1  0
 34 66  1  0
 34 67  1  0
 34 68  1  0
 35 69  1  0
 35 70  1  0
 35 71  1  0
M  END
> <Uni-Dock RESULT> 
ENERGY=   -4.950  LOWER_BOUND=    3.837  UPPER_BOUND=    5.764
INTER + INTRA:          -4.950
INTER:                  -4.950
INTRA:                   0.000
UNBOUND:                 0.000

$$$$

     RDKit          3D

 71 70  0  0  0  0  0  0  0  0999 V2000
   43.9863    9.9450   11.0801 C   0  0  0  0  0  0  0  0  0  0  0  0
   44.5449    8.8706   11.7992 C   0  0  0  0  0  0  0  0  0  0  0  0
   44.7582   11.1106   10.9377 C   0  0  0  0  0  0  0  0  0  0  0  0
   45.8089    8.9816   12.3769 C   0  0  0  0  0  0  0  0  0  0  0  0
   46.0217   11.2020   11.5197 C   0  0  0  0  0  0  0  0  0  0  0  0
   46.5554   10.1444   12.2447 C   0  0  0  0  0  0  0  0  0  0  0  0
   41.4797   11.6879   11.6456 N   0  0  0  0  0  0  0  0  0  0  0  0
   42.6207    9.8074   10.4268 C   0  0  2  0  0  0  0  0  0  0  0  0
   41.7555   11.0979   10.3302 C   0  0  0  0  0  0  0  0  0  0  0  0
   46.7155   12.3644   11.3472 O   0  0  0  0  0  0  0  0  0  0  0  0
   46.3531    7.9530   13.0892 O   0  0  0  0  0  0  0  0  0  0  0  0
   41.8529    8.8082   11.1234 O   0  0  0  0  0  0  0  0  0  0  0  0
   40.3362   12.5965   11.6597 C   0  0  0  0  0  0  0  0  0  0  0  0
   40.5466   13.5986   12.7926 C   0  0  0  0  0  0  0  0  0  0  0  0
   39.0242   11.8359   11.8588 C   0  0  0  0  0  0  0  0  0  0  0  0
   42.6317   11.2655   11.3682 S   0  0  0  0  0  0  0  0  0  0  0  0
   41.8738   10.7895   10.2382 O   0  0  0  0  0  0  0  0  0  0  0  0
   43.2220   12.5799   11.4261 O   0  0  0  0  0  0  0  0  0  0  0  0
   41.7289   11.0384   12.6746 O   0  0  0  0  0  0  0  0  0  0  0  0
   43.8299   10.2293   11.6217 O   0  0  0  0  0  0  0  0  0  0  0  0
   41.5938   12.1186   11.5878 C   0  0  0  0  0  0  0  0  0  0  0  0
   40.9308   11.0955   10.8889 C   0  0  0  0  0  0  0  0  0  0  0  0
   40.9117   12.7389   12.6479 C   0  0  0  0  0  0  0  0  0  0  0  0
   39.6460   10.6992   11.2587 C   0  0  0  0  0  0  0  0  0  0  0  0
   39.6262   12.3326   13.0030 C   0  0  0  0  0  0  0  0  0  0  0  0
   38.9810   11.3098   12.3167 C   0  0  0  0  0  0  0  0  0  0  0  0
   44.3969   10.8749   12.3187 N   0  0  0  0  0  0  0  0  0  0  0  0
   42.9815   12.5703   11.1640 C   0  0  2  0  0  0  0  0  0  0  0  0
   44.0242   11.4283   10.9969 C   0  0  0  0  0  0  0  0  0  0  0  0
   39.0245   12.9795   14.0453 O   0  0  0  0  0  0  0  0  0  0  0  0
   39.0671    9.6953   10.5379 O   0  0  0  0  0  0  0  0  0  0  0  0
   43.5219   13.5077   12.1064 O   0  0  0  0  0  0  0  0  0  0  0  0
   45.3973    9.7978   12.2847 C   0  0  0  0  0  0  0  0  0  0  0  0
   44.8451    8.5030   11.6860 C   0  0  0  0  0  0  0  0  0  0  0  0
   46.7048   10.2045   11.6049 C   0  0  0  0  0  0  0  0  0  0  0  0
   43.9761    7.9501   11.9071 H   0  0  0  0  0  0  0  0  0  0  0  0
   44.3869   11.9697   10.3844 H   0  0  0  0  0  0  0  0  0  0  0  0
   47.5338   10.2044   12.7043 H   0  0  0  0  0  0  0  0  0  0  0  0
   41.3818   10.9501   12.3458 H   0  0  0  0  0  0  0  0  0  0  0  0
   42.7849    9.4248    9.4129 H   0  0  0  0  0  0  0  0  0  0  0  0
   40.8112   10.8255    9.8420 H   0  0  0  0  0  0  0  0  0  0  0  0
   42.2453   11.8434    9.6935 H   0  0  0  0  0  0  0  0  0  0  0  0
   47.5530   12.2958   11.8368 H   0  0  0  0  0  0  0  0  0  0  0  0
   45.7063    7.2302   13.1290 H   0  0  0  0  0  0  0  0  0  0  0  0
   40.9662    8.8070   10.7265 H   0  0  0  0  0  0  0  0  0  0  0  0
   40.2846   13.1640   10.7230 H   0  0  0  0  0  0  0  0  0  0  0  0
   39.6913   14.2799   12.8725 H   0  0  0  0  0  0  0  0  0  0  0  0
   41.4254   14.2175   12.5971 H   0  0  0  0  0  0  0  0  0  0  0  0
   40.6754   13.1023   13.7589 H   0  0  0  0  0  0  0  0  0  0  0  0
   38.1840   12.5362   11.9357 H   0  0  0  0  0  0  0  0  0  0  0  0
   39.0404   11.2286   12.7719 H   0  0  0  0  0  0  0  0  0  0  0  0
   38.8199   11.1690   11.0102 H   0  0  0  0  0  0  0  0  0  0  0  0
   41.2791   10.1764   12.5764 H   0  0  0  0  0  0  0  0  0  0  0  0
   44.6639   10.7478   11.5713 H   0  0  0  0  0  0  0  0  0  0  0  0
   41.3984   10.6012   10.0407 H   0  0  0  0  0  0  0  0  0  0  0  0
   41.3749   13.5537   13.2013 H   0  0  0  0  0  0  0  0  0  0  0  0
   37.9831   10.9970   12.5976 H   0  0  0  0  0  0  0  0  0  0  0  0
   43.5482   10.5197   12.7706 H   0  0  0  0  0  0  0  0  0  0  0  0
   42.8786   13.1041   10.2125 H   0  0  0  0  0  0  0  0  0  0  0  0
   44.9150   11.8792   10.5423 H   0  0  0  0  0  0  0  0  0  0  0  0
   43.6543   10.6504   10.3207 H   0  0  0  0  0  0  0  0  0  0  0  0
   38.1501   12.5890   14.1977 H   0  0  0  0  0  0  0  0  0  0  0  0
   38.1556    9.5742   10.8495 H   0  0  0  0  0  0  0  0  0  0  0  0
   44.0577   12.9487   12.7132 H   0  0  0  0  0  0  0  0  0  0  0  0
   45.6424    9.5892   13.3344 H   0  0  0  0  0  0  0  0  0  0  0  0
   43.9247    8.1990   12.1919 H   0  0  0  0  0  0  0  0  0  0  0  0
   45.5703    7.6909   11.8049 H   0  0  0  0  0  0  0  0  0  0  0  0
   44.6299    8.5972   10.6167 H   0  0  0  0  0  0  0  0  0  0  0  0
   46.5859   10.3091   10.5214 H   0  0  0  0  0  0  0  0  0  0  0  0
   47.0799   11.1518   12.0049 H   0  0  0  0  0  0  0  0  0  0  0  0
   47.4766    9.4481   11.7800 H   0  0  0  0  0  0  0  0  0  0  0  0
  2  1  2  0
  3  1  1  0
  4  2  1  0
  5  3  2  0
  6  4  2  0
  7  9  1  0
  8  1  1  0
  9  8  1  0
 10  5  1  0
 11  4  1  0
 12  8  1  0
 13  7  1  0
 14 13  1  0
 15 13  1  0
  6  5  1  0
 17 16  2  0
 18 16  2  0
 19 16  1  0
 20 16  1  0
 22 21  2  0
 23 21  1  0
 24 22  1  0
 25 23  2  0
 26 24  2  0
 27 29  1  0
 28 21  1  0
 29 28  1  0
 30 25  1  0
 31 24  1  0
 32 28  1  0
 33 27  1  0
 34 33  1  0
 35 33  1  0
 26 25  1  0
  2 36  1  0
  3 37  1  0
  6 38  1  0
  7 39  1  0
  8 40  1  1
  9 41  1  0
  9 42  1  0
 10 43  1  0
 11 44  1  0
 12 45  1  0
 13 46  1  0
 14 47  1  0
 14 48  1  0
 14 49  1  0
 15 50  1  0
 15 51  1  0
 15 52  1  0
 19 53  1  0
 20 54  1  0
 22 55  1  0
 23 56  1  0
 26 57  1  0
 27 58  1  0
 28 59  1  1
 29 60  1  0
 29 61  1  0
 30 62  1  0
 31 63  1  0
 32 64  1  0
 33 65  1  0
 34 66  1  0
 34 67  1  0
 34 68  1  0
 35 69  1  0
 35 70  1  0
 35 71  1  0
M  END
> <Uni-Dock RESULT> 
ENERGY=   -4.905  LOWER_BOUND=    6.296  UPPER_BOUND=    8.364
INTER + INTRA:          -4.905
INTER:                  -4.905
INTRA:                   0.000
UNBOUND:                 0.000

$$$$

     RDKit          3D

 71 70  0  0  0  0  0  0  0  0999 V2000
   46.9609    6.7177   12.5087 C   0  0  0  0  0  0  0  0  0  0  0  0
   45.6358    6.8070   12.0398 C   0  0  0  0  0  0  0  0  0  0  0  0
   47.3335    5.5550   13.2044 C   0  0  0  0  0  0  0  0  0  0  0  0
   44.7212    5.7854   12.2926 C   0  0  0  0  0  0  0  0  0  0  0  0
   46.4058    4.5424   13.4448 C   0  0  0  0  0  0  0  0  0  0  0  0
   45.0957    4.6490   12.9963 C   0  0  0  0  0  0  0  0  0  0  0  0
   48.5070    8.4384   14.5797 N   0  0  0  0  0  0  0  0  0  0  0  0
   47.9617    7.8205   12.2039 C   0  0  2  0  0  0  0  0  0  0  0  0
   49.0655    8.0811   13.2702 C   0  0  0  0  0  0  0  0  0  0  0  0
   46.8327    3.4429   14.1312 O   0  0  0  0  0  0  0  0  0  0  0  0
   43.4310    5.8685   11.8572 O   0  0  0  0  0  0  0  0  0  0  0  0
   47.2601    9.0576   11.9784 O   0  0  0  0  0  0  0  0  0  0  0  0
   49.4520    9.1189   15.4614 C   0  0  0  0  0  0  0  0  0  0  0  0
   49.0322    8.8416   16.9032 C   0  0  0  0  0  0  0  0  0  0  0  0
   49.4762   10.6248   15.1944 C   0  0  0  0  0  0  0  0  0  0  0  0
   48.0035    7.5006   13.9092 S   0  0  0  0  0  0  0  0  0  0  0  0
   48.9252    8.0685   12.9575 O   0  0  0  0  0  0  0  0  0  0  0  0
   48.3811    6.4946   14.8708 O   0  0  0  0  0  0  0  0  0  0  0  0
   47.3017    8.7220   14.6767 O   0  0  0  0  0  0  0  0  0  0  0  0
   46.7706    6.8874   13.0862 O   0  0  0  0  0  0  0  0  0  0  0  0
   48.7219    8.1600   14.8592 C   0  0  0  0  0  0  0  0  0  0  0  0
   49.0018    8.9586   13.7373 C   0  0  0  0  0  0  0  0  0  0  0  0
   48.5430    8.8032   16.0954 C   0  0  0  0  0  0  0  0  0  0  0  0
   49.0740   10.3464   13.8529 C   0  0  0  0  0  0  0  0  0  0  0  0
   48.6213   10.1916   16.1943 C   0  0  0  0  0  0  0  0  0  0  0  0
   48.8843   10.9775   15.0777 C   0  0  0  0  0  0  0  0  0  0  0  0
   46.3397    6.3160   13.9300 N   0  0  0  0  0  0  0  0  0  0  0  0
   48.6743    6.6459   14.7376 C   0  0  2  0  0  0  0  0  0  0  0  0
   47.7667    6.1045   13.5964 C   0  0  0  0  0  0  0  0  0  0  0  0
   48.4348   10.7487   17.4279 O   0  0  0  0  0  0  0  0  0  0  0  0
   49.3440   11.0573   12.7197 O   0  0  0  0  0  0  0  0  0  0  0  0
   48.2217    6.0507   15.9623 O   0  0  0  0  0  0  0  0  0  0  0  0
   45.3844    5.8215   12.9274 C   0  0  0  0  0  0  0  0  0  0  0  0
   45.4032    6.6491   11.6411 C   0  0  0  0  0  0  0  0  0  0  0  0
   45.5387    4.3309   12.6249 C   0  0  0  0  0  0  0  0  0  0  0  0
   45.3275    7.6876   11.4814 H   0  0  0  0  0  0  0  0  0  0  0  0
   48.3445    5.4220   13.5814 H   0  0  0  0  0  0  0  0  0  0  0  0
   44.3653    3.8713   13.1797 H   0  0  0  0  0  0  0  0  0  0  0  0
   47.6498    8.9811   14.4576 H   0  0  0  0  0  0  0  0  0  0  0  0
   48.4498    7.5610   11.2575 H   0  0  0  0  0  0  0  0  0  0  0  0
   49.6938    8.9012   12.9001 H   0  0  0  0  0  0  0  0  0  0  0  0
   49.7115    7.2025   13.3786 H   0  0  0  0  0  0  0  0  0  0  0  0
   46.0744    2.8467   14.2549 H   0  0  0  0  0  0  0  0  0  0  0  0
   43.3081    6.7270   11.4210 H   0  0  0  0  0  0  0  0  0  0  0  0
   47.9348    9.7474   11.8654 H   0  0  0  0  0  0  0  0  0  0  0  0
   50.4621    8.7135   15.3284 H   0  0  0  0  0  0  0  0  0  0  0  0
   49.6883    9.3675   17.6068 H   0  0  0  0  0  0  0  0  0  0  0  0
   49.1184    7.7759   17.1280 H   0  0  0  0  0  0  0  0  0  0  0  0
   48.0036    9.1588   17.0978 H   0  0  0  0  0  0  0  0  0  0  0  0
   50.1378   11.1292   15.9085 H   0  0  0  0  0  0  0  0  0  0  0  0
   48.4785   11.0706   15.2874 H   0  0  0  0  0  0  0  0  0  0  0  0
   49.8536   10.8425   14.1860 H   0  0  0  0  0  0  0  0  0  0  0  0
   47.1257    9.4224   14.0183 H   0  0  0  0  0  0  0  0  0  0  0  0
   46.7165    5.9363   13.3300 H   0  0  0  0  0  0  0  0  0  0  0  0
   49.1795    8.5128   12.7615 H   0  0  0  0  0  0  0  0  0  0  0  0
   48.3502    8.2241   16.9967 H   0  0  0  0  0  0  0  0  0  0  0  0
   48.9425   12.0556   15.1597 H   0  0  0  0  0  0  0  0  0  0  0  0
   46.1850    7.3206   14.0625 H   0  0  0  0  0  0  0  0  0  0  0  0
   49.7000    6.2953   14.5771 H   0  0  0  0  0  0  0  0  0  0  0  0
   47.9544    5.0256   13.5298 H   0  0  0  0  0  0  0  0  0  0  0  0
   48.0298    6.5553   12.6338 H   0  0  0  0  0  0  0  0  0  0  0  0
   48.4959   11.7135   17.3520 H   0  0  0  0  0  0  0  0  0  0  0  0
   49.4405   11.9940   12.9556 H   0  0  0  0  0  0  0  0  0  0  0  0
   47.2541    5.9376   15.8253 H   0  0  0  0  0  0  0  0  0  0  0  0
   44.3914    5.9480   13.3782 H   0  0  0  0  0  0  0  0  0  0  0  0
   45.2651    7.7120   11.8572 H   0  0  0  0  0  0  0  0  0  0  0  0
   44.5878    6.3388   10.9789 H   0  0  0  0  0  0  0  0  0  0  0  0
   46.3394    6.5341   11.0854 H   0  0  0  0  0  0  0  0  0  0  0  0
   46.4495    4.1227   12.0541 H   0  0  0  0  0  0  0  0  0  0  0  0
   45.5657    3.7416   13.5470 H   0  0  0  0  0  0  0  0  0  0  0  0
   44.6901    3.9725   12.0335 H   0  0  0  0  0  0  0  0  0  0  0  0
  2  1  2  0
  3  1  1  0
  4  2  1  0
  5  3  2  0
  6  4  2  0
  7  9  1  0
  8  1  1  0
  9  8  1  0
 10  5  1  0
 11  4  1  0
 12  8  1  0
 13  7  1  0
 14 13  1  0
 15 13  1  0
  6  5  1  0
 17 16  2  0
 18 16  2  0
 19 16  1  0
 20 16  1  0
 22 21  2  0
 23 21  1  0
 24 22  1  0
 25 23  2  0
 26 24  2  0
 27 29  1  0
 28 21  1  0
 29 28  1  0
 30 25  1  0
 31 24  1  0
 32 28  1  0
 33 27  1  0
 34 33  1  0
 35 33  1  0
 26 25  1  0
  2 36  1  0
  3 37  1  0
  6 38  1  0
  7 39  1  0
  8 40  1  1
  9 41  1  0
  9 42  1  0
 10 43  1  0
 11 44  1  0
 12 45  1  0
 13 46  1  0
 14 47  1  0
 14 48  1  0
 14 49  1  0
 15 50  1  0
 15 51  1  0
 15 52  1  0
 19 53  1  0
 20 54  1  0
 22 55  1  0
 23 56  1  0
 26 57  1  0
 27 58  1  0
 28 59  1  1
 29 60  1  0
 29 61  1  0
 30 62  1  0
 31 63  1  0
 32 64  1  0
 33 65  1  0
 34 66  1  0
 34 67  1  0
 34 68  1  0
 35 69  1  0
 35 70  1  0
 35 71  1  0
M  END
> <Uni-Dock RESULT> 
ENERGY=   -4.763  LOWER_BOUND=    4.277  UPPER_BOUND=    6.837
INTER + INTRA:          -4.763
INTER:                  -4.763
INTRA:                   0.000
UNBOUND:                 0.000

$$$$

     RDKit          3D

 71 70  0  0  0  0  0  0  0  0999 V2000
   55.1819    5.5574    9.0062 C   0  0  0  0  0  0  0  0  0  0  0  0
   53.8082    5.8110    8.8271 C   0  0  0  0  0  0  0  0  0  0  0  0
   56.0637    5.9782    7.9961 C   0  0  0  0  0  0  0  0  0  0  0  0
   53.3439    6.4286    7.6666 C   0  0  0  0  0  0  0  0  0  0  0  0
   55.5811    6.5972    6.8439 C   0  0  0  0  0  0  0  0  0  0  0  0
   54.2224    6.8242    6.6673 C   0  0  0  0  0  0  0  0  0  0  0  0
   56.7445    2.8846    9.2407 N   0  0  0  0  0  0  0  0  0  0  0  0
   55.6855    4.9114   10.2868 C   0  0  2  0  0  0  0  0  0  0  0  0
   56.9454    4.0050   10.1674 C   0  0  0  0  0  0  0  0  0  0  0  0
   56.4914    6.9757    5.9002 O   0  0  0  0  0  0  0  0  0  0  0  0
   52.0139    6.6646    7.4754 O   0  0  0  0  0  0  0  0  0  0  0  0
   54.6302    4.1306   10.8785 O   0  0  0  0  0  0  0  0  0  0  0  0
   57.6847    1.7830    9.4300 C   0  0  0  0  0  0  0  0  0  0  0  0
   57.8294    1.0547    8.0956 C   0  0  0  0  0  0  0  0  0  0  0  0
   57.1997    0.8180   10.5131 C   0  0  0  0  0  0  0  0  0  0  0  0
   56.3431    4.0380    8.9388 S   0  0  0  0  0  0  0  0  0  0  0  0
   56.7245    4.2205   10.3169 O   0  0  0  0  0  0  0  0  0  0  0  0
   57.2678    4.1663    7.8398 O   0  0  0  0  0  0  0  0  0  0  0  0
   55.6004    2.6198    8.8360 O   0  0  0  0  0  0  0  0  0  0  0  0
   55.1407    5.0535    8.6282 O   0  0  0  0  0  0  0  0  0  0  0  0
   57.1047    2.9101    8.9735 C   0  0  0  0  0  0  0  0  0  0  0  0
   56.7856    3.0364   10.3363 C   0  0  0  0  0  0  0  0  0  0  0  0
   57.1452    1.6172    8.4253 C   0  0  0  0  0  0  0  0  0  0  0  0
   56.4964    1.9101   11.1058 C   0  0  0  0  0  0  0  0  0  0  0  0
   56.8561    0.5013    9.2093 C   0  0  0  0  0  0  0  0  0  0  0  0
   56.5269    0.6339   10.5537 C   0  0  0  0  0  0  0  0  0  0  0  0
   55.1725    4.9389    7.5282 N   0  0  0  0  0  0  0  0  0  0  0  0
   57.4500    4.1357    8.1439 C   0  0  2  0  0  0  0  0  0  0  0  0
   56.4240    5.3014    8.2314 C   0  0  0  0  0  0  0  0  0  0  0  0
   56.9130   -0.7247    8.6087 O   0  0  0  0  0  0  0  0  0  0  0  0
   56.1894    2.1102   12.4204 O   0  0  0  0  0  0  0  0  0  0  0  0
   57.5870    3.7903    6.7579 O   0  0  0  0  0  0  0  0  0  0  0  0
   54.1330    5.9790    7.5278 C   0  0  0  0  0  0  0  0  0  0  0  0
   53.5176    6.1937    8.9116 C   0  0  0  0  0  0  0  0  0  0  0  0
   54.5988    7.3028    6.9214 C   0  0  0  0  0  0  0  0  0  0  0  0
   53.1070    5.5131    9.6031 H   0  0  0  0  0  0  0  0  0  0  0  0
   57.1361    5.8212    8.0811 H   0  0  0  0  0  0  0  0  0  0  0  0
   53.8351    7.3007    5.7756 H   0  0  0  0  0  0  0  0  0  0  0  0
   55.7755    2.5632    9.2860 H   0  0  0  0  0  0  0  0  0  0  0  0
   55.9078    5.7212   10.9911 H   0  0  0  0  0  0  0  0  0  0  0  0
   57.1701    3.6196   11.1701 H   0  0  0  0  0  0  0  0  0  0  0  0
   57.8130    4.5918    9.8447 H   0  0  0  0  0  0  0  0  0  0  0  0
   56.0092    7.3541    5.1452 H   0  0  0  0  0  0  0  0  0  0  0  0
   51.5252    6.3016    8.2315 H   0  0  0  0  0  0  0  0  0  0  0  0
   55.0135    3.6752   11.6463 H   0  0  0  0  0  0  0  0  0  0  0  0
   58.6745    2.1656    9.7057 H   0  0  0  0  0  0  0  0  0  0  0  0
   58.4955    0.1896    8.1954 H   0  0  0  0  0  0  0  0  0  0  0  0
   58.2775    1.7130    7.3475 H   0  0  0  0  0  0  0  0  0  0  0  0
   56.8666    0.6987    7.7175 H   0  0  0  0  0  0  0  0  0  0  0  0
   57.8802   -0.0379   10.5953 H   0  0  0  0  0  0  0  0  0  0  0  0
   56.1974    0.4308   10.2940 H   0  0  0  0  0  0  0  0  0  0  0  0
   57.1679    1.3084   11.4955 H   0  0  0  0  0  0  0  0  0  0  0  0
   55.0390    2.5224    9.6300 H   0  0  0  0  0  0  0  0  0  0  0  0
   55.4351    5.6143    7.8759 H   0  0  0  0  0  0  0  0  0  0  0  0
   56.7694    4.0097   10.8209 H   0  0  0  0  0  0  0  0  0  0  0  0
   57.4130    1.4682    7.3808 H   0  0  0  0  0  0  0  0  0  0  0  0
   56.3016   -0.2360   11.1579 H   0  0  0  0  0  0  0  0  0  0  0  0
   54.7903    4.0939    7.9649 H   0  0  0  0  0  0  0  0  0  0  0  0
   58.4301    4.4946    8.4775 H   0  0  0  0  0  0  0  0  0  0  0  0
   56.8775    6.1591    7.7193 H   0  0  0  0  0  0  0  0  0  0  0  0
   56.2370    5.5868    9.2720 H   0  0  0  0  0  0  0  0  0  0  0  0
   56.6733   -1.4057    9.2562 H   0  0  0  0  0  0  0  0  0  0  0  0
   56.0866    1.2462   12.8510 H   0  0  0  0  0  0  0  0  0  0  0  0
   56.6978    3.9760    6.3803 H   0  0  0  0  0  0  0  0  0  0  0  0
   53.3358    5.5994    6.8753 H   0  0  0  0  0  0  0  0  0  0  0  0
   53.1601    5.2497    9.3320 H   0  0  0  0  0  0  0  0  0  0  0  0
   52.6590    6.8703    8.8437 H   0  0  0  0  0  0  0  0  0  0  0  0
   54.2274    6.6337    9.6195 H   0  0  0  0  0  0  0  0  0  0  0  0
   55.3071    7.8236    7.5740 H   0  0  0  0  0  0  0  0  0  0  0  0
   55.0756    7.1455    5.9487 H   0  0  0  0  0  0  0  0  0  0  0  0
   53.7456    7.9700    6.7623 H   0  0  0  0  0  0  0  0  0  0  0  0
  2  1  2  0
  3  1  1  0
  4  2  1  0
  5  3  2  0
  6  4  2  0
  7  9  1  0
  8  1  1  0
  9  8  1  0
 10  5  1  0
 11  4  1  0
 12  8  1  0
 13  7  1  0
 14 13  1  0
 15 13  1  0
  6  5  1  0
 17 16  2  0
 18 16  2  0
 19 16  1  0
 20 16  1  0
 22 21  2  0
 23 21  1  0
 24 22  1  0
 25 23  2  0
 26 24  2  0
 27 29  1  0
 28 21  1  0
 29 28  1  0
 30 25  1  0
 31 24  1  0
 32 28  1  0
 33 27  1  0
 34 33  1  0
 35 33  1  0
 26 25  1  0
  2 36  1  0
  3 37  1  0
  6 38  1  0
  7 39  1  0
  8 40  1  1
  9 41  1  0
  9 42  1  0
 10 43  1  0
 11 44  1  0
 12 45  1  0
 13 46  1  0
 14 47  1  0
 14 48  1  0
 14 49  1  0
 15 50  1  0
 15 51  1  0
 15 52  1  0
 19 53  1  0
 20 54  1  0
 22 55  1  0
 23 56  1  0
 26 57  1  0
 27 58  1  0
 28 59  1  1
 29 60  1  0
 29 61  1  0
 30 62  1  0
 31 63  1  0
 32 64  1  0
 33 65  1  0
 34 66  1  0
 34 67  1  0
 34 68  1  0
 35 69  1  0
 35 70  1  0
 35 71  1  0
M  END
> <Uni-Dock RESULT> 
ENERGY=   -4.734  LOWER_BOUND=    9.583  UPPER_BOUND=   11.336
INTER + INTRA:          -4.734
INTER:                  -4.734
INTRA:                   0.000
UNBOUND:                 0.000

$$$$

     RDKit          3D

 71 70  0  0  0  0  0  0  0  0999 V2000
   48.6004    7.9034   14.9142 C   0  0  0  0  0  0  0  0  0  0  0  0
   48.4964    8.2061   16.2857 C   0  0  0  0  0  0  0  0  0  0  0  0
   48.8163    8.9677   14.0222 C   0  0  0  0  0  0  0  0  0  0  0  0
   48.5715    9.5252   16.7310 C   0  0  0  0  0  0  0  0  0  0  0  0
   48.8919   10.2800   14.4865 C   0  0  0  0  0  0  0  0  0  0  0  0
   48.7673   10.5705   15.8389 C   0  0  0  0  0  0  0  0  0  0  0  0
   46.5415    6.6800   12.9383 N   0  0  0  0  0  0  0  0  0  0  0  0
   48.5483    6.4609   14.4377 C   0  0  2  0  0  0  0  0  0  0  0  0
   47.9281    6.2077   13.0325 C   0  0  0  0  0  0  0  0  0  0  0  0
   49.0974   11.2662   13.5659 O   0  0  0  0  0  0  0  0  0  0  0  0
   48.4559    9.8315   18.0555 O   0  0  0  0  0  0  0  0  0  0  0  0
   47.8237    5.6646   15.3938 O   0  0  0  0  0  0  0  0  0  0  0  0
   45.7840    6.0795   11.8432 C   0  0  0  0  0  0  0  0  0  0  0  0
   44.6865    7.0609   11.4380 C   0  0  0  0  0  0  0  0  0  0  0  0
   45.1734    4.7400   12.2585 C   0  0  0  0  0  0  0  0  0  0  0  0
   47.4157    7.3863   13.5034 S   0  0  0  0  0  0  0  0  0  0  0  0
   48.1329    6.1522   13.3019 O   0  0  0  0  0  0  0  0  0  0  0  0
   47.3412    8.4279   12.5089 O   0  0  0  0  0  0  0  0  0  0  0  0
   45.9304    7.0009   13.9709 O   0  0  0  0  0  0  0  0  0  0  0  0
   48.0000    8.0780   14.8276 O   0  0  0  0  0  0  0  0  0  0  0  0
   46.5453    6.9267   12.5629 C   0  0  0  0  0  0  0  0  0  0  0  0
   47.0653    5.7099   13.0359 C   0  0  0  0  0  0  0  0  0  0  0  0
   45.1788    6.9762   12.2403 C   0  0  0  0  0  0  0  0  0  0  0  0
   46.2382    4.5992   13.1993 C   0  0  0  0  0  0  0  0  0  0  0  0
   44.3662    5.8557   12.4069 C   0  0  0  0  0  0  0  0  0  0  0  0
   44.8837    4.6585   12.8891 C   0  0  0  0  0  0  0  0  0  0  0  0
   47.5234    9.0631   14.6647 N   0  0  0  0  0  0  0  0  0  0  0  0
   47.4541    8.1271   12.3560 C   0  0  2  0  0  0  0  0  0  0  0  0
   48.3483    8.4947   13.5743 C   0  0  0  0  0  0  0  0  0  0  0  0
   43.0465    5.9773   12.0747 O   0  0  0  0  0  0  0  0  0  0  0  0
   46.8118    3.4532   13.6686 O   0  0  0  0  0  0  0  0  0  0  0  0
   46.6886    9.2934   12.0203 O   0  0  0  0  0  0  0  0  0  0  0  0
   48.2693    9.4686   15.8653 C   0  0  0  0  0  0  0  0  0  0  0  0
   48.8183    8.2733   16.6462 C   0  0  0  0  0  0  0  0  0  0  0  0
   49.3691   10.4916   15.5803 C   0  0  0  0  0  0  0  0  0  0  0  0
   48.3491    7.3985   16.9988 H   0  0  0  0  0  0  0  0  0  0  0  0
   48.9163    8.7971   12.9532 H   0  0  0  0  0  0  0  0  0  0  0  0
   48.8207   11.5856   16.2113 H   0  0  0  0  0  0  0  0  0  0  0  0
   46.0681    6.5549   13.8352 H   0  0  0  0  0  0  0  0  0  0  0  0
   49.5778    6.0847   14.4339 H   0  0  0  0  0  0  0  0  0  0  0  0
   47.9638    5.1268   12.8467 H   0  0  0  0  0  0  0  0  0  0  0  0
   48.5294    6.6898   12.2534 H   0  0  0  0  0  0  0  0  0  0  0  0
   49.0887   12.1219   14.0279 H   0  0  0  0  0  0  0  0  0  0  0  0
   48.2846    9.0121   18.5470 H   0  0  0  0  0  0  0  0  0  0  0  0
   47.7463    4.7727   15.0165 H   0  0  0  0  0  0  0  0  0  0  0  0
   46.4281    5.9260   10.9692 H   0  0  0  0  0  0  0  0  0  0  0  0
   44.0605    6.6374   10.6438 H   0  0  0  0  0  0  0  0  0  0  0  0
   45.1234    7.9794   11.0389 H   0  0  0  0  0  0  0  0  0  0  0  0
   44.0371    7.3186   12.2797 H   0  0  0  0  0  0  0  0  0  0  0  0
   44.5527    4.3357   11.4501 H   0  0  0  0  0  0  0  0  0  0  0  0
   44.5421    4.8394   13.1497 H   0  0  0  0  0  0  0  0  0  0  0  0
   45.9544    3.9987   12.4756 H   0  0  0  0  0  0  0  0  0  0  0  0
   46.0012    6.2433   14.5841 H   0  0  0  0  0  0  0  0  0  0  0  0
   48.3152    8.9707   14.5615 H   0  0  0  0  0  0  0  0  0  0  0  0
   48.1215    5.6050   13.2721 H   0  0  0  0  0  0  0  0  0  0  0  0
   44.7371    7.8894   11.8458 H   0  0  0  0  0  0  0  0  0  0  0  0
   44.2478    3.7916   13.0181 H   0  0  0  0  0  0  0  0  0  0  0  0
   46.8214    8.3666   14.9347 H   0  0  0  0  0  0  0  0  0  0  0  0
   48.0944    7.9115   11.4932 H   0  0  0  0  0  0  0  0  0  0  0  0
   49.0503    9.2639   13.2291 H   0  0  0  0  0  0  0  0  0  0  0  0
   48.9300    7.6311   13.9133 H   0  0  0  0  0  0  0  0  0  0  0  0
   42.5960    5.1378   12.2554 H   0  0  0  0  0  0  0  0  0  0  0  0
   46.1463    2.7464   13.6611 H   0  0  0  0  0  0  0  0  0  0  0  0
   46.5512    9.7414   12.8853 H   0  0  0  0  0  0  0  0  0  0  0  0
   47.5373    9.9686   16.5129 H   0  0  0  0  0  0  0  0  0  0  0  0
   48.0249    7.5559   16.8729 H   0  0  0  0  0  0  0  0  0  0  0  0
   49.2438    8.6061   17.5989 H   0  0  0  0  0  0  0  0  0  0  0  0
   49.6074    7.7460   16.1004 H   0  0  0  0  0  0  0  0  0  0  0  0
   50.2130   10.0447   15.0446 H   0  0  0  0  0  0  0  0  0  0  0  0
   48.9862   11.3280   14.9870 H   0  0  0  0  0  0  0  0  0  0  0  0
   49.7557   10.9060   16.5168 H   0  0  0  0  0  0  0  0  0  0  0  0
  2  1  2  0
  3  1  1  0
  4  2  1  0
  5  3  2  0
  6  4  2  0
  7  9  1  0
  8  1  1  0
  9  8  1  0
 10  5  1  0
 11  4  1  0
 12  8  1  0
 13  7  1  0
 14 13  1  0
 15 13  1  0
  6  5  1  0
 17 16  2  0
 18 16  2  0
 19 16  1  0
 20 16  1  0
 22 21  2  0
 23 21  1  0
 24 22  1  0
 25 23  2  0
 26 24  2  0
 27 29  1  0
 28 21  1  0
 29 28  1  0
 30 25  1  0
 31 24  1  0
 32 28  1  0
 33 27  1  0
 34 33  1  0
 35 33  1  0
 26 25  1  0
  2 36  1  0
  3 37  1  0
  6 38  1  0
  7 39  1  0
  8 40  1  1
  9 41  1  0
  9 42  1  0
 10 43  1  0
 11 44  1  0
 12 45  1  0
 13 46  1  0
 14 47  1  0
 14 48  1  0
 14 49  1  0
 15 50  1  0
 15 51  1  0
 15 52  1  0
 19 53  1  0
 20 54  1  0
 22 55  1  0
 23 56  1  0
 26 57  1  0
 27 58  1  0
 28 59  1  1
 29 60  1  0
 29 61  1  0
 30 62  1  0
 31 63  1  0
 32 64  1  0
 33 65  1  0
 34 66  1  0
 34 67  1  0
 34 68  1  0
 35 69  1  0
 35 70  1  0
 35 71  1  0
M  END
> <Uni-Dock RESULT> 
ENERGY=   -4.697  LOWER_BOUND=    4.199  UPPER_BOUND=    7.579
INTER + INTRA:          -4.697
INTER:                  -4.697
INTRA:                   0.000
UNBOUND:                 0.000

$$$$

     RDKit          3D

 71 70  0  0  0  0  0  0  0  0999 V2000
   47.3024    8.4669   12.4938 C   0  0  0  0  0  0  0  0  0  0  0  0
   46.4538    9.5887   12.4233 C   0  0  0  0  0  0  0  0  0  0  0  0
   46.7356    7.2008   12.2688 C   0  0  0  0  0  0  0  0  0  0  0  0
   45.0910    9.4355   12.1725 C   0  0  0  0  0  0  0  0  0  0  0  0
   45.3711    7.0675   12.0161 C   0  0  0  0  0  0  0  0  0  0  0  0
   44.5387    8.1783   11.9692 C   0  0  0  0  0  0  0  0  0  0  0  0
   48.9414    7.3003   14.8587 N   0  0  0  0  0  0  0  0  0  0  0  0
   48.7925    8.6423   12.7373 C   0  0  2  0  0  0  0  0  0  0  0  0
   49.5137    7.5084   13.5232 C   0  0  0  0  0  0  0  0  0  0  0  0
   44.8852    5.8087   11.8120 O   0  0  0  0  0  0  0  0  0  0  0  0
   44.2569   10.5138   12.1179 O   0  0  0  0  0  0  0  0  0  0  0  0
   49.0234    9.8818   13.4327 O   0  0  0  0  0  0  0  0  0  0  0  0
   49.8307    6.6005   15.7821 C   0  0  0  0  0  0  0  0  0  0  0  0
   48.9647    5.8814   16.8141 C   0  0  0  0  0  0  0  0  0  0  0  0
   50.7885    7.5712   16.4749 C   0  0  0  0  0  0  0  0  0  0  0  0
   48.1889    7.4690   13.8648 S   0  0  0  0  0  0  0  0  0  0  0  0
   49.4807    7.7647   13.2978 O   0  0  0  0  0  0  0  0  0  0  0  0
   47.6460    6.1353   13.9401 O   0  0  0  0  0  0  0  0  0  0  0  0
   48.1476    8.1348   15.3238 O   0  0  0  0  0  0  0  0  0  0  0  0
   47.1003    8.3478   13.0799 O   0  0  0  0  0  0  0  0  0  0  0  0
   48.8729    6.8564   14.8700 C   0  0  0  0  0  0  0  0  0  0  0  0
   49.8468    7.7669   14.4257 C   0  0  0  0  0  0  0  0  0  0  0  0
   48.7783    6.6174   16.2512 C   0  0  0  0  0  0  0  0  0  0  0  0
   50.6723    8.4253   15.3365 C   0  0  0  0  0  0  0  0  0  0  0  0
   49.6133    7.2820   17.1483 C   0  0  0  0  0  0  0  0  0  0  0  0
   50.5654    8.1927   16.7036 C   0  0  0  0  0  0  0  0  0  0  0  0
   46.2144    7.8131   13.4716 N   0  0  0  0  0  0  0  0  0  0  0  0
   47.9951    6.1166   13.8741 C   0  0  2  0  0  0  0  0  0  0  0  0
   47.2835    7.0183   12.8254 C   0  0  0  0  0  0  0  0  0  0  0  0
   49.4638    7.0015   18.4771 O   0  0  0  0  0  0  0  0  0  0  0  0
   51.5909    9.2997   14.8326 O   0  0  0  0  0  0  0  0  0  0  0  0
   46.9778    5.3652   14.5519 O   0  0  0  0  0  0  0  0  0  0  0  0
   45.4563    8.6909   12.5677 C   0  0  0  0  0  0  0  0  0  0  0  0
   46.2885    9.8698   12.0604 C   0  0  0  0  0  0  0  0  0  0  0  0
   44.7960    7.9444   11.4085 C   0  0  0  0  0  0  0  0  0  0  0  0
   46.8713   10.5815   12.5739 H   0  0  0  0  0  0  0  0  0  0  0  0
   47.3406    6.2979   12.2986 H   0  0  0  0  0  0  0  0  0  0  0  0
   43.4771    8.0875   11.7774 H   0  0  0  0  0  0  0  0  0  0  0  0
   48.6241    8.1913   15.2456 H   0  0  0  0  0  0  0  0  0  0  0  0
   49.2707    8.7407   11.7560 H   0  0  0  0  0  0  0  0  0  0  0  0
   50.5702    7.7910   13.6138 H   0  0  0  0  0  0  0  0  0  0  0  0
   49.4776    6.5677   12.9622 H   0  0  0  0  0  0  0  0  0  0  0  0
   43.9226    5.8694   11.6879 H   0  0  0  0  0  0  0  0  0  0  0  0
   44.7725   11.3119   12.3167 H   0  0  0  0  0  0  0  0  0  0  0  0
   49.9726    9.9178   13.6366 H   0  0  0  0  0  0  0  0  0  0  0  0
   50.4128    5.8377   15.2514 H   0  0  0  0  0  0  0  0  0  0  0  0
   49.5888    5.3731   17.5585 H   0  0  0  0  0  0  0  0  0  0  0  0
   48.3572    5.1112   16.3330 H   0  0  0  0  0  0  0  0  0  0  0  0
   48.3011    6.5716   17.3432 H   0  0  0  0  0  0  0  0  0  0  0  0
   51.4017    7.0416   17.2136 H   0  0  0  0  0  0  0  0  0  0  0  0
   50.2499    8.3715   16.9965 H   0  0  0  0  0  0  0  0  0  0  0  0
   51.4727    8.0363   15.7523 H   0  0  0  0  0  0  0  0  0  0  0  0
   48.5898    9.0042   15.2641 H   0  0  0  0  0  0  0  0  0  0  0  0
   46.4454    7.7155   12.7079 H   0  0  0  0  0  0  0  0  0  0  0  0
   49.9854    7.9677   13.3660 H   0  0  0  0  0  0  0  0  0  0  0  0
   48.0567    5.9011   16.6398 H   0  0  0  0  0  0  0  0  0  0  0  0
   51.2104    8.7073   17.4047 H   0  0  0  0  0  0  0  0  0  0  0  0
   46.6390    8.3878   14.2065 H   0  0  0  0  0  0  0  0  0  0  0  0
   48.6281    5.3903   13.3521 H   0  0  0  0  0  0  0  0  0  0  0  0
   46.8241    6.3451   12.0911 H   0  0  0  0  0  0  0  0  0  0  0  0
   48.0018    7.6559   12.2993 H   0  0  0  0  0  0  0  0  0  0  0  0
   50.0875    7.5415   18.9867 H   0  0  0  0  0  0  0  0  0  0  0  0
   52.1433    9.6252   15.5616 H   0  0  0  0  0  0  0  0  0  0  0  0
   46.2011    5.9689   14.5532 H   0  0  0  0  0  0  0  0  0  0  0  0
   44.6424    9.1080   13.1750 H   0  0  0  0  0  0  0  0  0  0  0  0
   46.7376   10.4190   12.8924 H   0  0  0  0  0  0  0  0  0  0  0  0
   45.6548   10.5708   11.5067 H   0  0  0  0  0  0  0  0  0  0  0  0
   47.0930    9.5533   11.3886 H   0  0  0  0  0  0  0  0  0  0  0  0
   45.5310    7.6003   10.6734 H   0  0  0  0  0  0  0  0  0  0  0  0
   44.2329    7.0769   11.7671 H   0  0  0  0  0  0  0  0  0  0  0  0
   44.0900    8.5985   10.8870 H   0  0  0  0  0  0  0  0  0  0  0  0
  2  1  2  0
  3  1  1  0
  4  2  1  0
  5  3  2  0
  6  4  2  0
  7  9  1  0
  8  1  1  0
  9  8  1  0
 10  5  1  0
 11  4  1  0
 12  8  1  0
 13  7  1  0
 14 13  1  0
 15 13  1  0
  6  5  1  0
 17 16  2  0
 18 16  2  0
 19 16  1  0
 20 16  1  0
 22 21  2  0
 23 21  1  0
 24 22  1  0
 25 23  2  0
 26 24  2  0
 27 29  1  0
 28 21  1  0
 29 28  1  0
 30 25  1  0
 31 24  1  0
 32 28  1  0
 33 27  1  0
 34 33  1  0
 35 33  1  0
 26 25  1  0
  2 36  1  0
  3 37  1  0
  6 38  1  0
  7 39  1  0
  8 40  1  1
  9 41  1  0
  9 42  1  0
 10 43  1  0
 11 44  1  0
 12 45  1  0
 13 46  1  0
 14 47  1  0
 14 48  1  0
 14 49  1  0
 15 50  1  0
 15 51  1  0
 15 52  1  0
 19 53  1  0
 20 54  1  0
 22 55  1  0
 23 56  1  0
 26 57  1  0
 27 58  1  0
 28 59  1  1
 29 60  1  0
 29 61  1  0
 30 62  1  0
 31 63  1  0
 32 64  1  0
 33 65  1  0
 34 66  1  0
 34 67  1  0
 34 68  1  0
 35 69  1  0
 35 70  1  0
 35 71  1  0
M  END
> <Uni-Dock RESULT> 
ENERGY=   -4.679  LOWER_BOUND=    4.792  UPPER_BOUND=    7.451
INTER + INTRA:          -4.679
INTER:                  -4.679
INTRA:                   0.000
UNBOUND:                 0.000

$$$$
