
     RDKit          3D

 71 70  0  0  0  0  0  0  0  0999 V2000
   48.8720    6.9769   13.4957 C   0  0  0  0  0  0  0  0  0  0  0  0
   49.5235    7.1977   14.7248 C   0  0  0  0  0  0  0  0  0  0  0  0
   49.3214    7.6890   12.3677 C   0  0  0  0  0  0  0  0  0  0  0  0
   50.5636    8.1200   14.8196 C   0  0  0  0  0  0  0  0  0  0  0  0
   50.3626    8.6114   12.4870 C   0  0  0  0  0  0  0  0  0  0  0  0
   50.9838    8.8357   13.7079 C   0  0  0  0  0  0  0  0  0  0  0  0
   45.3743    5.5359   12.8059 N   0  0  0  0  0  0  0  0  0  0  0  0
   47.7518    5.9609   13.3716 C   0  0  2  0  0  0  0  0  0  0  0  0
   46.4712    6.5203   12.6914 C   0  0  0  0  0  0  0  0  0  0  0  0
   50.8053    9.3243   11.4103 O   0  0  0  0  0  0  0  0  0  0  0  0
   51.2036    8.3444   16.0045 O   0  0  0  0  0  0  0  0  0  0  0  0
   47.3736    5.4533   14.6614 O   0  0  0  0  0  0  0  0  0  0  0  0
   44.0896    6.0634   12.3262 C   0  0  0  0  0  0  0  0  0  0  0  0
   42.9857    5.1507   12.8630 C   0  0  0  0  0  0  0  0  0  0  0  0
   44.0201    6.1223   10.7998 C   0  0  0  0  0  0  0  0  0  0  0  0
   46.9567    7.1016   12.6171 S   0  0  0  0  0  0  0  0  0  0  0  0
   45.9650    8.1430   12.7055 O   0  0  0  0  0  0  0  0  0  0  0  0
   47.6667    6.7689   11.4089 O   0  0  0  0  0  0  0  0  0  0  0  0
   46.2604    5.7685   13.1742 O   0  0  0  0  0  0  0  0  0  0  0  0
   48.0685    7.3631   13.7444 O   0  0  0  0  0  0  0  0  0  0  0  0
   45.6391    6.1668   12.5623 C   0  0  0  0  0  0  0  0  0  0  0  0
   44.2702    6.4594   12.4400 C   0  0  0  0  0  0  0  0  0  0  0  0
   46.0299    4.8162   12.6180 C   0  0  0  0  0  0  0  0  0  0  0  0
   43.3327    5.4275   12.3861 C   0  0  0  0  0  0  0  0  0  0  0  0
   45.0760    3.8030   12.5831 C   0  0  0  0  0  0  0  0  0  0  0  0
   43.7226    4.0971   12.4657 C   0  0  0  0  0  0  0  0  0  0  0  0
   48.3760    8.4336   14.0626 N   0  0  0  0  0  0  0  0  0  0  0  0
   46.6903    7.2593   12.6048 C   0  0  2  0  0  0  0  0  0  0  0  0
   47.5532    7.2096   13.8954 C   0  0  0  0  0  0  0  0  0  0  0  0
   45.5200    2.5150   12.6583 O   0  0  0  0  0  0  0  0  0  0  0  0
   41.9991    5.6913   12.2409 O   0  0  0  0  0  0  0  0  0  0  0  0
   46.0936    8.5622   12.5215 O   0  0  0  0  0  0  0  0  0  0  0  0
   49.7829    8.2479   13.6653 C   0  0  0  0  0  0  0  0  0  0  0  0
   50.5689    9.4827   14.1161 C   0  0  0  0  0  0  0  0  0  0  0  0
   49.9620    8.0451   12.1637 C   0  0  0  0  0  0  0  0  0  0  0  0
   49.2102    6.6422   15.6068 H   0  0  0  0  0  0  0  0  0  0  0  0
   48.8645    7.5169   11.3975 H   0  0  0  0  0  0  0  0  0  0  0  0
   51.7939    9.5531   13.7934 H   0  0  0  0  0  0  0  0  0  0  0  0
   45.6158    4.6921   12.2814 H   0  0  0  0  0  0  0  0  0  0  0  0
   48.1320    5.1030   12.8011 H   0  0  0  0  0  0  0  0  0  0  0  0
   46.6706    6.7563   11.6396 H   0  0  0  0  0  0  0  0  0  0  0  0
   46.1744    7.4448   13.2034 H   0  0  0  0  0  0  0  0  0  0  0  0
   50.2867    9.0723   10.6277 H   0  0  0  0  0  0  0  0  0  0  0  0
   50.8133    7.7611   16.6763 H   0  0  0  0  0  0  0  0  0  0  0  0
   46.4485    5.1587   14.5391 H   0  0  0  0  0  0  0  0  0  0  0  0
   43.9198    7.0676   12.7351 H   0  0  0  0  0  0  0  0  0  0  0  0
   42.0003    5.5121   12.5517 H   0  0  0  0  0  0  0  0  0  0  0  0
   42.9964    5.1258   13.9599 H   0  0  0  0  0  0  0  0  0  0  0  0
   43.0987    4.1219   12.5000 H   0  0  0  0  0  0  0  0  0  0  0  0
   44.7448    6.8344   10.3937 H   0  0  0  0  0  0  0  0  0  0  0  0
   43.0263    6.4458   10.4720 H   0  0  0  0  0  0  0  0  0  0  0  0
   44.2152    5.1405   10.3527 H   0  0  0  0  0  0  0  0  0  0  0  0
   45.5485    6.0494   13.7873 H   0  0  0  0  0  0  0  0  0  0  0  0
   48.8309    6.7834   13.5418 H   0  0  0  0  0  0  0  0  0  0  0  0
   43.9442    7.4954   12.3820 H   0  0  0  0  0  0  0  0  0  0  0  0
   47.0791    4.5388   12.6909 H   0  0  0  0  0  0  0  0  0  0  0  0
   42.9684    3.3190   12.4159 H   0  0  0  0  0  0  0  0  0  0  0  0
   48.3773    8.6555   15.0637 H   0  0  0  0  0  0  0  0  0  0  0  0
   47.3166    7.1529   11.7127 H   0  0  0  0  0  0  0  0  0  0  0  0
   48.1575    6.2957   13.9524 H   0  0  0  0  0  0  0  0  0  0  0  0
   46.8710    7.1792   14.7578 H   0  0  0  0  0  0  0  0  0  0  0  0
   44.7482    1.9339   12.7597 H   0  0  0  0  0  0  0  0  0  0  0  0
   41.8980    6.6476   12.0898 H   0  0  0  0  0  0  0  0  0  0  0  0
   46.7949    9.1547   12.8675 H   0  0  0  0  0  0  0  0  0  0  0  0
   50.2015    7.3811   14.1937 H   0  0  0  0  0  0  0  0  0  0  0  0
   50.5298    9.5920   15.2084 H   0  0  0  0  0  0  0  0  0  0  0  0
   51.6250    9.3947   13.8358 H   0  0  0  0  0  0  0  0  0  0  0  0
   50.1748   10.4020   13.6663 H   0  0  0  0  0  0  0  0  0  0  0  0
   49.4938    8.8530   11.5908 H   0  0  0  0  0  0  0  0  0  0  0  0
   51.0260    8.0223   11.9027 H   0  0  0  0  0  0  0  0  0  0  0  0
   49.5327    7.0934   11.8313 H   0  0  0  0  0  0  0  0  0  0  0  0
  2  1  2  0
  3  1  1  0
  4  2  1  0
  5  3  2  0
  6  4  2  0
  7  9  1  0
  8  1  1  0
  9  8  1  0
 10  5  1  0
 11  4  1  0
 12  8  1  0
 13  7  1  0
 14 13  1  0
 15 13  1  0
  6  5  1  0
 17 16  2  0
 18 16  2  0
 19 16  1  0
 20 16  1  0
 22 21  2  0
 23 21  1  0
 24 22  1  0
 25 23  2  0
 26 24  2  0
 27 29  1  0
 28 21  1  0
 29 28  1  0
 30 25  1  0
 31 24  1  0
 32 28  1  0
 33 27  1  0
 34 33  1  0
 35 33  1  0
 26 25  1  0
  2 36  1  0
  3 37  1  0
  6 38  1  0
  7 39  1  0
  8 40  1  1
  9 41  1  0
  9 42  1  0
 10 43  1  0
 11 44  1  0
 12 45  1  0
 13 46  1  0
 14 47  1  0
 14 48  1  0
 14 49  1  0
 15 50  1  0
 15 51  1  0
 15 52  1  0
 19 53  1  0
 20 54  1  0
 22 55  1  0
 23 56  1  0
 26 57  1  0
 27 58  1  0
 28 59  1  1
 29 60  1  0
 29 61  1  0
 30 62  1  0
 31 63  1  0
 32 64  1  0
 33 65  1  0
 34 66  1  0
 34 67  1  0
 34 68  1  0
 35 69  1  0
 35 70  1  0
 35 71  1  0
M  END
> <Uni-Dock RESULT> 
ENERGY=   -6.059  LOWER_BOUND=    0.000  UPPER_BOUND=    0.000
INTER + INTRA:          -6.059
INTER:                  -6.059
INTRA:                   0.000
UNBOUND:                 0.000

$$$$

     RDKit          3D

 71 70  0  0  0  0  0  0  0  0999 V2000
   45.2818    5.0358   13.1161 C   0  0  0  0  0  0  0  0  0  0  0  0
   45.0666    3.6529   12.9574 C   0  0  0  0  0  0  0  0  0  0  0  0
   44.2639    5.9183   12.7077 C   0  0  0  0  0  0  0  0  0  0  0  0
   43.8882    3.1807   12.3831 C   0  0  0  0  0  0  0  0  0  0  0  0
   43.0931    5.4228   12.1307 C   0  0  0  0  0  0  0  0  0  0  0  0
   42.9006    4.0587   11.9606 C   0  0  0  0  0  0  0  0  0  0  0  0
   48.5826    6.9669   13.5182 N   0  0  0  0  0  0  0  0  0  0  0  0
   46.5505    5.5649   13.7588 C   0  0  2  0  0  0  0  0  0  0  0  0
   47.2613    6.6683   12.9264 C   0  0  0  0  0  0  0  0  0  0  0  0
   42.0989    6.2601   11.7135 O   0  0  0  0  0  0  0  0  0  0  0  0
   43.6665    1.8431   12.2227 O   0  0  0  0  0  0  0  0  0  0  0  0
   47.4966    4.5056   13.9758 O   0  0  0  0  0  0  0  0  0  0  0  0
   49.3772    7.8854   12.6914 C   0  0  0  0  0  0  0  0  0  0  0  0
   50.8292    7.7939   13.1637 C   0  0  0  0  0  0  0  0  0  0  0  0
   48.8866    9.3301   12.7935 C   0  0  0  0  0  0  0  0  0  0  0  0
   46.6215    6.5579   12.5294 S   0  0  0  0  0  0  0  0  0  0  0  0
   47.1918    6.8398   11.2367 O   0  0  0  0  0  0  0  0  0  0  0  0
   45.6811    7.4201   13.1978 O   0  0  0  0  0  0  0  0  0  0  0  0
   47.8564    6.2979   13.5192 O   0  0  0  0  0  0  0  0  0  0  0  0
   45.9523    5.1001   12.4814 O   0  0  0  0  0  0  0  0  0  0  0  0
   48.0622    7.0952   13.0282 C   0  0  0  0  0  0  0  0  0  0  0  0
   49.1311    7.7128   12.3568 C   0  0  0  0  0  0  0  0  0  0  0  0
   48.1704    6.9010   14.4175 C   0  0  0  0  0  0  0  0  0  0  0  0
   50.2685    8.1092   13.0609 C   0  0  0  0  0  0  0  0  0  0  0  0
   49.3230    7.2858   15.0968 C   0  0  0  0  0  0  0  0  0  0  0  0
   50.3793    7.8931   14.4281 C   0  0  0  0  0  0  0  0  0  0  0  0
   45.4496    4.6898   11.5219 N   0  0  0  0  0  0  0  0  0  0  0  0
   46.8013    6.6673   12.3019 C   0  0  2  0  0  0  0  0  0  0  0  0
   46.5080    5.1496   12.4554 C   0  0  0  0  0  0  0  0  0  0  0  0
   49.3710    7.0539   16.4405 O   0  0  0  0  0  0  0  0  0  0  0  0
   51.3075    8.7351   12.4301 O   0  0  0  0  0  0  0  0  0  0  0  0
   46.8799    6.9631   10.8995 O   0  0  0  0  0  0  0  0  0  0  0  0
   44.1316    4.5412   12.1641 C   0  0  0  0  0  0  0  0  0  0  0  0
   43.2011    3.8313   11.1762 C   0  0  0  0  0  0  0  0  0  0  0  0
   43.5145    5.8716   12.5854 C   0  0  0  0  0  0  0  0  0  0  0  0
   45.8285    2.9489   13.2869 H   0  0  0  0  0  0  0  0  0  0  0  0
   44.3826    6.9887   12.8480 H   0  0  0  0  0  0  0  0  0  0  0  0
   41.9872    3.6801   11.5128 H   0  0  0  0  0  0  0  0  0  0  0  0
   48.4572    7.3666   14.4510 H   0  0  0  0  0  0  0  0  0  0  0  0
   46.2914    5.9562   14.7516 H   0  0  0  0  0  0  0  0  0  0  0  0
   46.6428    7.5725   12.8855 H   0  0  0  0  0  0  0  0  0  0  0  0
   47.4051    6.3005   11.9022 H   0  0  0  0  0  0  0  0  0  0  0  0
   42.3630    7.1789   11.8891 H   0  0  0  0  0  0  0  0  0  0  0  0
   44.4317    1.3630   12.5802 H   0  0  0  0  0  0  0  0  0  0  0  0
   48.3629    4.9603   13.9931 H   0  0  0  0  0  0  0  0  0  0  0  0
   49.3477    7.5667   11.6416 H   0  0  0  0  0  0  0  0  0  0  0  0
   51.4724    8.4459   12.5638 H   0  0  0  0  0  0  0  0  0  0  0  0
   51.2108    6.7702   13.0621 H   0  0  0  0  0  0  0  0  0  0  0  0
   50.9327    8.0910   14.2145 H   0  0  0  0  0  0  0  0  0  0  0  0
   47.8784    9.4399   12.3828 H   0  0  0  0  0  0  0  0  0  0  0  0
   49.5435   10.0005   12.2289 H   0  0  0  0  0  0  0  0  0  0  0  0
   48.8733    9.6750   13.8341 H   0  0  0  0  0  0  0  0  0  0  0  0
   48.6073    5.9897   12.9689 H   0  0  0  0  0  0  0  0  0  0  0  0
   45.3961    5.0083   13.2818 H   0  0  0  0  0  0  0  0  0  0  0  0
   49.0658    7.8855   11.2851 H   0  0  0  0  0  0  0  0  0  0  0  0
   47.3609    6.4471   14.9849 H   0  0  0  0  0  0  0  0  0  0  0  0
   51.2755    8.2181   14.9459 H   0  0  0  0  0  0  0  0  0  0  0  0
   45.7270    3.7583   11.1949 H   0  0  0  0  0  0  0  0  0  0  0  0
   45.9723    7.2662   12.6940 H   0  0  0  0  0  0  0  0  0  0  0  0
   46.2888    4.8751   13.4948 H   0  0  0  0  0  0  0  0  0  0  0  0
   47.4196    4.5992   12.1797 H   0  0  0  0  0  0  0  0  0  0  0  0
   50.2722    7.2445   16.7488 H   0  0  0  0  0  0  0  0  0  0  0  0
   51.0372    8.9117   11.5117 H   0  0  0  0  0  0  0  0  0  0  0  0
   46.1933    6.3824   10.5070 H   0  0  0  0  0  0  0  0  0  0  0  0
   44.2253    3.8968   13.0482 H   0  0  0  0  0  0  0  0  0  0  0  0
   43.5819    2.8301   10.9331 H   0  0  0  0  0  0  0  0  0  0  0  0
   42.2015    3.7030   11.6074 H   0  0  0  0  0  0  0  0  0  0  0  0
   43.0964    4.3936   10.2404 H   0  0  0  0  0  0  0  0  0  0  0  0
   43.4678    6.5757   11.7476 H   0  0  0  0  0  0  0  0  0  0  0  0
   42.4938    5.7223   12.9551 H   0  0  0  0  0  0  0  0  0  0  0  0
   44.0815    6.3398   13.3978 H   0  0  0  0  0  0  0  0  0  0  0  0
  2  1  2  0
  3  1  1  0
  4  2  1  0
  5  3  2  0
  6  4  2  0
  7  9  1  0
  8  1  1  0
  9  8  1  0
 10  5  1  0
 11  4  1  0
 12  8  1  0
 13  7  1  0
 14 13  1  0
 15 13  1  0
  6  5  1  0
 17 16  2  0
 18 16  2  0
 19 16  1  0
 20 16  1  0
 22 21  2  0
 23 21  1  0
 24 22  1  0
 25 23  2  0
 26 24  2  0
 27 29  1  0
 28 21  1  0
 29 28  1  0
 30 25  1  0
 31 24  1  0
 32 28  1  0
 33 27  1  0
 34 33  1  0
 35 33  1  0
 26 25  1  0
  2 36  1  0
  3 37  1  0
  6 38  1  0
  7 39  1  0
  8 40  1  1
  9 41  1  0
  9 42  1  0
 10 43  1  0
 11 44  1  0
 12 45  1  0
 13 46  1  0
 14 47  1  0
 14 48  1  0
 14 49  1  0
 15 50  1  0
 15 51  1  0
 15 52  1  0
 19 53  1  0
 20 54  1  0
 22 55  1  0
 23 56  1  0
 26 57  1  0
 27 58  1  0
 28 59  1  1
 29 60  1  0
 29 61  1  0
 30 62  1  0
 31 63  1  0
 32 64  1  0
 33 65  1  0
 34 66  1  0
 34 67  1  0
 34 68  1  0
 35 69  1  0
 35 70  1  0
 35 71  1  0
M  END
> <Uni-Dock RESULT> 
ENERGY=   -5.771  LOWER_BOUND=    1.073  UPPER_BOUND=    6.019
INTER + INTRA:          -5.771
INTER:                  -5.771
INTRA:                   0.000
UNBOUND:                 0.000

$$$$

     RDKit          3D

 71 70  0  0  0  0  0  0  0  0999 V2000
   45.1537    6.8435   11.6505 C   0  0  0  0  0  0  0  0  0  0  0  0
   43.7866    6.7049   11.9600 C   0  0  0  0  0  0  0  0  0  0  0  0
   45.7234    5.9378   10.7358 C   0  0  0  0  0  0  0  0  0  0  0  0
   43.0330    5.6780   11.3952 C   0  0  0  0  0  0  0  0  0  0  0  0
   44.9502    4.9138   10.1855 C   0  0  0  0  0  0  0  0  0  0  0  0
   43.6086    4.7746   10.5137 C   0  0  0  0  0  0  0  0  0  0  0  0
   47.9399    8.6157   13.6208 N   0  0  0  0  0  0  0  0  0  0  0  0
   45.9828    7.9689   12.2409 C   0  0  2  0  0  0  0  0  0  0  0  0
   47.3104    7.4929   12.8939 C   0  0  0  0  0  0  0  0  0  0  0  0
   45.4846    4.0149    9.3081 O   0  0  0  0  0  0  0  0  0  0  0  0
   41.7072    5.5315   11.6867 O   0  0  0  0  0  0  0  0  0  0  0  0
   45.2387    8.6858   13.2392 O   0  0  0  0  0  0  0  0  0  0  0  0
   49.1161    8.1980   14.3961 C   0  0  0  0  0  0  0  0  0  0  0  0
   49.4227    9.3067   15.4043 C   0  0  0  0  0  0  0  0  0  0  0  0
   50.3366    7.9483   13.5094 C   0  0  0  0  0  0  0  0  0  0  0  0
   47.0469    6.8498   12.5840 S   0  0  0  0  0  0  0  0  0  0  0  0
   47.5879    5.9642   13.5834 O   0  0  0  0  0  0  0  0  0  0  0  0
   47.5344    6.9273   11.2309 O   0  0  0  0  0  0  0  0  0  0  0  0
   47.0874    8.3224   13.2181 O   0  0  0  0  0  0  0  0  0  0  0  0
   45.4648    6.5990   12.4872 O   0  0  0  0  0  0  0  0  0  0  0  0
   47.9465    7.9297   13.3825 C   0  0  0  0  0  0  0  0  0  0  0  0
   48.9053    7.8006   14.4015 C   0  0  0  0  0  0  0  0  0  0  0  0
   47.6828    9.2148   12.8739 C   0  0  0  0  0  0  0  0  0  0  0  0
   49.5643    8.9276   14.8937 C   0  0  0  0  0  0  0  0  0  0  0  0
   48.3373   10.3281   13.3938 C   0  0  0  0  0  0  0  0  0  0  0  0
   49.2824   10.1962   14.4043 C   0  0  0  0  0  0  0  0  0  0  0  0
   45.0017    5.5493   12.6461 N   0  0  0  0  0  0  0  0  0  0  0  0
   47.2226    6.7271   12.8079 C   0  0  2  0  0  0  0  0  0  0  0  0
   45.6792    6.8356   12.9455 C   0  0  0  0  0  0  0  0  0  0  0  0
   48.0235   11.5474   12.8680 O   0  0  0  0  0  0  0  0  0  0  0  0
   50.5190    8.8193   15.8664 O   0  0  0  0  0  0  0  0  0  0  0  0
   47.6394    5.5115   13.4472 O   0  0  0  0  0  0  0  0  0  0  0  0
   44.4173    5.5001   11.2942 C   0  0  0  0  0  0  0  0  0  0  0  0
   43.5442    4.2452   11.2013 C   0  0  0  0  0  0  0  0  0  0  0  0
   45.4660    5.4792   10.1861 C   0  0  0  0  0  0  0  0  0  0  0  0
   43.3169    7.4070   12.6464 H   0  0  0  0  0  0  0  0  0  0  0  0
   46.7659    6.0377   10.4483 H   0  0  0  0  0  0  0  0  0  0  0  0
   43.0127    3.9772   10.0809 H   0  0  0  0  0  0  0  0  0  0  0  0
   48.2084    9.3455   12.9569 H   0  0  0  0  0  0  0  0  0  0  0  0
   46.1988    8.6887   11.4401 H   0  0  0  0  0  0  0  0  0  0  0  0
   47.9901    7.0972   12.1304 H   0  0  0  0  0  0  0  0  0  0  0  0
   47.0850    6.6893   13.6069 H   0  0  0  0  0  0  0  0  0  0  0  0
   46.4233    4.2259    9.1697 H   0  0  0  0  0  0  0  0  0  0  0  0
   41.4492    6.2431   12.2957 H   0  0  0  0  0  0  0  0  0  0  0  0
   45.9275    9.0774   13.8136 H   0  0  0  0  0  0  0  0  0  0  0  0
   48.8879    7.2862   14.9627 H   0  0  0  0  0  0  0  0  0  0  0  0
   50.2822    9.0362   16.0263 H   0  0  0  0  0  0  0  0  0  0  0  0
   48.5703    9.4740   16.0745 H   0  0  0  0  0  0  0  0  0  0  0  0
   49.6522   10.2559   14.9050 H   0  0  0  0  0  0  0  0  0  0  0  0
   50.1743    7.1024   12.8347 H   0  0  0  0  0  0  0  0  0  0  0  0
   51.2148    7.7139   14.1207 H   0  0  0  0  0  0  0  0  0  0  0  0
   50.5777    8.8298   12.9038 H   0  0  0  0  0  0  0  0  0  0  0  0
   47.0614    8.2177   14.1927 H   0  0  0  0  0  0  0  0  0  0  0  0
   45.1483    7.0451   11.6752 H   0  0  0  0  0  0  0  0  0  0  0  0
   49.1359    6.8161   14.8021 H   0  0  0  0  0  0  0  0  0  0  0  0
   46.9650    9.3633   12.0701 H   0  0  0  0  0  0  0  0  0  0  0  0
   49.8166   11.0507   14.8057 H   0  0  0  0  0  0  0  0  0  0  0  0
   44.2240    5.4626   13.3088 H   0  0  0  0  0  0  0  0  0  0  0  0
   47.5147    6.6345   11.7563 H   0  0  0  0  0  0  0  0  0  0  0  0
   45.2698    7.6644   12.3546 H   0  0  0  0  0  0  0  0  0  0  0  0
   45.4483    7.0659   13.9960 H   0  0  0  0  0  0  0  0  0  0  0  0
   48.4481   12.2306   13.4128 H   0  0  0  0  0  0  0  0  0  0  0  0
   50.6801    7.8722   16.0233 H   0  0  0  0  0  0  0  0  0  0  0  0
   46.9143    4.8850   13.2367 H   0  0  0  0  0  0  0  0  0  0  0  0
   43.7613    6.3683   11.1467 H   0  0  0  0  0  0  0  0  0  0  0  0
   42.7241    4.2863   11.9310 H   0  0  0  0  0  0  0  0  0  0  0  0
   43.0906    4.1601   10.2071 H   0  0  0  0  0  0  0  0  0  0  0  0
   44.1229    3.3325   11.3886 H   0  0  0  0  0  0  0  0  0  0  0  0
   46.1890    4.6694   10.3329 H   0  0  0  0  0  0  0  0  0  0  0  0
   44.9912    5.3315    9.2096 H   0  0  0  0  0  0  0  0  0  0  0  0
   46.0151    6.4259   10.1327 H   0  0  0  0  0  0  0  0  0  0  0  0
  2  1  2  0
  3  1  1  0
  4  2  1  0
  5  3  2  0
  6  4  2  0
  7  9  1  0
  8  1  1  0
  9  8  1  0
 10  5  1  0
 11  4  1  0
 12  8  1  0
 13  7  1  0
 14 13  1  0
 15 13  1  0
  6  5  1  0
 17 16  2  0
 18 16  2  0
 19 16  1  0
 20 16  1  0
 22 21  2  0
 23 21  1  0
 24 22  1  0
 25 23  2  0
 26 24  2  0
 27 29  1  0
 28 21  1  0
 29 28  1  0
 30 25  1  0
 31 24  1  0
 32 28  1  0
 33 27  1  0
 34 33  1  0
 35 33  1  0
 26 25  1  0
  2 36  1  0
  3 37  1  0
  6 38  1  0
  7 39  1  0
  8 40  1  1
  9 41  1  0
  9 42  1  0
 10 43  1  0
 11 44  1  0
 12 45  1  0
 13 46  1  0
 14 47  1  0
 14 48  1  0
 14 49  1  0
 15 50  1  0
 15 51  1  0
 15 52  1  0
 19 53  1  0
 20 54  1  0
 22 55  1  0
 23 56  1  0
 26 57  1  0
 27 58  1  0
 28 59  1  1
 29 60  1  0
 29 61  1  0
 30 62  1  0
 31 63  1  0
 32 64  1  0
 33 65  1  0
 34 66  1  0
 34 67  1  0
 34 68  1  0
 35 69  1  0
 35 70  1  0
 35 71  1  0
M  END
> <Uni-Dock RESULT> 
ENERGY=   -5.563  LOWER_BOUND=    1.472  UPPER_BOUND=    6.091
INTER + INTRA:          -5.563
INTER:                  -5.563
INTRA:                   0.000
UNBOUND:                 0.000

$$$$

     RDKit          3D

 71 70  0  0  0  0  0  0  0  0999 V2000
   48.9949    7.7653   21.5504 C   0  0  0  0  0  0  0  0  0  0  0  0
   50.1663    7.0086   21.3528 C   0  0  0  0  0  0  0  0  0  0  0  0
   47.8167    7.0846   21.9111 C   0  0  0  0  0  0  0  0  0  0  0  0
   50.1440    5.6214   21.4829 C   0  0  0  0  0  0  0  0  0  0  0  0
   47.8167    5.6936   22.0315 C   0  0  0  0  0  0  0  0  0  0  0  0
   48.9726    4.9564   21.8144 C   0  0  0  0  0  0  0  0  0  0  0  0
   48.1169   11.2888   20.2856 N   0  0  0  0  0  0  0  0  0  0  0  0
   49.0076    9.2780   21.4330 C   0  0  2  0  0  0  0  0  0  0  0  0
   47.8960    9.8438   20.5056 C   0  0  0  0  0  0  0  0  0  0  0  0
   46.6828    5.0108   22.3655 O   0  0  0  0  0  0  0  0  0  0  0  0
   51.2718    4.8755   21.2937 O   0  0  0  0  0  0  0  0  0  0  0  0
   50.2712    9.7438   20.9326 O   0  0  0  0  0  0  0  0  0  0  0  0
   47.1967   11.8556   19.2902 C   0  0  0  0  0  0  0  0  0  0  0  0
   47.7692   13.2027   18.8458 C   0  0  0  0  0  0  0  0  0  0  0  0
   45.7858   12.0478   19.8474 C   0  0  0  0  0  0  0  0  0  0  0  0
   47.7228    9.1030   20.5268 S   0  0  0  0  0  0  0  0  0  0  0  0
   47.1886    9.0315   19.1906 O   0  0  0  0  0  0  0  0  0  0  0  0
   46.9212    8.9991   21.7189 O   0  0  0  0  0  0  0  0  0  0  0  0
   48.5629   10.4671   20.6033 O   0  0  0  0  0  0  0  0  0  0  0  0
   48.8920    8.0125   20.6645 O   0  0  0  0  0  0  0  0  0  0  0  0
   47.7226   10.6854   20.1964 C   0  0  0  0  0  0  0  0  0  0  0  0
   47.1924   11.4344   19.1323 C   0  0  0  0  0  0  0  0  0  0  0  0
   48.3651   11.3742   21.2416 C   0  0  0  0  0  0  0  0  0  0  0  0
   47.3158   12.8241   19.1206 C   0  0  0  0  0  0  0  0  0  0  0  0
   48.4949   12.7596   21.1997 C   0  0  0  0  0  0  0  0  0  0  0  0
   47.9720   13.4962   20.1433 C   0  0  0  0  0  0  0  0  0  0  0  0
   48.8490    6.9971   20.1089 N   0  0  0  0  0  0  0  0  0  0  0  0
   47.5924    9.1754   20.2552 C   0  0  2  0  0  0  0  0  0  0  0  0
   48.9681    8.4588   20.3374 C   0  0  0  0  0  0  0  0  0  0  0  0
   49.1436   13.3646   22.2364 O   0  0  0  0  0  0  0  0  0  0  0  0
   46.7837   13.5722   18.1075 O   0  0  0  0  0  0  0  0  0  0  0  0
   46.8960    8.6659   19.1081 O   0  0  0  0  0  0  0  0  0  0  0  0
   48.8805    6.2089   21.3537 C   0  0  0  0  0  0  0  0  0  0  0  0
   49.0042    4.7301   20.9746 C   0  0  0  0  0  0  0  0  0  0  0  0
   47.6460    6.4137   22.2267 C   0  0  0  0  0  0  0  0  0  0  0  0
   51.0958    7.5136   21.0963 H   0  0  0  0  0  0  0  0  0  0  0  0
   46.9043    7.6408   22.1052 H   0  0  0  0  0  0  0  0  0  0  0  0
   48.9660    3.8753   21.9113 H   0  0  0  0  0  0  0  0  0  0  0  0
   48.0145   11.7893   21.1713 H   0  0  0  0  0  0  0  0  0  0  0  0
   48.9006    9.6986   22.4418 H   0  0  0  0  0  0  0  0  0  0  0  0
   46.9071    9.6662   20.9441 H   0  0  0  0  0  0  0  0  0  0  0  0
   47.9445    9.3252   19.5394 H   0  0  0  0  0  0  0  0  0  0  0  0
   45.9549    5.6437   22.4859 H   0  0  0  0  0  0  0  0  0  0  0  0
   52.0050    5.4791   21.0888 H   0  0  0  0  0  0  0  0  0  0  0  0
   50.0609   10.6066   20.5215 H   0  0  0  0  0  0  0  0  0  0  0  0
   47.1515   11.2052   18.4073 H   0  0  0  0  0  0  0  0  0  0  0  0
   47.1304   13.6614   18.0841 H   0  0  0  0  0  0  0  0  0  0  0  0
   48.7677   13.0792   18.4080 H   0  0  0  0  0  0  0  0  0  0  0  0
   47.8519   13.9041   19.6849 H   0  0  0  0  0  0  0  0  0  0  0  0
   45.3196   11.0894   20.0948 H   0  0  0  0  0  0  0  0  0  0  0  0
   45.1445   12.5414   19.1093 H   0  0  0  0  0  0  0  0  0  0  0  0
   45.7940   12.6694   20.7505 H   0  0  0  0  0  0  0  0  0  0  0  0
   48.8479   10.6821   19.6900 H   0  0  0  0  0  0  0  0  0  0  0  0
   49.0992    7.9262   21.6174 H   0  0  0  0  0  0  0  0  0  0  0  0
   46.6799   10.9259   18.3189 H   0  0  0  0  0  0  0  0  0  0  0  0
   48.7726   10.8406   22.0975 H   0  0  0  0  0  0  0  0  0  0  0  0
   48.0459   14.5778   20.1058 H   0  0  0  0  0  0  0  0  0  0  0  0
   49.6672    6.7154   19.5587 H   0  0  0  0  0  0  0  0  0  0  0  0
   46.9718    8.9288   21.1233 H   0  0  0  0  0  0  0  0  0  0  0  0
   49.4975    8.6884   21.2706 H   0  0  0  0  0  0  0  0  0  0  0  0
   49.6002    8.8453   19.5244 H   0  0  0  0  0  0  0  0  0  0  0  0
   49.2762   14.2992   22.0068 H   0  0  0  0  0  0  0  0  0  0  0  0
   46.2682   12.9770   17.5350 H   0  0  0  0  0  0  0  0  0  0  0  0
   47.1457    7.7171   19.0949 H   0  0  0  0  0  0  0  0  0  0  0  0
   49.7743    6.4752   21.9335 H   0  0  0  0  0  0  0  0  0  0  0  0
   49.9372    4.5456   20.4251 H   0  0  0  0  0  0  0  0  0  0  0  0
   49.0249    4.0996   21.8710 H   0  0  0  0  0  0  0  0  0  0  0  0
   48.1672    4.3998   20.3476 H   0  0  0  0  0  0  0  0  0  0  0  0
   46.7230    6.2291   21.6663 H   0  0  0  0  0  0  0  0  0  0  0  0
   47.6615    5.7288   23.0819 H   0  0  0  0  0  0  0  0  0  0  0  0
   47.6043    7.4301   22.6340 H   0  0  0  0  0  0  0  0  0  0  0  0
  2  1  2  0
  3  1  1  0
  4  2  1  0
  5  3  2  0
  6  4  2  0
  7  9  1  0
  8  1  1  0
  9  8  1  0
 10  5  1  0
 11  4  1  0
 12  8  1  0
 13  7  1  0
 14 13  1  0
 15 13  1  0
  6  5  1  0
 17 16  2  0
 18 16  2  0
 19 16  1  0
 20 16  1  0
 22 21  2  0
 23 21  1  0
 24 22  1  0
 25 23  2  0
 26 24  2  0
 27 29  1  0
 28 21  1  0
 29 28  1  0
 30 25  1  0
 31 24  1  0
 32 28  1  0
 33 27  1  0
 34 33  1  0
 35 33  1  0
 26 25  1  0
  2 36  1  0
  3 37  1  0
  6 38  1  0
  7 39  1  0
  8 40  1  1
  9 41  1  0
  9 42  1  0
 10 43  1  0
 11 44  1  0
 12 45  1  0
 13 46  1  0
 14 47  1  0
 14 48  1  0
 14 49  1  0
 15 50  1  0
 15 51  1  0
 15 52  1  0
 19 53  1  0
 20 54  1  0
 22 55  1  0
 23 56  1  0
 26 57  1  0
 27 58  1  0
 28 59  1  1
 29 60  1  0
 29 61  1  0
 30 62  1  0
 31 63  1  0
 32 64  1  0
 33 65  1  0
 34 66  1  0
 34 67  1  0
 34 68  1  0
 35 69  1  0
 35 70  1  0
 35 71  1  0
M  END
> <Uni-Dock RESULT> 
ENERGY=   -4.693  LOWER_BOUND=    7.848  UPPER_BOUND=    9.495
INTER + INTRA:          -4.693
INTER:                  -4.693
INTRA:                   0.000
UNBOUND:                 0.000

$$$$

     RDKit          3D

 71 70  0  0  0  0  0  0  0  0999 V2000
   48.9725    4.9226   18.1300 C   0  0  0  0  0  0  0  0  0  0  0  0
   48.1653    4.4173   17.0923 C   0  0  0  0  0  0  0  0  0  0  0  0
   50.1690    4.2452   18.4316 C   0  0  0  0  0  0  0  0  0  0  0  0
   48.5330    3.2605   16.4081 C   0  0  0  0  0  0  0  0  0  0  0  0
   50.5153    3.0853   17.7359 C   0  0  0  0  0  0  0  0  0  0  0  0
   49.7016    2.5851   16.7286 C   0  0  0  0  0  0  0  0  0  0  0  0
   48.0374    7.2537   21.0416 N   0  0  0  0  0  0  0  0  0  0  0  0
   48.5966    6.1927   18.8704 C   0  0  2  0  0  0  0  0  0  0  0  0
   48.6163    6.0452   20.4174 C   0  0  0  0  0  0  0  0  0  0  0  0
   51.6629    2.4033   18.0210 O   0  0  0  0  0  0  0  0  0  0  0  0
   47.7600    2.7592   15.4006 O   0  0  0  0  0  0  0  0  0  0  0  0
   47.2842    6.6384   18.4920 O   0  0  0  0  0  0  0  0  0  0  0  0
   47.8768    7.1166   22.4957 C   0  0  0  0  0  0  0  0  0  0  0  0
   46.9166    8.2130   22.9601 C   0  0  0  0  0  0  0  0  0  0  0  0
   49.2067    7.2395   23.2405 C   0  0  0  0  0  0  0  0  0  0  0  0
   48.8909    5.3727   20.1907 S   0  0  0  0  0  0  0  0  0  0  0  0
   48.3463    4.6076   21.2833 O   0  0  0  0  0  0  0  0  0  0  0  0
   50.2953    5.6447   20.0221 O   0  0  0  0  0  0  0  0  0  0  0  0
   48.1039    6.7701   20.1834 O   0  0  0  0  0  0  0  0  0  0  0  0
   48.3814    4.7244   18.8140 O   0  0  0  0  0  0  0  0  0  0  0  0
   48.3628    6.6064   21.0919 C   0  0  0  0  0  0  0  0  0  0  0  0
   47.8496    6.6784   22.3980 C   0  0  0  0  0  0  0  0  0  0  0  0
   48.5136    7.8033   20.3678 C   0  0  0  0  0  0  0  0  0  0  0  0
   47.4936    7.9109   22.9466 C   0  0  0  0  0  0  0  0  0  0  0  0
   48.1329    9.0199   20.9271 C   0  0  0  0  0  0  0  0  0  0  0  0
   47.6223    9.0861   22.2182 C   0  0  0  0  0  0  0  0  0  0  0  0
   48.2168    3.5835   18.7000 N   0  0  0  0  0  0  0  0  0  0  0  0
   48.7790    5.2885   20.4671 C   0  0  2  0  0  0  0  0  0  0  0  0
   48.0171    4.9844   19.1481 C   0  0  0  0  0  0  0  0  0  0  0  0
   48.2892   10.1413   20.1657 O   0  0  0  0  0  0  0  0  0  0  0  0
   47.0172    8.0043   24.2247 O   0  0  0  0  0  0  0  0  0  0  0  0
   48.5610    4.1916   21.3669 O   0  0  0  0  0  0  0  0  0  0  0  0
   49.2089    3.4543   17.6180 C   0  0  0  0  0  0  0  0  0  0  0  0
   49.1387    2.0221   17.0800 C   0  0  0  0  0  0  0  0  0  0  0  0
   50.6334    3.7646   18.0681 C   0  0  0  0  0  0  0  0  0  0  0  0
   47.2470    4.9363   16.8241 H   0  0  0  0  0  0  0  0  0  0  0  0
   50.8319    4.6277   19.2022 H   0  0  0  0  0  0  0  0  0  0  0  0
   49.9776    1.6837   16.1905 H   0  0  0  0  0  0  0  0  0  0  0  0
   48.6295    8.0617   20.8367 H   0  0  0  0  0  0  0  0  0  0  0  0
   49.2926    6.9846   18.5629 H   0  0  0  0  0  0  0  0  0  0  0  0
   49.6406    5.8802   20.7714 H   0  0  0  0  0  0  0  0  0  0  0  0
   48.0089    5.1747   20.6969 H   0  0  0  0  0  0  0  0  0  0  0  0
   52.1321    2.8581   18.7406 H   0  0  0  0  0  0  0  0  0  0  0  0
   46.9951    3.3465   15.2831 H   0  0  0  0  0  0  0  0  0  0  0  0
   46.9816    7.1653   19.2591 H   0  0  0  0  0  0  0  0  0  0  0  0
   47.4173    6.1487   22.7331 H   0  0  0  0  0  0  0  0  0  0  0  0
   46.7437    8.1434   24.0390 H   0  0  0  0  0  0  0  0  0  0  0  0
   45.9429    8.1177   22.4633 H   0  0  0  0  0  0  0  0  0  0  0  0
   47.3100    9.2138   22.7446 H   0  0  0  0  0  0  0  0  0  0  0  0
   49.8829    6.4168   22.9896 H   0  0  0  0  0  0  0  0  0  0  0  0
   49.0453    7.2102   24.3235 H   0  0  0  0  0  0  0  0  0  0  0  0
   49.7113    8.1836   23.0041 H   0  0  0  0  0  0  0  0  0  0  0  0
   47.2308    6.6117   20.6007 H   0  0  0  0  0  0  0  0  0  0  0  0
   48.9164    5.1143   18.0928 H   0  0  0  0  0  0  0  0  0  0  0  0
   47.7357    5.7684   22.9825 H   0  0  0  0  0  0  0  0  0  0  0  0
   48.9265    7.8015   19.3614 H   0  0  0  0  0  0  0  0  0  0  0  0
   47.3408   10.0281   22.6765 H   0  0  0  0  0  0  0  0  0  0  0  0
   47.3199    3.2632   18.3199 H   0  0  0  0  0  0  0  0  0  0  0  0
   49.8595    5.3298   20.2927 H   0  0  0  0  0  0  0  0  0  0  0  0
   48.2551    5.7078   18.3583 H   0  0  0  0  0  0  0  0  0  0  0  0
   46.9405    5.0918   19.3466 H   0  0  0  0  0  0  0  0  0  0  0  0
   47.8613   10.8821   20.6259 H   0  0  0  0  0  0  0  0  0  0  0  0
   47.0893    7.1248   24.6358 H   0  0  0  0  0  0  0  0  0  0  0  0
   48.5576    3.4099   20.7741 H   0  0  0  0  0  0  0  0  0  0  0  0
   48.9416    4.1284   16.7934 H   0  0  0  0  0  0  0  0  0  0  0  0
   48.1443    1.8105   16.6641 H   0  0  0  0  0  0  0  0  0  0  0  0
   49.8664    1.8737   16.2738 H   0  0  0  0  0  0  0  0  0  0  0  0
   49.3459    1.2830   17.8633 H   0  0  0  0  0  0  0  0  0  0  0  0
   50.9190    3.1643   18.9388 H   0  0  0  0  0  0  0  0  0  0  0  0
   51.3464    3.5495   17.2642 H   0  0  0  0  0  0  0  0  0  0  0  0
   50.7536    4.8230   18.3249 H   0  0  0  0  0  0  0  0  0  0  0  0
  2  1  2  0
  3  1  1  0
  4  2  1  0
  5  3  2  0
  6  4  2  0
  7  9  1  0
  8  1  1  0
  9  8  1  0
 10  5  1  0
 11  4  1  0
 12  8  1  0
 13  7  1  0
 14 13  1  0
 15 13  1  0
  6  5  1  0
 17 16  2  0
 18 16  2  0
 19 16  1  0
 20 16  1  0
 22 21  2  0
 23 21  1  0
 24 22  1  0
 25 23  2  0
 26 24  2  0
 27 29  1  0
 28 21  1  0
 29 28  1  0
 30 25  1  0
 31 24  1  0
 32 28  1  0
 33 27  1  0
 34 33  1  0
 35 33  1  0
 26 25  1  0
  2 36  1  0
  3 37  1  0
  6 38  1  0
  7 39  1  0
  8 40  1  1
  9 41  1  0
  9 42  1  0
 10 43  1  0
 11 44  1  0
 12 45  1  0
 13 46  1  0
 14 47  1  0
 14 48  1  0
 14 49  1  0
 15 50  1  0
 15 51  1  0
 15 52  1  0
 19 53  1  0
 20 54  1  0
 22 55  1  0
 23 56  1  0
 26 57  1  0
 27 58  1  0
 28 59  1  1
 29 60  1  0
 29 61  1  0
 30 62  1  0
 31 63  1  0
 32 64  1  0
 33 65  1  0
 34 66  1  0
 34 67  1  0
 34 68  1  0
 35 69  1  0
 35 70  1  0
 35 71  1  0
M  END
> <Uni-Dock RESULT> 
ENERGY=   -4.655  LOWER_BOUND=    6.212  UPPER_BOUND=    8.714
INTER + INTRA:          -4.655
INTER:                  -4.655
INTRA:                   0.000
UNBOUND:                 0.000

$$$$

     RDKit          3D

 71 70  0  0  0  0  0  0  0  0999 V2000
   46.8723    6.8766   13.4425 C   0  0  0  0  0  0  0  0  0  0  0  0
   46.3259    5.5845   13.5680 C   0  0  0  0  0  0  0  0  0  0  0  0
   46.1471    7.8370   12.7121 C   0  0  0  0  0  0  0  0  0  0  0  0
   45.1150    5.2650   12.9573 C   0  0  0  0  0  0  0  0  0  0  0  0
   44.9378    7.4932   12.1050 C   0  0  0  0  0  0  0  0  0  0  0  0
   44.4191    6.2107   12.2185 C   0  0  0  0  0  0  0  0  0  0  0  0
   50.5133    8.0429   13.8529 N   0  0  0  0  0  0  0  0  0  0  0  0
   48.1793    7.2461   14.1189 C   0  0  2  0  0  0  0  0  0  0  0  0
   49.2101    7.9150   13.1671 C   0  0  0  0  0  0  0  0  0  0  0  0
   44.2247    8.4034   11.3794 O   0  0  0  0  0  0  0  0  0  0  0  0
   44.5741    4.0165   13.0702 O   0  0  0  0  0  0  0  0  0  0  0  0
   48.8053    6.0879   14.6941 O   0  0  0  0  0  0  0  0  0  0  0  0
   51.5775    8.5200   12.9592 C   0  0  0  0  0  0  0  0  0  0  0  0
   52.9170    8.2212   13.6346 C   0  0  0  0  0  0  0  0  0  0  0  0
   51.4634   10.0169   12.6685 C   0  0  0  0  0  0  0  0  0  0  0  0
   48.5964    7.8576   12.7207 S   0  0  0  0  0  0  0  0  0  0  0  0
   49.3190    7.6703   11.4885 O   0  0  0  0  0  0  0  0  0  0  0  0
   47.8564    9.0501   13.0447 O   0  0  0  0  0  0  0  0  0  0  0  0
   49.6433    7.5788   13.9034 O   0  0  0  0  0  0  0  0  0  0  0  0
   47.5847    6.6259   12.9075 O   0  0  0  0  0  0  0  0  0  0  0  0
   50.0826    8.1598   13.2800 C   0  0  0  0  0  0  0  0  0  0  0  0
   51.3225    8.3300   12.6410 C   0  0  0  0  0  0  0  0  0  0  0  0
   50.0288    8.2993   14.6790 C   0  0  0  0  0  0  0  0  0  0  0  0
   52.4646    8.6199   13.3882 C   0  0  0  0  0  0  0  0  0  0  0  0
   51.1844    8.5686   15.4070 C   0  0  0  0  0  0  0  0  0  0  0  0
   52.4094    8.7327   14.7711 C   0  0  0  0  0  0  0  0  0  0  0  0
   47.0710    6.1148   12.0040 N   0  0  0  0  0  0  0  0  0  0  0  0
   48.8153    7.8628   12.5015 C   0  0  2  0  0  0  0  0  0  0  0  0
   48.1351    6.5396   12.9476 C   0  0  0  0  0  0  0  0  0  0  0  0
   51.0665    8.6748   16.7621 O   0  0  0  0  0  0  0  0  0  0  0  0
   53.6746    8.8149   12.7824 O   0  0  0  0  0  0  0  0  0  0  0  0
   49.0761    7.7732   11.0928 O   0  0  0  0  0  0  0  0  0  0  0  0
   45.7124    6.4353   12.4761 C   0  0  0  0  0  0  0  0  0  0  0  0
   44.7124    5.7324   11.5533 C   0  0  0  0  0  0  0  0  0  0  0  0
   45.4224    7.9332   12.5017 C   0  0  0  0  0  0  0  0  0  0  0  0
   46.8558    4.8307   14.1474 H   0  0  0  0  0  0  0  0  0  0  0  0
   46.5225    8.8524   12.6252 H   0  0  0  0  0  0  0  0  0  0  0  0
   43.4775    5.9505   11.7453 H   0  0  0  0  0  0  0  0  0  0  0  0
   50.4209    8.6805   14.6469 H   0  0  0  0  0  0  0  0  0  0  0  0
   47.9512    7.9213   14.9544 H   0  0  0  0  0  0  0  0  0  0  0  0
   48.8467    8.8966   12.8412 H   0  0  0  0  0  0  0  0  0  0  0  0
   49.3355    7.2804   12.2802 H   0  0  0  0  0  0  0  0  0  0  0  0
   44.6989    9.2519   11.3803 H   0  0  0  0  0  0  0  0  0  0  0  0
   45.1618    3.4796   13.6272 H   0  0  0  0  0  0  0  0  0  0  0  0
   49.7546    6.3230   14.7283 H   0  0  0  0  0  0  0  0  0  0  0  0
   51.5502    7.9647   12.0130 H   0  0  0  0  0  0  0  0  0  0  0  0
   53.7496    8.5386   12.9985 H   0  0  0  0  0  0  0  0  0  0  0  0
   53.0328    7.1454   13.8170 H   0  0  0  0  0  0  0  0  0  0  0  0
   53.0099    8.7395   14.5967 H   0  0  0  0  0  0  0  0  0  0  0  0
   50.5516   10.2473   12.1094 H   0  0  0  0  0  0  0  0  0  0  0  0
   52.3112   10.3573   12.0643 H   0  0  0  0  0  0  0  0  0  0  0  0
   51.4567   10.6044   13.5942 H   0  0  0  0  0  0  0  0  0  0  0  0
   50.3320    6.9804   13.5439 H   0  0  0  0  0  0  0  0  0  0  0  0
   46.9625    6.8661   13.6242 H   0  0  0  0  0  0  0  0  0  0  0  0
   51.3874    8.2399   11.5591 H   0  0  0  0  0  0  0  0  0  0  0  0
   49.0886    8.1980   15.2168 H   0  0  0  0  0  0  0  0  0  0  0  0
   53.3153    8.9637   15.3214 H   0  0  0  0  0  0  0  0  0  0  0  0
   47.1274    5.0932   11.9340 H   0  0  0  0  0  0  0  0  0  0  0  0
   48.1376    8.7132   12.6328 H   0  0  0  0  0  0  0  0  0  0  0  0
   47.7725    6.5906   13.9819 H   0  0  0  0  0  0  0  0  0  0  0  0
   48.8956    5.7451   12.9292 H   0  0  0  0  0  0  0  0  0  0  0  0
   51.9596    8.7260   17.1409 H   0  0  0  0  0  0  0  0  0  0  0  0
   53.5308    8.8134   11.8196 H   0  0  0  0  0  0  0  0  0  0  0  0
   48.2974    7.2850   10.7492 H   0  0  0  0  0  0  0  0  0  0  0  0
   45.5697    6.0282   13.4859 H   0  0  0  0  0  0  0  0  0  0  0  0
   44.8442    4.6427   11.5940 H   0  0  0  0  0  0  0  0  0  0  0  0
   43.6824    5.9469   11.8610 H   0  0  0  0  0  0  0  0  0  0  0  0
   44.8276    6.0519   10.5104 H   0  0  0  0  0  0  0  0  0  0  0  0
   45.6218    8.3973   11.5297 H   0  0  0  0  0  0  0  0  0  0  0  0
   44.3715    8.1174   12.7517 H   0  0  0  0  0  0  0  0  0  0  0  0
   46.0243    8.4475   13.2591 H   0  0  0  0  0  0  0  0  0  0  0  0
  2  1  2  0
  3  1  1  0
  4  2  1  0
  5  3  2  0
  6  4  2  0
  7  9  1  0
  8  1  1  0
  9  8  1  0
 10  5  1  0
 11  4  1  0
 12  8  1  0
 13  7  1  0
 14 13  1  0
 15 13  1  0
  6  5  1  0
 17 16  2  0
 18 16  2  0
 19 16  1  0
 20 16  1  0
 22 21  2  0
 23 21  1  0
 24 22  1  0
 25 23  2  0
 26 24  2  0
 27 29  1  0
 28 21  1  0
 29 28  1  0
 30 25  1  0
 31 24  1  0
 32 28  1  0
 33 27  1  0
 34 33  1  0
 35 33  1  0
 26 25  1  0
  2 36  1  0
  3 37  1  0
  6 38  1  0
  7 39  1  0
  8 40  1  1
  9 41  1  0
  9 42  1  0
 10 43  1  0
 11 44  1  0
 12 45  1  0
 13 46  1  0
 14 47  1  0
 14 48  1  0
 14 49  1  0
 15 50  1  0
 15 51  1  0
 15 52  1  0
 19 53  1  0
 20 54  1  0
 22 55  1  0
 23 56  1  0
 26 57  1  0
 27 58  1  0
 28 59  1  1
 29 60  1  0
 29 61  1  0
 30 62  1  0
 31 63  1  0
 32 64  1  0
 33 65  1  0
 34 66  1  0
 34 67  1  0
 34 68  1  0
 35 69  1  0
 35 70  1  0
 35 71  1  0
M  END
> <Uni-Dock RESULT> 
ENERGY=   -4.612  LOWER_BOUND=    1.462  UPPER_BOUND=    6.177
INTER + INTRA:          -4.612
INTER:                  -4.612
INTRA:                   0.000
UNBOUND:                 0.000

$$$$

     RDKit          3D

 71 70  0  0  0  0  0  0  0  0999 V2000
   45.8704    5.8760   11.7586 C   0  0  0  0  0  0  0  0  0  0  0  0
   45.3908    5.5450   10.4763 C   0  0  0  0  0  0  0  0  0  0  0  0
   45.1200    5.4639   12.8760 C   0  0  0  0  0  0  0  0  0  0  0  0
   44.1898    4.8548   10.3256 C   0  0  0  0  0  0  0  0  0  0  0  0
   43.9171    4.7771   12.7009 C   0  0  0  0  0  0  0  0  0  0  0  0
   43.4439    4.4742   11.4316 C   0  0  0  0  0  0  0  0  0  0  0  0
   48.3529    8.6184   12.8086 N   0  0  0  0  0  0  0  0  0  0  0  0
   47.1867    6.6087   11.9402 C   0  0  2  0  0  0  0  0  0  0  0  0
   47.0873    7.8563   12.8617 C   0  0  0  0  0  0  0  0  0  0  0  0
   43.1650    4.3806   13.7690 O   0  0  0  0  0  0  0  0  0  0  0  0
   43.7128    4.5280    9.0887 O   0  0  0  0  0  0  0  0  0  0  0  0
   47.7119    7.0423   10.6751 O   0  0  0  0  0  0  0  0  0  0  0  0
   48.2736    9.8958   13.5302 C   0  0  0  0  0  0  0  0  0  0  0  0
   49.4493   10.7599   13.0709 C   0  0  0  0  0  0  0  0  0  0  0  0
   48.3257    9.7096   15.0471 C   0  0  0  0  0  0  0  0  0  0  0  0
   46.3902    7.5575   12.9239 S   0  0  0  0  0  0  0  0  0  0  0  0
   45.7006    8.8104   13.0984 O   0  0  0  0  0  0  0  0  0  0  0  0
   46.5567    6.5800   13.9687 O   0  0  0  0  0  0  0  0  0  0  0  0
   47.8389    7.9189   12.3381 O   0  0  0  0  0  0  0  0  0  0  0  0
   45.7362    6.7880   11.6767 O   0  0  0  0  0  0  0  0  0  0  0  0
   47.6861    8.5118   13.0759 C   0  0  0  0  0  0  0  0  0  0  0  0
   47.8355    9.8624   13.4338 C   0  0  0  0  0  0  0  0  0  0  0  0
   48.8458    7.7582   12.8172 C   0  0  0  0  0  0  0  0  0  0  0  0
   49.1069   10.4311   13.5170 C   0  0  0  0  0  0  0  0  0  0  0  0
   50.1034    8.3512   12.8863 C   0  0  0  0  0  0  0  0  0  0  0  0
   50.2463    9.6885   13.2372 C   0  0  0  0  0  0  0  0  0  0  0  0
   44.6068    6.8691   11.4327 N   0  0  0  0  0  0  0  0  0  0  0  0
   46.3229    7.8520   12.9931 C   0  0  2  0  0  0  0  0  0  0  0  0
   46.0318    7.2538   11.5895 C   0  0  0  0  0  0  0  0  0  0  0  0
   51.1862    7.5694   12.6072 O   0  0  0  0  0  0  0  0  0  0  0  0
   49.2741   11.7361   13.8890 O   0  0  0  0  0  0  0  0  0  0  0  0
   45.2733    8.7801   13.3049 O   0  0  0  0  0  0  0  0  0  0  0  0
   44.3736    5.4227   11.5912 C   0  0  0  0  0  0  0  0  0  0  0  0
   42.9336    5.1257   11.1625 C   0  0  0  0  0  0  0  0  0  0  0  0
   44.5965    4.9304   13.0182 C   0  0  0  0  0  0  0  0  0  0  0  0
   45.9647    5.8318    9.5971 H   0  0  0  0  0  0  0  0  0  0  0  0
   45.4788    5.6719   13.8797 H   0  0  0  0  0  0  0  0  0  0  0  0
   42.5087    3.9385   11.3027 H   0  0  0  0  0  0  0  0  0  0  0  0
   49.1101    8.0516   13.1971 H   0  0  0  0  0  0  0  0  0  0  0  0
   47.9173    5.8993   12.3514 H   0  0  0  0  0  0  0  0  0  0  0  0
   46.8615    7.5530   13.8906 H   0  0  0  0  0  0  0  0  0  0  0  0
   46.2712    8.4965   12.5025 H   0  0  0  0  0  0  0  0  0  0  0  0
   43.6081    4.6562   14.5891 H   0  0  0  0  0  0  0  0  0  0  0  0
   44.3487    4.8419    8.4248 H   0  0  0  0  0  0  0  0  0  0  0  0
   48.2829    7.8037   10.9030 H   0  0  0  0  0  0  0  0  0  0  0  0
   47.3486   10.4219   13.2618 H   0  0  0  0  0  0  0  0  0  0  0  0
   49.4263   11.7371   13.5642 H   0  0  0  0  0  0  0  0  0  0  0  0
   49.4074   10.9358   11.9887 H   0  0  0  0  0  0  0  0  0  0  0  0
   50.4125   10.2880   13.3001 H   0  0  0  0  0  0  0  0  0  0  0  0
   47.4497    9.1660   15.4134 H   0  0  0  0  0  0  0  0  0  0  0  0
   48.3422   10.6807   15.5536 H   0  0  0  0  0  0  0  0  0  0  0  0
   49.2238    9.1595   15.3516 H   0  0  0  0  0  0  0  0  0  0  0  0
   47.7559    8.7782   11.8730 H   0  0  0  0  0  0  0  0  0  0  0  0
   46.0643    5.8659   11.6987 H   0  0  0  0  0  0  0  0  0  0  0  0
   46.9548   10.4623   13.6511 H   0  0  0  0  0  0  0  0  0  0  0  0
   48.7829    6.7037   12.5577 H   0  0  0  0  0  0  0  0  0  0  0  0
   51.2200   10.1602   13.3162 H   0  0  0  0  0  0  0  0  0  0  0  0
   44.3388    7.1093   10.4725 H   0  0  0  0  0  0  0  0  0  0  0  0
   46.2822    7.0751   13.7641 H   0  0  0  0  0  0  0  0  0  0  0  0
   46.7112    6.4279   11.3442 H   0  0  0  0  0  0  0  0  0  0  0  0
   46.2213    8.0378   10.8415 H   0  0  0  0  0  0  0  0  0  0  0  0
   51.9696    8.1420   12.5614 H   0  0  0  0  0  0  0  0  0  0  0  0
   48.4053   12.0849   14.1554 H   0  0  0  0  0  0  0  0  0  0  0  0
   44.4753    8.3558   12.9228 H   0  0  0  0  0  0  0  0  0  0  0  0
   45.0384    4.8681   10.9158 H   0  0  0  0  0  0  0  0  0  0  0  0
   42.7797    5.3868   10.1067 H   0  0  0  0  0  0  0  0  0  0  0  0
   42.7087    4.0582   11.2694 H   0  0  0  0  0  0  0  0  0  0  0  0
   42.2068    5.6865   11.7627 H   0  0  0  0  0  0  0  0  0  0  0  0
   44.0054    5.5065   13.7384 H   0  0  0  0  0  0  0  0  0  0  0  0
   44.3061    3.8780   13.1119 H   0  0  0  0  0  0  0  0  0  0  0  0
   45.6513    4.9962   13.3072 H   0  0  0  0  0  0  0  0  0  0  0  0
  2  1  2  0
  3  1  1  0
  4  2  1  0
  5  3  2  0
  6  4  2  0
  7  9  1  0
  8  1  1  0
  9  8  1  0
 10  5  1  0
 11  4  1  0
 12  8  1  0
 13  7  1  0
 14 13  1  0
 15 13  1  0
  6  5  1  0
 17 16  2  0
 18 16  2  0
 19 16  1  0
 20 16  1  0
 22 21  2  0
 23 21  1  0
 24 22  1  0
 25 23  2  0
 26 24  2  0
 27 29  1  0
 28 21  1  0
 29 28  1  0
 30 25  1  0
 31 24  1  0
 32 28  1  0
 33 27  1  0
 34 33  1  0
 35 33  1  0
 26 25  1  0
  2 36  1  0
  3 37  1  0
  6 38  1  0
  7 39  1  0
  8 40  1  1
  9 41  1  0
  9 42  1  0
 10 43  1  0
 11 44  1  0
 12 45  1  0
 13 46  1  0
 14 47  1  0
 14 48  1  0
 14 49  1  0
 15 50  1  0
 15 51  1  0
 15 52  1  0
 19 53  1  0
 20 54  1  0
 22 55  1  0
 23 56  1  0
 26 57  1  0
 27 58  1  0
 28 59  1  1
 29 60  1  0
 29 61  1  0
 30 62  1  0
 31 63  1  0
 32 64  1  0
 33 65  1  0
 34 66  1  0
 34 67  1  0
 34 68  1  0
 35 69  1  0
 35 70  1  0
 35 71  1  0
M  END
> <Uni-Dock RESULT> 
ENERGY=   -4.611  LOWER_BOUND=    1.680  UPPER_BOUND=    6.087
INTER + INTRA:          -4.611
INTER:                  -4.611
INTRA:                   0.000
UNBOUND:                 0.000

$$$$

     RDKit          3D

 71 70  0  0  0  0  0  0  0  0999 V2000
   48.5064    8.1362   15.1395 C   0  0  0  0  0  0  0  0  0  0  0  0
   48.3176    8.4191   13.7726 C   0  0  0  0  0  0  0  0  0  0  0  0
   48.8223    9.2032   16.0018 C   0  0  0  0  0  0  0  0  0  0  0  0
   48.4711    9.7172   13.2901 C   0  0  0  0  0  0  0  0  0  0  0  0
   48.9754   10.4952   15.4954 C   0  0  0  0  0  0  0  0  0  0  0  0
   48.8070   10.7586   14.1429 C   0  0  0  0  0  0  0  0  0  0  0  0
   49.3441    4.7975   16.8531 N   0  0  0  0  0  0  0  0  0  0  0  0
   48.3224    6.7319   15.6840 C   0  0  2  0  0  0  0  0  0  0  0  0
   49.5144    6.2338   16.5480 C   0  0  0  0  0  0  0  0  0  0  0  0
   49.2962   11.5427   16.3099 O   0  0  0  0  0  0  0  0  0  0  0  0
   48.2917   10.0056   11.9677 O   0  0  0  0  0  0  0  0  0  0  0  0
   48.1333    5.7882   14.6172 O   0  0  0  0  0  0  0  0  0  0  0  0
   50.5136    4.2215   17.5309 C   0  0  0  0  0  0  0  0  0  0  0  0
   50.4082    2.6994   17.4213 C   0  0  0  0  0  0  0  0  0  0  0  0
   50.5933    4.6334   19.0014 C   0  0  0  0  0  0  0  0  0  0  0  0
   49.7086    6.9570   16.4122 S   0  0  0  0  0  0  0  0  0  0  0  0
   51.1318    6.7338   16.3945 O   0  0  0  0  0  0  0  0  0  0  0  0
   49.0204    7.6710   17.4569 O   0  0  0  0  0  0  0  0  0  0  0  0
   49.0248    5.5148   16.2545 O   0  0  0  0  0  0  0  0  0  0  0  0
   49.2869    7.6514   15.0283 O   0  0  0  0  0  0  0  0  0  0  0  0
   49.7052    5.4236   16.9238 C   0  0  0  0  0  0  0  0  0  0  0  0
   50.7334    4.5500   17.3162 C   0  0  0  0  0  0  0  0  0  0  0  0
   48.3770    4.9644   16.9940 C   0  0  0  0  0  0  0  0  0  0  0  0
   50.4314    3.2597   17.7529 C   0  0  0  0  0  0  0  0  0  0  0  0
   48.0998    3.6663   17.4133 C   0  0  0  0  0  0  0  0  0  0  0  0
   49.1203    2.8043   17.7972 C   0  0  0  0  0  0  0  0  0  0  0  0
   49.9854    8.3952   14.4802 N   0  0  0  0  0  0  0  0  0  0  0  0
   49.9910    6.8396   16.4615 C   0  0  2  0  0  0  0  0  0  0  0  0
   49.4597    7.1203   15.0292 C   0  0  0  0  0  0  0  0  0  0  0  0
   46.7921    3.2780   17.4424 O   0  0  0  0  0  0  0  0  0  0  0  0
   51.4156    2.4042   18.1635 O   0  0  0  0  0  0  0  0  0  0  0  0
   51.3989    7.1192   16.4738 O   0  0  0  0  0  0  0  0  0  0  0  0
   49.0197    9.5054   14.5599 C   0  0  0  0  0  0  0  0  0  0  0  0
   49.5770   10.6770   13.7459 C   0  0  0  0  0  0  0  0  0  0  0  0
   48.7423    9.9596   15.9899 C   0  0  0  0  0  0  0  0  0  0  0  0
   48.0497    7.6154   13.0893 H   0  0  0  0  0  0  0  0  0  0  0  0
   48.9400    9.0260   17.0668 H   0  0  0  0  0  0  0  0  0  0  0  0
   48.9259   11.7657   13.7561 H   0  0  0  0  0  0  0  0  0  0  0  0
   48.5127    4.6673   17.4339 H   0  0  0  0  0  0  0  0  0  0  0  0
   47.3992    6.7156   16.2784 H   0  0  0  0  0  0  0  0  0  0  0  0
   49.5863    6.8194   17.4719 H   0  0  0  0  0  0  0  0  0  0  0  0
   50.4436    6.3690   15.9792 H   0  0  0  0  0  0  0  0  0  0  0  0
   49.3853   11.2196   17.2223 H   0  0  0  0  0  0  0  0  0  0  0  0
   48.0443    9.1860   11.5085 H   0  0  0  0  0  0  0  0  0  0  0  0
   48.4259    4.9360   14.9990 H   0  0  0  0  0  0  0  0  0  0  0  0
   51.4340    4.5294   17.0185 H   0  0  0  0  0  0  0  0  0  0  0  0
   51.2703    2.2175   17.8939 H   0  0  0  0  0  0  0  0  0  0  0  0
   50.3878    2.3823   16.3711 H   0  0  0  0  0  0  0  0  0  0  0  0
   49.5008    2.3203   17.9070 H   0  0  0  0  0  0  0  0  0  0  0  0
   50.7543    5.7104   19.1067 H   0  0  0  0  0  0  0  0  0  0  0  0
   51.4291    4.1286   19.4976 H   0  0  0  0  0  0  0  0  0  0  0  0
   49.6763    4.3685   19.5408 H   0  0  0  0  0  0  0  0  0  0  0  0
   49.6684    4.9396   15.7892 H   0  0  0  0  0  0  0  0  0  0  0  0
   48.3723    7.9837   15.1359 H   0  0  0  0  0  0  0  0  0  0  0  0
   51.7672    4.8861   17.2831 H   0  0  0  0  0  0  0  0  0  0  0  0
   47.5453    5.6105   16.7217 H   0  0  0  0  0  0  0  0  0  0  0  0
   48.9199    1.7970   18.1464 H   0  0  0  0  0  0  0  0  0  0  0  0
   50.1715    8.2348   13.4845 H   0  0  0  0  0  0  0  0  0  0  0  0
   49.5378    7.5239   17.1866 H   0  0  0  0  0  0  0  0  0  0  0  0
   48.3649    7.0699   14.9783 H   0  0  0  0  0  0  0  0  0  0  0  0
   49.8333    6.3249   14.3676 H   0  0  0  0  0  0  0  0  0  0  0  0
   46.7634    2.3232   17.6194 H   0  0  0  0  0  0  0  0  0  0  0  0
   52.2541    2.8985   18.1795 H   0  0  0  0  0  0  0  0  0  0  0  0
   51.4800    7.8980   15.8826 H   0  0  0  0  0  0  0  0  0  0  0  0
   48.0732    9.2020   14.0932 H   0  0  0  0  0  0  0  0  0  0  0  0
   49.6950   10.3967   12.6904 H   0  0  0  0  0  0  0  0  0  0  0  0
   48.8942   11.5337   13.7803 H   0  0  0  0  0  0  0  0  0  0  0  0
   50.5528   11.0063   14.1231 H   0  0  0  0  0  0  0  0  0  0  0  0
   49.6690   10.2042   16.5203 H   0  0  0  0  0  0  0  0  0  0  0  0
   48.1082   10.8533   15.9936 H   0  0  0  0  0  0  0  0  0  0  0  0
   48.2109    9.1904   16.5614 H   0  0  0  0  0  0  0  0  0  0  0  0
  2  1  2  0
  3  1  1  0
  4  2  1  0
  5  3  2  0
  6  4  2  0
  7  9  1  0
  8  1  1  0
  9  8  1  0
 10  5  1  0
 11  4  1  0
 12  8  1  0
 13  7  1  0
 14 13  1  0
 15 13  1  0
  6  5  1  0
 17 16  2  0
 18 16  2  0
 19 16  1  0
 20 16  1  0
 22 21  2  0
 23 21  1  0
 24 22  1  0
 25 23  2  0
 26 24  2  0
 27 29  1  0
 28 21  1  0
 29 28  1  0
 30 25  1  0
 31 24  1  0
 32 28  1  0
 33 27  1  0
 34 33  1  0
 35 33  1  0
 26 25  1  0
  2 36  1  0
  3 37  1  0
  6 38  1  0
  7 39  1  0
  8 40  1  1
  9 41  1  0
  9 42  1  0
 10 43  1  0
 11 44  1  0
 12 45  1  0
 13 46  1  0
 14 47  1  0
 14 48  1  0
 14 49  1  0
 15 50  1  0
 15 51  1  0
 15 52  1  0
 19 53  1  0
 20 54  1  0
 22 55  1  0
 23 56  1  0
 26 57  1  0
 27 58  1  0
 28 59  1  1
 29 60  1  0
 29 61  1  0
 30 62  1  0
 31 63  1  0
 32 64  1  0
 33 65  1  0
 34 66  1  0
 34 67  1  0
 34 68  1  0
 35 69  1  0
 35 70  1  0
 35 71  1  0
M  END
> <Uni-Dock RESULT> 
ENERGY=   -4.371  LOWER_BOUND=    3.675  UPPER_BOUND=    5.705
INTER + INTRA:          -4.371
INTER:                  -4.371
INTRA:                   0.000
UNBOUND:                 0.000

$$$$

     RDKit          3D

 71 70  0  0  0  0  0  0  0  0999 V2000
   48.5279    9.4097   18.7207 C   0  0  0  0  0  0  0  0  0  0  0  0
   47.4955   10.3430   18.9371 C   0  0  0  0  0  0  0  0  0  0  0  0
   49.7232    9.8650   18.1327 C   0  0  0  0  0  0  0  0  0  0  0  0
   47.6494   11.6723   18.5491 C   0  0  0  0  0  0  0  0  0  0  0  0
   49.8536   11.2007   17.7479 C   0  0  0  0  0  0  0  0  0  0  0  0
   48.8214   12.1071   17.9476 C   0  0  0  0  0  0  0  0  0  0  0  0
   48.3495    5.5759   18.4845 N   0  0  0  0  0  0  0  0  0  0  0  0
   48.3838    7.9634   19.1564 C   0  0  2  0  0  0  0  0  0  0  0  0
   48.7194    6.9361   18.0394 C   0  0  0  0  0  0  0  0  0  0  0  0
   50.9974   11.6616   17.1625 O   0  0  0  0  0  0  0  0  0  0  0  0
   46.6567   12.5874   18.7522 O   0  0  0  0  0  0  0  0  0  0  0  0
   47.0470    7.6940   19.6086 O   0  0  0  0  0  0  0  0  0  0  0  0
   48.4900    4.5749   17.4181 C   0  0  0  0  0  0  0  0  0  0  0  0
   47.7083    3.3315   17.8452 C   0  0  0  0  0  0  0  0  0  0  0  0
   49.9510    4.2070   17.1565 C   0  0  0  0  0  0  0  0  0  0  0  0
   48.9041    7.5960   17.7084 S   0  0  0  0  0  0  0  0  0  0  0  0
   48.5605    7.1972   16.3673 O   0  0  0  0  0  0  0  0  0  0  0  0
   50.2545    7.8105   18.1615 O   0  0  0  0  0  0  0  0  0  0  0  0
   48.2087    6.5320   18.6865 O   0  0  0  0  0  0  0  0  0  0  0  0
   48.0836    8.9275   18.0675 O   0  0  0  0  0  0  0  0  0  0  0  0
   48.6431    6.0270   17.9970 C   0  0  0  0  0  0  0  0  0  0  0  0
   48.4196    4.9288   17.1494 C   0  0  0  0  0  0  0  0  0  0  0  0
   48.7025    5.7977   19.3839 C   0  0  0  0  0  0  0  0  0  0  0  0
   48.2527    3.6508   17.6838 C   0  0  0  0  0  0  0  0  0  0  0  0
   48.5129    4.5176   19.8969 C   0  0  0  0  0  0  0  0  0  0  0  0
   48.2885    3.4347   19.0550 C   0  0  0  0  0  0  0  0  0  0  0  0
   47.8381    9.7284   17.2675 N   0  0  0  0  0  0  0  0  0  0  0  0
   48.8482    7.4283   17.4539 C   0  0  2  0  0  0  0  0  0  0  0  0
   47.8118    8.4431   18.0094 C   0  0  0  0  0  0  0  0  0  0  0  0
   48.5659    4.3662   21.2519 O   0  0  0  0  0  0  0  0  0  0  0  0
   48.0604    2.5660   16.8742 O   0  0  0  0  0  0  0  0  0  0  0  0
   48.7654    7.4508   16.0211 O   0  0  0  0  0  0  0  0  0  0  0  0
   48.5731   10.7929   17.9732 C   0  0  0  0  0  0  0  0  0  0  0  0
   48.3154   12.1125   17.2397 C   0  0  0  0  0  0  0  0  0  0  0  0
   50.0748   10.5350   18.0540 C   0  0  0  0  0  0  0  0  0  0  0  0
   46.5703   10.0208   19.4115 H   0  0  0  0  0  0  0  0  0  0  0  0
   50.5523    9.1794   17.9838 H   0  0  0  0  0  0  0  0  0  0  0  0
   48.9300   13.1446   17.6476 H   0  0  0  0  0  0  0  0  0  0  0  0
   48.9278    5.3084   19.2841 H   0  0  0  0  0  0  0  0  0  0  0  0
   49.0412    7.8013   20.0211 H   0  0  0  0  0  0  0  0  0  0  0  0
   49.7848    6.9835   17.7857 H   0  0  0  0  0  0  0  0  0  0  0  0
   48.1384    7.1873   17.1425 H   0  0  0  0  0  0  0  0  0  0  0  0
   51.6306   10.9284   17.0820 H   0  0  0  0  0  0  0  0  0  0  0  0
   45.9166   12.1402   19.1950 H   0  0  0  0  0  0  0  0  0  0  0  0
   46.9404    6.7305   19.4752 H   0  0  0  0  0  0  0  0  0  0  0  0
   48.0395    4.9492   16.4900 H   0  0  0  0  0  0  0  0  0  0  0  0
   47.7619    2.5573   17.0729 H   0  0  0  0  0  0  0  0  0  0  0  0
   46.6485    3.5689   18.0012 H   0  0  0  0  0  0  0  0  0  0  0  0
   48.1007    2.9068   18.7773 H   0  0  0  0  0  0  0  0  0  0  0  0
   50.5148    5.0605   16.7679 H   0  0  0  0  0  0  0  0  0  0  0  0
   50.0189    3.4057   16.4129 H   0  0  0  0  0  0  0  0  0  0  0  0
   50.4446    3.8563   18.0704 H   0  0  0  0  0  0  0  0  0  0  0  0
   47.4352    6.1639   18.2093 H   0  0  0  0  0  0  0  0  0  0  0  0
   48.4756    9.3002   18.8835 H   0  0  0  0  0  0  0  0  0  0  0  0
   48.3823    5.0785   16.0729 H   0  0  0  0  0  0  0  0  0  0  0  0
   48.8947    6.6121   20.0791 H   0  0  0  0  0  0  0  0  0  0  0  0
   48.1599    2.4276   19.4372 H   0  0  0  0  0  0  0  0  0  0  0  0
   46.8657   10.0434   17.1857 H   0  0  0  0  0  0  0  0  0  0  0  0
   49.8688    7.7361   17.7054 H   0  0  0  0  0  0  0  0  0  0  0  0
   47.9173    8.5896   19.0916 H   0  0  0  0  0  0  0  0  0  0  0  0
   46.8080    8.0208   17.8546 H   0  0  0  0  0  0  0  0  0  0  0  0
   48.2840    3.4618   21.4669 H   0  0  0  0  0  0  0  0  0  0  0  0
   48.1700    2.8578   15.9520 H   0  0  0  0  0  0  0  0  0  0  0  0
   48.5962    8.3959   15.8191 H   0  0  0  0  0  0  0  0  0  0  0  0
   48.1754   10.8999   18.9912 H   0  0  0  0  0  0  0  0  0  0  0  0
   47.2461   12.3634   17.2533 H   0  0  0  0  0  0  0  0  0  0  0  0
   48.8491   12.9376   17.7252 H   0  0  0  0  0  0  0  0  0  0  0  0
   48.6424   12.0667   16.1938 H   0  0  0  0  0  0  0  0  0  0  0  0
   50.5041   10.3495   17.0634 H   0  0  0  0  0  0  0  0  0  0  0  0
   50.5910   11.3995   18.4864 H   0  0  0  0  0  0  0  0  0  0  0  0
   50.3025    9.6757   18.6946 H   0  0  0  0  0  0  0  0  0  0  0  0
  2  1  2  0
  3  1  1  0
  4  2  1  0
  5  3  2  0
  6  4  2  0
  7  9  1  0
  8  1  1  0
  9  8  1  0
 10  5  1  0
 11  4  1  0
 12  8  1  0
 13  7  1  0
 14 13  1  0
 15 13  1  0
  6  5  1  0
 17 16  2  0
 18 16  2  0
 19 16  1  0
 20 16  1  0
 22 21  2  0
 23 21  1  0
 24 22  1  0
 25 23  2  0
 26 24  2  0
 27 29  1  0
 28 21  1  0
 29 28  1  0
 30 25  1  0
 31 24  1  0
 32 28  1  0
 33 27  1  0
 34 33  1  0
 35 33  1  0
 26 25  1  0
  2 36  1  0
  3 37  1  0
  6 38  1  0
  7 39  1  0
  8 40  1  1
  9 41  1  0
  9 42  1  0
 10 43  1  0
 11 44  1  0
 12 45  1  0
 13 46  1  0
 14 47  1  0
 14 48  1  0
 14 49  1  0
 15 50  1  0
 15 51  1  0
 15 52  1  0
 19 53  1  0
 20 54  1  0
 22 55  1  0
 23 56  1  0
 26 57  1  0
 27 58  1  0
 28 59  1  1
 29 60  1  0
 29 61  1  0
 30 62  1  0
 31 63  1  0
 32 64  1  0
 33 65  1  0
 34 66  1  0
 34 67  1  0
 34 68  1  0
 35 69  1  0
 35 70  1  0
 35 71  1  0
M  END
> <Uni-Dock RESULT> 
ENERGY=   -4.130  LOWER_BOUND=    5.158  UPPER_BOUND=    6.357
INTER + INTRA:          -4.130
INTER:                  -4.130
INTRA:                   0.000
UNBOUND:                 0.000

$$$$
