
     RDKit          3D

 71 70  0  0  0  0  0  0  0  0999 V2000
   46.0067    3.0639    8.3048 C   0  0  0  0  0  0  0  0  0  0  0  0
   46.8860    3.5555    7.3183 C   0  0  0  0  0  0  0  0  0  0  0  0
   45.9528    1.6747    8.5102 C   0  0  0  0  0  0  0  0  0  0  0  0
   47.6612    2.6831    6.5586 C   0  0  0  0  0  0  0  0  0  0  0  0
   46.7411    0.8177    7.7387 C   0  0  0  0  0  0  0  0  0  0  0  0
   47.5942    1.3141    6.7625 C   0  0  0  0  0  0  0  0  0  0  0  0
   43.1911    4.5346   10.5565 N   0  0  0  0  0  0  0  0  0  0  0  0
   45.1971    4.0603    9.1153 C   0  0  2  0  0  0  0  0  0  0  0  0
   44.0681    3.4836   10.0134 C   0  0  0  0  0  0  0  0  0  0  0  0
   46.7027   -0.5356    7.9183 O   0  0  0  0  0  0  0  0  0  0  0  0
   48.5122    3.1464    5.5977 O   0  0  0  0  0  0  0  0  0  0  0  0
   44.6044    5.0044    8.2046 O   0  0  0  0  0  0  0  0  0  0  0  0
   43.3727    4.7984   11.9878 C   0  0  0  0  0  0  0  0  0  0  0  0
   42.3224    5.8295   12.4072 C   0  0  0  0  0  0  0  0  0  0  0  0
   44.7673    5.3129   12.3442 C   0  0  0  0  0  0  0  0  0  0  0  0
   45.4381    3.8839    9.5840 S   0  0  0  0  0  0  0  0  0  0  0  0
   46.3793    4.3534    8.5968 O   0  0  0  0  0  0  0  0  0  0  0  0
   45.8036    3.6054   10.9513 O   0  0  0  0  0  0  0  0  0  0  0  0
   44.7910    2.5434    8.9823 O   0  0  0  0  0  0  0  0  0  0  0  0
   44.1666    4.8652    9.6142 O   0  0  0  0  0  0  0  0  0  0  0  0
   45.3162    2.4562    8.0881 C   0  0  0  0  0  0  0  0  0  0  0  0
   45.6776    3.3181    7.0339 C   0  0  0  0  0  0  0  0  0  0  0  0
   45.9233    1.1886    8.1531 C   0  0  0  0  0  0  0  0  0  0  0  0
   46.6285    2.9213    6.0951 C   0  0  0  0  0  0  0  0  0  0  0  0
   46.8626    0.8066    7.1960 C   0  0  0  0  0  0  0  0  0  0  0  0
   47.2218    1.6678    6.1659 C   0  0  0  0  0  0  0  0  0  0  0  0
   43.7558    4.4157   11.0039 N   0  0  0  0  0  0  0  0  0  0  0  0
   44.2658    2.8868    9.0960 C   0  0  2  0  0  0  0  0  0  0  0  0
   44.6417    4.1958    9.8409 C   0  0  0  0  0  0  0  0  0  0  0  0
   47.4583   -0.4215    7.2423 O   0  0  0  0  0  0  0  0  0  0  0  0
   47.0047    3.7495    5.0755 O   0  0  0  0  0  0  0  0  0  0  0  0
   44.0275    1.8572   10.0677 O   0  0  0  0  0  0  0  0  0  0  0  0
   43.7303    5.8197   11.4402 C   0  0  0  0  0  0  0  0  0  0  0  0
   42.6629    5.9497   12.5306 C   0  0  0  0  0  0  0  0  0  0  0  0
   45.0808    6.3079   11.9702 C   0  0  0  0  0  0  0  0  0  0  0  0
   46.9512    4.6297    7.1545 H   0  0  0  0  0  0  0  0  0  0  0  0
   45.3002    1.2519    9.2680 H   0  0  0  0  0  0  0  0  0  0  0  0
   48.2044    0.6396    6.1693 H   0  0  0  0  0  0  0  0  0  0  0  0
   43.3433    5.3932   10.0179 H   0  0  0  0  0  0  0  0  0  0  0  0
   45.8999    4.6247    9.7403 H   0  0  0  0  0  0  0  0  0  0  0  0
   43.4180    2.8514    9.3931 H   0  0  0  0  0  0  0  0  0  0  0  0
   44.4771    2.8382   10.8011 H   0  0  0  0  0  0  0  0  0  0  0  0
   46.1099   -0.7427    8.6576 H   0  0  0  0  0  0  0  0  0  0  0  0
   48.4184    4.1118    5.5376 H   0  0  0  0  0  0  0  0  0  0  0  0
   43.9054    4.5197    7.7283 H   0  0  0  0  0  0  0  0  0  0  0  0
   43.1755    3.8780   12.5499 H   0  0  0  0  0  0  0  0  0  0  0  0
   42.3649    6.0053   13.4874 H   0  0  0  0  0  0  0  0  0  0  0  0
   42.4818    6.7883   11.9055 H   0  0  0  0  0  0  0  0  0  0  0  0
   41.3108    5.4855   12.1672 H   0  0  0  0  0  0  0  0  0  0  0  0
   45.5324    4.5537   12.1617 H   0  0  0  0  0  0  0  0  0  0  0  0
   45.0278    6.2070   11.7699 H   0  0  0  0  0  0  0  0  0  0  0  0
   44.8185    5.5759   13.4070 H   0  0  0  0  0  0  0  0  0  0  0  0
   45.4664    2.1451    8.3905 H   0  0  0  0  0  0  0  0  0  0  0  0
   43.4942    4.4679   10.2040 H   0  0  0  0  0  0  0  0  0  0  0  0
   45.2012    4.2907    6.9415 H   0  0  0  0  0  0  0  0  0  0  0  0
   45.6454    0.5006    8.9503 H   0  0  0  0  0  0  0  0  0  0  0  0
   47.9572    1.3644    5.4282 H   0  0  0  0  0  0  0  0  0  0  0  0
   44.1110    3.8413   11.7755 H   0  0  0  0  0  0  0  0  0  0  0  0
   43.3165    3.0284    8.5596 H   0  0  0  0  0  0  0  0  0  0  0  0
   44.5728    5.0367    9.1375 H   0  0  0  0  0  0  0  0  0  0  0  0
   45.6796    4.1394   10.1969 H   0  0  0  0  0  0  0  0  0  0  0  0
   47.1333   -0.8886    8.0290 H   0  0  0  0  0  0  0  0  0  0  0  0
   46.6652    4.6425    5.2557 H   0  0  0  0  0  0  0  0  0  0  0  0
   43.3342    2.2390   10.6404 H   0  0  0  0  0  0  0  0  0  0  0  0
   43.4225    6.4534   10.5981 H   0  0  0  0  0  0  0  0  0  0  0  0
   42.9148    5.3474   13.4141 H   0  0  0  0  0  0  0  0  0  0  0  0
   41.6792    5.6236   12.1659 H   0  0  0  0  0  0  0  0  0  0  0  0
   42.5629    6.9919   12.8539 H   0  0  0  0  0  0  0  0  0  0  0  0
   45.4402    5.6856   12.7998 H   0  0  0  0  0  0  0  0  0  0  0  0
   44.9969    7.3381   12.3358 H   0  0  0  0  0  0  0  0  0  0  0  0
   45.8439    6.3065   11.1844 H   0  0  0  0  0  0  0  0  0  0  0  0
  2  1  2  0
  3  1  1  0
  4  2  1  0
  5  3  2  0
  6  4  2  0
  7  9  1  0
  8  1  1  0
  9  8  1  0
 10  5  1  0
 11  4  1  0
 12  8  1  0
 13  7  1  0
 14 13  1  0
 15 13  1  0
  6  5  1  0
 17 16  2  0
 18 16  2  0
 19 16  1  0
 20 16  1  0
 22 21  2  0
 23 21  1  0
 24 22  1  0
 25 23  2  0
 26 24  2  0
 27 29  1  0
 28 21  1  0
 29 28  1  0
 30 25  1  0
 31 24  1  0
 32 28  1  0
 33 27  1  0
 34 33  1  0
 35 33  1  0
 26 25  1  0
  2 36  1  0
  3 37  1  0
  6 38  1  0
  7 39  1  0
  8 40  1  1
  9 41  1  0
  9 42  1  0
 10 43  1  0
 11 44  1  0
 12 45  1  0
 13 46  1  0
 14 47  1  0
 14 48  1  0
 14 49  1  0
 15 50  1  0
 15 51  1  0
 15 52  1  0
 19 53  1  0
 20 54  1  0
 22 55  1  0
 23 56  1  0
 26 57  1  0
 27 58  1  0
 28 59  1  6
 29 60  1  0
 29 61  1  0
 30 62  1  0
 31 63  1  0
 32 64  1  0
 33 65  1  0
 34 66  1  0
 34 67  1  0
 34 68  1  0
 35 69  1  0
 35 70  1  0
 35 71  1  0
M  END
> <Uni-Dock RESULT> 
ENERGY=   -6.882  LOWER_BOUND=    0.000  UPPER_BOUND=    0.000
INTER + INTRA:          -6.882
INTER:                  -6.882
INTRA:                   0.000
UNBOUND:                 0.000

$$$$

     RDKit          3D

 71 70  0  0  0  0  0  0  0  0999 V2000
   47.0183    7.6919   12.9115 C   0  0  0  0  0  0  0  0  0  0  0  0
   47.3017    8.8709   12.1921 C   0  0  0  0  0  0  0  0  0  0  0  0
   47.5027    7.5867   14.2265 C   0  0  0  0  0  0  0  0  0  0  0  0
   48.0577    9.8896   12.7662 C   0  0  0  0  0  0  0  0  0  0  0  0
   48.2569    8.6218   14.7841 C   0  0  0  0  0  0  0  0  0  0  0  0
   48.5387    9.7725   14.0605 C   0  0  0  0  0  0  0  0  0  0  0  0
   45.4645    4.2108   12.1188 N   0  0  0  0  0  0  0  0  0  0  0  0
   46.1757    6.6201   12.2433 C   0  0  2  0  0  0  0  0  0  0  0  0
   46.0894    5.2448   12.9609 C   0  0  0  0  0  0  0  0  0  0  0  0
   48.7408    8.5400   16.0585 O   0  0  0  0  0  0  0  0  0  0  0  0
   48.3428   11.0333   12.0783 O   0  0  0  0  0  0  0  0  0  0  0  0
   46.6953    6.4006   10.9190 O   0  0  0  0  0  0  0  0  0  0  0  0
   44.1069    3.8336   12.5262 C   0  0  0  0  0  0  0  0  0  0  0  0
   43.6520    2.6864   11.6211 C   0  0  0  0  0  0  0  0  0  0  0  0
   43.1009    4.9815   12.4437 C   0  0  0  0  0  0  0  0  0  0  0  0
   45.7889    6.6688   12.6395 S   0  0  0  0  0  0  0  0  0  0  0  0
   46.0618    7.9058   11.9491 O   0  0  0  0  0  0  0  0  0  0  0  0
   44.6685    6.4948   13.5310 O   0  0  0  0  0  0  0  0  0  0  0  0
   47.1171    6.3189   13.4707 O   0  0  0  0  0  0  0  0  0  0  0  0
   45.7521    5.4647   11.5767 O   0  0  0  0  0  0  0  0  0  0  0  0
   47.7106    7.1445   13.2491 C   0  0  0  0  0  0  0  0  0  0  0  0
   48.0582    7.8637   12.0886 C   0  0  0  0  0  0  0  0  0  0  0  0
   48.0280    7.7021   14.5012 C   0  0  0  0  0  0  0  0  0  0  0  0
   48.6837    9.1052   12.1911 C   0  0  0  0  0  0  0  0  0  0  0  0
   48.6657    8.9396   14.5809 C   0  0  0  0  0  0  0  0  0  0  0  0
   48.9946    9.6477   13.4310 C   0  0  0  0  0  0  0  0  0  0  0  0
   44.9578    4.5663   12.5063 N   0  0  0  0  0  0  0  0  0  0  0  0
   47.0471    5.7842   13.1303 C   0  0  2  0  0  0  0  0  0  0  0  0
   45.7088    5.8296   12.3449 C   0  0  0  0  0  0  0  0  0  0  0  0
   48.9843    9.4932   15.7880 O   0  0  0  0  0  0  0  0  0  0  0  0
   49.0132    9.8255   11.0778 O   0  0  0  0  0  0  0  0  0  0  0  0
   46.8016    5.2128   14.4242 O   0  0  0  0  0  0  0  0  0  0  0  0
   43.9672    4.3552   11.4403 C   0  0  0  0  0  0  0  0  0  0  0  0
   43.3791    2.9530   11.6214 C   0  0  0  0  0  0  0  0  0  0  0  0
   42.8458    5.3972   11.4484 C   0  0  0  0  0  0  0  0  0  0  0  0
   46.9231    8.9760   11.1768 H   0  0  0  0  0  0  0  0  0  0  0  0
   47.2978    6.7029   14.8230 H   0  0  0  0  0  0  0  0  0  0  0  0
   49.1243   10.5725   14.5037 H   0  0  0  0  0  0  0  0  0  0  0  0
   45.4621    4.5416   11.1487 H   0  0  0  0  0  0  0  0  0  0  0  0
   45.1638    7.0254   12.1211 H   0  0  0  0  0  0  0  0  0  0  0  0
   47.1103    4.8876   13.1538 H   0  0  0  0  0  0  0  0  0  0  0  0
   45.5974    5.3360   13.9375 H   0  0  0  0  0  0  0  0  0  0  0  0
   48.4321    7.7151   16.4649 H   0  0  0  0  0  0  0  0  0  0  0  0
   47.9834   10.9536   11.1790 H   0  0  0  0  0  0  0  0  0  0  0  0
   47.5474    5.9414   11.0346 H   0  0  0  0  0  0  0  0  0  0  0  0
   44.1337    3.4533   13.5541 H   0  0  0  0  0  0  0  0  0  0  0  0
   42.6706    2.3145   11.9342 H   0  0  0  0  0  0  0  0  0  0  0  0
   43.5712    3.0082   10.5789 H   0  0  0  0  0  0  0  0  0  0  0  0
   44.3533    1.8462   11.6630 H   0  0  0  0  0  0  0  0  0  0  0  0
   43.3349    5.7710   13.1628 H   0  0  0  0  0  0  0  0  0  0  0  0
   43.0745    5.4255   11.4440 H   0  0  0  0  0  0  0  0  0  0  0  0
   42.0909    4.6229   12.6731 H   0  0  0  0  0  0  0  0  0  0  0  0
   47.5530    7.1741   13.6793 H   0  0  0  0  0  0  0  0  0  0  0  0
   45.6802    4.6258   12.0755 H   0  0  0  0  0  0  0  0  0  0  0  0
   47.8532    7.4420   11.1079 H   0  0  0  0  0  0  0  0  0  0  0  0
   47.7833    7.1546   15.4103 H   0  0  0  0  0  0  0  0  0  0  0  0
   49.4863   10.6121   13.5022 H   0  0  0  0  0  0  0  0  0  0  0  0
   44.4650    4.6126   13.4042 H   0  0  0  0  0  0  0  0  0  0  0  0
   47.7484    5.1060   12.6232 H   0  0  0  0  0  0  0  0  0  0  0  0
   45.9257    6.0182   11.2848 H   0  0  0  0  0  0  0  0  0  0  0  0
   45.0863    6.6566   12.7132 H   0  0  0  0  0  0  0  0  0  0  0  0
   48.6635    8.9024   16.4886 H   0  0  0  0  0  0  0  0  0  0  0  0
   48.5739    9.4288   10.3065 H   0  0  0  0  0  0  0  0  0  0  0  0
   46.3950    4.3484   14.2193 H   0  0  0  0  0  0  0  0  0  0  0  0
   44.4745    4.3786   10.4669 H   0  0  0  0  0  0  0  0  0  0  0  0
   42.8427    2.8618   12.5757 H   0  0  0  0  0  0  0  0  0  0  0  0
   44.1649    2.1855   11.5983 H   0  0  0  0  0  0  0  0  0  0  0  0
   42.6719    2.7215   10.8170 H   0  0  0  0  0  0  0  0  0  0  0  0
   42.3258    5.4263   12.4146 H   0  0  0  0  0  0  0  0  0  0  0  0
   42.1039    5.1648   10.6754 H   0  0  0  0  0  0  0  0  0  0  0  0
   43.2295    6.4006   11.2349 H   0  0  0  0  0  0  0  0  0  0  0  0
  2  1  2  0
  3  1  1  0
  4  2  1  0
  5  3  2  0
  6  4  2  0
  7  9  1  0
  8  1  1  0
  9  8  1  0
 10  5  1  0
 11  4  1  0
 12  8  1  0
 13  7  1  0
 14 13  1  0
 15 13  1  0
  6  5  1  0
 17 16  2  0
 18 16  2  0
 19 16  1  0
 20 16  1  0
 22 21  2  0
 23 21  1  0
 24 22  1  0
 25 23  2  0
 26 24  2  0
 27 29  1  0
 28 21  1  0
 29 28  1  0
 30 25  1  0
 31 24  1  0
 32 28  1  0
 33 27  1  0
 34 33  1  0
 35 33  1  0
 26 25  1  0
  2 36  1  0
  3 37  1  0
  6 38  1  0
  7 39  1  0
  8 40  1  1
  9 41  1  0
  9 42  1  0
 10 43  1  0
 11 44  1  0
 12 45  1  0
 13 46  1  0
 14 47  1  0
 14 48  1  0
 14 49  1  0
 15 50  1  0
 15 51  1  0
 15 52  1  0
 19 53  1  0
 20 54  1  0
 22 55  1  0
 23 56  1  0
 26 57  1  0
 27 58  1  0
 28 59  1  6
 29 60  1  0
 29 61  1  0
 30 62  1  0
 31 63  1  0
 32 64  1  0
 33 65  1  0
 34 66  1  0
 34 67  1  0
 34 68  1  0
 35 69  1  0
 35 70  1  0
 35 71  1  0
M  END
> <Uni-Dock RESULT> 
ENERGY=   -6.165  LOWER_BOUND=    4.313  UPPER_BOUND=    7.166
INTER + INTRA:          -6.165
INTER:                  -6.165
INTRA:                   0.000
UNBOUND:                 0.000

$$$$

     RDKit          3D

 71 70  0  0  0  0  0  0  0  0999 V2000
   45.7682    5.9567   12.8829 C   0  0  0  0  0  0  0  0  0  0  0  0
   45.1402    4.7732   13.3221 C   0  0  0  0  0  0  0  0  0  0  0  0
   45.0158    6.8573   12.1097 C   0  0  0  0  0  0  0  0  0  0  0  0
   43.8185    4.5004   12.9790 C   0  0  0  0  0  0  0  0  0  0  0  0
   43.6905    6.5652   11.7793 C   0  0  0  0  0  0  0  0  0  0  0  0
   43.0877    5.3906   12.2083 C   0  0  0  0  0  0  0  0  0  0  0  0
   49.3856    7.3974   12.8889 N   0  0  0  0  0  0  0  0  0  0  0  0
   47.2057    6.2118   13.2998 C   0  0  2  0  0  0  0  0  0  0  0  0
   47.9407    7.3905   12.6039 C   0  0  0  0  0  0  0  0  0  0  0  0
   42.9413    7.4235   11.0263 O   0  0  0  0  0  0  0  0  0  0  0  0
   43.2013    3.3561   13.3938 O   0  0  0  0  0  0  0  0  0  0  0  0
   47.9627    5.0109   13.0614 O   0  0  0  0  0  0  0  0  0  0  0  0
   49.8192    8.4562   13.8066 C   0  0  0  0  0  0  0  0  0  0  0  0
   51.3446    8.3864   13.9090 C   0  0  0  0  0  0  0  0  0  0  0  0
   49.2060    8.3468   15.2025 C   0  0  0  0  0  0  0  0  0  0  0  0
   47.0528    6.6760   13.5644 S   0  0  0  0  0  0  0  0  0  0  0  0
   46.3654    5.4968   14.0313 O   0  0  0  0  0  0  0  0  0  0  0  0
   47.0006    7.9427   14.2524 O   0  0  0  0  0  0  0  0  0  0  0  0
   46.5391    6.9280   12.0644 O   0  0  0  0  0  0  0  0  0  0  0  0
   48.6006    6.3248   13.3159 O   0  0  0  0  0  0  0  0  0  0  0  0
   45.8443    6.1598   11.9632 C   0  0  0  0  0  0  0  0  0  0  0  0
   45.8060    4.7806   12.2478 C   0  0  0  0  0  0  0  0  0  0  0  0
   44.6387    6.8094   11.6405 C   0  0  0  0  0  0  0  0  0  0  0  0
   44.5949    4.0909   12.2257 C   0  0  0  0  0  0  0  0  0  0  0  0
   43.4400    6.0978   11.6114 C   0  0  0  0  0  0  0  0  0  0  0  0
   43.4098    4.7395   11.9048 C   0  0  0  0  0  0  0  0  0  0  0  0
   49.0229    7.7800   13.3943 N   0  0  0  0  0  0  0  0  0  0  0  0
   47.1691    6.9010   11.9699 C   0  0  2  0  0  0  0  0  0  0  0  0
   47.9044    6.8149   13.3344 C   0  0  0  0  0  0  0  0  0  0  0  0
   42.2617    6.7121   11.2963 O   0  0  0  0  0  0  0  0  0  0  0  0
   44.5349    2.7569   12.5155 O   0  0  0  0  0  0  0  0  0  0  0  0
   46.9905    8.2845   11.6305 O   0  0  0  0  0  0  0  0  0  0  0  0
   50.0251    7.4246   14.4100 C   0  0  0  0  0  0  0  0  0  0  0  0
   51.2018    8.3933   14.2629 C   0  0  0  0  0  0  0  0  0  0  0  0
   49.4776    7.4806   15.8383 C   0  0  0  0  0  0  0  0  0  0  0  0
   45.7032    4.0701   13.9335 H   0  0  0  0  0  0  0  0  0  0  0  0
   45.4537    7.7874   11.7607 H   0  0  0  0  0  0  0  0  0  0  0  0
   42.0560    5.1736   11.9478 H   0  0  0  0  0  0  0  0  0  0  0  0
   49.6459    6.4791   13.2624 H   0  0  0  0  0  0  0  0  0  0  0  0
   47.2098    6.3763   14.3842 H   0  0  0  0  0  0  0  0  0  0  0  0
   47.8576    7.2596   11.5162 H   0  0  0  0  0  0  0  0  0  0  0  0
   47.4673    8.3511   12.8431 H   0  0  0  0  0  0  0  0  0  0  0  0
   43.4618    8.2200   10.8375 H   0  0  0  0  0  0  0  0  0  0  0  0
   43.8444    2.8141   13.8805 H   0  0  0  0  0  0  0  0  0  0  0  0
   48.0467    4.9308   12.0935 H   0  0  0  0  0  0  0  0  0  0  0  0
   49.5608    9.4311   13.3768 H   0  0  0  0  0  0  0  0  0  0  0  0
   51.7274    9.2075   14.5246 H   0  0  0  0  0  0  0  0  0  0  0  0
   51.6715    7.4467   14.3634 H   0  0  0  0  0  0  0  0  0  0  0  0
   51.8124    8.4664   12.9221 H   0  0  0  0  0  0  0  0  0  0  0  0
   48.1247    8.5062   15.1781 H   0  0  0  0  0  0  0  0  0  0  0  0
   49.3980    7.3685   15.6533 H   0  0  0  0  0  0  0  0  0  0  0  0
   49.6308    9.1069   15.8682 H   0  0  0  0  0  0  0  0  0  0  0  0
   45.6288    6.5622   12.0127 H   0  0  0  0  0  0  0  0  0  0  0  0
   49.0210    7.1013   12.8939 H   0  0  0  0  0  0  0  0  0  0  0  0
   46.7269    4.2472   12.4694 H   0  0  0  0  0  0  0  0  0  0  0  0
   44.6488    7.8717   11.4006 H   0  0  0  0  0  0  0  0  0  0  0  0
   42.4719    4.1945   11.8846 H   0  0  0  0  0  0  0  0  0  0  0  0
   48.6281    8.6957   13.6328 H   0  0  0  0  0  0  0  0  0  0  0  0
   47.8042    6.4711   11.1821 H   0  0  0  0  0  0  0  0  0  0  0  0
   48.2704    5.7891   13.4762 H   0  0  0  0  0  0  0  0  0  0  0  0
   47.2049    7.0384   14.1516 H   0  0  0  0  0  0  0  0  0  0  0  0
   42.4389    7.6558   11.1521 H   0  0  0  0  0  0  0  0  0  0  0  0
   45.3833    2.4819   12.9026 H   0  0  0  0  0  0  0  0  0  0  0  0
   47.8985    8.6445   11.6519 H   0  0  0  0  0  0  0  0  0  0  0  0
   50.4011    6.4132   14.2070 H   0  0  0  0  0  0  0  0  0  0  0  0
   50.8979    9.4294   14.4657 H   0  0  0  0  0  0  0  0  0  0  0  0
   51.6248    8.3553   13.2496 H   0  0  0  0  0  0  0  0  0  0  0  0
   52.0054    8.1375   14.9626 H   0  0  0  0  0  0  0  0  0  0  0  0
   49.0667    8.4700   16.0770 H   0  0  0  0  0  0  0  0  0  0  0  0
   50.2739    7.2652   16.5605 H   0  0  0  0  0  0  0  0  0  0  0  0
   48.6905    6.7351   15.9954 H   0  0  0  0  0  0  0  0  0  0  0  0
  2  1  2  0
  3  1  1  0
  4  2  1  0
  5  3  2  0
  6  4  2  0
  7  9  1  0
  8  1  1  0
  9  8  1  0
 10  5  1  0
 11  4  1  0
 12  8  1  0
 13  7  1  0
 14 13  1  0
 15 13  1  0
  6  5  1  0
 17 16  2  0
 18 16  2  0
 19 16  1  0
 20 16  1  0
 22 21  2  0
 23 21  1  0
 24 22  1  0
 25 23  2  0
 26 24  2  0
 27 29  1  0
 28 21  1  0
 29 28  1  0
 30 25  1  0
 31 24  1  0
 32 28  1  0
 33 27  1  0
 34 33  1  0
 35 33  1  0
 26 25  1  0
  2 36  1  0
  3 37  1  0
  6 38  1  0
  7 39  1  0
  8 40  1  1
  9 41  1  0
  9 42  1  0
 10 43  1  0
 11 44  1  0
 12 45  1  0
 13 46  1  0
 14 47  1  0
 14 48  1  0
 14 49  1  0
 15 50  1  0
 15 51  1  0
 15 52  1  0
 19 53  1  0
 20 54  1  0
 22 55  1  0
 23 56  1  0
 26 57  1  0
 27 58  1  0
 28 59  1  6
 29 60  1  0
 29 61  1  0
 30 62  1  0
 31 63  1  0
 32 64  1  0
 33 65  1  0
 34 66  1  0
 34 67  1  0
 34 68  1  0
 35 69  1  0
 35 70  1  0
 35 71  1  0
M  END
> <Uni-Dock RESULT> 
ENERGY=   -6.122  LOWER_BOUND=    4.856  UPPER_BOUND=    6.991
INTER + INTRA:          -6.122
INTER:                  -6.122
INTRA:                   0.000
UNBOUND:                 0.000

$$$$

     RDKit          3D

 71 70  0  0  0  0  0  0  0  0999 V2000
   47.8002    7.4609   19.8683 C   0  0  0  0  0  0  0  0  0  0  0  0
   47.5255    8.7782   19.4473 C   0  0  0  0  0  0  0  0  0  0  0  0
   47.6337    7.1530   21.2293 C   0  0  0  0  0  0  0  0  0  0  0  0
   47.1209    9.7470   20.3620 C   0  0  0  0  0  0  0  0  0  0  0  0
   47.2242    8.1395   22.1295 C   0  0  0  0  0  0  0  0  0  0  0  0
   46.9684    9.4357   21.7037 C   0  0  0  0  0  0  0  0  0  0  0  0
   49.3610    4.2638   18.2861 N   0  0  0  0  0  0  0  0  0  0  0  0
   48.2222    6.4403   18.8264 C   0  0  2  0  0  0  0  0  0  0  0  0
   48.7507    5.0770   19.3515 C   0  0  0  0  0  0  0  0  0  0  0  0
   47.0592    7.8642   23.4569 O   0  0  0  0  0  0  0  0  0  0  0  0
   46.8568   11.0265   19.9675 O   0  0  0  0  0  0  0  0  0  0  0  0
   49.2483    7.0314   18.0080 O   0  0  0  0  0  0  0  0  0  0  0  0
   48.5584    3.1101   17.8665 C   0  0  0  0  0  0  0  0  0  0  0  0
   49.3771    2.3228   16.8409 C   0  0  0  0  0  0  0  0  0  0  0  0
   47.2075    3.4909   17.2609 C   0  0  0  0  0  0  0  0  0  0  0  0
   47.7769    6.1287   18.9427 S   0  0  0  0  0  0  0  0  0  0  0  0
   47.4462    7.4742   18.5411 O   0  0  0  0  0  0  0  0  0  0  0  0
   46.7957    5.0781   19.0610 O   0  0  0  0  0  0  0  0  0  0  0  0
   48.5124    6.2549   20.3642 O   0  0  0  0  0  0  0  0  0  0  0  0
   48.9673    5.5757   18.0164 O   0  0  0  0  0  0  0  0  0  0  0  0
   48.4576    7.2819   20.5231 C   0  0  0  0  0  0  0  0  0  0  0  0
   48.7025    8.4421   19.7625 C   0  0  0  0  0  0  0  0  0  0  0  0
   47.7842    7.4174   21.7510 C   0  0  0  0  0  0  0  0  0  0  0  0
   48.2667    9.6860   20.2162 C   0  0  0  0  0  0  0  0  0  0  0  0
   47.3684    8.6730   22.1924 C   0  0  0  0  0  0  0  0  0  0  0  0
   47.6040    9.8110   21.4300 C   0  0  0  0  0  0  0  0  0  0  0  0
   48.6452    4.1275   18.3343 N   0  0  0  0  0  0  0  0  0  0  0  0
   48.9518    5.9329   20.0326 C   0  0  2  0  0  0  0  0  0  0  0  0
   48.3861    5.5509   18.6384 C   0  0  0  0  0  0  0  0  0  0  0  0
   46.7170    8.8226   23.3835 O   0  0  0  0  0  0  0  0  0  0  0  0
   48.4796   10.8204   19.4848 O   0  0  0  0  0  0  0  0  0  0  0  0
   48.6224    4.8908   20.9635 O   0  0  0  0  0  0  0  0  0  0  0  0
   48.5848    3.8349   16.8945 C   0  0  0  0  0  0  0  0  0  0  0  0
   49.0300    2.3834   16.6946 C   0  0  0  0  0  0  0  0  0  0  0  0
   47.1899    4.0404   16.2985 C   0  0  0  0  0  0  0  0  0  0  0  0
   47.6358    9.0318   18.3944 H   0  0  0  0  0  0  0  0  0  0  0  0
   47.8207    6.1485   21.5967 H   0  0  0  0  0  0  0  0  0  0  0  0
   46.6486   10.1951   22.4111 H   0  0  0  0  0  0  0  0  0  0  0  0
   49.5503    4.8720   17.4833 H   0  0  0  0  0  0  0  0  0  0  0  0
   47.3605    6.2630   18.1713 H   0  0  0  0  0  0  0  0  0  0  0  0
   49.5580    5.2700   20.0713 H   0  0  0  0  0  0  0  0  0  0  0  0
   47.9691    4.5296   19.8935 H   0  0  0  0  0  0  0  0  0  0  0  0
   47.2205    6.9200   23.6095 H   0  0  0  0  0  0  0  0  0  0  0  0
   47.0499   11.1060   19.0185 H   0  0  0  0  0  0  0  0  0  0  0  0
   50.0443    7.0856   18.5682 H   0  0  0  0  0  0  0  0  0  0  0  0
   48.3925    2.4556   18.7302 H   0  0  0  0  0  0  0  0  0  0  0  0
   48.8528    1.4058   16.5513 H   0  0  0  0  0  0  0  0  0  0  0  0
   49.5516    2.9093   15.9344 H   0  0  0  0  0  0  0  0  0  0  0  0
   50.3509    2.0324   17.2494 H   0  0  0  0  0  0  0  0  0  0  0  0
   46.5531    3.9558   18.0030 H   0  0  0  0  0  0  0  0  0  0  0  0
   47.3211    4.1842   16.4220 H   0  0  0  0  0  0  0  0  0  0  0  0
   46.6910    2.5998   16.8860 H   0  0  0  0  0  0  0  0  0  0  0  0
   48.1582    7.0639   20.7944 H   0  0  0  0  0  0  0  0  0  0  0  0
   49.2519    4.7115   18.3769 H   0  0  0  0  0  0  0  0  0  0  0  0
   49.2483    8.3705   18.8252 H   0  0  0  0  0  0  0  0  0  0  0  0
   47.5999    6.5352   22.3624 H   0  0  0  0  0  0  0  0  0  0  0  0
   47.2727   10.7835   21.7788 H   0  0  0  0  0  0  0  0  0  0  0  0
   47.9246    3.5741   18.8095 H   0  0  0  0  0  0  0  0  0  0  0  0
   50.0498    5.9681   19.9870 H   0  0  0  0  0  0  0  0  0  0  0  0
   48.8454    6.1987   17.8794 H   0  0  0  0  0  0  0  0  0  0  0  0
   47.3011    5.7222   18.6146 H   0  0  0  0  0  0  0  0  0  0  0  0
   46.5981    7.9436   23.7785 H   0  0  0  0  0  0  0  0  0  0  0  0
   48.7713   10.5677   18.5925 H   0  0  0  0  0  0  0  0  0  0  0  0
   49.0000    4.0889   20.5524 H   0  0  0  0  0  0  0  0  0  0  0  0
   49.3014    4.4770   16.3657 H   0  0  0  0  0  0  0  0  0  0  0  0
   48.3461    1.6809   17.1903 H   0  0  0  0  0  0  0  0  0  0  0  0
   50.0387    2.2171   17.0971 H   0  0  0  0  0  0  0  0  0  0  0  0
   49.0568    2.1285   15.6293 H   0  0  0  0  0  0  0  0  0  0  0  0
   46.4345    3.4345   16.8151 H   0  0  0  0  0  0  0  0  0  0  0  0
   47.1818    3.7550   15.2399 H   0  0  0  0  0  0  0  0  0  0  0  0
   46.8823    5.0903   16.3511 H   0  0  0  0  0  0  0  0  0  0  0  0
  2  1  2  0
  3  1  1  0
  4  2  1  0
  5  3  2  0
  6  4  2  0
  7  9  1  0
  8  1  1  0
  9  8  1  0
 10  5  1  0
 11  4  1  0
 12  8  1  0
 13  7  1  0
 14 13  1  0
 15 13  1  0
  6  5  1  0
 17 16  2  0
 18 16  2  0
 19 16  1  0
 20 16  1  0
 22 21  2  0
 23 21  1  0
 24 22  1  0
 25 23  2  0
 26 24  2  0
 27 29  1  0
 28 21  1  0
 29 28  1  0
 30 25  1  0
 31 24  1  0
 32 28  1  0
 33 27  1  0
 34 33  1  0
 35 33  1  0
 26 25  1  0
  2 36  1  0
  3 37  1  0
  6 38  1  0
  7 39  1  0
  8 40  1  1
  9 41  1  0
  9 42  1  0
 10 43  1  0
 11 44  1  0
 12 45  1  0
 13 46  1  0
 14 47  1  0
 14 48  1  0
 14 49  1  0
 15 50  1  0
 15 51  1  0
 15 52  1  0
 19 53  1  0
 20 54  1  0
 22 55  1  0
 23 56  1  0
 26 57  1  0
 27 58  1  0
 28 59  1  6
 29 60  1  0
 29 61  1  0
 30 62  1  0
 31 63  1  0
 32 64  1  0
 33 65  1  0
 34 66  1  0
 34 67  1  0
 34 68  1  0
 35 69  1  0
 35 70  1  0
 35 71  1  0
M  END
> <Uni-Dock RESULT> 
ENERGY=   -5.877  LOWER_BOUND=    9.233  UPPER_BOUND=   12.793
INTER + INTRA:          -5.877
INTER:                  -5.877
INTRA:                   0.000
UNBOUND:                 0.000

$$$$

     RDKit          3D

 71 70  0  0  0  0  0  0  0  0999 V2000
   46.7771    7.5586   12.0615 C   0  0  0  0  0  0  0  0  0  0  0  0
   48.1645    7.7823   11.9461 C   0  0  0  0  0  0  0  0  0  0  0  0
   45.9329    8.6775   12.1637 C   0  0  0  0  0  0  0  0  0  0  0  0
   48.6790    9.0761   11.9545 C   0  0  0  0  0  0  0  0  0  0  0  0
   46.4699    9.9669   12.1674 C   0  0  0  0  0  0  0  0  0  0  0  0
   47.8390   10.1727   12.0650 C   0  0  0  0  0  0  0  0  0  0  0  0
   44.4523    4.4794   12.5852 N   0  0  0  0  0  0  0  0  0  0  0  0
   46.2686    6.1284   12.0302 C   0  0  2  0  0  0  0  0  0  0  0  0
   44.7772    5.9043   12.4035 C   0  0  0  0  0  0  0  0  0  0  0  0
   45.6693   11.0686   12.2693 O   0  0  0  0  0  0  0  0  0  0  0  0
   50.0202    9.3051   11.8485 O   0  0  0  0  0  0  0  0  0  0  0  0
   47.0759    5.3446   12.9279 O   0  0  0  0  0  0  0  0  0  0  0  0
   43.6473    3.8971   11.5062 C   0  0  0  0  0  0  0  0  0  0  0  0
   43.3137    2.4565   11.9009 C   0  0  0  0  0  0  0  0  0  0  0  0
   44.3453    3.9076   10.1464 C   0  0  0  0  0  0  0  0  0  0  0  0
   45.9699    6.2382   11.5745 S   0  0  0  0  0  0  0  0  0  0  0  0
   47.3785    6.5061   11.4155 O   0  0  0  0  0  0  0  0  0  0  0  0
   45.0422    6.2183   10.4703 O   0  0  0  0  0  0  0  0  0  0  0  0
   45.4269    7.3167   12.6325 O   0  0  0  0  0  0  0  0  0  0  0  0
   45.7790    4.8678   12.3907 O   0  0  0  0  0  0  0  0  0  0  0  0
   46.2901    7.8708   12.8087 C   0  0  0  0  0  0  0  0  0  0  0  0
   47.6426    7.5855   13.0804 C   0  0  0  0  0  0  0  0  0  0  0  0
   45.9390    9.1927   12.4787 C   0  0  0  0  0  0  0  0  0  0  0  0
   48.6036    8.5923   13.0024 C   0  0  0  0  0  0  0  0  0  0  0  0
   46.9143   10.1875   12.4190 C   0  0  0  0  0  0  0  0  0  0  0  0
   48.2482    9.8947   12.6774 C   0  0  0  0  0  0  0  0  0  0  0  0
   44.3603    4.6763   11.8880 N   0  0  0  0  0  0  0  0  0  0  0  0
   45.2457    6.7741   12.9142 C   0  0  2  0  0  0  0  0  0  0  0  0
   45.5342    5.5707   11.9770 C   0  0  0  0  0  0  0  0  0  0  0  0
   46.5899   11.4762   12.1041 O   0  0  0  0  0  0  0  0  0  0  0  0
   49.9227    8.3318   13.2457 O   0  0  0  0  0  0  0  0  0  0  0  0
   43.9334    7.2787   12.6237 O   0  0  0  0  0  0  0  0  0  0  0  0
   44.7124    3.3211   11.4389 C   0  0  0  0  0  0  0  0  0  0  0  0
   43.4555    2.4529   11.5466 C   0  0  0  0  0  0  0  0  0  0  0  0
   45.2514    3.2848   10.0067 C   0  0  0  0  0  0  0  0  0  0  0  0
   48.8328    6.9280   11.8522 H   0  0  0  0  0  0  0  0  0  0  0  0
   44.8569    8.5540   12.2411 H   0  0  0  0  0  0  0  0  0  0  0  0
   48.2466   11.1792   12.0668 H   0  0  0  0  0  0  0  0  0  0  0  0
   45.3287    3.9587   12.6912 H   0  0  0  0  0  0  0  0  0  0  0  0
   46.4490    5.7368   11.0216 H   0  0  0  0  0  0  0  0  0  0  0  0
   44.5875    6.3744   13.3783 H   0  0  0  0  0  0  0  0  0  0  0  0
   44.1091    6.3923   11.6827 H   0  0  0  0  0  0  0  0  0  0  0  0
   44.7408   10.7882   12.2831 H   0  0  0  0  0  0  0  0  0  0  0  0
   50.4814    8.4501   11.8254 H   0  0  0  0  0  0  0  0  0  0  0  0
   46.8296    5.6244   13.8287 H   0  0  0  0  0  0  0  0  0  0  0  0
   42.7016    4.4461   11.4282 H   0  0  0  0  0  0  0  0  0  0  0  0
   42.6471    1.9991   11.1620 H   0  0  0  0  0  0  0  0  0  0  0  0
   44.2157    1.8411   11.9644 H   0  0  0  0  0  0  0  0  0  0  0  0
   42.8082    2.4182   12.8716 H   0  0  0  0  0  0  0  0  0  0  0  0
   44.4965    4.9273    9.7822 H   0  0  0  0  0  0  0  0  0  0  0  0
   45.3192    3.4106   10.1875 H   0  0  0  0  0  0  0  0  0  0  0  0
   43.7377    3.3834    9.3998 H   0  0  0  0  0  0  0  0  0  0  0  0
   45.9995    8.1102   12.5458 H   0  0  0  0  0  0  0  0  0  0  0  0
   44.8256    4.7645   12.5857 H   0  0  0  0  0  0  0  0  0  0  0  0
   47.9371    6.5796   13.3686 H   0  0  0  0  0  0  0  0  0  0  0  0
   44.8963    9.4380   12.2816 H   0  0  0  0  0  0  0  0  0  0  0  0
   49.0013   10.6738   12.6239 H   0  0  0  0  0  0  0  0  0  0  0  0
   43.7108    5.0860   11.2086 H   0  0  0  0  0  0  0  0  0  0  0  0
   45.2179    6.4292   13.9578 H   0  0  0  0  0  0  0  0  0  0  0  0
   46.4081    5.0255   12.3583 H   0  0  0  0  0  0  0  0  0  0  0  0
   45.7768    5.9315   10.9680 H   0  0  0  0  0  0  0  0  0  0  0  0
   45.6375   11.5145   11.9194 H   0  0  0  0  0  0  0  0  0  0  0  0
   50.0529    7.3686   13.2681 H   0  0  0  0  0  0  0  0  0  0  0  0
   43.3574    6.4980   12.7385 H   0  0  0  0  0  0  0  0  0  0  0  0
   45.4650    2.9003   12.1186 H   0  0  0  0  0  0  0  0  0  0  0  0
   42.6602    2.8118   10.8792 H   0  0  0  0  0  0  0  0  0  0  0  0
   43.0620    2.4475   12.5724 H   0  0  0  0  0  0  0  0  0  0  0  0
   43.6764    1.4145   11.2754 H   0  0  0  0  0  0  0  0  0  0  0  0
   44.5394    3.7203    9.2939 H   0  0  0  0  0  0  0  0  0  0  0  0
   45.4443    2.2505    9.6981 H   0  0  0  0  0  0  0  0  0  0  0  0
   46.1986    3.8281    9.9210 H   0  0  0  0  0  0  0  0  0  0  0  0
  2  1  2  0
  3  1  1  0
  4  2  1  0
  5  3  2  0
  6  4  2  0
  7  9  1  0
  8  1  1  0
  9  8  1  0
 10  5  1  0
 11  4  1  0
 12  8  1  0
 13  7  1  0
 14 13  1  0
 15 13  1  0
  6  5  1  0
 17 16  2  0
 18 16  2  0
 19 16  1  0
 20 16  1  0
 22 21  2  0
 23 21  1  0
 24 22  1  0
 25 23  2  0
 26 24  2  0
 27 29  1  0
 28 21  1  0
 29 28  1  0
 30 25  1  0
 31 24  1  0
 32 28  1  0
 33 27  1  0
 34 33  1  0
 35 33  1  0
 26 25  1  0
  2 36  1  0
  3 37  1  0
  6 38  1  0
  7 39  1  0
  8 40  1  1
  9 41  1  0
  9 42  1  0
 10 43  1  0
 11 44  1  0
 12 45  1  0
 13 46  1  0
 14 47  1  0
 14 48  1  0
 14 49  1  0
 15 50  1  0
 15 51  1  0
 15 52  1  0
 19 53  1  0
 20 54  1  0
 22 55  1  0
 23 56  1  0
 26 57  1  0
 27 58  1  0
 28 59  1  6
 29 60  1  0
 29 61  1  0
 30 62  1  0
 31 63  1  0
 32 64  1  0
 33 65  1  0
 34 66  1  0
 34 67  1  0
 34 68  1  0
 35 69  1  0
 35 70  1  0
 35 71  1  0
M  END
> <Uni-Dock RESULT> 
ENERGY=   -5.866  LOWER_BOUND=    3.592  UPPER_BOUND=    6.944
INTER + INTRA:          -5.866
INTER:                  -5.866
INTRA:                   0.000
UNBOUND:                 0.000

$$$$

     RDKit          3D

 71 70  0  0  0  0  0  0  0  0999 V2000
   45.7150    6.5675   12.3202 C   0  0  0  0  0  0  0  0  0  0  0  0
   44.5502    6.3901   11.5458 C   0  0  0  0  0  0  0  0  0  0  0  0
   46.3313    5.4253   12.8594 C   0  0  0  0  0  0  0  0  0  0  0  0
   44.0190    5.1193   11.3418 C   0  0  0  0  0  0  0  0  0  0  0  0
   45.7831    4.1594   12.6401 C   0  0  0  0  0  0  0  0  0  0  0  0
   44.6289    3.9999   11.8853 C   0  0  0  0  0  0  0  0  0  0  0  0
   47.6713    9.5818   13.8194 N   0  0  0  0  0  0  0  0  0  0  0  0
   46.2606    7.9732   12.4971 C   0  0  2  0  0  0  0  0  0  0  0  0
   47.3899    8.1621   13.5471 C   0  0  0  0  0  0  0  0  0  0  0  0
   46.3626    3.0360   13.1569 O   0  0  0  0  0  0  0  0  0  0  0  0
   42.8894    4.9353   10.5983 O   0  0  0  0  0  0  0  0  0  0  0  0
   45.1673    8.8376   12.8573 O   0  0  0  0  0  0  0  0  0  0  0  0
   48.9348   10.0699   13.2567 C   0  0  0  0  0  0  0  0  0  0  0  0
   49.1206   11.5172   13.7181 C   0  0  0  0  0  0  0  0  0  0  0  0
   48.9910   10.0071   11.7304 C   0  0  0  0  0  0  0  0  0  0  0  0
   46.7364    7.8260   12.2505 S   0  0  0  0  0  0  0  0  0  0  0  0
   45.5717    7.6028   11.4290 O   0  0  0  0  0  0  0  0  0  0  0  0
   48.0846    7.7470   11.7439 O   0  0  0  0  0  0  0  0  0  0  0  0
   46.6260    6.7908   13.4726 O   0  0  0  0  0  0  0  0  0  0  0  0
   46.5878    9.2332   13.0110 O   0  0  0  0  0  0  0  0  0  0  0  0
   45.7548    6.2808   13.2198 C   0  0  0  0  0  0  0  0  0  0  0  0
   44.4623    6.6322   12.7832 C   0  0  0  0  0  0  0  0  0  0  0  0
   46.1406    4.9298   13.1470 C   0  0  0  0  0  0  0  0  0  0  0  0
   43.6023    5.6596   12.2757 C   0  0  0  0  0  0  0  0  0  0  0  0
   45.2599    3.9708   12.6480 C   0  0  0  0  0  0  0  0  0  0  0  0
   43.9906    4.3282   12.2087 C   0  0  0  0  0  0  0  0  0  0  0  0
   48.0800    9.3415   13.2639 N   0  0  0  0  0  0  0  0  0  0  0  0
   46.6794    7.3415   13.7895 C   0  0  2  0  0  0  0  0  0  0  0  0
   46.9600    8.4988   12.7935 C   0  0  0  0  0  0  0  0  0  0  0  0
   45.6171    2.6546   12.5742 O   0  0  0  0  0  0  0  0  0  0  0  0
   42.3513    5.9835   11.8315 O   0  0  0  0  0  0  0  0  0  0  0  0
   47.9326    6.7718   14.1969 O   0  0  0  0  0  0  0  0  0  0  0  0
   48.0759   10.6809   12.6568 C   0  0  0  0  0  0  0  0  0  0  0  0
   49.1704   11.5057   13.3400 C   0  0  0  0  0  0  0  0  0  0  0  0
   48.3088   10.6546   11.1441 C   0  0  0  0  0  0  0  0  0  0  0  0
   44.0668    7.2621   11.1087 H   0  0  0  0  0  0  0  0  0  0  0  0
   47.2375    5.5123   13.4511 H   0  0  0  0  0  0  0  0  0  0  0  0
   44.2116    3.0113   11.7189 H   0  0  0  0  0  0  0  0  0  0  0  0
   46.8886   10.1404   13.4648 H   0  0  0  0  0  0  0  0  0  0  0  0
   46.6204    8.3124   11.5180 H   0  0  0  0  0  0  0  0  0  0  0  0
   47.0500    7.7423   14.5039 H   0  0  0  0  0  0  0  0  0  0  0  0
   48.2937    7.6083   13.2631 H   0  0  0  0  0  0  0  0  0  0  0  0
   47.1812    3.2815   13.6159 H   0  0  0  0  0  0  0  0  0  0  0  0
   42.5517    5.8044   10.3246 H   0  0  0  0  0  0  0  0  0  0  0  0
   44.9245    8.6012   13.7713 H   0  0  0  0  0  0  0  0  0  0  0  0
   49.7624    9.4820   13.6705 H   0  0  0  0  0  0  0  0  0  0  0  0
   50.0898   11.9057   13.3875 H   0  0  0  0  0  0  0  0  0  0  0  0
   48.3422   12.1690   13.3110 H   0  0  0  0  0  0  0  0  0  0  0  0
   49.0887   11.5926   14.8102 H   0  0  0  0  0  0  0  0  0  0  0  0
   48.9749    8.9745   11.3717 H   0  0  0  0  0  0  0  0  0  0  0  0
   48.1537   10.5421   11.2722 H   0  0  0  0  0  0  0  0  0  0  0  0
   49.9167   10.4639   11.3621 H   0  0  0  0  0  0  0  0  0  0  0  0
   46.1214    6.0158   13.1413 H   0  0  0  0  0  0  0  0  0  0  0  0
   47.3287    9.3115   13.6456 H   0  0  0  0  0  0  0  0  0  0  0  0
   44.1268    7.6635   12.8575 H   0  0  0  0  0  0  0  0  0  0  0  0
   47.1293    4.6343   13.4952 H   0  0  0  0  0  0  0  0  0  0  0  0
   43.3135    3.5763   11.8173 H   0  0  0  0  0  0  0  0  0  0  0  0
   48.9521    8.8690   13.0043 H   0  0  0  0  0  0  0  0  0  0  0  0
   46.2148    7.7450   14.7007 H   0  0  0  0  0  0  0  0  0  0  0  0
   46.0464    9.0978   12.6790 H   0  0  0  0  0  0  0  0  0  0  0  0
   47.2197    8.0896   11.8075 H   0  0  0  0  0  0  0  0  0  0  0  0
   46.5339    2.5698   12.8821 H   0  0  0  0  0  0  0  0  0  0  0  0
   42.2860    6.9506   11.7564 H   0  0  0  0  0  0  0  0  0  0  0  0
   48.4257    7.5355   14.5547 H   0  0  0  0  0  0  0  0  0  0  0  0
   47.1146   11.1684   12.8656 H   0  0  0  0  0  0  0  0  0  0  0  0
   50.1668   11.0790   13.1608 H   0  0  0  0  0  0  0  0  0  0  0  0
   49.0122   11.5556   14.4260 H   0  0  0  0  0  0  0  0  0  0  0  0
   49.1744   12.5343   12.9623 H   0  0  0  0  0  0  0  0  0  0  0  0
   49.2501   10.1520   10.8870 H   0  0  0  0  0  0  0  0  0  0  0  0
   48.3551   11.6758   10.7478 H   0  0  0  0  0  0  0  0  0  0  0  0
   47.4929   10.1434   10.6218 H   0  0  0  0  0  0  0  0  0  0  0  0
  2  1  2  0
  3  1  1  0
  4  2  1  0
  5  3  2  0
  6  4  2  0
  7  9  1  0
  8  1  1  0
  9  8  1  0
 10  5  1  0
 11  4  1  0
 12  8  1  0
 13  7  1  0
 14 13  1  0
 15 13  1  0
  6  5  1  0
 17 16  2  0
 18 16  2  0
 19 16  1  0
 20 16  1  0
 22 21  2  0
 23 21  1  0
 24 22  1  0
 25 23  2  0
 26 24  2  0
 27 29  1  0
 28 21  1  0
 29 28  1  0
 30 25  1  0
 31 24  1  0
 32 28  1  0
 33 27  1  0
 34 33  1  0
 35 33  1  0
 26 25  1  0
  2 36  1  0
  3 37  1  0
  6 38  1  0
  7 39  1  0
  8 40  1  1
  9 41  1  0
  9 42  1  0
 10 43  1  0
 11 44  1  0
 12 45  1  0
 13 46  1  0
 14 47  1  0
 14 48  1  0
 14 49  1  0
 15 50  1  0
 15 51  1  0
 15 52  1  0
 19 53  1  0
 20 54  1  0
 22 55  1  0
 23 56  1  0
 26 57  1  0
 27 58  1  0
 28 59  1  6
 29 60  1  0
 29 61  1  0
 30 62  1  0
 31 63  1  0
 32 64  1  0
 33 65  1  0
 34 66  1  0
 34 67  1  0
 34 68  1  0
 35 69  1  0
 35 70  1  0
 35 71  1  0
M  END
> <Uni-Dock RESULT> 
ENERGY=   -5.811  LOWER_BOUND=    4.628  UPPER_BOUND=    6.608
INTER + INTRA:          -5.811
INTER:                  -5.811
INTRA:                   0.000
UNBOUND:                 0.000

$$$$

     RDKit          3D

 71 70  0  0  0  0  0  0  0  0999 V2000
   48.3465    7.8719   12.4954 C   0  0  0  0  0  0  0  0  0  0  0  0
   49.6618    7.4849   12.8245 C   0  0  0  0  0  0  0  0  0  0  0  0
   48.1607    9.1131   11.8628 C   0  0  0  0  0  0  0  0  0  0  0  0
   50.7395    8.3217   12.5468 C   0  0  0  0  0  0  0  0  0  0  0  0
   49.2562    9.9358   11.5909 C   0  0  0  0  0  0  0  0  0  0  0  0
   50.5450    9.5478   11.9309 C   0  0  0  0  0  0  0  0  0  0  0  0
   44.7555    6.5509   13.2171 N   0  0  0  0  0  0  0  0  0  0  0  0
   47.2101    6.9140   12.8058 C   0  0  2  0  0  0  0  0  0  0  0  0
   45.7654    7.4662   12.6592 C   0  0  0  0  0  0  0  0  0  0  0  0
   49.0993   11.1473   10.9804 O   0  0  0  0  0  0  0  0  0  0  0  0
   52.0165    7.9605   12.8649 O   0  0  0  0  0  0  0  0  0  0  0  0
   47.3738    6.4454   14.1569 O   0  0  0  0  0  0  0  0  0  0  0  0
   43.9477    5.8516   12.2123 C   0  0  0  0  0  0  0  0  0  0  0  0
   42.8895    5.0324   12.9548 C   0  0  0  0  0  0  0  0  0  0  0  0
   44.7623    4.9324   11.3023 C   0  0  0  0  0  0  0  0  0  0  0  0
   47.0800    6.8842   12.2663 S   0  0  0  0  0  0  0  0  0  0  0  0
   48.4421    6.5027   12.5496 O   0  0  0  0  0  0  0  0  0  0  0  0
   46.4488    6.6607   10.9888 O   0  0  0  0  0  0  0  0  0  0  0  0
   46.9828    8.4564   12.5762 O   0  0  0  0  0  0  0  0  0  0  0  0
   46.1127    6.2768   13.3959 O   0  0  0  0  0  0  0  0  0  0  0  0
   47.9674    8.6655   12.8409 C   0  0  0  0  0  0  0  0  0  0  0  0
   48.9412    8.0814   13.6746 C   0  0  0  0  0  0  0  0  0  0  0  0
   48.3712    9.6730   11.9456 C   0  0  0  0  0  0  0  0  0  0  0  0
   50.2725    8.4862   13.5921 C   0  0  0  0  0  0  0  0  0  0  0  0
   49.7060   10.0721   11.8885 C   0  0  0  0  0  0  0  0  0  0  0  0
   50.6623    9.4822   12.7066 C   0  0  0  0  0  0  0  0  0  0  0  0
   44.8828    6.3949   12.5151 N   0  0  0  0  0  0  0  0  0  0  0  0
   46.5159    8.2340   12.9492 C   0  0  2  0  0  0  0  0  0  0  0  0
   46.3148    6.7159   12.6948 C   0  0  0  0  0  0  0  0  0  0  0  0
   50.1139   11.0511   11.0280 O   0  0  0  0  0  0  0  0  0  0  0  0
   51.2345    7.9196   14.3801 O   0  0  0  0  0  0  0  0  0  0  0  0
   45.6878    8.9672   12.0340 O   0  0  0  0  0  0  0  0  0  0  0  0
   44.5850    4.9753   12.7570 C   0  0  0  0  0  0  0  0  0  0  0  0
   43.0643    4.8026   12.7054 C   0  0  0  0  0  0  0  0  0  0  0  0
   45.2517    4.0414   11.7439 C   0  0  0  0  0  0  0  0  0  0  0  0
   49.8264    6.5209   13.3026 H   0  0  0  0  0  0  0  0  0  0  0  0
   47.1672    9.4466   11.5790 H   0  0  0  0  0  0  0  0  0  0  0  0
   51.3904   10.1938   11.7135 H   0  0  0  0  0  0  0  0  0  0  0  0
   45.2317    5.8729   13.8204 H   0  0  0  0  0  0  0  0  0  0  0  0
   47.3285    6.0403   12.1532 H   0  0  0  0  0  0  0  0  0  0  0  0
   45.6831    8.3885   13.2506 H   0  0  0  0  0  0  0  0  0  0  0  0
   45.5473    7.7383   11.6187 H   0  0  0  0  0  0  0  0  0  0  0  0
   48.1644   11.2719   10.7538 H   0  0  0  0  0  0  0  0  0  0  0  0
   51.9924    7.1064   13.3278 H   0  0  0  0  0  0  0  0  0  0  0  0
   47.1607    7.2016   14.7340 H   0  0  0  0  0  0  0  0  0  0  0  0
   43.4219    6.5911   11.5970 H   0  0  0  0  0  0  0  0  0  0  0  0
   42.2087    4.5494   12.2458 H   0  0  0  0  0  0  0  0  0  0  0  0
   43.3473    4.2493   13.5659 H   0  0  0  0  0  0  0  0  0  0  0  0
   42.2866    5.6669   13.6130 H   0  0  0  0  0  0  0  0  0  0  0  0
   45.4519    5.5012   10.6730 H   0  0  0  0  0  0  0  0  0  0  0  0
   45.3436    4.2053   11.8773 H   0  0  0  0  0  0  0  0  0  0  0  0
   44.1001    4.3713   10.6329 H   0  0  0  0  0  0  0  0  0  0  0  0
   47.8780    8.8304   12.4218 H   0  0  0  0  0  0  0  0  0  0  0  0
   45.2155    6.6397   13.2502 H   0  0  0  0  0  0  0  0  0  0  0  0
   48.6515    7.3232   14.3976 H   0  0  0  0  0  0  0  0  0  0  0  0
   47.6310   10.1494   11.3043 H   0  0  0  0  0  0  0  0  0  0  0  0
   51.6996    9.7954   12.6522 H   0  0  0  0  0  0  0  0  0  0  0  0
   44.6355    6.6189   11.5456 H   0  0  0  0  0  0  0  0  0  0  0  0
   46.1590    8.4884   13.9576 H   0  0  0  0  0  0  0  0  0  0  0  0
   46.7338    6.1556   13.5416 H   0  0  0  0  0  0  0  0  0  0  0  0
   46.8580    6.4127   11.7891 H   0  0  0  0  0  0  0  0  0  0  0  0
   49.3469   11.3374   10.5062 H   0  0  0  0  0  0  0  0  0  0  0  0
   50.8668    7.1236   14.7999 H   0  0  0  0  0  0  0  0  0  0  0  0
   44.7916    8.6184   12.2065 H   0  0  0  0  0  0  0  0  0  0  0  0
   44.9151    4.7050   13.7687 H   0  0  0  0  0  0  0  0  0  0  0  0
   42.6653    5.0457   11.7112 H   0  0  0  0  0  0  0  0  0  0  0  0
   42.5649    5.4494   13.4397 H   0  0  0  0  0  0  0  0  0  0  0  0
   42.7828    3.7688   12.9351 H   0  0  0  0  0  0  0  0  0  0  0  0
   44.9688    4.2921   10.7134 H   0  0  0  0  0  0  0  0  0  0  0  0
   44.9542    3.0026   11.9297 H   0  0  0  0  0  0  0  0  0  0  0  0
   46.3436    4.0818   11.8195 H   0  0  0  0  0  0  0  0  0  0  0  0
  2  1  2  0
  3  1  1  0
  4  2  1  0
  5  3  2  0
  6  4  2  0
  7  9  1  0
  8  1  1  0
  9  8  1  0
 10  5  1  0
 11  4  1  0
 12  8  1  0
 13  7  1  0
 14 13  1  0
 15 13  1  0
  6  5  1  0
 17 16  2  0
 18 16  2  0
 19 16  1  0
 20 16  1  0
 22 21  2  0
 23 21  1  0
 24 22  1  0
 25 23  2  0
 26 24  2  0
 27 29  1  0
 28 21  1  0
 29 28  1  0
 30 25  1  0
 31 24  1  0
 32 28  1  0
 33 27  1  0
 34 33  1  0
 35 33  1  0
 26 25  1  0
  2 36  1  0
  3 37  1  0
  6 38  1  0
  7 39  1  0
  8 40  1  1
  9 41  1  0
  9 42  1  0
 10 43  1  0
 11 44  1  0
 12 45  1  0
 13 46  1  0
 14 47  1  0
 14 48  1  0
 14 49  1  0
 15 50  1  0
 15 51  1  0
 15 52  1  0
 19 53  1  0
 20 54  1  0
 22 55  1  0
 23 56  1  0
 26 57  1  0
 27 58  1  0
 28 59  1  6
 29 60  1  0
 29 61  1  0
 30 62  1  0
 31 63  1  0
 32 64  1  0
 33 65  1  0
 34 66  1  0
 34 67  1  0
 34 68  1  0
 35 69  1  0
 35 70  1  0
 35 71  1  0
M  END
> <Uni-Dock RESULT> 
ENERGY=   -5.667  LOWER_BOUND=    4.628  UPPER_BOUND=    7.409
INTER + INTRA:          -5.667
INTER:                  -5.667
INTRA:                   0.000
UNBOUND:                 0.000

$$$$

     RDKit          3D

 71 70  0  0  0  0  0  0  0  0999 V2000
   47.0476    7.5792   13.2476 C   0  0  0  0  0  0  0  0  0  0  0  0
   46.1597    6.5427   12.8935 C   0  0  0  0  0  0  0  0  0  0  0  0
   46.6359    8.9055   13.0318 C   0  0  0  0  0  0  0  0  0  0  0  0
   44.9204    6.8306   12.3277 C   0  0  0  0  0  0  0  0  0  0  0  0
   45.3872    9.1720   12.4654 C   0  0  0  0  0  0  0  0  0  0  0  0
   44.5274    8.1416   12.1104 C   0  0  0  0  0  0  0  0  0  0  0  0
   50.7548    7.8414   14.4088 N   0  0  0  0  0  0  0  0  0  0  0  0
   48.3792    7.2096   13.8762 C   0  0  2  0  0  0  0  0  0  0  0  0
   49.4260    8.3478   14.0259 C   0  0  0  0  0  0  0  0  0  0  0  0
   44.9676   10.4525   12.2432 O   0  0  0  0  0  0  0  0  0  0  0  0
   44.0545    5.8360   11.9762 O   0  0  0  0  0  0  0  0  0  0  0  0
   48.9714    6.1595   13.0896 O   0  0  0  0  0  0  0  0  0  0  0  0
   51.1362    8.1236   15.7967 C   0  0  0  0  0  0  0  0  0  0  0  0
   52.5707    7.6285   15.9942 C   0  0  0  0  0  0  0  0  0  0  0  0
   50.2204    7.4672   16.8297 C   0  0  0  0  0  0  0  0  0  0  0  0
   48.2467    7.4910   14.3368 S   0  0  0  0  0  0  0  0  0  0  0  0
   47.2963    6.4587   14.0021 O   0  0  0  0  0  0  0  0  0  0  0  0
   48.2439    8.1845   15.6015 O   0  0  0  0  0  0  0  0  0  0  0  0
   48.1232    8.6023   13.1847 O   0  0  0  0  0  0  0  0  0  0  0  0
   49.7360    6.9415   14.0905 O   0  0  0  0  0  0  0  0  0  0  0  0
   47.3559    8.2017   12.6069 C   0  0  0  0  0  0  0  0  0  0  0  0
   47.0391    6.9361   12.0753 C   0  0  0  0  0  0  0  0  0  0  0  0
   46.3691    9.2042   12.5798 C   0  0  0  0  0  0  0  0  0  0  0  0
   45.7696    6.6892   11.5552 C   0  0  0  0  0  0  0  0  0  0  0  0
   45.1097    8.9397   12.0430 C   0  0  0  0  0  0  0  0  0  0  0  0
   44.8019    7.6847   11.5310 C   0  0  0  0  0  0  0  0  0  0  0  0
   50.3544    7.9846   15.0025 N   0  0  0  0  0  0  0  0  0  0  0  0
   48.7463    8.4700   13.1542 C   0  0  2  0  0  0  0  0  0  0  0  0
   49.1391    7.5086   14.3079 C   0  0  0  0  0  0  0  0  0  0  0  0
   44.1418    9.9026   12.0054 O   0  0  0  0  0  0  0  0  0  0  0  0
   45.4378    5.4634   11.0507 O   0  0  0  0  0  0  0  0  0  0  0  0
   48.8671    9.8222   13.6213 O   0  0  0  0  0  0  0  0  0  0  0  0
   51.0386    6.9159   15.7452 C   0  0  0  0  0  0  0  0  0  0  0  0
   52.3563    7.4872   16.2765 C   0  0  0  0  0  0  0  0  0  0  0  0
   50.2050    6.3614   16.9032 C   0  0  0  0  0  0  0  0  0  0  0  0
   46.4559    5.5095   13.0660 H   0  0  0  0  0  0  0  0  0  0  0  0
   47.2810    9.7363   13.3013 H   0  0  0  0  0  0  0  0  0  0  0  0
   43.5578    8.3592   11.6724 H   0  0  0  0  0  0  0  0  0  0  0  0
   50.7783    6.8315   14.2354 H   0  0  0  0  0  0  0  0  0  0  0  0
   48.1696    6.7824   14.8645 H   0  0  0  0  0  0  0  0  0  0  0  0
   49.5656    8.8242   13.0457 H   0  0  0  0  0  0  0  0  0  0  0  0
   49.0687    9.1294   14.7083 H   0  0  0  0  0  0  0  0  0  0  0  0
   45.6358   11.0701   12.5795 H   0  0  0  0  0  0  0  0  0  0  0  0
   44.4808    4.9788   12.1426 H   0  0  0  0  0  0  0  0  0  0  0  0
   49.2534    6.5732   12.2532 H   0  0  0  0  0  0  0  0  0  0  0  0
   51.1359    9.2084   15.9551 H   0  0  0  0  0  0  0  0  0  0  0  0
   52.9325    7.8852   16.9956 H   0  0  0  0  0  0  0  0  0  0  0  0
   52.6371    6.5425   15.8824 H   0  0  0  0  0  0  0  0  0  0  0  0
   53.2517    8.0860   15.2688 H   0  0  0  0  0  0  0  0  0  0  0  0
   49.2102    7.8831   16.7904 H   0  0  0  0  0  0  0  0  0  0  0  0
   50.1516    6.3854   16.6802 H   0  0  0  0  0  0  0  0  0  0  0  0
   50.6020    7.6375   17.8430 H   0  0  0  0  0  0  0  0  0  0  0  0
   47.2009    8.5597   12.8491 H   0  0  0  0  0  0  0  0  0  0  0  0
   50.3561    7.6887   14.2129 H   0  0  0  0  0  0  0  0  0  0  0  0
   47.7924    6.1528   12.0547 H   0  0  0  0  0  0  0  0  0  0  0  0
   46.5990   10.1945   12.9703 H   0  0  0  0  0  0  0  0  0  0  0  0
   43.8179    7.4861   11.1197 H   0  0  0  0  0  0  0  0  0  0  0  0
   50.0659    8.7100   15.6673 H   0  0  0  0  0  0  0  0  0  0  0  0
   49.4639    8.3654   12.3277 H   0  0  0  0  0  0  0  0  0  0  0  0
   49.2986    6.5038   13.8938 H   0  0  0  0  0  0  0  0  0  0  0  0
   48.3205    7.4455   15.0380 H   0  0  0  0  0  0  0  0  0  0  0  0
   44.4928   10.7043   12.4259 H   0  0  0  0  0  0  0  0  0  0  0  0
   46.1256    4.8242   11.3028 H   0  0  0  0  0  0  0  0  0  0  0  0
   49.7931    9.8764   13.9283 H   0  0  0  0  0  0  0  0  0  0  0  0
   51.2862    6.0987   15.0550 H   0  0  0  0  0  0  0  0  0  0  0  0
   52.1821    8.3064   16.9874 H   0  0  0  0  0  0  0  0  0  0  0  0
   52.9812    7.8732   15.4594 H   0  0  0  0  0  0  0  0  0  0  0  0
   52.9349    6.7134   16.7933 H   0  0  0  0  0  0  0  0  0  0  0  0
   49.9126    7.1510   17.6073 H   0  0  0  0  0  0  0  0  0  0  0  0
   50.7781    5.6108   17.4603 H   0  0  0  0  0  0  0  0  0  0  0  0
   49.2954    5.8692   16.5424 H   0  0  0  0  0  0  0  0  0  0  0  0
  2  1  2  0
  3  1  1  0
  4  2  1  0
  5  3  2  0
  6  4  2  0
  7  9  1  0
  8  1  1  0
  9  8  1  0
 10  5  1  0
 11  4  1  0
 12  8  1  0
 13  7  1  0
 14 13  1  0
 15 13  1  0
  6  5  1  0
 17 16  2  0
 18 16  2  0
 19 16  1  0
 20 16  1  0
 22 21  2  0
 23 21  1  0
 24 22  1  0
 25 23  2  0
 26 24  2  0
 27 29  1  0
 28 21  1  0
 29 28  1  0
 30 25  1  0
 31 24  1  0
 32 28  1  0
 33 27  1  0
 34 33  1  0
 35 33  1  0
 26 25  1  0
  2 36  1  0
  3 37  1  0
  6 38  1  0
  7 39  1  0
  8 40  1  1
  9 41  1  0
  9 42  1  0
 10 43  1  0
 11 44  1  0
 12 45  1  0
 13 46  1  0
 14 47  1  0
 14 48  1  0
 14 49  1  0
 15 50  1  0
 15 51  1  0
 15 52  1  0
 19 53  1  0
 20 54  1  0
 22 55  1  0
 23 56  1  0
 26 57  1  0
 27 58  1  0
 28 59  1  6
 29 60  1  0
 29 61  1  0
 30 62  1  0
 31 63  1  0
 32 64  1  0
 33 65  1  0
 34 66  1  0
 34 67  1  0
 34 68  1  0
 35 69  1  0
 35 70  1  0
 35 71  1  0
M  END
> <Uni-Dock RESULT> 
ENERGY=   -5.323  LOWER_BOUND=    5.409  UPPER_BOUND=    8.367
INTER + INTRA:          -5.323
INTER:                  -5.323
INTRA:                   0.000
UNBOUND:                 0.000

$$$$

     RDKit          3D

 71 70  0  0  0  0  0  0  0  0999 V2000
   47.9688   10.6249   19.7220 C   0  0  0  0  0  0  0  0  0  0  0  0
   47.8738   11.7821   20.5219 C   0  0  0  0  0  0  0  0  0  0  0  0
   48.1116   10.7901   18.3337 C   0  0  0  0  0  0  0  0  0  0  0  0
   47.9006   13.0491   19.9450 C   0  0  0  0  0  0  0  0  0  0  0  0
   48.1390   12.0705   17.7761 C   0  0  0  0  0  0  0  0  0  0  0  0
   48.0326   13.2015   18.5739 C   0  0  0  0  0  0  0  0  0  0  0  0
   47.5527    6.7899   20.2520 N   0  0  0  0  0  0  0  0  0  0  0  0
   47.9507    9.2687   20.4044 C   0  0  2  0  0  0  0  0  0  0  0  0
   47.8096    8.0223   19.4878 C   0  0  0  0  0  0  0  0  0  0  0  0
   48.2734   12.2551   16.4296 O   0  0  0  0  0  0  0  0  0  0  0  0
   47.8045   14.1765   20.7081 O   0  0  0  0  0  0  0  0  0  0  0  0
   46.8632    9.2546   21.3474 O   0  0  0  0  0  0  0  0  0  0  0  0
   48.6910    5.8674   20.3186 C   0  0  0  0  0  0  0  0  0  0  0  0
   48.2249    4.6062   21.0496 C   0  0  0  0  0  0  0  0  0  0  0  0
   49.9119    6.4506   21.0298 C   0  0  0  0  0  0  0  0  0  0  0  0
   48.4577    9.1558   20.2066 S   0  0  0  0  0  0  0  0  0  0  0  0
   48.4061   10.3613   20.9972 O   0  0  0  0  0  0  0  0  0  0  0  0
   49.6933    8.5369   19.7933 O   0  0  0  0  0  0  0  0  0  0  0  0
   47.6086    9.4565   18.8777 O   0  0  0  0  0  0  0  0  0  0  0  0
   47.5607    8.0224   20.9077 O   0  0  0  0  0  0  0  0  0  0  0  0
   47.3445   10.4509   19.0343 C   0  0  0  0  0  0  0  0  0  0  0  0
   46.8279   11.2086   20.1037 C   0  0  0  0  0  0  0  0  0  0  0  0
   47.8492   11.1348   17.9130 C   0  0  0  0  0  0  0  0  0  0  0  0
   46.8392   12.6014   20.0494 C   0  0  0  0  0  0  0  0  0  0  0  0
   47.8390   12.5286   17.8736 C   0  0  0  0  0  0  0  0  0  0  0  0
   47.3379   13.2684   18.9383 C   0  0  0  0  0  0  0  0  0  0  0  0
   48.2707    6.8990   20.1756 N   0  0  0  0  0  0  0  0  0  0  0  0
   47.3116    8.9343   19.0913 C   0  0  2  0  0  0  0  0  0  0  0  0
   48.0725    8.3575   20.3153 C   0  0  0  0  0  0  0  0  0  0  0  0
   48.3214   13.2078   16.7914 O   0  0  0  0  0  0  0  0  0  0  0  0
   46.3584   13.3538   21.0837 O   0  0  0  0  0  0  0  0  0  0  0  0
   47.8603    8.3588   17.8960 O   0  0  0  0  0  0  0  0  0  0  0  0
   48.5277    6.2356   21.4625 C   0  0  0  0  0  0  0  0  0  0  0  0
   48.5489    4.7250   21.2123 C   0  0  0  0  0  0  0  0  0  0  0  0
   49.8417    6.6761   22.1126 C   0  0  0  0  0  0  0  0  0  0  0  0
   47.7764   11.6739   21.6007 H   0  0  0  0  0  0  0  0  0  0  0  0
   48.2018    9.9280   17.6799 H   0  0  0  0  0  0  0  0  0  0  0  0
   48.0569   14.1926   18.1309 H   0  0  0  0  0  0  0  0  0  0  0  0
   47.2556    7.0516   21.1974 H   0  0  0  0  0  0  0  0  0  0  0  0
   48.8750    9.1819   20.9888 H   0  0  0  0  0  0  0  0  0  0  0  0
   46.9274    8.1588   18.8473 H   0  0  0  0  0  0  0  0  0  0  0  0
   48.6730    7.9213   18.8181 H   0  0  0  0  0  0  0  0  0  0  0  0
   48.3871   11.3934   15.9991 H   0  0  0  0  0  0  0  0  0  0  0  0
   47.6717   13.9151   21.6346 H   0  0  0  0  0  0  0  0  0  0  0  0
   46.0454    9.2225   20.8178 H   0  0  0  0  0  0  0  0  0  0  0  0
   48.9747    5.5741   19.3011 H   0  0  0  0  0  0  0  0  0  0  0  0
   49.0180    3.8510   21.0590 H   0  0  0  0  0  0  0  0  0  0  0  0
   47.9564    4.8228   22.0876 H   0  0  0  0  0  0  0  0  0  0  0  0
   47.3517    4.1633   20.5591 H   0  0  0  0  0  0  0  0  0  0  0  0
   50.3392    7.2869   20.4703 H   0  0  0  0  0  0  0  0  0  0  0  0
   49.6646    6.8021   22.0360 H   0  0  0  0  0  0  0  0  0  0  0  0
   50.6967    5.6917   21.1281 H   0  0  0  0  0  0  0  0  0  0  0  0
   47.6728   10.4231   18.7144 H   0  0  0  0  0  0  0  0  0  0  0  0
   47.5170    7.2557   20.3010 H   0  0  0  0  0  0  0  0  0  0  0  0
   46.4030   10.7057   20.9687 H   0  0  0  0  0  0  0  0  0  0  0  0
   48.2376   10.5677   17.0683 H   0  0  0  0  0  0  0  0  0  0  0  0
   47.3384   14.3527   18.9014 H   0  0  0  0  0  0  0  0  0  0  0  0
   49.0831    6.7547   19.5669 H   0  0  0  0  0  0  0  0  0  0  0  0
   46.2594    8.6174   19.1296 H   0  0  0  0  0  0  0  0  0  0  0  0
   47.5032    8.5851   21.2266 H   0  0  0  0  0  0  0  0  0  0  0  0
   49.0567    8.8376   20.4047 H   0  0  0  0  0  0  0  0  0  0  0  0
   48.6636   12.5611   16.1532 H   0  0  0  0  0  0  0  0  0  0  0  0
   46.2255   12.7774   21.8552 H   0  0  0  0  0  0  0  0  0  0  0  0
   47.7702    7.3971   18.0428 H   0  0  0  0  0  0  0  0  0  0  0  0
   47.6971    6.4462   22.1489 H   0  0  0  0  0  0  0  0  0  0  0  0
   49.3689    4.4401   20.5390 H   0  0  0  0  0  0  0  0  0  0  0  0
   47.6062    4.3823   20.7641 H   0  0  0  0  0  0  0  0  0  0  0  0
   48.6824    4.1775   22.1521 H   0  0  0  0  0  0  0  0  0  0  0  0
   50.6995    6.5067   21.4492 H   0  0  0  0  0  0  0  0  0  0  0  0
   50.0169    6.1135   23.0372 H   0  0  0  0  0  0  0  0  0  0  0  0
   49.8199    7.7378   22.3812 H   0  0  0  0  0  0  0  0  0  0  0  0
  2  1  2  0
  3  1  1  0
  4  2  1  0
  5  3  2  0
  6  4  2  0
  7  9  1  0
  8  1  1  0
  9  8  1  0
 10  5  1  0
 11  4  1  0
 12  8  1  0
 13  7  1  0
 14 13  1  0
 15 13  1  0
  6  5  1  0
 17 16  2  0
 18 16  2  0
 19 16  1  0
 20 16  1  0
 22 21  2  0
 23 21  1  0
 24 22  1  0
 25 23  2  0
 26 24  2  0
 27 29  1  0
 28 21  1  0
 29 28  1  0
 30 25  1  0
 31 24  1  0
 32 28  1  0
 33 27  1  0
 34 33  1  0
 35 33  1  0
 26 25  1  0
  2 36  1  0
  3 37  1  0
  6 38  1  0
  7 39  1  0
  8 40  1  1
  9 41  1  0
  9 42  1  0
 10 43  1  0
 11 44  1  0
 12 45  1  0
 13 46  1  0
 14 47  1  0
 14 48  1  0
 14 49  1  0
 15 50  1  0
 15 51  1  0
 15 52  1  0
 19 53  1  0
 20 54  1  0
 22 55  1  0
 23 56  1  0
 26 57  1  0
 27 58  1  0
 28 59  1  6
 29 60  1  0
 29 61  1  0
 30 62  1  0
 31 63  1  0
 32 64  1  0
 33 65  1  0
 34 66  1  0
 34 67  1  0
 34 68  1  0
 35 69  1  0
 35 70  1  0
 35 71  1  0
M  END
> <Uni-Dock RESULT> 
ENERGY=   -5.266  LOWER_BOUND=   11.855  UPPER_BOUND=   13.776
INTER + INTRA:          -5.266
INTER:                  -5.266
INTRA:                   0.000
UNBOUND:                 0.000

$$$$
