
     RDKit          3D

 71 70  0  0  0  0  0  0  0  0999 V2000
   45.2426    5.9171   12.4717 C   0  0  0  0  0  0  0  0  0  0  0  0
   43.8738    6.2284   12.4701 C   0  0  0  0  0  0  0  0  0  0  0  0
   45.6688    4.7313   11.8493 C   0  0  0  0  0  0  0  0  0  0  0  0
   42.9597    5.3714   11.8628 C   0  0  0  0  0  0  0  0  0  0  0  0
   44.7356    3.8891   11.2473 C   0  0  0  0  0  0  0  0  0  0  0  0
   43.3804    4.1978   11.2500 C   0  0  0  0  0  0  0  0  0  0  0  0
   47.8623    8.7603   12.5439 N   0  0  0  0  0  0  0  0  0  0  0  0
   46.2362    6.8515   13.1336 C   0  0  2  0  0  0  0  0  0  0  0  0
   47.1653    7.5387   12.0953 C   0  0  0  0  0  0  0  0  0  0  0  0
   45.1180    2.7320   10.6350 O   0  0  0  0  0  0  0  0  0  0  0  0
   41.6427    5.7273   11.8899 O   0  0  0  0  0  0  0  0  0  0  0  0
   46.9994    6.1025   14.0849 O   0  0  0  0  0  0  0  0  0  0  0  0
   48.8206    8.5685   13.6408 C   0  0  0  0  0  0  0  0  0  0  0  0
   49.9898    7.6605   13.2550 C   0  0  0  0  0  0  0  0  0  0  0  0
   49.3578    9.9494   14.0338 C   0  0  0  0  0  0  0  0  0  0  0  0
   46.2105    6.8296   12.5126 S   0  0  0  0  0  0  0  0  0  0  0  0
   44.9841    6.0776   12.6031 O   0  0  0  0  0  0  0  0  0  0  0  0
   46.5339    7.6734   11.3894 O   0  0  0  0  0  0  0  0  0  0  0  0
   47.4026    5.7664   12.6613 O   0  0  0  0  0  0  0  0  0  0  0  0
   46.3970    7.7000   13.8478 O   0  0  0  0  0  0  0  0  0  0  0  0
   47.3032    7.9127   12.7450 C   0  0  0  0  0  0  0  0  0  0  0  0
   48.3279    7.7315   11.8017 C   0  0  0  0  0  0  0  0  0  0  0  0
   47.6488    8.0010   14.1056 C   0  0  0  0  0  0  0  0  0  0  0  0
   49.6541    7.6285   12.2138 C   0  0  0  0  0  0  0  0  0  0  0  0
   48.9827    7.8901   14.4958 C   0  0  0  0  0  0  0  0  0  0  0  0
   49.9924    7.7067   13.5590 C   0  0  0  0  0  0  0  0  0  0  0  0
   45.4679    5.6417   11.5553 N   0  0  0  0  0  0  0  0  0  0  0  0
   45.8546    8.0783   12.3273 C   0  0  2  0  0  0  0  0  0  0  0  0
   45.3298    7.0762   11.2616 C   0  0  0  0  0  0  0  0  0  0  0  0
   49.3441    7.9673   15.8096 O   0  0  0  0  0  0  0  0  0  0  0  0
   50.6060    7.4535   11.2517 O   0  0  0  0  0  0  0  0  0  0  0  0
   45.6596    9.4119   11.8326 O   0  0  0  0  0  0  0  0  0  0  0  0
   44.7895    5.1860   12.7712 C   0  0  0  0  0  0  0  0  0  0  0  0
   43.2662    5.2661   12.6630 C   0  0  0  0  0  0  0  0  0  0  0  0
   45.2160    3.7386   13.0271 C   0  0  0  0  0  0  0  0  0  0  0  0
   43.5075    7.1395   12.9381 H   0  0  0  0  0  0  0  0  0  0  0  0
   46.7264    4.4757   11.8495 H   0  0  0  0  0  0  0  0  0  0  0  0
   42.6793    3.5209   10.7737 H   0  0  0  0  0  0  0  0  0  0  0  0
   47.1663    9.4469   12.8326 H   0  0  0  0  0  0  0  0  0  0  0  0
   45.6924    7.6201   13.6981 H   0  0  0  0  0  0  0  0  0  0  0  0
   46.5547    7.8452   11.2347 H   0  0  0  0  0  0  0  0  0  0  0  0
   47.8964    6.8222   11.7005 H   0  0  0  0  0  0  0  0  0  0  0  0
   46.0870    2.6800   10.6445 H   0  0  0  0  0  0  0  0  0  0  0  0
   41.1331    5.0543   11.4066 H   0  0  0  0  0  0  0  0  0  0  0  0
   46.3835    5.4820   14.5143 H   0  0  0  0  0  0  0  0  0  0  0  0
   48.3134    8.1600   14.5220 H   0  0  0  0  0  0  0  0  0  0  0  0
   49.6640    6.6291   13.0893 H   0  0  0  0  0  0  0  0  0  0  0  0
   50.7392    7.6380   14.0523 H   0  0  0  0  0  0  0  0  0  0  0  0
   50.4856    8.0115   12.3428 H   0  0  0  0  0  0  0  0  0  0  0  0
   49.9088   10.4141   13.2090 H   0  0  0  0  0  0  0  0  0  0  0  0
   48.5438   10.6224   14.3228 H   0  0  0  0  0  0  0  0  0  0  0  0
   50.0340    9.8718   14.8909 H   0  0  0  0  0  0  0  0  0  0  0  0
   47.0847    4.9211   12.2746 H   0  0  0  0  0  0  0  0  0  0  0  0
   47.3324    7.9750   13.9056 H   0  0  0  0  0  0  0  0  0  0  0  0
   48.1034    7.6696   10.7397 H   0  0  0  0  0  0  0  0  0  0  0  0
   46.8709    8.1597   14.8480 H   0  0  0  0  0  0  0  0  0  0  0  0
   51.0219    7.6283   13.8915 H   0  0  0  0  0  0  0  0  0  0  0  0
   45.1330    5.1054   10.7534 H   0  0  0  0  0  0  0  0  0  0  0  0
   45.2160    7.9960   13.2139 H   0  0  0  0  0  0  0  0  0  0  0  0
   45.8511    7.2701   10.3156 H   0  0  0  0  0  0  0  0  0  0  0  0
   44.2825    7.3164   11.0371 H   0  0  0  0  0  0  0  0  0  0  0  0
   48.5397    8.0041   16.3519 H   0  0  0  0  0  0  0  0  0  0  0  0
   51.4711    7.3735   11.6877 H   0  0  0  0  0  0  0  0  0  0  0  0
   46.5038    9.8874   11.9241 H   0  0  0  0  0  0  0  0  0  0  0  0
   45.1213    5.7734   13.6342 H   0  0  0  0  0  0  0  0  0  0  0  0
   42.7945    4.8491   13.5595 H   0  0  0  0  0  0  0  0  0  0  0  0
   42.8970    4.7017   11.7996 H   0  0  0  0  0  0  0  0  0  0  0  0
   42.9208    6.2999   12.5677 H   0  0  0  0  0  0  0  0  0  0  0  0
   46.3058    3.6566   13.1035 H   0  0  0  0  0  0  0  0  0  0  0  0
   44.7936    3.3781   13.9709 H   0  0  0  0  0  0  0  0  0  0  0  0
   44.8800    3.0647   12.2310 H   0  0  0  0  0  0  0  0  0  0  0  0
  2  1  2  0
  3  1  1  0
  4  2  1  0
  5  3  2  0
  6  4  2  0
  7  9  1  0
  8  1  1  0
  9  8  1  0
 10  5  1  0
 11  4  1  0
 12  8  1  0
 13  7  1  0
 14 13  1  0
 15 13  1  0
  6  5  1  0
 17 16  2  0
 18 16  2  0
 19 16  1  0
 20 16  1  0
 22 21  2  0
 23 21  1  0
 24 22  1  0
 25 23  2  0
 26 24  2  0
 27 29  1  0
 28 21  1  0
 29 28  1  0
 30 25  1  0
 31 24  1  0
 32 28  1  0
 33 27  1  0
 34 33  1  0
 35 33  1  0
 26 25  1  0
  2 36  1  0
  3 37  1  0
  6 38  1  0
  7 39  1  0
  8 40  1  6
  9 41  1  0
  9 42  1  0
 10 43  1  0
 11 44  1  0
 12 45  1  0
 13 46  1  0
 14 47  1  0
 14 48  1  0
 14 49  1  0
 15 50  1  0
 15 51  1  0
 15 52  1  0
 19 53  1  0
 20 54  1  0
 22 55  1  0
 23 56  1  0
 26 57  1  0
 27 58  1  0
 28 59  1  6
 29 60  1  0
 29 61  1  0
 30 62  1  0
 31 63  1  0
 32 64  1  0
 33 65  1  0
 34 66  1  0
 34 67  1  0
 34 68  1  0
 35 69  1  0
 35 70  1  0
 35 71  1  0
M  END
> <Uni-Dock RESULT> 
ENERGY=   -5.500  LOWER_BOUND=    0.000  UPPER_BOUND=    0.000
INTER + INTRA:          -5.500
INTER:                  -5.500
INTRA:                   0.000
UNBOUND:                 0.000

$$$$

     RDKit          3D

 71 70  0  0  0  0  0  0  0  0999 V2000
   43.4968   12.0290    8.8678 C   0  0  0  0  0  0  0  0  0  0  0  0
   44.8721   12.3091    8.8960 C   0  0  0  0  0  0  0  0  0  0  0  0
   42.9414   11.4767    7.7009 C   0  0  0  0  0  0  0  0  0  0  0  0
   45.6654   12.0443    7.7828 C   0  0  0  0  0  0  0  0  0  0  0  0
   43.7553   11.2195    6.5991 C   0  0  0  0  0  0  0  0  0  0  0  0
   45.1161   11.5009    6.6283 C   0  0  0  0  0  0  0  0  0  0  0  0
   41.6485   11.1314   12.1434 N   0  0  0  0  0  0  0  0  0  0  0  0
   42.6348   12.3183   10.0809 C   0  0  2  0  0  0  0  0  0  0  0  0
   42.1187   11.0141   10.7490 C   0  0  0  0  0  0  0  0  0  0  0  0
   43.2462   10.6837    5.4530 O   0  0  0  0  0  0  0  0  0  0  0  0
   46.9959   12.3344    7.8694 O   0  0  0  0  0  0  0  0  0  0  0  0
   41.5435   13.1501    9.6742 O   0  0  0  0  0  0  0  0  0  0  0  0
   40.4714   11.9886   12.3382 C   0  0  0  0  0  0  0  0  0  0  0  0
   39.2256   11.4559   11.6277 C   0  0  0  0  0  0  0  0  0  0  0  0
   40.2012   12.0699   13.8450 C   0  0  0  0  0  0  0  0  0  0  0  0
   42.7791   11.7282    9.9474 S   0  0  0  0  0  0  0  0  0  0  0  0
   43.7537   12.1962    8.9940 O   0  0  0  0  0  0  0  0  0  0  0  0
   42.8929   10.4645   10.6317 O   0  0  0  0  0  0  0  0  0  0  0  0
   41.3681   11.7249    9.1840 O   0  0  0  0  0  0  0  0  0  0  0  0
   42.5349   12.8636   11.0548 O   0  0  0  0  0  0  0  0  0  0  0  0
   41.9436   11.5617   11.2495 C   0  0  0  0  0  0  0  0  0  0  0  0
   41.1161   10.4348   11.1151 C   0  0  0  0  0  0  0  0  0  0  0  0
   41.3615   12.7817   11.6383 C   0  0  0  0  0  0  0  0  0  0  0  0
   39.7471   10.5346   11.3503 C   0  0  0  0  0  0  0  0  0  0  0  0
   39.9878   12.8595   11.8636 C   0  0  0  0  0  0  0  0  0  0  0  0
   39.1727   11.7427   11.7253 C   0  0  0  0  0  0  0  0  0  0  0  0
   43.4028   11.1269    8.4885 N   0  0  0  0  0  0  0  0  0  0  0  0
   43.4447   11.4774   11.0494 C   0  0  2  0  0  0  0  0  0  0  0  0
   43.9260   10.6975    9.7942 C   0  0  0  0  0  0  0  0  0  0  0  0
   39.3975   14.0320   12.2368 O   0  0  0  0  0  0  0  0  0  0  0  0
   38.9941    9.4058   11.2042 O   0  0  0  0  0  0  0  0  0  0  0  0
   44.0390   10.8801   12.2118 O   0  0  0  0  0  0  0  0  0  0  0  0
   43.6983   12.5148    8.1242 C   0  0  0  0  0  0  0  0  0  0  0  0
   45.1884   12.7571    7.8803 C   0  0  0  0  0  0  0  0  0  0  0  0
   42.9053   12.8420    6.8568 C   0  0  0  0  0  0  0  0  0  0  0  0
   45.3379   12.7327    9.7831 H   0  0  0  0  0  0  0  0  0  0  0  0
   41.8756   11.2611    7.6643 H   0  0  0  0  0  0  0  0  0  0  0  0
   45.7222   11.2901    5.7537 H   0  0  0  0  0  0  0  0  0  0  0  0
   42.4120   11.4872   12.7175 H   0  0  0  0  0  0  0  0  0  0  0  0
   43.2170   12.8942   10.8120 H   0  0  0  0  0  0  0  0  0  0  0  0
   42.9441   10.2891   10.7747 H   0  0  0  0  0  0  0  0  0  0  0  0
   41.3362   10.5514   10.1348 H   0  0  0  0  0  0  0  0  0  0  0  0
   42.3100   10.4724    5.5969 H   0  0  0  0  0  0  0  0  0  0  0  0
   47.4221   12.0715    7.0354 H   0  0  0  0  0  0  0  0  0  0  0  0
   41.8994   13.7855    9.0275 H   0  0  0  0  0  0  0  0  0  0  0  0
   40.6821   13.0079   11.9956 H   0  0  0  0  0  0  0  0  0  0  0  0
   39.3298   11.5007   10.5394 H   0  0  0  0  0  0  0  0  0  0  0  0
   38.3468   12.0521   11.8925 H   0  0  0  0  0  0  0  0  0  0  0  0
   39.0186   10.4166   11.9072 H   0  0  0  0  0  0  0  0  0  0  0  0
   39.9505   11.0878   14.2602 H   0  0  0  0  0  0  0  0  0  0  0  0
   41.0739   12.4553   14.3825 H   0  0  0  0  0  0  0  0  0  0  0  0
   39.3674   12.7476   14.0524 H   0  0  0  0  0  0  0  0  0  0  0  0
   41.5524   11.5317    8.2387 H   0  0  0  0  0  0  0  0  0  0  0  0
   41.6968   12.6662   11.5158 H   0  0  0  0  0  0  0  0  0  0  0  0
   41.5290    9.4711   10.8274 H   0  0  0  0  0  0  0  0  0  0  0  0
   41.9894   13.6599   11.7652 H   0  0  0  0  0  0  0  0  0  0  0  0
   38.1078   11.8320   11.9116 H   0  0  0  0  0  0  0  0  0  0  0  0
   43.7585   10.4989    7.7661 H   0  0  0  0  0  0  0  0  0  0  0  0
   43.8550   12.4921   10.9964 H   0  0  0  0  0  0  0  0  0  0  0  0
   43.6651    9.6392    9.9214 H   0  0  0  0  0  0  0  0  0  0  0  0
   45.0237   10.6963    9.7793 H   0  0  0  0  0  0  0  0  0  0  0  0
   40.0626   14.7386   12.2063 H   0  0  0  0  0  0  0  0  0  0  0  0
   38.0645    9.6337   11.3742 H   0  0  0  0  0  0  0  0  0  0  0  0
   43.3274   10.7114   12.8539 H   0  0  0  0  0  0  0  0  0  0  0  0
   43.3452   13.1962    8.9059 H   0  0  0  0  0  0  0  0  0  0  0  0
   45.3603   13.7839    7.5393 H   0  0  0  0  0  0  0  0  0  0  0  0
   45.5825   12.0814    7.1134 H   0  0  0  0  0  0  0  0  0  0  0  0
   45.7760   12.6175    8.7927 H   0  0  0  0  0  0  0  0  0  0  0  0
   41.8337   12.6707    7.0073 H   0  0  0  0  0  0  0  0  0  0  0  0
   43.0339   13.8957    6.5881 H   0  0  0  0  0  0  0  0  0  0  0  0
   43.2289   12.2369    6.0024 H   0  0  0  0  0  0  0  0  0  0  0  0
  2  1  2  0
  3  1  1  0
  4  2  1  0
  5  3  2  0
  6  4  2  0
  7  9  1  0
  8  1  1  0
  9  8  1  0
 10  5  1  0
 11  4  1  0
 12  8  1  0
 13  7  1  0
 14 13  1  0
 15 13  1  0
  6  5  1  0
 17 16  2  0
 18 16  2  0
 19 16  1  0
 20 16  1  0
 22 21  2  0
 23 21  1  0
 24 22  1  0
 25 23  2  0
 26 24  2  0
 27 29  1  0
 28 21  1  0
 29 28  1  0
 30 25  1  0
 31 24  1  0
 32 28  1  0
 33 27  1  0
 34 33  1  0
 35 33  1  0
 26 25  1  0
  2 36  1  0
  3 37  1  0
  6 38  1  0
  7 39  1  0
  8 40  1  6
  9 41  1  0
  9 42  1  0
 10 43  1  0
 11 44  1  0
 12 45  1  0
 13 46  1  0
 14 47  1  0
 14 48  1  0
 14 49  1  0
 15 50  1  0
 15 51  1  0
 15 52  1  0
 19 53  1  0
 20 54  1  0
 22 55  1  0
 23 56  1  0
 26 57  1  0
 27 58  1  0
 28 59  1  6
 29 60  1  0
 29 61  1  0
 30 62  1  0
 31 63  1  0
 32 64  1  0
 33 65  1  0
 34 66  1  0
 34 67  1  0
 34 68  1  0
 35 69  1  0
 35 70  1  0
 35 71  1  0
M  END
> <Uni-Dock RESULT> 
ENERGY=   -4.515  LOWER_BOUND=    6.116  UPPER_BOUND=    8.542
INTER + INTRA:          -4.515
INTER:                  -4.515
INTRA:                   0.000
UNBOUND:                 0.000

$$$$

     RDKit          3D

 71 70  0  0  0  0  0  0  0  0999 V2000
   49.8126    7.8862   14.7925 C   0  0  0  0  0  0  0  0  0  0  0  0
   51.1813    7.5958   14.6787 C   0  0  0  0  0  0  0  0  0  0  0  0
   49.4011    8.8605   15.7180 C   0  0  0  0  0  0  0  0  0  0  0  0
   52.1090    8.2632   15.4740 C   0  0  0  0  0  0  0  0  0  0  0  0
   50.3479    9.5161   16.5031 C   0  0  0  0  0  0  0  0  0  0  0  0
   51.7022    9.2242   16.3910 C   0  0  0  0  0  0  0  0  0  0  0  0
   47.4935    7.4570   11.7283 N   0  0  0  0  0  0  0  0  0  0  0  0
   48.8042    7.1582   13.9256 C   0  0  2  0  0  0  0  0  0  0  0  0
   48.1466    8.1041   12.8832 C   0  0  0  0  0  0  0  0  0  0  0  0
   49.9800   10.4663   17.4095 O   0  0  0  0  0  0  0  0  0  0  0  0
   53.4257    7.9414   15.3176 O   0  0  0  0  0  0  0  0  0  0  0  0
   47.8152    6.5698   14.7766 O   0  0  0  0  0  0  0  0  0  0  0  0
   46.3377    6.6108   12.0543 C   0  0  0  0  0  0  0  0  0  0  0  0
   45.1808    7.3991   12.6715 C   0  0  0  0  0  0  0  0  0  0  0  0
   45.8656    5.9497   10.7543 C   0  0  0  0  0  0  0  0  0  0  0  0
   48.9406    7.7510   13.7962 S   0  0  0  0  0  0  0  0  0  0  0  0
   50.0563    7.6789   14.7060 O   0  0  0  0  0  0  0  0  0  0  0  0
   48.9058    8.6434   12.6645 O   0  0  0  0  0  0  0  0  0  0  0  0
   47.6498    8.0757   14.6916 O   0  0  0  0  0  0  0  0  0  0  0  0
   48.5935    6.2764   13.2669 O   0  0  0  0  0  0  0  0  0  0  0  0
   47.9270    7.4070   12.6668 C   0  0  0  0  0  0  0  0  0  0  0  0
   47.0796    8.5093   12.4682 C   0  0  0  0  0  0  0  0  0  0  0  0
   47.3484    6.1416   12.8726 C   0  0  0  0  0  0  0  0  0  0  0  0
   45.6967    8.3470   12.4896 C   0  0  0  0  0  0  0  0  0  0  0  0
   45.9612    6.0035   12.8951 C   0  0  0  0  0  0  0  0  0  0  0  0
   45.1270    7.0978   12.7022 C   0  0  0  0  0  0  0  0  0  0  0  0
   49.7342    8.8662   14.7990 N   0  0  0  0  0  0  0  0  0  0  0  0
   49.4365    7.5392   12.6005 C   0  0  2  0  0  0  0  0  0  0  0  0
   50.0536    8.7410   13.3688 C   0  0  0  0  0  0  0  0  0  0  0  0
   45.3746    4.7879   13.0977 O   0  0  0  0  0  0  0  0  0  0  0  0
   44.9245    9.4544   12.2902 O   0  0  0  0  0  0  0  0  0  0  0  0
   49.8391    7.6236   11.2250 O   0  0  0  0  0  0  0  0  0  0  0  0
   50.1350    7.7277   15.6294 C   0  0  0  0  0  0  0  0  0  0  0  0
   51.6534    7.5768   15.7319 C   0  0  0  0  0  0  0  0  0  0  0  0
   49.5391    7.9361   17.0235 C   0  0  0  0  0  0  0  0  0  0  0  0
   51.5374    6.8510   13.9703 H   0  0  0  0  0  0  0  0  0  0  0  0
   48.3425    9.0899   15.8201 H   0  0  0  0  0  0  0  0  0  0  0  0
   52.4140    9.7514   17.0173 H   0  0  0  0  0  0  0  0  0  0  0  0
   48.1847    6.8927   11.2354 H   0  0  0  0  0  0  0  0  0  0  0  0
   49.3034    6.3327   13.4018 H   0  0  0  0  0  0  0  0  0  0  0  0
   48.9294    8.7478   12.4586 H   0  0  0  0  0  0  0  0  0  0  0  0
   47.4377    8.7828   13.3737 H   0  0  0  0  0  0  0  0  0  0  0  0
   49.0250   10.6190   17.3306 H   0  0  0  0  0  0  0  0  0  0  0  0
   53.9517    8.5034   15.9124 H   0  0  0  0  0  0  0  0  0  0  0  0
   48.2833    6.2332   15.5616 H   0  0  0  0  0  0  0  0  0  0  0  0
   46.6362    5.8042   12.7333 H   0  0  0  0  0  0  0  0  0  0  0  0
   45.4362    7.7828   13.6639 H   0  0  0  0  0  0  0  0  0  0  0  0
   44.2997    6.7607   12.7893 H   0  0  0  0  0  0  0  0  0  0  0  0
   44.8939    8.2487   12.0416 H   0  0  0  0  0  0  0  0  0  0  0  0
   45.5191    6.6942   10.0296 H   0  0  0  0  0  0  0  0  0  0  0  0
   46.6711    5.3707   10.2906 H   0  0  0  0  0  0  0  0  0  0  0  0
   45.0402    5.2581   10.9497 H   0  0  0  0  0  0  0  0  0  0  0  0
   47.9546    8.6211   15.4496 H   0  0  0  0  0  0  0  0  0  0  0  0
   47.6923    6.2905   12.8908 H   0  0  0  0  0  0  0  0  0  0  0  0
   47.4876    9.5020   12.2947 H   0  0  0  0  0  0  0  0  0  0  0  0
   47.9889    5.2741   13.0096 H   0  0  0  0  0  0  0  0  0  0  0  0
   44.0513    6.9595   12.7204 H   0  0  0  0  0  0  0  0  0  0  0  0
   50.1597    9.7214   15.1601 H   0  0  0  0  0  0  0  0  0  0  0  0
   49.8924    6.6202   12.9857 H   0  0  0  0  0  0  0  0  0  0  0  0
   49.7336    9.6687   12.8778 H   0  0  0  0  0  0  0  0  0  0  0  0
   51.1418    8.7306   13.2245 H   0  0  0  0  0  0  0  0  0  0  0  0
   46.0665    4.1395   13.3057 H   0  0  0  0  0  0  0  0  0  0  0  0
   43.9907    9.1929   12.3578 H   0  0  0  0  0  0  0  0  0  0  0  0
   49.0391    7.5382   10.6773 H   0  0  0  0  0  0  0  0  0  0  0  0
   49.7061    6.8001   15.2348 H   0  0  0  0  0  0  0  0  0  0  0  0
   51.9136    6.7633   16.4180 H   0  0  0  0  0  0  0  0  0  0  0  0
   52.1210    8.4928   16.1093 H   0  0  0  0  0  0  0  0  0  0  0  0
   52.1030    7.3383   14.7633 H   0  0  0  0  0  0  0  0  0  0  0  0
   48.4508    8.0516   16.9736 H   0  0  0  0  0  0  0  0  0  0  0  0
   49.7476    7.0702   17.6604 H   0  0  0  0  0  0  0  0  0  0  0  0
   49.9520    8.8225   17.5182 H   0  0  0  0  0  0  0  0  0  0  0  0
  2  1  2  0
  3  1  1  0
  4  2  1  0
  5  3  2  0
  6  4  2  0
  7  9  1  0
  8  1  1  0
  9  8  1  0
 10  5  1  0
 11  4  1  0
 12  8  1  0
 13  7  1  0
 14 13  1  0
 15 13  1  0
  6  5  1  0
 17 16  2  0
 18 16  2  0
 19 16  1  0
 20 16  1  0
 22 21  2  0
 23 21  1  0
 24 22  1  0
 25 23  2  0
 26 24  2  0
 27 29  1  0
 28 21  1  0
 29 28  1  0
 30 25  1  0
 31 24  1  0
 32 28  1  0
 33 27  1  0
 34 33  1  0
 35 33  1  0
 26 25  1  0
  2 36  1  0
  3 37  1  0
  6 38  1  0
  7 39  1  0
  8 40  1  6
  9 41  1  0
  9 42  1  0
 10 43  1  0
 11 44  1  0
 12 45  1  0
 13 46  1  0
 14 47  1  0
 14 48  1  0
 14 49  1  0
 15 50  1  0
 15 51  1  0
 15 52  1  0
 19 53  1  0
 20 54  1  0
 22 55  1  0
 23 56  1  0
 26 57  1  0
 27 58  1  0
 28 59  1  6
 29 60  1  0
 29 61  1  0
 30 62  1  0
 31 63  1  0
 32 64  1  0
 33 65  1  0
 34 66  1  0
 34 67  1  0
 34 68  1  0
 35 69  1  0
 35 70  1  0
 35 71  1  0
M  END
> <Uni-Dock RESULT> 
ENERGY=   -4.305  LOWER_BOUND=    1.905  UPPER_BOUND=    6.123
INTER + INTRA:          -4.305
INTER:                  -4.305
INTRA:                   0.000
UNBOUND:                 0.000

$$$$

     RDKit          3D

 71 70  0  0  0  0  0  0  0  0999 V2000
   48.5515    7.4720   19.9470 C   0  0  0  0  0  0  0  0  0  0  0  0
   49.4325    6.6433   20.6597 C   0  0  0  0  0  0  0  0  0  0  0  0
   47.5929    6.8791   19.1075 C   0  0  0  0  0  0  0  0  0  0  0  0
   49.3539    5.2592   20.5301 C   0  0  0  0  0  0  0  0  0  0  0  0
   47.5326    5.4913   18.9942 C   0  0  0  0  0  0  0  0  0  0  0  0
   48.4083    4.6731   19.6982 C   0  0  0  0  0  0  0  0  0  0  0  0
   47.5527   10.9152   21.3955 N   0  0  0  0  0  0  0  0  0  0  0  0
   48.6388    8.9788   20.0894 C   0  0  2  0  0  0  0  0  0  0  0  0
   47.3993    9.5643   20.8205 C   0  0  0  0  0  0  0  0  0  0  0  0
   46.6136    4.8864   18.1884 O   0  0  0  0  0  0  0  0  0  0  0  0
   50.2342    4.5045   21.2494 O   0  0  0  0  0  0  0  0  0  0  0  0
   48.7795    9.5505   18.7849 O   0  0  0  0  0  0  0  0  0  0  0  0
   47.7916   11.9883   20.4210 C   0  0  0  0  0  0  0  0  0  0  0  0
   46.6200   12.1856   19.4570 C   0  0  0  0  0  0  0  0  0  0  0  0
   48.0274   13.2836   21.2060 C   0  0  0  0  0  0  0  0  0  0  0  0
   48.1681    8.6770   20.3617 S   0  0  0  0  0  0  0  0  0  0  0  0
   48.8389    7.4271   20.1060 O   0  0  0  0  0  0  0  0  0  0  0  0
   47.2566    8.8691   21.4619 O   0  0  0  0  0  0  0  0  0  0  0  0
   47.3693    9.0422   19.0193 O   0  0  0  0  0  0  0  0  0  0  0  0
   49.2528    9.8585   20.4135 O   0  0  0  0  0  0  0  0  0  0  0  0
   47.8896   10.1471   20.7891 C   0  0  0  0  0  0  0  0  0  0  0  0
   46.5063   10.3820   20.7272 C   0  0  0  0  0  0  0  0  0  0  0  0
   48.7540   11.0395   20.1297 C   0  0  0  0  0  0  0  0  0  0  0  0
   46.0081   11.4699   20.0146 C   0  0  0  0  0  0  0  0  0  0  0  0
   48.2327   12.1192   19.4180 C   0  0  0  0  0  0  0  0  0  0  0  0
   46.8631   12.3450   19.3564 C   0  0  0  0  0  0  0  0  0  0  0  0
   47.6534    7.0886   20.0605 N   0  0  0  0  0  0  0  0  0  0  0  0
   48.4687    9.0013   21.5965 C   0  0  2  0  0  0  0  0  0  0  0  0
   47.7729    7.6221   21.4258 C   0  0  0  0  0  0  0  0  0  0  0  0
   49.0493   12.9968   18.7656 O   0  0  0  0  0  0  0  0  0  0  0  0
   44.6551   11.6471   19.9906 O   0  0  0  0  0  0  0  0  0  0  0  0
   48.4479    9.3521   22.9886 O   0  0  0  0  0  0  0  0  0  0  0  0
   48.9224    6.8856   19.3570 C   0  0  0  0  0  0  0  0  0  0  0  0
   49.7711    5.7754   19.9781 C   0  0  0  0  0  0  0  0  0  0  0  0
   48.5974    6.5380   17.9024 C   0  0  0  0  0  0  0  0  0  0  0  0
   50.1845    7.0662   21.3222 H   0  0  0  0  0  0  0  0  0  0  0  0
   46.9086    7.5109   18.5450 H   0  0  0  0  0  0  0  0  0  0  0  0
   48.3363    3.5964   19.5874 H   0  0  0  0  0  0  0  0  0  0  0  0
   48.3228   10.9012   22.0633 H   0  0  0  0  0  0  0  0  0  0  0  0
   49.5464    9.2394   20.6493 H   0  0  0  0  0  0  0  0  0  0  0  0
   47.1556    8.9078   21.6672 H   0  0  0  0  0  0  0  0  0  0  0  0
   46.5202    9.5416   20.1645 H   0  0  0  0  0  0  0  0  0  0  0  0
   46.0274    5.5661   17.8194 H   0  0  0  0  0  0  0  0  0  0  0  0
   50.0421    3.5658   21.0814 H   0  0  0  0  0  0  0  0  0  0  0  0
   49.3698    8.9616   18.2814 H   0  0  0  0  0  0  0  0  0  0  0  0
   48.7062   11.7883   19.8515 H   0  0  0  0  0  0  0  0  0  0  0  0
   46.4977   11.3288   18.7876 H   0  0  0  0  0  0  0  0  0  0  0  0
   46.7835   13.0660   18.8277 H   0  0  0  0  0  0  0  0  0  0  0  0
   45.6777   12.3332   19.9967 H   0  0  0  0  0  0  0  0  0  0  0  0
   47.1406   13.5698   21.7817 H   0  0  0  0  0  0  0  0  0  0  0  0
   48.8663   13.1768   21.9016 H   0  0  0  0  0  0  0  0  0  0  0  0
   48.2711   14.1077   20.5284 H   0  0  0  0  0  0  0  0  0  0  0  0
   47.1048    8.1934   18.6014 H   0  0  0  0  0  0  0  0  0  0  0  0
   48.7847   10.7087   20.3040 H   0  0  0  0  0  0  0  0  0  0  0  0
   45.8056    9.7220   21.2326 H   0  0  0  0  0  0  0  0  0  0  0  0
   49.8286   10.8839   20.1823 H   0  0  0  0  0  0  0  0  0  0  0  0
   46.4864   13.1958   18.7989 H   0  0  0  0  0  0  0  0  0  0  0  0
   47.1338    6.2100   20.0922 H   0  0  0  0  0  0  0  0  0  0  0  0
   49.5269    8.8817   21.3381 H   0  0  0  0  0  0  0  0  0  0  0  0
   46.7600    7.6899   21.8424 H   0  0  0  0  0  0  0  0  0  0  0  0
   48.2740    6.8916   22.0741 H   0  0  0  0  0  0  0  0  0  0  0  0
   49.9619   12.6696   18.8170 H   0  0  0  0  0  0  0  0  0  0  0  0
   44.4576   12.4230   19.4394 H   0  0  0  0  0  0  0  0  0  0  0  0
   48.0978   10.2573   23.0599 H   0  0  0  0  0  0  0  0  0  0  0  0
   49.5008    7.8158   19.3409 H   0  0  0  0  0  0  0  0  0  0  0  0
   50.6747    5.6035   19.3830 H   0  0  0  0  0  0  0  0  0  0  0  0
   49.2192    4.8303   20.0258 H   0  0  0  0  0  0  0  0  0  0  0  0
   50.0958    6.0325   20.9909 H   0  0  0  0  0  0  0  0  0  0  0  0
   47.9849    7.3186   17.4381 H   0  0  0  0  0  0  0  0  0  0  0  0
   49.5183    6.4524   17.3162 H   0  0  0  0  0  0  0  0  0  0  0  0
   48.0576    5.5881   17.8181 H   0  0  0  0  0  0  0  0  0  0  0  0
  2  1  2  0
  3  1  1  0
  4  2  1  0
  5  3  2  0
  6  4  2  0
  7  9  1  0
  8  1  1  0
  9  8  1  0
 10  5  1  0
 11  4  1  0
 12  8  1  0
 13  7  1  0
 14 13  1  0
 15 13  1  0
  6  5  1  0
 17 16  2  0
 18 16  2  0
 19 16  1  0
 20 16  1  0
 22 21  2  0
 23 21  1  0
 24 22  1  0
 25 23  2  0
 26 24  2  0
 27 29  1  0
 28 21  1  0
 29 28  1  0
 30 25  1  0
 31 24  1  0
 32 28  1  0
 33 27  1  0
 34 33  1  0
 35 33  1  0
 26 25  1  0
  2 36  1  0
  3 37  1  0
  6 38  1  0
  7 39  1  0
  8 40  1  6
  9 41  1  0
  9 42  1  0
 10 43  1  0
 11 44  1  0
 12 45  1  0
 13 46  1  0
 14 47  1  0
 14 48  1  0
 14 49  1  0
 15 50  1  0
 15 51  1  0
 15 52  1  0
 19 53  1  0
 20 54  1  0
 22 55  1  0
 23 56  1  0
 26 57  1  0
 27 58  1  0
 28 59  1  6
 29 60  1  0
 29 61  1  0
 30 62  1  0
 31 63  1  0
 32 64  1  0
 33 65  1  0
 34 66  1  0
 34 67  1  0
 34 68  1  0
 35 69  1  0
 35 70  1  0
 35 71  1  0
M  END
> <Uni-Dock RESULT> 
ENERGY=   -4.303  LOWER_BOUND=    6.598  UPPER_BOUND=    8.827
INTER + INTRA:          -4.303
INTER:                  -4.303
INTRA:                   0.000
UNBOUND:                 0.000

$$$$

     RDKit          3D

 71 70  0  0  0  0  0  0  0  0999 V2000
   47.8771    7.1897   19.3582 C   0  0  0  0  0  0  0  0  0  0  0  0
   47.3185    6.2883   18.4383 C   0  0  0  0  0  0  0  0  0  0  0  0
   48.7476    6.6980   20.3459 C   0  0  0  0  0  0  0  0  0  0  0  0
   47.6239    4.9318   18.5109 C   0  0  0  0  0  0  0  0  0  0  0  0
   49.0391    5.3360   20.3987 C   0  0  0  0  0  0  0  0  0  0  0  0
   48.4821    4.4451   19.4889 C   0  0  0  0  0  0  0  0  0  0  0  0
   48.4861   10.8652   18.3229 N   0  0  0  0  0  0  0  0  0  0  0  0
   47.5431    8.6663   19.2774 C   0  0  2  0  0  0  0  0  0  0  0  0
   48.7713    9.5153   18.8479 C   0  0  0  0  0  0  0  0  0  0  0  0
   49.8802    4.8287   21.3447 O   0  0  0  0  0  0  0  0  0  0  0  0
   47.0537    4.1037   17.5885 O   0  0  0  0  0  0  0  0  0  0  0  0
   47.0499    9.0904   20.5523 O   0  0  0  0  0  0  0  0  0  0  0  0
   47.8698   11.7933   19.2805 C   0  0  0  0  0  0  0  0  0  0  0  0
   48.7760   12.1026   20.4738 C   0  0  0  0  0  0  0  0  0  0  0  0
   47.5561   13.0929   18.5304 C   0  0  0  0  0  0  0  0  0  0  0  0
   48.1050    8.4738   19.0930 S   0  0  0  0  0  0  0  0  0  0  0  0
   47.6392    7.1106   19.1414 O   0  0  0  0  0  0  0  0  0  0  0  0
   49.1610    8.9128   18.2152 O   0  0  0  0  0  0  0  0  0  0  0  0
   48.5479    8.8516   20.5879 O   0  0  0  0  0  0  0  0  0  0  0  0
   46.8523    9.4536   18.8789 O   0  0  0  0  0  0  0  0  0  0  0  0
   48.1855   10.0013   18.8072 C   0  0  0  0  0  0  0  0  0  0  0  0
   49.4634   10.4617   19.1644 C   0  0  0  0  0  0  0  0  0  0  0  0
   47.0606   10.6731   19.3188 C   0  0  0  0  0  0  0  0  0  0  0  0
   49.6053   11.5525   20.0185 C   0  0  0  0  0  0  0  0  0  0  0  0
   47.2266   11.7598   20.1764 C   0  0  0  0  0  0  0  0  0  0  0  0
   48.4930   12.2090   20.5301 C   0  0  0  0  0  0  0  0  0  0  0  0
   48.8351    6.9759   19.4128 N   0  0  0  0  0  0  0  0  0  0  0  0
   47.9946    8.8481   17.8407 C   0  0  2  0  0  0  0  0  0  0  0  0
   48.8859    7.5978   18.0810 C   0  0  0  0  0  0  0  0  0  0  0  0
   46.1519   12.4258   20.6904 O   0  0  0  0  0  0  0  0  0  0  0  0
   50.8719   11.9544   20.3296 O   0  0  0  0  0  0  0  0  0  0  0  0
   48.2194    9.3168   16.5025 O   0  0  0  0  0  0  0  0  0  0  0  0
   47.5135    6.4999   19.8287 C   0  0  0  0  0  0  0  0  0  0  0  0
   47.0200    5.3197   18.9906 C   0  0  0  0  0  0  0  0  0  0  0  0
   47.6091    6.0877   21.2994 C   0  0  0  0  0  0  0  0  0  0  0  0
   46.6442    6.6330   17.6574 H   0  0  0  0  0  0  0  0  0  0  0  0
   49.1818    7.3856   21.0686 H   0  0  0  0  0  0  0  0  0  0  0  0
   48.7282    3.3908   19.5574 H   0  0  0  0  0  0  0  0  0  0  0  0
   47.8758   10.7784   17.5110 H   0  0  0  0  0  0  0  0  0  0  0  0
   46.7289    8.8164   18.5566 H   0  0  0  0  0  0  0  0  0  0  0  0
   49.2909    8.9858   18.0373 H   0  0  0  0  0  0  0  0  0  0  0  0
   49.4958    9.5856   19.6688 H   0  0  0  0  0  0  0  0  0  0  0  0
   50.2486    5.5635   21.8605 H   0  0  0  0  0  0  0  0  0  0  0  0
   47.3791    3.2003   17.7445 H   0  0  0  0  0  0  0  0  0  0  0  0
   46.4920    8.3683   20.8929 H   0  0  0  0  0  0  0  0  0  0  0  0
   46.9151   11.3921   19.6385 H   0  0  0  0  0  0  0  0  0  0  0  0
   48.9221   11.2243   21.1097 H   0  0  0  0  0  0  0  0  0  0  0  0
   48.3347   12.8844   21.0997 H   0  0  0  0  0  0  0  0  0  0  0  0
   49.7614   12.4545   20.1479 H   0  0  0  0  0  0  0  0  0  0  0  0
   48.4694   13.5745   18.1649 H   0  0  0  0  0  0  0  0  0  0  0  0
   46.9019   12.9056   17.6725 H   0  0  0  0  0  0  0  0  0  0  0  0
   47.0384   13.8015   19.1843 H   0  0  0  0  0  0  0  0  0  0  0  0
   48.8781    8.0271   21.0076 H   0  0  0  0  0  0  0  0  0  0  0  0
   47.1257   10.3583   19.1254 H   0  0  0  0  0  0  0  0  0  0  0  0
   50.3579    9.9769   18.7813 H   0  0  0  0  0  0  0  0  0  0  0  0
   46.0639   10.3421   19.0383 H   0  0  0  0  0  0  0  0  0  0  0  0
   48.5915   13.0598   21.1957 H   0  0  0  0  0  0  0  0  0  0  0  0
   49.5037    6.2047   19.4442 H   0  0  0  0  0  0  0  0  0  0  0  0
   46.9468    8.5283   17.8694 H   0  0  0  0  0  0  0  0  0  0  0  0
   49.9302    7.8728   17.8858 H   0  0  0  0  0  0  0  0  0  0  0  0
   48.6629    6.8518   17.3072 H   0  0  0  0  0  0  0  0  0  0  0  0
   45.3426   11.9539   20.4357 H   0  0  0  0  0  0  0  0  0  0  0  0
   50.8128   12.7018   20.9483 H   0  0  0  0  0  0  0  0  0  0  0  0
   48.4040   10.2711   16.5507 H   0  0  0  0  0  0  0  0  0  0  0  0
   46.7817    7.3132   19.7725 H   0  0  0  0  0  0  0  0  0  0  0  0
   46.0658    4.9456   19.3774 H   0  0  0  0  0  0  0  0  0  0  0  0
   47.7351    4.4899   19.0097 H   0  0  0  0  0  0  0  0  0  0  0  0
   46.8558    5.6047   17.9470 H   0  0  0  0  0  0  0  0  0  0  0  0
   47.9659    6.9179   21.9189 H   0  0  0  0  0  0  0  0  0  0  0  0
   46.6240    5.7963   21.6784 H   0  0  0  0  0  0  0  0  0  0  0  0
   48.2878    5.2398   21.4449 H   0  0  0  0  0  0  0  0  0  0  0  0
  2  1  2  0
  3  1  1  0
  4  2  1  0
  5  3  2  0
  6  4  2  0
  7  9  1  0
  8  1  1  0
  9  8  1  0
 10  5  1  0
 11  4  1  0
 12  8  1  0
 13  7  1  0
 14 13  1  0
 15 13  1  0
  6  5  1  0
 17 16  2  0
 18 16  2  0
 19 16  1  0
 20 16  1  0
 22 21  2  0
 23 21  1  0
 24 22  1  0
 25 23  2  0
 26 24  2  0
 27 29  1  0
 28 21  1  0
 29 28  1  0
 30 25  1  0
 31 24  1  0
 32 28  1  0
 33 27  1  0
 34 33  1  0
 35 33  1  0
 26 25  1  0
  2 36  1  0
  3 37  1  0
  6 38  1  0
  7 39  1  0
  8 40  1  6
  9 41  1  0
  9 42  1  0
 10 43  1  0
 11 44  1  0
 12 45  1  0
 13 46  1  0
 14 47  1  0
 14 48  1  0
 14 49  1  0
 15 50  1  0
 15 51  1  0
 15 52  1  0
 19 53  1  0
 20 54  1  0
 22 55  1  0
 23 56  1  0
 26 57  1  0
 27 58  1  0
 28 59  1  6
 29 60  1  0
 29 61  1  0
 30 62  1  0
 31 63  1  0
 32 64  1  0
 33 65  1  0
 34 66  1  0
 34 67  1  0
 34 68  1  0
 35 69  1  0
 35 70  1  0
 35 71  1  0
M  END
> <Uni-Dock RESULT> 
ENERGY=   -4.267  LOWER_BOUND=    6.082  UPPER_BOUND=    7.812
INTER + INTRA:          -4.267
INTER:                  -4.267
INTRA:                   0.000
UNBOUND:                 0.000

$$$$

     RDKit          3D

 71 70  0  0  0  0  0  0  0  0999 V2000
   48.0105    7.7771   20.9623 C   0  0  0  0  0  0  0  0  0  0  0  0
   47.3184    7.8875   22.1786 C   0  0  0  0  0  0  0  0  0  0  0  0
   48.9573    8.7610   20.6294 C   0  0  0  0  0  0  0  0  0  0  0  0
   47.5687    8.9572   23.0341 C   0  0  0  0  0  0  0  0  0  0  0  0
   49.1916    9.8224   21.5018 C   0  0  0  0  0  0  0  0  0  0  0  0
   48.5025    9.9313   22.7040 C   0  0  0  0  0  0  0  0  0  0  0  0
   48.6710    4.2870   19.4345 N   0  0  0  0  0  0  0  0  0  0  0  0
   47.7363    6.6117   20.0322 C   0  0  2  0  0  0  0  0  0  0  0  0
   48.9492    5.6450   19.9418 C   0  0  0  0  0  0  0  0  0  0  0  0
   50.1040   10.7922   21.2073 O   0  0  0  0  0  0  0  0  0  0  0  0
   46.8681    9.0106   24.2037 O   0  0  0  0  0  0  0  0  0  0  0  0
   47.3996    7.1306   18.7416 O   0  0  0  0  0  0  0  0  0  0  0  0
   48.2011    4.2209   18.0441 C   0  0  0  0  0  0  0  0  0  0  0  0
   49.2408    4.7264   17.0420 C   0  0  0  0  0  0  0  0  0  0  0  0
   47.8686    2.7565   17.7361 C   0  0  0  0  0  0  0  0  0  0  0  0
   48.2665    6.6197   20.3573 S   0  0  0  0  0  0  0  0  0  0  0  0
   47.7478    7.7052   21.1512 O   0  0  0  0  0  0  0  0  0  0  0  0
   49.2427    5.6811   20.8515 O   0  0  0  0  0  0  0  0  0  0  0  0
   48.8807    7.2841   19.0326 O   0  0  0  0  0  0  0  0  0  0  0  0
   47.0433    5.7779   19.7488 O   0  0  0  0  0  0  0  0  0  0  0  0
   48.3847    5.2686   19.5944 C   0  0  0  0  0  0  0  0  0  0  0  0
   49.7124    5.1053   19.1665 C   0  0  0  0  0  0  0  0  0  0  0  0
   47.3511    5.1266   18.6510 C   0  0  0  0  0  0  0  0  0  0  0  0
   49.9922    4.8224   17.8319 C   0  0  0  0  0  0  0  0  0  0  0  0
   47.6549    4.8483   17.3190 C   0  0  0  0  0  0  0  0  0  0  0  0
   48.9704    4.6916   16.8998 C   0  0  0  0  0  0  0  0  0  0  0  0
   48.9584    7.9424   21.1638 N   0  0  0  0  0  0  0  0  0  0  0  0
   48.0416    5.5281   21.0488 C   0  0  2  0  0  0  0  0  0  0  0  0
   48.8965    6.6052   21.7730 C   0  0  0  0  0  0  0  0  0  0  0  0
   46.6712    4.7105   16.3831 O   0  0  0  0  0  0  0  0  0  0  0  0
   51.3011    4.6741   17.4755 O   0  0  0  0  0  0  0  0  0  0  0  0
   48.1450    4.2974   21.7809 O   0  0  0  0  0  0  0  0  0  0  0  0
   47.6679    8.6194   21.0133 C   0  0  0  0  0  0  0  0  0  0  0  0
   47.0367    8.9929   22.3552 C   0  0  0  0  0  0  0  0  0  0  0  0
   47.8994    9.8818   20.1796 C   0  0  0  0  0  0  0  0  0  0  0  0
   46.5817    7.1428   22.4718 H   0  0  0  0  0  0  0  0  0  0  0  0
   49.4956    8.6900   19.6865 H   0  0  0  0  0  0  0  0  0  0  0  0
   48.7071   10.7702   23.3606 H   0  0  0  0  0  0  0  0  0  0  0  0
   47.9753    3.8486   20.0370 H   0  0  0  0  0  0  0  0  0  0  0  0
   46.8582    6.0589   20.3906 H   0  0  0  0  0  0  0  0  0  0  0  0
   49.3563    5.5060   20.9529 H   0  0  0  0  0  0  0  0  0  0  0  0
   49.7585    6.0979   19.3556 H   0  0  0  0  0  0  0  0  0  0  0  0
   50.5572   10.5536   20.3830 H   0  0  0  0  0  0  0  0  0  0  0  0
   47.1674    9.7884   24.7054 H   0  0  0  0  0  0  0  0  0  0  0  0
   46.8489    7.9202   18.8903 H   0  0  0  0  0  0  0  0  0  0  0  0
   47.2724    4.7909   17.9289 H   0  0  0  0  0  0  0  0  0  0  0  0
   49.4136    5.8019   17.1456 H   0  0  0  0  0  0  0  0  0  0  0  0
   48.9033    4.5512   16.0157 H   0  0  0  0  0  0  0  0  0  0  0  0
   50.2012    4.2137   17.1681 H   0  0  0  0  0  0  0  0  0  0  0  0
   48.7590    2.1218   17.8004 H   0  0  0  0  0  0  0  0  0  0  0  0
   47.1200    2.3663   18.4335 H   0  0  0  0  0  0  0  0  0  0  0  0
   47.4549    2.6576   16.7277 H   0  0  0  0  0  0  0  0  0  0  0  0
   49.2161    8.1724   19.2847 H   0  0  0  0  0  0  0  0  0  0  0  0
   47.3813    5.2390   19.0077 H   0  0  0  0  0  0  0  0  0  0  0  0
   50.5390    5.1960   19.8668 H   0  0  0  0  0  0  0  0  0  0  0  0
   46.3166    5.2313   18.9680 H   0  0  0  0  0  0  0  0  0  0  0  0
   49.1764    4.4709   15.8580 H   0  0  0  0  0  0  0  0  0  0  0  0
   49.5914    8.5273   21.7117 H   0  0  0  0  0  0  0  0  0  0  0  0
   46.9894    5.8261   21.1195 H   0  0  0  0  0  0  0  0  0  0  0  0
   49.9256    6.2337   21.8566 H   0  0  0  0  0  0  0  0  0  0  0  0
   48.5600    6.6803   22.8152 H   0  0  0  0  0  0  0  0  0  0  0  0
   45.8193    4.9328   16.7921 H   0  0  0  0  0  0  0  0  0  0  0  0
   51.3410    4.5073   16.5186 H   0  0  0  0  0  0  0  0  0  0  0  0
   48.3762    3.5955   21.1476 H   0  0  0  0  0  0  0  0  0  0  0  0
   46.9715    7.9888   20.4500 H   0  0  0  0  0  0  0  0  0  0  0  0
   46.1128    9.5609   22.2008 H   0  0  0  0  0  0  0  0  0  0  0  0
   47.7119    9.6127   22.9553 H   0  0  0  0  0  0  0  0  0  0  0  0
   46.7764    8.1062   22.9410 H   0  0  0  0  0  0  0  0  0  0  0  0
   48.3562    9.6382   19.2142 H   0  0  0  0  0  0  0  0  0  0  0  0
   46.9476   10.3828   19.9744 H   0  0  0  0  0  0  0  0  0  0  0  0
   48.5510   10.5985   20.6921 H   0  0  0  0  0  0  0  0  0  0  0  0
  2  1  2  0
  3  1  1  0
  4  2  1  0
  5  3  2  0
  6  4  2  0
  7  9  1  0
  8  1  1  0
  9  8  1  0
 10  5  1  0
 11  4  1  0
 12  8  1  0
 13  7  1  0
 14 13  1  0
 15 13  1  0
  6  5  1  0
 17 16  2  0
 18 16  2  0
 19 16  1  0
 20 16  1  0
 22 21  2  0
 23 21  1  0
 24 22  1  0
 25 23  2  0
 26 24  2  0
 27 29  1  0
 28 21  1  0
 29 28  1  0
 30 25  1  0
 31 24  1  0
 32 28  1  0
 33 27  1  0
 34 33  1  0
 35 33  1  0
 26 25  1  0
  2 36  1  0
  3 37  1  0
  6 38  1  0
  7 39  1  0
  8 40  1  6
  9 41  1  0
  9 42  1  0
 10 43  1  0
 11 44  1  0
 12 45  1  0
 13 46  1  0
 14 47  1  0
 14 48  1  0
 14 49  1  0
 15 50  1  0
 15 51  1  0
 15 52  1  0
 19 53  1  0
 20 54  1  0
 22 55  1  0
 23 56  1  0
 26 57  1  0
 27 58  1  0
 28 59  1  6
 29 60  1  0
 29 61  1  0
 30 62  1  0
 31 63  1  0
 32 64  1  0
 33 65  1  0
 34 66  1  0
 34 67  1  0
 34 68  1  0
 35 69  1  0
 35 70  1  0
 35 71  1  0
M  END
> <Uni-Dock RESULT> 
ENERGY=   -4.226  LOWER_BOUND=    6.321  UPPER_BOUND=    9.134
INTER + INTRA:          -4.226
INTER:                  -4.226
INTRA:                   0.000
UNBOUND:                 0.000

$$$$

     RDKit          3D

 71 70  0  0  0  0  0  0  0  0999 V2000
   48.0427   10.8089   20.3623 C   0  0  0  0  0  0  0  0  0  0  0  0
   48.7152   11.7559   21.1507 C   0  0  0  0  0  0  0  0  0  0  0  0
   47.3020   11.2532   19.2536 C   0  0  0  0  0  0  0  0  0  0  0  0
   48.6432   13.1102   20.8354 C   0  0  0  0  0  0  0  0  0  0  0  0
   47.2448   12.6138   18.9570 C   0  0  0  0  0  0  0  0  0  0  0  0
   47.9087   13.5498   19.7412 C   0  0  0  0  0  0  0  0  0  0  0  0
   49.4363    7.2143   20.0653 N   0  0  0  0  0  0  0  0  0  0  0  0
   48.1225    9.3348   20.7074 C   0  0  2  0  0  0  0  0  0  0  0  0
   48.9249    8.5338   19.6453 C   0  0  0  0  0  0  0  0  0  0  0  0
   46.5350   13.0758   17.8880 O   0  0  0  0  0  0  0  0  0  0  0  0
   49.3196   13.9840   21.6358 O   0  0  0  0  0  0  0  0  0  0  0  0
   46.7908    8.8254   20.8325 O   0  0  0  0  0  0  0  0  0  0  0  0
   48.4075    6.2193   20.3964 C   0  0  0  0  0  0  0  0  0  0  0  0
   47.5301    5.8520   19.1980 C   0  0  0  0  0  0  0  0  0  0  0  0
   49.1238    4.9633   20.9055 C   0  0  0  0  0  0  0  0  0  0  0  0
   48.4411    9.5474   20.2175 S   0  0  0  0  0  0  0  0  0  0  0  0
   48.1806   10.8973   20.6505 O   0  0  0  0  0  0  0  0  0  0  0  0
   49.6005    9.1802   19.4434 O   0  0  0  0  0  0  0  0  0  0  0  0
   47.1518    9.0858   19.3820 O   0  0  0  0  0  0  0  0  0  0  0  0
   48.3656    8.5624   21.4821 O   0  0  0  0  0  0  0  0  0  0  0  0
   48.8343    8.0418   20.2204 C   0  0  0  0  0  0  0  0  0  0  0  0
   48.8708    7.5811   18.8941 C   0  0  0  0  0  0  0  0  0  0  0  0
   48.0779    7.3218   21.1626 C   0  0  0  0  0  0  0  0  0  0  0  0
   48.1592    6.4425   18.5246 C   0  0  0  0  0  0  0  0  0  0  0  0
   47.3694    6.1873   20.7691 C   0  0  0  0  0  0  0  0  0  0  0  0
   47.4053    5.7379   19.4548 C   0  0  0  0  0  0  0  0  0  0  0  0
   48.2391   11.0344   19.4258 N   0  0  0  0  0  0  0  0  0  0  0  0
   49.6363    9.2490   20.6677 C   0  0  2  0  0  0  0  0  0  0  0  0
   49.5706   10.4964   19.7431 C   0  0  0  0  0  0  0  0  0  0  0  0
   46.6240    5.4737   21.6623 O   0  0  0  0  0  0  0  0  0  0  0  0
   48.2331    6.0428   17.2218 O   0  0  0  0  0  0  0  0  0  0  0  0
   51.0120    8.8670   20.8193 O   0  0  0  0  0  0  0  0  0  0  0  0
   47.4478   11.4626   20.5820 C   0  0  0  0  0  0  0  0  0  0  0  0
   48.0420   12.6839   21.2849 C   0  0  0  0  0  0  0  0  0  0  0  0
   46.0364   11.7852   20.0860 C   0  0  0  0  0  0  0  0  0  0  0  0
   49.3018   11.4489   22.0138 H   0  0  0  0  0  0  0  0  0  0  0  0
   46.7711   10.5296   18.6386 H   0  0  0  0  0  0  0  0  0  0  0  0
   47.8435   14.6017   19.4844 H   0  0  0  0  0  0  0  0  0  0  0  0
   50.0428    7.3409   20.8748 H   0  0  0  0  0  0  0  0  0  0  0  0
   48.6007    9.2161   21.6884 H   0  0  0  0  0  0  0  0  0  0  0  0
   49.8115    9.1205   19.3674 H   0  0  0  0  0  0  0  0  0  0  0  0
   48.3400    8.4251   18.7235 H   0  0  0  0  0  0  0  0  0  0  0  0
   46.1876   12.3167   17.3932 H   0  0  0  0  0  0  0  0  0  0  0  0
   49.2016   14.8812   21.2789 H   0  0  0  0  0  0  0  0  0  0  0  0
   46.2653    9.5161   21.2746 H   0  0  0  0  0  0  0  0  0  0  0  0
   47.7769    6.5822   21.2157 H   0  0  0  0  0  0  0  0  0  0  0  0
   46.9041    6.6919   18.8819 H   0  0  0  0  0  0  0  0  0  0  0  0
   46.8582    5.0262   19.4515 H   0  0  0  0  0  0  0  0  0  0  0  0
   48.1351    5.5368   18.3402 H   0  0  0  0  0  0  0  0  0  0  0  0
   49.7553    4.5199   20.1281 H   0  0  0  0  0  0  0  0  0  0  0  0
   49.7561    5.1922   21.7697 H   0  0  0  0  0  0  0  0  0  0  0  0
   48.3995    4.2075   21.2248 H   0  0  0  0  0  0  0  0  0  0  0  0
   46.7871    9.8882   18.9482 H   0  0  0  0  0  0  0  0  0  0  0  0
   48.2614    7.6489   21.1527 H   0  0  0  0  0  0  0  0  0  0  0  0
   49.4526    8.1030   18.1385 H   0  0  0  0  0  0  0  0  0  0  0  0
   48.0531    7.6531   22.1976 H   0  0  0  0  0  0  0  0  0  0  0  0
   46.8475    4.8495   19.1785 H   0  0  0  0  0  0  0  0  0  0  0  0
   48.3431   11.8131   18.7733 H   0  0  0  0  0  0  0  0  0  0  0  0
   49.3016    9.5493   21.6670 H   0  0  0  0  0  0  0  0  0  0  0  0
   50.0614   10.2509   18.7928 H   0  0  0  0  0  0  0  0  0  0  0  0
   50.2047   11.2848   20.1690 H   0  0  0  0  0  0  0  0  0  0  0  0
   46.6169    5.9471   22.5099 H   0  0  0  0  0  0  0  0  0  0  0  0
   47.6706    5.2579   17.1099 H   0  0  0  0  0  0  0  0  0  0  0  0
   51.0768    7.9146   20.6297 H   0  0  0  0  0  0  0  0  0  0  0  0
   47.3529   10.6425   21.3021 H   0  0  0  0  0  0  0  0  0  0  0  0
   47.3857   13.0179   22.0960 H   0  0  0  0  0  0  0  0  0  0  0  0
   48.1669   13.5224   20.5911 H   0  0  0  0  0  0  0  0  0  0  0  0
   49.0166   12.4608   21.7296 H   0  0  0  0  0  0  0  0  0  0  0  0
   45.5923   10.9245   19.5740 H   0  0  0  0  0  0  0  0  0  0  0  0
   45.3844   12.0368   20.9290 H   0  0  0  0  0  0  0  0  0  0  0  0
   46.0289   12.6335   19.3924 H   0  0  0  0  0  0  0  0  0  0  0  0
  2  1  2  0
  3  1  1  0
  4  2  1  0
  5  3  2  0
  6  4  2  0
  7  9  1  0
  8  1  1  0
  9  8  1  0
 10  5  1  0
 11  4  1  0
 12  8  1  0
 13  7  1  0
 14 13  1  0
 15 13  1  0
  6  5  1  0
 17 16  2  0
 18 16  2  0
 19 16  1  0
 20 16  1  0
 22 21  2  0
 23 21  1  0
 24 22  1  0
 25 23  2  0
 26 24  2  0
 27 29  1  0
 28 21  1  0
 29 28  1  0
 30 25  1  0
 31 24  1  0
 32 28  1  0
 33 27  1  0
 34 33  1  0
 35 33  1  0
 26 25  1  0
  2 36  1  0
  3 37  1  0
  6 38  1  0
  7 39  1  0
  8 40  1  6
  9 41  1  0
  9 42  1  0
 10 43  1  0
 11 44  1  0
 12 45  1  0
 13 46  1  0
 14 47  1  0
 14 48  1  0
 14 49  1  0
 15 50  1  0
 15 51  1  0
 15 52  1  0
 19 53  1  0
 20 54  1  0
 22 55  1  0
 23 56  1  0
 26 57  1  0
 27 58  1  0
 28 59  1  6
 29 60  1  0
 29 61  1  0
 30 62  1  0
 31 63  1  0
 32 64  1  0
 33 65  1  0
 34 66  1  0
 34 67  1  0
 34 68  1  0
 35 69  1  0
 35 70  1  0
 35 71  1  0
M  END
> <Uni-Dock RESULT> 
ENERGY=   -4.209  LOWER_BOUND=    6.704  UPPER_BOUND=    9.460
INTER + INTRA:          -4.209
INTER:                  -4.209
INTRA:                   0.000
UNBOUND:                 0.000

$$$$

     RDKit          3D

 71 70  0  0  0  0  0  0  0  0999 V2000
   48.9473    9.1679   17.2595 C   0  0  0  0  0  0  0  0  0  0  0  0
   49.8445    8.0933   17.1540 C   0  0  0  0  0  0  0  0  0  0  0  0
   48.0753    9.4304   16.1890 C   0  0  0  0  0  0  0  0  0  0  0  0
   49.8663    7.3072   16.0050 C   0  0  0  0  0  0  0  0  0  0  0  0
   48.1148    8.6295   15.0490 C   0  0  0  0  0  0  0  0  0  0  0  0
   49.0064    7.5683   14.9456 C   0  0  0  0  0  0  0  0  0  0  0  0
   47.6454   10.2533   20.7349 N   0  0  0  0  0  0  0  0  0  0  0  0
   48.9254   10.0226   18.5115 C   0  0  2  0  0  0  0  0  0  0  0  0
   47.6132    9.8306   19.3208 C   0  0  0  0  0  0  0  0  0  0  0  0
   47.2813    8.8587   13.9942 O   0  0  0  0  0  0  0  0  0  0  0  0
   50.7573    6.2748   15.9603 O   0  0  0  0  0  0  0  0  0  0  0  0
   49.0940   11.3915   18.1294 O   0  0  0  0  0  0  0  0  0  0  0  0
   47.8610   11.6896   20.9554 C   0  0  0  0  0  0  0  0  0  0  0  0
   46.7299   12.5525   20.3926 C   0  0  0  0  0  0  0  0  0  0  0  0
   47.9682   11.9157   22.4678 C   0  0  0  0  0  0  0  0  0  0  0  0
   48.4627    9.6185   18.4141 S   0  0  0  0  0  0  0  0  0  0  0  0
   49.2285    9.0180   17.3508 O   0  0  0  0  0  0  0  0  0  0  0  0
   47.4849    8.8924   19.1854 O   0  0  0  0  0  0  0  0  0  0  0  0
   47.7111   10.8810   17.7701 O   0  0  0  0  0  0  0  0  0  0  0  0
   49.4610   10.3385   19.4437 O   0  0  0  0  0  0  0  0  0  0  0  0
   48.0640   10.2294   19.7886 C   0  0  0  0  0  0  0  0  0  0  0  0
   46.6730   10.4221   19.8118 C   0  0  0  0  0  0  0  0  0  0  0  0
   48.8990   11.3102   20.1248 C   0  0  0  0  0  0  0  0  0  0  0  0
   46.1399   11.6638   20.1482 C   0  0  0  0  0  0  0  0  0  0  0  0
   48.3433   12.5459   20.4535 C   0  0  0  0  0  0  0  0  0  0  0  0
   46.9665   12.7327   20.4710 C   0  0  0  0  0  0  0  0  0  0  0  0
   48.0725    8.8321   16.9621 N   0  0  0  0  0  0  0  0  0  0  0  0
   48.6769    8.8779   19.4751 C   0  0  2  0  0  0  0  0  0  0  0  0
   48.0854    8.1244   18.2513 C   0  0  0  0  0  0  0  0  0  0  0  0
   49.1312   13.6118   20.7787 O   0  0  0  0  0  0  0  0  0  0  0  0
   44.7810   11.7906   20.1539 O   0  0  0  0  0  0  0  0  0  0  0  0
   48.5609    8.0322   20.6295 O   0  0  0  0  0  0  0  0  0  0  0  0
   49.3868    9.2477   16.4657 C   0  0  0  0  0  0  0  0  0  0  0  0
   50.2755    8.0632   16.0836 C   0  0  0  0  0  0  0  0  0  0  0  0
   49.1612   10.1422   15.2446 C   0  0  0  0  0  0  0  0  0  0  0  0
   50.5312    7.8573   17.9640 H   0  0  0  0  0  0  0  0  0  0  0  0
   47.3798   10.2644   16.2561 H   0  0  0  0  0  0  0  0  0  0  0  0
   49.0129    6.9645   14.0444 H   0  0  0  0  0  0  0  0  0  0  0  0
   48.3793    9.7338   21.2152 H   0  0  0  0  0  0  0  0  0  0  0  0
   49.7833    9.7622   19.1449 H   0  0  0  0  0  0  0  0  0  0  0  0
   47.3712    8.7589   19.3374 H   0  0  0  0  0  0  0  0  0  0  0  0
   46.7725   10.3170   18.8107 H   0  0  0  0  0  0  0  0  0  0  0  0
   46.6703    9.5749   14.2296 H   0  0  0  0  0  0  0  0  0  0  0  0
   50.6379    5.8028   15.1181 H   0  0  0  0  0  0  0  0  0  0  0  0
   49.7478   11.4040   17.4074 H   0  0  0  0  0  0  0  0  0  0  0  0
   48.8151   12.0028   20.5167 H   0  0  0  0  0  0  0  0  0  0  0  0
   46.7002   12.5185   19.2993 H   0  0  0  0  0  0  0  0  0  0  0  0
   46.8657   13.6000   20.6793 H   0  0  0  0  0  0  0  0  0  0  0  0
   45.7533   12.2286   20.7698 H   0  0  0  0  0  0  0  0  0  0  0  0
   47.0357   11.6529   22.9787 H   0  0  0  0  0  0  0  0  0  0  0  0
   48.7756   11.3157   22.9005 H   0  0  0  0  0  0  0  0  0  0  0  0
   48.1903   12.9646   22.6873 H   0  0  0  0  0  0  0  0  0  0  0  0
   47.5264   10.6583   16.8313 H   0  0  0  0  0  0  0  0  0  0  0  0
   48.9429   10.9647   19.9852 H   0  0  0  0  0  0  0  0  0  0  0  0
   45.9934    9.6089   19.5693 H   0  0  0  0  0  0  0  0  0  0  0  0
   49.9775   11.1742   20.1302 H   0  0  0  0  0  0  0  0  0  0  0  0
   46.5624   13.7041   20.7351 H   0  0  0  0  0  0  0  0  0  0  0  0
   47.6125    8.2438   16.2656 H   0  0  0  0  0  0  0  0  0  0  0  0
   49.7526    9.0040   19.3085 H   0  0  0  0  0  0  0  0  0  0  0  0
   47.0502    7.8438   18.4830 H   0  0  0  0  0  0  0  0  0  0  0  0
   48.6007    7.1606   18.1478 H   0  0  0  0  0  0  0  0  0  0  0  0
   50.0599   13.3664   20.6383 H   0  0  0  0  0  0  0  0  0  0  0  0
   44.5602   12.7099   20.3798 H   0  0  0  0  0  0  0  0  0  0  0  0
   48.1473    8.5551   21.3385 H   0  0  0  0  0  0  0  0  0  0  0  0
   49.9011    9.8572   17.2167 H   0  0  0  0  0  0  0  0  0  0  0  0
   51.2179    8.4140   15.6491 H   0  0  0  0  0  0  0  0  0  0  0  0
   49.7869    7.4200   15.3436 H   0  0  0  0  0  0  0  0  0  0  0  0
   50.5296    7.4504   16.9537 H   0  0  0  0  0  0  0  0  0  0  0  0
   48.5221   10.9962   15.4944 H   0  0  0  0  0  0  0  0  0  0  0  0
   50.1147   10.5415   14.8834 H   0  0  0  0  0  0  0  0  0  0  0  0
   48.6918    9.5974   14.4177 H   0  0  0  0  0  0  0  0  0  0  0  0
  2  1  2  0
  3  1  1  0
  4  2  1  0
  5  3  2  0
  6  4  2  0
  7  9  1  0
  8  1  1  0
  9  8  1  0
 10  5  1  0
 11  4  1  0
 12  8  1  0
 13  7  1  0
 14 13  1  0
 15 13  1  0
  6  5  1  0
 17 16  2  0
 18 16  2  0
 19 16  1  0
 20 16  1  0
 22 21  2  0
 23 21  1  0
 24 22  1  0
 25 23  2  0
 26 24  2  0
 27 29  1  0
 28 21  1  0
 29 28  1  0
 30 25  1  0
 31 24  1  0
 32 28  1  0
 33 27  1  0
 34 33  1  0
 35 33  1  0
 26 25  1  0
  2 36  1  0
  3 37  1  0
  6 38  1  0
  7 39  1  0
  8 40  1  6
  9 41  1  0
  9 42  1  0
 10 43  1  0
 11 44  1  0
 12 45  1  0
 13 46  1  0
 14 47  1  0
 14 48  1  0
 14 49  1  0
 15 50  1  0
 15 51  1  0
 15 52  1  0
 19 53  1  0
 20 54  1  0
 22 55  1  0
 23 56  1  0
 26 57  1  0
 27 58  1  0
 28 59  1  6
 29 60  1  0
 29 61  1  0
 30 62  1  0
 31 63  1  0
 32 64  1  0
 33 65  1  0
 34 66  1  0
 34 67  1  0
 34 68  1  0
 35 69  1  0
 35 70  1  0
 35 71  1  0
M  END
> <Uni-Dock RESULT> 
ENERGY=   -4.183  LOWER_BOUND=    5.156  UPPER_BOUND=    7.967
INTER + INTRA:          -4.183
INTER:                  -4.183
INTRA:                   0.000
UNBOUND:                 0.000

$$$$

     RDKit          3D

 71 70  0  0  0  0  0  0  0  0999 V2000
   49.3497    8.1129   18.6235 C   0  0  0  0  0  0  0  0  0  0  0  0
   50.5296    8.8039   18.9416 C   0  0  0  0  0  0  0  0  0  0  0  0
   48.1709    8.8474   18.4090 C   0  0  0  0  0  0  0  0  0  0  0  0
   50.5241   10.1925   19.0437 C   0  0  0  0  0  0  0  0  0  0  0  0
   48.1896   10.2370   18.5160 C   0  0  0  0  0  0  0  0  0  0  0  0
   49.3583   10.9186   18.8344 C   0  0  0  0  0  0  0  0  0  0  0  0
   49.5428    4.7415   16.7400 N   0  0  0  0  0  0  0  0  0  0  0  0
   49.3580    6.6009   18.5130 C   0  0  2  0  0  0  0  0  0  0  0  0
   49.1352    6.1258   17.0507 C   0  0  0  0  0  0  0  0  0  0  0  0
   47.0625   10.9775   18.3132 O   0  0  0  0  0  0  0  0  0  0  0  0
   51.7010   10.8099   19.3526 O   0  0  0  0  0  0  0  0  0  0  0  0
   48.3467    6.0770   19.3798 O   0  0  0  0  0  0  0  0  0  0  0  0
   48.8000    3.6938   17.4536 C   0  0  0  0  0  0  0  0  0  0  0  0
   47.3125    3.6736   17.0966 C   0  0  0  0  0  0  0  0  0  0  0  0
   49.4295    2.3458   17.0844 C   0  0  0  0  0  0  0  0  0  0  0  0
   49.3237    6.9410   17.9934 S   0  0  0  0  0  0  0  0  0  0  0  0
   49.6527    8.1179   18.7578 O   0  0  0  0  0  0  0  0  0  0  0  0
   49.6316    6.8027   16.5919 O   0  0  0  0  0  0  0  0  0  0  0  0
   47.7414    6.7295   18.1510 O   0  0  0  0  0  0  0  0  0  0  0  0
   49.8912    5.6438   18.7488 O   0  0  0  0  0  0  0  0  0  0  0  0
   49.3431    5.4936   17.4224 C   0  0  0  0  0  0  0  0  0  0  0  0
   48.4411    5.4189   16.3484 C   0  0  0  0  0  0  0  0  0  0  0  0
   49.2440    4.5406   18.4521 C   0  0  0  0  0  0  0  0  0  0  0  0
   47.4635    4.4275   16.3178 C   0  0  0  0  0  0  0  0  0  0  0  0
   48.2541    3.5600   18.4031 C   0  0  0  0  0  0  0  0  0  0  0  0
   47.3615    3.4927   17.3404 C   0  0  0  0  0  0  0  0  0  0  0  0
   48.9420    8.5893   17.8664 N   0  0  0  0  0  0  0  0  0  0  0  0
   50.4505    6.5291   17.4633 C   0  0  2  0  0  0  0  0  0  0  0  0
   50.0421    7.9841   17.1005 C   0  0  0  0  0  0  0  0  0  0  0  0
   48.1334    2.6267   19.3916 O   0  0  0  0  0  0  0  0  0  0  0  0
   46.6158    4.4049   15.2485 O   0  0  0  0  0  0  0  0  0  0  0  0
   51.5068    6.1198   16.5813 O   0  0  0  0  0  0  0  0  0  0  0  0
   49.1644    8.6801   19.3116 C   0  0  0  0  0  0  0  0  0  0  0  0
   50.2817    9.6583   19.6771 C   0  0  0  0  0  0  0  0  0  0  0  0
   47.8511    9.1280   19.9571 C   0  0  0  0  0  0  0  0  0  0  0  0
   51.4619    8.2693   19.1101 H   0  0  0  0  0  0  0  0  0  0  0  0
   47.2486    8.3230   18.1682 H   0  0  0  0  0  0  0  0  0  0  0  0
   49.3395   12.0004   18.9113 H   0  0  0  0  0  0  0  0  0  0  0  0
   50.5357    4.6384   16.9467 H   0  0  0  0  0  0  0  0  0  0  0  0
   50.3189    6.2147   18.8772 H   0  0  0  0  0  0  0  0  0  0  0  0
   49.7301    6.7663   16.3849 H   0  0  0  0  0  0  0  0  0  0  0  0
   48.0903    6.2772   16.7526 H   0  0  0  0  0  0  0  0  0  0  0  0
   46.3476   10.3856   18.0298 H   0  0  0  0  0  0  0  0  0  0  0  0
   51.5505   11.7709   19.3603 H   0  0  0  0  0  0  0  0  0  0  0  0
   48.3617    6.6181   20.1895 H   0  0  0  0  0  0  0  0  0  0  0  0
   48.9164    3.8154   18.5363 H   0  0  0  0  0  0  0  0  0  0  0  0
   46.7970    4.5684   17.4584 H   0  0  0  0  0  0  0  0  0  0  0  0
   46.8188    2.8101   17.5529 H   0  0  0  0  0  0  0  0  0  0  0  0
   47.1613    3.6086   16.0131 H   0  0  0  0  0  0  0  0  0  0  0  0
   49.3258    2.1353   16.0144 H   0  0  0  0  0  0  0  0  0  0  0  0
   50.4954    2.3258   17.3346 H   0  0  0  0  0  0  0  0  0  0  0  0
   48.9514    1.5312   17.6372 H   0  0  0  0  0  0  0  0  0  0  0  0
   47.3397    7.6208   18.2472 H   0  0  0  0  0  0  0  0  0  0  0  0
   49.4353    4.8576   18.3913 H   0  0  0  0  0  0  0  0  0  0  0  0
   48.4917    6.1297   15.5274 H   0  0  0  0  0  0  0  0  0  0  0  0
   49.9454    4.5718   19.2820 H   0  0  0  0  0  0  0  0  0  0  0  0
   46.6045    2.7160   17.3268 H   0  0  0  0  0  0  0  0  0  0  0  0
   48.7477    9.5184   17.4897 H   0  0  0  0  0  0  0  0  0  0  0  0
   50.8914    6.5405   18.4664 H   0  0  0  0  0  0  0  0  0  0  0  0
   49.7594    8.0117   16.0406 H   0  0  0  0  0  0  0  0  0  0  0  0
   50.9332    8.6233   17.1503 H   0  0  0  0  0  0  0  0  0  0  0  0
   48.7548    2.8465   20.1044 H   0  0  0  0  0  0  0  0  0  0  0  0
   45.9788    3.6821   15.3778 H   0  0  0  0  0  0  0  0  0  0  0  0
   51.2594    5.2573   16.2042 H   0  0  0  0  0  0  0  0  0  0  0  0
   49.4010    7.6925   19.7223 H   0  0  0  0  0  0  0  0  0  0  0  0
   50.3681    9.7545   20.7649 H   0  0  0  0  0  0  0  0  0  0  0  0
   50.0877   10.6564   19.2691 H   0  0  0  0  0  0  0  0  0  0  0  0
   51.2535    9.3205   19.3047 H   0  0  0  0  0  0  0  0  0  0  0  0
   47.0342    8.4431   19.7044 H   0  0  0  0  0  0  0  0  0  0  0  0
   47.9459    9.1360   21.0480 H   0  0  0  0  0  0  0  0  0  0  0  0
   47.5599   10.1354   19.6391 H   0  0  0  0  0  0  0  0  0  0  0  0
  2  1  2  0
  3  1  1  0
  4  2  1  0
  5  3  2  0
  6  4  2  0
  7  9  1  0
  8  1  1  0
  9  8  1  0
 10  5  1  0
 11  4  1  0
 12  8  1  0
 13  7  1  0
 14 13  1  0
 15 13  1  0
  6  5  1  0
 17 16  2  0
 18 16  2  0
 19 16  1  0
 20 16  1  0
 22 21  2  0
 23 21  1  0
 24 22  1  0
 25 23  2  0
 26 24  2  0
 27 29  1  0
 28 21  1  0
 29 28  1  0
 30 25  1  0
 31 24  1  0
 32 28  1  0
 33 27  1  0
 34 33  1  0
 35 33  1  0
 26 25  1  0
  2 36  1  0
  3 37  1  0
  6 38  1  0
  7 39  1  0
  8 40  1  6
  9 41  1  0
  9 42  1  0
 10 43  1  0
 11 44  1  0
 12 45  1  0
 13 46  1  0
 14 47  1  0
 14 48  1  0
 14 49  1  0
 15 50  1  0
 15 51  1  0
 15 52  1  0
 19 53  1  0
 20 54  1  0
 22 55  1  0
 23 56  1  0
 26 57  1  0
 27 58  1  0
 28 59  1  6
 29 60  1  0
 29 61  1  0
 30 62  1  0
 31 63  1  0
 32 64  1  0
 33 65  1  0
 34 66  1  0
 34 67  1  0
 34 68  1  0
 35 69  1  0
 35 70  1  0
 35 71  1  0
M  END
> <Uni-Dock RESULT> 
ENERGY=   -4.111  LOWER_BOUND=    4.861  UPPER_BOUND=    7.912
INTER + INTRA:          -4.111
INTER:                  -4.111
INTRA:                   0.000
UNBOUND:                 0.000

$$$$
