
     RDKit          3D

 42 44  0  0  0  0  0  0  0  0999 V2000
   -0.3777    0.1796   -0.0524 C   0  0  0  0  0  0  0  0  0  0  0  0
   -0.9927    1.2622   -0.9957 C   0  0  0  0  0  0  0  0  0  0  0  0
   -1.1987   -1.1438    0.0052 C   0  0  0  0  0  0  0  0  0  0  0  0
   -3.0437    1.4094    0.6008 C   0  0  0  0  0  0  0  0  0  0  0  0
   -3.1455    0.1764    1.1195 C   0  0  0  0  0  0  0  0  0  0  0  0
   -2.2652    1.7809   -0.7106 C   0  0  0  0  0  0  0  0  0  0  0  0
   -2.5098   -1.1195    0.5046 C   0  0  0  0  0  0  0  0  0  0  0  0
    0.7038    0.4452    0.6941 C   0  0  0  0  0  0  0  0  0  0  0  0
    3.8387   -0.4189    0.9625 N   0  0  0  0  0  0  0  0  0  0  0  0
    1.3381   -0.4574    1.7142 C   0  0  0  0  0  0  0  0  0  0  0  0
   -0.6726   -2.3221   -0.5336 C   0  0  0  0  0  0  0  0  0  0  0  0
   -0.3196    1.6418   -2.1611 C   0  0  0  0  0  0  0  0  0  0  0  0
    2.6161   -1.1853    1.2471 C   0  0  0  0  0  0  0  0  0  0  0  0
   -3.2742   -2.2905    0.4848 C   0  0  0  0  0  0  0  0  0  0  0  0
   -2.8484    2.6917   -1.5969 C   0  0  0  0  0  0  0  0  0  0  0  0
    3.8388    0.2228   -0.3458 C   0  0  0  0  0  0  0  0  0  0  0  0
    4.2003    0.5167    2.0199 C   0  0  0  0  0  0  0  0  0  0  0  0
   -1.4404   -3.4865   -0.5445 C   0  0  0  0  0  0  0  0  0  0  0  0
   -0.9078    2.5545   -3.0366 C   0  0  0  0  0  0  0  0  0  0  0  0
   -2.1703    3.0774   -2.7557 C   0  0  0  0  0  0  0  0  0  0  0  0
   -2.7388   -3.4709   -0.0353 C   0  0  0  0  0  0  0  0  0  0  0  0
   -3.5120    2.2274    1.1436 H   0  0  0  0  0  0  0  0  0  0  0  0
   -3.6914    0.0625    2.0533 H   0  0  0  0  0  0  0  0  0  0  0  0
    1.1581    1.4297    0.6060 H   0  0  0  0  0  0  0  0  0  0  0  0
    0.6201   -1.2197    2.0409 H   0  0  0  0  0  0  0  0  0  0  0  0
    1.5453    0.1311    2.6161 H   0  0  0  0  0  0  0  0  0  0  0  0
    0.3277   -2.3329   -0.9570 H   0  0  0  0  0  0  0  0  0  0  0  0
    0.6538    1.2196   -2.3942 H   0  0  0  0  0  0  0  0  0  0  0  0
    2.3787   -1.8182    0.3824 H   0  0  0  0  0  0  0  0  0  0  0  0
    2.8769   -1.8977    2.0418 H   0  0  0  0  0  0  0  0  0  0  0  0
   -4.2903   -2.2901    0.8704 H   0  0  0  0  0  0  0  0  0  0  0  0
   -3.8321    3.1054   -1.3914 H   0  0  0  0  0  0  0  0  0  0  0  0
    3.1596    1.0770   -0.4063 H   0  0  0  0  0  0  0  0  0  0  0  0
    3.5724   -0.4900   -1.1339 H   0  0  0  0  0  0  0  0  0  0  0  0
    4.8453    0.5849   -0.5854 H   0  0  0  0  0  0  0  0  0  0  0  0
    5.2035    0.9208    1.8439 H   0  0  0  0  0  0  0  0  0  0  0  0
    4.2336    0.0114    2.9915 H   0  0  0  0  0  0  0  0  0  0  0  0
    3.5057    1.3607    2.0899 H   0  0  0  0  0  0  0  0  0  0  0  0
   -1.0306   -4.4029   -0.9610 H   0  0  0  0  0  0  0  0  0  0  0  0
   -0.3865    2.8502   -3.9433 H   0  0  0  0  0  0  0  0  0  0  0  0
   -2.6298    3.7842   -3.4419 H   0  0  0  0  0  0  0  0  0  0  0  0
   -3.3385   -4.3773   -0.0503 H   0  0  0  0  0  0  0  0  0  0  0  0
  2  1  1  0
  3  1  1  0
  4  6  1  0
  5  7  1  0
  6  2  2  0
  7  3  2  0
  8  1  2  3
  9 13  1  0
 10  8  1  0
 11  3  1  0
 12  2  1  0
 13 10  1  0
 14  7  1  0
 15  6  1  0
 16  9  1  0
 17  9  1  0
 18 11  2  0
 19 12  2  0
 20 19  1  0
 21 18  1  0
  5  4  2  0
 21 14  2  0
 20 15  2  0
  4 22  1  0
  5 23  1  0
  8 24  1  0
 10 25  1  0
 10 26  1  0
 11 27  1  0
 12 28  1  0
 13 29  1  0
 13 30  1  0
 14 31  1  0
 15 32  1  0
 16 33  1  0
 16 34  1  0
 16 35  1  0
 17 36  1  0
 17 37  1  0
 17 38  1  0
 18 39  1  0
 19 40  1  0
 20 41  1  0
 21 42  1  0
M  END
$$$$
