
     RDKit          3D

 42 44  0  0  0  0  0  0  0  0999 V2000
   -0.6356    0.8120   -0.2788 C   0  0  0  0  0  0  0  0  0  0  0  0
   -1.8132    1.5864    0.3964 C   0  0  0  0  0  0  0  0  0  0  0  0
   -1.0926   -0.4279   -1.1048 C   0  0  0  0  0  0  0  0  0  0  0  0
   -2.2656   -0.5060    1.8779 C   0  0  0  0  0  0  0  0  0  0  0  0
   -1.8914   -1.5394    1.1085 C   0  0  0  0  0  0  0  0  0  0  0  0
   -2.6027    0.9361    1.3576 C   0  0  0  0  0  0  0  0  0  0  0  0
   -1.7299   -1.4936   -0.4514 C   0  0  0  0  0  0  0  0  0  0  0  0
    0.6397    1.1492   -0.0395 C   0  0  0  0  0  0  0  0  0  0  0  0
    3.8316   -0.9715    0.1814 N   0  0  0  0  0  0  0  0  0  0  0  0
    1.8723    0.4436   -0.5407 C   0  0  0  0  0  0  0  0  0  0  0  0
   -0.9663   -0.4305   -2.4975 C   0  0  0  0  0  0  0  0  0  0  0  0
   -2.1306    2.8832   -0.0186 C   0  0  0  0  0  0  0  0  0  0  0  0
    2.6352   -0.2244    0.6174 C   0  0  0  0  0  0  0  0  0  0  0  0
   -2.2143   -2.5691   -1.2027 C   0  0  0  0  0  0  0  0  0  0  0  0
   -3.7030    1.6024    1.9057 C   0  0  0  0  0  0  0  0  0  0  0  0
    4.8892   -0.0816   -0.3006 C   0  0  0  0  0  0  0  0  0  0  0  0
    4.3391   -1.7876    1.2876 C   0  0  0  0  0  0  0  0  0  0  0  0
   -1.4477   -1.5099   -3.2383 C   0  0  0  0  0  0  0  0  0  0  0  0
   -3.2275    3.5414    0.5375 C   0  0  0  0  0  0  0  0  0  0  0  0
   -4.0129    2.9017    1.4968 C   0  0  0  0  0  0  0  0  0  0  0  0
   -2.0706   -2.5774   -2.5919 C   0  0  0  0  0  0  0  0  0  0  0  0
   -2.3134   -0.6658    2.9526 H   0  0  0  0  0  0  0  0  0  0  0  0
   -1.6564   -2.4805    1.6006 H   0  0  0  0  0  0  0  0  0  0  0  0
    0.8318    2.0105    0.5984 H   0  0  0  0  0  0  0  0  0  0  0  0
    1.6311   -0.3104   -1.2968 H   0  0  0  0  0  0  0  0  0  0  0  0
    2.4979    1.1946   -1.0356 H   0  0  0  0  0  0  0  0  0  0  0  0
   -0.4987    0.4080   -3.0061 H   0  0  0  0  0  0  0  0  0  0  0  0
   -1.5343    3.3759   -0.7816 H   0  0  0  0  0  0  0  0  0  0  0  0
    2.9052    0.5250    1.3740 H   0  0  0  0  0  0  0  0  0  0  0  0
    1.9413   -0.9243    1.1032 H   0  0  0  0  0  0  0  0  0  0  0  0
   -2.7067   -3.4045   -0.7123 H   0  0  0  0  0  0  0  0  0  0  0  0
   -4.3246    1.1151    2.6522 H   0  0  0  0  0  0  0  0  0  0  0  0
    5.7763   -0.6589   -0.5861 H   0  0  0  0  0  0  0  0  0  0  0  0
    5.1887    0.6527    0.4558 H   0  0  0  0  0  0  0  0  0  0  0  0
    4.5778    0.4542   -1.2024 H   0  0  0  0  0  0  0  0  0  0  0  0
    3.5787   -2.5028    1.6206 H   0  0  0  0  0  0  0  0  0  0  0  0
    5.2023   -2.3808    0.9651 H   0  0  0  0  0  0  0  0  0  0  0  0
    4.6405   -1.1776    2.1470 H   0  0  0  0  0  0  0  0  0  0  0  0
   -1.3442   -1.5145   -4.3201 H   0  0  0  0  0  0  0  0  0  0  0  0
   -3.4762    4.5491    0.2152 H   0  0  0  0  0  0  0  0  0  0  0  0
   -4.8709    3.4138    1.9248 H   0  0  0  0  0  0  0  0  0  0  0  0
   -2.4492   -3.4159   -3.1707 H   0  0  0  0  0  0  0  0  0  0  0  0
  2  1  1  0
  3  1  1  0
  4  6  1  0
  5  7  1  0
  6  2  2  0
  7  3  2  0
  8  1  2  3
  9 13  1  0
 10  8  1  0
 11  3  1  0
 12  2  1  0
 13 10  1  0
 14  7  1  0
 15  6  1  0
 16  9  1  0
 17  9  1  0
 18 11  2  0
 19 12  2  0
 20 19  1  0
 21 18  1  0
  5  4  2  0
 21 14  2  0
 20 15  2  0
  4 22  1  0
  5 23  1  0
  8 24  1  0
 10 25  1  0
 10 26  1  0
 11 27  1  0
 12 28  1  0
 13 29  1  0
 13 30  1  0
 14 31  1  0
 15 32  1  0
 16 33  1  0
 16 34  1  0
 16 35  1  0
 17 36  1  0
 17 37  1  0
 17 38  1  0
 18 39  1  0
 19 40  1  0
 20 41  1  0
 21 42  1  0
M  END
$$$$
