
     RDKit          3D

 42 44  0  0  0  0  0  0  0  0999 V2000
   -0.5284   -0.4844    0.2881 C   0  0  0  0  0  0  0  0  0  0  0  0
   -0.9131    0.9645   -0.1323 C   0  0  0  0  0  0  0  0  0  0  0  0
   -1.4539   -1.5808   -0.3314 C   0  0  0  0  0  0  0  0  0  0  0  0
   -3.1514    0.6927    1.1656 C   0  0  0  0  0  0  0  0  0  0  0  0
   -3.4335   -0.6147    1.0572 C   0  0  0  0  0  0  0  0  0  0  0  0
   -2.1630    1.4828    0.2380 C   0  0  0  0  0  0  0  0  0  0  0  0
   -2.8202   -1.5898   -0.0100 C   0  0  0  0  0  0  0  0  0  0  0  0
    0.4256   -0.8062    1.1730 C   0  0  0  0  0  0  0  0  0  0  0  0
    3.3285    0.1723    0.3826 N   0  0  0  0  0  0  0  0  0  0  0  0
    1.3244    0.1358    1.9305 C   0  0  0  0  0  0  0  0  0  0  0  0
   -0.9412   -2.4848   -1.2665 C   0  0  0  0  0  0  0  0  0  0  0  0
   -0.0694    1.6955   -0.9734 C   0  0  0  0  0  0  0  0  0  0  0  0
    2.8228   -0.1677    1.7267 C   0  0  0  0  0  0  0  0  0  0  0  0
   -3.6622   -2.5216   -0.6248 C   0  0  0  0  0  0  0  0  0  0  0  0
   -2.5407    2.7518   -0.2124 C   0  0  0  0  0  0  0  0  0  0  0  0
    4.5861   -0.5315    0.1208 C   0  0  0  0  0  0  0  0  0  0  0  0
    3.5391    1.6161    0.2436 C   0  0  0  0  0  0  0  0  0  0  0  0
   -1.7883   -3.4134   -1.8708 C   0  0  0  0  0  0  0  0  0  0  0  0
   -0.4513    2.9622   -1.4144 C   0  0  0  0  0  0  0  0  0  0  0  0
   -1.6846    3.4903   -1.0328 C   0  0  0  0  0  0  0  0  0  0  0  0
   -3.1464   -3.4310   -1.5515 C   0  0  0  0  0  0  0  0  0  0  0  0
   -3.6236    1.2494    1.9715 H   0  0  0  0  0  0  0  0  0  0  0  0
   -4.1186   -1.0473    1.7827 H   0  0  0  0  0  0  0  0  0  0  0  0
    0.5633   -1.8592    1.4120 H   0  0  0  0  0  0  0  0  0  0  0  0
    1.1048    1.1848    1.7130 H   0  0  0  0  0  0  0  0  0  0  0  0
    1.0997    0.0032    2.9969 H   0  0  0  0  0  0  0  0  0  0  0  0
    0.1122   -2.4569   -1.5326 H   0  0  0  0  0  0  0  0  0  0  0  0
    0.8798    1.2715   -1.2918 H   0  0  0  0  0  0  0  0  0  0  0  0
    3.4060    0.3552    2.4964 H   0  0  0  0  0  0  0  0  0  0  0  0
    2.9678   -1.2407    1.9138 H   0  0  0  0  0  0  0  0  0  0  0  0
   -4.7223   -2.5449   -0.3871 H   0  0  0  0  0  0  0  0  0  0  0  0
   -3.5041    3.1695    0.0673 H   0  0  0  0  0  0  0  0  0  0  0  0
    4.9560   -0.2998   -0.8844 H   0  0  0  0  0  0  0  0  0  0  0  0
    5.3657   -0.2697    0.8455 H   0  0  0  0  0  0  0  0  0  0  0  0
    4.4340   -1.6162    0.1527 H   0  0  0  0  0  0  0  0  0  0  0  0
    4.2908    1.9934    0.9468 H   0  0  0  0  0  0  0  0  0  0  0  0
    3.8711    1.8559   -0.7730 H   0  0  0  0  0  0  0  0  0  0  0  0
    2.6137    2.1764    0.4038 H   0  0  0  0  0  0  0  0  0  0  0  0
   -1.3911   -4.1161   -2.5985 H   0  0  0  0  0  0  0  0  0  0  0  0
    0.2074    3.5304   -2.0654 H   0  0  0  0  0  0  0  0  0  0  0  0
   -1.9851    4.4744   -1.3828 H   0  0  0  0  0  0  0  0  0  0  0  0
   -3.8062   -4.1516   -2.0278 H   0  0  0  0  0  0  0  0  0  0  0  0
  2  1  1  0
  3  1  1  0
  4  6  1  0
  5  7  1  0
  6  2  2  0
  7  3  2  0
  8  1  2  3
  9 13  1  0
 10  8  1  0
 11  3  1  0
 12  2  1  0
 13 10  1  0
 14  7  1  0
 15  6  1  0
 16  9  1  0
 17  9  1  0
 18 11  2  0
 19 12  2  0
 20 19  1  0
 21 18  1  0
  5  4  2  0
 21 14  2  0
 20 15  2  0
  4 22  1  0
  5 23  1  0
  8 24  1  0
 10 25  1  0
 10 26  1  0
 11 27  1  0
 12 28  1  0
 13 29  1  0
 13 30  1  0
 14 31  1  0
 15 32  1  0
 16 33  1  0
 16 34  1  0
 16 35  1  0
 17 36  1  0
 17 37  1  0
 17 38  1  0
 18 39  1  0
 19 40  1  0
 20 41  1  0
 21 42  1  0
M  END
$$$$
