
     RDKit          3D

 42 44  0  0  0  0  0  0  0  0999 V2000
   -0.6031    0.7279    0.4977 C   0  0  0  0  0  0  0  0  0  0  0  0
   -1.7544    1.6967    0.0754 C   0  0  0  0  0  0  0  0  0  0  0  0
   -1.1020   -0.6729    0.9640 C   0  0  0  0  0  0  0  0  0  0  0  0
   -2.2926    0.1014   -1.9103 C   0  0  0  0  0  0  0  0  0  0  0  0
   -1.9534   -1.1143   -1.4553 C   0  0  0  0  0  0  0  0  0  0  0  0
   -2.5726    1.3592   -1.0139 C   0  0  0  0  0  0  0  0  0  0  0  0
   -1.7822   -1.4987    0.0562 C   0  0  0  0  0  0  0  0  0  0  0  0
    0.6827    1.0729    0.3394 C   0  0  0  0  0  0  0  0  0  0  0  0
    3.7910   -1.0189   -0.4956 N   0  0  0  0  0  0  0  0  0  0  0  0
    1.8905    0.2155    0.6122 C   0  0  0  0  0  0  0  0  0  0  0  0
   -0.9686   -1.0575    2.3019 C   0  0  0  0  0  0  0  0  0  0  0  0
   -2.0208    2.8426    0.8309 C   0  0  0  0  0  0  0  0  0  0  0  0
    2.6215   -0.1402   -0.6949 C   0  0  0  0  0  0  0  0  0  0  0  0
   -2.3026   -2.7202    0.4954 C   0  0  0  0  0  0  0  0  0  0  0  0
   -3.6501    2.1869   -1.3443 C   0  0  0  0  0  0  0  0  0  0  0  0
    4.2617   -1.5218   -1.7889 C   0  0  0  0  0  0  0  0  0  0  0  0
    4.8839   -0.3307    0.1934 C   0  0  0  0  0  0  0  0  0  0  0  0
   -1.4863   -2.2799    2.7299 C   0  0  0  0  0  0  0  0  0  0  0  0
   -3.0951    3.6645    0.4904 C   0  0  0  0  0  0  0  0  0  0  0  0
   -3.9089    3.3365   -0.5942 C   0  0  0  0  0  0  0  0  0  0  0  0
   -2.1521   -3.1098    1.8282 C   0  0  0  0  0  0  0  0  0  0  0  0
   -2.3520    0.2408   -2.9873 H   0  0  0  0  0  0  0  0  0  0  0  0
   -1.7564   -1.8941   -2.1873 H   0  0  0  0  0  0  0  0  0  0  0  0
    0.9037    2.0676   -0.0443 H   0  0  0  0  0  0  0  0  0  0  0  0
    2.5466    0.7823    1.2819 H   0  0  0  0  0  0  0  0  0  0  0  0
    1.6251   -0.7062    1.1399 H   0  0  0  0  0  0  0  0  0  0  0  0
   -0.4673   -0.4050    3.0113 H   0  0  0  0  0  0  0  0  0  0  0  0
   -1.4024    3.0889    1.6896 H   0  0  0  0  0  0  0  0  0  0  0  0
    1.8990   -0.6576   -1.3413 H   0  0  0  0  0  0  0  0  0  0  0  0
    2.9157    0.7762   -1.2246 H   0  0  0  0  0  0  0  0  0  0  0  0
   -2.8285   -3.3737   -0.1954 H   0  0  0  0  0  0  0  0  0  0  0  0
   -4.2934    1.9421   -2.1853 H   0  0  0  0  0  0  0  0  0  0  0  0
    4.5817   -0.7127   -2.4555 H   0  0  0  0  0  0  0  0  0  0  0  0
    3.4731   -2.0929   -2.2916 H   0  0  0  0  0  0  0  0  0  0  0  0
    5.1034   -2.2102   -1.6520 H   0  0  0  0  0  0  0  0  0  0  0  0
    5.2072    0.5703   -0.3404 H   0  0  0  0  0  0  0  0  0  0  0  0
    4.5975   -0.0489    1.2112 H   0  0  0  0  0  0  0  0  0  0  0  0
    5.7500   -0.9944    0.2984 H   0  0  0  0  0  0  0  0  0  0  0  0
   -1.3774   -2.5813    3.7684 H   0  0  0  0  0  0  0  0  0  0  0  0
   -3.3042    4.5550    1.0773 H   0  0  0  0  0  0  0  0  0  0  0  0
   -4.7494    3.9749   -0.8544 H   0  0  0  0  0  0  0  0  0  0  0  0
   -2.5588   -4.0602    2.1639 H   0  0  0  0  0  0  0  0  0  0  0  0
  2  1  1  0
  3  1  1  0
  4  6  1  0
  5  7  1  0
  6  2  2  0
  7  3  2  0
  8  1  2  3
  9 13  1  0
 10  8  1  0
 11  3  1  0
 12  2  1  0
 13 10  1  0
 14  7  1  0
 15  6  1  0
 16  9  1  0
 17  9  1  0
 18 11  2  0
 19 12  2  0
 20 19  1  0
 21 18  1  0
  5  4  2  0
 21 14  2  0
 20 15  2  0
  4 22  1  0
  5 23  1  0
  8 24  1  0
 10 25  1  0
 10 26  1  0
 11 27  1  0
 12 28  1  0
 13 29  1  0
 13 30  1  0
 14 31  1  0
 15 32  1  0
 16 33  1  0
 16 34  1  0
 16 35  1  0
 17 36  1  0
 17 37  1  0
 17 38  1  0
 18 39  1  0
 19 40  1  0
 20 41  1  0
 21 42  1  0
M  END
$$$$
