
     RDKit          3D

 21 23  0  0  0  0  0  0  0  0999 V2000
    0.0325   -0.1351   -0.1566 C   0  0  0  0  0  0  0  0  0  0  0  0
   -0.7143   -1.3699    0.0488 C   0  0  0  0  0  0  0  0  0  0  0  0
   -0.5179    1.2089   -0.0158 C   0  0  0  0  0  0  0  0  0  0  0  0
   -3.1316   -0.5188   -0.2989 C   0  0  0  0  0  0  0  0  0  0  0  0
   -2.9840    0.8133   -0.3201 C   0  0  0  0  0  0  0  0  0  0  0  0
   -2.0987   -1.5356   -0.0145 C   0  0  0  0  0  0  0  0  0  0  0  0
   -1.8116    1.6524   -0.0808 C   0  0  0  0  0  0  0  0  0  0  0  0
    1.3053   -0.2535   -0.4980 C   0  0  0  0  0  0  0  0  0  0  0  0
    4.0569   -0.1448   -0.0109 N   0  0  0  0  0  0  0  0  0  0  0  0
    2.0709    0.9951   -0.7084 C   0  0  0  0  0  0  0  0  0  0  0  0
    0.5029    2.1235    0.2191 C   0  0  0  0  0  0  0  0  0  0  0  0
    0.1196   -2.4269    0.3293 C   0  0  0  0  0  0  0  0  0  0  0  0
    3.2259    1.0174    0.2570 C   0  0  0  0  0  0  0  0  0  0  0  0
   -2.0911    2.9872    0.0851 C   0  0  0  0  0  0  0  0  0  0  0  0
   -2.6024   -2.7878    0.2120 C   0  0  0  0  0  0  0  0  0  0  0  0
    3.3405   -1.3329    0.3526 C   0  0  0  0  0  0  0  0  0  0  0  0
    4.3753   -0.1439   -1.4448 C   0  0  0  0  0  0  0  0  0  0  0  0
    0.1868    3.4718    0.3834 C   0  0  0  0  0  0  0  0  0  0  0  0
   -0.3936   -3.6965    0.5588 C   0  0  0  0  0  0  0  0  0  0  0  0
   -1.7592   -3.8513    0.4946 C   0  0  0  0  0  0  0  0  0  0  0  0
   -1.1124    3.9274    0.3196 C   0  0  0  0  0  0  0  0  0  0  0  0
  2  1  1  0
  3  1  1  0
  4  6  1  0
  5  7  1  0
  6  2  2  0
  7  3  2  0
  8  1  2  0
  9 13  1  0
 10  8  1  0
 11  3  1  0
 12  2  1  0
 13 10  1  0
 14  7  1  0
 15  6  1  0
 16  9  1  0
 17  9  1  0
 18 11  2  0
 19 12  2  0
 20 19  1  0
 21 18  1  0
  5  4  2  0
 21 14  2  0
 20 15  2  0
M  END
