
     RDKit          2D

 21 23  0  0  0  0  0  0  0  0999 V2000
    3.4125   -4.2167    0.0000 C   0  0  0  0  0  0  0  0  0  0  0  0
    4.0542   -3.9000    0.0000 C   0  0  0  0  0  0  0  0  0  0  0  0
    2.7667   -3.9042    0.0000 C   0  0  0  0  0  0  0  0  0  0  0  0
    3.7792   -2.6500    0.0000 C   0  0  0  0  0  0  0  0  0  0  0  0
    3.0667   -2.6500    0.0000 C   0  0  0  0  0  0  0  0  0  0  0  0
    4.2167   -3.1875    0.0000 C   0  0  0  0  0  0  0  0  0  0  0  0
    2.6042   -3.2125    0.0000 C   0  0  0  0  0  0  0  0  0  0  0  0
    3.4042   -4.9292    0.0000 C   0  0  0  0  0  0  0  0  0  0  0  0
    4.6167   -6.3292    0.0000 N   0  0  0  0  0  0  0  0  0  0  0  0
    4.0125   -5.2792    0.0000 C   0  0  0  0  0  0  0  0  0  0  0  0
    2.2542   -4.3917    0.0000 C   0  0  0  0  0  0  0  0  0  0  0  0
    4.5750   -4.3667    0.0000 C   0  0  0  0  0  0  0  0  0  0  0  0
    4.0125   -5.9792    0.0000 C   0  0  0  0  0  0  0  0  0  0  0  0
    1.9292   -3.0000    0.0000 C   0  0  0  0  0  0  0  0  0  0  0  0
    4.8875   -2.9750    0.0000 C   0  0  0  0  0  0  0  0  0  0  0  0
    5.2375   -5.9667    0.0000 C   0  0  0  0  0  0  0  0  0  0  0  0
    4.6167   -7.0375    0.0000 C   0  0  0  0  0  0  0  0  0  0  0  0
    1.5750   -4.1875    0.0000 C   0  0  0  0  0  0  0  0  0  0  0  0
    5.2542   -4.1542    0.0000 C   0  0  0  0  0  0  0  0  0  0  0  0
    5.4125   -3.4542    0.0000 C   0  0  0  0  0  0  0  0  0  0  0  0
    1.4125   -3.4875    0.0000 C   0  0  0  0  0  0  0  0  0  0  0  0
  2  1  1  0
  3  1  1  0
  4  6  1  0
  5  7  1  0
  6  2  2  0
  7  3  2  0
  8  1  2  0
  9 13  1  0
 10  8  1  0
 11  3  1  0
 12  2  1  0
 13 10  1  0
 14  7  1  0
 15  6  1  0
 16  9  1  0
 17  9  1  0
 18 11  2  0
 19 12  2  0
 20 19  1  0
 21 18  1  0
  5  4  2  0
 21 14  2  0
 20 15  2  0
M  END
> <chembl_id>
CHEMBL669

> <chembl_pref_name>
CYCLOBENZAPRINE
