
     RDKit          3D

 42 44  0  0  0  0  0  0  0  0999 V2000
    0.4583   -0.3517   -0.6143 C   0  0  0  0  0  0  0  0  0  0  0  0
    1.2350    0.9181   -1.0772 C   0  0  0  0  0  0  0  0  0  0  0  0
    1.3849   -1.5485   -0.2253 C   0  0  0  0  0  0  0  0  0  0  0  0
    2.2078    1.1359    1.3263 C   0  0  0  0  0  0  0  0  0  0  0  0
    2.2901   -0.1305    1.7612 C   0  0  0  0  0  0  0  0  0  0  0  0
    2.0919    1.5692   -0.1769 C   0  0  0  0  0  0  0  0  0  0  0  0
    2.2797   -1.4060    0.8466 C   0  0  0  0  0  0  0  0  0  0  0  0
   -0.8702   -0.4214   -0.4482 C   0  0  0  0  0  0  0  0  0  0  0  0
   -3.4887   -0.0531    1.1401 N   0  0  0  0  0  0  0  0  0  0  0  0
   -1.8718    0.6768   -0.6884 C   0  0  0  0  0  0  0  0  0  0  0  0
    1.3860   -2.7154   -0.9955 C   0  0  0  0  0  0  0  0  0  0  0  0
    1.1596    1.3406   -2.4083 C   0  0  0  0  0  0  0  0  0  0  0  0
   -2.6715    1.0424    0.5787 C   0  0  0  0  0  0  0  0  0  0  0  0
    3.1647   -2.4470    1.1442 C   0  0  0  0  0  0  0  0  0  0  0  0
    2.8496    2.6594   -0.6162 C   0  0  0  0  0  0  0  0  0  0  0  0
   -4.6059   -0.4082    0.2640 C   0  0  0  0  0  0  0  0  0  0  0  0
   -3.9953    0.3281    2.4606 C   0  0  0  0  0  0  0  0  0  0  0  0
    2.2692   -3.7502   -0.6878 C   0  0  0  0  0  0  0  0  0  0  0  0
    1.9154    2.4319   -2.8365 C   0  0  0  0  0  0  0  0  0  0  0  0
    2.7588    3.0904   -1.9417 C   0  0  0  0  0  0  0  0  0  0  0  0
    3.1581   -3.6156    0.3790 C   0  0  0  0  0  0  0  0  0  0  0  0
    2.1938    1.9281    2.0712 H   0  0  0  0  0  0  0  0  0  0  0  0
    2.3362   -0.2958    2.8352 H   0  0  0  0  0  0  0  0  0  0  0  0
   -1.2958   -1.3522   -0.0748 H   0  0  0  0  0  0  0  0  0  0  0  0
   -2.5449    0.3691   -1.4960 H   0  0  0  0  0  0  0  0  0  0  0  0
   -1.3811    1.5899   -1.0417 H   0  0  0  0  0  0  0  0  0  0  0  0
    0.7083   -2.8153   -1.8387 H   0  0  0  0  0  0  0  0  0  0  0  0
    0.5205    0.8155   -3.1128 H   0  0  0  0  0  0  0  0  0  0  0  0
   -3.3057    1.9115    0.3583 H   0  0  0  0  0  0  0  0  0  0  0  0
   -1.9458    1.3711    1.3355 H   0  0  0  0  0  0  0  0  0  0  0  0
    3.8620   -2.3551    1.9726 H   0  0  0  0  0  0  0  0  0  0  0  0
    3.5167    3.1762    0.0686 H   0  0  0  0  0  0  0  0  0  0  0  0
   -4.2510   -0.8080   -0.6908 H   0  0  0  0  0  0  0  0  0  0  0  0
   -5.2107   -1.2029    0.7161 H   0  0  0  0  0  0  0  0  0  0  0  0
   -5.2614    0.4466    0.0622 H   0  0  0  0  0  0  0  0  0  0  0  0
   -3.1666    0.5373    3.1464 H   0  0  0  0  0  0  0  0  0  0  0  0
   -4.5668   -0.4936    2.9066 H   0  0  0  0  0  0  0  0  0  0  0  0
   -4.6399    1.2135    2.4164 H   0  0  0  0  0  0  0  0  0  0  0  0
    2.2701   -4.6581   -1.2852 H   0  0  0  0  0  0  0  0  0  0  0  0
    1.8552    2.7615   -3.8703 H   0  0  0  0  0  0  0  0  0  0  0  0
    3.3526    3.9364   -2.2780 H   0  0  0  0  0  0  0  0  0  0  0  0
    3.8486   -4.4211    0.6147 H   0  0  0  0  0  0  0  0  0  0  0  0
  2  1  1  0
  3  1  1  0
  4  6  1  0
  5  7  1  0
  6  2  2  0
  7  3  2  0
  8  1  2  3
  9 13  1  0
 10  8  1  0
 11  3  1  0
 12  2  1  0
 13 10  1  0
 14  7  1  0
 15  6  1  0
 16  9  1  0
 17  9  1  0
 18 11  2  0
 19 12  2  0
 20 19  1  0
 21 18  1  0
  5  4  2  0
 21 14  2  0
 20 15  2  0
  4 22  1  0
  5 23  1  0
  8 24  1  0
 10 25  1  0
 10 26  1  0
 11 27  1  0
 12 28  1  0
 13 29  1  0
 13 30  1  0
 14 31  1  0
 15 32  1  0
 16 33  1  0
 16 34  1  0
 16 35  1  0
 17 36  1  0
 17 37  1  0
 17 38  1  0
 18 39  1  0
 19 40  1  0
 20 41  1  0
 21 42  1  0
M  END
$$$$
