
     RDKit          3D

 42 44  0  0  0  0  0  0  0  0999 V2000
   -0.6095    0.6215    0.2587 C   0  0  0  0  0  0  0  0  0  0  0  0
   -1.8501    1.4989    0.6212 C   0  0  0  0  0  0  0  0  0  0  0  0
   -0.8090   -0.8992    0.5391 C   0  0  0  0  0  0  0  0  0  0  0  0
   -3.1902    0.2844   -1.2514 C   0  0  0  0  0  0  0  0  0  0  0  0
   -2.6531   -0.9441   -1.2967 C   0  0  0  0  0  0  0  0  0  0  0  0
   -3.0641    1.2863   -0.0501 C   0  0  0  0  0  0  0  0  0  0  0  0
   -1.8045   -1.6040   -0.1542 C   0  0  0  0  0  0  0  0  0  0  0  0
    0.4761    1.1563   -0.3188 C   0  0  0  0  0  0  0  0  0  0  0  0
    4.1723    0.0234   -0.2279 N   0  0  0  0  0  0  0  0  0  0  0  0
    1.6964    0.4127   -0.7932 C   0  0  0  0  0  0  0  0  0  0  0  0
   -0.0700   -1.5307    1.5451 C   0  0  0  0  0  0  0  0  0  0  0  0
   -1.7748    2.4225    1.6684 C   0  0  0  0  0  0  0  0  0  0  0  0
    2.9154    0.7176    0.0966 C   0  0  0  0  0  0  0  0  0  0  0  0
   -2.0338   -2.9489    0.1531 C   0  0  0  0  0  0  0  0  0  0  0  0
   -4.1945    2.0169    0.3291 C   0  0  0  0  0  0  0  0  0  0  0  0
    4.6708    0.3518   -1.5602 C   0  0  0  0  0  0  0  0  0  0  0  0
    4.0765   -1.4229   -0.0468 C   0  0  0  0  0  0  0  0  0  0  0  0
   -0.3019   -2.8738    1.8408 C   0  0  0  0  0  0  0  0  0  0  0  0
   -2.9068    3.1500    2.0361 C   0  0  0  0  0  0  0  0  0  0  0  0
   -4.1146    2.9466    1.3686 C   0  0  0  0  0  0  0  0  0  0  0  0
   -1.2822   -3.5817    1.1458 C   0  0  0  0  0  0  0  0  0  0  0  0
   -3.7351    0.6313   -2.1265 H   0  0  0  0  0  0  0  0  0  0  0  0
   -2.7929   -1.5252   -2.2054 H   0  0  0  0  0  0  0  0  0  0  0  0
    0.4906    2.2302   -0.4981 H   0  0  0  0  0  0  0  0  0  0  0  0
    1.8934    0.7248   -1.8255 H   0  0  0  0  0  0  0  0  0  0  0  0
    1.5071   -0.6641   -0.8299 H   0  0  0  0  0  0  0  0  0  0  0  0
    0.6784   -0.9771    2.1053 H   0  0  0  0  0  0  0  0  0  0  0  0
   -0.8417    2.5679    2.2056 H   0  0  0  0  0  0  0  0  0  0  0  0
    3.1087    1.7989    0.0776 H   0  0  0  0  0  0  0  0  0  0  0  0
    2.6639    0.4969    1.1428 H   0  0  0  0  0  0  0  0  0  0  0  0
   -2.7993   -3.5105   -0.3759 H   0  0  0  0  0  0  0  0  0  0  0  0
   -5.1423    1.8670   -0.1810 H   0  0  0  0  0  0  0  0  0  0  0  0
    4.7586    1.4367   -1.6853 H   0  0  0  0  0  0  0  0  0  0  0  0
    5.6759   -0.0612   -1.7017 H   0  0  0  0  0  0  0  0  0  0  0  0
    4.0308   -0.0390   -2.3586 H   0  0  0  0  0  0  0  0  0  0  0  0
    3.4129   -1.8984   -0.7768 H   0  0  0  0  0  0  0  0  0  0  0  0
    3.7165   -1.6658    0.9591 H   0  0  0  0  0  0  0  0  0  0  0  0
    5.0665   -1.8827   -0.1431 H   0  0  0  0  0  0  0  0  0  0  0  0
    0.2737   -3.3649    2.6211 H   0  0  0  0  0  0  0  0  0  0  0  0
   -2.8496    3.8679    2.8501 H   0  0  0  0  0  0  0  0  0  0  0  0
   -4.9973    3.5101    1.6601 H   0  0  0  0  0  0  0  0  0  0  0  0
   -1.4670   -4.6266    1.3817 H   0  0  0  0  0  0  0  0  0  0  0  0
  2  1  1  0
  3  1  1  0
  4  6  1  0
  5  7  1  0
  6  2  2  0
  7  3  2  0
  8  1  2  3
  9 13  1  0
 10  8  1  0
 11  3  1  0
 12  2  1  0
 13 10  1  0
 14  7  1  0
 15  6  1  0
 16  9  1  0
 17  9  1  0
 18 11  2  0
 19 12  2  0
 20 19  1  0
 21 18  1  0
  5  4  2  0
 21 14  2  0
 20 15  2  0
  4 22  1  0
  5 23  1  0
  8 24  1  0
 10 25  1  0
 10 26  1  0
 11 27  1  0
 12 28  1  0
 13 29  1  0
 13 30  1  0
 14 31  1  0
 15 32  1  0
 16 33  1  0
 16 34  1  0
 16 35  1  0
 17 36  1  0
 17 37  1  0
 17 38  1  0
 18 39  1  0
 19 40  1  0
 20 41  1  0
 21 42  1  0
M  END
$$$$
