
     RDKit          3D

 73 70  0  0  0  0  0  0  0  0999 V2000
   52.0213    4.2654   19.3378 O   0  0  0  0  0  0  0  0  0  0  0  0
   57.0463    0.1305   17.7994 Br  0  0  0  0  0  0  0  0  0  0  0  0
   53.3738    5.7402   19.1211 O   0  0  0  0  0  0  0  0  0  0  0  0
   49.1706    6.7702   22.0281 O   0  0  0  0  0  0  0  0  0  0  0  0
   47.1515    6.7413   20.9409 O   0  0  0  0  0  0  0  0  0  0  0  0
   51.2747    5.2477   21.1982 N   0  0  0  0  0  0  0  0  0  0  0  0
   51.4881    4.3403   18.9251 C   0  0  0  0  0  0  0  0  0  0  0  0
   50.6855    4.7424   20.0121 C   0  0  0  0  0  0  0  0  0  0  0  0
   52.9475    4.6032   18.9297 C   0  0  0  0  0  0  0  0  0  0  0  0
   49.3082    4.4185   19.9884 C   0  0  0  0  0  0  0  0  0  0  0  0
   53.9102    3.4999   18.6667 C   0  0  0  0  0  0  0  0  0  0  0  0
   50.9291    3.7196   17.7971 C   0  0  0  0  0  0  0  0  0  0  0  0
   48.7621    3.8007   18.8480 C   0  0  0  0  0  0  0  0  0  0  0  0
   49.5648    3.4548   17.7607 C   0  0  0  0  0  0  0  0  0  0  0  0
   48.3799    4.7250   21.1500 C   0  0  0  0  0  0  0  0  0  0  0  0
   53.6387    2.1792   19.0418 C   0  0  0  0  0  0  0  0  0  0  0  0
   55.1330    3.8136   18.0555 C   0  0  0  0  0  0  0  0  0  0  0  0
   55.7818    1.4929   18.1539 C   0  0  0  0  0  0  0  0  0  0  0  0
   54.5758    1.1743   18.7835 C   0  0  0  0  0  0  0  0  0  0  0  0
   56.0672    2.8087   17.7919 C   0  0  0  0  0  0  0  0  0  0  0  0
   48.2195    6.2291   21.3854 C   0  0  0  0  0  0  0  0  0  0  0  0
   50.1401    7.8450   23.7365 Br  0  0  0  0  0  0  0  0  0  0  0  0
   50.3563    6.0844   17.1118 O   0  0  0  0  0  0  0  0  0  0  0  0
   54.8693    0.5841   19.6852 O   0  0  0  0  0  0  0  0  0  0  0  0
   55.1534    2.8521   19.5433 O   0  0  0  0  0  0  0  0  0  0  0  0
   53.5179    4.5123   18.1383 N   0  0  0  0  0  0  0  0  0  0  0  0
   51.1217    4.0060   17.8529 C   0  0  0  0  0  0  0  0  0  0  0  0
   52.4629    3.5918   17.9695 C   0  0  0  0  0  0  0  0  0  0  0  0
   50.7080    5.4047   18.0754 C   0  0  0  0  0  0  0  0  0  0  0  0
   52.7596    2.2331   17.7094 C   0  0  0  0  0  0  0  0  0  0  0  0
   50.6257    5.9651   19.4599 C   0  0  0  0  0  0  0  0  0  0  0  0
   50.0922    3.0971   17.5636 C   0  0  0  0  0  0  0  0  0  0  0  0
   51.7125    1.3251   17.4517 C   0  0  0  0  0  0  0  0  0  0  0  0
   50.3875    1.7516   17.3800 C   0  0  0  0  0  0  0  0  0  0  0  0
   54.1842    1.7046   17.7142 C   0  0  0  0  0  0  0  0  0  0  0  0
   51.0881    5.2773   20.5897 C   0  0  0  0  0  0  0  0  0  0  0  0
   50.0272    7.2264   19.6229 C   0  0  0  0  0  0  0  0  0  0  0  0
   50.3494    7.0933   22.0099 C   0  0  0  0  0  0  0  0  0  0  0  0
   50.9553    5.8454   21.8618 C   0  0  0  0  0  0  0  0  0  0  0  0
   49.8866    7.7891   20.8950 C   0  0  0  0  0  0  0  0  0  0  0  0
   54.7866    1.7110   19.1208 C   0  0  0  0  0  0  0  0  0  0  0  0
   51.7510    4.0762   19.1170 Na  0  0  0  0  0 15  0  0  0  0  0  0
   51.7510    4.0762   19.1170 Na  0  0  0  0  0 15  0  0  0  0  0  0
   52.0086    4.2741   19.3469 O   0  0  0  0  0  0  0  0  0  0  0  0
   52.0589    4.2389   19.3101 O   0  0  0  0  0  0  0  0  0  0  0  0
   51.0565    4.3434   19.3823 H   0  0  0  0  0  0  0  0  0  0  0  0
   52.1752    3.6200   18.6309 H   0  0  0  0  0  0  0  0  0  0  0  0
   50.5916    5.8516   21.7067 H   0  0  0  0  0  0  0  0  0  0  0  0
   52.0779    5.8362   20.9814 H   0  0  0  0  0  0  0  0  0  0  0  0
   51.5450    3.4537   16.9417 H   0  0  0  0  0  0  0  0  0  0  0  0
   47.6949    3.5949   18.8063 H   0  0  0  0  0  0  0  0  0  0  0  0
   49.1184    2.9853   16.8890 H   0  0  0  0  0  0  0  0  0  0  0  0
   48.7632    4.2482   22.0603 H   0  0  0  0  0  0  0  0  0  0  0  0
   47.3903    4.2900   20.9753 H   0  0  0  0  0  0  0  0  0  0  0  0
   52.7149    1.9263   19.5604 H   0  0  0  0  0  0  0  0  0  0  0  0
   55.3552    4.8463   17.7924 H   0  0  0  0  0  0  0  0  0  0  0  0
   54.3575    0.1518   19.0845 H   0  0  0  0  0  0  0  0  0  0  0  0
   57.0104    3.0630   17.3150 H   0  0  0  0  0  0  0  0  0  0  0  0
   54.3197    4.0543   18.6251 H   0  0  0  0  0  0  0  0  0  0  0  0
   53.2860    5.3624   18.6362 H   0  0  0  0  0  0  0  0  0  0  0  0
   49.0636    3.4403   17.4903 H   0  0  0  0  0  0  0  0  0  0  0  0
   51.9408    0.2699   17.2980 H   0  0  0  0  0  0  0  0  0  0  0  0
   49.5962    1.0344   17.1751 H   0  0  0  0  0  0  0  0  0  0  0  0
   54.2228    0.6861   17.3060 H   0  0  0  0  0  0  0  0  0  0  0  0
   54.8025    2.3157   17.0418 H   0  0  0  0  0  0  0  0  0  0  0  0
   51.5679    4.3021   20.5128 H   0  0  0  0  0  0  0  0  0  0  0  0
   49.6582    7.7687   18.7550 H   0  0  0  0  0  0  0  0  0  0  0  0
   51.3320    5.3020   22.7245 H   0  0  0  0  0  0  0  0  0  0  0  0
   49.4182    8.7647   21.0036 H   0  0  0  0  0  0  0  0  0  0  0  0
   52.2034    3.6336   18.6471 H   0  0  0  0  0  0  0  0  0  0  0  0
   51.0411    4.3211   19.3570 H   0  0  0  0  0  0  0  0  0  0  0  0
   51.1140    4.4013   19.4489 H   0  0  0  0  0  0  0  0  0  0  0  0
   52.0801    3.5885   18.5920 H   0  0  0  0  0  0  0  0  0  0  0  0
  2 18  1  0
  3  9  2  0
  4 21  1  0
  5 21  2  0
  6  8  1  0
  7  8  2  0
  7  9  1  0
  7 12  1  0
  8 10  1  0
  9 11  1  0
 10 13  2  0
 10 15  1  0
 11 16  2  0
 11 17  1  0
 12 14  2  0
 13 14  1  0
 15 21  1  0
 16 19  1  0
 17 20  2  0
 18 19  2  0
 18 20  1  0
 22 38  1  0
 23 29  2  0
 24 41  1  0
 25 41  2  0
 26 28  1  0
 27 28  2  0
 27 29  1  0
 27 32  1  0
 28 30  1  0
 29 31  1  0
 30 33  2  0
 30 35  1  0
 31 36  2  0
 31 37  1  0
 32 34  2  0
 33 34  1  0
 35 41  1  0
 36 39  1  0
 37 40  2  0
 38 39  2  0
 38 40  1  0
  1 46  1  0
  1 47  1  0
  6 48  1  0
  6 49  1  0
 12 50  1  0
 13 51  1  0
 14 52  1  0
 15 53  1  0
 15 54  1  0
 16 55  1  0
 17 56  1  0
 19 57  1  0
 20 58  1  0
 26 59  1  0
 26 60  1  0
 32 61  1  0
 33 62  1  0
 34 63  1  0
 35 64  1  0
 35 65  1  0
 36 66  1  0
 37 67  1  0
 39 68  1  0
 40 69  1  0
 44 70  1  0
 44 71  1  0
 45 72  1  0
 45 73  1  0
M  CHG  4   4  -1  24  -1  42   1  43   1
M  END
> <Uni-Dock RESULT> 
ENERGY=   -5.559  LOWER_BOUND=    0.000  UPPER_BOUND=    0.000
INTER + INTRA:          -5.559
INTER:                  -5.559
INTRA:                   0.000
UNBOUND:                 0.000

$$$$

     RDKit          3D

 73 70  0  0  0  0  0  0  0  0999 V2000
   48.4441    7.9106   19.4069 O   0  0  0  0  0  0  0  0  0  0  0  0
   49.9819    1.8892   16.9389 Br  0  0  0  0  0  0  0  0  0  0  0  0
   46.6170    7.5934   18.6245 O   0  0  0  0  0  0  0  0  0  0  0  0
   48.0017   12.5401   19.5140 O   0  0  0  0  0  0  0  0  0  0  0  0
   48.3519   13.1186   21.7055 O   0  0  0  0  0  0  0  0  0  0  0  0
   48.4013    9.9973   18.6147 N   0  0  0  0  0  0  0  0  0  0  0  0
   48.4235    8.0223   20.0757 C   0  0  0  0  0  0  0  0  0  0  0  0
   48.6725    9.3943   19.8686 C   0  0  0  0  0  0  0  0  0  0  0  0
   47.7094    7.2240   19.0502 C   0  0  0  0  0  0  0  0  0  0  0  0
   49.4079   10.1010   20.8495 C   0  0  0  0  0  0  0  0  0  0  0  0
   48.2909    5.9485   18.5520 C   0  0  0  0  0  0  0  0  0  0  0  0
   48.8057    7.3841   21.2660 C   0  0  0  0  0  0  0  0  0  0  0  0
   49.7792    9.4482   22.0396 C   0  0  0  0  0  0  0  0  0  0  0  0
   49.4801    8.1015   22.2474 C   0  0  0  0  0  0  0  0  0  0  0  0
   49.8068   11.5556   20.6767 C   0  0  0  0  0  0  0  0  0  0  0  0
   49.6739    5.7533   18.4641 C   0  0  0  0  0  0  0  0  0  0  0  0
   47.4158    4.9362   18.1316 C   0  0  0  0  0  0  0  0  0  0  0  0
   49.2982    3.5307   17.5859 C   0  0  0  0  0  0  0  0  0  0  0  0
   50.1778    4.5417   17.9814 C   0  0  0  0  0  0  0  0  0  0  0  0
   47.9190    3.7231   17.6547 C   0  0  0  0  0  0  0  0  0  0  0  0
   48.5951   12.4902   20.6347 C   0  0  0  0  0  0  0  0  0  0  0  0
   47.2625   13.4905   17.6262 Br  0  0  0  0  0  0  0  0  0  0  0  0
   46.6745    8.3933   22.1766 O   0  0  0  0  0  0  0  0  0  0  0  0
   50.8898    4.6535   17.1282 O   0  0  0  0  0  0  0  0  0  0  0  0
   48.7328    5.4189   17.0494 O   0  0  0  0  0  0  0  0  0  0  0  0
   47.3531    6.3259   19.2125 N   0  0  0  0  0  0  0  0  0  0  0  0
   48.5047    7.4281   21.0935 C   0  0  0  0  0  0  0  0  0  0  0  0
   48.4674    6.4661   20.0653 C   0  0  0  0  0  0  0  0  0  0  0  0
   47.4664    8.4664   21.2376 C   0  0  0  0  0  0  0  0  0  0  0  0
   49.4969    5.4963   20.0305 C   0  0  0  0  0  0  0  0  0  0  0  0
   47.4303    9.6428   20.3143 C   0  0  0  0  0  0  0  0  0  0  0  0
   49.5625    7.4819   22.0144 C   0  0  0  0  0  0  0  0  0  0  0  0
   50.5696    5.5814   20.9412 C   0  0  0  0  0  0  0  0  0  0  0  0
   50.6049    6.5670   21.9262 C   0  0  0  0  0  0  0  0  0  0  0  0
   49.4988    4.3594   19.0224 C   0  0  0  0  0  0  0  0  0  0  0  0
   48.2452    9.7466   19.1793 C   0  0  0  0  0  0  0  0  0  0  0  0
   46.5564   10.6977   20.6294 C   0  0  0  0  0  0  0  0  0  0  0  0
   47.3194   11.9320   18.7023 C   0  0  0  0  0  0  0  0  0  0  0  0
   48.1835   10.8878   18.3715 C   0  0  0  0  0  0  0  0  0  0  0  0
   46.5022   11.8415   19.8272 C   0  0  0  0  0  0  0  0  0  0  0  0
   49.7367    4.8650   17.5980 C   0  0  0  0  0  0  0  0  0  0  0  0
   48.6322    7.8564   19.7522 Na  0  0  0  0  0 15  0  0  0  0  0  0
   48.6322    7.8564   19.7522 Na  0  0  0  0  0 15  0  0  0  0  0  0
   48.4434    7.9283   19.4094 O   0  0  0  0  0  0  0  0  0  0  0  0
   48.4465    7.8575   19.3999 O   0  0  0  0  0  0  0  0  0  0  0  0
   48.7071    8.5830   20.0531 H   0  0  0  0  0  0  0  0  0  0  0  0
   48.7454    7.0756   19.7966 H   0  0  0  0  0  0  0  0  0  0  0  0
   48.2492   11.0228   18.7374 H   0  0  0  0  0  0  0  0  0  0  0  0
   47.5442    9.6226   18.2103 H   0  0  0  0  0  0  0  0  0  0  0  0
   48.5700    6.3373   21.4405 H   0  0  0  0  0  0  0  0  0  0  0  0
   50.3015   10.0016   22.8167 H   0  0  0  0  0  0  0  0  0  0  0  0
   49.7711    7.6220   23.1775 H   0  0  0  0  0  0  0  0  0  0  0  0
   50.3909   11.6677   19.7553 H   0  0  0  0  0  0  0  0  0  0  0  0
   50.4656   11.8721   21.4921 H   0  0  0  0  0  0  0  0  0  0  0  0
   50.3670    6.5465   18.7411 H   0  0  0  0  0  0  0  0  0  0  0  0
   46.3406    5.1016   18.1718 H   0  0  0  0  0  0  0  0  0  0  0  0
   51.2546    4.4023   17.9115 H   0  0  0  0  0  0  0  0  0  0  0  0
   47.2314    2.9445   17.3344 H   0  0  0  0  0  0  0  0  0  0  0  0
   47.6492    5.9167   18.2990 H   0  0  0  0  0  0  0  0  0  0  0  0
   46.8297    7.1722   19.0281 H   0  0  0  0  0  0  0  0  0  0  0  0
   49.5734    8.2415   22.7917 H   0  0  0  0  0  0  0  0  0  0  0  0
   51.3851    4.8599   20.8812 H   0  0  0  0  0  0  0  0  0  0  0  0
   51.4398    6.6108   22.6214 H   0  0  0  0  0  0  0  0  0  0  0  0
   50.2641    3.6145   19.2772 H   0  0  0  0  0  0  0  0  0  0  0  0
   48.5392    3.8257   19.0725 H   0  0  0  0  0  0  0  0  0  0  0  0
   48.9306    8.9511   18.8888 H   0  0  0  0  0  0  0  0  0  0  0  0
   45.9226   10.6331   21.5112 H   0  0  0  0  0  0  0  0  0  0  0  0
   48.8142   10.9440   17.4881 H   0  0  0  0  0  0  0  0  0  0  0  0
   45.8226   12.6498   20.0871 H   0  0  0  0  0  0  0  0  0  0  0  0
   48.7291    7.0742   19.7654 H   0  0  0  0  0  0  0  0  0  0  0  0
   48.7240    8.5667   20.0818 H   0  0  0  0  0  0  0  0  0  0  0  0
   48.6574    8.6149   19.9658 H   0  0  0  0  0  0  0  0  0  0  0  0
   48.7925    7.0969   19.8908 H   0  0  0  0  0  0  0  0  0  0  0  0
  2 18  1  0
  3  9  2  0
  4 21  1  0
  5 21  2  0
  6  8  1  0
  7  8  2  0
  7  9  1  0
  7 12  1  0
  8 10  1  0
  9 11  1  0
 10 13  2  0
 10 15  1  0
 11 16  2  0
 11 17  1  0
 12 14  2  0
 13 14  1  0
 15 21  1  0
 16 19  1  0
 17 20  2  0
 18 19  2  0
 18 20  1  0
 22 38  1  0
 23 29  2  0
 24 41  1  0
 25 41  2  0
 26 28  1  0
 27 28  2  0
 27 29  1  0
 27 32  1  0
 28 30  1  0
 29 31  1  0
 30 33  2  0
 30 35  1  0
 31 36  2  0
 31 37  1  0
 32 34  2  0
 33 34  1  0
 35 41  1  0
 36 39  1  0
 37 40  2  0
 38 39  2  0
 38 40  1  0
  1 46  1  0
  1 47  1  0
  6 48  1  0
  6 49  1  0
 12 50  1  0
 13 51  1  0
 14 52  1  0
 15 53  1  0
 15 54  1  0
 16 55  1  0
 17 56  1  0
 19 57  1  0
 20 58  1  0
 26 59  1  0
 26 60  1  0
 32 61  1  0
 33 62  1  0
 34 63  1  0
 35 64  1  0
 35 65  1  0
 36 66  1  0
 37 67  1  0
 39 68  1  0
 40 69  1  0
 44 70  1  0
 44 71  1  0
 45 72  1  0
 45 73  1  0
M  CHG  4   4  -1  24  -1  42   1  43   1
M  END
> <Uni-Dock RESULT> 
ENERGY=   -5.545  LOWER_BOUND=    3.782  UPPER_BOUND=    6.141
INTER + INTRA:          -5.545
INTER:                  -5.545
INTRA:                   0.000
UNBOUND:                 0.000

$$$$

     RDKit          3D

 73 70  0  0  0  0  0  0  0  0999 V2000
   49.1649   11.6830   18.1470 O   0  0  0  0  0  0  0  0  0  0  0  0
   48.5634    5.0550   17.4974 Br  0  0  0  0  0  0  0  0  0  0  0  0
   49.4667   11.6950   16.1570 O   0  0  0  0  0  0  0  0  0  0  0  0
   51.2669   15.7702   18.8645 O   0  0  0  0  0  0  0  0  0  0  0  0
   49.6932   17.0710   19.9090 O   0  0  0  0  0  0  0  0  0  0  0  0
   50.8589   13.1157   18.3945 N   0  0  0  0  0  0  0  0  0  0  0  0
   48.6376   12.0680   18.3313 C   0  0  0  0  0  0  0  0  0  0  0  0
   49.5134   13.0507   18.8359 C   0  0  0  0  0  0  0  0  0  0  0  0
   49.0512   11.1996   17.2025 C   0  0  0  0  0  0  0  0  0  0  0  0
   49.0966   13.8158   19.9508 C   0  0  0  0  0  0  0  0  0  0  0  0
   48.9334    9.7206   17.3105 C   0  0  0  0  0  0  0  0  0  0  0  0
   47.3436   11.9093   18.8511 C   0  0  0  0  0  0  0  0  0  0  0  0
   47.7942   13.6484   20.4571 C   0  0  0  0  0  0  0  0  0  0  0  0
   46.9241   12.7041   19.9118 C   0  0  0  0  0  0  0  0  0  0  0  0
   50.0010   14.8324   20.6244 C   0  0  0  0  0  0  0  0  0  0  0  0
   49.0824    9.0563   18.5332 C   0  0  0  0  0  0  0  0  0  0  0  0
   48.6997    8.9833   16.1404 C   0  0  0  0  0  0  0  0  0  0  0  0
   48.7176    6.9394   17.4205 C   0  0  0  0  0  0  0  0  0  0  0  0
   48.9728    7.6635   18.5879 C   0  0  0  0  0  0  0  0  0  0  0  0
   48.5844    7.5919   16.1957 C   0  0  0  0  0  0  0  0  0  0  0  0
   50.3444   16.0060   19.7035 C   0  0  0  0  0  0  0  0  0  0  0  0
   53.2732   16.0146   17.9008 Br  0  0  0  0  0  0  0  0  0  0  0  0
   46.7871   13.8582   17.3406 O   0  0  0  0  0  0  0  0  0  0  0  0
   49.8520    7.1566   19.0543 O   0  0  0  0  0  0  0  0  0  0  0  0
   50.0306    8.4887   17.2000 O   0  0  0  0  0  0  0  0  0  0  0  0
   48.4313   10.6325   16.6986 N   0  0  0  0  0  0  0  0  0  0  0  0
   47.4778   11.9737   18.5348 C   0  0  0  0  0  0  0  0  0  0  0  0
   47.8961   10.7400   17.9989 C   0  0  0  0  0  0  0  0  0  0  0  0
   47.7314   13.2556   17.8498 C   0  0  0  0  0  0  0  0  0  0  0  0
   47.5800    9.5651   18.7208 C   0  0  0  0  0  0  0  0  0  0  0  0
   49.0977   13.8647   17.8521 C   0  0  0  0  0  0  0  0  0  0  0  0
   46.8349   12.0563   19.7796 C   0  0  0  0  0  0  0  0  0  0  0  0
   46.9629    9.6648   19.9844 C   0  0  0  0  0  0  0  0  0  0  0  0
   46.5932   10.9006   20.5125 C   0  0  0  0  0  0  0  0  0  0  0  0
   47.9008    8.1798   18.1852 C   0  0  0  0  0  0  0  0  0  0  0  0
   50.2295   13.1970   18.3382 C   0  0  0  0  0  0  0  0  0  0  0  0
   49.2313   15.1783   17.3700 C   0  0  0  0  0  0  0  0  0  0  0  0
   51.5916   15.1420   17.8673 C   0  0  0  0  0  0  0  0  0  0  0  0
   51.4756   13.8341   18.3388 C   0  0  0  0  0  0  0  0  0  0  0  0
   50.4748   15.8175   17.3795 C   0  0  0  0  0  0  0  0  0  0  0  0
   49.4084    7.9201   18.1513 C   0  0  0  0  0  0  0  0  0  0  0  0
   48.8624   11.7212   18.4012 Na  0  0  0  0  0 15  0  0  0  0  0  0
   48.8624   11.7212   18.4012 Na  0  0  0  0  0 15  0  0  0  0  0  0
   49.1712   11.6991   18.1512 O   0  0  0  0  0  0  0  0  0  0  0  0
   49.1454   11.6345   18.1348 O   0  0  0  0  0  0  0  0  0  0  0  0
   48.9639   12.4351   18.7238 H   0  0  0  0  0  0  0  0  0  0  0  0
   48.4585   11.0455   18.3327 H   0  0  0  0  0  0  0  0  0  0  0  0
   51.2324   14.0812   18.5291 H   0  0  0  0  0  0  0  0  0  0  0  0
   50.9232   12.9154   17.3974 H   0  0  0  0  0  0  0  0  0  0  0  0
   46.6555   11.1818   18.4277 H   0  0  0  0  0  0  0  0  0  0  0  0
   47.4536   14.2694   21.2825 H   0  0  0  0  0  0  0  0  0  0  0  0
   45.9213   12.5987   20.3155 H   0  0  0  0  0  0  0  0  0  0  0  0
   50.9239   14.3396   20.9533 H   0  0  0  0  0  0  0  0  0  0  0  0
   49.5287   15.2247   21.5310 H   0  0  0  0  0  0  0  0  0  0  0  0
   49.3118    9.6092   19.4431 H   0  0  0  0  0  0  0  0  0  0  0  0
   48.6149    9.4992   15.1857 H   0  0  0  0  0  0  0  0  0  0  0  0
   49.0962    7.1562   19.5425 H   0  0  0  0  0  0  0  0  0  0  0  0
   48.4002    7.0310   15.2829 H   0  0  0  0  0  0  0  0  0  0  0  0
   49.0593    9.8010   16.6363 H   0  0  0  0  0  0  0  0  0  0  0  0
   48.9385   11.4411   16.3622 H   0  0  0  0  0  0  0  0  0  0  0  0
   46.5322   13.0219   20.1763 H   0  0  0  0  0  0  0  0  0  0  0  0
   46.7633    8.7596   20.5588 H   0  0  0  0  0  0  0  0  0  0  0  0
   46.1138   10.9535   21.4871 H   0  0  0  0  0  0  0  0  0  0  0  0
   47.4112    7.4055   18.7904 H   0  0  0  0  0  0  0  0  0  0  0  0
   47.4820    8.0733   17.1746 H   0  0  0  0  0  0  0  0  0  0  0  0
   50.1777   12.1750   18.7125 H   0  0  0  0  0  0  0  0  0  0  0  0
   48.3598   15.7108   16.9954 H   0  0  0  0  0  0  0  0  0  0  0  0
   52.3440   13.2949   18.7079 H   0  0  0  0  0  0  0  0  0  0  0  0
   50.5600   16.8352   17.0057 H   0  0  0  0  0  0  0  0  0  0  0  0
   48.4828   11.0365   18.3089 H   0  0  0  0  0  0  0  0  0  0  0  0
   48.9332   12.4279   18.7434 H   0  0  0  0  0  0  0  0  0  0  0  0
   49.0489   12.4415   18.6619 H   0  0  0  0  0  0  0  0  0  0  0  0
   48.3929   11.0876   18.4068 H   0  0  0  0  0  0  0  0  0  0  0  0
  2 18  1  0
  3  9  2  0
  4 21  1  0
  5 21  2  0
  6  8  1  0
  7  8  2  0
  7  9  1  0
  7 12  1  0
  8 10  1  0
  9 11  1  0
 10 13  2  0
 10 15  1  0
 11 16  2  0
 11 17  1  0
 12 14  2  0
 13 14  1  0
 15 21  1  0
 16 19  1  0
 17 20  2  0
 18 19  2  0
 18 20  1  0
 22 38  1  0
 23 29  2  0
 24 41  1  0
 25 41  2  0
 26 28  1  0
 27 28  2  0
 27 29  1  0
 27 32  1  0
 28 30  1  0
 29 31  1  0
 30 33  2  0
 30 35  1  0
 31 36  2  0
 31 37  1  0
 32 34  2  0
 33 34  1  0
 35 41  1  0
 36 39  1  0
 37 40  2  0
 38 39  2  0
 38 40  1  0
  1 46  1  0
  1 47  1  0
  6 48  1  0
  6 49  1  0
 12 50  1  0
 13 51  1  0
 14 52  1  0
 15 53  1  0
 15 54  1  0
 16 55  1  0
 17 56  1  0
 19 57  1  0
 20 58  1  0
 26 59  1  0
 26 60  1  0
 32 61  1  0
 33 62  1  0
 34 63  1  0
 35 64  1  0
 35 65  1  0
 36 66  1  0
 37 67  1  0
 39 68  1  0
 40 69  1  0
 44 70  1  0
 44 71  1  0
 45 72  1  0
 45 73  1  0
M  CHG  4   4  -1  24  -1  42   1  43   1
M  END
> <Uni-Dock RESULT> 
ENERGY=   -5.341  LOWER_BOUND=    6.234  UPPER_BOUND=    8.892
INTER + INTRA:          -5.341
INTER:                  -5.341
INTRA:                   0.000
UNBOUND:                 0.000

$$$$

     RDKit          3D

 73 70  0  0  0  0  0  0  0  0999 V2000
   48.2479    7.6346   15.0143 O   0  0  0  0  0  0  0  0  0  0  0  0
   44.3018    4.8477   10.3910 Br  0  0  0  0  0  0  0  0  0  0  0  0
   47.9987    5.9195   16.0379 O   0  0  0  0  0  0  0  0  0  0  0  0
   49.3890   10.1402   18.7638 O   0  0  0  0  0  0  0  0  0  0  0  0
   51.4457   11.0313   18.2781 O   0  0  0  0  0  0  0  0  0  0  0  0
   47.9305    8.7855   16.9007 N   0  0  0  0  0  0  0  0  0  0  0  0
   48.9008    7.7673   14.8864 C   0  0  0  0  0  0  0  0  0  0  0  0
   48.9027    8.7779   15.8691 C   0  0  0  0  0  0  0  0  0  0  0  0
   47.9986    6.5971   15.0122 C   0  0  0  0  0  0  0  0  0  0  0  0
   49.7389    9.9031   15.6765 C   0  0  0  0  0  0  0  0  0  0  0  0
   47.1095    6.2095   13.8841 C   0  0  0  0  0  0  0  0  0  0  0  0
   49.7737    7.8172   13.7884 C   0  0  0  0  0  0  0  0  0  0  0  0
   50.6120    9.9356   14.5733 C   0  0  0  0  0  0  0  0  0  0  0  0
   50.6307    8.9014   13.6372 C   0  0  0  0  0  0  0  0  0  0  0  0
   49.7445   11.0857   16.6286 C   0  0  0  0  0  0  0  0  0  0  0  0
   46.5773    7.1592   13.0047 C   0  0  0  0  0  0  0  0  0  0  0  0
   46.7785    4.8551   13.7313 C   0  0  0  0  0  0  0  0  0  0  0  0
   45.4323    5.3978   11.8053 C   0  0  0  0  0  0  0  0  0  0  0  0
   45.7384    6.7519   11.9630 C   0  0  0  0  0  0  0  0  0  0  0  0
   45.9449    4.4471   12.6868 C   0  0  0  0  0  0  0  0  0  0  0  0
   50.2495   10.7075   18.0233 C   0  0  0  0  0  0  0  0  0  0  0  0
   48.0321    9.9193   20.5312 Br  0  0  0  0  0  0  0  0  0  0  0  0
   51.4572    6.8810   15.4252 O   0  0  0  0  0  0  0  0  0  0  0  0
   44.7513    7.2741   11.9441 O   0  0  0  0  0  0  0  0  0  0  0  0
   45.4702    6.0496   13.7409 O   0  0  0  0  0  0  0  0  0  0  0  0
   48.0799    5.7878   14.4661 N   0  0  0  0  0  0  0  0  0  0  0  0
   49.7109    7.5885   14.0453 C   0  0  0  0  0  0  0  0  0  0  0  0
   48.5724    6.8462   13.6750 C   0  0  0  0  0  0  0  0  0  0  0  0
   50.3585    7.4315   15.3616 C   0  0  0  0  0  0  0  0  0  0  0  0
   48.0429    7.0514   12.3791 C   0  0  0  0  0  0  0  0  0  0  0  0
   49.7378    8.0138   16.5917 C   0  0  0  0  0  0  0  0  0  0  0  0
   50.2668    8.5579   13.1962 C   0  0  0  0  0  0  0  0  0  0  0  0
   48.5911    8.0504   11.5492 C   0  0  0  0  0  0  0  0  0  0  0  0
   49.6944    8.8003   11.9532 C   0  0  0  0  0  0  0  0  0  0  0  0
   46.8773    6.2348   11.8468 C   0  0  0  0  0  0  0  0  0  0  0  0
   48.4552    8.5776   16.6049 C   0  0  0  0  0  0  0  0  0  0  0  0
   50.4995    8.0160   17.7731 C   0  0  0  0  0  0  0  0  0  0  0  0
   48.7143    9.1372   18.9459 C   0  0  0  0  0  0  0  0  0  0  0  0
   47.9430    9.1322   17.7834 C   0  0  0  0  0  0  0  0  0  0  0  0
   49.9908    8.5786   18.9476 C   0  0  0  0  0  0  0  0  0  0  0  0
   45.5750    6.5597   12.5815 C   0  0  0  0  0  0  0  0  0  0  0  0
   48.5039    7.7896   14.7535 Na  0  0  0  0  0 15  0  0  0  0  0  0
   48.5039    7.7896   14.7535 Na  0  0  0  0  0 15  0  0  0  0  0  0
   48.2540    7.6452   15.0274 O   0  0  0  0  0  0  0  0  0  0  0  0
   48.2303    7.6031   14.9746 O   0  0  0  0  0  0  0  0  0  0  0  0
   48.9054    8.3297   15.1673 H   0  0  0  0  0  0  0  0  0  0  0  0
   48.3584    7.4047   14.0790 H   0  0  0  0  0  0  0  0  0  0  0  0
   48.2917    9.3102   17.7277 H   0  0  0  0  0  0  0  0  0  0  0  0
   47.7342    7.8380   17.2205 H   0  0  0  0  0  0  0  0  0  0  0  0
   49.8013    7.0123   13.0582 H   0  0  0  0  0  0  0  0  0  0  0  0
   51.2912   10.7760   14.4489 H   0  0  0  0  0  0  0  0  0  0  0  0
   51.3187    8.9462   12.7981 H   0  0  0  0  0  0  0  0  0  0  0  0
   48.7317   11.5000   16.7031 H   0  0  0  0  0  0  0  0  0  0  0  0
   50.3722   11.8920   16.2351 H   0  0  0  0  0  0  0  0  0  0  0  0
   46.7856    8.2199   13.1380 H   0  0  0  0  0  0  0  0  0  0  0  0
   47.1687    4.1217   14.4348 H   0  0  0  0  0  0  0  0  0  0  0  0
   45.3251    7.4989   11.2885 H   0  0  0  0  0  0  0  0  0  0  0  0
   45.6975    3.3944   12.5763 H   0  0  0  0  0  0  0  0  0  0  0  0
   47.0580    5.6586   14.2972 H   0  0  0  0  0  0  0  0  0  0  0  0
   48.2297    5.8758   15.4632 H   0  0  0  0  0  0  0  0  0  0  0  0
   51.1389    9.1253   13.5103 H   0  0  0  0  0  0  0  0  0  0  0  0
   48.1506    8.2376   10.5694 H   0  0  0  0  0  0  0  0  0  0  0  0
   50.1039    9.5626   11.2946 H   0  0  0  0  0  0  0  0  0  0  0  0
   46.7412    6.4064   10.7709 H   0  0  0  0  0  0  0  0  0  0  0  0
   47.1049    5.1644   11.9485 H   0  0  0  0  0  0  0  0  0  0  0  0
   47.8234    8.5902   15.7173 H   0  0  0  0  0  0  0  0  0  0  0  0
   51.4992    7.5872   17.7756 H   0  0  0  0  0  0  0  0  0  0  0  0
   46.9409    9.5531   17.7767 H   0  0  0  0  0  0  0  0  0  0  0  0
   50.5947    8.5747   19.8521 H   0  0  0  0  0  0  0  0  0  0  0  0
   48.3338    7.3874   14.0974 H   0  0  0  0  0  0  0  0  0  0  0  0
   48.9240    8.3364   15.1359 H   0  0  0  0  0  0  0  0  0  0  0  0
   48.8450    8.3000   15.2483 H   0  0  0  0  0  0  0  0  0  0  0  0
   48.4365    7.4658   14.0377 H   0  0  0  0  0  0  0  0  0  0  0  0
  2 18  1  0
  3  9  2  0
  4 21  1  0
  5 21  2  0
  6  8  1  0
  7  8  2  0
  7  9  1  0
  7 12  1  0
  8 10  1  0
  9 11  1  0
 10 13  2  0
 10 15  1  0
 11 16  2  0
 11 17  1  0
 12 14  2  0
 13 14  1  0
 15 21  1  0
 16 19  1  0
 17 20  2  0
 18 19  2  0
 18 20  1  0
 22 38  1  0
 23 29  2  0
 24 41  1  0
 25 41  2  0
 26 28  1  0
 27 28  2  0
 27 29  1  0
 27 32  1  0
 28 30  1  0
 29 31  1  0
 30 33  2  0
 30 35  1  0
 31 36  2  0
 31 37  1  0
 32 34  2  0
 33 34  1  0
 35 41  1  0
 36 39  1  0
 37 40  2  0
 38 39  2  0
 38 40  1  0
  1 46  1  0
  1 47  1  0
  6 48  1  0
  6 49  1  0
 12 50  1  0
 13 51  1  0
 14 52  1  0
 15 53  1  0
 15 54  1  0
 16 55  1  0
 17 56  1  0
 19 57  1  0
 20 58  1  0
 26 59  1  0
 26 60  1  0
 32 61  1  0
 33 62  1  0
 34 63  1  0
 35 64  1  0
 35 65  1  0
 36 66  1  0
 37 67  1  0
 39 68  1  0
 40 69  1  0
 44 70  1  0
 44 71  1  0
 45 72  1  0
 45 73  1  0
M  CHG  4   4  -1  24  -1  42   1  43   1
M  END
> <Uni-Dock RESULT> 
ENERGY=   -5.031  LOWER_BOUND=    5.699  UPPER_BOUND=    8.020
INTER + INTRA:          -5.031
INTER:                  -5.031
INTRA:                   0.000
UNBOUND:                 0.000

$$$$

     RDKit          3D

 73 70  0  0  0  0  0  0  0  0999 V2000
   49.2353   10.1793   21.6686 O   0  0  0  0  0  0  0  0  0  0  0  0
   50.6978   16.6428   22.5616 Br  0  0  0  0  0  0  0  0  0  0  0  0
   49.6767    9.9691   23.6211 O   0  0  0  0  0  0  0  0  0  0  0  0
   49.9543    5.6993   20.6429 O   0  0  0  0  0  0  0  0  0  0  0  0
   47.9857    4.9811   19.7108 O   0  0  0  0  0  0  0  0  0  0  0  0
   50.3978    8.3258   21.2248 N   0  0  0  0  0  0  0  0  0  0  0  0
   48.6041    9.9779   21.5227 C   0  0  0  0  0  0  0  0  0  0  0  0
   49.1028    8.8097   20.9114 C   0  0  0  0  0  0  0  0  0  0  0  0
   49.3467   10.6219   22.6331 C   0  0  0  0  0  0  0  0  0  0  0  0
   48.3890    8.2644   19.8181 C   0  0  0  0  0  0  0  0  0  0  0  0
   49.6687   12.0733   22.5791 C   0  0  0  0  0  0  0  0  0  0  0  0
   47.3798   10.5403   21.1292 C   0  0  0  0  0  0  0  0  0  0  0  0
   47.1605    8.8367   19.4390 C   0  0  0  0  0  0  0  0  0  0  0  0
   46.6589    9.9645   20.0892 C   0  0  0  0  0  0  0  0  0  0  0  0
   48.8913    7.0646   19.0350 C   0  0  0  0  0  0  0  0  0  0  0  0
   49.9120   12.7301   21.3675 C   0  0  0  0  0  0  0  0  0  0  0  0
   49.7599   12.7813   23.7865 C   0  0  0  0  0  0  0  0  0  0  0  0
   50.2868   14.7957   22.5697 C   0  0  0  0  0  0  0  0  0  0  0  0
   50.2201   14.0938   21.3633 C   0  0  0  0  0  0  0  0  0  0  0  0
   50.0621   14.1454   23.7822 C   0  0  0  0  0  0  0  0  0  0  0  0
   48.9399    5.7931   19.8861 C   0  0  0  0  0  0  0  0  0  0  0  0
   51.8654    4.8204   21.4100 Br  0  0  0  0  0  0  0  0  0  0  0  0
   46.3875    8.7628   22.6278 O   0  0  0  0  0  0  0  0  0  0  0  0
   51.1707   14.3432   20.8326 O   0  0  0  0  0  0  0  0  0  0  0  0
   51.0893   12.9180   22.6234 O   0  0  0  0  0  0  0  0  0  0  0  0
   48.9670   11.3183   23.2081 N   0  0  0  0  0  0  0  0  0  0  0  0
   47.5132   10.4218   21.4298 C   0  0  0  0  0  0  0  0  0  0  0  0
   48.3227   11.4453   21.9601 C   0  0  0  0  0  0  0  0  0  0  0  0
   47.4253    9.0865   22.0512 C   0  0  0  0  0  0  0  0  0  0  0  0
   48.3163   12.6991   21.3046 C   0  0  0  0  0  0  0  0  0  0  0  0
   48.5421    8.1020   21.9055 C   0  0  0  0  0  0  0  0  0  0  0  0
   46.7783   10.6014   20.2477 C   0  0  0  0  0  0  0  0  0  0  0  0
   47.5993   12.8558   20.1010 C   0  0  0  0  0  0  0  0  0  0  0  0
   46.8361   11.8154   19.5738 C   0  0  0  0  0  0  0  0  0  0  0  0
   49.0783   13.8961   21.8481 C   0  0  0  0  0  0  0  0  0  0  0  0
   49.7794    8.4312   21.3365 C   0  0  0  0  0  0  0  0  0  0  0  0
   48.3145    6.7831   22.3351 C   0  0  0  0  0  0  0  0  0  0  0  0
   50.5302    6.1477   21.6236 C   0  0  0  0  0  0  0  0  0  0  0  0
   50.7737    7.4553   21.2027 C   0  0  0  0  0  0  0  0  0  0  0  0
   49.3048    5.8067   22.1926 C   0  0  0  0  0  0  0  0  0  0  0  0
   50.5922   13.6965   21.7504 C   0  0  0  0  0  0  0  0  0  0  0  0
   48.9160   10.2461   21.4424 Na  0  0  0  0  0 15  0  0  0  0  0  0
   48.9160   10.2461   21.4424 Na  0  0  0  0  0 15  0  0  0  0  0  0
   49.2361   10.1622   21.6634 O   0  0  0  0  0  0  0  0  0  0  0  0
   49.2322   10.2306   21.6840 O   0  0  0  0  0  0  0  0  0  0  0  0
   48.7733    9.5530   21.0914 H   0  0  0  0  0  0  0  0  0  0  0  0
   48.7395   11.0062   21.5672 H   0  0  0  0  0  0  0  0  0  0  0  0
   50.4534    7.3020   21.0286 H   0  0  0  0  0  0  0  0  0  0  0  0
   50.5981    8.4430   22.2171 H   0  0  0  0  0  0  0  0  0  0  0  0
   46.9768   11.4141   21.6350 H   0  0  0  0  0  0  0  0  0  0  0  0
   46.5852    8.3905   18.6310 H   0  0  0  0  0  0  0  0  0  0  0  0
   45.7048   10.3835   19.7829 H   0  0  0  0  0  0  0  0  0  0  0  0
   49.8903    7.2800   18.6367 H   0  0  0  0  0  0  0  0  0  0  0  0
   48.2529    6.8798   18.1648 H   0  0  0  0  0  0  0  0  0  0  0  0
   49.8924   12.1850   20.4248 H   0  0  0  0  0  0  0  0  0  0  0  0
   49.6007   12.2617   24.7298 H   0  0  0  0  0  0  0  0  0  0  0  0
   50.4134   14.5937   20.4164 H   0  0  0  0  0  0  0  0  0  0  0  0
   50.1273   14.6846   24.7239 H   0  0  0  0  0  0  0  0  0  0  0  0
   49.8178   11.9223   23.2362 H   0  0  0  0  0  0  0  0  0  0  0  0
   49.2341   10.3787   23.4729 H   0  0  0  0  0  0  0  0  0  0  0  0
   46.1701    9.7917   19.8530 H   0  0  0  0  0  0  0  0  0  0  0  0
   47.6347   13.8097   19.5738 H   0  0  0  0  0  0  0  0  0  0  0  0
   46.2870   11.9602   18.6464 H   0  0  0  0  0  0  0  0  0  0  0  0
   48.7964   14.8125   21.3132 H   0  0  0  0  0  0  0  0  0  0  0  0
   48.7922   14.0658   22.8956 H   0  0  0  0  0  0  0  0  0  0  0  0
   50.0062    9.4418   20.9982 H   0  0  0  0  0  0  0  0  0  0  0  0
   47.3562    6.5122   22.7729 H   0  0  0  0  0  0  0  0  0  0  0  0
   51.7315    7.7333   20.7708 H   0  0  0  0  0  0  0  0  0  0  0  0
   49.1111    4.7902   22.5274 H   0  0  0  0  0  0  0  0  0  0  0  0
   48.7673   11.0063   21.5889 H   0  0  0  0  0  0  0  0  0  0  0  0
   48.7447    9.5700   21.0749 H   0  0  0  0  0  0  0  0  0  0  0  0
   48.8572    9.5184   21.1449 H   0  0  0  0  0  0  0  0  0  0  0  0
   48.6587   10.9894   21.4983 H   0  0  0  0  0  0  0  0  0  0  0  0
  2 18  1  0
  3  9  2  0
  4 21  1  0
  5 21  2  0
  6  8  1  0
  7  8  2  0
  7  9  1  0
  7 12  1  0
  8 10  1  0
  9 11  1  0
 10 13  2  0
 10 15  1  0
 11 16  2  0
 11 17  1  0
 12 14  2  0
 13 14  1  0
 15 21  1  0
 16 19  1  0
 17 20  2  0
 18 19  2  0
 18 20  1  0
 22 38  1  0
 23 29  2  0
 24 41  1  0
 25 41  2  0
 26 28  1  0
 27 28  2  0
 27 29  1  0
 27 32  1  0
 28 30  1  0
 29 31  1  0
 30 33  2  0
 30 35  1  0
 31 36  2  0
 31 37  1  0
 32 34  2  0
 33 34  1  0
 35 41  1  0
 36 39  1  0
 37 40  2  0
 38 39  2  0
 38 40  1  0
  1 46  1  0
  1 47  1  0
  6 48  1  0
  6 49  1  0
 12 50  1  0
 13 51  1  0
 14 52  1  0
 15 53  1  0
 15 54  1  0
 16 55  1  0
 17 56  1  0
 19 57  1  0
 20 58  1  0
 26 59  1  0
 26 60  1  0
 32 61  1  0
 33 62  1  0
 34 63  1  0
 35 64  1  0
 35 65  1  0
 36 66  1  0
 37 67  1  0
 39 68  1  0
 40 69  1  0
 44 70  1  0
 44 71  1  0
 45 72  1  0
 45 73  1  0
M  CHG  4   4  -1  24  -1  42   1  43   1
M  END
> <Uni-Dock RESULT> 
ENERGY=   -5.007  LOWER_BOUND=    4.591  UPPER_BOUND=    8.900
INTER + INTRA:          -5.007
INTER:                  -5.007
INTRA:                   0.000
UNBOUND:                 0.000

$$$$

     RDKit          3D

 73 70  0  0  0  0  0  0  0  0999 V2000
   48.5788    8.4243   16.2981 O   0  0  0  0  0  0  0  0  0  0  0  0
   47.5218    5.3933   22.1640 Br  0  0  0  0  0  0  0  0  0  0  0  0
   47.6321   10.0001   17.1175 O   0  0  0  0  0  0  0  0  0  0  0  0
   47.7494    9.7344   11.9124 O   0  0  0  0  0  0  0  0  0  0  0  0
   49.8190    9.8758   10.9343 O   0  0  0  0  0  0  0  0  0  0  0  0
   47.4085    8.7204   14.4202 N   0  0  0  0  0  0  0  0  0  0  0  0
   49.2056    8.5786   16.0893 C   0  0  0  0  0  0  0  0  0  0  0  0
   48.7785    8.5586   14.7460 C   0  0  0  0  0  0  0  0  0  0  0  0
   48.2628    8.9465   17.1733 C   0  0  0  0  0  0  0  0  0  0  0  0
   49.6981    8.1455   13.7530 C   0  0  0  0  0  0  0  0  0  0  0  0
   48.0972    8.0611   18.3573 C   0  0  0  0  0  0  0  0  0  0  0  0
   50.5354    8.2920   16.4354 C   0  0  0  0  0  0  0  0  0  0  0  0
   51.0290    7.8666   14.1154 C   0  0  0  0  0  0  0  0  0  0  0  0
   51.4452    7.9400   15.4450 C   0  0  0  0  0  0  0  0  0  0  0  0
   49.3090    8.0016   12.2926 C   0  0  0  0  0  0  0  0  0  0  0  0
   48.2344    6.6715   18.2639 C   0  0  0  0  0  0  0  0  0  0  0  0
   47.7618    8.6475   19.5865 C   0  0  0  0  0  0  0  0  0  0  0  0
   47.7494    6.4711   20.6255 C   0  0  0  0  0  0  0  0  0  0  0  0
   48.0614    5.8759   19.4005 C   0  0  0  0  0  0  0  0  0  0  0  0
   47.5946    7.8532   20.7237 C   0  0  0  0  0  0  0  0  0  0  0  0
   48.9288    9.3413   11.6570 C   0  0  0  0  0  0  0  0  0  0  0  0
   45.6342   10.3063   11.4515 Br  0  0  0  0  0  0  0  0  0  0  0  0
   50.9442   10.6973   15.7741 O   0  0  0  0  0  0  0  0  0  0  0  0
   47.3060    5.0628   19.2752 O   0  0  0  0  0  0  0  0  0  0  0  0
   46.7949    7.2794   19.0103 O   0  0  0  0  0  0  0  0  0  0  0  0
   48.5424    9.1512   18.0896 N   0  0  0  0  0  0  0  0  0  0  0  0
   50.3189    8.5621   16.4844 C   0  0  0  0  0  0  0  0  0  0  0  0
   49.4953    8.2440   17.5819 C   0  0  0  0  0  0  0  0  0  0  0  0
   50.1234    9.7851   15.6824 C   0  0  0  0  0  0  0  0  0  0  0  0
   49.7829    7.0609   18.3026 C   0  0  0  0  0  0  0  0  0  0  0  0
   48.9983    9.8827   14.7016 C   0  0  0  0  0  0  0  0  0  0  0  0
   51.3466    7.7051   16.0615 C   0  0  0  0  0  0  0  0  0  0  0  0
   50.7970    6.1936   17.8478 C   0  0  0  0  0  0  0  0  0  0  0  0
   51.5737    6.5108   16.7348 C   0  0  0  0  0  0  0  0  0  0  0  0
   49.0172    6.6757   19.5572 C   0  0  0  0  0  0  0  0  0  0  0  0
   47.9841    8.9206   14.6063 C   0  0  0  0  0  0  0  0  0  0  0  0
   48.9881   10.9786   13.8214 C   0  0  0  0  0  0  0  0  0  0  0  0
   46.9829   10.1432   12.7724 C   0  0  0  0  0  0  0  0  0  0  0  0
   46.9745    9.0560   13.6466 C   0  0  0  0  0  0  0  0  0  0  0  0
   47.9845   11.1083   12.8568 C   0  0  0  0  0  0  0  0  0  0  0  0
   47.5680    6.2979   19.2434 C   0  0  0  0  0  0  0  0  0  0  0  0
   48.9503    8.2908   16.2557 Na  0  0  0  0  0 15  0  0  0  0  0  0
   48.9503    8.2908   16.2557 Na  0  0  0  0  0 15  0  0  0  0  0  0
   48.5779    8.4287   16.2808 O   0  0  0  0  0  0  0  0  0  0  0  0
   48.5824    8.4108   16.3499 O   0  0  0  0  0  0  0  0  0  0  0  0
   49.1159    8.4051   15.4918 H   0  0  0  0  0  0  0  0  0  0  0  0
   49.1562    8.0432   16.9773 H   0  0  0  0  0  0  0  0  0  0  0  0
   47.3137    9.0798   13.4447 H   0  0  0  0  0  0  0  0  0  0  0  0
   46.9706    9.4111   15.0283 H   0  0  0  0  0  0  0  0  0  0  0  0
   50.8711    8.3544   17.4674 H   0  0  0  0  0  0  0  0  0  0  0  0
   51.7507    7.5965   13.3478 H   0  0  0  0  0  0  0  0  0  0  0  0
   52.4796    7.7270   15.6985 H   0  0  0  0  0  0  0  0  0  0  0  0
   48.4699    7.3007   12.2050 H   0  0  0  0  0  0  0  0  0  0  0  0
   50.1309    7.5617   11.7182 H   0  0  0  0  0  0  0  0  0  0  0  0
   48.4473    6.1959   17.3075 H   0  0  0  0  0  0  0  0  0  0  0  0
   47.6252    9.7256   19.6503 H   0  0  0  0  0  0  0  0  0  0  0  0
   48.1644    4.7960   19.3159 H   0  0  0  0  0  0  0  0  0  0  0  0
   47.3376    8.3189   21.6717 H   0  0  0  0  0  0  0  0  0  0  0  0
   47.7708    8.6331   18.5649 H   0  0  0  0  0  0  0  0  0  0  0  0
   48.1329    9.7843   17.4145 H   0  0  0  0  0  0  0  0  0  0  0  0
   51.9608    7.9683   15.2043 H   0  0  0  0  0  0  0  0  0  0  0  0
   50.9844    5.2597   18.3787 H   0  0  0  0  0  0  0  0  0  0  0  0
   52.3539    5.8291   16.4046 H   0  0  0  0  0  0  0  0  0  0  0  0
   49.5086    5.8395   20.0717 H   0  0  0  0  0  0  0  0  0  0  0  0
   49.0377    7.5131   20.2688 H   0  0  0  0  0  0  0  0  0  0  0  0
   47.9438    8.0596   15.2727 H   0  0  0  0  0  0  0  0  0  0  0  0
   49.7729   11.7297   13.8802 H   0  0  0  0  0  0  0  0  0  0  0  0
   46.1893    8.3062   13.5970 H   0  0  0  0  0  0  0  0  0  0  0  0
   47.9933   11.9608   12.1816 H   0  0  0  0  0  0  0  0  0  0  0  0
   49.1239    8.0534   16.9870 H   0  0  0  0  0  0  0  0  0  0  0  0
   49.1492    8.3905   15.4993 H   0  0  0  0  0  0  0  0  0  0  0  0
   49.0183    8.4442   15.4854 H   0  0  0  0  0  0  0  0  0  0  0  0
   49.2501    8.0175   16.9319 H   0  0  0  0  0  0  0  0  0  0  0  0
  2 18  1  0
  3  9  2  0
  4 21  1  0
  5 21  2  0
  6  8  1  0
  7  8  2  0
  7  9  1  0
  7 12  1  0
  8 10  1  0
  9 11  1  0
 10 13  2  0
 10 15  1  0
 11 16  2  0
 11 17  1  0
 12 14  2  0
 13 14  1  0
 15 21  1  0
 16 19  1  0
 17 20  2  0
 18 19  2  0
 18 20  1  0
 22 38  1  0
 23 29  2  0
 24 41  1  0
 25 41  2  0
 26 28  1  0
 27 28  2  0
 27 29  1  0
 27 32  1  0
 28 30  1  0
 29 31  1  0
 30 33  2  0
 30 35  1  0
 31 36  2  0
 31 37  1  0
 32 34  2  0
 33 34  1  0
 35 41  1  0
 36 39  1  0
 37 40  2  0
 38 39  2  0
 38 40  1  0
  1 46  1  0
  1 47  1  0
  6 48  1  0
  6 49  1  0
 12 50  1  0
 13 51  1  0
 14 52  1  0
 15 53  1  0
 15 54  1  0
 16 55  1  0
 17 56  1  0
 19 57  1  0
 20 58  1  0
 26 59  1  0
 26 60  1  0
 32 61  1  0
 33 62  1  0
 34 63  1  0
 35 64  1  0
 35 65  1  0
 36 66  1  0
 37 67  1  0
 39 68  1  0
 40 69  1  0
 44 70  1  0
 44 71  1  0
 45 72  1  0
 45 73  1  0
M  CHG  4   4  -1  24  -1  42   1  43   1
M  END
> <Uni-Dock RESULT> 
ENERGY=   -4.867  LOWER_BOUND=    5.057  UPPER_BOUND=    7.816
INTER + INTRA:          -4.867
INTER:                  -4.867
INTRA:                   0.000
UNBOUND:                 0.000

$$$$

     RDKit          3D

 73 70  0  0  0  0  0  0  0  0999 V2000
   48.2741    9.5672   13.5309 O   0  0  0  0  0  0  0  0  0  0  0  0
   45.7350   14.3097    9.5592 Br  0  0  0  0  0  0  0  0  0  0  0  0
   46.3984    8.8407   13.6030 O   0  0  0  0  0  0  0  0  0  0  0  0
   49.6149    7.5218   17.4879 O   0  0  0  0  0  0  0  0  0  0  0  0
   51.4370    6.2537   16.9121 O   0  0  0  0  0  0  0  0  0  0  0  0
   48.4585    9.2602   15.7344 N   0  0  0  0  0  0  0  0  0  0  0  0
   48.7192    9.1122   13.2960 C   0  0  0  0  0  0  0  0  0  0  0  0
   49.2312    8.9211   14.5955 C   0  0  0  0  0  0  0  0  0  0  0  0
   47.3023    9.5013   13.0953 C   0  0  0  0  0  0  0  0  0  0  0  0
   50.6034    8.6069   14.7392 C   0  0  0  0  0  0  0  0  0  0  0  0
   46.9584   10.6743   12.2474 C   0  0  0  0  0  0  0  0  0  0  0  0
   49.5172    8.9033   12.1605 C   0  0  0  0  0  0  0  0  0  0  0  0
   51.3889    8.3956   13.5908 C   0  0  0  0  0  0  0  0  0  0  0  0
   50.8509    8.5413   12.3119 C   0  0  0  0  0  0  0  0  0  0  0  0
   51.2699    8.4729   16.0967 C   0  0  0  0  0  0  0  0  0  0  0  0
   47.8011   11.7875   12.1519 C   0  0  0  0  0  0  0  0  0  0  0  0
   45.7373   10.6631   11.5575 C   0  0  0  0  0  0  0  0  0  0  0  0
   46.2265   12.8428   10.6489 C   0  0  0  0  0  0  0  0  0  0  0  0
   47.4346   12.8727   11.3501 C   0  0  0  0  0  0  0  0  0  0  0  0
   45.3735   11.7448   10.7515 C   0  0  0  0  0  0  0  0  0  0  0  0
   50.7176    7.2943   16.9023 C   0  0  0  0  0  0  0  0  0  0  0  0
   48.2352    7.7800   19.2324 Br  0  0  0  0  0  0  0  0  0  0  0  0
   48.9489    6.4694   12.5386 O   0  0  0  0  0  0  0  0  0  0  0  0
   47.4322   13.8528   11.8856 O   0  0  0  0  0  0  0  0  0  0  0  0
   46.1394   12.0800   12.5418 O   0  0  0  0  0  0  0  0  0  0  0  0
   46.8491    9.4719   12.2272 N   0  0  0  0  0  0  0  0  0  0  0  0
   49.2138    8.7751   12.2775 C   0  0  0  0  0  0  0  0  0  0  0  0
   48.2115    9.7093   11.9509 C   0  0  0  0  0  0  0  0  0  0  0  0
   48.9350    7.5720   13.0848 C   0  0  0  0  0  0  0  0  0  0  0  0
   48.5763   10.8161   11.1487 C   0  0  0  0  0  0  0  0  0  0  0  0
   48.7303    7.6755   14.5630 C   0  0  0  0  0  0  0  0  0  0  0  0
   50.5499    8.9624   11.8912 C   0  0  0  0  0  0  0  0  0  0  0  0
   49.9272   11.0089   10.7949 C   0  0  0  0  0  0  0  0  0  0  0  0
   50.9089   10.0906   11.1634 C   0  0  0  0  0  0  0  0  0  0  0  0
   47.5542   11.8292   10.6610 C   0  0  0  0  0  0  0  0  0  0  0  0
   48.6194    8.9008   15.2336 C   0  0  0  0  0  0  0  0  0  0  0  0
   48.6796    6.4819   15.3037 C   0  0  0  0  0  0  0  0  0  0  0  0
   48.4199    7.7374   17.3471 C   0  0  0  0  0  0  0  0  0  0  0  0
   48.4577    8.9295   16.6234 C   0  0  0  0  0  0  0  0  0  0  0  0
   48.5273    6.5118   16.6931 C   0  0  0  0  0  0  0  0  0  0  0  0
   46.9959   12.6699   11.8112 C   0  0  0  0  0  0  0  0  0  0  0  0
   48.6043    9.5148   13.3169 Na  0  0  0  0  0 15  0  0  0  0  0  0
   48.6043    9.5148   13.3169 Na  0  0  0  0  0 15  0  0  0  0  0  0
   48.2812    9.5588   13.5450 O   0  0  0  0  0  0  0  0  0  0  0  0
   48.2532    9.5922   13.4883 O   0  0  0  0  0  0  0  0  0  0  0  0
   49.0943    9.1272   13.8003 H   0  0  0  0  0  0  0  0  0  0  0  0
   48.4444    9.8500   12.6194 H   0  0  0  0  0  0  0  0  0  0  0  0
   48.7800    8.7092   16.5608 H   0  0  0  0  0  0  0  0  0  0  0  0
   47.4778    9.0230   15.5906 H   0  0  0  0  0  0  0  0  0  0  0  0
   49.1050    9.0065   11.1599 H   0  0  0  0  0  0  0  0  0  0  0  0
   52.4318    8.1058   13.6978 H   0  0  0  0  0  0  0  0  0  0  0  0
   51.4758    8.3657   11.4411 H   0  0  0  0  0  0  0  0  0  0  0  0
   51.1354    9.4022   16.6635 H   0  0  0  0  0  0  0  0  0  0  0  0
   52.3511    8.3432   15.9820 H   0  0  0  0  0  0  0  0  0  0  0  0
   48.7301   11.8330   12.7186 H   0  0  0  0  0  0  0  0  0  0  0  0
   45.0691    9.8095   11.6574 H   0  0  0  0  0  0  0  0  0  0  0  0
   48.0941   13.7358   11.2874 H   0  0  0  0  0  0  0  0  0  0  0  0
   44.4260   11.7239   10.2190 H   0  0  0  0  0  0  0  0  0  0  0  0
   46.3406   10.3775   12.3310 H   0  0  0  0  0  0  0  0  0  0  0  0
   46.6570    8.9030   13.0419 H   0  0  0  0  0  0  0  0  0  0  0  0
   51.3066    8.2322   12.1658 H   0  0  0  0  0  0  0  0  0  0  0  0
   50.2118   11.8882   10.2161 H   0  0  0  0  0  0  0  0  0  0  0  0
   51.9442   10.2570   10.8753 H   0  0  0  0  0  0  0  0  0  0  0  0
   47.9940   12.4927    9.9049 H   0  0  0  0  0  0  0  0  0  0  0  0
   46.7340   11.3040   10.1517 H   0  0  0  0  0  0  0  0  0  0  0  0
   48.6427    9.8515   14.7018 H   0  0  0  0  0  0  0  0  0  0  0  0
   48.7707    5.5238   14.7967 H   0  0  0  0  0  0  0  0  0  0  0  0
   48.3604    9.8894   17.1238 H   0  0  0  0  0  0  0  0  0  0  0  0
   48.4932    5.5790   17.2513 H   0  0  0  0  0  0  0  0  0  0  0  0
   48.4129    9.8575   12.6333 H   0  0  0  0  0  0  0  0  0  0  0  0
   49.1186    9.1280   13.7723 H   0  0  0  0  0  0  0  0  0  0  0  0
   49.0156    9.1324   13.8702 H   0  0  0  0  0  0  0  0  0  0  0  0
   48.5439    9.8197   12.5922 H   0  0  0  0  0  0  0  0  0  0  0  0
  2 18  1  0
  3  9  2  0
  4 21  1  0
  5 21  2  0
  6  8  1  0
  7  8  2  0
  7  9  1  0
  7 12  1  0
  8 10  1  0
  9 11  1  0
 10 13  2  0
 10 15  1  0
 11 16  2  0
 11 17  1  0
 12 14  2  0
 13 14  1  0
 15 21  1  0
 16 19  1  0
 17 20  2  0
 18 19  2  0
 18 20  1  0
 22 38  1  0
 23 29  2  0
 24 41  1  0
 25 41  2  0
 26 28  1  0
 27 28  2  0
 27 29  1  0
 27 32  1  0
 28 30  1  0
 29 31  1  0
 30 33  2  0
 30 35  1  0
 31 36  2  0
 31 37  1  0
 32 34  2  0
 33 34  1  0
 35 41  1  0
 36 39  1  0
 37 40  2  0
 38 39  2  0
 38 40  1  0
  1 46  1  0
  1 47  1  0
  6 48  1  0
  6 49  1  0
 12 50  1  0
 13 51  1  0
 14 52  1  0
 15 53  1  0
 15 54  1  0
 16 55  1  0
 17 56  1  0
 19 57  1  0
 20 58  1  0
 26 59  1  0
 26 60  1  0
 32 61  1  0
 33 62  1  0
 34 63  1  0
 35 64  1  0
 35 65  1  0
 36 66  1  0
 37 67  1  0
 39 68  1  0
 40 69  1  0
 44 70  1  0
 44 71  1  0
 45 72  1  0
 45 73  1  0
M  CHG  4   4  -1  24  -1  42   1  43   1
M  END
> <Uni-Dock RESULT> 
ENERGY=   -4.805  LOWER_BOUND=    7.490  UPPER_BOUND=   10.148
INTER + INTRA:          -4.805
INTER:                  -4.805
INTRA:                   0.000
UNBOUND:                 0.000

$$$$

     RDKit          3D

 73 70  0  0  0  0  0  0  0  0999 V2000
   46.3621   12.1591    9.6528 O   0  0  0  0  0  0  0  0  0  0  0  0
   42.1579   12.4851    4.4631 Br  0  0  0  0  0  0  0  0  0  0  0  0
   46.6976   14.1129    9.3050 O   0  0  0  0  0  0  0  0  0  0  0  0
   50.3705   11.4930   11.9172 O   0  0  0  0  0  0  0  0  0  0  0  0
   49.7628   10.6633   13.9671 O   0  0  0  0  0  0  0  0  0  0  0  0
   48.5573   11.8466    9.9120 N   0  0  0  0  0  0  0  0  0  0  0  0
   46.1365   12.0431   10.2820 C   0  0  0  0  0  0  0  0  0  0  0  0
   47.3926   11.5205   10.6512 C   0  0  0  0  0  0  0  0  0  0  0  0
   46.0338   13.0812    9.2280 C   0  0  0  0  0  0  0  0  0  0  0  0
   47.4350   10.4906   11.6207 C   0  0  0  0  0  0  0  0  0  0  0  0
   45.0991   12.9009    8.0847 C   0  0  0  0  0  0  0  0  0  0  0  0
   44.9583   11.6291   10.9227 C   0  0  0  0  0  0  0  0  0  0  0  0
   46.2456   10.0904   12.2576 C   0  0  0  0  0  0  0  0  0  0  0  0
   45.0174   10.6550   11.9129 C   0  0  0  0  0  0  0  0  0  0  0  0
   48.7271    9.7994   12.0180 C   0  0  0  0  0  0  0  0  0  0  0  0
   44.7988   11.6346    7.5703 C   0  0  0  0  0  0  0  0  0  0  0  0
   44.5377   14.0436    7.4961 C   0  0  0  0  0  0  0  0  0  0  0  0
   43.3498   12.6540    5.9231 C   0  0  0  0  0  0  0  0  0  0  0  0
   43.9217   11.5115    6.4886 C   0  0  0  0  0  0  0  0  0  0  0  0
   43.6565   13.9205    6.4188 C   0  0  0  0  0  0  0  0  0  0  0  0
   49.7085   10.7515   12.7062 C   0  0  0  0  0  0  0  0  0  0  0  0
   52.2025   12.2915   10.9073 Br  0  0  0  0  0  0  0  0  0  0  0  0
   45.6574   13.2892   12.6962 O   0  0  0  0  0  0  0  0  0  0  0  0
   44.3430   10.9429    5.6245 O   0  0  0  0  0  0  0  0  0  0  0  0
   45.3150   12.8467    6.4465 O   0  0  0  0  0  0  0  0  0  0  0  0
   45.2229   13.6043    9.0585 N   0  0  0  0  0  0  0  0  0  0  0  0
   45.1180   11.9357   10.8709 C   0  0  0  0  0  0  0  0  0  0  0  0
   44.7898   12.3633    9.5695 C   0  0  0  0  0  0  0  0  0  0  0  0
   46.0769   12.6671   11.7209 C   0  0  0  0  0  0  0  0  0  0  0  0
   43.8381   11.6066    8.8460 C   0  0  0  0  0  0  0  0  0  0  0  0
   47.5475   12.5807   11.4607 C   0  0  0  0  0  0  0  0  0  0  0  0
   44.5842   10.7579   11.4162 C   0  0  0  0  0  0  0  0  0  0  0  0
   43.3345   10.4088    9.3928 C   0  0  0  0  0  0  0  0  0  0  0  0
   43.7043    9.9849   10.6680 C   0  0  0  0  0  0  0  0  0  0  0  0
   43.3439   12.0338    7.4741 C   0  0  0  0  0  0  0  0  0  0  0  0
   48.0859   11.9617   10.3249 C   0  0  0  0  0  0  0  0  0  0  0  0
   48.4171   13.1224   12.4231 C   0  0  0  0  0  0  0  0  0  0  0  0
   50.3246   12.4214   11.1233 C   0  0  0  0  0  0  0  0  0  0  0  0
   49.4731   11.8890   10.1548 C   0  0  0  0  0  0  0  0  0  0  0  0
   49.8029   13.0412   12.2570 C   0  0  0  0  0  0  0  0  0  0  0  0
   44.4431   11.9224    6.4155 C   0  0  0  0  0  0  0  0  0  0  0  0
   46.1238   11.9346    9.8773 Na  0  0  0  0  0 15  0  0  0  0  0  0
   46.1238   11.9346    9.8773 Na  0  0  0  0  0 15  0  0  0  0  0  0
   46.3762   12.1552    9.6630 O   0  0  0  0  0  0  0  0  0  0  0  0
   46.3192   12.1702    9.6225 O   0  0  0  0  0  0  0  0  0  0  0  0
   46.5968   11.6450   10.4399 H   0  0  0  0  0  0  0  0  0  0  0  0
   45.4125   11.9997    9.5392 H   0  0  0  0  0  0  0  0  0  0  0  0
   49.4040   11.7347   10.5122 H   0  0  0  0  0  0  0  0  0  0  0  0
   48.5374   12.8217    9.6161 H   0  0  0  0  0  0  0  0  0  0  0  0
   43.9977   12.0690   10.6668 H   0  0  0  0  0  0  0  0  0  0  0  0
   46.2813    9.3337   13.0381 H   0  0  0  0  0  0  0  0  0  0  0  0
   44.1143   10.3344   12.4240 H   0  0  0  0  0  0  0  0  0  0  0  0
   49.1980    9.3646   11.1280 H   0  0  0  0  0  0  0  0  0  0  0  0
   48.5220    8.9605   12.6912 H   0  0  0  0  0  0  0  0  0  0  0  0
   45.2632   10.7407    7.9847 H   0  0  0  0  0  0  0  0  0  0  0  0
   44.7966   15.0296    7.8780 H   0  0  0  0  0  0  0  0  0  0  0  0
   43.6995   10.5228    6.0924 H   0  0  0  0  0  0  0  0  0  0  0  0
   43.2251   14.8129    5.9724 H   0  0  0  0  0  0  0  0  0  0  0  0
   45.2752   13.5651    8.0167 H   0  0  0  0  0  0  0  0  0  0  0  0
   46.1105   13.9403    9.4100 H   0  0  0  0  0  0  0  0  0  0  0  0
   44.8624   10.4438   12.4188 H   0  0  0  0  0  0  0  0  0  0  0  0
   42.6368    9.8039    8.8127 H   0  0  0  0  0  0  0  0  0  0  0  0
   43.2995    9.0600   11.0719 H   0  0  0  0  0  0  0  0  0  0  0  0
   42.4795   11.4307    7.1666 H   0  0  0  0  0  0  0  0  0  0  0  0
   42.9787   13.0693    7.5239 H   0  0  0  0  0  0  0  0  0  0  0  0
   47.4525   11.5365    9.5470 H   0  0  0  0  0  0  0  0  0  0  0  0
   48.0128   13.6004   13.3128 H   0  0  0  0  0  0  0  0  0  0  0  0
   49.8713   11.4164    9.2607 H   0  0  0  0  0  0  0  0  0  0  0  0
   50.4615   13.4628   13.0128 H   0  0  0  0  0  0  0  0  0  0  0  0
   45.4286   12.0207    9.5159 H   0  0  0  0  0  0  0  0  0  0  0  0
   46.5666   11.6278   10.4529 H   0  0  0  0  0  0  0  0  0  0  0  0
   46.6730   11.6995   10.3918 H   0  0  0  0  0  0  0  0  0  0  0  0
   45.3792   11.9341    9.6176 H   0  0  0  0  0  0  0  0  0  0  0  0
  2 18  1  0
  3  9  2  0
  4 21  1  0
  5 21  2  0
  6  8  1  0
  7  8  2  0
  7  9  1  0
  7 12  1  0
  8 10  1  0
  9 11  1  0
 10 13  2  0
 10 15  1  0
 11 16  2  0
 11 17  1  0
 12 14  2  0
 13 14  1  0
 15 21  1  0
 16 19  1  0
 17 20  2  0
 18 19  2  0
 18 20  1  0
 22 38  1  0
 23 29  2  0
 24 41  1  0
 25 41  2  0
 26 28  1  0
 27 28  2  0
 27 29  1  0
 27 32  1  0
 28 30  1  0
 29 31  1  0
 30 33  2  0
 30 35  1  0
 31 36  2  0
 31 37  1  0
 32 34  2  0
 33 34  1  0
 35 41  1  0
 36 39  1  0
 37 40  2  0
 38 39  2  0
 38 40  1  0
  1 46  1  0
  1 47  1  0
  6 48  1  0
  6 49  1  0
 12 50  1  0
 13 51  1  0
 14 52  1  0
 15 53  1  0
 15 54  1  0
 16 55  1  0
 17 56  1  0
 19 57  1  0
 20 58  1  0
 26 59  1  0
 26 60  1  0
 32 61  1  0
 33 62  1  0
 34 63  1  0
 35 64  1  0
 35 65  1  0
 36 66  1  0
 37 67  1  0
 39 68  1  0
 40 69  1  0
 44 70  1  0
 44 71  1  0
 45 72  1  0
 45 73  1  0
M  CHG  4   4  -1  24  -1  42   1  43   1
M  END
> <Uni-Dock RESULT> 
ENERGY=   -4.784  LOWER_BOUND=   12.086  UPPER_BOUND=   14.424
INTER + INTRA:          -4.784
INTER:                  -4.784
INTRA:                   0.000
UNBOUND:                 0.000

$$$$

     RDKit          3D

 73 70  0  0  0  0  0  0  0  0999 V2000
   48.5911    9.1931   19.0960 O   0  0  0  0  0  0  0  0  0  0  0  0
   49.8973    2.7820   17.7157 Br  0  0  0  0  0  0  0  0  0  0  0  0
   47.6978    9.2385   17.2930 O   0  0  0  0  0  0  0  0  0  0  0  0
   49.2826   13.7894   19.2816 O   0  0  0  0  0  0  0  0  0  0  0  0
   48.2534   14.4663   21.2162 O   0  0  0  0  0  0  0  0  0  0  0  0
   49.5605   11.1529   18.6451 N   0  0  0  0  0  0  0  0  0  0  0  0
   48.1694    9.3663   19.5984 C   0  0  0  0  0  0  0  0  0  0  0  0
   48.8047   10.6190   19.7189 C   0  0  0  0  0  0  0  0  0  0  0  0
   48.1285    8.6660   18.2919 C   0  0  0  0  0  0  0  0  0  0  0  0
   48.8684   11.2216   20.9976 C   0  0  0  0  0  0  0  0  0  0  0  0
   48.5748    7.2509   18.1839 C   0  0  0  0  0  0  0  0  0  0  0  0
   47.5271    8.7669   20.6930 C   0  0  0  0  0  0  0  0  0  0  0  0
   48.2150   10.6105   22.0839 C   0  0  0  0  0  0  0  0  0  0  0  0
   47.5488    9.3940   21.9336 C   0  0  0  0  0  0  0  0  0  0  0  0
   49.6096   12.5227   21.2483 C   0  0  0  0  0  0  0  0  0  0  0  0
   49.5895    6.7337   18.9971 C   0  0  0  0  0  0  0  0  0  0  0  0
   47.9755    6.4351   17.2131 C   0  0  0  0  0  0  0  0  0  0  0  0
   49.3660    4.5887   17.9011 C   0  0  0  0  0  0  0  0  0  0  0  0
   49.9844    5.3999   18.8559 C   0  0  0  0  0  0  0  0  0  0  0  0
   48.3658    5.1006   17.0757 C   0  0  0  0  0  0  0  0  0  0  0  0
   48.9761   13.7047   20.5102 C   0  0  0  0  0  0  0  0  0  0  0  0
   50.1903   14.7112   17.4541 Br  0  0  0  0  0  0  0  0  0  0  0  0
   45.6272   10.3201   20.0865 O   0  0  0  0  0  0  0  0  0  0  0  0
   51.0794    5.2664   18.6810 O   0  0  0  0  0  0  0  0  0  0  0  0
   49.7443    6.5002   17.2882 O   0  0  0  0  0  0  0  0  0  0  0  0
   47.5550    7.8932   18.1080 N   0  0  0  0  0  0  0  0  0  0  0  0
   47.4306    8.8637   20.3712 C   0  0  0  0  0  0  0  0  0  0  0  0
   47.8443    7.8478   19.4875 C   0  0  0  0  0  0  0  0  0  0  0  0
   46.8266   10.1229   19.8951 C   0  0  0  0  0  0  0  0  0  0  0  0
   48.3872    6.6669   20.0463 C   0  0  0  0  0  0  0  0  0  0  0  0
   47.6730   11.1875   19.2723 C   0  0  0  0  0  0  0  0  0  0  0  0
   47.6146    8.7538   21.7582 C   0  0  0  0  0  0  0  0  0  0  0  0
   48.5958    6.5830   21.4380 C   0  0  0  0  0  0  0  0  0  0  0  0
   48.2142    7.6183   22.2896 C   0  0  0  0  0  0  0  0  0  0  0  0
   48.7753    5.4744   19.1884 C   0  0  0  0  0  0  0  0  0  0  0  0
   49.0232   10.9971   18.9500 C   0  0  0  0  0  0  0  0  0  0  0  0
   47.0815   12.4401   19.0337 C   0  0  0  0  0  0  0  0  0  0  0  0
   49.1709   13.2853   18.1737 C   0  0  0  0  0  0  0  0  0  0  0  0
   49.7680   12.0440   18.3951 C   0  0  0  0  0  0  0  0  0  0  0  0
   47.8287   13.4882   18.4879 C   0  0  0  0  0  0  0  0  0  0  0  0
   49.9881    5.7807   18.3071 C   0  0  0  0  0  0  0  0  0  0  0  0
   48.4914    9.1282   19.4747 Na  0  0  0  0  0 15  0  0  0  0  0  0
   48.4914    9.1282   19.4747 Na  0  0  0  0  0 15  0  0  0  0  0  0
   48.5931    9.2106   19.0990 O   0  0  0  0  0  0  0  0  0  0  0  0
   48.5850    9.1404   19.0878 O   0  0  0  0  0  0  0  0  0  0  0  0
   48.5207    9.8417   19.8124 H   0  0  0  0  0  0  0  0  0  0  0  0
   48.3623    8.3497   19.5157 H   0  0  0  0  0  0  0  0  0  0  0  0
   49.6104   12.1925   18.7260 H   0  0  0  0  0  0  0  0  0  0  0  0
   49.1129   10.9520   17.7519 H   0  0  0  0  0  0  0  0  0  0  0  0
   46.9985    7.8233   20.5839 H   0  0  0  0  0  0  0  0  0  0  0  0
   48.2203   11.0957   23.0574 H   0  0  0  0  0  0  0  0  0  0  0  0
   47.0459    8.9460   22.7856 H   0  0  0  0  0  0  0  0  0  0  0  0
   50.6561   12.4130   20.9388 H   0  0  0  0  0  0  0  0  0  0  0  0
   49.6338   12.7502   22.3191 H   0  0  0  0  0  0  0  0  0  0  0  0
   50.0985    7.3665   19.7230 H   0  0  0  0  0  0  0  0  0  0  0  0
   47.2080    6.8480   16.5607 H   0  0  0  0  0  0  0  0  0  0  0  0
   50.7784    5.0092   19.4890 H   0  0  0  0  0  0  0  0  0  0  0  0
   47.8922    4.4768   16.3218 H   0  0  0  0  0  0  0  0  0  0  0  0
   48.2656    7.3459   17.5739 H   0  0  0  0  0  0  0  0  0  0  0  0
   47.4924    8.8176   17.7007 H   0  0  0  0  0  0  0  0  0  0  0  0
   47.2969    9.5571   22.4178 H   0  0  0  0  0  0  0  0  0  0  0  0
   49.0577    5.6899   21.8601 H   0  0  0  0  0  0  0  0  0  0  0  0
   48.3802    7.5300   23.3606 H   0  0  0  0  0  0  0  0  0  0  0  0
   48.9917    4.5986   19.8143 H   0  0  0  0  0  0  0  0  0  0  0  0
   47.9220    5.1841   18.5594 H   0  0  0  0  0  0  0  0  0  0  0  0
   49.5226   10.0416   19.1071 H   0  0  0  0  0  0  0  0  0  0  0  0
   46.0358   12.6037   19.2848 H   0  0  0  0  0  0  0  0  0  0  0  0
   50.8105   11.8727   18.1399 H   0  0  0  0  0  0  0  0  0  0  0  0
   47.3563   14.4520   18.3126 H   0  0  0  0  0  0  0  0  0  0  0  0
   48.3704    8.3493   19.4814 H   0  0  0  0  0  0  0  0  0  0  0  0
   48.5107    9.8246   19.8438 H   0  0  0  0  0  0  0  0  0  0  0  0
   48.5487    9.8763   19.7169 H   0  0  0  0  0  0  0  0  0  0  0  0
   48.3405    8.3678   19.6194 H   0  0  0  0  0  0  0  0  0  0  0  0
  2 18  1  0
  3  9  2  0
  4 21  1  0
  5 21  2  0
  6  8  1  0
  7  8  2  0
  7  9  1  0
  7 12  1  0
  8 10  1  0
  9 11  1  0
 10 13  2  0
 10 15  1  0
 11 16  2  0
 11 17  1  0
 12 14  2  0
 13 14  1  0
 15 21  1  0
 16 19  1  0
 17 20  2  0
 18 19  2  0
 18 20  1  0
 22 38  1  0
 23 29  2  0
 24 41  1  0
 25 41  2  0
 26 28  1  0
 27 28  2  0
 27 29  1  0
 27 32  1  0
 28 30  1  0
 29 31  1  0
 30 33  2  0
 30 35  1  0
 31 36  2  0
 31 37  1  0
 32 34  2  0
 33 34  1  0
 35 41  1  0
 36 39  1  0
 37 40  2  0
 38 39  2  0
 38 40  1  0
  1 46  1  0
  1 47  1  0
  6 48  1  0
  6 49  1  0
 12 50  1  0
 13 51  1  0
 14 52  1  0
 15 53  1  0
 15 54  1  0
 16 55  1  0
 17 56  1  0
 19 57  1  0
 20 58  1  0
 26 59  1  0
 26 60  1  0
 32 61  1  0
 33 62  1  0
 34 63  1  0
 35 64  1  0
 35 65  1  0
 36 66  1  0
 37 67  1  0
 39 68  1  0
 40 69  1  0
 44 70  1  0
 44 71  1  0
 45 72  1  0
 45 73  1  0
M  CHG  4   4  -1  24  -1  42   1  43   1
M  END
> <Uni-Dock RESULT> 
ENERGY=   -4.674  LOWER_BOUND=    4.321  UPPER_BOUND=    6.897
INTER + INTRA:          -4.674
INTER:                  -4.674
INTRA:                   0.000
UNBOUND:                 0.000

$$$$
