
     RDKit          3D

 73 70  0  0  0  0  0  0  0  0999 V2000
   48.6634    5.7644   17.4309 O   0  0  0  0  0  0  0  0  0  0  0  0
   47.8568    8.0085   23.2203 Br  0  0  0  0  0  0  0  0  0  0  0  0
   48.8296    3.0471   18.5992 O   0  0  0  0  0  0  0  0  0  0  0  0
   48.1090    9.5472   14.2192 O   0  0  0  0  0  0  0  0  0  0  0  0
   48.9696    8.9480   16.2541 O   0  0  0  0  0  0  0  0  0  0  0  0
   49.8998    6.5708   17.1019 N   0  0  0  0  0  0  0  0  0  0  0  0
   48.3164    4.6695   16.9728 C   0  0  0  0  0  0  0  0  0  0  0  0
   48.8757    5.8503   16.4401 C   0  0  0  0  0  0  0  0  0  0  0  0
   48.5393    4.2217   18.3744 C   0  0  0  0  0  0  0  0  0  0  0  0
   48.5520    6.2083   15.1061 C   0  0  0  0  0  0  0  0  0  0  0  0
   48.3567    5.1598   19.5170 C   0  0  0  0  0  0  0  0  0  0  0  0
   47.4436    3.8792   16.2111 C   0  0  0  0  0  0  0  0  0  0  0  0
   47.6405    5.4221   14.3737 C   0  0  0  0  0  0  0  0  0  0  0  0
   47.1064    4.2567   14.9150 C   0  0  0  0  0  0  0  0  0  0  0  0
   49.1555    7.4299   14.4394 C   0  0  0  0  0  0  0  0  0  0  0  0
   48.9909    4.8634   20.7292 C   0  0  0  0  0  0  0  0  0  0  0  0
   47.5566    6.3082   19.4228 C   0  0  0  0  0  0  0  0  0  0  0  0
   48.0673    6.8659   21.7172 C   0  0  0  0  0  0  0  0  0  0  0  0
   48.8534    5.7193   21.8276 C   0  0  0  0  0  0  0  0  0  0  0  0
   47.4195    7.1643   20.5203 C   0  0  0  0  0  0  0  0  0  0  0  0
   48.6813    8.7603   15.0311 C   0  0  0  0  0  0  0  0  0  0  0  0
   47.7101    9.8568   12.8403 Br  0  0  0  0  0  0  0  0  0  0  0  0
   47.3241    3.5331   15.5027 O   0  0  0  0  0  0  0  0  0  0  0  0
   48.7181    6.5448   22.9288 O   0  0  0  0  0  0  0  0  0  0  0  0
   49.3697    7.3715   20.9009 O   0  0  0  0  0  0  0  0  0  0  0  0
   46.4611    5.3998   18.3791 N   0  0  0  0  0  0  0  0  0  0  0  0
   48.4502    4.4365   17.3315 C   0  0  0  0  0  0  0  0  0  0  0  0
   47.7546    4.8575   18.4891 C   0  0  0  0  0  0  0  0  0  0  0  0
   47.8290    4.5382   15.9994 C   0  0  0  0  0  0  0  0  0  0  0  0
   48.4776    4.9184   19.6979 C   0  0  0  0  0  0  0  0  0  0  0  0
   47.8239    5.8424   15.2674 C   0  0  0  0  0  0  0  0  0  0  0  0
   49.7637    3.9452   17.3793 C   0  0  0  0  0  0  0  0  0  0  0  0
   49.7916    4.4014   19.7397 C   0  0  0  0  0  0  0  0  0  0  0  0
   50.4324    3.9203   18.5940 C   0  0  0  0  0  0  0  0  0  0  0  0
   47.9105    5.4805   20.9875 C   0  0  0  0  0  0  0  0  0  0  0  0
   48.3713    7.0148   15.8108 C   0  0  0  0  0  0  0  0  0  0  0  0
   47.2419    5.8844   13.9895 C   0  0  0  0  0  0  0  0  0  0  0  0
   47.7505    8.2376   13.8163 C   0  0  0  0  0  0  0  0  0  0  0  0
   48.3308    8.2110   15.0847 C   0  0  0  0  0  0  0  0  0  0  0  0
   47.2060    7.0785   13.2654 C   0  0  0  0  0  0  0  0  0  0  0  0
   48.7518    6.5709   21.6585 C   0  0  0  0  0  0  0  0  0  0  0  0
   48.2999    5.9091   17.5079 Na  0  0  0  0  0 15  0  0  0  0  0  0
   48.2999    5.9091   17.5079 Na  0  0  0  0  0 15  0  0  0  0  0  0
   48.6462    5.8100   17.3353 O   0  0  0  0  0  0  0  0  0  0  0  0
   48.6620    5.7665   17.4273 O   0  0  0  0  0  0  0  0  0  0  0  0
   48.0842    6.2724   16.8428 H   0  0  0  0  0  0  0  0  0  0  0  0
   48.1519    5.6906   18.2500 H   0  0  0  0  0  0  0  0  0  0  0  0
   49.8983    6.5023   18.1092 H   0  0  0  0  0  0  0  0  0  0  0  0
   49.7957    7.5839   16.8643 H   0  0  0  0  0  0  0  0  0  0  0  0
   47.0131    2.9775   16.6471 H   0  0  0  0  0  0  0  0  0  0  0  0
   47.3597    5.7135   13.3630 H   0  0  0  0  0  0  0  0  0  0  0  0
   46.4173    3.6512   14.3287 H   0  0  0  0  0  0  0  0  0  0  0  0
   48.9546    7.4174   13.3652 H   0  0  0  0  0  0  0  0  0  0  0  0
   50.2472    7.3923   14.5293 H   0  0  0  0  0  0  0  0  0  0  0  0
   49.6020    3.9665   20.8214 H   0  0  0  0  0  0  0  0  0  0  0  0
   47.0384    6.5653   18.5021 H   0  0  0  0  0  0  0  0  0  0  0  0
   49.3592    5.4835   22.7592 H   0  0  0  0  0  0  0  0  0  0  0  0
   46.8069    8.0578   20.4242 H   0  0  0  0  0  0  0  0  0  0  0  0
   45.9520    5.4186   19.2537 H   0  0  0  0  0  0  0  0  0  0  0  0
   45.9006    5.0157   17.6221 H   0  0  0  0  0  0  0  0  0  0  0  0
   50.2674    3.6198   16.4688 H   0  0  0  0  0  0  0  0  0  0  0  0
   50.3474    4.4267   20.6774 H   0  0  0  0  0  0  0  0  0  0  0  0
   51.4545    3.5644   18.6584 H   0  0  0  0  0  0  0  0  0  0  0  0
   47.7806    4.6358   21.6804 H   0  0  0  0  0  0  0  0  0  0  0  0
   46.9135    5.9199   20.8533 H   0  0  0  0  0  0  0  0  0  0  0  0
   48.8206    7.0258   16.8047 H   0  0  0  0  0  0  0  0  0  0  0  0
   46.8082    4.9800   13.5620 H   0  0  0  0  0  0  0  0  0  0  0  0
   48.7483    9.1094   15.5294 H   0  0  0  0  0  0  0  0  0  0  0  0
   46.7490    7.0891   12.2784 H   0  0  0  0  0  0  0  0  0  0  0  0
   47.9090    6.3131   16.9543 H   0  0  0  0  0  0  0  0  0  0  0  0
   48.3443    5.6044   18.2338 H   0  0  0  0  0  0  0  0  0  0  0  0
   48.0781    6.2744   16.8452 H   0  0  0  0  0  0  0  0  0  0  0  0
   48.1596    5.6864   18.2512 H   0  0  0  0  0  0  0  0  0  0  0  0
  2 18  1  0
  3  9  2  0
  4 21  1  0
  5 21  2  0
  6  8  1  0
  7  8  2  0
  7  9  1  0
  7 12  1  0
  8 10  1  0
  9 11  1  0
 10 13  2  0
 10 15  1  0
 11 16  2  0
 11 17  1  0
 12 14  2  0
 13 14  1  0
 15 21  1  0
 16 19  1  0
 17 20  2  0
 18 19  2  0
 18 20  1  0
 22 38  1  0
 23 29  2  0
 24 41  1  0
 25 41  2  0
 26 28  1  0
 27 28  2  0
 27 29  1  0
 27 32  1  0
 28 30  1  0
 29 31  1  0
 30 33  2  0
 30 35  1  0
 31 36  2  0
 31 37  1  0
 32 34  2  0
 33 34  1  0
 35 41  1  0
 36 39  1  0
 37 40  2  0
 38 39  2  0
 38 40  1  0
  1 46  1  0
  1 47  1  0
  6 48  1  0
  6 49  1  0
 12 50  1  0
 13 51  1  0
 14 52  1  0
 15 53  1  0
 15 54  1  0
 16 55  1  0
 17 56  1  0
 19 57  1  0
 20 58  1  0
 26 59  1  0
 26 60  1  0
 32 61  1  0
 33 62  1  0
 34 63  1  0
 35 64  1  0
 35 65  1  0
 36 66  1  0
 37 67  1  0
 39 68  1  0
 40 69  1  0
 44 70  1  0
 44 71  1  0
 45 72  1  0
 45 73  1  0
M  CHG  4   4  -1  24  -1  42   1  43   1
M  END
> <Uni-Dock RESULT> 
ENERGY=   -6.430  LOWER_BOUND=    0.000  UPPER_BOUND=    0.000
INTER + INTRA:          -6.430
INTER:                  -6.430
INTRA:                   0.000
UNBOUND:                 0.000

$$$$

     RDKit          3D

 73 70  0  0  0  0  0  0  0  0999 V2000
   48.9925    6.4247   20.3917 O   0  0  0  0  0  0  0  0  0  0  0  0
   54.4924    5.4421   17.5652 Br  0  0  0  0  0  0  0  0  0  0  0  0
   48.3209    3.5844   19.8841 O   0  0  0  0  0  0  0  0  0  0  0  0
   49.0215   11.0574   22.2542 O   0  0  0  0  0  0  0  0  0  0  0  0
   49.6444    9.7688   20.4676 O   0  0  0  0  0  0  0  0  0  0  0  0
   48.5222    7.5338   19.4774 N   0  0  0  0  0  0  0  0  0  0  0  0
   48.3101    5.6299   21.0487 C   0  0  0  0  0  0  0  0  0  0  0  0
   48.2502    7.0109   20.7653 C   0  0  0  0  0  0  0  0  0  0  0  0
   48.9175    4.6333   20.1253 C   0  0  0  0  0  0  0  0  0  0  0  0
   47.6967    7.8771   21.7428 C   0  0  0  0  0  0  0  0  0  0  0  0
   50.2664    4.8581   19.5347 C   0  0  0  0  0  0  0  0  0  0  0  0
   47.8546    5.1266   22.2758 C   0  0  0  0  0  0  0  0  0  0  0  0
   47.2837    7.3553   22.9848 C   0  0  0  0  0  0  0  0  0  0  0  0
   47.3439    5.9889   23.2412 C   0  0  0  0  0  0  0  0  0  0  0  0
   47.5429    9.3655   21.4940 C   0  0  0  0  0  0  0  0  0  0  0  0
   50.6037    4.1682   18.3643 C   0  0  0  0  0  0  0  0  0  0  0  0
   51.2089    5.7142   20.1236 C   0  0  0  0  0  0  0  0  0  0  0  0
   52.7801    5.2183   18.3569 C   0  0  0  0  0  0  0  0  0  0  0  0
   51.8570    4.3531   17.7702 C   0  0  0  0  0  0  0  0  0  0  0  0
   52.4614    5.8998   19.5297 C   0  0  0  0  0  0  0  0  0  0  0  0
   48.8709   10.1235   21.4110 C   0  0  0  0  0  0  0  0  0  0  0  0
   48.4529   11.8875   23.3239 Br  0  0  0  0  0  0  0  0  0  0  0  0
   47.2611    5.1391   22.8083 O   0  0  0  0  0  0  0  0  0  0  0  0
   53.0956    4.5112   17.1758 O   0  0  0  0  0  0  0  0  0  0  0  0
   51.7910    6.3140   17.6938 O   0  0  0  0  0  0  0  0  0  0  0  0
   50.6198    5.1953   21.7043 N   0  0  0  0  0  0  0  0  0  0  0  0
   48.3649    5.2900   20.7619 C   0  0  0  0  0  0  0  0  0  0  0  0
   49.7338    4.9557   20.6380 C   0  0  0  0  0  0  0  0  0  0  0  0
   47.8405    5.8726   22.0094 C   0  0  0  0  0  0  0  0  0  0  0  0
   50.2028    4.5920   19.3592 C   0  0  0  0  0  0  0  0  0  0  0  0
   48.0069    7.3325   22.2880 C   0  0  0  0  0  0  0  0  0  0  0  0
   47.4518    5.1275   19.7088 C   0  0  0  0  0  0  0  0  0  0  0  0
   49.2724    4.4106   18.3118 C   0  0  0  0  0  0  0  0  0  0  0  0
   47.9102    4.6761   18.4802 C   0  0  0  0  0  0  0  0  0  0  0  0
   51.6649    4.3437   19.0410 C   0  0  0  0  0  0  0  0  0  0  0  0
   48.6803    8.1962   21.4105 C   0  0  0  0  0  0  0  0  0  0  0  0
   47.4683    7.8468   23.4792 C   0  0  0  0  0  0  0  0  0  0  0  0
   48.2739   10.0505   22.9122 C   0  0  0  0  0  0  0  0  0  0  0  0
   48.8147    9.5535   21.7262 C   0  0  0  0  0  0  0  0  0  0  0  0
   47.6005    9.2023   23.7902 C   0  0  0  0  0  0  0  0  0  0  0  0
   52.2276    5.1398   17.8592 C   0  0  0  0  0  0  0  0  0  0  0  0
   49.3110    6.4346   20.6316 Na  0  0  0  0  0 15  0  0  0  0  0  0
   49.3110    6.4346   20.6316 Na  0  0  0  0  0 15  0  0  0  0  0  0
   48.9598    6.5051   20.4548 O   0  0  0  0  0  0  0  0  0  0  0  0
   48.9919    6.4279   20.3947 O   0  0  0  0  0  0  0  0  0  0  0  0
   49.1575    7.0131   21.1441 H   0  0  0  0  0  0  0  0  0  0  0  0
   49.7830    5.8661   20.3589 H   0  0  0  0  0  0  0  0  0  0  0  0
   49.1728    6.9999   18.9199 H   0  0  0  0  0  0  0  0  0  0  0  0
   48.9295    8.4904   19.5901 H   0  0  0  0  0  0  0  0  0  0  0  0
   47.9220    4.0577   22.4787 H   0  0  0  0  0  0  0  0  0  0  0  0
   46.8935    8.0213   23.7525 H   0  0  0  0  0  0  0  0  0  0  0  0
   47.0039    5.6001   24.1996 H   0  0  0  0  0  0  0  0  0  0  0  0
   46.9130    9.8186   22.2638 H   0  0  0  0  0  0  0  0  0  0  0  0
   47.0061    9.5241   20.5517 H   0  0  0  0  0  0  0  0  0  0  0  0
   49.8876    3.4879   17.9052 H   0  0  0  0  0  0  0  0  0  0  0  0
   50.9882    6.2578   21.0392 H   0  0  0  0  0  0  0  0  0  0  0  0
   52.1023    3.8200   16.8564 H   0  0  0  0  0  0  0  0  0  0  0  0
   53.1739    6.5788   19.9925 H   0  0  0  0  0  0  0  0  0  0  0  0
   51.4936    4.6902   21.6286 H   0  0  0  0  0  0  0  0  0  0  0  0
   50.2079    5.1041   22.6299 H   0  0  0  0  0  0  0  0  0  0  0  0
   46.4010    5.3861   19.8413 H   0  0  0  0  0  0  0  0  0  0  0  0
   49.6279    4.1087   17.3262 H   0  0  0  0  0  0  0  0  0  0  0  0
   47.2316    4.5596   17.6427 H   0  0  0  0  0  0  0  0  0  0  0  0
   51.7765    3.2664   18.8468 H   0  0  0  0  0  0  0  0  0  0  0  0
   52.3251    4.5700   19.8883 H   0  0  0  0  0  0  0  0  0  0  0  0
   49.1231    7.8329   20.4822 H   0  0  0  0  0  0  0  0  0  0  0  0
   46.9493    7.1821   24.1702 H   0  0  0  0  0  0  0  0  0  0  0  0
   49.3510   10.2015   21.0394 H   0  0  0  0  0  0  0  0  0  0  0  0
   47.1775    9.5793   24.7186 H   0  0  0  0  0  0  0  0  0  0  0  0
   49.3468    6.9579   21.2209 H   0  0  0  0  0  0  0  0  0  0  0  0
   49.6263    5.8410   20.2192 H   0  0  0  0  0  0  0  0  0  0  0  0
   49.1634    7.0123   21.1476 H   0  0  0  0  0  0  0  0  0  0  0  0
   49.7776    5.8635   20.3524 H   0  0  0  0  0  0  0  0  0  0  0  0
  2 18  1  0
  3  9  2  0
  4 21  1  0
  5 21  2  0
  6  8  1  0
  7  8  2  0
  7  9  1  0
  7 12  1  0
  8 10  1  0
  9 11  1  0
 10 13  2  0
 10 15  1  0
 11 16  2  0
 11 17  1  0
 12 14  2  0
 13 14  1  0
 15 21  1  0
 16 19  1  0
 17 20  2  0
 18 19  2  0
 18 20  1  0
 22 38  1  0
 23 29  2  0
 24 41  1  0
 25 41  2  0
 26 28  1  0
 27 28  2  0
 27 29  1  0
 27 32  1  0
 28 30  1  0
 29 31  1  0
 30 33  2  0
 30 35  1  0
 31 36  2  0
 31 37  1  0
 32 34  2  0
 33 34  1  0
 35 41  1  0
 36 39  1  0
 37 40  2  0
 38 39  2  0
 38 40  1  0
  1 46  1  0
  1 47  1  0
  6 48  1  0
  6 49  1  0
 12 50  1  0
 13 51  1  0
 14 52  1  0
 15 53  1  0
 15 54  1  0
 16 55  1  0
 17 56  1  0
 19 57  1  0
 20 58  1  0
 26 59  1  0
 26 60  1  0
 32 61  1  0
 33 62  1  0
 34 63  1  0
 35 64  1  0
 35 65  1  0
 36 66  1  0
 37 67  1  0
 39 68  1  0
 40 69  1  0
 44 70  1  0
 44 71  1  0
 45 72  1  0
 45 73  1  0
M  CHG  4   4  -1  24  -1  42   1  43   1
M  END
> <Uni-Dock RESULT> 
ENERGY=   -5.959  LOWER_BOUND=    3.404  UPPER_BOUND=    5.880
INTER + INTRA:          -5.959
INTER:                  -5.959
INTRA:                   0.000
UNBOUND:                 0.000

$$$$

     RDKit          3D

 73 70  0  0  0  0  0  0  0  0999 V2000
   48.9609    8.3800   20.4738 O   0  0  0  0  0  0  0  0  0  0  0  0
   47.4642   13.6424   17.4291 Br  0  0  0  0  0  0  0  0  0  0  0  0
   46.6392    8.8500   22.2528 O   0  0  0  0  0  0  0  0  0  0  0  0
   52.7253    6.1981   18.0242 O   0  0  0  0  0  0  0  0  0  0  0  0
   51.8754    8.2079   18.7161 O   0  0  0  0  0  0  0  0  0  0  0  0
   50.3626    8.7952   20.8612 N   0  0  0  0  0  0  0  0  0  0  0  0
   48.2113    7.5801   21.0460 C   0  0  0  0  0  0  0  0  0  0  0  0
   49.5855    7.6187   20.7279 C   0  0  0  0  0  0  0  0  0  0  0  0
   47.3942    8.8013   21.2823 C   0  0  0  0  0  0  0  0  0  0  0  0
   50.2531    6.3939   20.4698 C   0  0  0  0  0  0  0  0  0  0  0  0
   47.4300    9.9440   20.3274 C   0  0  0  0  0  0  0  0  0  0  0  0
   47.5153    6.3633   21.0845 C   0  0  0  0  0  0  0  0  0  0  0  0
   49.5251    5.1875   20.4732 C   0  0  0  0  0  0  0  0  0  0  0  0
   48.1719    5.1705   20.7973 C   0  0  0  0  0  0  0  0  0  0  0  0
   51.7406    6.3428   20.1774 C   0  0  0  0  0  0  0  0  0  0  0  0
   47.0340   11.2062   20.7852 C   0  0  0  0  0  0  0  0  0  0  0  0
   47.8224    9.7903   18.9894 C   0  0  0  0  0  0  0  0  0  0  0  0
   47.4641   12.1477   18.6016 C   0  0  0  0  0  0  0  0  0  0  0  0
   47.0578   12.3102   19.9258 C   0  0  0  0  0  0  0  0  0  0  0  0
   47.8470   10.8936   18.1303 C   0  0  0  0  0  0  0  0  0  0  0  0
   52.1337    6.9699   18.8367 C   0  0  0  0  0  0  0  0  0  0  0  0
   53.3374    4.8912   17.7525 Br  0  0  0  0  0  0  0  0  0  0  0  0
   47.5265    5.6113   21.3499 O   0  0  0  0  0  0  0  0  0  0  0  0
   47.0605   13.4106   19.0882 O   0  0  0  0  0  0  0  0  0  0  0  0
   48.9129   12.0933   19.3201 O   0  0  0  0  0  0  0  0  0  0  0  0
   47.0464    8.2052   18.9952 N   0  0  0  0  0  0  0  0  0  0  0  0
   47.9629    7.8975   21.2418 C   0  0  0  0  0  0  0  0  0  0  0  0
   47.3449    8.7194   20.2704 C   0  0  0  0  0  0  0  0  0  0  0  0
   48.2848    6.4907   20.9455 C   0  0  0  0  0  0  0  0  0  0  0  0
   47.2485   10.0980   20.5488 C   0  0  0  0  0  0  0  0  0  0  0  0
   49.5180    6.1460   20.1728 C   0  0  0  0  0  0  0  0  0  0  0  0
   48.3359    8.3772   22.5067 C   0  0  0  0  0  0  0  0  0  0  0  0
   47.6068   10.5667   21.8324 C   0  0  0  0  0  0  0  0  0  0  0  0
   48.1469    9.7185   22.8037 C   0  0  0  0  0  0  0  0  0  0  0  0
   46.7413   11.1221   19.5515 C   0  0  0  0  0  0  0  0  0  0  0  0
   50.3955    7.1226   19.6771 C   0  0  0  0  0  0  0  0  0  0  0  0
   49.7960    4.7894   19.9362 C   0  0  0  0  0  0  0  0  0  0  0  0
   51.7951    5.3925   18.7252 C   0  0  0  0  0  0  0  0  0  0  0  0
   51.5312    6.7435   18.9517 C   0  0  0  0  0  0  0  0  0  0  0  0
   50.9319    4.4134   19.2152 C   0  0  0  0  0  0  0  0  0  0  0  0
   47.6691   12.3152   19.3009 C   0  0  0  0  0  0  0  0  0  0  0  0
   48.8232    8.3284   20.1031 Na  0  0  0  0  0 15  0  0  0  0  0  0
   48.8232    8.3284   20.1031 Na  0  0  0  0  0 15  0  0  0  0  0  0
   49.0259    8.2993   20.4460 O   0  0  0  0  0  0  0  0  0  0  0  0
   48.9632    8.3766   20.4719 O   0  0  0  0  0  0  0  0  0  0  0  0
   49.2541    7.7376   19.8098 H   0  0  0  0  0  0  0  0  0  0  0  0
   48.2544    8.8678   20.0257 H   0  0  0  0  0  0  0  0  0  0  0  0
   49.8610    9.6633   20.7431 H   0  0  0  0  0  0  0  0  0  0  0  0
   51.1156    8.7761   20.1357 H   0  0  0  0  0  0  0  0  0  0  0  0
   46.4510    6.3580   21.3202 H   0  0  0  0  0  0  0  0  0  0  0  0
   50.0251    4.2494   20.2384 H   0  0  0  0  0  0  0  0  0  0  0  0
   47.6285    4.2274   20.8127 H   0  0  0  0  0  0  0  0  0  0  0  0
   52.1027    5.3123   20.2170 H   0  0  0  0  0  0  0  0  0  0  0  0
   52.2860    6.8709   20.9680 H   0  0  0  0  0  0  0  0  0  0  0  0
   46.7115   11.3370   21.8173 H   0  0  0  0  0  0  0  0  0  0  0  0
   48.1250    8.8236   18.5939 H   0  0  0  0  0  0  0  0  0  0  0  0
   46.7582   13.2861   20.2962 H   0  0  0  0  0  0  0  0  0  0  0  0
   48.1681   10.7581   17.1000 H   0  0  0  0  0  0  0  0  0  0  0  0
   46.3806    8.7641   18.4768 H   0  0  0  0  0  0  0  0  0  0  0  0
   46.8058    7.2170   18.9794 H   0  0  0  0  0  0  0  0  0  0  0  0
   48.8018    7.7139   23.2358 H   0  0  0  0  0  0  0  0  0  0  0  0
   47.5140   11.6291   22.0597 H   0  0  0  0  0  0  0  0  0  0  0  0
   48.4434   10.1218   23.7655 H   0  0  0  0  0  0  0  0  0  0  0  0
   45.7694   11.4817   19.9213 H   0  0  0  0  0  0  0  0  0  0  0  0
   46.5483   10.6874   18.5621 H   0  0  0  0  0  0  0  0  0  0  0  0
   50.2078    8.1864   19.8290 H   0  0  0  0  0  0  0  0  0  0  0  0
   49.1164    4.0239   20.3116 H   0  0  0  0  0  0  0  0  0  0  0  0
   52.1898    7.5159   18.5660 H   0  0  0  0  0  0  0  0  0  0  0  0
   51.1272    3.3575   19.0419 H   0  0  0  0  0  0  0  0  0  0  0  0
   49.1340    7.7715   19.6389 H   0  0  0  0  0  0  0  0  0  0  0  0
   48.3095    8.9144   20.2244 H   0  0  0  0  0  0  0  0  0  0  0  0
   49.2510    7.7376   19.8037 H   0  0  0  0  0  0  0  0  0  0  0  0
   48.2552    8.8711   20.0338 H   0  0  0  0  0  0  0  0  0  0  0  0
  2 18  1  0
  3  9  2  0
  4 21  1  0
  5 21  2  0
  6  8  1  0
  7  8  2  0
  7  9  1  0
  7 12  1  0
  8 10  1  0
  9 11  1  0
 10 13  2  0
 10 15  1  0
 11 16  2  0
 11 17  1  0
 12 14  2  0
 13 14  1  0
 15 21  1  0
 16 19  1  0
 17 20  2  0
 18 19  2  0
 18 20  1  0
 22 38  1  0
 23 29  2  0
 24 41  1  0
 25 41  2  0
 26 28  1  0
 27 28  2  0
 27 29  1  0
 27 32  1  0
 28 30  1  0
 29 31  1  0
 30 33  2  0
 30 35  1  0
 31 36  2  0
 31 37  1  0
 32 34  2  0
 33 34  1  0
 35 41  1  0
 36 39  1  0
 37 40  2  0
 38 39  2  0
 38 40  1  0
  1 46  1  0
  1 47  1  0
  6 48  1  0
  6 49  1  0
 12 50  1  0
 13 51  1  0
 14 52  1  0
 15 53  1  0
 15 54  1  0
 16 55  1  0
 17 56  1  0
 19 57  1  0
 20 58  1  0
 26 59  1  0
 26 60  1  0
 32 61  1  0
 33 62  1  0
 34 63  1  0
 35 64  1  0
 35 65  1  0
 36 66  1  0
 37 67  1  0
 39 68  1  0
 40 69  1  0
 44 70  1  0
 44 71  1  0
 45 72  1  0
 45 73  1  0
M  CHG  4   4  -1  24  -1  42   1  43   1
M  END
> <Uni-Dock RESULT> 
ENERGY=   -5.789  LOWER_BOUND=    3.959  UPPER_BOUND=    5.807
INTER + INTRA:          -5.789
INTER:                  -5.789
INTRA:                   0.000
UNBOUND:                 0.000

$$$$

     RDKit          3D

 73 70  0  0  0  0  0  0  0  0999 V2000
   47.5750    8.6289   12.7247 O   0  0  0  0  0  0  0  0  0  0  0  0
   43.8812    3.5933   12.2745 Br  0  0  0  0  0  0  0  0  0  0  0  0
   49.6719    6.8821   13.8770 O   0  0  0  0  0  0  0  0  0  0  0  0
   45.2278   12.4628   10.5512 O   0  0  0  0  0  0  0  0  0  0  0  0
   44.9416   10.6195   11.8781 O   0  0  0  0  0  0  0  0  0  0  0  0
   46.6483    9.4477   13.5954 N   0  0  0  0  0  0  0  0  0  0  0  0
   48.8073    8.6912   12.6440 C   0  0  0  0  0  0  0  0  0  0  0  0
   47.7571    9.6294   12.7332 C   0  0  0  0  0  0  0  0  0  0  0  0
   48.7284    7.3214   13.2203 C   0  0  0  0  0  0  0  0  0  0  0  0
   47.9210   10.8881   12.0998 C   0  0  0  0  0  0  0  0  0  0  0  0
   47.5489    6.4486   12.9635 C   0  0  0  0  0  0  0  0  0  0  0  0
   49.9765    8.9856   11.9280 C   0  0  0  0  0  0  0  0  0  0  0  0
   49.0863   11.1467   11.3511 C   0  0  0  0  0  0  0  0  0  0  0  0
   50.1138   10.2107   11.2825 C   0  0  0  0  0  0  0  0  0  0  0  0
   46.8651   11.9728   12.1962 C   0  0  0  0  0  0  0  0  0  0  0  0
   47.2944    5.3960   13.8506 C   0  0  0  0  0  0  0  0  0  0  0  0
   46.7070    6.6334   11.8568 C   0  0  0  0  0  0  0  0  0  0  0  0
   45.3555    4.7576   12.5573 C   0  0  0  0  0  0  0  0  0  0  0  0
   46.1939    4.5546   13.6531 C   0  0  0  0  0  0  0  0  0  0  0  0
   45.6066    5.7931   11.6594 C   0  0  0  0  0  0  0  0  0  0  0  0
   45.5648   11.6435   11.4573 C   0  0  0  0  0  0  0  0  0  0  0  0
   45.4677   13.7326    9.8537 Br  0  0  0  0  0  0  0  0  0  0  0  0
   50.5451    9.5298   11.7988 O   0  0  0  0  0  0  0  0  0  0  0  0
   45.1201    3.7034   13.4672 O   0  0  0  0  0  0  0  0  0  0  0  0
   44.8433    5.9712   13.4971 O   0  0  0  0  0  0  0  0  0  0  0  0
   48.1252    7.1063   10.9188 N   0  0  0  0  0  0  0  0  0  0  0  0
   48.8783    8.3293   12.8985 C   0  0  0  0  0  0  0  0  0  0  0  0
   48.2894    7.1836   12.3140 C   0  0  0  0  0  0  0  0  0  0  0  0
   49.3466    9.4473   12.0611 C   0  0  0  0  0  0  0  0  0  0  0  0
   47.6864    6.2475   13.1787 C   0  0  0  0  0  0  0  0  0  0  0  0
   48.3765   10.4641   11.5496 C   0  0  0  0  0  0  0  0  0  0  0  0
   49.0104    8.4826   14.2871 C   0  0  0  0  0  0  0  0  0  0  0  0
   47.8439    6.4001   14.5743 C   0  0  0  0  0  0  0  0  0  0  0  0
   48.4971    7.5057   15.1270 C   0  0  0  0  0  0  0  0  0  0  0  0
   46.8963    5.0463   12.6955 C   0  0  0  0  0  0  0  0  0  0  0  0
   46.9995   10.3914   11.8103 C   0  0  0  0  0  0  0  0  0  0  0  0
   48.8738   11.5259   10.7756 C   0  0  0  0  0  0  0  0  0  0  0  0
   46.6432   12.4157   10.5320 C   0  0  0  0  0  0  0  0  0  0  0  0
   46.1352   11.3664   11.2983 C   0  0  0  0  0  0  0  0  0  0  0  0
   48.0097   12.4996   10.2688 C   0  0  0  0  0  0  0  0  0  0  0  0
   45.4865    4.9057   13.2784 C   0  0  0  0  0  0  0  0  0  0  0  0
   47.5020    8.5044   12.3529 Na  0  0  0  0  0 15  0  0  0  0  0  0
   47.5020    8.5044   12.3529 Na  0  0  0  0  0 15  0  0  0  0  0  0
   47.5670    8.7257   12.6791 O   0  0  0  0  0  0  0  0  0  0  0  0
   47.5745    8.6325   12.7221 O   0  0  0  0  0  0  0  0  0  0  0  0
   47.4262    9.1659   11.9316 H   0  0  0  0  0  0  0  0  0  0  0  0
   47.5050    7.7184   12.4024 H   0  0  0  0  0  0  0  0  0  0  0  0
   46.3959    8.4883   13.7829 H   0  0  0  0  0  0  0  0  0  0  0  0
   45.8142    9.9036   13.1593 H   0  0  0  0  0  0  0  0  0  0  0  0
   50.7701    8.2412   11.8615 H   0  0  0  0  0  0  0  0  0  0  0  0
   49.2001   12.0967   10.8318 H   0  0  0  0  0  0  0  0  0  0  0  0
   51.0152   10.4337   10.7142 H   0  0  0  0  0  0  0  0  0  0  0  0
   47.2600   12.9242   11.8310 H   0  0  0  0  0  0  0  0  0  0  0  0
   46.6178   12.1483   13.2495 H   0  0  0  0  0  0  0  0  0  0  0  0
   47.9492    5.2309   14.7052 H   0  0  0  0  0  0  0  0  0  0  0  0
   46.8794    7.4321   11.1393 H   0  0  0  0  0  0  0  0  0  0  0  0
   46.0015    3.7482   14.3545 H   0  0  0  0  0  0  0  0  0  0  0  0
   44.9564    5.9606   10.8039 H   0  0  0  0  0  0  0  0  0  0  0  0
   47.9520    6.1682   10.5808 H   0  0  0  0  0  0  0  0  0  0  0  0
   48.8464    7.5774   10.3778 H   0  0  0  0  0  0  0  0  0  0  0  0
   49.4784    9.3745   14.7043 H   0  0  0  0  0  0  0  0  0  0  0  0
   47.3975    5.6670   15.2468 H   0  0  0  0  0  0  0  0  0  0  0  0
   48.5670    7.6064   16.2043 H   0  0  0  0  0  0  0  0  0  0  0  0
   47.4870    4.1503   12.9382 H   0  0  0  0  0  0  0  0  0  0  0  0
   46.7655    5.0384   11.6057 H   0  0  0  0  0  0  0  0  0  0  0  0
   46.5733    9.5760   12.3963 H   0  0  0  0  0  0  0  0  0  0  0  0
   49.9412   11.5870   10.5622 H   0  0  0  0  0  0  0  0  0  0  0  0
   45.0716   11.2837   11.5010 H   0  0  0  0  0  0  0  0  0  0  0  0
   48.4156   13.3122    9.6705 H   0  0  0  0  0  0  0  0  0  0  0  0
   47.3945    9.0289   11.7735 H   0  0  0  0  0  0  0  0  0  0  0  0
   47.5447    7.7588   12.6061 H   0  0  0  0  0  0  0  0  0  0  0  0
   47.4250    9.1627   11.9257 H   0  0  0  0  0  0  0  0  0  0  0  0
   47.5067    7.7180   12.4111 H   0  0  0  0  0  0  0  0  0  0  0  0
  2 18  1  0
  3  9  2  0
  4 21  1  0
  5 21  2  0
  6  8  1  0
  7  8  2  0
  7  9  1  0
  7 12  1  0
  8 10  1  0
  9 11  1  0
 10 13  2  0
 10 15  1  0
 11 16  2  0
 11 17  1  0
 12 14  2  0
 13 14  1  0
 15 21  1  0
 16 19  1  0
 17 20  2  0
 18 19  2  0
 18 20  1  0
 22 38  1  0
 23 29  2  0
 24 41  1  0
 25 41  2  0
 26 28  1  0
 27 28  2  0
 27 29  1  0
 27 32  1  0
 28 30  1  0
 29 31  1  0
 30 33  2  0
 30 35  1  0
 31 36  2  0
 31 37  1  0
 32 34  2  0
 33 34  1  0
 35 41  1  0
 36 39  1  0
 37 40  2  0
 38 39  2  0
 38 40  1  0
  1 46  1  0
  1 47  1  0
  6 48  1  0
  6 49  1  0
 12 50  1  0
 13 51  1  0
 14 52  1  0
 15 53  1  0
 15 54  1  0
 16 55  1  0
 17 56  1  0
 19 57  1  0
 20 58  1  0
 26 59  1  0
 26 60  1  0
 32 61  1  0
 33 62  1  0
 34 63  1  0
 35 64  1  0
 35 65  1  0
 36 66  1  0
 37 67  1  0
 39 68  1  0
 40 69  1  0
 44 70  1  0
 44 71  1  0
 45 72  1  0
 45 73  1  0
M  CHG  4   4  -1  24  -1  42   1  43   1
M  END
> <Uni-Dock RESULT> 
ENERGY=   -5.769  LOWER_BOUND=    4.810  UPPER_BOUND=    6.941
INTER + INTRA:          -5.769
INTER:                  -5.769
INTRA:                   0.000
UNBOUND:                 0.000

$$$$

     RDKit          3D

 73 70  0  0  0  0  0  0  0  0999 V2000
   48.5419    9.6085   21.3825 O   0  0  0  0  0  0  0  0  0  0  0  0
   47.3236   13.9013   16.9904 Br  0  0  0  0  0  0  0  0  0  0  0  0
   48.1655   11.7183   23.4279 O   0  0  0  0  0  0  0  0  0  0  0  0
   48.9537    5.1712   19.1302 O   0  0  0  0  0  0  0  0  0  0  0  0
   49.4496    7.3990   18.9520 O   0  0  0  0  0  0  0  0  0  0  0  0
   49.9129    9.2228   20.8739 N   0  0  0  0  0  0  0  0  0  0  0  0
   48.1040    9.5404   22.5369 C   0  0  0  0  0  0  0  0  0  0  0  0
   48.8904    8.7109   21.7097 C   0  0  0  0  0  0  0  0  0  0  0  0
   48.0776   11.0234   22.4160 C   0  0  0  0  0  0  0  0  0  0  0  0
   48.7963    7.3055   21.8782 C   0  0  0  0  0  0  0  0  0  0  0  0
   47.8850   11.6813   21.0935 C   0  0  0  0  0  0  0  0  0  0  0  0
   47.2329    8.9901   23.4882 C   0  0  0  0  0  0  0  0  0  0  0  0
   47.8840    6.7735   22.8110 C   0  0  0  0  0  0  0  0  0  0  0  0
   47.1234    7.6095   23.6229 C   0  0  0  0  0  0  0  0  0  0  0  0
   49.6493    6.3465   21.0697 C   0  0  0  0  0  0  0  0  0  0  0  0
   48.3084   13.0069   20.9418 C   0  0  0  0  0  0  0  0  0  0  0  0
   47.2763   11.0263   20.0126 C   0  0  0  0  0  0  0  0  0  0  0  0
   47.5608   12.9965   18.6439 C   0  0  0  0  0  0  0  0  0  0  0  0
   48.1540   13.6631   19.7156 C   0  0  0  0  0  0  0  0  0  0  0  0
   47.1224   11.6817   18.7866 C   0  0  0  0  0  0  0  0  0  0  0  0
   49.2978    6.3049   19.5798 C   0  0  0  0  0  0  0  0  0  0  0  0
   48.7846    3.7298   19.3544 Br  0  0  0  0  0  0  0  0  0  0  0  0
   47.1576    8.4534   24.0732 O   0  0  0  0  0  0  0  0  0  0  0  0
   47.9971   14.3337   18.5164 O   0  0  0  0  0  0  0  0  0  0  0  0
   49.0166   12.2909   18.6074 O   0  0  0  0  0  0  0  0  0  0  0  0
   46.2062   10.2245   21.1644 N   0  0  0  0  0  0  0  0  0  0  0  0
   48.1556    9.9776   22.6208 C   0  0  0  0  0  0  0  0  0  0  0  0
   47.3838   10.7532   21.7242 C   0  0  0  0  0  0  0  0  0  0  0  0
   47.7326    8.6179   22.9990 C   0  0  0  0  0  0  0  0  0  0  0  0
   47.9458   11.9575   21.2537 C   0  0  0  0  0  0  0  0  0  0  0  0
   48.0087    7.4624   22.0905 C   0  0  0  0  0  0  0  0  0  0  0  0
   49.3680   10.4341   23.1599 C   0  0  0  0  0  0  0  0  0  0  0  0
   49.1558   12.4181   21.8187 C   0  0  0  0  0  0  0  0  0  0  0  0
   49.8637   11.6664   22.7612 C   0  0  0  0  0  0  0  0  0  0  0  0
   47.3031   12.8228   20.1865 C   0  0  0  0  0  0  0  0  0  0  0  0
   48.6433    7.6141   20.8481 C   0  0  0  0  0  0  0  0  0  0  0  0
   47.6086    6.1812   22.5054 C   0  0  0  0  0  0  0  0  0  0  0  0
   48.4666    5.2317   20.4587 C   0  0  0  0  0  0  0  0  0  0  0  0
   48.8684    6.4981   20.0334 C   0  0  0  0  0  0  0  0  0  0  0  0
   47.8377    5.0686   21.6922 C   0  0  0  0  0  0  0  0  0  0  0  0
   48.1980   13.1727   18.9933 C   0  0  0  0  0  0  0  0  0  0  0  0
   48.1959    9.5610   21.1899 Na  0  0  0  0  0 15  0  0  0  0  0  0
   48.1959    9.5610   21.1899 Na  0  0  0  0  0 15  0  0  0  0  0  0
   48.5438    9.5014   21.3768 O   0  0  0  0  0  0  0  0  0  0  0  0
   48.5412    9.6041   21.3819 O   0  0  0  0  0  0  0  0  0  0  0  0
   48.1221    8.7817   21.1001 H   0  0  0  0  0  0  0  0  0  0  0  0
   47.9236   10.2929   21.0871 H   0  0  0  0  0  0  0  0  0  0  0  0
   49.7716   10.1656   20.5417 H   0  0  0  0  0  0  0  0  0  0  0  0
   49.9863    8.6091   20.0303 H   0  0  0  0  0  0  0  0  0  0  0  0
   46.6252    9.6494   24.1082 H   0  0  0  0  0  0  0  0  0  0  0  0
   47.7807    5.6950   22.9172 H   0  0  0  0  0  0  0  0  0  0  0  0
   46.4362    7.1818   24.3511 H   0  0  0  0  0  0  0  0  0  0  0  0
   49.5891    5.3377   21.4858 H   0  0  0  0  0  0  0  0  0  0  0  0
   50.7035    6.6328   21.1583 H   0  0  0  0  0  0  0  0  0  0  0  0
   48.7679   13.5330   21.7775 H   0  0  0  0  0  0  0  0  0  0  0  0
   46.9235   10.0011   20.0955 H   0  0  0  0  0  0  0  0  0  0  0  0
   48.4963   14.6881   19.6079 H   0  0  0  0  0  0  0  0  0  0  0  0
   46.6615   11.1530   17.9554 H   0  0  0  0  0  0  0  0  0  0  0  0
   45.5964   10.9253   20.7626 H   0  0  0  0  0  0  0  0  0  0  0  0
   45.6990    9.5809   21.7672 H   0  0  0  0  0  0  0  0  0  0  0  0
   49.9333    9.8143   23.8562 H   0  0  0  0  0  0  0  0  0  0  0  0
   49.5837   13.3597   21.4734 H   0  0  0  0  0  0  0  0  0  0  0  0
   50.8075   12.0364   23.1458 H   0  0  0  0  0  0  0  0  0  0  0  0
   46.9654   13.7474   20.6782 H   0  0  0  0  0  0  0  0  0  0  0  0
   46.4050   12.3623   19.7549 H   0  0  0  0  0  0  0  0  0  0  0  0
   48.9574    8.5936   20.4851 H   0  0  0  0  0  0  0  0  0  0  0  0
   47.1089    6.0545   23.4661 H   0  0  0  0  0  0  0  0  0  0  0  0
   49.3492    6.6398   19.0701 H   0  0  0  0  0  0  0  0  0  0  0  0
   47.5182    4.0860   22.0320 H   0  0  0  0  0  0  0  0  0  0  0  0
   47.9417    8.8375   21.0048 H   0  0  0  0  0  0  0  0  0  0  0  0
   48.1022   10.3440   21.1882 H   0  0  0  0  0  0  0  0  0  0  0  0
   48.1161    8.7821   21.0969 H   0  0  0  0  0  0  0  0  0  0  0  0
   47.9304   10.2970   21.0911 H   0  0  0  0  0  0  0  0  0  0  0  0
  2 18  1  0
  3  9  2  0
  4 21  1  0
  5 21  2  0
  6  8  1  0
  7  8  2  0
  7  9  1  0
  7 12  1  0
  8 10  1  0
  9 11  1  0
 10 13  2  0
 10 15  1  0
 11 16  2  0
 11 17  1  0
 12 14  2  0
 13 14  1  0
 15 21  1  0
 16 19  1  0
 17 20  2  0
 18 19  2  0
 18 20  1  0
 22 38  1  0
 23 29  2  0
 24 41  1  0
 25 41  2  0
 26 28  1  0
 27 28  2  0
 27 29  1  0
 27 32  1  0
 28 30  1  0
 29 31  1  0
 30 33  2  0
 30 35  1  0
 31 36  2  0
 31 37  1  0
 32 34  2  0
 33 34  1  0
 35 41  1  0
 36 39  1  0
 37 40  2  0
 38 39  2  0
 38 40  1  0
  1 46  1  0
  1 47  1  0
  6 48  1  0
  6 49  1  0
 12 50  1  0
 13 51  1  0
 14 52  1  0
 15 53  1  0
 15 54  1  0
 16 55  1  0
 17 56  1  0
 19 57  1  0
 20 58  1  0
 26 59  1  0
 26 60  1  0
 32 61  1  0
 33 62  1  0
 34 63  1  0
 35 64  1  0
 35 65  1  0
 36 66  1  0
 37 67  1  0
 39 68  1  0
 40 69  1  0
 44 70  1  0
 44 71  1  0
 45 72  1  0
 45 73  1  0
M  CHG  4   4  -1  24  -1  42   1  43   1
M  END
> <Uni-Dock RESULT> 
ENERGY=   -5.766  LOWER_BOUND=    3.963  UPPER_BOUND=    7.232
INTER + INTRA:          -5.766
INTER:                  -5.766
INTRA:                   0.000
UNBOUND:                 0.000

$$$$

     RDKit          3D

 73 70  0  0  0  0  0  0  0  0999 V2000
   48.7489    7.3339   19.3345 O   0  0  0  0  0  0  0  0  0  0  0  0
   54.2170    5.1283   17.2276 Br  0  0  0  0  0  0  0  0  0  0  0  0
   48.2057    4.6551   20.4767 O   0  0  0  0  0  0  0  0  0  0  0  0
   48.5962   12.2349   18.3914 O   0  0  0  0  0  0  0  0  0  0  0  0
   49.2365   10.2011   17.5581 O   0  0  0  0  0  0  0  0  0  0  0  0
   48.2013    7.7562   17.9895 N   0  0  0  0  0  0  0  0  0  0  0  0
   48.1235    7.0040   20.3489 C   0  0  0  0  0  0  0  0  0  0  0  0
   47.9882    8.0081   19.3669 C   0  0  0  0  0  0  0  0  0  0  0  0
   48.7557    5.6832   20.0833 C   0  0  0  0  0  0  0  0  0  0  0  0
   47.4177    9.2504   19.7459 C   0  0  0  0  0  0  0  0  0  0  0  0
   50.0764    5.5890   19.4008 C   0  0  0  0  0  0  0  0  0  0  0  0
   47.7248    7.2344   21.6735 C   0  0  0  0  0  0  0  0  0  0  0  0
   47.0626    9.4744   21.0909 C   0  0  0  0  0  0  0  0  0  0  0  0
   47.1968    8.4678   22.0424 C   0  0  0  0  0  0  0  0  0  0  0  0
   47.1842   10.3609   18.7393 C   0  0  0  0  0  0  0  0  0  0  0  0
   50.4175    4.3843   18.7749 C   0  0  0  0  0  0  0  0  0  0  0  0
   50.9901    6.6535   19.3869 C   0  0  0  0  0  0  0  0  0  0  0  0
   52.5385    5.3224   18.0959 C   0  0  0  0  0  0  0  0  0  0  0  0
   51.6446    4.2520   18.1156 C   0  0  0  0  0  0  0  0  0  0  0  0
   52.2164    6.5218   18.7274 C   0  0  0  0  0  0  0  0  0  0  0  0
   48.4707   10.9892   18.1957 C   0  0  0  0  0  0  0  0  0  0  0  0
   48.0147   13.4963   18.8680 Br  0  0  0  0  0  0  0  0  0  0  0  0
   47.1451    7.5172   22.1424 O   0  0  0  0  0  0  0  0  0  0  0  0
   52.8584    4.0967   17.4714 O   0  0  0  0  0  0  0  0  0  0  0  0
   51.4799    5.8553   16.9941 O   0  0  0  0  0  0  0  0  0  0  0  0
   50.4678    7.0588   21.0233 N   0  0  0  0  0  0  0  0  0  0  0  0
   48.1877    6.5646   20.2893 C   0  0  0  0  0  0  0  0  0  0  0  0
   49.5679    6.2546   20.3001 C   0  0  0  0  0  0  0  0  0  0  0  0
   47.6670    7.7158   21.0470 C   0  0  0  0  0  0  0  0  0  0  0  0
   50.0216    5.2687   19.4004 C   0  0  0  0  0  0  0  0  0  0  0  0
   47.7681    9.0974   20.4833 C   0  0  0  0  0  0  0  0  0  0  0  0
   47.2573    5.8316   19.5368 C   0  0  0  0  0  0  0  0  0  0  0  0
   49.0750    4.5224   18.6638 C   0  0  0  0  0  0  0  0  0  0  0  0
   47.7060    4.7989   18.7272 C   0  0  0  0  0  0  0  0  0  0  0  0
   51.4857    4.9281   19.1971 C   0  0  0  0  0  0  0  0  0  0  0  0
   48.3755    9.3653   19.2469 C   0  0  0  0  0  0  0  0  0  0  0  0
   47.2352   10.1604   21.2313 C   0  0  0  0  0  0  0  0  0  0  0  0
   47.9163   11.7255   19.5245 C   0  0  0  0  0  0  0  0  0  0  0  0
   48.4507   10.6799   18.7714 C   0  0  0  0  0  0  0  0  0  0  0  0
   47.3082   11.4709   20.7530 C   0  0  0  0  0  0  0  0  0  0  0  0
   51.9781    4.9711   17.7470 C   0  0  0  0  0  0  0  0  0  0  0  0
   49.0725    7.4812   19.5152 Na  0  0  0  0  0 15  0  0  0  0  0  0
   49.0725    7.4812   19.5152 Na  0  0  0  0  0 15  0  0  0  0  0  0
   48.7139    7.4347   19.3455 O   0  0  0  0  0  0  0  0  0  0  0  0
   48.7482    7.3383   19.3353 O   0  0  0  0  0  0  0  0  0  0  0  0
   48.9037    8.2407   19.6401 H   0  0  0  0  0  0  0  0  0  0  0  0
   49.5649    6.8690   19.5710 H   0  0  0  0  0  0  0  0  0  0  0  0
   48.8631    7.0235   17.7788 H   0  0  0  0  0  0  0  0  0  0  0  0
   48.5635    8.6319   17.5470 H   0  0  0  0  0  0  0  0  0  0  0  0
   47.8501    6.4488   22.4188 H   0  0  0  0  0  0  0  0  0  0  0  0
   46.6597   10.4392   21.3941 H   0  0  0  0  0  0  0  0  0  0  0  0
   46.9009    8.6519   23.0738 H   0  0  0  0  0  0  0  0  0  0  0  0
   46.5525   11.1414   19.1709 H   0  0  0  0  0  0  0  0  0  0  0  0
   46.6165    9.9680   17.8881 H   0  0  0  0  0  0  0  0  0  0  0  0
   49.7245    3.5441   18.7918 H   0  0  0  0  0  0  0  0  0  0  0  0
   50.7662    7.6003   19.8724 H   0  0  0  0  0  0  0  0  0  0  0  0
   51.8927    3.3156   17.6249 H   0  0  0  0  0  0  0  0  0  0  0  0
   52.9060    7.3628   18.7146 H   0  0  0  0  0  0  0  0  0  0  0  0
   51.3633    6.6179   21.1908 H   0  0  0  0  0  0  0  0  0  0  0  0
   50.0845    7.4728   21.8697 H   0  0  0  0  0  0  0  0  0  0  0  0
   46.1987    6.0915   19.5588 H   0  0  0  0  0  0  0  0  0  0  0  0
   49.4198    3.7441   17.9823 H   0  0  0  0  0  0  0  0  0  0  0  0
   47.0129    4.2279   18.1196 H   0  0  0  0  0  0  0  0  0  0  0  0
   51.6453    3.9213   19.6113 H   0  0  0  0  0  0  0  0  0  0  0  0
   52.1552    5.5960   19.7544 H   0  0  0  0  0  0  0  0  0  0  0  0
   48.8120    8.5690   18.6425 H   0  0  0  0  0  0  0  0  0  0  0  0
   46.7674    9.9627   22.1961 H   0  0  0  0  0  0  0  0  0  0  0  0
   48.9366   10.8664   17.8184 H   0  0  0  0  0  0  0  0  0  0  0  0
   46.8908   12.2793   21.3491 H   0  0  0  0  0  0  0  0  0  0  0  0
   49.0974    8.2412   19.7253 H   0  0  0  0  0  0  0  0  0  0  0  0
   49.4061    6.7678   19.4748 H   0  0  0  0  0  0  0  0  0  0  0  0
   48.9097    8.2421   19.6431 H   0  0  0  0  0  0  0  0  0  0  0  0
   49.5595    6.8632   19.5672 H   0  0  0  0  0  0  0  0  0  0  0  0
  2 18  1  0
  3  9  2  0
  4 21  1  0
  5 21  2  0
  6  8  1  0
  7  8  2  0
  7  9  1  0
  7 12  1  0
  8 10  1  0
  9 11  1  0
 10 13  2  0
 10 15  1  0
 11 16  2  0
 11 17  1  0
 12 14  2  0
 13 14  1  0
 15 21  1  0
 16 19  1  0
 17 20  2  0
 18 19  2  0
 18 20  1  0
 22 38  1  0
 23 29  2  0
 24 41  1  0
 25 41  2  0
 26 28  1  0
 27 28  2  0
 27 29  1  0
 27 32  1  0
 28 30  1  0
 29 31  1  0
 30 33  2  0
 30 35  1  0
 31 36  2  0
 31 37  1  0
 32 34  2  0
 33 34  1  0
 35 41  1  0
 36 39  1  0
 37 40  2  0
 38 39  2  0
 38 40  1  0
  1 46  1  0
  1 47  1  0
  6 48  1  0
  6 49  1  0
 12 50  1  0
 13 51  1  0
 14 52  1  0
 15 53  1  0
 15 54  1  0
 16 55  1  0
 17 56  1  0
 19 57  1  0
 20 58  1  0
 26 59  1  0
 26 60  1  0
 32 61  1  0
 33 62  1  0
 34 63  1  0
 35 64  1  0
 35 65  1  0
 36 66  1  0
 37 67  1  0
 39 68  1  0
 40 69  1  0
 44 70  1  0
 44 71  1  0
 45 72  1  0
 45 73  1  0
M  CHG  4   4  -1  24  -1  42   1  43   1
M  END
> <Uni-Dock RESULT> 
ENERGY=   -5.427  LOWER_BOUND=    3.204  UPPER_BOUND=    5.067
INTER + INTRA:          -5.427
INTER:                  -5.427
INTRA:                   0.000
UNBOUND:                 0.000

$$$$

     RDKit          3D

 73 70  0  0  0  0  0  0  0  0999 V2000
   48.7695   10.0294   20.3884 O   0  0  0  0  0  0  0  0  0  0  0  0
   47.6086    5.2193   24.2250 Br  0  0  0  0  0  0  0  0  0  0  0  0
   47.6223    8.4298   18.1745 O   0  0  0  0  0  0  0  0  0  0  0  0
   50.4305   13.8413   23.1529 O   0  0  0  0  0  0  0  0  0  0  0  0
   50.5199   11.5710   22.8729 O   0  0  0  0  0  0  0  0  0  0  0  0
   50.2595   10.0964   20.6386 N   0  0  0  0  0  0  0  0  0  0  0  0
   48.1432   10.3820   19.3822 C   0  0  0  0  0  0  0  0  0  0  0  0
   49.2138   10.9085   20.1355 C   0  0  0  0  0  0  0  0  0  0  0  0
   47.8596    8.9249   19.2758 C   0  0  0  0  0  0  0  0  0  0  0  0
   49.3576   12.3178   20.2103 C   0  0  0  0  0  0  0  0  0  0  0  0
   47.7982    8.0653   20.4909 C   0  0  0  0  0  0  0  0  0  0  0  0
   47.2290   11.2300   18.7407 C   0  0  0  0  0  0  0  0  0  0  0  0
   48.4037   13.1508   19.5927 C   0  0  0  0  0  0  0  0  0  0  0  0
   47.3596   12.6112   18.8476 C   0  0  0  0  0  0  0  0  0  0  0  0
   50.5133   12.9632   20.9509 C   0  0  0  0  0  0  0  0  0  0  0  0
   47.9837    6.6861   20.3402 C   0  0  0  0  0  0  0  0  0  0  0  0
   47.5390    8.5886   21.7664 C   0  0  0  0  0  0  0  0  0  0  0  0
   47.6975    6.3744   22.7194 C   0  0  0  0  0  0  0  0  0  0  0  0
   47.9413    5.8405   21.4543 C   0  0  0  0  0  0  0  0  0  0  0  0
   47.4972    7.7438   22.8802 C   0  0  0  0  0  0  0  0  0  0  0  0
   50.4628   12.7745   22.4698 C   0  0  0  0  0  0  0  0  0  0  0  0
   50.4983   15.3076   23.1960 Br  0  0  0  0  0  0  0  0  0  0  0  0
   47.1480   11.8731   18.2761 O   0  0  0  0  0  0  0  0  0  0  0  0
   47.8887    4.9865   22.5407 O   0  0  0  0  0  0  0  0  0  0  0  0
   49.2410    6.8282   22.5454 O   0  0  0  0  0  0  0  0  0  0  0  0
   46.4429    9.7492   21.0138 N   0  0  0  0  0  0  0  0  0  0  0  0
   48.0943    9.9660   19.2228 C   0  0  0  0  0  0  0  0  0  0  0  0
   47.3723    9.1621   20.1357 C   0  0  0  0  0  0  0  0  0  0  0  0
   47.8731   11.4213   19.1603 C   0  0  0  0  0  0  0  0  0  0  0  0
   47.7743    7.8186   20.2806 C   0  0  0  0  0  0  0  0  0  0  0  0
   48.5289   12.3269   20.1536 C   0  0  0  0  0  0  0  0  0  0  0  0
   49.0749    9.4396   18.3681 C   0  0  0  0  0  0  0  0  0  0  0  0
   48.7469    7.2935   19.4009 C   0  0  0  0  0  0  0  0  0  0  0  0
   49.3942    8.0928   18.4540 C   0  0  0  0  0  0  0  0  0  0  0  0
   47.1918    6.8754   21.3159 C   0  0  0  0  0  0  0  0  0  0  0  0
   49.3455   11.8464   21.1888 C   0  0  0  0  0  0  0  0  0  0  0  0
   48.3080   13.7095   20.0387 C   0  0  0  0  0  0  0  0  0  0  0  0
   49.6996   14.1098   21.9699 C   0  0  0  0  0  0  0  0  0  0  0  0
   49.9271   12.7392   22.0967 C   0  0  0  0  0  0  0  0  0  0  0  0
   48.8924   14.5988   20.9438 C   0  0  0  0  0  0  0  0  0  0  0  0
   48.2124    6.1721   22.2163 C   0  0  0  0  0  0  0  0  0  0  0  0
   48.4812   10.0920   20.6569 Na  0  0  0  0  0 15  0  0  0  0  0  0
   48.4812   10.0920   20.6569 Na  0  0  0  0  0 15  0  0  0  0  0  0
   48.7927   10.1319   20.4100 O   0  0  0  0  0  0  0  0  0  0  0  0
   48.7698   10.0336   20.3899 O   0  0  0  0  0  0  0  0  0  0  0  0
   48.5746   10.8419   20.8797 H   0  0  0  0  0  0  0  0  0  0  0  0
   48.0996    9.4045   20.7026 H   0  0  0  0  0  0  0  0  0  0  0  0
   50.0072    9.1407   20.8443 H   0  0  0  0  0  0  0  0  0  0  0  0
   50.6052   10.5199   21.5301 H   0  0  0  0  0  0  0  0  0  0  0  0
   46.4018   10.8017   18.1743 H   0  0  0  0  0  0  0  0  0  0  0  0
   48.4884   14.2327   19.6793 H   0  0  0  0  0  0  0  0  0  0  0  0
   46.6414   13.2697   18.3620 H   0  0  0  0  0  0  0  0  0  0  0  0
   50.5682   14.0298   20.7186 H   0  0  0  0  0  0  0  0  0  0  0  0
   51.4584   12.5406   20.5911 H   0  0  0  0  0  0  0  0  0  0  0  0
   48.1696    6.2641   19.3534 H   0  0  0  0  0  0  0  0  0  0  0  0
   47.3775    9.6527   21.9215 H   0  0  0  0  0  0  0  0  0  0  0  0
   48.0973    4.7736   21.3253 H   0  0  0  0  0  0  0  0  0  0  0  0
   47.3096    8.1693   23.8634 H   0  0  0  0  0  0  0  0  0  0  0  0
   45.7981    9.0869   21.4261 H   0  0  0  0  0  0  0  0  0  0  0  0
   45.9627   10.5657   20.6430 H   0  0  0  0  0  0  0  0  0  0  0  0
   49.6060   10.0862   17.6692 H   0  0  0  0  0  0  0  0  0  0  0  0
   49.0459    6.2491   19.4950 H   0  0  0  0  0  0  0  0  0  0  0  0
   50.1613    7.6621   17.8202 H   0  0  0  0  0  0  0  0  0  0  0  0
   46.5988    6.1241   20.7733 H   0  0  0  0  0  0  0  0  0  0  0  0
   46.4947    7.3778   21.9990 H   0  0  0  0  0  0  0  0  0  0  0  0
   49.5310   10.7793   21.3189 H   0  0  0  0  0  0  0  0  0  0  0  0
   47.6696   14.0915   19.2416 H   0  0  0  0  0  0  0  0  0  0  0  0
   50.5448   12.3450   22.8981 H   0  0  0  0  0  0  0  0  0  0  0  0
   48.7067   15.6652   20.8376 H   0  0  0  0  0  0  0  0  0  0  0  0
   48.4081   10.7974   21.0024 H   0  0  0  0  0  0  0  0  0  0  0  0
   48.2430    9.3467   20.5583 H   0  0  0  0  0  0  0  0  0  0  0  0
   48.5694   10.8419   20.8841 H   0  0  0  0  0  0  0  0  0  0  0  0
   48.1046    9.4003   20.6967 H   0  0  0  0  0  0  0  0  0  0  0  0
  2 18  1  0
  3  9  2  0
  4 21  1  0
  5 21  2  0
  6  8  1  0
  7  8  2  0
  7  9  1  0
  7 12  1  0
  8 10  1  0
  9 11  1  0
 10 13  2  0
 10 15  1  0
 11 16  2  0
 11 17  1  0
 12 14  2  0
 13 14  1  0
 15 21  1  0
 16 19  1  0
 17 20  2  0
 18 19  2  0
 18 20  1  0
 22 38  1  0
 23 29  2  0
 24 41  1  0
 25 41  2  0
 26 28  1  0
 27 28  2  0
 27 29  1  0
 27 32  1  0
 28 30  1  0
 29 31  1  0
 30 33  2  0
 30 35  1  0
 31 36  2  0
 31 37  1  0
 32 34  2  0
 33 34  1  0
 35 41  1  0
 36 39  1  0
 37 40  2  0
 38 39  2  0
 38 40  1  0
  1 46  1  0
  1 47  1  0
  6 48  1  0
  6 49  1  0
 12 50  1  0
 13 51  1  0
 14 52  1  0
 15 53  1  0
 15 54  1  0
 16 55  1  0
 17 56  1  0
 19 57  1  0
 20 58  1  0
 26 59  1  0
 26 60  1  0
 32 61  1  0
 33 62  1  0
 34 63  1  0
 35 64  1  0
 35 65  1  0
 36 66  1  0
 37 67  1  0
 39 68  1  0
 40 69  1  0
 44 70  1  0
 44 71  1  0
 45 72  1  0
 45 73  1  0
M  CHG  4   4  -1  24  -1  42   1  43   1
M  END
> <Uni-Dock RESULT> 
ENERGY=   -5.337  LOWER_BOUND=    4.343  UPPER_BOUND=    6.486
INTER + INTRA:          -5.337
INTER:                  -5.337
INTRA:                   0.000
UNBOUND:                 0.000

$$$$

     RDKit          3D

 73 70  0  0  0  0  0  0  0  0999 V2000
   53.7320    9.2186    7.1636 O   0  0  0  0  0  0  0  0  0  0  0  0
   54.9419    4.3785   10.9468 Br  0  0  0  0  0  0  0  0  0  0  0  0
   55.0058    7.7041    4.9591 O   0  0  0  0  0  0  0  0  0  0  0  0
   51.0073   12.5310    9.7200 O   0  0  0  0  0  0  0  0  0  0  0  0
   52.7594   11.0643    9.8582 O   0  0  0  0  0  0  0  0  0  0  0  0
   54.4879   10.2572    7.9619 N   0  0  0  0  0  0  0  0  0  0  0  0
   53.4910    9.2082    5.9508 C   0  0  0  0  0  0  0  0  0  0  0  0
   53.4800   10.1846    6.9694 C   0  0  0  0  0  0  0  0  0  0  0  0
   54.3820    8.0164    5.9728 C   0  0  0  0  0  0  0  0  0  0  0  0
   52.5502   11.2514    6.8717 C   0  0  0  0  0  0  0  0  0  0  0  0
   54.4844    7.1583    7.1861 C   0  0  0  0  0  0  0  0  0  0  0  0
   52.5899    9.2768    4.8784 C   0  0  0  0  0  0  0  0  0  0  0  0
   51.6267   11.2777    5.8079 C   0  0  0  0  0  0  0  0  0  0  0  0
   51.6596   10.3092    4.8091 C   0  0  0  0  0  0  0  0  0  0  0  0
   52.5121   12.3721    7.8933 C   0  0  0  0  0  0  0  0  0  0  0  0
   55.6205    6.3550    7.3389 C   0  0  0  0  0  0  0  0  0  0  0  0
   53.4752    7.1137    8.1595 C   0  0  0  0  0  0  0  0  0  0  0  0
   54.7597    5.5133    9.4341 C   0  0  0  0  0  0  0  0  0  0  0  0
   55.7631    5.5379    8.4659 C   0  0  0  0  0  0  0  0  0  0  0  0
   53.6177    6.2977    9.2864 C   0  0  0  0  0  0  0  0  0  0  0  0
   52.0350   11.9338    9.2809 C   0  0  0  0  0  0  0  0  0  0  0  0
   50.0039   13.5905    9.5550 Br  0  0  0  0  0  0  0  0  0  0  0  0
   52.2674    9.7509    4.3242 O   0  0  0  0  0  0  0  0  0  0  0  0
   55.9160    4.7129    9.5651 O   0  0  0  0  0  0  0  0  0  0  0  0
   55.4382    6.9340    9.8078 O   0  0  0  0  0  0  0  0  0  0  0  0
   52.2878    7.2930    6.8661 N   0  0  0  0  0  0  0  0  0  0  0  0
   53.8138    8.9134    5.8525 C   0  0  0  0  0  0  0  0  0  0  0  0
   53.5942    7.6884    6.5251 C   0  0  0  0  0  0  0  0  0  0  0  0
   52.6842    9.7829    5.4805 C   0  0  0  0  0  0  0  0  0  0  0  0
   54.7231    7.0077    7.0249 C   0  0  0  0  0  0  0  0  0  0  0  0
   52.0660   10.6914    6.4951 C   0  0  0  0  0  0  0  0  0  0  0  0
   55.0996    9.3825    5.5431 C   0  0  0  0  0  0  0  0  0  0  0  0
   56.0128    7.4766    6.6895 C   0  0  0  0  0  0  0  0  0  0  0  0
   56.2035    8.6525    5.9577 C   0  0  0  0  0  0  0  0  0  0  0  0
   54.6386    5.7611    7.8848 C   0  0  0  0  0  0  0  0  0  0  0  0
   52.5005   10.7400    7.8286 C   0  0  0  0  0  0  0  0  0  0  0  0
   51.0074   11.5199    6.0871 C   0  0  0  0  0  0  0  0  0  0  0  0
   50.8296   12.4210    8.3193 C   0  0  0  0  0  0  0  0  0  0  0  0
   51.8790   11.6033    8.7388 C   0  0  0  0  0  0  0  0  0  0  0  0
   50.3913   12.3831    6.9964 C   0  0  0  0  0  0  0  0  0  0  0  0
   55.4037    5.8208    9.2108 C   0  0  0  0  0  0  0  0  0  0  0  0
   53.4121    9.0136    7.2847 Na  0  0  0  0  0 15  0  0  0  0  0  0
   53.4121    9.0136    7.2847 Na  0  0  0  0  0 15  0  0  0  0  0  0
   53.6660    9.3022    7.1761 O   0  0  0  0  0  0  0  0  0  0  0  0
   53.7287    9.2215    7.1643 O   0  0  0  0  0  0  0  0  0  0  0  0
   52.8578    9.5603    7.4052 H   0  0  0  0  0  0  0  0  0  0  0  0
   53.6466    8.2616    7.2852 H   0  0  0  0  0  0  0  0  0  0  0  0
   54.9273    9.3801    8.2003 H   0  0  0  0  0  0  0  0  0  0  0  0
   54.0595   10.6328    8.8389 H   0  0  0  0  0  0  0  0  0  0  0  0
   52.6075    8.5047    4.1090 H   0  0  0  0  0  0  0  0  0  0  0  0
   50.8863   12.0737    5.7492 H   0  0  0  0  0  0  0  0  0  0  0  0
   50.9503   10.3545    3.9845 H   0  0  0  0  0  0  0  0  0  0  0  0
   51.8860   13.1936    7.5362 H   0  0  0  0  0  0  0  0  0  0  0  0
   53.5152   12.8001    8.0026 H   0  0  0  0  0  0  0  0  0  0  0  0
   56.4046    6.3674    6.5829 H   0  0  0  0  0  0  0  0  0  0  0  0
   52.5728    7.7137    8.0697 H   0  0  0  0  0  0  0  0  0  0  0  0
   56.6542    4.9274    8.5777 H   0  0  0  0  0  0  0  0  0  0  0  0
   52.8315    6.2870   10.0379 H   0  0  0  0  0  0  0  0  0  0  0  0
   52.2063    6.3099    7.0925 H   0  0  0  0  0  0  0  0  0  0  0  0
   51.5673    7.5931    6.2138 H   0  0  0  0  0  0  0  0  0  0  0  0
   55.2330   10.3269    5.0150 H   0  0  0  0  0  0  0  0  0  0  0  0
   56.8892    6.9414    7.0559 H   0  0  0  0  0  0  0  0  0  0  0  0
   57.2093    9.0001    5.7502 H   0  0  0  0  0  0  0  0  0  0  0  0
   55.0147    4.9229    7.2792 H   0  0  0  0  0  0  0  0  0  0  0  0
   53.6059    5.5032    8.1531 H   0  0  0  0  0  0  0  0  0  0  0  0
   53.3107   10.1036    8.1870 H   0  0  0  0  0  0  0  0  0  0  0  0
   50.6586   11.4841    5.0547 H   0  0  0  0  0  0  0  0  0  0  0  0
   52.2222   11.6154    9.7690 H   0  0  0  0  0  0  0  0  0  0  0  0
   49.5723   13.0147    6.6598 H   0  0  0  0  0  0  0  0  0  0  0  0
   52.7418    9.3915    7.4584 H   0  0  0  0  0  0  0  0  0  0  0  0
   53.8285    8.3470    7.2194 H   0  0  0  0  0  0  0  0  0  0  0  0
   52.8530    9.5558    7.4072 H   0  0  0  0  0  0  0  0  0  0  0  0
   53.6548    8.2633    7.2824 H   0  0  0  0  0  0  0  0  0  0  0  0
  2 18  1  0
  3  9  2  0
  4 21  1  0
  5 21  2  0
  6  8  1  0
  7  8  2  0
  7  9  1  0
  7 12  1  0
  8 10  1  0
  9 11  1  0
 10 13  2  0
 10 15  1  0
 11 16  2  0
 11 17  1  0
 12 14  2  0
 13 14  1  0
 15 21  1  0
 16 19  1  0
 17 20  2  0
 18 19  2  0
 18 20  1  0
 22 38  1  0
 23 29  2  0
 24 41  1  0
 25 41  2  0
 26 28  1  0
 27 28  2  0
 27 29  1  0
 27 32  1  0
 28 30  1  0
 29 31  1  0
 30 33  2  0
 30 35  1  0
 31 36  2  0
 31 37  1  0
 32 34  2  0
 33 34  1  0
 35 41  1  0
 36 39  1  0
 37 40  2  0
 38 39  2  0
 38 40  1  0
  1 46  1  0
  1 47  1  0
  6 48  1  0
  6 49  1  0
 12 50  1  0
 13 51  1  0
 14 52  1  0
 15 53  1  0
 15 54  1  0
 16 55  1  0
 17 56  1  0
 19 57  1  0
 20 58  1  0
 26 59  1  0
 26 60  1  0
 32 61  1  0
 33 62  1  0
 34 63  1  0
 35 64  1  0
 35 65  1  0
 36 66  1  0
 37 67  1  0
 39 68  1  0
 40 69  1  0
 44 70  1  0
 44 71  1  0
 45 72  1  0
 45 73  1  0
M  CHG  4   4  -1  24  -1  42   1  43   1
M  END
> <Uni-Dock RESULT> 
ENERGY=   -5.327  LOWER_BOUND=   10.443  UPPER_BOUND=   12.335
INTER + INTRA:          -5.327
INTER:                  -5.327
INTRA:                   0.000
UNBOUND:                 0.000

$$$$

     RDKit          3D

 73 70  0  0  0  0  0  0  0  0999 V2000
   49.8869    5.7336   18.5292 O   0  0  0  0  0  0  0  0  0  0  0  0
   49.4638   11.7645   16.9003 Br  0  0  0  0  0  0  0  0  0  0  0  0
   46.9271    5.6337   18.6014 O   0  0  0  0  0  0  0  0  0  0  0  0
   54.6980    4.4137   18.3212 O   0  0  0  0  0  0  0  0  0  0  0  0
   53.2543    6.0881   18.9149 O   0  0  0  0  0  0  0  0  0  0  0  0
   50.7110    5.9480   19.7791 N   0  0  0  0  0  0  0  0  0  0  0  0
   49.1071    4.8089   18.2728 C   0  0  0  0  0  0  0  0  0  0  0  0
   50.3811    4.9129   18.8703 C   0  0  0  0  0  0  0  0  0  0  0  0
   48.0944    5.8986   18.3162 C   0  0  0  0  0  0  0  0  0  0  0  0
   51.2872    3.8318   18.7201 C   0  0  0  0  0  0  0  0  0  0  0  0
   48.4590    7.2983   17.9598 C   0  0  0  0  0  0  0  0  0  0  0  0
   48.7514    3.6746   17.5290 C   0  0  0  0  0  0  0  0  0  0  0  0
   50.9241    2.7203   17.9340 C   0  0  0  0  0  0  0  0  0  0  0  0
   49.6595    2.6339   17.3599 C   0  0  0  0  0  0  0  0  0  0  0  0
   52.6538    3.8394   19.3785 C   0  0  0  0  0  0  0  0  0  0  0  0
   47.6492    8.3377   18.4325 C   0  0  0  0  0  0  0  0  0  0  0  0
   49.5654    7.6019   17.1526 C   0  0  0  0  0  0  0  0  0  0  0  0
   49.0680    9.9586   17.3375 C   0  0  0  0  0  0  0  0  0  0  0  0
   47.9568    9.6685   18.1287 C   0  0  0  0  0  0  0  0  0  0  0  0
   49.8735    8.9320   16.8493 C   0  0  0  0  0  0  0  0  0  0  0  0
   53.6191    4.8768   18.7979 C   0  0  0  0  0  0  0  0  0  0  0  0
   55.5826    3.2619   18.1036 Br  0  0  0  0  0  0  0  0  0  0  0  0
   48.7466    2.8773   17.5138 O   0  0  0  0  0  0  0  0  0  0  0  0
   48.2356   10.9891   17.8274 O   0  0  0  0  0  0  0  0  0  0  0  0
   49.8267    9.6170   18.7254 O   0  0  0  0  0  0  0  0  0  0  0  0
   49.2319    6.1355   16.2288 N   0  0  0  0  0  0  0  0  0  0  0  0
   48.7383    5.0470   18.3627 C   0  0  0  0  0  0  0  0  0  0  0  0
   48.6480    6.1709   17.5084 C   0  0  0  0  0  0  0  0  0  0  0  0
   49.4230    3.8187   17.9236 C   0  0  0  0  0  0  0  0  0  0  0  0
   48.1591    7.3722   18.0610 C   0  0  0  0  0  0  0  0  0  0  0  0
   50.9143    3.7235   17.9859 C   0  0  0  0  0  0  0  0  0  0  0  0
   48.2263    5.0514   19.6692 C   0  0  0  0  0  0  0  0  0  0  0  0
   47.6266    7.3602   19.3694 C   0  0  0  0  0  0  0  0  0  0  0  0
   47.6594    6.2141   20.1693 C   0  0  0  0  0  0  0  0  0  0  0  0
   48.1352    8.6915   17.3129 C   0  0  0  0  0  0  0  0  0  0  0  0
   51.7203    4.7839   18.4275 C   0  0  0  0  0  0  0  0  0  0  0  0
   51.5205    2.5230   17.5797 C   0  0  0  0  0  0  0  0  0  0  0  0
   53.7011    3.4447   18.0510 C   0  0  0  0  0  0  0  0  0  0  0  0
   53.1129    4.6430   18.4565 C   0  0  0  0  0  0  0  0  0  0  0  0
   52.9101    2.3835   17.6130 C   0  0  0  0  0  0  0  0  0  0  0  0
   48.8018    9.8694   18.0306 C   0  0  0  0  0  0  0  0  0  0  0  0
   49.9979    5.8168   18.1552 Na  0  0  0  0  0 15  0  0  0  0  0  0
   49.9979    5.8168   18.1552 Na  0  0  0  0  0 15  0  0  0  0  0  0
   49.9696    5.6655   18.5239 O   0  0  0  0  0  0  0  0  0  0  0  0
   49.8905    5.7311   18.5282 O   0  0  0  0  0  0  0  0  0  0  0  0
   50.6186    5.3500   18.0222 H   0  0  0  0  0  0  0  0  0  0  0  0
   49.4882    6.3668   17.9144 H   0  0  0  0  0  0  0  0  0  0  0  0
   50.2179    6.8185   19.6441 H   0  0  0  0  0  0  0  0  0  0  0  0
   51.7313    6.1566   19.6838 H   0  0  0  0  0  0  0  0  0  0  0  0
   47.7662    3.6208   17.0654 H   0  0  0  0  0  0  0  0  0  0  0  0
   51.6302    1.9053   17.7844 H   0  0  0  0  0  0  0  0  0  0  0  0
   49.3888    1.7597   16.7701 H   0  0  0  0  0  0  0  0  0  0  0  0
   53.1098    2.8476   19.3239 H   0  0  0  0  0  0  0  0  0  0  0  0
   52.5416    4.0469   20.4489 H   0  0  0  0  0  0  0  0  0  0  0  0
   46.7776    8.1155   19.0468 H   0  0  0  0  0  0  0  0  0  0  0  0
   50.2106    6.8213   16.7566 H   0  0  0  0  0  0  0  0  0  0  0  0
   47.3265   10.4662   18.5104 H   0  0  0  0  0  0  0  0  0  0  0  0
   50.7437    9.1491   16.2341 H   0  0  0  0  0  0  0  0  0  0  0  0
   48.8929    6.8584   15.6067 H   0  0  0  0  0  0  0  0  0  0  0  0
   49.2296    5.2206   15.7842 H   0  0  0  0  0  0  0  0  0  0  0  0
   48.3041    4.1642   20.2980 H   0  0  0  0  0  0  0  0  0  0  0  0
   47.2277    8.2821   19.7936 H   0  0  0  0  0  0  0  0  0  0  0  0
   47.2733    6.2531   21.1817 H   0  0  0  0  0  0  0  0  0  0  0  0
   47.0804    8.9312   17.1113 H   0  0  0  0  0  0  0  0  0  0  0  0
   48.6256    8.6292   16.3328 H   0  0  0  0  0  0  0  0  0  0  0  0
   51.2884    5.7359   18.7391 H   0  0  0  0  0  0  0  0  0  0  0  0
   50.9028    1.6960   17.2287 H   0  0  0  0  0  0  0  0  0  0  0  0
   53.7185    5.4806   18.7892 H   0  0  0  0  0  0  0  0  0  0  0  0
   53.3589    1.4460   17.2924 H   0  0  0  0  0  0  0  0  0  0  0  0
   50.6139    5.4441   17.8328 H   0  0  0  0  0  0  0  0  0  0  0  0
   49.4103    6.3407   18.1091 H   0  0  0  0  0  0  0  0  0  0  0  0
   50.6196    5.3522   18.0158 H   0  0  0  0  0  0  0  0  0  0  0  0
   49.4836    6.3671   17.9219 H   0  0  0  0  0  0  0  0  0  0  0  0
  2 18  1  0
  3  9  2  0
  4 21  1  0
  5 21  2  0
  6  8  1  0
  7  8  2  0
  7  9  1  0
  7 12  1  0
  8 10  1  0
  9 11  1  0
 10 13  2  0
 10 15  1  0
 11 16  2  0
 11 17  1  0
 12 14  2  0
 13 14  1  0
 15 21  1  0
 16 19  1  0
 17 20  2  0
 18 19  2  0
 18 20  1  0
 22 38  1  0
 23 29  2  0
 24 41  1  0
 25 41  2  0
 26 28  1  0
 27 28  2  0
 27 29  1  0
 27 32  1  0
 28 30  1  0
 29 31  1  0
 30 33  2  0
 30 35  1  0
 31 36  2  0
 31 37  1  0
 32 34  2  0
 33 34  1  0
 35 41  1  0
 36 39  1  0
 37 40  2  0
 38 39  2  0
 38 40  1  0
  1 46  1  0
  1 47  1  0
  6 48  1  0
  6 49  1  0
 12 50  1  0
 13 51  1  0
 14 52  1  0
 15 53  1  0
 15 54  1  0
 16 55  1  0
 17 56  1  0
 19 57  1  0
 20 58  1  0
 26 59  1  0
 26 60  1  0
 32 61  1  0
 33 62  1  0
 34 63  1  0
 35 64  1  0
 35 65  1  0
 36 66  1  0
 37 67  1  0
 39 68  1  0
 40 69  1  0
 44 70  1  0
 44 71  1  0
 45 72  1  0
 45 73  1  0
M  CHG  4   4  -1  24  -1  42   1  43   1
M  END
> <Uni-Dock RESULT> 
ENERGY=   -5.218  LOWER_BOUND=    2.797  UPPER_BOUND=    4.993
INTER + INTRA:          -5.218
INTER:                  -5.218
INTRA:                   0.000
UNBOUND:                 0.000

$$$$
