
     RDKit          3D

 73 70  0  0  0  0  0  0  0  0999 V2000
   49.0087    7.9339   19.6219 O   0  0  0  0  0  0  0  0  0  0  0  0
   47.3741   13.4430   17.8860 Br  0  0  0  0  0  0  0  0  0  0  0  0
   49.5312    9.0108   22.6151 O   0  0  0  0  0  0  0  0  0  0  0  0
   49.8752    5.9478   16.7713 O   0  0  0  0  0  0  0  0  0  0  0  0
   47.9683    4.6801   16.8843 O   0  0  0  0  0  0  0  0  0  0  0  0
   50.0291    7.4467   19.0972 N   0  0  0  0  0  0  0  0  0  0  0  0
   48.8180    7.2933   21.2090 C   0  0  0  0  0  0  0  0  0  0  0  0
   49.2631    6.6990   20.0097 C   0  0  0  0  0  0  0  0  0  0  0  0
   49.0287    8.7282   21.5233 C   0  0  0  0  0  0  0  0  0  0  0  0
   49.0453    5.3148   19.8249 C   0  0  0  0  0  0  0  0  0  0  0  0
   48.6292    9.8255   20.5989 C   0  0  0  0  0  0  0  0  0  0  0  0
   48.1544    6.5409   22.1912 C   0  0  0  0  0  0  0  0  0  0  0  0
   48.3533    4.5845   20.8134 C   0  0  0  0  0  0  0  0  0  0  0  0
   47.9064    5.1900   21.9866 C   0  0  0  0  0  0  0  0  0  0  0  0
   49.5686    4.5481   18.6285 C   0  0  0  0  0  0  0  0  0  0  0  0
   47.7673    9.6275   19.5145 C   0  0  0  0  0  0  0  0  0  0  0  0
   49.1034   11.1197   20.8688 C   0  0  0  0  0  0  0  0  0  0  0  0
   47.8640   11.9881   18.9898 C   0  0  0  0  0  0  0  0  0  0  0  0
   47.3807   10.7109   18.7141 C   0  0  0  0  0  0  0  0  0  0  0  0
   48.7226   12.1977   20.0672 C   0  0  0  0  0  0  0  0  0  0  0  0
   49.0808    5.1082   17.2987 C   0  0  0  0  0  0  0  0  0  0  0  0
   50.0209    2.1476   17.1000 Br  0  0  0  0  0  0  0  0  0  0  0  0
   51.4859    8.1548   20.0602 O   0  0  0  0  0  0  0  0  0  0  0  0
   46.6920   12.6583   21.0021 O   0  0  0  0  0  0  0  0  0  0  0  0
   47.5271   12.1018   18.9339 O   0  0  0  0  0  0  0  0  0  0  0  0
   48.7028    9.5402   18.7744 N   0  0  0  0  0  0  0  0  0  0  0  0
   49.2445    8.1497   20.7282 C   0  0  0  0  0  0  0  0  0  0  0  0
   48.4471    9.1270   20.1054 C   0  0  0  0  0  0  0  0  0  0  0  0
   50.4055    7.5673   20.0309 C   0  0  0  0  0  0  0  0  0  0  0  0
   47.2659    9.5317   20.7640 C   0  0  0  0  0  0  0  0  0  0  0  0
   50.2713    6.2644   19.3211 C   0  0  0  0  0  0  0  0  0  0  0  0
   48.9678    7.6779   22.0174 C   0  0  0  0  0  0  0  0  0  0  0  0
   47.0000    9.0665   22.0649 C   0  0  0  0  0  0  0  0  0  0  0  0
   47.8497    8.1516   22.6914 C   0  0  0  0  0  0  0  0  0  0  0  0
   46.2821   10.4961   20.1299 C   0  0  0  0  0  0  0  0  0  0  0  0
   49.0245    5.6916   19.0321 C   0  0  0  0  0  0  0  0  0  0  0  0
   51.4440    5.5969   18.9351 C   0  0  0  0  0  0  0  0  0  0  0  0
   50.1313    3.7982   18.0052 C   0  0  0  0  0  0  0  0  0  0  0  0
   48.9568    4.4565   18.3753 C   0  0  0  0  0  0  0  0  0  0  0  0
   51.3755    4.3608   18.2813 C   0  0  0  0  0  0  0  0  0  0  0  0
   46.8908   11.8938   20.0145 C   0  0  0  0  0  0  0  0  0  0  0  0
   48.7372    7.7901   19.8737 Na  0  0  0  0  0 15  0  0  0  0  0  0
   48.7372    7.7901   19.8737 Na  0  0  0  0  0 15  0  0  0  0  0  0
   48.9516    8.0528   19.6648 O   0  0  0  0  0  0  0  0  0  0  0  0
   49.0185    7.8995   19.6156 O   0  0  0  0  0  0  0  0  0  0  0  0
   48.3707    8.4289   20.1568 H   0  0  0  0  0  0  0  0  0  0  0  0
   48.8323    7.0075   19.8422 H   0  0  0  0  0  0  0  0  0  0  0  0
   50.9598    7.6554   19.4500 H   0  0  0  0  0  0  0  0  0  0  0  0
   50.1241    6.9892   18.1664 H   0  0  0  0  0  0  0  0  0  0  0  0
   47.8248    7.0144   23.1117 H   0  0  0  0  0  0  0  0  0  0  0  0
   48.1619    3.5227   20.6645 H   0  0  0  0  0  0  0  0  0  0  0  0
   47.3837    4.6028   22.7374 H   0  0  0  0  0  0  0  0  0  0  0  0
   50.6649    4.5574   18.6582 H   0  0  0  0  0  0  0  0  0  0  0  0
   49.2797    3.4941   18.6802 H   0  0  0  0  0  0  0  0  0  0  0  0
   47.3978    8.6355   19.2559 H   0  0  0  0  0  0  0  0  0  0  0  0
   49.7677   11.2925   21.7116 H   0  0  0  0  0  0  0  0  0  0  0  0
   46.7228   10.5330   17.8674 H   0  0  0  0  0  0  0  0  0  0  0  0
   49.1032   13.1912   20.2880 H   0  0  0  0  0  0  0  0  0  0  0  0
   48.2930   10.4846   18.6080 H   0  0  0  0  0  0  0  0  0  0  0  0
   49.7041    9.6290   18.6149 H   0  0  0  0  0  0  0  0  0  0  0  0
   49.6200    6.9496   22.4890 H   0  0  0  0  0  0  0  0  0  0  0  0
   46.1227    9.4340   22.5990 H   0  0  0  0  0  0  0  0  0  0  0  0
   47.6304    7.8204   23.7011 H   0  0  0  0  0  0  0  0  0  0  0  0
   45.3538   10.5476   20.7128 H   0  0  0  0  0  0  0  0  0  0  0  0
   45.9944   10.1155   19.1437 H   0  0  0  0  0  0  0  0  0  0  0  0
   48.0962    6.1989   19.2889 H   0  0  0  0  0  0  0  0  0  0  0  0
   52.4193    6.0442   19.1411 H   0  0  0  0  0  0  0  0  0  0  0  0
   47.9836    4.0274   18.1497 H   0  0  0  0  0  0  0  0  0  0  0  0
   52.2942    3.8579   17.9892 H   0  0  0  0  0  0  0  0  0  0  0  0
   48.2346    8.2309   20.2916 H   0  0  0  0  0  0  0  0  0  0  0  0
   49.0255    7.0867   19.6647 H   0  0  0  0  0  0  0  0  0  0  0  0
   48.4143    8.4681   20.1153 H   0  0  0  0  0  0  0  0  0  0  0  0
   48.7789    7.0027   19.8901 H   0  0  0  0  0  0  0  0  0  0  0  0
  2 18  1  0
  3  9  2  0
  4 21  1  0
  5 21  2  0
  6  8  1  0
  7  8  2  0
  7  9  1  0
  7 12  1  0
  8 10  1  0
  9 11  1  0
 10 13  2  0
 10 15  1  0
 11 16  2  0
 11 17  1  0
 12 14  2  0
 13 14  1  0
 15 21  1  0
 16 19  1  0
 17 20  2  0
 18 19  2  0
 18 20  1  0
 22 38  1  0
 23 29  2  0
 24 41  1  0
 25 41  2  0
 26 28  1  0
 27 28  2  0
 27 29  1  0
 27 32  1  0
 28 30  1  0
 29 31  1  0
 30 33  2  0
 30 35  1  0
 31 36  2  0
 31 37  1  0
 32 34  2  0
 33 34  1  0
 35 41  1  0
 36 39  1  0
 37 40  2  0
 38 39  2  0
 38 40  1  0
  1 46  1  0
  1 47  1  0
  6 48  1  0
  6 49  1  0
 12 50  1  0
 13 51  1  0
 14 52  1  0
 15 53  1  0
 15 54  1  0
 16 55  1  0
 17 56  1  0
 19 57  1  0
 20 58  1  0
 26 59  1  0
 26 60  1  0
 32 61  1  0
 33 62  1  0
 34 63  1  0
 35 64  1  0
 35 65  1  0
 36 66  1  0
 37 67  1  0
 39 68  1  0
 40 69  1  0
 44 70  1  0
 44 71  1  0
 45 72  1  0
 45 73  1  0
M  CHG  4   4  -1  24  -1  42   1  43   1
M  END
> <Uni-Dock RESULT> 
ENERGY=   -5.794  LOWER_BOUND=    0.000  UPPER_BOUND=    0.000
INTER + INTRA:          -5.794
INTER:                  -5.794
INTRA:                   0.000
UNBOUND:                 0.000

$$$$

     RDKit          3D

 73 70  0  0  0  0  0  0  0  0999 V2000
   50.6222    5.7703   17.5856 O   0  0  0  0  0  0  0  0  0  0  0  0
   49.6325   11.0808   14.9672 Br  0  0  0  0  0  0  0  0  0  0  0  0
   47.4634    5.4279   18.1299 O   0  0  0  0  0  0  0  0  0  0  0  0
   54.0556    5.4980   18.5653 O   0  0  0  0  0  0  0  0  0  0  0  0
   54.5707    4.0082   16.9007 O   0  0  0  0  0  0  0  0  0  0  0  0
   51.2979    5.7648   18.6331 N   0  0  0  0  0  0  0  0  0  0  0  0
   49.5155    4.4512   17.6097 C   0  0  0  0  0  0  0  0  0  0  0  0
   50.8469    4.5610   18.0621 C   0  0  0  0  0  0  0  0  0  0  0  0
   48.5692    5.5943   17.6064 C   0  0  0  0  0  0  0  0  0  0  0  0
   51.6551    3.4015   18.0589 C   0  0  0  0  0  0  0  0  0  0  0  0
   48.8859    6.9044   16.9727 C   0  0  0  0  0  0  0  0  0  0  0  0
   49.0034    3.2293   17.1450 C   0  0  0  0  0  0  0  0  0  0  0  0
   51.1276    2.1910   17.5631 C   0  0  0  0  0  0  0  0  0  0  0  0
   49.8141    2.1027   17.1052 C   0  0  0  0  0  0  0  0  0  0  0  0
   53.0627    3.3734   18.6164 C   0  0  0  0  0  0  0  0  0  0  0  0
   49.9511    7.0783   16.0823 C   0  0  0  0  0  0  0  0  0  0  0  0
   48.0403    7.9913   17.2487 C   0  0  0  0  0  0  0  0  0  0  0  0
   49.3212    9.3927   15.7601 C   0  0  0  0  0  0  0  0  0  0  0  0
   50.1642    8.3217   15.4719 C   0  0  0  0  0  0  0  0  0  0  0  0
   48.2568    9.2316   16.6449 C   0  0  0  0  0  0  0  0  0  0  0  0
   53.9888    4.3858   17.9550 C   0  0  0  0  0  0  0  0  0  0  0  0
   55.5225    2.0615   19.3456 Br  0  0  0  0  0  0  0  0  0  0  0  0
   50.0951    6.1950   20.0185 O   0  0  0  0  0  0  0  0  0  0  0  0
   47.2448    8.8493   14.6350 O   0  0  0  0  0  0  0  0  0  0  0  0
   49.3230    9.4585   15.4062 O   0  0  0  0  0  0  0  0  0  0  0  0
   50.6337    7.5051   16.9669 N   0  0  0  0  0  0  0  0  0  0  0  0
   49.5385    5.4925   17.8582 C   0  0  0  0  0  0  0  0  0  0  0  0
   49.6494    6.4901   16.8727 C   0  0  0  0  0  0  0  0  0  0  0  0
   50.4091    5.5076   19.0478 C   0  0  0  0  0  0  0  0  0  0  0  0
   48.8957    6.3343   15.6893 C   0  0  0  0  0  0  0  0  0  0  0  0
   51.6437    4.6743   19.0780 C   0  0  0  0  0  0  0  0  0  0  0  0
   48.6188    4.4420   17.7500 C   0  0  0  0  0  0  0  0  0  0  0  0
   47.9624    5.2862   15.5915 C   0  0  0  0  0  0  0  0  0  0  0  0
   47.8185    4.3503   16.6187 C   0  0  0  0  0  0  0  0  0  0  0  0
   49.0253    7.2934   14.5217 C   0  0  0  0  0  0  0  0  0  0  0  0
   52.1834    4.0897   17.9234 C   0  0  0  0  0  0  0  0  0  0  0  0
   52.2776    4.4747   20.3141 C   0  0  0  0  0  0  0  0  0  0  0  0
   53.9541    3.1041   19.2491 C   0  0  0  0  0  0  0  0  0  0  0  0
   53.3385    3.3027   18.0116 C   0  0  0  0  0  0  0  0  0  0  0  0
   53.4306    3.6853   20.4019 C   0  0  0  0  0  0  0  0  0  0  0  0
   48.4711    8.6706   14.8871 C   0  0  0  0  0  0  0  0  0  0  0  0
   50.4698    5.4822   17.3587 Na  0  0  0  0  0 15  0  0  0  0  0  0
   50.4698    5.4822   17.3587 Na  0  0  0  0  0 15  0  0  0  0  0  0
   50.5301    5.8444   17.5130 O   0  0  0  0  0  0  0  0  0  0  0  0
   50.6436    5.7450   17.6003 O   0  0  0  0  0  0  0  0  0  0  0  0
   49.9283    5.8449   16.9139 H   0  0  0  0  0  0  0  0  0  0  0  0
   50.8588    4.8314   17.5767 H   0  0  0  0  0  0  0  0  0  0  0  0
   50.8749    5.9476   19.5397 H   0  0  0  0  0  0  0  0  0  0  0  0
   52.3332    5.8094   18.7372 H   0  0  0  0  0  0  0  0  0  0  0  0
   47.9732    3.1624   16.8067 H   0  0  0  0  0  0  0  0  0  0  0  0
   51.7543    1.3006   17.5362 H   0  0  0  0  0  0  0  0  0  0  0  0
   49.4285    1.1555   16.7367 H   0  0  0  0  0  0  0  0  0  0  0  0
   53.0159    3.5596   19.6963 H   0  0  0  0  0  0  0  0  0  0  0  0
   53.5094    2.3808   18.5060 H   0  0  0  0  0  0  0  0  0  0  0  0
   50.6453    6.2678   15.8613 H   0  0  0  0  0  0  0  0  0  0  0  0
   47.2036    7.8717   17.9323 H   0  0  0  0  0  0  0  0  0  0  0  0
   51.0066    8.4397   14.7953 H   0  0  0  0  0  0  0  0  0  0  0  0
   47.5953   10.0625   16.8741 H   0  0  0  0  0  0  0  0  0  0  0  0
   50.3497    8.3326   16.3995 H   0  0  0  0  0  0  0  0  0  0  0  0
   50.7192    7.8306   17.9274 H   0  0  0  0  0  0  0  0  0  0  0  0
   48.5286    3.7053   18.5420 H   0  0  0  0  0  0  0  0  0  0  0  0
   47.3317    5.2082   14.7048 H   0  0  0  0  0  0  0  0  0  0  0  0
   47.0804    3.5605   16.5252 H   0  0  0  0  0  0  0  0  0  0  0  0
   48.4986    6.9087   13.6392 H   0  0  0  0  0  0  0  0  0  0  0  0
   50.0797    7.3635   14.2327 H   0  0  0  0  0  0  0  0  0  0  0  0
   51.7345    4.2517   16.9450 H   0  0  0  0  0  0  0  0  0  0  0  0
   51.8736    4.9405   21.2160 H   0  0  0  0  0  0  0  0  0  0  0  0
   53.7515    2.8620   17.1076 H   0  0  0  0  0  0  0  0  0  0  0  0
   53.9088    3.5416   21.3677 H   0  0  0  0  0  0  0  0  0  0  0  0
   49.9026    5.5868   16.8211 H   0  0  0  0  0  0  0  0  0  0  0  0
   50.9766    5.0155   17.7420 H   0  0  0  0  0  0  0  0  0  0  0  0
   49.9463    5.9057   16.9477 H   0  0  0  0  0  0  0  0  0  0  0  0
   50.8194    4.7958   17.5282 H   0  0  0  0  0  0  0  0  0  0  0  0
  2 18  1  0
  3  9  2  0
  4 21  1  0
  5 21  2  0
  6  8  1  0
  7  8  2  0
  7  9  1  0
  7 12  1  0
  8 10  1  0
  9 11  1  0
 10 13  2  0
 10 15  1  0
 11 16  2  0
 11 17  1  0
 12 14  2  0
 13 14  1  0
 15 21  1  0
 16 19  1  0
 17 20  2  0
 18 19  2  0
 18 20  1  0
 22 38  1  0
 23 29  2  0
 24 41  1  0
 25 41  2  0
 26 28  1  0
 27 28  2  0
 27 29  1  0
 27 32  1  0
 28 30  1  0
 29 31  1  0
 30 33  2  0
 30 35  1  0
 31 36  2  0
 31 37  1  0
 32 34  2  0
 33 34  1  0
 35 41  1  0
 36 39  1  0
 37 40  2  0
 38 39  2  0
 38 40  1  0
  1 46  1  0
  1 47  1  0
  6 48  1  0
  6 49  1  0
 12 50  1  0
 13 51  1  0
 14 52  1  0
 15 53  1  0
 15 54  1  0
 16 55  1  0
 17 56  1  0
 19 57  1  0
 20 58  1  0
 26 59  1  0
 26 60  1  0
 32 61  1  0
 33 62  1  0
 34 63  1  0
 35 64  1  0
 35 65  1  0
 36 66  1  0
 37 67  1  0
 39 68  1  0
 40 69  1  0
 44 70  1  0
 44 71  1  0
 45 72  1  0
 45 73  1  0
M  CHG  4   4  -1  24  -1  42   1  43   1
M  END
> <Uni-Dock RESULT> 
ENERGY=   -5.617  LOWER_BOUND=    3.408  UPPER_BOUND=    4.793
INTER + INTRA:          -5.617
INTER:                  -5.617
INTRA:                   0.000
UNBOUND:                 0.000

$$$$

     RDKit          3D

 73 70  0  0  0  0  0  0  0  0999 V2000
   47.9977   11.1654   11.2725 O   0  0  0  0  0  0  0  0  0  0  0  0
   51.4713   13.9251    7.2285 Br  0  0  0  0  0  0  0  0  0  0  0  0
   46.4284   13.9243   11.8363 O   0  0  0  0  0  0  0  0  0  0  0  0
   49.5393    8.1182   12.3495 O   0  0  0  0  0  0  0  0  0  0  0  0
   48.0751    6.7891   11.1895 O   0  0  0  0  0  0  0  0  0  0  0  0
   48.5546   10.7081   12.2896 N   0  0  0  0  0  0  0  0  0  0  0  0
   46.3756   11.6006   11.6531 C   0  0  0  0  0  0  0  0  0  0  0  0
   47.1766   10.5205   12.0787 C   0  0  0  0  0  0  0  0  0  0  0  0
   46.9351   12.9307   11.3066 C   0  0  0  0  0  0  0  0  0  0  0  0
   46.5397    9.3061   12.4212 C   0  0  0  0  0  0  0  0  0  0  0  0
   48.0454   13.1115   10.3305 C   0  0  0  0  0  0  0  0  0  0  0  0
   44.9811   11.4752   11.5481 C   0  0  0  0  0  0  0  0  0  0  0  0
   45.1405    9.1949   12.2829 C   0  0  0  0  0  0  0  0  0  0  0  0
   44.3645   10.2673   11.8463 C   0  0  0  0  0  0  0  0  0  0  0  0
   47.2822    8.1145   12.9882 C   0  0  0  0  0  0  0  0  0  0  0  0
   48.4494   12.1049    9.4465 C   0  0  0  0  0  0  0  0  0  0  0  0
   48.6709   14.3675   10.2695 C   0  0  0  0  0  0  0  0  0  0  0  0
   50.0779   13.6022    8.4652 C   0  0  0  0  0  0  0  0  0  0  0  0
   49.4619   12.3535    8.5101 C   0  0  0  0  0  0  0  0  0  0  0  0
   49.6839   14.6126    9.3402 C   0  0  0  0  0  0  0  0  0  0  0  0
   48.4018    7.6200   12.0815 C   0  0  0  0  0  0  0  0  0  0  0  0
   47.4334    5.4625   14.1052 Br  0  0  0  0  0  0  0  0  0  0  0  0
   48.7315   12.1640   13.4728 O   0  0  0  0  0  0  0  0  0  0  0  0
   48.4045   15.0693    7.5060 O   0  0  0  0  0  0  0  0  0  0  0  0
   50.0474   13.5779    8.1073 O   0  0  0  0  0  0  0  0  0  0  0  0
   49.3406   11.8012   10.1841 N   0  0  0  0  0  0  0  0  0  0  0  0
   47.3428   12.0563   11.5940 C   0  0  0  0  0  0  0  0  0  0  0  0
   48.0053   12.2387   10.3666 C   0  0  0  0  0  0  0  0  0  0  0  0
   48.0397   11.4535   12.7448 C   0  0  0  0  0  0  0  0  0  0  0  0
   47.2411   12.6782    9.2640 C   0  0  0  0  0  0  0  0  0  0  0  0
   47.8818   10.0006   13.0337 C   0  0  0  0  0  0  0  0  0  0  0  0
   46.0022   12.4190   11.7744 C   0  0  0  0  0  0  0  0  0  0  0  0
   45.8991   13.0556    9.4535 C   0  0  0  0  0  0  0  0  0  0  0  0
   45.2853   12.9347   10.7025 C   0  0  0  0  0  0  0  0  0  0  0  0
   47.8336   12.8015    7.8734 C   0  0  0  0  0  0  0  0  0  0  0  0
   47.3335    9.1055   12.1040 C   0  0  0  0  0  0  0  0  0  0  0  0
   48.3001    9.5254   14.2862 C   0  0  0  0  0  0  0  0  0  0  0  0
   47.6057    7.2932   13.6871 C   0  0  0  0  0  0  0  0  0  0  0  0
   47.1944    7.7514   12.4338 C   0  0  0  0  0  0  0  0  0  0  0  0
   48.1579    8.1722   14.6162 C   0  0  0  0  0  0  0  0  0  0  0  0
   48.8609   13.9325    7.8201 C   0  0  0  0  0  0  0  0  0  0  0  0
   47.6256   11.1474   11.1348 Na  0  0  0  0  0 15  0  0  0  0  0  0
   47.6256   11.1474   11.1348 Na  0  0  0  0  0 15  0  0  0  0  0  0
   48.0021   11.2688   11.1802 O   0  0  0  0  0  0  0  0  0  0  0  0
   47.9891   11.1376   11.2942 O   0  0  0  0  0  0  0  0  0  0  0  0
   47.5853   11.7219   10.5954 H   0  0  0  0  0  0  0  0  0  0  0  0
   47.2938   10.5550   11.5365 H   0  0  0  0  0  0  0  0  0  0  0  0
   48.7480   11.2933   13.0985 H   0  0  0  0  0  0  0  0  0  0  0  0
   49.0809    9.8155   12.3948 H   0  0  0  0  0  0  0  0  0  0  0  0
   44.3797   12.3202   11.2250 H   0  0  0  0  0  0  0  0  0  0  0  0
   44.6480    8.2535   12.5227 H   0  0  0  0  0  0  0  0  0  0  0  0
   43.2866   10.1587   11.7572 H   0  0  0  0  0  0  0  0  0  0  0  0
   47.6895    8.3892   13.9688 H   0  0  0  0  0  0  0  0  0  0  0  0
   46.6008    7.2789   13.1740 H   0  0  0  0  0  0  0  0  0  0  0  0
   48.0076   11.1093    9.4786 H   0  0  0  0  0  0  0  0  0  0  0  0
   48.3643   15.1630   10.9438 H   0  0  0  0  0  0  0  0  0  0  0  0
   49.7714   11.5533    7.8428 H   0  0  0  0  0  0  0  0  0  0  0  0
   50.1600   15.5889    9.3106 H   0  0  0  0  0  0  0  0  0  0  0  0
   49.7843   12.3246    9.3989 H   0  0  0  0  0  0  0  0  0  0  0  0
   49.8970   11.9996   11.0128 H   0  0  0  0  0  0  0  0  0  0  0  0
   45.5252   12.3008   12.7423 H   0  0  0  0  0  0  0  0  0  0  0  0
   45.3303   13.4602    8.6150 H   0  0  0  0  0  0  0  0  0  0  0  0
   44.2536   13.2473   10.8257 H   0  0  0  0  0  0  0  0  0  0  0  0
   47.0487   12.9840    7.1286 H   0  0  0  0  0  0  0  0  0  0  0  0
   48.2928   11.8466    7.5951 H   0  0  0  0  0  0  0  0  0  0  0  0
   47.0295    9.4360   11.1124 H   0  0  0  0  0  0  0  0  0  0  0  0
   48.7441   10.2128   15.0100 H   0  0  0  0  0  0  0  0  0  0  0  0
   46.7755    7.0664   11.7009 H   0  0  0  0  0  0  0  0  0  0  0  0
   48.4876    7.8214   15.5911 H   0  0  0  0  0  0  0  0  0  0  0  0
   47.3288   11.6224   10.5798 H   0  0  0  0  0  0  0  0  0  0  0  0
   47.5457   10.5511   11.6443 H   0  0  0  0  0  0  0  0  0  0  0  0
   47.6540   11.7364   10.6107 H   0  0  0  0  0  0  0  0  0  0  0  0
   47.2336   10.5683   11.4995 H   0  0  0  0  0  0  0  0  0  0  0  0
  2 18  1  0
  3  9  2  0
  4 21  1  0
  5 21  2  0
  6  8  1  0
  7  8  2  0
  7  9  1  0
  7 12  1  0
  8 10  1  0
  9 11  1  0
 10 13  2  0
 10 15  1  0
 11 16  2  0
 11 17  1  0
 12 14  2  0
 13 14  1  0
 15 21  1  0
 16 19  1  0
 17 20  2  0
 18 19  2  0
 18 20  1  0
 22 38  1  0
 23 29  2  0
 24 41  1  0
 25 41  2  0
 26 28  1  0
 27 28  2  0
 27 29  1  0
 27 32  1  0
 28 30  1  0
 29 31  1  0
 30 33  2  0
 30 35  1  0
 31 36  2  0
 31 37  1  0
 32 34  2  0
 33 34  1  0
 35 41  1  0
 36 39  1  0
 37 40  2  0
 38 39  2  0
 38 40  1  0
  1 46  1  0
  1 47  1  0
  6 48  1  0
  6 49  1  0
 12 50  1  0
 13 51  1  0
 14 52  1  0
 15 53  1  0
 15 54  1  0
 16 55  1  0
 17 56  1  0
 19 57  1  0
 20 58  1  0
 26 59  1  0
 26 60  1  0
 32 61  1  0
 33 62  1  0
 34 63  1  0
 35 64  1  0
 35 65  1  0
 36 66  1  0
 37 67  1  0
 39 68  1  0
 40 69  1  0
 44 70  1  0
 44 71  1  0
 45 72  1  0
 45 73  1  0
M  CHG  4   4  -1  24  -1  42   1  43   1
M  END
> <Uni-Dock RESULT> 
ENERGY=   -5.231  LOWER_BOUND=    8.103  UPPER_BOUND=    9.896
INTER + INTRA:          -5.231
INTER:                  -5.231
INTRA:                   0.000
UNBOUND:                 0.000

$$$$

     RDKit          3D

 73 70  0  0  0  0  0  0  0  0999 V2000
   46.0940   12.0055   10.4338 O   0  0  0  0  0  0  0  0  0  0  0  0
   44.7069   14.4433    5.1264 Br  0  0  0  0  0  0  0  0  0  0  0  0
   43.0060   12.1788   11.3426 O   0  0  0  0  0  0  0  0  0  0  0  0
   49.6052   12.3255   11.0592 O   0  0  0  0  0  0  0  0  0  0  0  0
   50.0278   10.1022   10.6931 O   0  0  0  0  0  0  0  0  0  0  0  0
   46.8557   12.6515   11.1797 N   0  0  0  0  0  0  0  0  0  0  0  0
   45.0386   11.0378   11.3905 C   0  0  0  0  0  0  0  0  0  0  0  0
   46.3991   11.3739   11.5510 C   0  0  0  0  0  0  0  0  0  0  0  0
   44.0572   11.9412   10.7402 C   0  0  0  0  0  0  0  0  0  0  0  0
   47.2430   10.4576   12.2189 C   0  0  0  0  0  0  0  0  0  0  0  0
   44.2746   12.5346    9.3915 C   0  0  0  0  0  0  0  0  0  0  0  0
   44.5308    9.8159   11.8599 C   0  0  0  0  0  0  0  0  0  0  0  0
   46.7167    9.2251   12.6585 C   0  0  0  0  0  0  0  0  0  0  0  0
   45.3729    8.9016   12.4787 C   0  0  0  0  0  0  0  0  0  0  0  0
   48.6928   10.7526   12.5411 C   0  0  0  0  0  0  0  0  0  0  0  0
   45.2542   12.0696    8.5073 C   0  0  0  0  0  0  0  0  0  0  0  0
   43.4190   13.5704    8.9819 C   0  0  0  0  0  0  0  0  0  0  0  0
   44.5212   13.6607    6.8376 C   0  0  0  0  0  0  0  0  0  0  0  0
   45.3726   12.6296    7.2281 C   0  0  0  0  0  0  0  0  0  0  0  0
   43.5415   14.1320    7.7093 C   0  0  0  0  0  0  0  0  0  0  0  0
   49.5248   11.0824   11.3086 C   0  0  0  0  0  0  0  0  0  0  0  0
   51.2485   10.1407   13.7232 Br  0  0  0  0  0  0  0  0  0  0  0  0
   45.7605   13.9011   12.0687 O   0  0  0  0  0  0  0  0  0  0  0  0
   42.3766   12.5826    6.5044 O   0  0  0  0  0  0  0  0  0  0  0  0
   44.4908   13.4852    6.5248 O   0  0  0  0  0  0  0  0  0  0  0  0
   45.9943   12.9436    8.8520 N   0  0  0  0  0  0  0  0  0  0  0  0
   45.0473   11.9966   10.9137 C   0  0  0  0  0  0  0  0  0  0  0  0
   45.0405   12.1308    9.5134 C   0  0  0  0  0  0  0  0  0  0  0  0
   46.0144   12.7437   11.7382 C   0  0  0  0  0  0  0  0  0  0  0  0
   44.1951   11.2762    8.7734 C   0  0  0  0  0  0  0  0  0  0  0  0
   47.2746   12.0876   12.1864 C   0  0  0  0  0  0  0  0  0  0  0  0
   44.1578   11.1456   11.5815 C   0  0  0  0  0  0  0  0  0  0  0  0
   43.2929   10.4341    9.4488 C   0  0  0  0  0  0  0  0  0  0  0  0
   43.2683   10.3748   10.8443 C   0  0  0  0  0  0  0  0  0  0  0  0
   44.1929   11.2639    7.2569 C   0  0  0  0  0  0  0  0  0  0  0  0
   47.7342   10.8853   11.6300 C   0  0  0  0  0  0  0  0  0  0  0  0
   48.0173   12.7060   13.2041 C   0  0  0  0  0  0  0  0  0  0  0  0
   49.6432   10.9248   13.1196 C   0  0  0  0  0  0  0  0  0  0  0  0
   48.9187   10.3042   12.0999 C   0  0  0  0  0  0  0  0  0  0  0  0
   49.1996   12.1228   13.6753 C   0  0  0  0  0  0  0  0  0  0  0  0
   43.6252   12.5718    6.7049 C   0  0  0  0  0  0  0  0  0  0  0  0
   45.9328   11.6433   10.4576 Na  0  0  0  0  0 15  0  0  0  0  0  0
   45.9328   11.6433   10.4576 Na  0  0  0  0  0 15  0  0  0  0  0  0
   45.9936   12.0187   10.3391 O   0  0  0  0  0  0  0  0  0  0  0  0
   46.1174   11.9948   10.4594 O   0  0  0  0  0  0  0  0  0  0  0  0
   45.3436   11.6533    9.9328 H   0  0  0  0  0  0  0  0  0  0  0  0
   46.3607   11.2713   11.0062 H   0  0  0  0  0  0  0  0  0  0  0  0
   46.5050   13.3831   11.7929 H   0  0  0  0  0  0  0  0  0  0  0  0
   47.8940   12.7232   11.1411 H   0  0  0  0  0  0  0  0  0  0  0  0
   43.4786    9.5773   11.7333 H   0  0  0  0  0  0  0  0  0  0  0  0
   47.3687    8.5057   13.1522 H   0  0  0  0  0  0  0  0  0  0  0  0
   44.9899    7.9488   12.8352 H   0  0  0  0  0  0  0  0  0  0  0  0
   48.7313   11.5870   13.2520 H   0  0  0  0  0  0  0  0  0  0  0  0
   49.1619    9.9064   13.0518 H   0  0  0  0  0  0  0  0  0  0  0  0
   45.9542   11.2858    8.7956 H   0  0  0  0  0  0  0  0  0  0  0  0
   42.6477   13.9386    9.6535 H   0  0  0  0  0  0  0  0  0  0  0  0
   46.1502   12.2643    6.5622 H   0  0  0  0  0  0  0  0  0  0  0  0
   42.8740   14.9359    7.4113 H   0  0  0  0  0  0  0  0  0  0  0  0
   45.6354   13.2253    7.9143 H   0  0  0  0  0  0  0  0  0  0  0  0
   46.1496   13.8051    9.3712 H   0  0  0  0  0  0  0  0  0  0  0  0
   44.1601   11.0877   12.6654 H   0  0  0  0  0  0  0  0  0  0  0  0
   42.5925    9.8253    8.8753 H   0  0  0  0  0  0  0  0  0  0  0  0
   42.5522    9.7286   11.3412 H   0  0  0  0  0  0  0  0  0  0  0  0
   43.6068   10.4192    6.8734 H   0  0  0  0  0  0  0  0  0  0  0  0
   45.2161   11.1036    6.8997 H   0  0  0  0  0  0  0  0  0  0  0  0
   47.1989   10.3974   10.8174 H   0  0  0  0  0  0  0  0  0  0  0  0
   47.6754   13.6516   13.6312 H   0  0  0  0  0  0  0  0  0  0  0  0
   49.2684    9.3762   11.6542 H   0  0  0  0  0  0  0  0  0  0  0  0
   49.7625   12.6159   14.4641 H   0  0  0  0  0  0  0  0  0  0  0  0
   45.3189   11.3962   10.0289 H   0  0  0  0  0  0  0  0  0  0  0  0
   46.4857   11.5151   11.0048 H   0  0  0  0  0  0  0  0  0  0  0  0
   45.3624   11.7210    9.9182 H   0  0  0  0  0  0  0  0  0  0  0  0
   46.3185   11.2141   10.9952 H   0  0  0  0  0  0  0  0  0  0  0  0
  2 18  1  0
  3  9  2  0
  4 21  1  0
  5 21  2  0
  6  8  1  0
  7  8  2  0
  7  9  1  0
  7 12  1  0
  8 10  1  0
  9 11  1  0
 10 13  2  0
 10 15  1  0
 11 16  2  0
 11 17  1  0
 12 14  2  0
 13 14  1  0
 15 21  1  0
 16 19  1  0
 17 20  2  0
 18 19  2  0
 18 20  1  0
 22 38  1  0
 23 29  2  0
 24 41  1  0
 25 41  2  0
 26 28  1  0
 27 28  2  0
 27 29  1  0
 27 32  1  0
 28 30  1  0
 29 31  1  0
 30 33  2  0
 30 35  1  0
 31 36  2  0
 31 37  1  0
 32 34  2  0
 33 34  1  0
 35 41  1  0
 36 39  1  0
 37 40  2  0
 38 39  2  0
 38 40  1  0
  1 46  1  0
  1 47  1  0
  6 48  1  0
  6 49  1  0
 12 50  1  0
 13 51  1  0
 14 52  1  0
 15 53  1  0
 15 54  1  0
 16 55  1  0
 17 56  1  0
 19 57  1  0
 20 58  1  0
 26 59  1  0
 26 60  1  0
 32 61  1  0
 33 62  1  0
 34 63  1  0
 35 64  1  0
 35 65  1  0
 36 66  1  0
 37 67  1  0
 39 68  1  0
 40 69  1  0
 44 70  1  0
 44 71  1  0
 45 72  1  0
 45 73  1  0
M  CHG  4   4  -1  24  -1  42   1  43   1
M  END
> <Uni-Dock RESULT> 
ENERGY=   -5.223  LOWER_BOUND=    9.196  UPPER_BOUND=   11.200
INTER + INTRA:          -5.223
INTER:                  -5.223
INTRA:                   0.000
UNBOUND:                 0.000

$$$$

     RDKit          3D

 73 70  0  0  0  0  0  0  0  0999 V2000
   50.4799    6.0922   19.8616 O   0  0  0  0  0  0  0  0  0  0  0  0
   48.6884   11.6528   21.2422 Br  0  0  0  0  0  0  0  0  0  0  0  0
   47.8570    4.8727   21.2846 O   0  0  0  0  0  0  0  0  0  0  0  0
   53.9831    6.0723   19.1207 O   0  0  0  0  0  0  0  0  0  0  0  0
   53.6602    5.7970   16.8677 O   0  0  0  0  0  0  0  0  0  0  0  0
   51.5417    5.6882   20.3746 N   0  0  0  0  0  0  0  0  0  0  0  0
   49.4359    4.7533   19.5734 C   0  0  0  0  0  0  0  0  0  0  0  0
   50.8354    4.8874   19.4589 C   0  0  0  0  0  0  0  0  0  0  0  0
   48.6329    5.5098   20.5659 C   0  0  0  0  0  0  0  0  0  0  0  0
   51.5105    4.0920   18.5054 C   0  0  0  0  0  0  0  0  0  0  0  0
   48.7012    6.9915   20.7008 C   0  0  0  0  0  0  0  0  0  0  0  0
   48.7199    3.8701   18.7497 C   0  0  0  0  0  0  0  0  0  0  0  0
   50.7676    3.2312   17.6709 C   0  0  0  0  0  0  0  0  0  0  0  0
   49.3829    3.1214   17.7864 C   0  0  0  0  0  0  0  0  0  0  0  0
   53.0179    4.0731   18.3631 C   0  0  0  0  0  0  0  0  0  0  0  0
   49.2821    7.8153   19.7304 C   0  0  0  0  0  0  0  0  0  0  0  0
   48.1073    7.5783   21.8302 C   0  0  0  0  0  0  0  0  0  0  0  0
   48.6773    9.7758   21.0138 C   0  0  0  0  0  0  0  0  0  0  0  0
   49.2642    9.2080   19.8852 C   0  0  0  0  0  0  0  0  0  0  0  0
   48.0952    8.9657   21.9868 C   0  0  0  0  0  0  0  0  0  0  0  0
   53.6097    5.4476   18.0793 C   0  0  0  0  0  0  0  0  0  0  0  0
   55.4904    3.1158   17.2345 Br  0  0  0  0  0  0  0  0  0  0  0  0
   51.0779    5.0834   22.0981 O   0  0  0  0  0  0  0  0  0  0  0  0
   46.2967    9.4731   20.6762 O   0  0  0  0  0  0  0  0  0  0  0  0
   48.5285   10.0132   20.7878 O   0  0  0  0  0  0  0  0  0  0  0  0
   50.2985    7.8561   20.3594 N   0  0  0  0  0  0  0  0  0  0  0  0
   49.6102    5.4963   20.3246 C   0  0  0  0  0  0  0  0  0  0  0  0
   49.3270    6.8565   20.1051 C   0  0  0  0  0  0  0  0  0  0  0  0
   50.9099    5.0766   20.8794 C   0  0  0  0  0  0  0  0  0  0  0  0
   48.1290    7.1802   19.4322 C   0  0  0  0  0  0  0  0  0  0  0  0
   51.9977    4.6235   19.9679 C   0  0  0  0  0  0  0  0  0  0  0  0
   48.6891    4.4876   20.0155 C   0  0  0  0  0  0  0  0  0  0  0  0
   47.2003    6.1654   19.1374 C   0  0  0  0  0  0  0  0  0  0  0  0
   47.4745    4.8282   19.4344 C   0  0  0  0  0  0  0  0  0  0  0  0
   47.7821    8.6061   19.0495 C   0  0  0  0  0  0  0  0  0  0  0  0
   51.9576    4.8436   18.5836 C   0  0  0  0  0  0  0  0  0  0  0  0
   53.0950    3.9523   20.5290 C   0  0  0  0  0  0  0  0  0  0  0  0
   54.0827    3.7079   18.3407 C   0  0  0  0  0  0  0  0  0  0  0  0
   53.0011    4.3828   17.7710 C   0  0  0  0  0  0  0  0  0  0  0  0
   54.1363    3.4893   19.7155 C   0  0  0  0  0  0  0  0  0  0  0  0
   47.5020    9.4487   20.2941 C   0  0  0  0  0  0  0  0  0  0  0  0
   50.2317    5.9378   19.5927 Na  0  0  0  0  0 15  0  0  0  0  0  0
   50.2317    5.9378   19.5927 Na  0  0  0  0  0 15  0  0  0  0  0  0
   50.3687    6.1720   19.8842 O   0  0  0  0  0  0  0  0  0  0  0  0
   50.5044    6.0680   19.8503 O   0  0  0  0  0  0  0  0  0  0  0  0
   49.5675    6.3564   19.6718 H   0  0  0  0  0  0  0  0  0  0  0  0
   50.6477    5.3647   19.2449 H   0  0  0  0  0  0  0  0  0  0  0  0
   51.5617    5.2857   21.3084 H   0  0  0  0  0  0  0  0  0  0  0  0
   52.5207    5.8861   20.0798 H   0  0  0  0  0  0  0  0  0  0  0  0
   47.6430    3.7753   18.8569 H   0  0  0  0  0  0  0  0  0  0  0  0
   51.2809    2.6341   16.9183 H   0  0  0  0  0  0  0  0  0  0  0  0
   48.8345    2.4434   17.1374 H   0  0  0  0  0  0  0  0  0  0  0  0
   53.4518    3.6622   19.2828 H   0  0  0  0  0  0  0  0  0  0  0  0
   53.3285    3.3968   17.5611 H   0  0  0  0  0  0  0  0  0  0  0  0
   49.7756    7.3987   18.8526 H   0  0  0  0  0  0  0  0  0  0  0  0
   47.6449    6.9534   22.5900 H   0  0  0  0  0  0  0  0  0  0  0  0
   49.7346    9.8292   19.1274 H   0  0  0  0  0  0  0  0  0  0  0  0
   47.6356    9.4019   22.8695 H   0  0  0  0  0  0  0  0  0  0  0  0
   49.8335    8.7778   20.5063 H   0  0  0  0  0  0  0  0  0  0  0  0
   50.8059    7.6500   21.2173 H   0  0  0  0  0  0  0  0  0  0  0  0
   48.9186    3.4482   20.2283 H   0  0  0  0  0  0  0  0  0  0  0  0
   46.2450    6.4265   18.6798 H   0  0  0  0  0  0  0  0  0  0  0  0
   46.7348    4.0664   19.2109 H   0  0  0  0  0  0  0  0  0  0  0  0
   46.9087    8.6315   18.3857 H   0  0  0  0  0  0  0  0  0  0  0  0
   48.6092    9.0316   18.4707 H   0  0  0  0  0  0  0  0  0  0  0  0
   51.1368    5.3892   18.1215 H   0  0  0  0  0  0  0  0  0  0  0  0
   53.1425    3.7916   21.6086 H   0  0  0  0  0  0  0  0  0  0  0  0
   52.9619    4.5674   16.7003 H   0  0  0  0  0  0  0  0  0  0  0  0
   54.9789    2.9715   20.1673 H   0  0  0  0  0  0  0  0  0  0  0  0
   49.4928    6.1841   19.4701 H   0  0  0  0  0  0  0  0  0  0  0  0
   50.8334    5.4571   19.4239 H   0  0  0  0  0  0  0  0  0  0  0  0
   49.6010    6.3933   19.7235 H   0  0  0  0  0  0  0  0  0  0  0  0
   50.5896    5.3520   19.2044 H   0  0  0  0  0  0  0  0  0  0  0  0
  2 18  1  0
  3  9  2  0
  4 21  1  0
  5 21  2  0
  6  8  1  0
  7  8  2  0
  7  9  1  0
  7 12  1  0
  8 10  1  0
  9 11  1  0
 10 13  2  0
 10 15  1  0
 11 16  2  0
 11 17  1  0
 12 14  2  0
 13 14  1  0
 15 21  1  0
 16 19  1  0
 17 20  2  0
 18 19  2  0
 18 20  1  0
 22 38  1  0
 23 29  2  0
 24 41  1  0
 25 41  2  0
 26 28  1  0
 27 28  2  0
 27 29  1  0
 27 32  1  0
 28 30  1  0
 29 31  1  0
 30 33  2  0
 30 35  1  0
 31 36  2  0
 31 37  1  0
 32 34  2  0
 33 34  1  0
 35 41  1  0
 36 39  1  0
 37 40  2  0
 38 39  2  0
 38 40  1  0
  1 46  1  0
  1 47  1  0
  6 48  1  0
  6 49  1  0
 12 50  1  0
 13 51  1  0
 14 52  1  0
 15 53  1  0
 15 54  1  0
 16 55  1  0
 17 56  1  0
 19 57  1  0
 20 58  1  0
 26 59  1  0
 26 60  1  0
 32 61  1  0
 33 62  1  0
 34 63  1  0
 35 64  1  0
 35 65  1  0
 36 66  1  0
 37 67  1  0
 39 68  1  0
 40 69  1  0
 44 70  1  0
 44 71  1  0
 45 72  1  0
 45 73  1  0
M  CHG  4   4  -1  24  -1  42   1  43   1
M  END
> <Uni-Dock RESULT> 
ENERGY=   -5.173  LOWER_BOUND=    2.192  UPPER_BOUND=    3.504
INTER + INTRA:          -5.173
INTER:                  -5.173
INTRA:                   0.000
UNBOUND:                 0.000

$$$$

     RDKit          3D

 73 70  0  0  0  0  0  0  0  0999 V2000
   49.6156    7.7603   14.8223 O   0  0  0  0  0  0  0  0  0  0  0  0
   54.0171   10.8057   12.1041 Br  0  0  0  0  0  0  0  0  0  0  0  0
   47.4402    9.1296   12.8770 O   0  0  0  0  0  0  0  0  0  0  0  0
   50.7161    6.5947   18.0242 O   0  0  0  0  0  0  0  0  0  0  0  0
   50.8820    4.4122   17.3424 O   0  0  0  0  0  0  0  0  0  0  0  0
   49.4095    8.0039   16.0273 N   0  0  0  0  0  0  0  0  0  0  0  0
   48.1453    7.2601   14.0784 C   0  0  0  0  0  0  0  0  0  0  0  0
   48.6766    7.0059   15.3600 C   0  0  0  0  0  0  0  0  0  0  0  0
   48.4097    8.5148   13.3313 C   0  0  0  0  0  0  0  0  0  0  0  0
   48.3322    5.7945   16.0016 C   0  0  0  0  0  0  0  0  0  0  0  0
   49.7835    9.0333   13.0821 C   0  0  0  0  0  0  0  0  0  0  0  0
   47.3117    6.3290   13.4385 C   0  0  0  0  0  0  0  0  0  0  0  0
   47.5147    4.8626   15.3290 C   0  0  0  0  0  0  0  0  0  0  0  0
   47.0099    5.1224   14.0560 C   0  0  0  0  0  0  0  0  0  0  0  0
   48.7560    5.4587   17.4160 C   0  0  0  0  0  0  0  0  0  0  0  0
   50.9319    8.2536   13.2587 C   0  0  0  0  0  0  0  0  0  0  0  0
   49.9149   10.3459   12.6001 C   0  0  0  0  0  0  0  0  0  0  0  0
   52.3103   10.0843   12.4804 C   0  0  0  0  0  0  0  0  0  0  0  0
   52.1945    8.7784   12.9517 C   0  0  0  0  0  0  0  0  0  0  0  0
   51.1738   10.8702   12.3002 C   0  0  0  0  0  0  0  0  0  0  0  0
   50.2667    5.4811   17.6096 C   0  0  0  0  0  0  0  0  0  0  0  0
   48.7878    3.8042   19.7751 Br  0  0  0  0  0  0  0  0  0  0  0  0
   48.3270    9.5461   16.0584 O   0  0  0  0  0  0  0  0  0  0  0  0
   51.4575    9.9885   10.2141 O   0  0  0  0  0  0  0  0  0  0  0  0
   52.5432    9.9516   12.2401 O   0  0  0  0  0  0  0  0  0  0  0  0
   51.1033    8.7335   14.3407 N   0  0  0  0  0  0  0  0  0  0  0  0
   48.7171    8.1544   14.2196 C   0  0  0  0  0  0  0  0  0  0  0  0
   49.9623    8.3475   13.5945 C   0  0  0  0  0  0  0  0  0  0  0  0
   48.5515    8.4029   15.6633 C   0  0  0  0  0  0  0  0  0  0  0  0
   50.0925    7.9474   12.2470 C   0  0  0  0  0  0  0  0  0  0  0  0
   48.6298    7.2703   16.6279 C   0  0  0  0  0  0  0  0  0  0  0  0
   47.5938    7.7072   13.5129 C   0  0  0  0  0  0  0  0  0  0  0  0
   48.9581    7.5131   11.5372 C   0  0  0  0  0  0  0  0  0  0  0  0
   47.7144    7.4013   12.1636 C   0  0  0  0  0  0  0  0  0  0  0  0
   51.4188    8.0106   11.5143 C   0  0  0  0  0  0  0  0  0  0  0  0
   49.1388    6.0136   16.2706 C   0  0  0  0  0  0  0  0  0  0  0  0
   48.1726    7.4833   17.9375 C   0  0  0  0  0  0  0  0  0  0  0  0
   48.7085    5.2014   18.5110 C   0  0  0  0  0  0  0  0  0  0  0  0
   49.1755    4.9791   17.2140 C   0  0  0  0  0  0  0  0  0  0  0  0
   48.2067    6.4477   18.8792 C   0  0  0  0  0  0  0  0  0  0  0  0
   51.8486    9.4614   11.2951 C   0  0  0  0  0  0  0  0  0  0  0  0
   49.4648    7.4943   14.5689 Na  0  0  0  0  0 15  0  0  0  0  0  0
   49.4648    7.4943   14.5689 Na  0  0  0  0  0 15  0  0  0  0  0  0
   49.6550    7.8178   14.7024 O   0  0  0  0  0  0  0  0  0  0  0  0
   49.6022    7.7399   14.8491 O   0  0  0  0  0  0  0  0  0  0  0  0
   49.6581    7.7683   13.8547 H   0  0  0  0  0  0  0  0  0  0  0  0
   49.1206    6.9543   15.0298 H   0  0  0  0  0  0  0  0  0  0  0  0
   48.8267    8.7843   16.3200 H   0  0  0  0  0  0  0  0  0  0  0  0
   49.9274    7.6492   16.8584 H   0  0  0  0  0  0  0  0  0  0  0  0
   46.9063    6.5451   12.4541 H   0  0  0  0  0  0  0  0  0  0  0  0
   47.2663    3.9173   15.8096 H   0  0  0  0  0  0  0  0  0  0  0  0
   46.3741    4.3915   13.5628 H   0  0  0  0  0  0  0  0  0  0  0  0
   48.2808    6.1698   18.1027 H   0  0  0  0  0  0  0  0  0  0  0  0
   48.3897    4.4711   17.7120 H   0  0  0  0  0  0  0  0  0  0  0  0
   50.8754    7.2399   13.6547 H   0  0  0  0  0  0  0  0  0  0  0  0
   49.0326   10.9628   12.4501 H   0  0  0  0  0  0  0  0  0  0  0  0
   53.0751    8.1614   13.1106 H   0  0  0  0  0  0  0  0  0  0  0  0
   51.2568   11.8895   11.9329 H   0  0  0  0  0  0  0  0  0  0  0  0
   51.8058    9.1818   13.7139 H   0  0  0  0  0  0  0  0  0  0  0  0
   50.8536    9.4312   15.0384 H   0  0  0  0  0  0  0  0  0  0  0  0
   46.6356    7.6009   14.0119 H   0  0  0  0  0  0  0  0  0  0  0  0
   49.0468    7.2702   10.4773 H   0  0  0  0  0  0  0  0  0  0  0  0
   46.8519    7.0787   11.5898 H   0  0  0  0  0  0  0  0  0  0  0  0
   51.3561    7.4968   10.5467 H   0  0  0  0  0  0  0  0  0  0  0  0
   52.1727    7.4657   12.0931 H   0  0  0  0  0  0  0  0  0  0  0  0
   49.5312    5.8255   15.2728 H   0  0  0  0  0  0  0  0  0  0  0  0
   47.7903    8.4643   18.2292 H   0  0  0  0  0  0  0  0  0  0  0  0
   49.5804    4.0119   16.9264 H   0  0  0  0  0  0  0  0  0  0  0  0
   47.8486    6.6306   19.8894 H   0  0  0  0  0  0  0  0  0  0  0  0
   49.5225    7.5392   13.7839 H   0  0  0  0  0  0  0  0  0  0  0  0
   49.2169    7.1260   15.2205 H   0  0  0  0  0  0  0  0  0  0  0  0
   49.6900    7.8232   13.8882 H   0  0  0  0  0  0  0  0  0  0  0  0
   49.1021    6.9198   14.9695 H   0  0  0  0  0  0  0  0  0  0  0  0
  2 18  1  0
  3  9  2  0
  4 21  1  0
  5 21  2  0
  6  8  1  0
  7  8  2  0
  7  9  1  0
  7 12  1  0
  8 10  1  0
  9 11  1  0
 10 13  2  0
 10 15  1  0
 11 16  2  0
 11 17  1  0
 12 14  2  0
 13 14  1  0
 15 21  1  0
 16 19  1  0
 17 20  2  0
 18 19  2  0
 18 20  1  0
 22 38  1  0
 23 29  2  0
 24 41  1  0
 25 41  2  0
 26 28  1  0
 27 28  2  0
 27 29  1  0
 27 32  1  0
 28 30  1  0
 29 31  1  0
 30 33  2  0
 30 35  1  0
 31 36  2  0
 31 37  1  0
 32 34  2  0
 33 34  1  0
 35 41  1  0
 36 39  1  0
 37 40  2  0
 38 39  2  0
 38 40  1  0
  1 46  1  0
  1 47  1  0
  6 48  1  0
  6 49  1  0
 12 50  1  0
 13 51  1  0
 14 52  1  0
 15 53  1  0
 15 54  1  0
 16 55  1  0
 17 56  1  0
 19 57  1  0
 20 58  1  0
 26 59  1  0
 26 60  1  0
 32 61  1  0
 33 62  1  0
 34 63  1  0
 35 64  1  0
 35 65  1  0
 36 66  1  0
 37 67  1  0
 39 68  1  0
 40 69  1  0
 44 70  1  0
 44 71  1  0
 45 72  1  0
 45 73  1  0
M  CHG  4   4  -1  24  -1  42   1  43   1
M  END
> <Uni-Dock RESULT> 
ENERGY=   -4.876  LOWER_BOUND=    4.811  UPPER_BOUND=    6.817
INTER + INTRA:          -4.876
INTER:                  -4.876
INTRA:                   0.000
UNBOUND:                 0.000

$$$$

     RDKit          3D

 73 70  0  0  0  0  0  0  0  0999 V2000
   52.9733    4.7183   18.0663 O   0  0  0  0  0  0  0  0  0  0  0  0
   53.5712   10.4584   16.4144 Br  0  0  0  0  0  0  0  0  0  0  0  0
   50.1162    5.3804   19.4043 O   0  0  0  0  0  0  0  0  0  0  0  0
   56.1618    3.0889   18.0440 O   0  0  0  0  0  0  0  0  0  0  0  0
   55.7030    1.8835   16.1487 O   0  0  0  0  0  0  0  0  0  0  0  0
   53.7990    4.2683   18.8846 N   0  0  0  0  0  0  0  0  0  0  0  0
   51.4769    3.8847   18.2438 C   0  0  0  0  0  0  0  0  0  0  0  0
   52.8114    3.4356   18.3282 C   0  0  0  0  0  0  0  0  0  0  0  0
   51.0642    5.2588   18.6226 C   0  0  0  0  0  0  0  0  0  0  0  0
   53.0923    2.0952   17.9788 C   0  0  0  0  0  0  0  0  0  0  0  0
   51.7185    6.4795   18.0750 C   0  0  0  0  0  0  0  0  0  0  0  0
   50.4498    3.0348   17.8036 C   0  0  0  0  0  0  0  0  0  0  0  0
   52.0491    1.2674   17.5143 C   0  0  0  0  0  0  0  0  0  0  0  0
   50.7378    1.7311   17.4222 C   0  0  0  0  0  0  0  0  0  0  0  0
   54.4643    1.4722   18.1279 C   0  0  0  0  0  0  0  0  0  0  0  0
   52.5558    6.4531   16.9542 C   0  0  0  0  0  0  0  0  0  0  0  0
   51.4335    7.7109   18.6874 C   0  0  0  0  0  0  0  0  0  0  0  0
   52.8100    8.8570   17.0712 C   0  0  0  0  0  0  0  0  0  0  0  0
   53.0963    7.6436   16.4496 C   0  0  0  0  0  0  0  0  0  0  0  0
   51.9772    8.8960   18.1878 C   0  0  0  0  0  0  0  0  0  0  0  0
   55.5465    2.2160   17.3560 C   0  0  0  0  0  0  0  0  0  0  0  0
   56.3258   -0.7246   18.0151 Br  0  0  0  0  0  0  0  0  0  0  0  0
   53.1741    4.7955   20.5825 O   0  0  0  0  0  0  0  0  0  0  0  0
   50.4978    9.3012   16.4975 O   0  0  0  0  0  0  0  0  0  0  0  0
   52.7625    8.9885   16.7395 O   0  0  0  0  0  0  0  0  0  0  0  0
   53.5194    6.4302   17.6624 N   0  0  0  0  0  0  0  0  0  0  0  0
   51.9497    4.7810   18.5898 C   0  0  0  0  0  0  0  0  0  0  0  0
   52.2250    5.8574   17.7271 C   0  0  0  0  0  0  0  0  0  0  0  0
   52.9884    4.2541   19.4935 C   0  0  0  0  0  0  0  0  0  0  0  0
   51.2386    6.2138   16.7822 C   0  0  0  0  0  0  0  0  0  0  0  0
   53.7849    3.0593   19.0966 C   0  0  0  0  0  0  0  0  0  0  0  0
   50.6967    4.1562   18.6197 C   0  0  0  0  0  0  0  0  0  0  0  0
   49.9765    5.5937   16.8260 C   0  0  0  0  0  0  0  0  0  0  0  0
   49.7040    4.5768   17.7443 C   0  0  0  0  0  0  0  0  0  0  0  0
   51.4777    7.2853   15.7359 C   0  0  0  0  0  0  0  0  0  0  0  0
   53.8029    2.5719   17.7819 C   0  0  0  0  0  0  0  0  0  0  0  0
   54.5382    2.4076   20.0852 C   0  0  0  0  0  0  0  0  0  0  0  0
   55.2956    0.7903   18.4621 C   0  0  0  0  0  0  0  0  0  0  0  0
   54.5580    1.4352   17.4670 C   0  0  0  0  0  0  0  0  0  0  0  0
   55.2904    1.2695   19.7701 C   0  0  0  0  0  0  0  0  0  0  0  0
   51.5849    8.6645   16.3870 C   0  0  0  0  0  0  0  0  0  0  0  0
   52.6779    4.5525   17.8589 Na  0  0  0  0  0 15  0  0  0  0  0  0
   52.6779    4.5525   17.8589 Na  0  0  0  0  0 15  0  0  0  0  0  0
   52.9036    4.8325   18.0301 O   0  0  0  0  0  0  0  0  0  0  0  0
   52.9860    4.6847   18.0718 O   0  0  0  0  0  0  0  0  0  0  0  0
   52.2368    5.1615   17.6200 H   0  0  0  0  0  0  0  0  0  0  0  0
   52.8237    3.7778   17.8905 H   0  0  0  0  0  0  0  0  0  0  0  0
   53.6796    4.3975   19.8863 H   0  0  0  0  0  0  0  0  0  0  0  0
   54.7689    3.9320   18.7088 H   0  0  0  0  0  0  0  0  0  0  0  0
   49.4267    3.3963   17.7515 H   0  0  0  0  0  0  0  0  0  0  0  0
   52.2650    0.2409   17.2209 H   0  0  0  0  0  0  0  0  0  0  0  0
   49.9501    1.0700   17.0699 H   0  0  0  0  0  0  0  0  0  0  0  0
   54.7209    1.4400   19.1937 H   0  0  0  0  0  0  0  0  0  0  0  0
   54.4617    0.4309   17.7921 H   0  0  0  0  0  0  0  0  0  0  0  0
   52.8223    5.5162   16.4658 H   0  0  0  0  0  0  0  0  0  0  0  0
   50.7790    7.7504   19.5544 H   0  0  0  0  0  0  0  0  0  0  0  0
   53.7567    7.5993   15.5874 H   0  0  0  0  0  0  0  0  0  0  0  0
   51.7497    9.8389   18.6774 H   0  0  0  0  0  0  0  0  0  0  0  0
   53.4623    7.4017   17.2877 H   0  0  0  0  0  0  0  0  0  0  0  0
   53.9232    6.5045   18.5937 H   0  0  0  0  0  0  0  0  0  0  0  0
   50.4994    3.3511   19.3205 H   0  0  0  0  0  0  0  0  0  0  0  0
   49.1930    5.9189   16.1401 H   0  0  0  0  0  0  0  0  0  0  0  0
   48.7175    4.1255   17.7677 H   0  0  0  0  0  0  0  0  0  0  0  0
   50.6709    7.2928   14.9923 H   0  0  0  0  0  0  0  0  0  0  0  0
   52.3919    7.0455   15.1819 H   0  0  0  0  0  0  0  0  0  0  0  0
   53.2557    3.0733   16.9856 H   0  0  0  0  0  0  0  0  0  0  0  0
   54.5434    2.7907   21.1083 H   0  0  0  0  0  0  0  0  0  0  0  0
   54.5700    1.0725   16.4422 H   0  0  0  0  0  0  0  0  0  0  0  0
   55.8684    0.7774   20.5486 H   0  0  0  0  0  0  0  0  0  0  0  0
   52.0950    4.9525   17.5098 H   0  0  0  0  0  0  0  0  0  0  0  0
   53.0351    3.8725   18.0369 H   0  0  0  0  0  0  0  0  0  0  0  0
   52.2834    5.2042   17.6541 H   0  0  0  0  0  0  0  0  0  0  0  0
   52.7644    3.7686   17.8509 H   0  0  0  0  0  0  0  0  0  0  0  0
  2 18  1  0
  3  9  2  0
  4 21  1  0
  5 21  2  0
  6  8  1  0
  7  8  2  0
  7  9  1  0
  7 12  1  0
  8 10  1  0
  9 11  1  0
 10 13  2  0
 10 15  1  0
 11 16  2  0
 11 17  1  0
 12 14  2  0
 13 14  1  0
 15 21  1  0
 16 19  1  0
 17 20  2  0
 18 19  2  0
 18 20  1  0
 22 38  1  0
 23 29  2  0
 24 41  1  0
 25 41  2  0
 26 28  1  0
 27 28  2  0
 27 29  1  0
 27 32  1  0
 28 30  1  0
 29 31  1  0
 30 33  2  0
 30 35  1  0
 31 36  2  0
 31 37  1  0
 32 34  2  0
 33 34  1  0
 35 41  1  0
 36 39  1  0
 37 40  2  0
 38 39  2  0
 38 40  1  0
  1 46  1  0
  1 47  1  0
  6 48  1  0
  6 49  1  0
 12 50  1  0
 13 51  1  0
 14 52  1  0
 15 53  1  0
 15 54  1  0
 16 55  1  0
 17 56  1  0
 19 57  1  0
 20 58  1  0
 26 59  1  0
 26 60  1  0
 32 61  1  0
 33 62  1  0
 34 63  1  0
 35 64  1  0
 35 65  1  0
 36 66  1  0
 37 67  1  0
 39 68  1  0
 40 69  1  0
 44 70  1  0
 44 71  1  0
 45 72  1  0
 45 73  1  0
M  CHG  4   4  -1  24  -1  42   1  43   1
M  END
> <Uni-Dock RESULT> 
ENERGY=   -4.831  LOWER_BOUND=    4.194  UPPER_BOUND=    5.897
INTER + INTRA:          -4.831
INTER:                  -4.831
INTRA:                   0.000
UNBOUND:                 0.000

$$$$

     RDKit          3D

 73 70  0  0  0  0  0  0  0  0999 V2000
   46.9060   11.0705   11.6354 O   0  0  0  0  0  0  0  0  0  0  0  0
   48.4775    6.5998   15.3203 Br  0  0  0  0  0  0  0  0  0  0  0  0
   49.7393   12.5187   12.1523 O   0  0  0  0  0  0  0  0  0  0  0  0
   43.3518   11.1221   11.2030 O   0  0  0  0  0  0  0  0  0  0  0  0
   43.4473   10.3018    9.0643 O   0  0  0  0  0  0  0  0  0  0  0  0
   45.9336   11.7746   11.9707 N   0  0  0  0  0  0  0  0  0  0  0  0
   47.9961   12.0103   10.6899 C   0  0  0  0  0  0  0  0  0  0  0  0
   46.5868   11.9884   10.7434 C   0  0  0  0  0  0  0  0  0  0  0  0
   48.8514   11.7103   11.8649 C   0  0  0  0  0  0  0  0  0  0  0  0
   45.8650   12.3271    9.5763 C   0  0  0  0  0  0  0  0  0  0  0  0
   48.7037   10.4705   12.6770 C   0  0  0  0  0  0  0  0  0  0  0  0
   48.6742   12.3379    9.5049 C   0  0  0  0  0  0  0  0  0  0  0  0
   46.5672   12.6271    8.3905 C   0  0  0  0  0  0  0  0  0  0  0  0
   47.9604   12.6296    8.3501 C   0  0  0  0  0  0  0  0  0  0  0  0
   44.3554   12.4391    9.5413 C   0  0  0  0  0  0  0  0  0  0  0  0
   47.9704    9.3614   12.2412 C   0  0  0  0  0  0  0  0  0  0  0  0
   49.3771   10.4051   13.9078 C   0  0  0  0  0  0  0  0  0  0  0  0
   48.5836    8.1519   14.2457 C   0  0  0  0  0  0  0  0  0  0  0  0
   47.9160    8.2003   13.0240 C   0  0  0  0  0  0  0  0  0  0  0  0
   49.3175    9.2500   14.6901 C   0  0  0  0  0  0  0  0  0  0  0  0
   43.6501   11.1584    9.9685 C   0  0  0  0  0  0  0  0  0  0  0  0
   41.8418   13.0319    8.2630 Br  0  0  0  0  0  0  0  0  0  0  0  0
   46.6178   13.0468   13.1809 O   0  0  0  0  0  0  0  0  0  0  0  0
   50.9284    8.0119   13.6500 O   0  0  0  0  0  0  0  0  0  0  0  0
   48.6917    7.8232   14.1466 O   0  0  0  0  0  0  0  0  0  0  0  0
   47.0270    9.7208   12.8827 N   0  0  0  0  0  0  0  0  0  0  0  0
   47.8567   11.7159   11.7100 C   0  0  0  0  0  0  0  0  0  0  0  0
   48.0273   10.3842   12.1296 C   0  0  0  0  0  0  0  0  0  0  0  0
   46.6537   12.4782   12.0906 C   0  0  0  0  0  0  0  0  0  0  0  0
   49.1228    9.6635   11.6068 C   0  0  0  0  0  0  0  0  0  0  0  0
   45.5052   12.5776   11.1469 C   0  0  0  0  0  0  0  0  0  0  0  0
   48.8016   12.3675   10.9076 C   0  0  0  0  0  0  0  0  0  0  0  0
   50.0772   10.3263   10.8136 C   0  0  0  0  0  0  0  0  0  0  0  0
   49.9224   11.6721   10.4726 C   0  0  0  0  0  0  0  0  0  0  0  0
   49.3349    8.1925   11.9086 C   0  0  0  0  0  0  0  0  0  0  0  0
   45.3819   11.7466   10.0242 C   0  0  0  0  0  0  0  0  0  0  0  0
   44.5197   13.5434   11.4028 C   0  0  0  0  0  0  0  0  0  0  0  0
   43.3199   12.8646    9.4221 C   0  0  0  0  0  0  0  0  0  0  0  0
   44.2885   11.8933    9.1613 C   0  0  0  0  0  0  0  0  0  0  0  0
   43.4286   13.6914   10.5380 C   0  0  0  0  0  0  0  0  0  0  0  0
   49.6930    7.9871   13.3807 C   0  0  0  0  0  0  0  0  0  0  0  0
   47.1332   11.0577   11.3099 Na  0  0  0  0  0 15  0  0  0  0  0  0
   47.1332   11.0577   11.3099 Na  0  0  0  0  0 15  0  0  0  0  0  0
   47.0136   10.9985   11.6851 O   0  0  0  0  0  0  0  0  0  0  0  0
   46.8820   11.0893   11.6158 O   0  0  0  0  0  0  0  0  0  0  0  0
   47.7739   10.6535   11.5304 H   0  0  0  0  0  0  0  0  0  0  0  0
   46.7196   11.4491   10.7638 H   0  0  0  0  0  0  0  0  0  0  0  0
   46.0399   12.5588   12.6095 H   0  0  0  0  0  0  0  0  0  0  0  0
   44.9178   11.5692   11.8669 H   0  0  0  0  0  0  0  0  0  0  0  0
   49.7602   12.3561    9.4845 H   0  0  0  0  0  0  0  0  0  0  0  0
   46.0150   12.8652    7.4823 H   0  0  0  0  0  0  0  0  0  0  0  0
   48.4779   12.8736    7.4258 H   0  0  0  0  0  0  0  0  0  0  0  0
   44.0501   13.2683   10.1912 H   0  0  0  0  0  0  0  0  0  0  0  0
   44.0040   12.7030    8.5394 H   0  0  0  0  0  0  0  0  0  0  0  0
   47.4129    9.3808   11.3051 H   0  0  0  0  0  0  0  0  0  0  0  0
   49.9575   11.2549   14.2579 H   0  0  0  0  0  0  0  0  0  0  0  0
   47.3281    7.3555   12.6745 H   0  0  0  0  0  0  0  0  0  0  0  0
   49.8407    9.2192   15.6419 H   0  0  0  0  0  0  0  0  0  0  0  0
   47.4455    8.9245   13.4101 H   0  0  0  0  0  0  0  0  0  0  0  0
   46.6292   10.3487   13.5779 H   0  0  0  0  0  0  0  0  0  0  0  0
   48.6631   13.4071   10.6276 H   0  0  0  0  0  0  0  0  0  0  0  0
   50.9591    9.7851   10.4679 H   0  0  0  0  0  0  0  0  0  0  0  0
   50.6808   12.1641    9.8725 H   0  0  0  0  0  0  0  0  0  0  0  0
   50.1283    7.7739   11.2766 H   0  0  0  0  0  0  0  0  0  0  0  0
   48.4248    7.6402   11.6498 H   0  0  0  0  0  0  0  0  0  0  0  0
   46.1117   10.9663    9.8155 H   0  0  0  0  0  0  0  0  0  0  0  0
   44.5991   14.1836   12.2846 H   0  0  0  0  0  0  0  0  0  0  0  0
   44.2004   11.2369    8.2991 H   0  0  0  0  0  0  0  0  0  0  0  0
   42.6743   14.4448   10.7519 H   0  0  0  0  0  0  0  0  0  0  0  0
   47.8373   10.7055   11.2674 H   0  0  0  0  0  0  0  0  0  0  0  0
   46.5486   11.4690   10.9771 H   0  0  0  0  0  0  0  0  0  0  0  0
   47.7439   10.6481   11.5954 H   0  0  0  0  0  0  0  0  0  0  0  0
   46.7736   11.4358   10.7184 H   0  0  0  0  0  0  0  0  0  0  0  0
  2 18  1  0
  3  9  2  0
  4 21  1  0
  5 21  2  0
  6  8  1  0
  7  8  2  0
  7  9  1  0
  7 12  1  0
  8 10  1  0
  9 11  1  0
 10 13  2  0
 10 15  1  0
 11 16  2  0
 11 17  1  0
 12 14  2  0
 13 14  1  0
 15 21  1  0
 16 19  1  0
 17 20  2  0
 18 19  2  0
 18 20  1  0
 22 38  1  0
 23 29  2  0
 24 41  1  0
 25 41  2  0
 26 28  1  0
 27 28  2  0
 27 29  1  0
 27 32  1  0
 28 30  1  0
 29 31  1  0
 30 33  2  0
 30 35  1  0
 31 36  2  0
 31 37  1  0
 32 34  2  0
 33 34  1  0
 35 41  1  0
 36 39  1  0
 37 40  2  0
 38 39  2  0
 38 40  1  0
  1 46  1  0
  1 47  1  0
  6 48  1  0
  6 49  1  0
 12 50  1  0
 13 51  1  0
 14 52  1  0
 15 53  1  0
 15 54  1  0
 16 55  1  0
 17 56  1  0
 19 57  1  0
 20 58  1  0
 26 59  1  0
 26 60  1  0
 32 61  1  0
 33 62  1  0
 34 63  1  0
 35 64  1  0
 35 65  1  0
 36 66  1  0
 37 67  1  0
 39 68  1  0
 40 69  1  0
 44 70  1  0
 44 71  1  0
 45 72  1  0
 45 73  1  0
M  CHG  4   4  -1  24  -1  42   1  43   1
M  END
> <Uni-Dock RESULT> 
ENERGY=   -4.825  LOWER_BOUND=    7.915  UPPER_BOUND=   10.663
INTER + INTRA:          -4.825
INTER:                  -4.825
INTRA:                   0.000
UNBOUND:                 0.000

$$$$

     RDKit          3D

 73 70  0  0  0  0  0  0  0  0999 V2000
   51.6260    4.4869   19.1222 O   0  0  0  0  0  0  0  0  0  0  0  0
   47.6327    5.4042   23.5095 Br  0  0  0  0  0  0  0  0  0  0  0  0
   49.4730    5.4648   16.9313 O   0  0  0  0  0  0  0  0  0  0  0  0
   54.2252    2.3006   20.2563 O   0  0  0  0  0  0  0  0  0  0  0  0
   55.7827    3.9769   20.3974 O   0  0  0  0  0  0  0  0  0  0  0  0
   52.0118    3.3167   18.9338 N   0  0  0  0  0  0  0  0  0  0  0  0
   51.6920    5.3588   17.6387 C   0  0  0  0  0  0  0  0  0  0  0  0
   52.5479    4.3798   18.1850 C   0  0  0  0  0  0  0  0  0  0  0  0
   50.2320    5.3896   17.9023 C   0  0  0  0  0  0  0  0  0  0  0  0
   53.9181    4.4178   17.8403 C   0  0  0  0  0  0  0  0  0  0  0  0
   49.6578    5.3697   19.2764 C   0  0  0  0  0  0  0  0  0  0  0  0
   52.1837    6.3634   16.7900 C   0  0  0  0  0  0  0  0  0  0  0  0
   54.3943    5.4515   17.0072 C   0  0  0  0  0  0  0  0  0  0  0  0
   53.5377    6.4206   16.4876 C   0  0  0  0  0  0  0  0  0  0  0  0
   54.9108    3.3623   18.2802 C   0  0  0  0  0  0  0  0  0  0  0  0
   50.4222    5.6201   20.4214 C   0  0  0  0  0  0  0  0  0  0  0  0
   48.2789    5.1397   19.4110 C   0  0  0  0  0  0  0  0  0  0  0  0
   48.4462    5.4094   21.8026 C   0  0  0  0  0  0  0  0  0  0  0  0
   49.8139    5.6456   21.6836 C   0  0  0  0  0  0  0  0  0  0  0  0
   47.6745    5.1592   20.6696 C   0  0  0  0  0  0  0  0  0  0  0  0
   54.9869    3.2059   19.7934 C   0  0  0  0  0  0  0  0  0  0  0  0
   57.5170    2.1342   18.3311 Br  0  0  0  0  0  0  0  0  0  0  0  0
   50.6880    2.5091   17.8631 O   0  0  0  0  0  0  0  0  0  0  0  0
   47.4062    7.4121   20.9194 O   0  0  0  0  0  0  0  0  0  0  0  0
   48.4422    5.6873   22.0314 O   0  0  0  0  0  0  0  0  0  0  0  0
   50.5417    4.4452   20.6105 N   0  0  0  0  0  0  0  0  0  0  0  0
   50.9852    4.8015   18.2187 C   0  0  0  0  0  0  0  0  0  0  0  0
   50.5073    5.2674   19.4570 C   0  0  0  0  0  0  0  0  0  0  0  0
   51.4849    3.4221   18.0740 C   0  0  0  0  0  0  0  0  0  0  0  0
   50.1869    6.6378   19.5665 C   0  0  0  0  0  0  0  0  0  0  0  0
   52.9468    3.1470   18.1568 C   0  0  0  0  0  0  0  0  0  0  0  0
   51.0235    5.6200   17.0830 C   0  0  0  0  0  0  0  0  0  0  0  0
   50.2125    7.4524   18.4197 C   0  0  0  0  0  0  0  0  0  0  0  0
   50.6203    6.9451   17.1836 C   0  0  0  0  0  0  0  0  0  0  0  0
   49.7685    7.2627   20.8835 C   0  0  0  0  0  0  0  0  0  0  0  0
   53.8610    4.0878   18.6519 C   0  0  0  0  0  0  0  0  0  0  0  0
   53.4110    1.8972   17.7184 C   0  0  0  0  0  0  0  0  0  0  0  0
   55.6771    2.5382   18.2453 C   0  0  0  0  0  0  0  0  0  0  0  0
   55.2271    3.7818   18.6935 C   0  0  0  0  0  0  0  0  0  0  0  0
   54.7772    1.5933   17.7574 C   0  0  0  0  0  0  0  0  0  0  0  0
   48.3997    6.7405   21.3208 C   0  0  0  0  0  0  0  0  0  0  0  0
   51.7315    4.8365   18.9662 Na  0  0  0  0  0 15  0  0  0  0  0  0
   51.7315    4.8365   18.9662 Na  0  0  0  0  0 15  0  0  0  0  0  0
   51.5166    4.5632   19.1604 O   0  0  0  0  0  0  0  0  0  0  0  0
   51.6570    4.4736   19.1090 O   0  0  0  0  0  0  0  0  0  0  0  0
   51.1394    5.3239   19.1521 H   0  0  0  0  0  0  0  0  0  0  0  0
   52.4290    4.6987   18.6242 H   0  0  0  0  0  0  0  0  0  0  0  0
   51.4792    2.6669   18.3606 H   0  0  0  0  0  0  0  0  0  0  0  0
   52.7317    2.7786   19.4600 H   0  0  0  0  0  0  0  0  0  0  0  0
   51.5082    7.1050   16.3733 H   0  0  0  0  0  0  0  0  0  0  0  0
   55.4536    5.4989   16.7584 H   0  0  0  0  0  0  0  0  0  0  0  0
   53.9282    7.2016   15.8401 H   0  0  0  0  0  0  0  0  0  0  0  0
   54.6336    2.4065   17.8193 H   0  0  0  0  0  0  0  0  0  0  0  0
   55.9153    3.5892   17.9107 H   0  0  0  0  0  0  0  0  0  0  0  0
   51.4989    5.7778   20.3627 H   0  0  0  0  0  0  0  0  0  0  0  0
   47.6689    4.9510   18.5313 H   0  0  0  0  0  0  0  0  0  0  0  0
   50.4284    5.8267   22.5617 H   0  0  0  0  0  0  0  0  0  0  0  0
   46.6072    4.9743   20.7551 H   0  0  0  0  0  0  0  0  0  0  0  0
   49.8415    4.7779   21.3079 H   0  0  0  0  0  0  0  0  0  0  0  0
   50.2817    3.4898   20.3751 H   0  0  0  0  0  0  0  0  0  0  0  0
   51.3634    5.2249   16.1308 H   0  0  0  0  0  0  0  0  0  0  0  0
   49.8981    8.4945   18.4927 H   0  0  0  0  0  0  0  0  0  0  0  0
   50.6163    7.5903   16.3113 H   0  0  0  0  0  0  0  0  0  0  0  0
   49.7352    8.3567   20.8043 H   0  0  0  0  0  0  0  0  0  0  0  0
   50.5285    7.0415   21.6409 H   0  0  0  0  0  0  0  0  0  0  0  0
   53.5297    5.0534   19.0297 H   0  0  0  0  0  0  0  0  0  0  0  0
   52.7036    1.1520   17.3471 H   0  0  0  0  0  0  0  0  0  0  0  0
   55.9244    4.5170   19.0875 H   0  0  0  0  0  0  0  0  0  0  0  0
   55.1191    0.6200   17.4140 H   0  0  0  0  0  0  0  0  0  0  0  0
   51.3033    5.4969   19.0138 H   0  0  0  0  0  0  0  0  0  0  0  0
   52.3743    4.4495   18.7242 H   0  0  0  0  0  0  0  0  0  0  0  0
   51.1083    5.2681   19.1848 H   0  0  0  0  0  0  0  0  0  0  0  0
   52.4291    4.7679   18.6046 H   0  0  0  0  0  0  0  0  0  0  0  0
  2 18  1  0
  3  9  2  0
  4 21  1  0
  5 21  2  0
  6  8  1  0
  7  8  2  0
  7  9  1  0
  7 12  1  0
  8 10  1  0
  9 11  1  0
 10 13  2  0
 10 15  1  0
 11 16  2  0
 11 17  1  0
 12 14  2  0
 13 14  1  0
 15 21  1  0
 16 19  1  0
 17 20  2  0
 18 19  2  0
 18 20  1  0
 22 38  1  0
 23 29  2  0
 24 41  1  0
 25 41  2  0
 26 28  1  0
 27 28  2  0
 27 29  1  0
 27 32  1  0
 28 30  1  0
 29 31  1  0
 30 33  2  0
 30 35  1  0
 31 36  2  0
 31 37  1  0
 32 34  2  0
 33 34  1  0
 35 41  1  0
 36 39  1  0
 37 40  2  0
 38 39  2  0
 38 40  1  0
  1 46  1  0
  1 47  1  0
  6 48  1  0
  6 49  1  0
 12 50  1  0
 13 51  1  0
 14 52  1  0
 15 53  1  0
 15 54  1  0
 16 55  1  0
 17 56  1  0
 19 57  1  0
 20 58  1  0
 26 59  1  0
 26 60  1  0
 32 61  1  0
 33 62  1  0
 34 63  1  0
 35 64  1  0
 35 65  1  0
 36 66  1  0
 37 67  1  0
 39 68  1  0
 40 69  1  0
 44 70  1  0
 44 71  1  0
 45 72  1  0
 45 73  1  0
M  CHG  4   4  -1  24  -1  42   1  43   1
M  END
> <Uni-Dock RESULT> 
ENERGY=   -4.723  LOWER_BOUND=    3.443  UPPER_BOUND=    5.834
INTER + INTRA:          -4.723
INTER:                  -4.723
INTRA:                   0.000
UNBOUND:                 0.000

$$$$
