
     RDKit          3D

 73 70  0  0  0  0  0  0  0  0999 V2000
   48.7280    9.6042   19.8808 O   0  0  0  0  0  0  0  0  0  0  0  0
   48.5606   14.7861   15.4847 Br  0  0  0  0  0  0  0  0  0  0  0  0
   46.0670   10.3081   19.9839 O   0  0  0  0  0  0  0  0  0  0  0  0
   46.8529    5.4497   21.4395 O   0  0  0  0  0  0  0  0  0  0  0  0
   48.4001    4.9932   23.0648 O   0  0  0  0  0  0  0  0  0  0  0  0
   47.0235    7.5438   19.7495 N   0  0  0  0  0  0  0  0  0  0  0  0
   48.2981    9.5830   20.2607 C   0  0  0  0  0  0  0  0  0  0  0  0
   48.1255    8.1878   20.3718 C   0  0  0  0  0  0  0  0  0  0  0  0
   47.2425   10.4284   19.6455 C   0  0  0  0  0  0  0  0  0  0  0  0
   49.1770    7.4215   20.9235 C   0  0  0  0  0  0  0  0  0  0  0  0
   47.5961   11.4630   18.6374 C   0  0  0  0  0  0  0  0  0  0  0  0
   49.4310   10.2176   20.7905 C   0  0  0  0  0  0  0  0  0  0  0  0
   50.3126    8.0757   21.4406 C   0  0  0  0  0  0  0  0  0  0  0  0
   50.4354    9.4618   21.3838 C   0  0  0  0  0  0  0  0  0  0  0  0
   49.1239    5.9058   21.0008 C   0  0  0  0  0  0  0  0  0  0  0  0
   48.6478   11.2837   17.7338 C   0  0  0  0  0  0  0  0  0  0  0  0
   46.8217   12.6320   18.5844 C   0  0  0  0  0  0  0  0  0  0  0  0
   48.1722   13.4441   16.7601 C   0  0  0  0  0  0  0  0  0  0  0  0
   48.9392   12.2788   16.7958 C   0  0  0  0  0  0  0  0  0  0  0  0
   47.1124   13.6257   17.6485 C   0  0  0  0  0  0  0  0  0  0  0  0
   48.0196    5.4016   21.9312 C   0  0  0  0  0  0  0  0  0  0  0  0
   51.4480   14.6862   16.9448 Br  0  0  0  0  0  0  0  0  0  0  0  0
   46.3629   11.3647   20.0612 O   0  0  0  0  0  0  0  0  0  0  0  0
   48.8373    4.3181   21.6161 O   0  0  0  0  0  0  0  0  0  0  0  0
   49.8419    6.0990   22.6475 O   0  0  0  0  0  0  0  0  0  0  0  0
   47.1011    9.2225   21.9227 N   0  0  0  0  0  0  0  0  0  0  0  0
   47.5456    9.3911   19.5073 C   0  0  0  0  0  0  0  0  0  0  0  0
   47.4818    8.6373   20.7007 C   0  0  0  0  0  0  0  0  0  0  0  0
   47.3504   10.8654   19.5273 C   0  0  0  0  0  0  0  0  0  0  0  0
   47.7194    7.2465   20.6300 C   0  0  0  0  0  0  0  0  0  0  0  0
   48.3598   11.7604   18.9011 C   0  0  0  0  0  0  0  0  0  0  0  0
   47.8498    8.7844   18.2750 C   0  0  0  0  0  0  0  0  0  0  0  0
   48.0197    6.6579   19.3825 C   0  0  0  0  0  0  0  0  0  0  0  0
   48.0939    7.4176   18.2170 C   0  0  0  0  0  0  0  0  0  0  0  0
   47.6173    6.3292   21.8340 C   0  0  0  0  0  0  0  0  0  0  0  0
   49.7248   11.4342   18.8862 C   0  0  0  0  0  0  0  0  0  0  0  0
   47.9261   12.9737   18.3519 C   0  0  0  0  0  0  0  0  0  0  0  0
   50.2019   13.5061   17.7397 C   0  0  0  0  0  0  0  0  0  0  0  0
   50.6458   12.3086   18.3018 C   0  0  0  0  0  0  0  0  0  0  0  0
   48.8474   13.8423   17.7623 C   0  0  0  0  0  0  0  0  0  0  0  0
   48.8937    5.5108   22.0475 C   0  0  0  0  0  0  0  0  0  0  0  0
   48.3961    9.5629   19.6651 Na  0  0  0  0  0 15  0  0  0  0  0  0
   48.3961    9.5629   19.6651 Na  0  0  0  0  0 15  0  0  0  0  0  0
   48.7021    9.5135   19.9141 O   0  0  0  0  0  0  0  0  0  0  0  0
   48.7111    9.5380   19.9066 O   0  0  0  0  0  0  0  0  0  0  0  0
   48.1140    8.8546   19.8676 H   0  0  0  0  0  0  0  0  0  0  0  0
   48.3463   10.2298   19.2467 H   0  0  0  0  0  0  0  0  0  0  0  0
   46.1946    8.1379   19.8126 H   0  0  0  0  0  0  0  0  0  0  0  0
   46.8050    6.6637   20.2656 H   0  0  0  0  0  0  0  0  0  0  0  0
   49.5231   11.2974   20.7603 H   0  0  0  0  0  0  0  0  0  0  0  0
   51.1037    7.4890   21.9044 H   0  0  0  0  0  0  0  0  0  0  0  0
   51.3056    9.9460   21.8096 H   0  0  0  0  0  0  0  0  0  0  0  0
   50.0882    5.5079   21.3435 H   0  0  0  0  0  0  0  0  0  0  0  0
   48.9820    5.4934   19.9969 H   0  0  0  0  0  0  0  0  0  0  0  0
   49.2291   10.3628   17.7262 H   0  0  0  0  0  0  0  0  0  0  0  0
   45.9860   12.7624   19.2707 H   0  0  0  0  0  0  0  0  0  0  0  0
   49.7541   12.1241   16.0937 H   0  0  0  0  0  0  0  0  0  0  0  0
   46.5048   14.5257   17.6191 H   0  0  0  0  0  0  0  0  0  0  0  0
   47.6540    8.8731   22.6970 H   0  0  0  0  0  0  0  0  0  0  0  0
   46.9699   10.2328   21.8929 H   0  0  0  0  0  0  0  0  0  0  0  0
   47.9019    9.3712   17.3617 H   0  0  0  0  0  0  0  0  0  0  0  0
   48.2044    5.5836   19.3254 H   0  0  0  0  0  0  0  0  0  0  0  0
   48.3500    6.9335   17.2763 H   0  0  0  0  0  0  0  0  0  0  0  0
   46.7581    5.6580   21.6877 H   0  0  0  0  0  0  0  0  0  0  0  0
   47.4174    6.8695   22.7662 H   0  0  0  0  0  0  0  0  0  0  0  0
   50.0844   10.5116   19.3391 H   0  0  0  0  0  0  0  0  0  0  0  0
   46.8700   13.2359   18.3858 H   0  0  0  0  0  0  0  0  0  0  0  0
   51.7032   12.0473   18.2986 H   0  0  0  0  0  0  0  0  0  0  0  0
   48.4979   14.7764   17.3298 H   0  0  0  0  0  0  0  0  0  0  0  0
   47.9718    8.9016   19.7381 H   0  0  0  0  0  0  0  0  0  0  0  0
   48.5144   10.2735   19.3429 H   0  0  0  0  0  0  0  0  0  0  0  0
   48.4694   10.2663   19.3146 H   0  0  0  0  0  0  0  0  0  0  0  0
   48.0079    8.8843   19.7740 H   0  0  0  0  0  0  0  0  0  0  0  0
  2 18  1  0
  3  9  2  0
  4 21  1  0
  5 21  2  0
  6  8  1  0
  7  8  2  0
  7  9  1  0
  7 12  1  0
  8 10  1  0
  9 11  1  0
 10 13  2  0
 10 15  1  0
 11 16  2  0
 11 17  1  0
 12 14  2  0
 13 14  1  0
 15 21  1  0
 16 19  1  0
 17 20  2  0
 18 19  2  0
 18 20  1  0
 22 38  1  0
 23 29  2  0
 24 41  1  0
 25 41  2  0
 26 28  1  0
 27 28  2  0
 27 29  1  0
 27 32  1  0
 28 30  1  0
 29 31  1  0
 30 33  2  0
 30 35  1  0
 31 36  2  0
 31 37  1  0
 32 34  2  0
 33 34  1  0
 35 41  1  0
 36 39  1  0
 37 40  2  0
 38 39  2  0
 38 40  1  0
  1 46  1  0
  1 47  1  0
  6 48  1  0
  6 49  1  0
 12 50  1  0
 13 51  1  0
 14 52  1  0
 15 53  1  0
 15 54  1  0
 16 55  1  0
 17 56  1  0
 19 57  1  0
 20 58  1  0
 26 59  1  0
 26 60  1  0
 32 61  1  0
 33 62  1  0
 34 63  1  0
 35 64  1  0
 35 65  1  0
 36 66  1  0
 37 67  1  0
 39 68  1  0
 40 69  1  0
 44 70  1  0
 44 71  1  0
 45 72  1  0
 45 73  1  0
M  CHG  4   4  -1  24  -1  42   1  43   1
M  END
> <Uni-Dock RESULT> 
ENERGY=   -5.638  LOWER_BOUND=    0.000  UPPER_BOUND=    0.000
INTER + INTRA:          -5.638
INTER:                  -5.638
INTRA:                   0.000
UNBOUND:                 0.000

$$$$

     RDKit          3D

 73 70  0  0  0  0  0  0  0  0999 V2000
   47.1470    7.3918   13.5324 O   0  0  0  0  0  0  0  0  0  0  0  0
   51.9385    9.1181   18.0343 Br  0  0  0  0  0  0  0  0  0  0  0  0
   49.3984    6.3322   12.3510 O   0  0  0  0  0  0  0  0  0  0  0  0
   45.0988    4.0166   10.7722 O   0  0  0  0  0  0  0  0  0  0  0  0
   43.3691    5.2780    9.9595 O   0  0  0  0  0  0  0  0  0  0  0  0
   46.8562    4.8914   12.6207 N   0  0  0  0  0  0  0  0  0  0  0  0
   47.3317    7.2731   13.0019 C   0  0  0  0  0  0  0  0  0  0  0  0
   46.4334    6.2468   12.6435 C   0  0  0  0  0  0  0  0  0  0  0  0
   48.7765    6.9816   13.1890 C   0  0  0  0  0  0  0  0  0  0  0  0
   45.0620    6.5652   12.5212 C   0  0  0  0  0  0  0  0  0  0  0  0
   49.5047    7.5049   14.3755 C   0  0  0  0  0  0  0  0  0  0  0  0
   46.9029    8.6033   13.1192 C   0  0  0  0  0  0  0  0  0  0  0  0
   44.6482    7.9054   12.6535 C   0  0  0  0  0  0  0  0  0  0  0  0
   45.5608    8.9176   12.9404 C   0  0  0  0  0  0  0  0  0  0  0  0
   44.0064    5.5130   12.2300 C   0  0  0  0  0  0  0  0  0  0  0  0
   48.8833    7.6452   15.6200 C   0  0  0  0  0  0  0  0  0  0  0  0
   50.8618    7.8321   14.2319 C   0  0  0  0  0  0  0  0  0  0  0  0
   50.9543    8.4681   16.5553 C   0  0  0  0  0  0  0  0  0  0  0  0
   49.6089    8.1322   16.7114 C   0  0  0  0  0  0  0  0  0  0  0  0
   51.5863    8.3186   15.3209 C   0  0  0  0  0  0  0  0  0  0  0  0
   44.1728    4.8780   10.8485 C   0  0  0  0  0  0  0  0  0  0  0  0
   49.6044   11.3609   18.0103 Br  0  0  0  0  0  0  0  0  0  0  0  0
   49.9312    7.2730   12.5528 O   0  0  0  0  0  0  0  0  0  0  0  0
   42.9321    4.4879   11.3488 O   0  0  0  0  0  0  0  0  0  0  0  0
   43.2853    6.7386   11.1152 O   0  0  0  0  0  0  0  0  0  0  0  0
   47.4936    6.9768   10.9499 N   0  0  0  0  0  0  0  0  0  0  0  0
   47.8713    6.3874   13.3099 C   0  0  0  0  0  0  0  0  0  0  0  0
   47.1059    6.3065   12.1250 C   0  0  0  0  0  0  0  0  0  0  0  0
   49.0411    7.3017   13.3991 C   0  0  0  0  0  0  0  0  0  0  0  0
   45.9787    5.4551   12.1106 C   0  0  0  0  0  0  0  0  0  0  0  0
   49.1448    8.2736   14.5202 C   0  0  0  0  0  0  0  0  0  0  0  0
   47.5218    5.6523   14.4574 C   0  0  0  0  0  0  0  0  0  0  0  0
   45.6480    4.7241   13.2722 C   0  0  0  0  0  0  0  0  0  0  0  0
   46.4044    4.8266   14.4377 C   0  0  0  0  0  0  0  0  0  0  0  0
   45.1206    5.2421   10.8778 C   0  0  0  0  0  0  0  0  0  0  0  0
   48.0059    8.8566   15.0970 C   0  0  0  0  0  0  0  0  0  0  0  0
   50.4197    8.6353   14.9735 C   0  0  0  0  0  0  0  0  0  0  0  0
   49.4180   10.1177   16.5972 C   0  0  0  0  0  0  0  0  0  0  0  0
   48.1445    9.7783   16.1391 C   0  0  0  0  0  0  0  0  0  0  0  0
   50.5552    9.5510   16.0194 C   0  0  0  0  0  0  0  0  0  0  0  0
   43.6398    5.5227   11.1483 C   0  0  0  0  0  0  0  0  0  0  0  0
   47.3889    7.0781   13.5706 Na  0  0  0  0  0 15  0  0  0  0  0  0
   47.3889    7.0781   13.5706 Na  0  0  0  0  0 15  0  0  0  0  0  0
   47.0924    7.3267   13.4794 O   0  0  0  0  0  0  0  0  0  0  0  0
   47.1055    7.3461   13.4933 O   0  0  0  0  0  0  0  0  0  0  0  0
   47.0292    6.4997   13.1727 H   0  0  0  0  0  0  0  0  0  0  0  0
   47.9906    7.3426   14.0068 H   0  0  0  0  0  0  0  0  0  0  0  0
   47.8158    4.8338   12.2745 H   0  0  0  0  0  0  0  0  0  0  0  0
   46.2602    4.3579   11.9506 H   0  0  0  0  0  0  0  0  0  0  0  0
   47.6129    9.3952   13.3288 H   0  0  0  0  0  0  0  0  0  0  0  0
   43.5979    8.1576   12.5169 H   0  0  0  0  0  0  0  0  0  0  0  0
   45.2248    9.9446   13.0134 H   0  0  0  0  0  0  0  0  0  0  0  0
   43.0021    5.9509   12.3025 H   0  0  0  0  0  0  0  0  0  0  0  0
   44.0399    4.7382   13.0024 H   0  0  0  0  0  0  0  0  0  0  0  0
   47.8448    7.3505   15.7641 H   0  0  0  0  0  0  0  0  0  0  0  0
   51.3543    7.6995   13.2695 H   0  0  0  0  0  0  0  0  0  0  0  0
   49.1166    8.2291   17.6754 H   0  0  0  0  0  0  0  0  0  0  0  0
   52.6361    8.5682   15.1952 H   0  0  0  0  0  0  0  0  0  0  0  0
   46.6991    7.3761   10.4635 H   0  0  0  0  0  0  0  0  0  0  0  0
   48.3035    7.5873   11.0507 H   0  0  0  0  0  0  0  0  0  0  0  0
   48.1125    5.7232   15.3670 H   0  0  0  0  0  0  0  0  0  0  0  0
   44.7772    4.0662   13.2638 H   0  0  0  0  0  0  0  0  0  0  0  0
   46.1068    4.2652   15.3216 H   0  0  0  0  0  0  0  0  0  0  0  0
   45.2525    4.2043   10.5374 H   0  0  0  0  0  0  0  0  0  0  0  0
   45.4224    5.8726   10.0338 H   0  0  0  0  0  0  0  0  0  0  0  0
   47.0084    8.6135   14.7344 H   0  0  0  0  0  0  0  0  0  0  0  0
   51.3028    8.2000   14.5086 H   0  0  0  0  0  0  0  0  0  0  0  0
   47.2542   10.2272   16.5774 H   0  0  0  0  0  0  0  0  0  0  0  0
   51.5493    9.8163   16.3701 H   0  0  0  0  0  0  0  0  0  0  0  0
   47.1871    6.3953   13.2305 H   0  0  0  0  0  0  0  0  0  0  0  0
   47.8871    7.5121   14.0020 H   0  0  0  0  0  0  0  0  0  0  0  0
   47.9186    7.4689   14.0062 H   0  0  0  0  0  0  0  0  0  0  0  0
   47.1426    6.4192   13.2124 H   0  0  0  0  0  0  0  0  0  0  0  0
  2 18  1  0
  3  9  2  0
  4 21  1  0
  5 21  2  0
  6  8  1  0
  7  8  2  0
  7  9  1  0
  7 12  1  0
  8 10  1  0
  9 11  1  0
 10 13  2  0
 10 15  1  0
 11 16  2  0
 11 17  1  0
 12 14  2  0
 13 14  1  0
 15 21  1  0
 16 19  1  0
 17 20  2  0
 18 19  2  0
 18 20  1  0
 22 38  1  0
 23 29  2  0
 24 41  1  0
 25 41  2  0
 26 28  1  0
 27 28  2  0
 27 29  1  0
 27 32  1  0
 28 30  1  0
 29 31  1  0
 30 33  2  0
 30 35  1  0
 31 36  2  0
 31 37  1  0
 32 34  2  0
 33 34  1  0
 35 41  1  0
 36 39  1  0
 37 40  2  0
 38 39  2  0
 38 40  1  0
  1 46  1  0
  1 47  1  0
  6 48  1  0
  6 49  1  0
 12 50  1  0
 13 51  1  0
 14 52  1  0
 15 53  1  0
 15 54  1  0
 16 55  1  0
 17 56  1  0
 19 57  1  0
 20 58  1  0
 26 59  1  0
 26 60  1  0
 32 61  1  0
 33 62  1  0
 34 63  1  0
 35 64  1  0
 35 65  1  0
 36 66  1  0
 37 67  1  0
 39 68  1  0
 40 69  1  0
 44 70  1  0
 44 71  1  0
 45 72  1  0
 45 73  1  0
M  CHG  4   4  -1  24  -1  42   1  43   1
M  END
> <Uni-Dock RESULT> 
ENERGY=   -5.514  LOWER_BOUND=    6.471  UPPER_BOUND=    8.249
INTER + INTRA:          -5.514
INTER:                  -5.514
INTRA:                   0.000
UNBOUND:                 0.000

$$$$

     RDKit          3D

 73 70  0  0  0  0  0  0  0  0999 V2000
   48.9477   10.3347   19.4505 O   0  0  0  0  0  0  0  0  0  0  0  0
   47.4747    5.2762   23.7457 Br  0  0  0  0  0  0  0  0  0  0  0  0
   47.1634    8.8638   17.9538 O   0  0  0  0  0  0  0  0  0  0  0  0
   47.4218   13.7551   16.4211 O   0  0  0  0  0  0  0  0  0  0  0  0
   49.4591   14.6811   15.9357 O   0  0  0  0  0  0  0  0  0  0  0  0
   47.0595   11.7839   18.2249 N   0  0  0  0  0  0  0  0  0  0  0  0
   48.8438   10.2313   18.8954 C   0  0  0  0  0  0  0  0  0  0  0  0
   48.4312   11.5113   18.4712 C   0  0  0  0  0  0  0  0  0  0  0  0
   47.8834    9.0979   18.9221 C   0  0  0  0  0  0  0  0  0  0  0  0
   49.3700   12.5670   18.5063 C   0  0  0  0  0  0  0  0  0  0  0  0
   47.8050    8.2025   20.1070 C   0  0  0  0  0  0  0  0  0  0  0  0
   50.1810    9.9755   19.2320 C   0  0  0  0  0  0  0  0  0  0  0  0
   50.7065   12.2931   18.8579 C   0  0  0  0  0  0  0  0  0  0  0  0
   51.1117   11.0076   19.2084 C   0  0  0  0  0  0  0  0  0  0  0  0
   48.9977   13.9974   18.1575 C   0  0  0  0  0  0  0  0  0  0  0  0
   48.0170    8.6763   21.4052 C   0  0  0  0  0  0  0  0  0  0  0  0
   47.4766    6.8539   19.9009 C   0  0  0  0  0  0  0  0  0  0  0  0
   47.6103    6.4584   22.2751 C   0  0  0  0  0  0  0  0  0  0  0  0
   47.9237    7.8010   22.4914 C   0  0  0  0  0  0  0  0  0  0  0  0
   47.3837    5.9797   20.9848 C   0  0  0  0  0  0  0  0  0  0  0  0
   48.5914   14.1598   16.6920 C   0  0  0  0  0  0  0  0  0  0  0  0
   50.5202    6.2633   24.2250 Br  0  0  0  0  0  0  0  0  0  0  0  0
   47.6983    7.9468   18.2412 O   0  0  0  0  0  0  0  0  0  0  0  0
   48.7531   15.4343   17.2318 O   0  0  0  0  0  0  0  0  0  0  0  0
   50.5801   14.0545   17.2872 O   0  0  0  0  0  0  0  0  0  0  0  0
   48.8421   10.2400   16.8158 N   0  0  0  0  0  0  0  0  0  0  0  0
   47.7719   10.1762   19.0318 C   0  0  0  0  0  0  0  0  0  0  0  0
   48.2517   10.8939   17.9133 C   0  0  0  0  0  0  0  0  0  0  0  0
   48.0035    8.7120   19.1527 C   0  0  0  0  0  0  0  0  0  0  0  0
   48.0426   12.2904   17.8715 C   0  0  0  0  0  0  0  0  0  0  0  0
   48.6179    8.1530   20.3865 C   0  0  0  0  0  0  0  0  0  0  0  0
   47.1118   10.8274   20.0898 C   0  0  0  0  0  0  0  0  0  0  0  0
   47.3750   12.9230   18.9425 C   0  0  0  0  0  0  0  0  0  0  0  0
   46.9213   12.2031   20.0456 C   0  0  0  0  0  0  0  0  0  0  0  0
   48.4589   13.1528   16.6948 C   0  0  0  0  0  0  0  0  0  0  0  0
   49.5647    8.8748   21.1297 C   0  0  0  0  0  0  0  0  0  0  0  0
   48.2615    6.8572   20.7809 C   0  0  0  0  0  0  0  0  0  0  0  0
   49.7560    7.0254   22.6718 C   0  0  0  0  0  0  0  0  0  0  0  0
   50.1319    8.3095   22.2756 C   0  0  0  0  0  0  0  0  0  0  0  0
   48.8244    6.2974   21.9301 C   0  0  0  0  0  0  0  0  0  0  0  0
   49.3527   14.3207   17.1211 C   0  0  0  0  0  0  0  0  0  0  0  0
   48.5557   10.2709   19.4248 Na  0  0  0  0  0 15  0  0  0  0  0  0
   48.5557   10.2709   19.4248 Na  0  0  0  0  0 15  0  0  0  0  0  0
   48.9253   10.4139   19.3936 O   0  0  0  0  0  0  0  0  0  0  0  0
   48.9337   10.3931   19.4090 O   0  0  0  0  0  0  0  0  0  0  0  0
   48.2861   10.8643   18.9805 H   0  0  0  0  0  0  0  0  0  0  0  0
   48.4331    9.6136   19.8434 H   0  0  0  0  0  0  0  0  0  0  0  0
   46.6158   10.9689   17.7973 H   0  0  0  0  0  0  0  0  0  0  0  0
   46.9837   12.5652   17.5374 H   0  0  0  0  0  0  0  0  0  0  0  0
   50.5024    8.9732   19.4918 H   0  0  0  0  0  0  0  0  0  0  0  0
   51.4397   13.0978   18.8436 H   0  0  0  0  0  0  0  0  0  0  0  0
   52.1494   10.8144   19.4513 H   0  0  0  0  0  0  0  0  0  0  0  0
   49.8369   14.6723   18.3718 H   0  0  0  0  0  0  0  0  0  0  0  0
   48.1843   14.3324   18.8088 H   0  0  0  0  0  0  0  0  0  0  0  0
   48.2242    9.7293   21.5904 H   0  0  0  0  0  0  0  0  0  0  0  0
   47.2862    6.4885   18.8926 H   0  0  0  0  0  0  0  0  0  0  0  0
   48.0828    8.1831   23.4962 H   0  0  0  0  0  0  0  0  0  0  0  0
   47.1290    4.9381   20.8104 H   0  0  0  0  0  0  0  0  0  0  0  0
   49.6398   10.7515   16.4562 H   0  0  0  0  0  0  0  0  0  0  0  0
   48.9766    9.2367   16.9349 H   0  0  0  0  0  0  0  0  0  0  0  0
   46.7496   10.2696   20.9494 H   0  0  0  0  0  0  0  0  0  0  0  0
   47.2129   14.0020   18.9129 H   0  0  0  0  0  0  0  0  0  0  0  0
   46.4303   12.7274   20.8636 H   0  0  0  0  0  0  0  0  0  0  0  0
   47.5507   13.5318   16.2031 H   0  0  0  0  0  0  0  0  0  0  0  0
   49.0015   12.5917   15.9256 H   0  0  0  0  0  0  0  0  0  0  0  0
   49.8795    9.8697   20.8188 H   0  0  0  0  0  0  0  0  0  0  0  0
   47.5449    6.2896   20.1896 H   0  0  0  0  0  0  0  0  0  0  0  0
   50.8681    8.8770   22.8432 H   0  0  0  0  0  0  0  0  0  0  0  0
   48.5324    5.2949   22.2326 H   0  0  0  0  0  0  0  0  0  0  0  0
   48.1121   10.7747   19.0101 H   0  0  0  0  0  0  0  0  0  0  0  0
   48.6295    9.6240   19.8707 H   0  0  0  0  0  0  0  0  0  0  0  0
   48.5766    9.6169   19.8662 H   0  0  0  0  0  0  0  0  0  0  0  0
   48.1567   10.8026   18.9992 H   0  0  0  0  0  0  0  0  0  0  0  0
  2 18  1  0
  3  9  2  0
  4 21  1  0
  5 21  2  0
  6  8  1  0
  7  8  2  0
  7  9  1  0
  7 12  1  0
  8 10  1  0
  9 11  1  0
 10 13  2  0
 10 15  1  0
 11 16  2  0
 11 17  1  0
 12 14  2  0
 13 14  1  0
 15 21  1  0
 16 19  1  0
 17 20  2  0
 18 19  2  0
 18 20  1  0
 22 38  1  0
 23 29  2  0
 24 41  1  0
 25 41  2  0
 26 28  1  0
 27 28  2  0
 27 29  1  0
 27 32  1  0
 28 30  1  0
 29 31  1  0
 30 33  2  0
 30 35  1  0
 31 36  2  0
 31 37  1  0
 32 34  2  0
 33 34  1  0
 35 41  1  0
 36 39  1  0
 37 40  2  0
 38 39  2  0
 38 40  1  0
  1 46  1  0
  1 47  1  0
  6 48  1  0
  6 49  1  0
 12 50  1  0
 13 51  1  0
 14 52  1  0
 15 53  1  0
 15 54  1  0
 16 55  1  0
 17 56  1  0
 19 57  1  0
 20 58  1  0
 26 59  1  0
 26 60  1  0
 32 61  1  0
 33 62  1  0
 34 63  1  0
 35 64  1  0
 35 65  1  0
 36 66  1  0
 37 67  1  0
 39 68  1  0
 40 69  1  0
 44 70  1  0
 44 71  1  0
 45 72  1  0
 45 73  1  0
M  CHG  4   4  -1  24  -1  42   1  43   1
M  END
> <Uni-Dock RESULT> 
ENERGY=   -5.400  LOWER_BOUND=    3.260  UPPER_BOUND=    6.538
INTER + INTRA:          -5.400
INTER:                  -5.400
INTRA:                   0.000
UNBOUND:                 0.000

$$$$

     RDKit          3D

 73 70  0  0  0  0  0  0  0  0999 V2000
   48.4946    8.5210   12.8420 O   0  0  0  0  0  0  0  0  0  0  0  0
   44.2826    3.2438   12.0572 Br  0  0  0  0  0  0  0  0  0  0  0  0
   49.5674    6.7108   14.6195 O   0  0  0  0  0  0  0  0  0  0  0  0
   53.0007   10.2059   13.0908 O   0  0  0  0  0  0  0  0  0  0  0  0
   52.4976   12.4335   13.2603 O   0  0  0  0  0  0  0  0  0  0  0  0
   51.1574    8.2747   12.7124 N   0  0  0  0  0  0  0  0  0  0  0  0
   48.7926    8.5340   13.3325 C   0  0  0  0  0  0  0  0  0  0  0  0
   50.0064    9.0897   12.8783 C   0  0  0  0  0  0  0  0  0  0  0  0
   48.7381    7.1296   13.8147 C   0  0  0  0  0  0  0  0  0  0  0  0
   49.9978   10.4150   12.3876 C   0  0  0  0  0  0  0  0  0  0  0  0
   47.6545    6.2174   13.3615 C   0  0  0  0  0  0  0  0  0  0  0  0
   47.6256    9.3078   13.4109 C   0  0  0  0  0  0  0  0  0  0  0  0
   48.8131   11.1736   12.4641 C   0  0  0  0  0  0  0  0  0  0  0  0
   47.6395   10.6291   12.9797 C   0  0  0  0  0  0  0  0  0  0  0  0
   51.2324   11.0691   11.7925 C   0  0  0  0  0  0  0  0  0  0  0  0
   47.1096    6.3000   12.0766 C   0  0  0  0  0  0  0  0  0  0  0  0
   47.2003    5.2311   14.2504 C   0  0  0  0  0  0  0  0  0  0  0  0
   45.6438    4.4468   12.5849 C   0  0  0  0  0  0  0  0  0  0  0  0
   46.0987    5.4153   11.6890 C   0  0  0  0  0  0  0  0  0  0  0  0
   46.1909    4.3480   13.8641 C   0  0  0  0  0  0  0  0  0  0  0  0
   52.3510   11.2589   12.8182 C   0  0  0  0  0  0  0  0  0  0  0  0
   42.6716    6.0085   11.5676 Br  0  0  0  0  0  0  0  0  0  0  0  0
   48.5553    6.4992   14.9946 O   0  0  0  0  0  0  0  0  0  0  0  0
   52.6929   11.9829   11.6777 O   0  0  0  0  0  0  0  0  0  0  0  0
   50.7227   12.5456   12.7008 O   0  0  0  0  0  0  0  0  0  0  0  0
   49.8903    9.1099   15.0023 N   0  0  0  0  0  0  0  0  0  0  0  0
   49.3663    7.6488   13.0917 C   0  0  0  0  0  0  0  0  0  0  0  0
   50.0602    8.7436   13.6541 C   0  0  0  0  0  0  0  0  0  0  0  0
   48.3209    6.9305   13.8683 C   0  0  0  0  0  0  0  0  0  0  0  0
   51.0113    9.4176   12.8559 C   0  0  0  0  0  0  0  0  0  0  0  0
   46.9662    6.7295   13.2880 C   0  0  0  0  0  0  0  0  0  0  0  0
   49.5994    7.2387   11.7663 C   0  0  0  0  0  0  0  0  0  0  0  0
   51.2317    8.9872   11.5296 C   0  0  0  0  0  0  0  0  0  0  0  0
   50.5281    7.9152   10.9847 C   0  0  0  0  0  0  0  0  0  0  0  0
   51.8583   10.5651   13.3728 C   0  0  0  0  0  0  0  0  0  0  0  0
   46.3903    7.6696   12.4195 C   0  0  0  0  0  0  0  0  0  0  0  0
   46.2446    5.5878   13.6588 C   0  0  0  0  0  0  0  0  0  0  0  0
   44.4044    6.3030   12.2660 C   0  0  0  0  0  0  0  0  0  0  0  0
   45.1080    7.4531   11.9065 C   0  0  0  0  0  0  0  0  0  0  0  0
   44.9664    5.3704   13.1392 C   0  0  0  0  0  0  0  0  0  0  0  0
   51.7369   11.8144   12.4959 C   0  0  0  0  0  0  0  0  0  0  0  0
   48.7192    8.1925   12.8398 Na  0  0  0  0  0 15  0  0  0  0  0  0
   48.7192    8.1925   12.8398 Na  0  0  0  0  0 15  0  0  0  0  0  0
   48.5839    8.5663   12.8390 O   0  0  0  0  0  0  0  0  0  0  0  0
   48.5586    8.5562   12.8398 O   0  0  0  0  0  0  0  0  0  0  0  0
   49.4614    8.4588   12.8168 H   0  0  0  0  0  0  0  0  0  0  0  0
   48.2017    7.5975   12.8606 H   0  0  0  0  0  0  0  0  0  0  0  0
   51.1968    7.5756   13.4564 H   0  0  0  0  0  0  0  0  0  0  0  0
   52.0121    8.8658   12.8069 H   0  0  0  0  0  0  0  0  0  0  0  0
   46.7142    8.8912   13.8246 H   0  0  0  0  0  0  0  0  0  0  0  0
   48.8170   12.2084   12.1258 H   0  0  0  0  0  0  0  0  0  0  0  0
   46.7466   11.2378   13.0522 H   0  0  0  0  0  0  0  0  0  0  0  0
   50.9753   12.0453   11.3605 H   0  0  0  0  0  0  0  0  0  0  0  0
   51.5954   10.4684   10.9526 H   0  0  0  0  0  0  0  0  0  0  0  0
   47.4825    7.0260   11.3555 H   0  0  0  0  0  0  0  0  0  0  0  0
   47.6411    5.1488   15.2429 H   0  0  0  0  0  0  0  0  0  0  0  0
   45.6889    5.4846   10.6849 H   0  0  0  0  0  0  0  0  0  0  0  0
   45.8488    3.5897   14.5627 H   0  0  0  0  0  0  0  0  0  0  0  0
   49.8674   10.1164   15.1199 H   0  0  0  0  0  0  0  0  0  0  0  0
   49.1702    8.5894   15.5016 H   0  0  0  0  0  0  0  0  0  0  0  0
   49.0585    6.3987   11.3386 H   0  0  0  0  0  0  0  0  0  0  0  0
   51.9655    9.5067   10.9107 H   0  0  0  0  0  0  0  0  0  0  0  0
   50.7080    7.6251    9.9511 H   0  0  0  0  0  0  0  0  0  0  0  0
   52.9062   10.2326   13.4139 H   0  0  0  0  0  0  0  0  0  0  0  0
   51.5993   10.8594   14.3961 H   0  0  0  0  0  0  0  0  0  0  0  0
   46.9226    8.5797   12.1477 H   0  0  0  0  0  0  0  0  0  0  0  0
   46.6835    4.8717   14.3515 H   0  0  0  0  0  0  0  0  0  0  0  0
   44.6691    8.1906   11.2359 H   0  0  0  0  0  0  0  0  0  0  0  0
   44.4198    4.4754   13.4257 H   0  0  0  0  0  0  0  0  0  0  0  0
   49.5046    8.2656   12.8179 H   0  0  0  0  0  0  0  0  0  0  0  0
   48.0693    7.7454   12.8624 H   0  0  0  0  0  0  0  0  0  0  0  0
   48.1010    7.7022   12.8621 H   0  0  0  0  0  0  0  0  0  0  0  0
   49.4980    8.3189   12.8174 H   0  0  0  0  0  0  0  0  0  0  0  0
  2 18  1  0
  3  9  2  0
  4 21  1  0
  5 21  2  0
  6  8  1  0
  7  8  2  0
  7  9  1  0
  7 12  1  0
  8 10  1  0
  9 11  1  0
 10 13  2  0
 10 15  1  0
 11 16  2  0
 11 17  1  0
 12 14  2  0
 13 14  1  0
 15 21  1  0
 16 19  1  0
 17 20  2  0
 18 19  2  0
 18 20  1  0
 22 38  1  0
 23 29  2  0
 24 41  1  0
 25 41  2  0
 26 28  1  0
 27 28  2  0
 27 29  1  0
 27 32  1  0
 28 30  1  0
 29 31  1  0
 30 33  2  0
 30 35  1  0
 31 36  2  0
 31 37  1  0
 32 34  2  0
 33 34  1  0
 35 41  1  0
 36 39  1  0
 37 40  2  0
 38 39  2  0
 38 40  1  0
  1 46  1  0
  1 47  1  0
  6 48  1  0
  6 49  1  0
 12 50  1  0
 13 51  1  0
 14 52  1  0
 15 53  1  0
 15 54  1  0
 16 55  1  0
 17 56  1  0
 19 57  1  0
 20 58  1  0
 26 59  1  0
 26 60  1  0
 32 61  1  0
 33 62  1  0
 34 63  1  0
 35 64  1  0
 35 65  1  0
 36 66  1  0
 37 67  1  0
 39 68  1  0
 40 69  1  0
 44 70  1  0
 44 71  1  0
 45 72  1  0
 45 73  1  0
M  CHG  4   4  -1  24  -1  42   1  43   1
M  END
> <Uni-Dock RESULT> 
ENERGY=   -5.350  LOWER_BOUND=    6.853  UPPER_BOUND=    9.211
INTER + INTRA:          -5.350
INTER:                  -5.350
INTRA:                   0.000
UNBOUND:                 0.000

$$$$

     RDKit          3D

 73 70  0  0  0  0  0  0  0  0999 V2000
   48.8957    7.1947   17.4777 O   0  0  0  0  0  0  0  0  0  0  0  0
   51.1188    9.0075   11.3152 Br  0  0  0  0  0  0  0  0  0  0  0  0
   48.1430    5.0131   15.9738 O   0  0  0  0  0  0  0  0  0  0  0  0
   48.6192    3.8724   20.9550 O   0  0  0  0  0  0  0  0  0  0  0  0
   47.5162    5.1359   22.5141 O   0  0  0  0  0  0  0  0  0  0  0  0
   49.4745    4.8254   18.5821 N   0  0  0  0  0  0  0  0  0  0  0  0
   48.4856    6.7930   17.4888 C   0  0  0  0  0  0  0  0  0  0  0  0
   48.8444    6.0956   18.6608 C   0  0  0  0  0  0  0  0  0  0  0  0
   48.5952    6.1411   16.1582 C   0  0  0  0  0  0  0  0  0  0  0  0
   48.7652    6.7736   19.8983 C   0  0  0  0  0  0  0  0  0  0  0  0
   49.2194    6.8590   15.0150 C   0  0  0  0  0  0  0  0  0  0  0  0
   47.9492    8.0872   17.5511 C   0  0  0  0  0  0  0  0  0  0  0  0
   48.2340    8.0779   19.9399 C   0  0  0  0  0  0  0  0  0  0  0  0
   47.8205    8.7262   18.7788 C   0  0  0  0  0  0  0  0  0  0  0  0
   49.2159    6.1397   21.2025 C   0  0  0  0  0  0  0  0  0  0  0  0
   50.2795    7.7525   15.1950 C   0  0  0  0  0  0  0  0  0  0  0  0
   48.7398    6.5960   13.7228 C   0  0  0  0  0  0  0  0  0  0  0  0
   50.3499    8.1409   12.8106 C   0  0  0  0  0  0  0  0  0  0  0  0
   50.8431    8.3984   14.0905 C   0  0  0  0  0  0  0  0  0  0  0  0
   49.3018    7.2407   12.6199 C   0  0  0  0  0  0  0  0  0  0  0  0
   48.3619    4.9337   21.5974 C   0  0  0  0  0  0  0  0  0  0  0  0
   50.2508   11.6436   12.9816 Br  0  0  0  0  0  0  0  0  0  0  0  0
   47.7477    5.6949   15.2065 O   0  0  0  0  0  0  0  0  0  0  0  0
   49.1585    5.2667   22.6912 O   0  0  0  0  0  0  0  0  0  0  0  0
   47.7376    6.8897   21.9216 O   0  0  0  0  0  0  0  0  0  0  0  0
   46.8912    5.5628   18.0079 N   0  0  0  0  0  0  0  0  0  0  0  0
   49.1326    6.0188   17.0980 C   0  0  0  0  0  0  0  0  0  0  0  0
   48.2838    5.6782   18.1750 C   0  0  0  0  0  0  0  0  0  0  0  0
   48.5682    6.4085   15.7783 C   0  0  0  0  0  0  0  0  0  0  0  0
   48.8724    5.3594   19.4190 C   0  0  0  0  0  0  0  0  0  0  0  0
   48.9897    7.6804   15.1326 C   0  0  0  0  0  0  0  0  0  0  0  0
   50.5305    6.0552   17.2524 C   0  0  0  0  0  0  0  0  0  0  0  0
   50.2774    5.3991   19.5508 C   0  0  0  0  0  0  0  0  0  0  0  0
   51.1000    5.7517   18.4830 C   0  0  0  0  0  0  0  0  0  0  0  0
   48.0652    4.9203   20.6261 C   0  0  0  0  0  0  0  0  0  0  0  0
   49.3284    8.8131   15.8888 C   0  0  0  0  0  0  0  0  0  0  0  0
   49.0057    7.7448   13.7335 C   0  0  0  0  0  0  0  0  0  0  0  0
   49.7367   10.0446   13.8512 C   0  0  0  0  0  0  0  0  0  0  0  0
   49.7048    9.9959   15.2454 C   0  0  0  0  0  0  0  0  0  0  0  0
   49.3889    8.9254   13.0932 C   0  0  0  0  0  0  0  0  0  0  0  0
   48.3513    5.7831   21.8583 C   0  0  0  0  0  0  0  0  0  0  0  0
   49.0582    6.8708   17.3130 Na  0  0  0  0  0 15  0  0  0  0  0  0
   49.0582    6.8708   17.3130 Na  0  0  0  0  0 15  0  0  0  0  0  0
   48.8926    7.1359   17.5588 O   0  0  0  0  0  0  0  0  0  0  0  0
   48.8924    7.1536   17.5381 O   0  0  0  0  0  0  0  0  0  0  0  0
   49.0752    6.3386   17.8949 H   0  0  0  0  0  0  0  0  0  0  0  0
   49.2037    7.0792   16.5662 H   0  0  0  0  0  0  0  0  0  0  0  0
   49.0803    4.2909   17.8057 H   0  0  0  0  0  0  0  0  0  0  0  0
   49.2717    4.2880   19.4532 H   0  0  0  0  0  0  0  0  0  0  0  0
   47.6136    8.5891   16.6507 H   0  0  0  0  0  0  0  0  0  0  0  0
   48.1329    8.5846   20.8982 H   0  0  0  0  0  0  0  0  0  0  0  0
   47.3921    9.7193   18.8366 H   0  0  0  0  0  0  0  0  0  0  0  0
   49.1873    6.8781   22.0147 H   0  0  0  0  0  0  0  0  0  0  0  0
   50.2658    5.8415   21.1203 H   0  0  0  0  0  0  0  0  0  0  0  0
   50.6986    7.9328   16.1840 H   0  0  0  0  0  0  0  0  0  0  0  0
   47.9309    5.8811   13.5779 H   0  0  0  0  0  0  0  0  0  0  0  0
   51.6719    9.0846   14.2427 H   0  0  0  0  0  0  0  0  0  0  0  0
   48.9202    7.0277   11.6253 H   0  0  0  0  0  0  0  0  0  0  0  0
   46.3834    5.9439   18.7980 H   0  0  0  0  0  0  0  0  0  0  0  0
   46.5450    5.8319   17.0878 H   0  0  0  0  0  0  0  0  0  0  0  0
   51.1771    6.3228   16.4208 H   0  0  0  0  0  0  0  0  0  0  0  0
   50.7345    5.1538   20.5111 H   0  0  0  0  0  0  0  0  0  0  0  0
   52.1781    5.7935   18.6272 H   0  0  0  0  0  0  0  0  0  0  0  0
   48.3023    3.8673   20.8386 H   0  0  0  0  0  0  0  0  0  0  0  0
   46.9839    4.9521   20.4506 H   0  0  0  0  0  0  0  0  0  0  0  0
   49.2884    8.7919   16.9767 H   0  0  0  0  0  0  0  0  0  0  0  0
   48.7194    6.8723   13.1486 H   0  0  0  0  0  0  0  0  0  0  0  0
   49.9626   10.8700   15.8417 H   0  0  0  0  0  0  0  0  0  0  0  0
   49.4078    8.9606   12.0069 H   0  0  0  0  0  0  0  0  0  0  0  0
   49.1565    6.2246   17.7549 H   0  0  0  0  0  0  0  0  0  0  0  0
   49.1255    7.2519   16.6253 H   0  0  0  0  0  0  0  0  0  0  0  0
   49.1472    7.2075   16.6046 H   0  0  0  0  0  0  0  0  0  0  0  0
   49.1349    6.2515   17.7962 H   0  0  0  0  0  0  0  0  0  0  0  0
  2 18  1  0
  3  9  2  0
  4 21  1  0
  5 21  2  0
  6  8  1  0
  7  8  2  0
  7  9  1  0
  7 12  1  0
  8 10  1  0
  9 11  1  0
 10 13  2  0
 10 15  1  0
 11 16  2  0
 11 17  1  0
 12 14  2  0
 13 14  1  0
 15 21  1  0
 16 19  1  0
 17 20  2  0
 18 19  2  0
 18 20  1  0
 22 38  1  0
 23 29  2  0
 24 41  1  0
 25 41  2  0
 26 28  1  0
 27 28  2  0
 27 29  1  0
 27 32  1  0
 28 30  1  0
 29 31  1  0
 30 33  2  0
 30 35  1  0
 31 36  2  0
 31 37  1  0
 32 34  2  0
 33 34  1  0
 35 41  1  0
 36 39  1  0
 37 40  2  0
 38 39  2  0
 38 40  1  0
  1 46  1  0
  1 47  1  0
  6 48  1  0
  6 49  1  0
 12 50  1  0
 13 51  1  0
 14 52  1  0
 15 53  1  0
 15 54  1  0
 16 55  1  0
 17 56  1  0
 19 57  1  0
 20 58  1  0
 26 59  1  0
 26 60  1  0
 32 61  1  0
 33 62  1  0
 34 63  1  0
 35 64  1  0
 35 65  1  0
 36 66  1  0
 37 67  1  0
 39 68  1  0
 40 69  1  0
 44 70  1  0
 44 71  1  0
 45 72  1  0
 45 73  1  0
M  CHG  4   4  -1  24  -1  42   1  43   1
M  END
> <Uni-Dock RESULT> 
ENERGY=   -5.195  LOWER_BOUND=    3.378  UPPER_BOUND=    4.652
INTER + INTRA:          -5.195
INTER:                  -5.195
INTRA:                   0.000
UNBOUND:                 0.000

$$$$

     RDKit          3D

 73 70  0  0  0  0  0  0  0  0999 V2000
   43.6561   12.6601    9.4309 O   0  0  0  0  0  0  0  0  0  0  0  0
   49.8151   12.9614    6.5705 Br  0  0  0  0  0  0  0  0  0  0  0  0
   43.3596   10.8983    7.3343 O   0  0  0  0  0  0  0  0  0  0  0  0
   40.0143    9.9980   11.1211 O   0  0  0  0  0  0  0  0  0  0  0  0
   38.7090   11.7079   11.9059 O   0  0  0  0  0  0  0  0  0  0  0  0
   42.4762   10.3454   10.0775 N   0  0  0  0  0  0  0  0  0  0  0  0
   43.2320   12.4684    9.0947 C   0  0  0  0  0  0  0  0  0  0  0  0
   42.4567   11.7648   10.0395 C   0  0  0  0  0  0  0  0  0  0  0  0
   43.9429   11.7433    8.0101 C   0  0  0  0  0  0  0  0  0  0  0  0
   41.8365   12.4947   11.0786 C   0  0  0  0  0  0  0  0  0  0  0  0
   45.3627   12.0562    7.6973 C   0  0  0  0  0  0  0  0  0  0  0  0
   43.2943   13.8694    9.1075 C   0  0  0  0  0  0  0  0  0  0  0  0
   41.9194   13.9011   11.0813 C   0  0  0  0  0  0  0  0  0  0  0  0
   42.6336   14.5839   10.0998 C   0  0  0  0  0  0  0  0  0  0  0  0
   41.0587   11.8189   12.1942 C   0  0  0  0  0  0  0  0  0  0  0  0
   46.2711   12.4344    8.6906 C   0  0  0  0  0  0  0  0  0  0  0  0
   45.7937   11.9324    6.3676 C   0  0  0  0  0  0  0  0  0  0  0  0
   48.0153   12.5976    7.0256 C   0  0  0  0  0  0  0  0  0  0  0  0
   47.5995   12.7100    8.3530 C   0  0  0  0  0  0  0  0  0  0  0  0
   47.1196   12.2078    6.0301 C   0  0  0  0  0  0  0  0  0  0  0  0
   39.8008   11.1100   11.6897 C   0  0  0  0  0  0  0  0  0  0  0  0
   49.0855   15.8236    7.8952 Br  0  0  0  0  0  0  0  0  0  0  0  0
   43.8403   11.6301    6.6686 O   0  0  0  0  0  0  0  0  0  0  0  0
   39.7361   11.1514   13.0811 O   0  0  0  0  0  0  0  0  0  0  0  0
   39.8691   13.1645   11.9972 O   0  0  0  0  0  0  0  0  0  0  0  0
   41.3900   12.0555    8.2222 N   0  0  0  0  0  0  0  0  0  0  0  0
   43.6436   11.4704    9.0215 C   0  0  0  0  0  0  0  0  0  0  0  0
   42.2514   11.5887    9.2324 C   0  0  0  0  0  0  0  0  0  0  0  0
   44.2685   11.9715    7.7683 C   0  0  0  0  0  0  0  0  0  0  0  0
   41.7174   11.1367   10.4597 C   0  0  0  0  0  0  0  0  0  0  0  0
   45.4252   12.9043    7.8324 C   0  0  0  0  0  0  0  0  0  0  0  0
   44.4887   10.9290   10.0073 C   0  0  0  0  0  0  0  0  0  0  0  0
   42.5833   10.5938   11.4336 C   0  0  0  0  0  0  0  0  0  0  0  0
   43.9561   10.4981   11.2162 C   0  0  0  0  0  0  0  0  0  0  0  0
   40.2329   11.1571   10.7717 C   0  0  0  0  0  0  0  0  0  0  0  0
   45.5605   13.8392    8.8704 C   0  0  0  0  0  0  0  0  0  0  0  0
   46.3735   12.8626    6.8025 C   0  0  0  0  0  0  0  0  0  0  0  0
   47.6040   14.6481    7.8680 C   0  0  0  0  0  0  0  0  0  0  0  0
   46.6539   14.7103    8.8880 C   0  0  0  0  0  0  0  0  0  0  0  0
   47.4686   13.7292    6.8262 C   0  0  0  0  0  0  0  0  0  0  0  0
   39.9258   11.9012   12.0742 C   0  0  0  0  0  0  0  0  0  0  0  0
   43.7569   12.2877    9.3327 Na  0  0  0  0  0 15  0  0  0  0  0  0
   43.7569   12.2877    9.3327 Na  0  0  0  0  0 15  0  0  0  0  0  0
   43.5802   12.6135    9.4766 O   0  0  0  0  0  0  0  0  0  0  0  0
   43.5999   12.6283    9.4650 O   0  0  0  0  0  0  0  0  0  0  0  0
   43.1982   11.8373    9.6600 H   0  0  0  0  0  0  0  0  0  0  0  0
   44.4166   12.3658    8.9072 H   0  0  0  0  0  0  0  0  0  0  0  0
   42.5303    9.9743    9.1271 H   0  0  0  0  0  0  0  0  0  0  0  0
   41.5798   10.0014   10.4862 H   0  0  0  0  0  0  0  0  0  0  0  0
   43.8379   14.4043    8.3369 H   0  0  0  0  0  0  0  0  0  0  0  0
   41.4059   14.4663   11.8573 H   0  0  0  0  0  0  0  0  0  0  0  0
   42.6637   15.6666   10.1068 H   0  0  0  0  0  0  0  0  0  0  0  0
   40.7718   12.5539   12.9578 H   0  0  0  0  0  0  0  0  0  0  0  0
   41.7071   11.1042   12.7107 H   0  0  0  0  0  0  0  0  0  0  0  0
   45.9684   12.4884    9.7353 H   0  0  0  0  0  0  0  0  0  0  0  0
   45.0937   11.6134    5.5965 H   0  0  0  0  0  0  0  0  0  0  0  0
   48.2978   12.9952    9.1354 H   0  0  0  0  0  0  0  0  0  0  0  0
   47.4393   12.1082    4.9966 H   0  0  0  0  0  0  0  0  0  0  0  0
   40.6702   12.6658    8.5921 H   0  0  0  0  0  0  0  0  0  0  0  0
   41.8563   12.3827    7.3770 H   0  0  0  0  0  0  0  0  0  0  0  0
   45.5594   10.8455    9.8401 H   0  0  0  0  0  0  0  0  0  0  0  0
   42.1732   10.2446   12.3829 H   0  0  0  0  0  0  0  0  0  0  0  0
   44.5964   10.0946   11.9986 H   0  0  0  0  0  0  0  0  0  0  0  0
   39.8771   10.1182   10.8370 H   0  0  0  0  0  0  0  0  0  0  0  0
   39.6372   11.6264    9.9806 H   0  0  0  0  0  0  0  0  0  0  0  0
   44.8150   13.9093    9.6608 H   0  0  0  0  0  0  0  0  0  0  0  0
   46.2540   12.1530    5.9855 H   0  0  0  0  0  0  0  0  0  0  0  0
   46.7476   15.4342    9.6963 H   0  0  0  0  0  0  0  0  0  0  0  0
   48.2040   13.6807    6.0270 H   0  0  0  0  0  0  0  0  0  0  0  0
   43.3033   11.6907    9.5785 H   0  0  0  0  0  0  0  0  0  0  0  0
   44.3873   12.5589    8.9431 H   0  0  0  0  0  0  0  0  0  0  0  0
   44.3994   12.5082    8.9307 H   0  0  0  0  0  0  0  0  0  0  0  0
   43.2715   11.7268    9.6024 H   0  0  0  0  0  0  0  0  0  0  0  0
  2 18  1  0
  3  9  2  0
  4 21  1  0
  5 21  2  0
  6  8  1  0
  7  8  2  0
  7  9  1  0
  7 12  1  0
  8 10  1  0
  9 11  1  0
 10 13  2  0
 10 15  1  0
 11 16  2  0
 11 17  1  0
 12 14  2  0
 13 14  1  0
 15 21  1  0
 16 19  1  0
 17 20  2  0
 18 19  2  0
 18 20  1  0
 22 38  1  0
 23 29  2  0
 24 41  1  0
 25 41  2  0
 26 28  1  0
 27 28  2  0
 27 29  1  0
 27 32  1  0
 28 30  1  0
 29 31  1  0
 30 33  2  0
 30 35  1  0
 31 36  2  0
 31 37  1  0
 32 34  2  0
 33 34  1  0
 35 41  1  0
 36 39  1  0
 37 40  2  0
 38 39  2  0
 38 40  1  0
  1 46  1  0
  1 47  1  0
  6 48  1  0
  6 49  1  0
 12 50  1  0
 13 51  1  0
 14 52  1  0
 15 53  1  0
 15 54  1  0
 16 55  1  0
 17 56  1  0
 19 57  1  0
 20 58  1  0
 26 59  1  0
 26 60  1  0
 32 61  1  0
 33 62  1  0
 34 63  1  0
 35 64  1  0
 35 65  1  0
 36 66  1  0
 37 67  1  0
 39 68  1  0
 40 69  1  0
 44 70  1  0
 44 71  1  0
 45 72  1  0
 45 73  1  0
M  CHG  4   4  -1  24  -1  42   1  43   1
M  END
> <Uni-Dock RESULT> 
ENERGY=   -4.850  LOWER_BOUND=   10.570  UPPER_BOUND=   12.297
INTER + INTRA:          -4.850
INTER:                  -4.850
INTRA:                   0.000
UNBOUND:                 0.000

$$$$

     RDKit          3D

 73 70  0  0  0  0  0  0  0  0999 V2000
   49.6388    7.4904   14.8792 O   0  0  0  0  0  0  0  0  0  0  0  0
   56.0213    8.7545   16.8470 Br  0  0  0  0  0  0  0  0  0  0  0  0
   49.6262   10.2421   15.0020 O   0  0  0  0  0  0  0  0  0  0  0  0
   45.9815    8.4164   11.8839 O   0  0  0  0  0  0  0  0  0  0  0  0
   44.5286    6.8233   12.6550 O   0  0  0  0  0  0  0  0  0  0  0  0
   48.5126    8.6958   12.7705 N   0  0  0  0  0  0  0  0  0  0  0  0
   49.2581    7.9088   14.9771 C   0  0  0  0  0  0  0  0  0  0  0  0
   48.4303    7.7698   13.8440 C   0  0  0  0  0  0  0  0  0  0  0  0
   50.1023    9.1189   15.1524 C   0  0  0  0  0  0  0  0  0  0  0  0
   47.6804    6.5806   13.7002 C   0  0  0  0  0  0  0  0  0  0  0  0
   51.5292    8.9926   15.5519 C   0  0  0  0  0  0  0  0  0  0  0  0
   49.2532    6.9497   16.0003 C   0  0  0  0  0  0  0  0  0  0  0  0
   47.6966    5.6231   14.7336 C   0  0  0  0  0  0  0  0  0  0  0  0
   48.4682    5.8093   15.8780 C   0  0  0  0  0  0  0  0  0  0  0  0
   46.8324    6.2981   12.4725 C   0  0  0  0  0  0  0  0  0  0  0  0
   52.3201    7.9181   15.1340 C   0  0  0  0  0  0  0  0  0  0  0  0
   52.0902   10.0057   16.3444 C   0  0  0  0  0  0  0  0  0  0  0  0
   54.2054    8.8495   16.3253 C   0  0  0  0  0  0  0  0  0  0  0  0
   53.6603    7.8443   15.5254 C   0  0  0  0  0  0  0  0  0  0  0  0
   53.4278    9.9322   16.7357 C   0  0  0  0  0  0  0  0  0  0  0  0
   45.6629    7.2730   12.3272 C   0  0  0  0  0  0  0  0  0  0  0  0
   55.0355    5.9315   18.0871 Br  0  0  0  0  0  0  0  0  0  0  0  0
   50.1333   10.1879   15.9766 O   0  0  0  0  0  0  0  0  0  0  0  0
   45.4641    6.2329   11.4214 O   0  0  0  0  0  0  0  0  0  0  0  0
   45.6052    5.6574   13.6336 O   0  0  0  0  0  0  0  0  0  0  0  0
   47.5290    9.0134   15.3158 N   0  0  0  0  0  0  0  0  0  0  0  0
   49.7211    8.5925   14.2779 C   0  0  0  0  0  0  0  0  0  0  0  0
   48.3113    8.5003   14.2645 C   0  0  0  0  0  0  0  0  0  0  0  0
   50.4384    9.1091   15.4741 C   0  0  0  0  0  0  0  0  0  0  0  0
   47.6846    7.9604   13.1192 C   0  0  0  0  0  0  0  0  0  0  0  0
   51.5387    8.3161   16.0846 C   0  0  0  0  0  0  0  0  0  0  0  0
   50.4930    8.1492   13.1885 C   0  0  0  0  0  0  0  0  0  0  0  0
   48.4783    7.5246   12.0361 C   0  0  0  0  0  0  0  0  0  0  0  0
   49.8685    7.6084   12.0712 C   0  0  0  0  0  0  0  0  0  0  0  0
   46.1778    7.8694   12.9681 C   0  0  0  0  0  0  0  0  0  0  0  0
   51.5306    6.9128   16.0704 C   0  0  0  0  0  0  0  0  0  0  0  0
   52.5817    9.0018   16.7202 C   0  0  0  0  0  0  0  0  0  0  0  0
   53.6201    6.8939   17.2823 C   0  0  0  0  0  0  0  0  0  0  0  0
   52.5753    6.2019   16.6687 C   0  0  0  0  0  0  0  0  0  0  0  0
   53.6278    8.2893   17.3109 C   0  0  0  0  0  0  0  0  0  0  0  0
   45.7135    6.4459   12.6479 C   0  0  0  0  0  0  0  0  0  0  0  0
   49.7659    7.8027   14.6677 Na  0  0  0  0  0 15  0  0  0  0  0  0
   49.7659    7.8027   14.6677 Na  0  0  0  0  0 15  0  0  0  0  0  0
   49.5612    7.4960   14.8162 O   0  0  0  0  0  0  0  0  0  0  0  0
   49.5812    7.4926   14.8344 O   0  0  0  0  0  0  0  0  0  0  0  0
   49.2003    7.9234   14.1313 H   0  0  0  0  0  0  0  0  0  0  0  0
   50.4587    7.9945   14.9926 H   0  0  0  0  0  0  0  0  0  0  0  0
   48.6742    9.6361   13.1360 H   0  0  0  0  0  0  0  0  0  0  0  0
   47.5985    8.7195   12.2678 H   0  0  0  0  0  0  0  0  0  0  0  0
   49.8420    7.0983   16.8984 H   0  0  0  0  0  0  0  0  0  0  0  0
   47.0856    4.7266   14.6426 H   0  0  0  0  0  0  0  0  0  0  0  0
   48.4467    5.0720   16.6712 H   0  0  0  0  0  0  0  0  0  0  0  0
   46.4399    5.2732   12.5084 H   0  0  0  0  0  0  0  0  0  0  0  0
   47.4614    6.3351   11.5776 H   0  0  0  0  0  0  0  0  0  0  0  0
   51.9172    7.1475   14.4783 H   0  0  0  0  0  0  0  0  0  0  0  0
   51.4826   10.8564   16.6500 H   0  0  0  0  0  0  0  0  0  0  0  0
   54.2667    7.0082   15.1874 H   0  0  0  0  0  0  0  0  0  0  0  0
   53.8488   10.7235   17.3496 H   0  0  0  0  0  0  0  0  0  0  0  0
   46.7495    8.4049   15.5380 H   0  0  0  0  0  0  0  0  0  0  0  0
   48.0578    9.3645   16.1132 H   0  0  0  0  0  0  0  0  0  0  0  0
   51.5775    8.2188   13.2078 H   0  0  0  0  0  0  0  0  0  0  0  0
   47.9965    7.1065   11.1505 H   0  0  0  0  0  0  0  0  0  0  0  0
   50.4496    7.2420   11.2268 H   0  0  0  0  0  0  0  0  0  0  0  0
   45.8665    8.5575   12.1682 H   0  0  0  0  0  0  0  0  0  0  0  0
   45.6388    8.1933   13.8656 H   0  0  0  0  0  0  0  0  0  0  0  0
   50.7107    6.3627   15.6113 H   0  0  0  0  0  0  0  0  0  0  0  0
   52.5739   10.0900   16.7511 H   0  0  0  0  0  0  0  0  0  0  0  0
   52.5575    5.1130   16.6548 H   0  0  0  0  0  0  0  0  0  0  0  0
   54.4373    8.8322   17.7921 H   0  0  0  0  0  0  0  0  0  0  0  0
   49.3195    8.0710   14.0750 H   0  0  0  0  0  0  0  0  0  0  0  0
   50.4171    7.8412   15.1118 H   0  0  0  0  0  0  0  0  0  0  0  0
   50.4327    7.8832   15.0823 H   0  0  0  0  0  0  0  0  0  0  0  0
   49.2839    8.0324   14.0864 H   0  0  0  0  0  0  0  0  0  0  0  0
  2 18  1  0
  3  9  2  0
  4 21  1  0
  5 21  2  0
  6  8  1  0
  7  8  2  0
  7  9  1  0
  7 12  1  0
  8 10  1  0
  9 11  1  0
 10 13  2  0
 10 15  1  0
 11 16  2  0
 11 17  1  0
 12 14  2  0
 13 14  1  0
 15 21  1  0
 16 19  1  0
 17 20  2  0
 18 19  2  0
 18 20  1  0
 22 38  1  0
 23 29  2  0
 24 41  1  0
 25 41  2  0
 26 28  1  0
 27 28  2  0
 27 29  1  0
 27 32  1  0
 28 30  1  0
 29 31  1  0
 30 33  2  0
 30 35  1  0
 31 36  2  0
 31 37  1  0
 32 34  2  0
 33 34  1  0
 35 41  1  0
 36 39  1  0
 37 40  2  0
 38 39  2  0
 38 40  1  0
  1 46  1  0
  1 47  1  0
  6 48  1  0
  6 49  1  0
 12 50  1  0
 13 51  1  0
 14 52  1  0
 15 53  1  0
 15 54  1  0
 16 55  1  0
 17 56  1  0
 19 57  1  0
 20 58  1  0
 26 59  1  0
 26 60  1  0
 32 61  1  0
 33 62  1  0
 34 63  1  0
 35 64  1  0
 35 65  1  0
 36 66  1  0
 37 67  1  0
 39 68  1  0
 40 69  1  0
 44 70  1  0
 44 71  1  0
 45 72  1  0
 45 73  1  0
M  CHG  4   4  -1  24  -1  42   1  43   1
M  END
> <Uni-Dock RESULT> 
ENERGY=   -4.685  LOWER_BOUND=    5.583  UPPER_BOUND=    7.321
INTER + INTRA:          -4.685
INTER:                  -4.685
INTRA:                   0.000
UNBOUND:                 0.000

$$$$

     RDKit          3D

 73 70  0  0  0  0  0  0  0  0999 V2000
   48.6275    7.1610   19.9345 O   0  0  0  0  0  0  0  0  0  0  0  0
   50.5731   13.3588   21.9365 Br  0  0  0  0  0  0  0  0  0  0  0  0
   46.7245    8.7384   18.7188 O   0  0  0  0  0  0  0  0  0  0  0  0
   47.2790    4.2046   16.3782 O   0  0  0  0  0  0  0  0  0  0  0  0
   47.1410    2.2756   17.6044 O   0  0  0  0  0  0  0  0  0  0  0  0
   48.1493    6.5558   17.3707 N   0  0  0  0  0  0  0  0  0  0  0  0
   48.0813    7.1118   19.7645 C   0  0  0  0  0  0  0  0  0  0  0  0
   48.2208    6.1607   18.7328 C   0  0  0  0  0  0  0  0  0  0  0  0
   47.6814    8.5089   19.4553 C   0  0  0  0  0  0  0  0  0  0  0  0
   48.6468    4.8567   19.0726 C   0  0  0  0  0  0  0  0  0  0  0  0
   48.4084    9.6546   20.0642 C   0  0  0  0  0  0  0  0  0  0  0  0
   48.2432    6.7506   21.1099 C   0  0  0  0  0  0  0  0  0  0  0  0
   48.8152    4.5152   20.4290 C   0  0  0  0  0  0  0  0  0  0  0  0
   48.6063    5.4501   21.4400 C   0  0  0  0  0  0  0  0  0  0  0  0
   48.9145    3.7905   18.0249 C   0  0  0  0  0  0  0  0  0  0  0  0
   49.7800    9.6008   20.3300 C   0  0  0  0  0  0  0  0  0  0  0  0
   47.6885   10.8262   20.3438 C   0  0  0  0  0  0  0  0  0  0  0  0
   49.6980   11.8611   21.1818 C   0  0  0  0  0  0  0  0  0  0  0  0
   50.4253   10.7053   20.8943 C   0  0  0  0  0  0  0  0  0  0  0  0
   48.3322   11.9288   20.9074 C   0  0  0  0  0  0  0  0  0  0  0  0
   47.6517    3.3805   17.2655 C   0  0  0  0  0  0  0  0  0  0  0  0
   51.3098   11.1911   24.2250 Br  0  0  0  0  0  0  0  0  0  0  0  0
   46.6017    9.2933   19.6605 O   0  0  0  0  0  0  0  0  0  0  0  0
   48.6526    2.4631   16.9521 O   0  0  0  0  0  0  0  0  0  0  0  0
   48.0897    2.6557   19.1637 O   0  0  0  0  0  0  0  0  0  0  0  0
   46.1818    6.4159   19.2827 N   0  0  0  0  0  0  0  0  0  0  0  0
   48.2187    7.7432   18.8967 C   0  0  0  0  0  0  0  0  0  0  0  0
   47.4680    6.5580   18.7295 C   0  0  0  0  0  0  0  0  0  0  0  0
   47.7335    8.8320   19.7863 C   0  0  0  0  0  0  0  0  0  0  0  0
   47.9977    5.5379   17.9081 C   0  0  0  0  0  0  0  0  0  0  0  0
   48.6180    9.3755   20.8513 C   0  0  0  0  0  0  0  0  0  0  0  0
   49.4700    7.9097   18.2756 C   0  0  0  0  0  0  0  0  0  0  0  0
   49.2536    5.7273   17.2919 C   0  0  0  0  0  0  0  0  0  0  0  0
   49.9885    6.8960   17.4791 C   0  0  0  0  0  0  0  0  0  0  0  0
   47.2539    4.2504   17.6073 C   0  0  0  0  0  0  0  0  0  0  0  0
   49.5576    8.5683   21.5112 C   0  0  0  0  0  0  0  0  0  0  0  0
   48.4698   10.7185   21.2205 C   0  0  0  0  0  0  0  0  0  0  0  0
   50.2195   10.4556   22.8658 C   0  0  0  0  0  0  0  0  0  0  0  0
   50.3607    9.1116   22.5183 C   0  0  0  0  0  0  0  0  0  0  0  0
   49.2783   11.2606   22.2221 C   0  0  0  0  0  0  0  0  0  0  0  0
   48.0844    3.0097   17.9472 C   0  0  0  0  0  0  0  0  0  0  0  0
   48.5910    7.4016   19.6195 Na  0  0  0  0  0 15  0  0  0  0  0  0
   48.5910    7.4016   19.6195 Na  0  0  0  0  0 15  0  0  0  0  0  0
   48.6080    7.0904   19.8663 O   0  0  0  0  0  0  0  0  0  0  0  0
   48.6134    7.1078   19.8865 O   0  0  0  0  0  0  0  0  0  0  0  0
   48.4316    6.9181   19.0170 H   0  0  0  0  0  0  0  0  0  0  0  0
   48.7139    8.1259   19.9070 H   0  0  0  0  0  0  0  0  0  0  0  0
   47.4449    7.2874   17.2589 H   0  0  0  0  0  0  0  0  0  0  0  0
   47.8367    5.7440   16.7945 H   0  0  0  0  0  0  0  0  0  0  0  0
   48.0679    7.4722   21.8997 H   0  0  0  0  0  0  0  0  0  0  0  0
   49.1017    3.4988   20.6938 H   0  0  0  0  0  0  0  0  0  0  0  0
   48.7173    5.1595   22.4774 H   0  0  0  0  0  0  0  0  0  0  0  0
   49.3546    2.8996   18.4921 H   0  0  0  0  0  0  0  0  0  0  0  0
   49.6714    4.1512   17.3214 H   0  0  0  0  0  0  0  0  0  0  0  0
   50.3660    8.7190   20.0749 H   0  0  0  0  0  0  0  0  0  0  0  0
   46.6252   10.8790   20.1140 H   0  0  0  0  0  0  0  0  0  0  0  0
   51.4933   10.6539   21.0888 H   0  0  0  0  0  0  0  0  0  0  0  0
   47.7623   12.8292   21.1190 H   0  0  0  0  0  0  0  0  0  0  0  0
   46.0324    5.4857   19.6565 H   0  0  0  0  0  0  0  0  0  0  0  0
   45.8832    7.1861   19.8797 H   0  0  0  0  0  0  0  0  0  0  0  0
   50.0442    8.8222   18.4126 H   0  0  0  0  0  0  0  0  0  0  0  0
   49.6653    4.9404   16.6574 H   0  0  0  0  0  0  0  0  0  0  0  0
   50.9637    6.9982   17.0061 H   0  0  0  0  0  0  0  0  0  0  0  0
   46.9857    4.2449   16.5405 H   0  0  0  0  0  0  0  0  0  0  0  0
   46.3069    4.1674   18.1526 H   0  0  0  0  0  0  0  0  0  0  0  0
   49.6626    7.5137   21.2614 H   0  0  0  0  0  0  0  0  0  0  0  0
   47.7238   11.3368   20.7240 H   0  0  0  0  0  0  0  0  0  0  0  0
   51.0843    8.4756   23.0263 H   0  0  0  0  0  0  0  0  0  0  0  0
   49.1617   12.3069   22.4930 H   0  0  0  0  0  0  0  0  0  0  0  0
   48.4283    7.0873   18.9143 H   0  0  0  0  0  0  0  0  0  0  0  0
   48.7368    8.0273   20.0779 H   0  0  0  0  0  0  0  0  0  0  0  0
   48.7315    8.0583   20.0344 H   0  0  0  0  0  0  0  0  0  0  0  0
   48.4281    7.0389   18.9377 H   0  0  0  0  0  0  0  0  0  0  0  0
  2 18  1  0
  3  9  2  0
  4 21  1  0
  5 21  2  0
  6  8  1  0
  7  8  2  0
  7  9  1  0
  7 12  1  0
  8 10  1  0
  9 11  1  0
 10 13  2  0
 10 15  1  0
 11 16  2  0
 11 17  1  0
 12 14  2  0
 13 14  1  0
 15 21  1  0
 16 19  1  0
 17 20  2  0
 18 19  2  0
 18 20  1  0
 22 38  1  0
 23 29  2  0
 24 41  1  0
 25 41  2  0
 26 28  1  0
 27 28  2  0
 27 29  1  0
 27 32  1  0
 28 30  1  0
 29 31  1  0
 30 33  2  0
 30 35  1  0
 31 36  2  0
 31 37  1  0
 32 34  2  0
 33 34  1  0
 35 41  1  0
 36 39  1  0
 37 40  2  0
 38 39  2  0
 38 40  1  0
  1 46  1  0
  1 47  1  0
  6 48  1  0
  6 49  1  0
 12 50  1  0
 13 51  1  0
 14 52  1  0
 15 53  1  0
 15 54  1  0
 16 55  1  0
 17 56  1  0
 19 57  1  0
 20 58  1  0
 26 59  1  0
 26 60  1  0
 32 61  1  0
 33 62  1  0
 34 63  1  0
 35 64  1  0
 35 65  1  0
 36 66  1  0
 37 67  1  0
 39 68  1  0
 40 69  1  0
 44 70  1  0
 44 71  1  0
 45 72  1  0
 45 73  1  0
M  CHG  4   4  -1  24  -1  42   1  43   1
M  END
> <Uni-Dock RESULT> 
ENERGY=   -4.669  LOWER_BOUND=    2.657  UPPER_BOUND=    3.965
INTER + INTRA:          -4.669
INTER:                  -4.669
INTRA:                   0.000
UNBOUND:                 0.000

$$$$

     RDKit          3D

 73 70  0  0  0  0  0  0  0  0999 V2000
   49.2712    9.4484   18.6090 O   0  0  0  0  0  0  0  0  0  0  0  0
   48.7993    2.8451   17.0664 Br  0  0  0  0  0  0  0  0  0  0  0  0
   47.5991    9.5277   16.4215 O   0  0  0  0  0  0  0  0  0  0  0  0
   47.0887   13.6670   19.4125 O   0  0  0  0  0  0  0  0  0  0  0  0
   48.9436   14.8788   19.9909 O   0  0  0  0  0  0  0  0  0  0  0  0
   47.1233   11.0193   18.9034 N   0  0  0  0  0  0  0  0  0  0  0  0
   49.1430    9.8150   18.1862 C   0  0  0  0  0  0  0  0  0  0  0  0
   48.5332   10.8507   18.9236 C   0  0  0  0  0  0  0  0  0  0  0  0
   48.3479    8.9938   17.2370 C   0  0  0  0  0  0  0  0  0  0  0  0
   49.3218   11.5741   19.8468 C   0  0  0  0  0  0  0  0  0  0  0  0
   48.4747    7.5120   17.2311 C   0  0  0  0  0  0  0  0  0  0  0  0
   50.5230    9.5798   18.2718 C   0  0  0  0  0  0  0  0  0  0  0  0
   50.7045   11.3161   19.9270 C   0  0  0  0  0  0  0  0  0  0  0  0
   51.3025   10.3348   19.1403 C   0  0  0  0  0  0  0  0  0  0  0  0
   48.7370   12.6439   20.7521 C   0  0  0  0  0  0  0  0  0  0  0  0
   48.7126    6.7871   18.4026 C   0  0  0  0  0  0  0  0  0  0  0  0
   48.3167    6.8358   16.0116 C   0  0  0  0  0  0  0  0  0  0  0  0
   48.6702    4.7312   17.1327 C   0  0  0  0  0  0  0  0  0  0  0  0
   48.8149    5.3936   18.3524 C   0  0  0  0  0  0  0  0  0  0  0  0
   48.4191    5.4449   15.9610 C   0  0  0  0  0  0  0  0  0  0  0  0
   48.2097   13.8505   19.9739 C   0  0  0  0  0  0  0  0  0  0  0  0
   51.7108    3.4634   18.3391 Br  0  0  0  0  0  0  0  0  0  0  0  0
   48.2714    8.8316   15.8988 O   0  0  0  0  0  0  0  0  0  0  0  0
   48.2365   14.1944   21.3240 O   0  0  0  0  0  0  0  0  0  0  0  0
   50.2317   13.5875   20.3774 O   0  0  0  0  0  0  0  0  0  0  0  0
   48.9927   11.4752   16.9427 N   0  0  0  0  0  0  0  0  0  0  0  0
   48.1006    9.5269   18.1544 C   0  0  0  0  0  0  0  0  0  0  0  0
   48.3992   10.9062   18.0849 C   0  0  0  0  0  0  0  0  0  0  0  0
   48.5348    8.5991   17.0760 C   0  0  0  0  0  0  0  0  0  0  0  0
   48.0020   11.7341   19.1584 C   0  0  0  0  0  0  0  0  0  0  0  0
   49.3046    7.3718   17.4126 C   0  0  0  0  0  0  0  0  0  0  0  0
   47.4357    8.9781   19.2662 C   0  0  0  0  0  0  0  0  0  0  0  0
   47.3330   11.1630   20.2626 C   0  0  0  0  0  0  0  0  0  0  0  0
   47.0595    9.7983   20.3229 C   0  0  0  0  0  0  0  0  0  0  0  0
   48.2141   13.2363   19.1649 C   0  0  0  0  0  0  0  0  0  0  0  0
   50.1962    7.3358   18.4960 C   0  0  0  0  0  0  0  0  0  0  0  0
   49.1544    6.2450   16.5944 C   0  0  0  0  0  0  0  0  0  0  0  0
   50.7430    5.0442   17.9626 C   0  0  0  0  0  0  0  0  0  0  0  0
   50.9140    6.1682   18.7715 C   0  0  0  0  0  0  0  0  0  0  0  0
   49.8674    5.0775   16.8761 C   0  0  0  0  0  0  0  0  0  0  0  0
   48.9709   13.7082   20.4096 C   0  0  0  0  0  0  0  0  0  0  0  0
   48.8904    9.3775   18.5172 Na  0  0  0  0  0 15  0  0  0  0  0  0
   48.8904    9.3775   18.5172 Na  0  0  0  0  0 15  0  0  0  0  0  0
   49.2344    9.5374   18.6364 O   0  0  0  0  0  0  0  0  0  0  0  0
   49.2466    9.5140   18.6296 O   0  0  0  0  0  0  0  0  0  0  0  0
   48.5128   10.0440   18.7051 H   0  0  0  0  0  0  0  0  0  0  0  0
   48.8873    8.6399   18.2373 H   0  0  0  0  0  0  0  0  0  0  0  0
   46.7640   10.8183   17.9683 H   0  0  0  0  0  0  0  0  0  0  0  0
   46.8947   12.0168   19.1075 H   0  0  0  0  0  0  0  0  0  0  0  0
   50.9936    8.8261   17.6507 H   0  0  0  0  0  0  0  0  0  0  0  0
   51.3200   11.9026   20.6071 H   0  0  0  0  0  0  0  0  0  0  0  0
   52.3713   10.1699   19.2001 H   0  0  0  0  0  0  0  0  0  0  0  0
   49.4909   12.9864   21.4731 H   0  0  0  0  0  0  0  0  0  0  0  0
   47.9341   12.2115   21.3574 H   0  0  0  0  0  0  0  0  0  0  0  0
   48.7891    7.2889   19.3662 H   0  0  0  0  0  0  0  0  0  0  0  0
   48.1061    7.3968   15.1020 H   0  0  0  0  0  0  0  0  0  0  0  0
   48.9920    4.8410   19.2713 H   0  0  0  0  0  0  0  0  0  0  0  0
   48.2949    4.9347   15.0100 H   0  0  0  0  0  0  0  0  0  0  0  0
   49.6870   12.1725   17.1859 H   0  0  0  0  0  0  0  0  0  0  0  0
   49.2690   10.8073   16.2240 H   0  0  0  0  0  0  0  0  0  0  0  0
   47.2136    7.9153   19.3150 H   0  0  0  0  0  0  0  0  0  0  0  0
   47.0257   11.8005   21.0936 H   0  0  0  0  0  0  0  0  0  0  0  0
   46.5617    9.3890   21.2002 H   0  0  0  0  0  0  0  0  0  0  0  0
   47.2307   13.7265   19.1120 H   0  0  0  0  0  0  0  0  0  0  0  0
   48.7713   13.5922   18.2909 H   0  0  0  0  0  0  0  0  0  0  0  0
   50.3516    8.2130   19.1219 H   0  0  0  0  0  0  0  0  0  0  0  0
   48.4804    6.2827   15.7402 H   0  0  0  0  0  0  0  0  0  0  0  0
   51.6056    6.1520   19.6127 H   0  0  0  0  0  0  0  0  0  0  0  0
   49.7348    4.2056   16.2405 H   0  0  0  0  0  0  0  0  0  0  0  0
   48.3549    9.9438   18.6402 H   0  0  0  0  0  0  0  0  0  0  0  0
   49.0819    8.6513   18.2749 H   0  0  0  0  0  0  0  0  0  0  0  0
   49.0302    8.6434   18.2630 H   0  0  0  0  0  0  0  0  0  0  0  0
   48.3945    9.9750   18.6588 H   0  0  0  0  0  0  0  0  0  0  0  0
  2 18  1  0
  3  9  2  0
  4 21  1  0
  5 21  2  0
  6  8  1  0
  7  8  2  0
  7  9  1  0
  7 12  1  0
  8 10  1  0
  9 11  1  0
 10 13  2  0
 10 15  1  0
 11 16  2  0
 11 17  1  0
 12 14  2  0
 13 14  1  0
 15 21  1  0
 16 19  1  0
 17 20  2  0
 18 19  2  0
 18 20  1  0
 22 38  1  0
 23 29  2  0
 24 41  1  0
 25 41  2  0
 26 28  1  0
 27 28  2  0
 27 29  1  0
 27 32  1  0
 28 30  1  0
 29 31  1  0
 30 33  2  0
 30 35  1  0
 31 36  2  0
 31 37  1  0
 32 34  2  0
 33 34  1  0
 35 41  1  0
 36 39  1  0
 37 40  2  0
 38 39  2  0
 38 40  1  0
  1 46  1  0
  1 47  1  0
  6 48  1  0
  6 49  1  0
 12 50  1  0
 13 51  1  0
 14 52  1  0
 15 53  1  0
 15 54  1  0
 16 55  1  0
 17 56  1  0
 19 57  1  0
 20 58  1  0
 26 59  1  0
 26 60  1  0
 32 61  1  0
 33 62  1  0
 34 63  1  0
 35 64  1  0
 35 65  1  0
 36 66  1  0
 37 67  1  0
 39 68  1  0
 40 69  1  0
 44 70  1  0
 44 71  1  0
 45 72  1  0
 45 73  1  0
M  CHG  4   4  -1  24  -1  42   1  43   1
M  END
> <Uni-Dock RESULT> 
ENERGY=   -4.624  LOWER_BOUND=    3.584  UPPER_BOUND=    6.085
INTER + INTRA:          -4.624
INTER:                  -4.624
INTRA:                   0.000
UNBOUND:                 0.000

$$$$
