
     RDKit          3D

 73 70  0  0  0  0  0  0  0  0999 V2000
   48.0453    7.7297   19.3965 O   0  0  0  0  0  0  0  0  0  0  0  0
   47.5426   13.3312   17.2728 Br  0  0  0  0  0  0  0  0  0  0  0  0
   47.4004    8.6838   22.2955 O   0  0  0  0  0  0  0  0  0  0  0  0
   49.9710    5.0333   16.5385 O   0  0  0  0  0  0  0  0  0  0  0  0
   47.7352    5.4826   16.7206 O   0  0  0  0  0  0  0  0  0  0  0  0
   47.0489    6.5681   19.1365 N   0  0  0  0  0  0  0  0  0  0  0  0
   48.6374    7.3035   20.8734 C   0  0  0  0  0  0  0  0  0  0  0  0
   48.2832    6.4432   19.8119 C   0  0  0  0  0  0  0  0  0  0  0  0
   47.8936    8.5446   21.1762 C   0  0  0  0  0  0  0  0  0  0  0  0
   49.0885    5.3011   19.5901 C   0  0  0  0  0  0  0  0  0  0  0  0
   47.8148    9.6590   20.1848 C   0  0  0  0  0  0  0  0  0  0  0  0
   49.7566    7.0524   21.6813 C   0  0  0  0  0  0  0  0  0  0  0  0
   50.2096    5.0633   20.4062 C   0  0  0  0  0  0  0  0  0  0  0  0
   50.5438    5.9334   21.4435 C   0  0  0  0  0  0  0  0  0  0  0  0
   48.7948    4.3149   18.4758 C   0  0  0  0  0  0  0  0  0  0  0  0
   47.0085   10.7635   20.5010 C   0  0  0  0  0  0  0  0  0  0  0  0
   48.5410    9.6660   18.9852 C   0  0  0  0  0  0  0  0  0  0  0  0
   47.6485   11.8486   18.4435 C   0  0  0  0  0  0  0  0  0  0  0  0
   46.9244   11.8569   19.6337 C   0  0  0  0  0  0  0  0  0  0  0  0
   48.4515   10.7571   18.1127 C   0  0  0  0  0  0  0  0  0  0  0  0
   48.8455    5.0065   17.1093 C   0  0  0  0  0  0  0  0  0  0  0  0
   47.9466   12.4897   23.1610 Br  0  0  0  0  0  0  0  0  0  0  0  0
   47.4307    9.6045   16.9879 O   0  0  0  0  0  0  0  0  0  0  0  0
   49.8416    4.1884   21.2998 O   0  0  0  0  0  0  0  0  0  0  0  0
   47.6594    4.8818   21.3667 O   0  0  0  0  0  0  0  0  0  0  0  0
   46.9672    6.6481   19.4249 N   0  0  0  0  0  0  0  0  0  0  0  0
   48.5440    7.7551   17.8856 C   0  0  0  0  0  0  0  0  0  0  0  0
   48.1638    6.6467   18.6713 C   0  0  0  0  0  0  0  0  0  0  0  0
   47.8981    9.0814   17.9986 C   0  0  0  0  0  0  0  0  0  0  0  0
   48.8821    5.4383   18.5021 C   0  0  0  0  0  0  0  0  0  0  0  0
   47.8943    9.8360   19.2870 C   0  0  0  0  0  0  0  0  0  0  0  0
   49.6068    7.6756   16.9724 C   0  0  0  0  0  0  0  0  0  0  0  0
   49.9468    5.3763   17.5837 C   0  0  0  0  0  0  0  0  0  0  0  0
   50.3105    6.4883   16.8260 C   0  0  0  0  0  0  0  0  0  0  0  0
   48.5600    4.1884   19.3004 C   0  0  0  0  0  0  0  0  0  0  0  0
   47.1194   11.0051   19.3621 C   0  0  0  0  0  0  0  0  0  0  0  0
   48.6735    9.4603   20.3913 C   0  0  0  0  0  0  0  0  0  0  0  0
   47.9094   11.4068   21.6075 C   0  0  0  0  0  0  0  0  0  0  0  0
   47.1259   11.7891   20.5197 C   0  0  0  0  0  0  0  0  0  0  0  0
   48.6755   10.2424   21.5529 C   0  0  0  0  0  0  0  0  0  0  0  0
   48.7089    4.4427   20.8028 C   0  0  0  0  0  0  0  0  0  0  0  0
   48.4349    7.7835   19.3366 Na  0  0  0  0  0 15  0  0  0  0  0  0
   48.4349    7.7835   19.3366 Na  0  0  0  0  0 15  0  0  0  0  0  0
   48.0468    7.7163   19.3938 O   0  0  0  0  0  0  0  0  0  0  0  0
   48.0430    7.7570   19.4019 O   0  0  0  0  0  0  0  0  0  0  0  0
   48.5502    8.5546   19.4575 H   0  0  0  0  0  0  0  0  0  0  0  0
   48.7092    7.0663   19.1560 H   0  0  0  0  0  0  0  0  0  0  0  0
   46.6847    7.5065   19.0526 H   0  0  0  0  0  0  0  0  0  0  0  0
   47.0838    6.1458   18.1857 H   0  0  0  0  0  0  0  0  0  0  0  0
   50.0105    7.7356   22.4899 H   0  0  0  0  0  0  0  0  0  0  0  0
   50.8324    4.1913   20.2228 H   0  0  0  0  0  0  0  0  0  0  0  0
   51.4146    5.7312   22.0600 H   0  0  0  0  0  0  0  0  0  0  0  0
   49.5184    3.4906   18.4766 H   0  0  0  0  0  0  0  0  0  0  0  0
   47.8127    3.8540   18.6474 H   0  0  0  0  0  0  0  0  0  0  0  0
   46.4442   10.7794   21.4324 H   0  0  0  0  0  0  0  0  0  0  0  0
   49.1795    8.8323   18.6992 H   0  0  0  0  0  0  0  0  0  0  0  0
   46.2967   12.7031   19.8969 H   0  0  0  0  0  0  0  0  0  0  0  0
   49.0125   10.7343   17.1814 H   0  0  0  0  0  0  0  0  0  0  0  0
   47.0019    5.9522   20.1991 H   0  0  0  0  0  0  0  0  0  0  0  0
   46.7061    7.5393   19.8266 H   0  0  0  0  0  0  0  0  0  0  0  0
   49.8847    8.5495   16.3843 H   0  0  0  0  0  0  0  0  0  0  0  0
   50.5021    4.4487   17.4664 H   0  0  0  0  0  0  0  0  0  0  0  0
   51.1370    6.4254   16.1253 H   0  0  0  0  0  0  0  0  0  0  0  0
   47.5404    3.8568   19.0695 H   0  0  0  0  0  0  0  0  0  0  0  0
   49.2238    3.3610   19.0170 H   0  0  0  0  0  0  0  0  0  0  0  0
   46.5159   11.3158   18.5103 H   0  0  0  0  0  0  0  0  0  0  0  0
   49.2913    8.5641   20.3768 H   0  0  0  0  0  0  0  0  0  0  0  0
   46.5280   12.6965   20.5551 H   0  0  0  0  0  0  0  0  0  0  0  0
   49.2849    9.9354   22.4017 H   0  0  0  0  0  0  0  0  0  0  0  0
   48.7344    7.0774   19.1535 H   0  0  0  0  0  0  0  0  0  0  0  0
   48.5234    8.5568   19.4627 H   0  0  0  0  0  0  0  0  0  0  0  0
   48.6037    8.5462   19.4463 H   0  0  0  0  0  0  0  0  0  0  0  0
   48.6580    7.0475   19.1617 H   0  0  0  0  0  0  0  0  0  0  0  0
  2 18  1  0
  3  9  2  0
  4 21  1  0
  5 21  2  0
  6  8  1  0
  7  8  2  0
  7  9  1  0
  7 12  1  0
  8 10  1  0
  9 11  1  0
 10 13  2  0
 10 15  1  0
 11 16  2  0
 11 17  1  0
 12 14  2  0
 13 14  1  0
 15 21  1  0
 16 19  1  0
 17 20  2  0
 18 19  2  0
 18 20  1  0
 22 38  1  0
 23 29  2  0
 24 41  1  0
 25 41  2  0
 26 28  1  0
 27 28  2  0
 27 29  1  0
 27 32  1  0
 28 30  1  0
 29 31  1  0
 30 33  2  0
 30 35  1  0
 31 36  2  0
 31 37  1  0
 32 34  2  0
 33 34  1  0
 35 41  1  0
 36 39  1  0
 37 40  2  0
 38 39  2  0
 38 40  1  0
  1 46  1  0
  1 47  1  0
  6 48  1  0
  6 49  1  0
 12 50  1  0
 13 51  1  0
 14 52  1  0
 15 53  1  0
 15 54  1  0
 16 55  1  0
 17 56  1  0
 19 57  1  0
 20 58  1  0
 26 59  1  0
 26 60  1  0
 32 61  1  0
 33 62  1  0
 34 63  1  0
 35 64  1  0
 35 65  1  0
 36 66  1  0
 37 67  1  0
 39 68  1  0
 40 69  1  0
 44 70  1  0
 44 71  1  0
 45 72  1  0
 45 73  1  0
M  CHG  4   4  -1  24  -1  42   1  43   1
M  END
> <Uni-Dock RESULT> 
ENERGY=   -5.548  LOWER_BOUND=    0.000  UPPER_BOUND=    0.000
INTER + INTRA:          -5.548
INTER:                  -5.548
INTRA:                   0.000
UNBOUND:                 0.000

$$$$

     RDKit          3D

 73 70  0  0  0  0  0  0  0  0999 V2000
   47.8755    9.8149   19.8174 O   0  0  0  0  0  0  0  0  0  0  0  0
   47.2985    5.5242   23.9881 Br  0  0  0  0  0  0  0  0  0  0  0  0
   48.4386    7.6961   17.5984 O   0  0  0  0  0  0  0  0  0  0  0  0
   48.3081   13.7980   21.5767 O   0  0  0  0  0  0  0  0  0  0  0  0
   46.3583   12.7464   21.0053 O   0  0  0  0  0  0  0  0  0  0  0  0
   46.7239   10.6842   19.2447 N   0  0  0  0  0  0  0  0  0  0  0  0
   48.9073    9.7850   18.5336 C   0  0  0  0  0  0  0  0  0  0  0  0
   48.0952   10.8600   18.9548 C   0  0  0  0  0  0  0  0  0  0  0  0
   48.4739    8.3747   18.6249 C   0  0  0  0  0  0  0  0  0  0  0  0
   48.6262   12.1677   18.8557 C   0  0  0  0  0  0  0  0  0  0  0  0
   48.1730    7.7433   19.9447 C   0  0  0  0  0  0  0  0  0  0  0  0
   50.2051    9.9923   18.0428 C   0  0  0  0  0  0  0  0  0  0  0  0
   49.9304   12.3605   18.3645 C   0  0  0  0  0  0  0  0  0  0  0  0
   50.7163   11.2809   17.9626 C   0  0  0  0  0  0  0  0  0  0  0  0
   47.8364   13.3903   19.2824 C   0  0  0  0  0  0  0  0  0  0  0  0
   47.6708    6.4326   19.9464 C   0  0  0  0  0  0  0  0  0  0  0  0
   48.4119    8.3836   21.1692 C   0  0  0  0  0  0  0  0  0  0  0  0
   47.6461    6.4210   22.3588 C   0  0  0  0  0  0  0  0  0  0  0  0
   47.4074    5.7712   21.1498 C   0  0  0  0  0  0  0  0  0  0  0  0
   48.1415    7.7247   22.3744 C   0  0  0  0  0  0  0  0  0  0  0  0
   47.4702   13.3105   20.7683 C   0  0  0  0  0  0  0  0  0  0  0  0
   49.7021    4.1332   18.7128 Br  0  0  0  0  0  0  0  0  0  0  0  0
   46.6558    8.9090   22.5350 O   0  0  0  0  0  0  0  0  0  0  0  0
   49.8106   12.7001   17.1116 O   0  0  0  0  0  0  0  0  0  0  0  0
   47.8974   11.4899   16.7620 O   0  0  0  0  0  0  0  0  0  0  0  0
   46.7620   10.4821   19.0125 N   0  0  0  0  0  0  0  0  0  0  0  0
   47.7937   10.4981   21.2522 C   0  0  0  0  0  0  0  0  0  0  0  0
   47.5962   11.0828   19.9835 C   0  0  0  0  0  0  0  0  0  0  0  0
   47.3922    9.1101   21.5701 C   0  0  0  0  0  0  0  0  0  0  0  0
   48.0581   12.4066   19.7859 C   0  0  0  0  0  0  0  0  0  0  0  0
   47.9428    7.9490   20.8098 C   0  0  0  0  0  0  0  0  0  0  0  0
   48.4373   11.1940   22.2873 C   0  0  0  0  0  0  0  0  0  0  0  0
   48.7037   13.0894   20.8338 C   0  0  0  0  0  0  0  0  0  0  0  0
   48.8964   12.4866   22.0757 C   0  0  0  0  0  0  0  0  0  0  0  0
   47.9024   13.1271   18.4594 C   0  0  0  0  0  0  0  0  0  0  0  0
   47.3900    6.6811   21.0542 C   0  0  0  0  0  0  0  0  0  0  0  0
   49.0188    8.0651   19.9172 C   0  0  0  0  0  0  0  0  0  0  0  0
   48.9794    5.6758   19.5408 C   0  0  0  0  0  0  0  0  0  0  0  0
   47.9062    5.5465   20.4211 C   0  0  0  0  0  0  0  0  0  0  0  0
   49.5321    6.9294   19.2786 C   0  0  0  0  0  0  0  0  0  0  0  0
   48.6129   12.3681   17.3355 C   0  0  0  0  0  0  0  0  0  0  0  0
   48.2205    9.8917   19.9999 Na  0  0  0  0  0 15  0  0  0  0  0  0
   48.2205    9.8917   19.9999 Na  0  0  0  0  0 15  0  0  0  0  0  0
   47.8744    9.8283   19.8142 O   0  0  0  0  0  0  0  0  0  0  0  0
   47.8786    9.7881   19.8244 O   0  0  0  0  0  0  0  0  0  0  0  0
   48.4611    9.1919   20.2734 H   0  0  0  0  0  0  0  0  0  0  0  0
   48.3250   10.6684   19.9090 H   0  0  0  0  0  0  0  0  0  0  0  0
   46.4665    9.7887   19.6348 H   0  0  0  0  0  0  0  0  0  0  0  0
   46.3631   11.4300   19.8748 H   0  0  0  0  0  0  0  0  0  0  0  0
   50.8122    9.1446   17.7299 H   0  0  0  0  0  0  0  0  0  0  0  0
   50.3382   13.3664   18.3030 H   0  0  0  0  0  0  0  0  0  0  0  0
   51.7210   11.4528   17.5880 H   0  0  0  0  0  0  0  0  0  0  0  0
   48.4095   14.3100   19.1133 H   0  0  0  0  0  0  0  0  0  0  0  0
   46.9359   13.4773   18.6594 H   0  0  0  0  0  0  0  0  0  0  0  0
   47.4873    5.9164   19.0051 H   0  0  0  0  0  0  0  0  0  0  0  0
   48.8016    9.3987   21.2165 H   0  0  0  0  0  0  0  0  0  0  0  0
   47.0210    4.7565   21.1305 H   0  0  0  0  0  0  0  0  0  0  0  0
   48.3211    8.2461   23.3117 H   0  0  0  0  0  0  0  0  0  0  0  0
   46.9925   10.8135   18.0523 H   0  0  0  0  0  0  0  0  0  0  0  0
   46.7699    9.4704   18.9966 H   0  0  0  0  0  0  0  0  0  0  0  0
   48.5840   10.7154   23.2549 H   0  0  0  0  0  0  0  0  0  0  0  0
   49.0663   14.1018   20.6725 H   0  0  0  0  0  0  0  0  0  0  0  0
   49.4002   13.0251   22.8721 H   0  0  0  0  0  0  0  0  0  0  0  0
   46.8370   13.2429   18.2263 H   0  0  0  0  0  0  0  0  0  0  0  0
   48.3171   14.1422   18.5142 H   0  0  0  0  0  0  0  0  0  0  0  0
   46.5602    6.5724   21.7513 H   0  0  0  0  0  0  0  0  0  0  0  0
   49.4801    9.0267   19.6998 H   0  0  0  0  0  0  0  0  0  0  0  0
   47.4721    4.5720   20.6312 H   0  0  0  0  0  0  0  0  0  0  0  0
   50.3666    7.0375   18.5873 H   0  0  0  0  0  0  0  0  0  0  0  0
   48.3487   10.6660   19.9230 H   0  0  0  0  0  0  0  0  0  0  0  0
   48.4385    9.1809   20.2625 H   0  0  0  0  0  0  0  0  0  0  0  0
   48.5056    9.2176   20.2938 H   0  0  0  0  0  0  0  0  0  0  0  0
   48.2775   10.6695   19.8816 H   0  0  0  0  0  0  0  0  0  0  0  0
  2 18  1  0
  3  9  2  0
  4 21  1  0
  5 21  2  0
  6  8  1  0
  7  8  2  0
  7  9  1  0
  7 12  1  0
  8 10  1  0
  9 11  1  0
 10 13  2  0
 10 15  1  0
 11 16  2  0
 11 17  1  0
 12 14  2  0
 13 14  1  0
 15 21  1  0
 16 19  1  0
 17 20  2  0
 18 19  2  0
 18 20  1  0
 22 38  1  0
 23 29  2  0
 24 41  1  0
 25 41  2  0
 26 28  1  0
 27 28  2  0
 27 29  1  0
 27 32  1  0
 28 30  1  0
 29 31  1  0
 30 33  2  0
 30 35  1  0
 31 36  2  0
 31 37  1  0
 32 34  2  0
 33 34  1  0
 35 41  1  0
 36 39  1  0
 37 40  2  0
 38 39  2  0
 38 40  1  0
  1 46  1  0
  1 47  1  0
  6 48  1  0
  6 49  1  0
 12 50  1  0
 13 51  1  0
 14 52  1  0
 15 53  1  0
 15 54  1  0
 16 55  1  0
 17 56  1  0
 19 57  1  0
 20 58  1  0
 26 59  1  0
 26 60  1  0
 32 61  1  0
 33 62  1  0
 34 63  1  0
 35 64  1  0
 35 65  1  0
 36 66  1  0
 37 67  1  0
 39 68  1  0
 40 69  1  0
 44 70  1  0
 44 71  1  0
 45 72  1  0
 45 73  1  0
M  CHG  4   4  -1  24  -1  42   1  43   1
M  END
> <Uni-Dock RESULT> 
ENERGY=   -5.500  LOWER_BOUND=    2.675  UPPER_BOUND=    6.191
INTER + INTRA:          -5.500
INTER:                  -5.500
INTRA:                   0.000
UNBOUND:                 0.000

$$$$

     RDKit          3D

 73 70  0  0  0  0  0  0  0  0999 V2000
   48.3821    6.1382   16.0012 O   0  0  0  0  0  0  0  0  0  0  0  0
   45.3393    5.8359   10.8254 Br  0  0  0  0  0  0  0  0  0  0  0  0
   49.4221    8.9984   15.3170 O   0  0  0  0  0  0  0  0  0  0  0  0
   48.7619    2.2332   17.9386 O   0  0  0  0  0  0  0  0  0  0  0  0
   47.0731    3.7516   18.2141 O   0  0  0  0  0  0  0  0  0  0  0  0
   47.7561    6.2776   17.4149 N   0  0  0  0  0  0  0  0  0  0  0  0
   49.8312    6.8874   16.2303 C   0  0  0  0  0  0  0  0  0  0  0  0
   49.1296    6.0798   17.1511 C   0  0  0  0  0  0  0  0  0  0  0  0
   49.1489    7.7985   15.2871 C   0  0  0  0  0  0  0  0  0  0  0  0
   49.8833    5.2171   17.9816 C   0  0  0  0  0  0  0  0  0  0  0  0
   48.2140    7.2742   14.2469 C   0  0  0  0  0  0  0  0  0  0  0  0
   51.2291    6.8363   16.1234 C   0  0  0  0  0  0  0  0  0  0  0  0
   51.2844    5.1739   17.8615 C   0  0  0  0  0  0  0  0  0  0  0  0
   51.9537    5.9758   16.9376 C   0  0  0  0  0  0  0  0  0  0  0  0
   49.2262    4.3080   19.0026 C   0  0  0  0  0  0  0  0  0  0  0  0
   47.5261    8.2052   13.4529 C   0  0  0  0  0  0  0  0  0  0  0  0
   48.0322    5.9050   14.0044 C   0  0  0  0  0  0  0  0  0  0  0  0
   46.4938    6.4149   12.2080 C   0  0  0  0  0  0  0  0  0  0  0  0
   46.6677    7.7784   12.4352 C   0  0  0  0  0  0  0  0  0  0  0  0
   47.1672    5.4769   12.9904 C   0  0  0  0  0  0  0  0  0  0  0  0
   48.2649    3.3287   18.3207 C   0  0  0  0  0  0  0  0  0  0  0  0
   49.4277   10.1160   11.5377 Br  0  0  0  0  0  0  0  0  0  0  0  0
   45.9951    4.9452   14.3973 O   0  0  0  0  0  0  0  0  0  0  0  0
   51.7636    5.9243   18.8137 O   0  0  0  0  0  0  0  0  0  0  0  0
   49.9855    7.3682   18.8398 O   0  0  0  0  0  0  0  0  0  0  0  0
   47.8500    6.5693   17.3665 N   0  0  0  0  0  0  0  0  0  0  0  0
   47.8350    4.6562   15.8105 C   0  0  0  0  0  0  0  0  0  0  0  0
   48.2966    5.2822   16.9876 C   0  0  0  0  0  0  0  0  0  0  0  0
   47.0904    5.3769   14.7544 C   0  0  0  0  0  0  0  0  0  0  0  0
   49.0328    4.4984   17.9087 C   0  0  0  0  0  0  0  0  0  0  0  0
   47.6853    6.5500   14.0477 C   0  0  0  0  0  0  0  0  0  0  0  0
   48.1027    3.3039   15.5467 C   0  0  0  0  0  0  0  0  0  0  0  0
   49.2945    3.1443   17.6276 C   0  0  0  0  0  0  0  0  0  0  0  0
   48.8365    2.5507   16.4525 C   0  0  0  0  0  0  0  0  0  0  0  0
   49.5807    5.0733   19.2019 C   0  0  0  0  0  0  0  0  0  0  0  0
   46.8588    7.2839   13.1810 C   0  0  0  0  0  0  0  0  0  0  0  0
   49.0370    6.9055   14.1677 C   0  0  0  0  0  0  0  0  0  0  0  0
   48.7213    8.6916   12.5672 C   0  0  0  0  0  0  0  0  0  0  0  0
   47.3748    8.3530   12.4423 C   0  0  0  0  0  0  0  0  0  0  0  0
   49.5524    7.9800   13.4323 C   0  0  0  0  0  0  0  0  0  0  0  0
   50.5435    6.2308   18.9239 C   0  0  0  0  0  0  0  0  0  0  0  0
   48.6269    5.8771   15.8276 Na  0  0  0  0  0 15  0  0  0  0  0  0
   48.6269    5.8771   15.8276 Na  0  0  0  0  0 15  0  0  0  0  0  0
   48.3849    6.1325   16.0134 O   0  0  0  0  0  0  0  0  0  0  0  0
   48.3770    6.1491   15.9760 O   0  0  0  0  0  0  0  0  0  0  0  0
   48.5985    6.0576   15.0600 H   0  0  0  0  0  0  0  0  0  0  0  0
   48.9003    5.4355   16.4214 H   0  0  0  0  0  0  0  0  0  0  0  0
   47.1999    6.6040   16.6374 H   0  0  0  0  0  0  0  0  0  0  0  0
   47.3084    5.4198   17.7984 H   0  0  0  0  0  0  0  0  0  0  0  0
   51.7447    7.4661   15.4005 H   0  0  0  0  0  0  0  0  0  0  0  0
   51.8573    4.4995   18.4930 H   0  0  0  0  0  0  0  0  0  0  0  0
   53.0358    5.9251   16.8608 H   0  0  0  0  0  0  0  0  0  0  0  0
   49.9755    3.7312   19.5585 H   0  0  0  0  0  0  0  0  0  0  0  0
   48.7013    4.9190   19.7493 H   0  0  0  0  0  0  0  0  0  0  0  0
   47.6616    9.2726   13.6210 H   0  0  0  0  0  0  0  0  0  0  0  0
   48.5452    5.1476   14.5940 H   0  0  0  0  0  0  0  0  0  0  0  0
   46.1459    8.5140   11.8302 H   0  0  0  0  0  0  0  0  0  0  0  0
   47.0308    4.4100   12.8299 H   0  0  0  0  0  0  0  0  0  0  0  0
   48.5171    7.0283   18.0216 H   0  0  0  0  0  0  0  0  0  0  0  0
   47.6783    7.2129   16.6048 H   0  0  0  0  0  0  0  0  0  0  0  0
   47.7412    2.8479   14.6258 H   0  0  0  0  0  0  0  0  0  0  0  0
   49.8702    2.5504   18.3335 H   0  0  0  0  0  0  0  0  0  0  0  0
   49.0507    1.5065   16.2484 H   0  0  0  0  0  0  0  0  0  0  0  0
   48.7513    5.4115   19.8348 H   0  0  0  0  0  0  0  0  0  0  0  0
   50.1129    4.3046   19.7776 H   0  0  0  0  0  0  0  0  0  0  0  0
   45.8092    7.0152   13.0694 H   0  0  0  0  0  0  0  0  0  0  0  0
   49.7146    6.3634   14.8249 H   0  0  0  0  0  0  0  0  0  0  0  0
   46.7221    8.9025   11.7684 H   0  0  0  0  0  0  0  0  0  0  0  0
   50.6037    8.2436   13.5385 H   0  0  0  0  0  0  0  0  0  0  0  0
   48.9151    5.4213   16.4030 H   0  0  0  0  0  0  0  0  0  0  0  0
   48.5808    6.0775   15.0664 H   0  0  0  0  0  0  0  0  0  0  0  0
   48.6342    6.0163   15.0512 H   0  0  0  0  0  0  0  0  0  0  0  0
   48.8697    5.4659   16.4554 H   0  0  0  0  0  0  0  0  0  0  0  0
  2 18  1  0
  3  9  2  0
  4 21  1  0
  5 21  2  0
  6  8  1  0
  7  8  2  0
  7  9  1  0
  7 12  1  0
  8 10  1  0
  9 11  1  0
 10 13  2  0
 10 15  1  0
 11 16  2  0
 11 17  1  0
 12 14  2  0
 13 14  1  0
 15 21  1  0
 16 19  1  0
 17 20  2  0
 18 19  2  0
 18 20  1  0
 22 38  1  0
 23 29  2  0
 24 41  1  0
 25 41  2  0
 26 28  1  0
 27 28  2  0
 27 29  1  0
 27 32  1  0
 28 30  1  0
 29 31  1  0
 30 33  2  0
 30 35  1  0
 31 36  2  0
 31 37  1  0
 32 34  2  0
 33 34  1  0
 35 41  1  0
 36 39  1  0
 37 40  2  0
 38 39  2  0
 38 40  1  0
  1 46  1  0
  1 47  1  0
  6 48  1  0
  6 49  1  0
 12 50  1  0
 13 51  1  0
 14 52  1  0
 15 53  1  0
 15 54  1  0
 16 55  1  0
 17 56  1  0
 19 57  1  0
 20 58  1  0
 26 59  1  0
 26 60  1  0
 32 61  1  0
 33 62  1  0
 34 63  1  0
 35 64  1  0
 35 65  1  0
 36 66  1  0
 37 67  1  0
 39 68  1  0
 40 69  1  0
 44 70  1  0
 44 71  1  0
 45 72  1  0
 45 73  1  0
M  CHG  4   4  -1  24  -1  42   1  43   1
M  END
> <Uni-Dock RESULT> 
ENERGY=   -5.183  LOWER_BOUND=    3.976  UPPER_BOUND=    5.594
INTER + INTRA:          -5.183
INTER:                  -5.183
INTRA:                   0.000
UNBOUND:                 0.000

$$$$

     RDKit          3D

 73 70  0  0  0  0  0  0  0  0999 V2000
   46.4271    9.5160   12.5453 O   0  0  0  0  0  0  0  0  0  0  0  0
   42.3480   13.1405   10.0228 Br  0  0  0  0  0  0  0  0  0  0  0  0
   48.4014   11.8945   12.9638 O   0  0  0  0  0  0  0  0  0  0  0  0
   45.5391    5.2852   11.8676 O   0  0  0  0  0  0  0  0  0  0  0  0
   44.8197    6.5845   13.6078 O   0  0  0  0  0  0  0  0  0  0  0  0
   46.3106    8.8538   13.9445 N   0  0  0  0  0  0  0  0  0  0  0  0
   48.0627    9.6520   12.4036 C   0  0  0  0  0  0  0  0  0  0  0  0
   47.3399    8.6023   13.0104 C   0  0  0  0  0  0  0  0  0  0  0  0
   47.6326   11.0642   12.4792 C   0  0  0  0  0  0  0  0  0  0  0  0
   47.8239    7.2833   12.8426 C   0  0  0  0  0  0  0  0  0  0  0  0
   46.3310   11.5072   11.8956 C   0  0  0  0  0  0  0  0  0  0  0  0
   49.2175    9.4073   11.6455 C   0  0  0  0  0  0  0  0  0  0  0  0
   48.9815    7.0524   12.0771 C   0  0  0  0  0  0  0  0  0  0  0  0
   49.6732    8.1060   11.4803 C   0  0  0  0  0  0  0  0  0  0  0  0
   47.1206    6.0856   13.4521 C   0  0  0  0  0  0  0  0  0  0  0  0
   45.9430   12.8417   12.0931 C   0  0  0  0  0  0  0  0  0  0  0  0
   45.5124   10.6654   11.1290 C   0  0  0  0  0  0  0  0  0  0  0  0
   43.9505   12.4802   10.7818 C   0  0  0  0  0  0  0  0  0  0  0  0
   44.7558   13.3290   11.5381 C   0  0  0  0  0  0  0  0  0  0  0  0
   44.3199   11.1506   10.5791 C   0  0  0  0  0  0  0  0  0  0  0  0
   45.6887    5.9661   12.9198 C   0  0  0  0  0  0  0  0  0  0  0  0
   47.9287   15.1121   10.7376 Br  0  0  0  0  0  0  0  0  0  0  0  0
   43.4370   10.0947   11.8987 O   0  0  0  0  0  0  0  0  0  0  0  0
   49.9669    6.9239   12.9208 O   0  0  0  0  0  0  0  0  0  0  0  0
   49.0742    8.3414   14.4831 O   0  0  0  0  0  0  0  0  0  0  0  0
   46.5069    9.0853   14.0086 N   0  0  0  0  0  0  0  0  0  0  0  0
   45.2574    8.6283   11.9322 C   0  0  0  0  0  0  0  0  0  0  0  0
   46.2308    8.2682   12.8879 C   0  0  0  0  0  0  0  0  0  0  0  0
   44.6614    9.9805   11.8604 C   0  0  0  0  0  0  0  0  0  0  0  0
   46.7574    6.9550   12.8336 C   0  0  0  0  0  0  0  0  0  0  0  0
   45.5072   11.1912   11.6406 C   0  0  0  0  0  0  0  0  0  0  0  0
   44.8281    7.7247   10.9478 C   0  0  0  0  0  0  0  0  0  0  0  0
   46.3177    6.0621   11.8383 C   0  0  0  0  0  0  0  0  0  0  0  0
   45.3622    6.4446   10.8983 C   0  0  0  0  0  0  0  0  0  0  0  0
   47.8124    6.4666   13.8090 C   0  0  0  0  0  0  0  0  0  0  0  0
   44.8948   12.4503   11.7526 C   0  0  0  0  0  0  0  0  0  0  0  0
   46.8584   11.1187   11.2707 C   0  0  0  0  0  0  0  0  0  0  0  0
   46.9594   13.5311   11.1228 C   0  0  0  0  0  0  0  0  0  0  0  0
   45.6188   13.6183   11.4951 C   0  0  0  0  0  0  0  0  0  0  0  0
   47.5851   12.2888   11.0184 C   0  0  0  0  0  0  0  0  0  0  0  0
   49.0781    7.3238   13.7238 C   0  0  0  0  0  0  0  0  0  0  0  0
   46.4792    9.3810   12.1747 Na  0  0  0  0  0 15  0  0  0  0  0  0
   46.4792    9.3810   12.1747 Na  0  0  0  0  0 15  0  0  0  0  0  0
   46.4302    9.5035   12.5502 O   0  0  0  0  0  0  0  0  0  0  0  0
   46.4211    9.5411   12.5346 O   0  0  0  0  0  0  0  0  0  0  0  0
   46.3373   10.0052   11.7136 H   0  0  0  0  0  0  0  0  0  0  0  0
   46.6733    8.6216   12.2653 H   0  0  0  0  0  0  0  0  0  0  0  0
   45.7753    9.6973   13.7949 H   0  0  0  0  0  0  0  0  0  0  0  0
   45.6471    8.0548   14.0135 H   0  0  0  0  0  0  0  0  0  0  0  0
   49.7527   10.2350   11.1835 H   0  0  0  0  0  0  0  0  0  0  0  0
   49.3413    6.0356   11.9404 H   0  0  0  0  0  0  0  0  0  0  0  0
   50.5637    7.9044   10.8923 H   0  0  0  0  0  0  0  0  0  0  0  0
   47.6558    5.1555   13.2254 H   0  0  0  0  0  0  0  0  0  0  0  0
   47.1272    6.1782   14.5466 H   0  0  0  0  0  0  0  0  0  0  0  0
   46.5705   13.5123   12.6784 H   0  0  0  0  0  0  0  0  0  0  0  0
   45.7734    9.6244   10.9487 H   0  0  0  0  0  0  0  0  0  0  0  0
   44.4737   14.3650   11.7005 H   0  0  0  0  0  0  0  0  0  0  0  0
   43.6938   10.4757   10.0001 H   0  0  0  0  0  0  0  0  0  0  0  0
   47.4505    8.8879   14.4029 H   0  0  0  0  0  0  0  0  0  0  0  0
   46.4460   10.0823   13.8467 H   0  0  0  0  0  0  0  0  0  0  0  0
   44.0810    8.0318   10.2168 H   0  0  0  0  0  0  0  0  0  0  0  0
   46.7342    5.0585   11.7946 H   0  0  0  0  0  0  0  0  0  0  0  0
   45.0369    5.7457   10.1344 H   0  0  0  0  0  0  0  0  0  0  0  0
   47.4080    6.4850   14.8282 H   0  0  0  0  0  0  0  0  0  0  0  0
   48.0815    5.4220   13.6040 H   0  0  0  0  0  0  0  0  0  0  0  0
   43.8440   12.5237   12.0300 H   0  0  0  0  0  0  0  0  0  0  0  0
   47.3729   10.1649   11.1689 H   0  0  0  0  0  0  0  0  0  0  0  0
   45.1247   14.5834   11.5765 H   0  0  0  0  0  0  0  0  0  0  0  0
   48.6337   12.2147   10.7339 H   0  0  0  0  0  0  0  0  0  0  0  0
   46.6750    8.6197   12.2378 H   0  0  0  0  0  0  0  0  0  0  0  0
   46.3325   10.0197   11.7363 H   0  0  0  0  0  0  0  0  0  0  0  0
   46.3478    9.9727   11.6701 H   0  0  0  0  0  0  0  0  0  0  0  0
   46.6689    8.6291   12.3195 H   0  0  0  0  0  0  0  0  0  0  0  0
  2 18  1  0
  3  9  2  0
  4 21  1  0
  5 21  2  0
  6  8  1  0
  7  8  2  0
  7  9  1  0
  7 12  1  0
  8 10  1  0
  9 11  1  0
 10 13  2  0
 10 15  1  0
 11 16  2  0
 11 17  1  0
 12 14  2  0
 13 14  1  0
 15 21  1  0
 16 19  1  0
 17 20  2  0
 18 19  2  0
 18 20  1  0
 22 38  1  0
 23 29  2  0
 24 41  1  0
 25 41  2  0
 26 28  1  0
 27 28  2  0
 27 29  1  0
 27 32  1  0
 28 30  1  0
 29 31  1  0
 30 33  2  0
 30 35  1  0
 31 36  2  0
 31 37  1  0
 32 34  2  0
 33 34  1  0
 35 41  1  0
 36 39  1  0
 37 40  2  0
 38 39  2  0
 38 40  1  0
  1 46  1  0
  1 47  1  0
  6 48  1  0
  6 49  1  0
 12 50  1  0
 13 51  1  0
 14 52  1  0
 15 53  1  0
 15 54  1  0
 16 55  1  0
 17 56  1  0
 19 57  1  0
 20 58  1  0
 26 59  1  0
 26 60  1  0
 32 61  1  0
 33 62  1  0
 34 63  1  0
 35 64  1  0
 35 65  1  0
 36 66  1  0
 37 67  1  0
 39 68  1  0
 40 69  1  0
 44 70  1  0
 44 71  1  0
 45 72  1  0
 45 73  1  0
M  CHG  4   4  -1  24  -1  42   1  43   1
M  END
> <Uni-Dock RESULT> 
ENERGY=   -5.146  LOWER_BOUND=    6.556  UPPER_BOUND=    8.092
INTER + INTRA:          -5.146
INTER:                  -5.146
INTRA:                   0.000
UNBOUND:                 0.000

$$$$

     RDKit          3D

 73 70  0  0  0  0  0  0  0  0999 V2000
   48.5848    8.5568   16.9116 O   0  0  0  0  0  0  0  0  0  0  0  0
   47.3564    5.4500   21.9094 Br  0  0  0  0  0  0  0  0  0  0  0  0
   48.6723    5.9434   15.2108 O   0  0  0  0  0  0  0  0  0  0  0  0
   49.8064   12.6704   17.7677 O   0  0  0  0  0  0  0  0  0  0  0  0
   47.6778   11.9070   17.4210 O   0  0  0  0  0  0  0  0  0  0  0  0
   47.5968    9.4836   16.1536 N   0  0  0  0  0  0  0  0  0  0  0  0
   49.5509    8.0579   15.6741 C   0  0  0  0  0  0  0  0  0  0  0  0
   48.9667    9.3315   15.8447 C   0  0  0  0  0  0  0  0  0  0  0  0
   48.8663    6.8076   16.0657 C   0  0  0  0  0  0  0  0  0  0  0  0
   49.7278   10.4634   15.4686 C   0  0  0  0  0  0  0  0  0  0  0  0
   48.4964    6.5429   17.4884 C   0  0  0  0  0  0  0  0  0  0  0  0
   50.8480    7.9066   15.1615 C   0  0  0  0  0  0  0  0  0  0  0  0
   51.0285   10.2970   14.9588 C   0  0  0  0  0  0  0  0  0  0  0  0
   51.5868    9.0280   14.8079 C   0  0  0  0  0  0  0  0  0  0  0  0
   49.1931   11.8754   15.6126 C   0  0  0  0  0  0  0  0  0  0  0  0
   47.7597    5.3817   17.7703 C   0  0  0  0  0  0  0  0  0  0  0  0
   48.8896    7.3747   18.5467 C   0  0  0  0  0  0  0  0  0  0  0  0
   47.8115    5.8938   20.1273 C   0  0  0  0  0  0  0  0  0  0  0  0
   47.4173    5.0562   19.0862 C   0  0  0  0  0  0  0  0  0  0  0  0
   48.5407    7.0532   19.8638 C   0  0  0  0  0  0  0  0  0  0  0  0
   48.8669   12.1873   17.0770 C   0  0  0  0  0  0  0  0  0  0  0  0
   49.2876    2.5306   17.0834 Br  0  0  0  0  0  0  0  0  0  0  0  0
   47.3068    8.5024   19.7502 O   0  0  0  0  0  0  0  0  0  0  0  0
   50.9334   10.3757   13.6611 O   0  0  0  0  0  0  0  0  0  0  0  0
   48.8184    9.5011   13.5657 O   0  0  0  0  0  0  0  0  0  0  0  0
   47.5891    9.2328   15.9712 N   0  0  0  0  0  0  0  0  0  0  0  0
   48.6778    9.5352   18.1630 C   0  0  0  0  0  0  0  0  0  0  0  0
   48.5514    9.8601   16.7959 C   0  0  0  0  0  0  0  0  0  0  0  0
   48.0361    8.3490   18.7713 C   0  0  0  0  0  0  0  0  0  0  0  0
   49.2444   10.9992   16.3197 C   0  0  0  0  0  0  0  0  0  0  0  0
   48.3365    6.9693   18.2861 C   0  0  0  0  0  0  0  0  0  0  0  0
   49.4727   10.3034   19.0279 C   0  0  0  0  0  0  0  0  0  0  0  0
   50.0392   11.7572   17.1999 C   0  0  0  0  0  0  0  0  0  0  0  0
   50.1568   11.4102   18.5448 C   0  0  0  0  0  0  0  0  0  0  0  0
   49.1823   11.4339   14.8670 C   0  0  0  0  0  0  0  0  0  0  0  0
   47.5660    5.9109   18.7952 C   0  0  0  0  0  0  0  0  0  0  0  0
   49.3858    6.6860   17.3992 C   0  0  0  0  0  0  0  0  0  0  0  0
   48.8912    4.3229   17.5503 C   0  0  0  0  0  0  0  0  0  0  0  0
   47.8418    4.5902   18.4281 C   0  0  0  0  0  0  0  0  0  0  0  0
   49.6582    5.3638   17.0270 C   0  0  0  0  0  0  0  0  0  0  0  0
   49.7028   10.3312   13.9411 C   0  0  0  0  0  0  0  0  0  0  0  0
   48.9438    8.6046   17.0761 Na  0  0  0  0  0 15  0  0  0  0  0  0
   48.9438    8.6046   17.0761 Na  0  0  0  0  0 15  0  0  0  0  0  0
   48.5861    8.5691   16.9055 O   0  0  0  0  0  0  0  0  0  0  0  0
   48.5830    8.5320   16.9243 O   0  0  0  0  0  0  0  0  0  0  0  0
   49.0589    7.9474   17.4972 H   0  0  0  0  0  0  0  0  0  0  0  0
   49.1878    9.3097   16.8197 H   0  0  0  0  0  0  0  0  0  0  0  0
   47.1902    8.7578   16.7266 H   0  0  0  0  0  0  0  0  0  0  0  0
   47.4013   10.4017   16.6035 H   0  0  0  0  0  0  0  0  0  0  0  0
   51.2766    6.9127   15.0456 H   0  0  0  0  0  0  0  0  0  0  0  0
   51.6138   11.1709   14.6839 H   0  0  0  0  0  0  0  0  0  0  0  0
   52.5933    8.9230   14.4139 H   0  0  0  0  0  0  0  0  0  0  0  0
   49.9212   12.6125   15.2528 H   0  0  0  0  0  0  0  0  0  0  0  0
   48.3047   11.9945   14.9776 H   0  0  0  0  0  0  0  0  0  0  0  0
   47.4532    4.7194   16.9620 H   0  0  0  0  0  0  0  0  0  0  0  0
   49.4623    8.2842   18.3758 H   0  0  0  0  0  0  0  0  0  0  0  0
   46.8487    4.1524   19.2843 H   0  0  0  0  0  0  0  0  0  0  0  0
   48.8443    7.7205   20.6670 H   0  0  0  0  0  0  0  0  0  0  0  0
   47.8459    9.3006   14.9640 H   0  0  0  0  0  0  0  0  0  0  0  0
   47.4085    8.2584   16.1755 H   0  0  0  0  0  0  0  0  0  0  0  0
   49.5593   10.0251   20.0776 H   0  0  0  0  0  0  0  0  0  0  0  0
   50.5782   12.6244   16.8258 H   0  0  0  0  0  0  0  0  0  0  0  0
   50.7773   12.0024   19.2096 H   0  0  0  0  0  0  0  0  0  0  0  0
   48.1500   11.6955   14.6049 H   0  0  0  0  0  0  0  0  0  0  0  0
   49.7799   12.3403   14.7037 H   0  0  0  0  0  0  0  0  0  0  0  0
   46.7535    6.1128   19.4919 H   0  0  0  0  0  0  0  0  0  0  0  0
   50.0104    7.4740   16.9822 H   0  0  0  0  0  0  0  0  0  0  0  0
   47.2413    3.7834   18.8410 H   0  0  0  0  0  0  0  0  0  0  0  0
   50.4755    5.1617   16.3362 H   0  0  0  0  0  0  0  0  0  0  0  0
   49.2110    9.3060   16.8340 H   0  0  0  0  0  0  0  0  0  0  0  0
   49.0343    7.9389   17.4888 H   0  0  0  0  0  0  0  0  0  0  0  0
   49.1081    7.9681   17.5120 H   0  0  0  0  0  0  0  0  0  0  0  0
   49.1404    9.3138   16.7922 H   0  0  0  0  0  0  0  0  0  0  0  0
  2 18  1  0
  3  9  2  0
  4 21  1  0
  5 21  2  0
  6  8  1  0
  7  8  2  0
  7  9  1  0
  7 12  1  0
  8 10  1  0
  9 11  1  0
 10 13  2  0
 10 15  1  0
 11 16  2  0
 11 17  1  0
 12 14  2  0
 13 14  1  0
 15 21  1  0
 16 19  1  0
 17 20  2  0
 18 19  2  0
 18 20  1  0
 22 38  1  0
 23 29  2  0
 24 41  1  0
 25 41  2  0
 26 28  1  0
 27 28  2  0
 27 29  1  0
 27 32  1  0
 28 30  1  0
 29 31  1  0
 30 33  2  0
 30 35  1  0
 31 36  2  0
 31 37  1  0
 32 34  2  0
 33 34  1  0
 35 41  1  0
 36 39  1  0
 37 40  2  0
 38 39  2  0
 38 40  1  0
  1 46  1  0
  1 47  1  0
  6 48  1  0
  6 49  1  0
 12 50  1  0
 13 51  1  0
 14 52  1  0
 15 53  1  0
 15 54  1  0
 16 55  1  0
 17 56  1  0
 19 57  1  0
 20 58  1  0
 26 59  1  0
 26 60  1  0
 32 61  1  0
 33 62  1  0
 34 63  1  0
 35 64  1  0
 35 65  1  0
 36 66  1  0
 37 67  1  0
 39 68  1  0
 40 69  1  0
 44 70  1  0
 44 71  1  0
 45 72  1  0
 45 73  1  0
M  CHG  4   4  -1  24  -1  42   1  43   1
M  END
> <Uni-Dock RESULT> 
ENERGY=   -4.815  LOWER_BOUND=    2.991  UPPER_BOUND=    6.177
INTER + INTRA:          -4.815
INTER:                  -4.815
INTRA:                   0.000
UNBOUND:                 0.000

$$$$

     RDKit          3D

 73 70  0  0  0  0  0  0  0  0999 V2000
   48.9624    9.5259   19.5659 O   0  0  0  0  0  0  0  0  0  0  0  0
   48.1164    8.9137   13.6457 Br  0  0  0  0  0  0  0  0  0  0  0  0
   49.6532    6.4985   19.8626 O   0  0  0  0  0  0  0  0  0  0  0  0
   47.3835   13.3117   21.0896 O   0  0  0  0  0  0  0  0  0  0  0  0
   49.4871   12.9201   20.2798 O   0  0  0  0  0  0  0  0  0  0  0  0
   50.1484   10.2656   20.2411 N   0  0  0  0  0  0  0  0  0  0  0  0
   48.6037    8.4029   20.7165 C   0  0  0  0  0  0  0  0  0  0  0  0
   49.0309    9.7326   20.9212 C   0  0  0  0  0  0  0  0  0  0  0  0
   49.1016    7.5679   19.6030 C   0  0  0  0  0  0  0  0  0  0  0  0
   48.4602   10.4518   21.9978 C   0  0  0  0  0  0  0  0  0  0  0  0
   48.8620    7.9552   18.1804 C   0  0  0  0  0  0  0  0  0  0  0  0
   47.6361    7.8067   21.5389 C   0  0  0  0  0  0  0  0  0  0  0  0
   47.4885    9.8423   22.8125 C   0  0  0  0  0  0  0  0  0  0  0  0
   47.0768    8.5296   22.5844 C   0  0  0  0  0  0  0  0  0  0  0  0
   48.8493   11.8858   22.3024 C   0  0  0  0  0  0  0  0  0  0  0  0
   49.4498    7.1683   17.1777 C   0  0  0  0  0  0  0  0  0  0  0  0
   48.0461    9.0339   17.8102 C   0  0  0  0  0  0  0  0  0  0  0  0
   48.4208    8.5312   15.4734 C   0  0  0  0  0  0  0  0  0  0  0  0
   49.2308    7.4540   15.8266 C   0  0  0  0  0  0  0  0  0  0  0  0
   47.8323    9.3251   16.4577 C   0  0  0  0  0  0  0  0  0  0  0  0
   48.5368   12.7992   21.1123 C   0  0  0  0  0  0  0  0  0  0  0  0
   48.4183    4.0291   17.0502 Br  0  0  0  0  0  0  0  0  0  0  0  0
   48.9634   10.8338   16.7404 O   0  0  0  0  0  0  0  0  0  0  0  0
   48.1059    9.4298   23.8841 O   0  0  0  0  0  0  0  0  0  0  0  0
   50.0969    9.0328   22.8233 O   0  0  0  0  0  0  0  0  0  0  0  0
   50.2373    9.9708   20.2797 N   0  0  0  0  0  0  0  0  0  0  0  0
   48.3367   10.8719   18.9924 C   0  0  0  0  0  0  0  0  0  0  0  0
   49.0042   10.6603   20.2173 C   0  0  0  0  0  0  0  0  0  0  0  0
   48.7048   10.1697   17.7433 C   0  0  0  0  0  0  0  0  0  0  0  0
   48.5365   11.3609   21.3553 C   0  0  0  0  0  0  0  0  0  0  0  0
   48.6684    8.6799   17.6504 C   0  0  0  0  0  0  0  0  0  0  0  0
   47.2359   11.7375   18.8981 C   0  0  0  0  0  0  0  0  0  0  0  0
   47.4297   12.2233   21.2439 C   0  0  0  0  0  0  0  0  0  0  0  0
   46.7801   12.4081   20.0245 C   0  0  0  0  0  0  0  0  0  0  0  0
   49.1774   11.2020   22.7217 C   0  0  0  0  0  0  0  0  0  0  0  0
   49.1910    8.0803   16.4926 C   0  0  0  0  0  0  0  0  0  0  0  0
   48.0840    7.8700   18.6354 C   0  0  0  0  0  0  0  0  0  0  0  0
   48.5382    5.9023   17.3037 C   0  0  0  0  0  0  0  0  0  0  0  0
   49.1269    6.6944   16.3191 C   0  0  0  0  0  0  0  0  0  0  0  0
   48.0251    6.4814   18.4643 C   0  0  0  0  0  0  0  0  0  0  0  0
   49.1138    9.7465   23.1923 C   0  0  0  0  0  0  0  0  0  0  0  0
   48.5663    9.5602   19.5796 Na  0  0  0  0  0 15  0  0  0  0  0  0
   48.5663    9.5602   19.5796 Na  0  0  0  0  0 15  0  0  0  0  0  0
   48.9634    9.5343   19.5767 O   0  0  0  0  0  0  0  0  0  0  0  0
   48.9595    9.5088   19.5440 O   0  0  0  0  0  0  0  0  0  0  0  0
   48.3067    9.1087   18.9869 H   0  0  0  0  0  0  0  0  0  0  0  0
   48.4297   10.0459   20.1860 H   0  0  0  0  0  0  0  0  0  0  0  0
   50.3038    9.9164   19.3061 H   0  0  0  0  0  0  0  0  0  0  0  0
   50.1164   11.3051   20.1996 H   0  0  0  0  0  0  0  0  0  0  0  0
   47.3205    6.7811   21.3552 H   0  0  0  0  0  0  0  0  0  0  0  0
   47.0437   10.4040   23.6302 H   0  0  0  0  0  0  0  0  0  0  0  0
   46.3242    8.0795   23.2249 H   0  0  0  0  0  0  0  0  0  0  0  0
   48.3129   12.2627   23.1817 H   0  0  0  0  0  0  0  0  0  0  0  0
   49.9163   11.9263   22.5599 H   0  0  0  0  0  0  0  0  0  0  0  0
   50.0794    6.3213   17.4464 H   0  0  0  0  0  0  0  0  0  0  0  0
   47.5690    9.6705   18.5530 H   0  0  0  0  0  0  0  0  0  0  0  0
   49.6927    6.8324   15.0654 H   0  0  0  0  0  0  0  0  0  0  0  0
   47.2073   10.1752   16.1942 H   0  0  0  0  0  0  0  0  0  0  0  0
   50.4148    9.5900   21.2328 H   0  0  0  0  0  0  0  0  0  0  0  0
   50.3450    9.2097   19.6218 H   0  0  0  0  0  0  0  0  0  0  0  0
   46.7338   11.8760   17.9413 H   0  0  0  0  0  0  0  0  0  0  0  0
   47.0680   12.7499   22.1239 H   0  0  0  0  0  0  0  0  0  0  0  0
   45.9251   13.0731   19.9563 H   0  0  0  0  0  0  0  0  0  0  0  0
   50.2186   11.5441   22.6819 H   0  0  0  0  0  0  0  0  0  0  0  0
   48.6747   11.8337   23.4658 H   0  0  0  0  0  0  0  0  0  0  0  0
   49.6399    8.6956   15.7141 H   0  0  0  0  0  0  0  0  0  0  0  0
   47.6641    8.2914   19.5470 H   0  0  0  0  0  0  0  0  0  0  0  0
   49.5271    6.2495   15.4113 H   0  0  0  0  0  0  0  0  0  0  0  0
   47.5694    5.8671   19.2396 H   0  0  0  0  0  0  0  0  0  0  0  0
   48.4027   10.0435   20.1809 H   0  0  0  0  0  0  0  0  0  0  0  0
   48.3328    9.1027   18.9813 H   0  0  0  0  0  0  0  0  0  0  0  0
   48.2553    9.1231   19.0014 H   0  0  0  0  0  0  0  0  0  0  0  0
   48.4840   10.0486   20.1935 H   0  0  0  0  0  0  0  0  0  0  0  0
  2 18  1  0
  3  9  2  0
  4 21  1  0
  5 21  2  0
  6  8  1  0
  7  8  2  0
  7  9  1  0
  7 12  1  0
  8 10  1  0
  9 11  1  0
 10 13  2  0
 10 15  1  0
 11 16  2  0
 11 17  1  0
 12 14  2  0
 13 14  1  0
 15 21  1  0
 16 19  1  0
 17 20  2  0
 18 19  2  0
 18 20  1  0
 22 38  1  0
 23 29  2  0
 24 41  1  0
 25 41  2  0
 26 28  1  0
 27 28  2  0
 27 29  1  0
 27 32  1  0
 28 30  1  0
 29 31  1  0
 30 33  2  0
 30 35  1  0
 31 36  2  0
 31 37  1  0
 32 34  2  0
 33 34  1  0
 35 41  1  0
 36 39  1  0
 37 40  2  0
 38 39  2  0
 38 40  1  0
  1 46  1  0
  1 47  1  0
  6 48  1  0
  6 49  1  0
 12 50  1  0
 13 51  1  0
 14 52  1  0
 15 53  1  0
 15 54  1  0
 16 55  1  0
 17 56  1  0
 19 57  1  0
 20 58  1  0
 26 59  1  0
 26 60  1  0
 32 61  1  0
 33 62  1  0
 34 63  1  0
 35 64  1  0
 35 65  1  0
 36 66  1  0
 37 67  1  0
 39 68  1  0
 40 69  1  0
 44 70  1  0
 44 71  1  0
 45 72  1  0
 45 73  1  0
M  CHG  4   4  -1  24  -1  42   1  43   1
M  END
> <Uni-Dock RESULT> 
ENERGY=   -4.792  LOWER_BOUND=    2.664  UPPER_BOUND=    5.368
INTER + INTRA:          -4.792
INTER:                  -4.792
INTRA:                   0.000
UNBOUND:                 0.000

$$$$

     RDKit          3D

 73 70  0  0  0  0  0  0  0  0999 V2000
   49.2699    7.2542   17.7324 O   0  0  0  0  0  0  0  0  0  0  0  0
   48.1114   13.1461   17.4445 Br  0  0  0  0  0  0  0  0  0  0  0  0
   49.7898    7.1235   14.6594 O   0  0  0  0  0  0  0  0  0  0  0  0
   47.9959    5.4915   21.5293 O   0  0  0  0  0  0  0  0  0  0  0  0
   50.0315    6.4209   21.0538 O   0  0  0  0  0  0  0  0  0  0  0  0
   50.5288    6.6072   18.3698 N   0  0  0  0  0  0  0  0  0  0  0  0
   48.8985    6.1369   16.5803 C   0  0  0  0  0  0  0  0  0  0  0  0
   49.4143    5.8963   17.8720 C   0  0  0  0  0  0  0  0  0  0  0  0
   49.2921    7.3089   15.7700 C   0  0  0  0  0  0  0  0  0  0  0  0
   48.9392    4.7625   18.5727 C   0  0  0  0  0  0  0  0  0  0  0  0
   49.0098    8.6997   16.2359 C   0  0  0  0  0  0  0  0  0  0  0  0
   47.9363    5.2941   16.0041 C   0  0  0  0  0  0  0  0  0  0  0  0
   47.9719    3.9277   17.9838 C   0  0  0  0  0  0  0  0  0  0  0  0
   47.4714    4.1918   16.7093 C   0  0  0  0  0  0  0  0  0  0  0  0
   49.4281    4.4159   19.9660 C   0  0  0  0  0  0  0  0  0  0  0  0
   49.5014    9.7635   15.4632 C   0  0  0  0  0  0  0  0  0  0  0  0
   48.2441    8.9819   17.3762 C   0  0  0  0  0  0  0  0  0  0  0  0
   48.4777   11.3540   16.9609 C   0  0  0  0  0  0  0  0  0  0  0  0
   49.2367   11.0884   15.8233 C   0  0  0  0  0  0  0  0  0  0  0  0
   47.9850   10.3083   17.7414 C   0  0  0  0  0  0  0  0  0  0  0  0
   49.1158    5.5483   20.9500 C   0  0  0  0  0  0  0  0  0  0  0  0
   48.2773    9.9754   12.3986 Br  0  0  0  0  0  0  0  0  0  0  0  0
   49.2172   10.0170   19.1671 O   0  0  0  0  0  0  0  0  0  0  0  0
   48.6128    2.9070   17.4871 O   0  0  0  0  0  0  0  0  0  0  0  0
   50.5243    4.0815   17.0242 O   0  0  0  0  0  0  0  0  0  0  0  0
   50.6014    6.5859   18.0689 N   0  0  0  0  0  0  0  0  0  0  0  0
   48.7004    7.7371   19.1376 C   0  0  0  0  0  0  0  0  0  0  0  0
   49.4107    6.5572   18.8312 C   0  0  0  0  0  0  0  0  0  0  0  0
   48.9663    9.0322   18.4736 C   0  0  0  0  0  0  0  0  0  0  0  0
   49.0401    5.3681   19.5046 C   0  0  0  0  0  0  0  0  0  0  0  0
   48.8357    9.1876   16.9943 C   0  0  0  0  0  0  0  0  0  0  0  0
   47.6506    7.7391   20.0692 C   0  0  0  0  0  0  0  0  0  0  0  0
   47.9834    5.3870   20.4341 C   0  0  0  0  0  0  0  0  0  0  0  0
   47.2896    6.5635   20.7125 C   0  0  0  0  0  0  0  0  0  0  0  0
   49.7337    4.0433   19.2457 C   0  0  0  0  0  0  0  0  0  0  0  0
   49.2662   10.3947   16.4194 C   0  0  0  0  0  0  0  0  0  0  0  0
   48.2504    8.2107   16.1752 C   0  0  0  0  0  0  0  0  0  0  0  0
   48.5219    9.6474   14.2480 C   0  0  0  0  0  0  0  0  0  0  0  0
   49.1105   10.6247   15.0491 C   0  0  0  0  0  0  0  0  0  0  0  0
   48.0997    8.4387   14.8017 C   0  0  0  0  0  0  0  0  0  0  0  0
   49.6044    3.6336   17.7761 C   0  0  0  0  0  0  0  0  0  0  0  0
   48.8777    7.2194   17.7890 Na  0  0  0  0  0 15  0  0  0  0  0  0
   48.8777    7.2194   17.7890 Na  0  0  0  0  0 15  0  0  0  0  0  0
   49.2719    7.2431   17.7403 O   0  0  0  0  0  0  0  0  0  0  0  0
   49.2649    7.2767   17.7165 O   0  0  0  0  0  0  0  0  0  0  0  0
   48.5637    7.8174   17.3813 H   0  0  0  0  0  0  0  0  0  0  0  0
   48.7993    6.5864   18.2534 H   0  0  0  0  0  0  0  0  0  0  0  0
   50.6187    7.5630   18.0557 H   0  0  0  0  0  0  0  0  0  0  0  0
   50.5577    6.6020   19.4102 H   0  0  0  0  0  0  0  0  0  0  0  0
   47.5511    5.5061   15.0082 H   0  0  0  0  0  0  0  0  0  0  0  0
   47.6007    3.0655   18.5322 H   0  0  0  0  0  0  0  0  0  0  0  0
   46.7239    3.5348   16.2747 H   0  0  0  0  0  0  0  0  0  0  0  0
   48.9573    3.4955   20.3325 H   0  0  0  0  0  0  0  0  0  0  0  0
   50.5066    4.2101   19.9324 H   0  0  0  0  0  0  0  0  0  0  0  0
   50.0906    9.5632   14.5695 H   0  0  0  0  0  0  0  0  0  0  0  0
   47.8418    8.1895   18.0045 H   0  0  0  0  0  0  0  0  0  0  0  0
   49.6241   11.8977   15.2116 H   0  0  0  0  0  0  0  0  0  0  0  0
   47.4008   10.5034   18.6378 H   0  0  0  0  0  0  0  0  0  0  0  0
   50.8002    5.6601   17.6348 H   0  0  0  0  0  0  0  0  0  0  0  0
   50.6319    7.2807   17.3340 H   0  0  0  0  0  0  0  0  0  0  0  0
   47.1134    8.6629   20.2808 H   0  0  0  0  0  0  0  0  0  0  0  0
   47.6959    4.4682   20.9398 H   0  0  0  0  0  0  0  0  0  0  0  0
   46.4741    6.5603   21.4287 H   0  0  0  0  0  0  0  0  0  0  0  0
   50.7906    4.1199   19.5281 H   0  0  0  0  0  0  0  0  0  0  0  0
   49.3055    3.2486   19.8706 H   0  0  0  0  0  0  0  0  0  0  0  0
   49.7144   11.1672   17.0428 H   0  0  0  0  0  0  0  0  0  0  0  0
   47.8999    7.2621   16.5778 H   0  0  0  0  0  0  0  0  0  0  0  0
   49.4400   11.5696   14.6240 H   0  0  0  0  0  0  0  0  0  0  0  0
   47.6447    7.6691   14.1800 H   0  0  0  0  0  0  0  0  0  0  0  0
   48.7720    6.5904   18.2528 H   0  0  0  0  0  0  0  0  0  0  0  0
   48.5891    7.8246   17.3741 H   0  0  0  0  0  0  0  0  0  0  0  0
   48.5140    7.7999   17.3980 H   0  0  0  0  0  0  0  0  0  0  0  0
   48.8539    6.5816   18.2526 H   0  0  0  0  0  0  0  0  0  0  0  0
  2 18  1  0
  3  9  2  0
  4 21  1  0
  5 21  2  0
  6  8  1  0
  7  8  2  0
  7  9  1  0
  7 12  1  0
  8 10  1  0
  9 11  1  0
 10 13  2  0
 10 15  1  0
 11 16  2  0
 11 17  1  0
 12 14  2  0
 13 14  1  0
 15 21  1  0
 16 19  1  0
 17 20  2  0
 18 19  2  0
 18 20  1  0
 22 38  1  0
 23 29  2  0
 24 41  1  0
 25 41  2  0
 26 28  1  0
 27 28  2  0
 27 29  1  0
 27 32  1  0
 28 30  1  0
 29 31  1  0
 30 33  2  0
 30 35  1  0
 31 36  2  0
 31 37  1  0
 32 34  2  0
 33 34  1  0
 35 41  1  0
 36 39  1  0
 37 40  2  0
 38 39  2  0
 38 40  1  0
  1 46  1  0
  1 47  1  0
  6 48  1  0
  6 49  1  0
 12 50  1  0
 13 51  1  0
 14 52  1  0
 15 53  1  0
 15 54  1  0
 16 55  1  0
 17 56  1  0
 19 57  1  0
 20 58  1  0
 26 59  1  0
 26 60  1  0
 32 61  1  0
 33 62  1  0
 34 63  1  0
 35 64  1  0
 35 65  1  0
 36 66  1  0
 37 67  1  0
 39 68  1  0
 40 69  1  0
 44 70  1  0
 44 71  1  0
 45 72  1  0
 45 73  1  0
M  CHG  4   4  -1  24  -1  42   1  43   1
M  END
> <Uni-Dock RESULT> 
ENERGY=   -4.760  LOWER_BOUND=    2.146  UPPER_BOUND=    4.303
INTER + INTRA:          -4.760
INTER:                  -4.760
INTRA:                   0.000
UNBOUND:                 0.000

$$$$

     RDKit          3D

 73 70  0  0  0  0  0  0  0  0999 V2000
   48.7097   13.7904   19.1617 O   0  0  0  0  0  0  0  0  0  0  0  0
   48.0994   15.3471   13.3873 Br  0  0  0  0  0  0  0  0  0  0  0  0
   50.8664   15.9983   19.6135 O   0  0  0  0  0  0  0  0  0  0  0  0
   46.8874    9.9104   20.0405 O   0  0  0  0  0  0  0  0  0  0  0  0
   45.8791   11.9618   20.1366 O   0  0  0  0  0  0  0  0  0  0  0  0
   47.6625   14.0316   20.2819 N   0  0  0  0  0  0  0  0  0  0  0  0
   50.1075   13.8289   20.0325 C   0  0  0  0  0  0  0  0  0  0  0  0
   48.8618   13.3012   20.4352 C   0  0  0  0  0  0  0  0  0  0  0  0
   50.2266   15.0365   19.1882 C   0  0  0  0  0  0  0  0  0  0  0  0
   48.8651   12.1190   21.2126 C   0  0  0  0  0  0  0  0  0  0  0  0
   49.6677   15.0686   17.8034 C   0  0  0  0  0  0  0  0  0  0  0  0
   51.3160   13.2038   20.3744 C   0  0  0  0  0  0  0  0  0  0  0  0
   50.0845   11.5011   21.5455 C   0  0  0  0  0  0  0  0  0  0  0  0
   51.3021   12.0376   21.1281 C   0  0  0  0  0  0  0  0  0  0  0  0
   47.5815   11.4706   21.6948 C   0  0  0  0  0  0  0  0  0  0  0  0
   49.7293   16.2807   17.0983 C   0  0  0  0  0  0  0  0  0  0  0  0
   49.1311   13.9381   17.1706 C   0  0  0  0  0  0  0  0  0  0  0  0
   48.7263   15.2355   15.1690 C   0  0  0  0  0  0  0  0  0  0  0  0
   49.2604   16.3659   15.7839 C   0  0  0  0  0  0  0  0  0  0  0  0
   48.6546   14.0244   15.8571 C   0  0  0  0  0  0  0  0  0  0  0  0
   46.6974   11.0665   20.5102 C   0  0  0  0  0  0  0  0  0  0  0  0
   52.7757   17.3995   16.4634 Br  0  0  0  0  0  0  0  0  0  0  0  0
   46.9126   13.8928   16.6212 O   0  0  0  0  0  0  0  0  0  0  0  0
   50.3720   11.8742   22.7610 O   0  0  0  0  0  0  0  0  0  0  0  0
   49.3618   13.9224   22.5820 O   0  0  0  0  0  0  0  0  0  0  0  0
   47.8636   14.2597   20.3435 N   0  0  0  0  0  0  0  0  0  0  0  0
   47.8035   12.7071   18.4286 C   0  0  0  0  0  0  0  0  0  0  0  0
   47.9425   12.9520   19.8110 C   0  0  0  0  0  0  0  0  0  0  0  0
   47.8484   13.7814   17.4122 C   0  0  0  0  0  0  0  0  0  0  0  0
   47.9224   11.8387   20.6855 C   0  0  0  0  0  0  0  0  0  0  0  0
   49.0460   14.6607   17.2642 C   0  0  0  0  0  0  0  0  0  0  0  0
   47.6620   11.4043   17.9261 C   0  0  0  0  0  0  0  0  0  0  0  0
   47.7821   10.5385   20.1649 C   0  0  0  0  0  0  0  0  0  0  0  0
   47.6568   10.3211   18.7938 C   0  0  0  0  0  0  0  0  0  0  0  0
   48.0700   11.9890   22.1884 C   0  0  0  0  0  0  0  0  0  0  0  0
   48.9504   15.7616   16.3971 C   0  0  0  0  0  0  0  0  0  0  0  0
   50.2671   14.3974   17.9026 C   0  0  0  0  0  0  0  0  0  0  0  0
   51.2664   16.3071   16.8043 C   0  0  0  0  0  0  0  0  0  0  0  0
   50.0576   16.5839   16.1676 C   0  0  0  0  0  0  0  0  0  0  0  0
   51.3744   15.2244   17.6772 C   0  0  0  0  0  0  0  0  0  0  0  0
   49.4021   12.6538   22.5457 C   0  0  0  0  0  0  0  0  0  0  0  0
   48.8950   13.4702   19.0155 Na  0  0  0  0  0 15  0  0  0  0  0  0
   48.8950   13.4702   19.0155 Na  0  0  0  0  0 15  0  0  0  0  0  0
   48.7052   13.7828   19.1723 O   0  0  0  0  0  0  0  0  0  0  0  0
   48.7193   13.8050   19.1399 O   0  0  0  0  0  0  0  0  0  0  0  0
   49.2414   13.7253   18.3541 H   0  0  0  0  0  0  0  0  0  0  0  0
   48.7340   12.8947   19.5306 H   0  0  0  0  0  0  0  0  0  0  0  0
   47.6171   14.6420   19.4784 H   0  0  0  0  0  0  0  0  0  0  0  0
   46.8293   13.4080   20.2649 H   0  0  0  0  0  0  0  0  0  0  0  0
   52.2626   13.6292   20.0458 H   0  0  0  0  0  0  0  0  0  0  0  0
   50.0805   10.5856   22.1318 H   0  0  0  0  0  0  0  0  0  0  0  0
   52.2313   11.5430   21.3952 H   0  0  0  0  0  0  0  0  0  0  0  0
   47.7913   10.5765   22.2944 H   0  0  0  0  0  0  0  0  0  0  0  0
   47.0522   12.1639   22.3623 H   0  0  0  0  0  0  0  0  0  0  0  0
   50.1507   17.1669   17.5707 H   0  0  0  0  0  0  0  0  0  0  0  0
   49.0641   12.9775   17.6778 H   0  0  0  0  0  0  0  0  0  0  0  0
   49.3185   17.3121   15.2542 H   0  0  0  0  0  0  0  0  0  0  0  0
   48.2296   13.1383   15.3915 H   0  0  0  0  0  0  0  0  0  0  0  0
   48.3270   14.3224   21.2743 H   0  0  0  0  0  0  0  0  0  0  0  0
   48.2486   14.9917   19.7607 H   0  0  0  0  0  0  0  0  0  0  0  0
   47.5648   11.2431   16.8531 H   0  0  0  0  0  0  0  0  0  0  0  0
   47.7788    9.6865   20.8406 H   0  0  0  0  0  0  0  0  0  0  0  0
   47.5540    9.3119   18.4078 H   0  0  0  0  0  0  0  0  0  0  0  0
   47.2329   12.5772   22.5834 H   0  0  0  0  0  0  0  0  0  0  0  0
   48.0208   11.0117   22.6863 H   0  0  0  0  0  0  0  0  0  0  0  0
   48.0121   15.9746   15.8865 H   0  0  0  0  0  0  0  0  0  0  0  0
   50.3878   13.5541   18.5802 H   0  0  0  0  0  0  0  0  0  0  0  0
   49.9673   17.4251   15.4846 H   0  0  0  0  0  0  0  0  0  0  0  0
   52.3144   15.0067   18.1822 H   0  0  0  0  0  0  0  0  0  0  0  0
   48.7489   12.8776   19.5149 H   0  0  0  0  0  0  0  0  0  0  0  0
   49.2309   13.7501   18.3593 H   0  0  0  0  0  0  0  0  0  0  0  0
   49.2607   13.6740   18.3470 H   0  0  0  0  0  0  0  0  0  0  0  0
   48.7051   12.9314   19.5594 H   0  0  0  0  0  0  0  0  0  0  0  0
  2 18  1  0
  3  9  2  0
  4 21  1  0
  5 21  2  0
  6  8  1  0
  7  8  2  0
  7  9  1  0
  7 12  1  0
  8 10  1  0
  9 11  1  0
 10 13  2  0
 10 15  1  0
 11 16  2  0
 11 17  1  0
 12 14  2  0
 13 14  1  0
 15 21  1  0
 16 19  1  0
 17 20  2  0
 18 19  2  0
 18 20  1  0
 22 38  1  0
 23 29  2  0
 24 41  1  0
 25 41  2  0
 26 28  1  0
 27 28  2  0
 27 29  1  0
 27 32  1  0
 28 30  1  0
 29 31  1  0
 30 33  2  0
 30 35  1  0
 31 36  2  0
 31 37  1  0
 32 34  2  0
 33 34  1  0
 35 41  1  0
 36 39  1  0
 37 40  2  0
 38 39  2  0
 38 40  1  0
  1 46  1  0
  1 47  1  0
  6 48  1  0
  6 49  1  0
 12 50  1  0
 13 51  1  0
 14 52  1  0
 15 53  1  0
 15 54  1  0
 16 55  1  0
 17 56  1  0
 19 57  1  0
 20 58  1  0
 26 59  1  0
 26 60  1  0
 32 61  1  0
 33 62  1  0
 34 63  1  0
 35 64  1  0
 35 65  1  0
 36 66  1  0
 37 67  1  0
 39 68  1  0
 40 69  1  0
 44 70  1  0
 44 71  1  0
 45 72  1  0
 45 73  1  0
M  CHG  4   4  -1  24  -1  42   1  43   1
M  END
> <Uni-Dock RESULT> 
ENERGY=   -4.724  LOWER_BOUND=    4.471  UPPER_BOUND=    6.633
INTER + INTRA:          -4.724
INTER:                  -4.724
INTRA:                   0.000
UNBOUND:                 0.000

$$$$

     RDKit          3D

 73 70  0  0  0  0  0  0  0  0999 V2000
   54.1103    6.6803   10.7221 O   0  0  0  0  0  0  0  0  0  0  0  0
   52.2567   10.8276   14.6596 Br  0  0  0  0  0  0  0  0  0  0  0  0
   56.0610    5.4439   12.8188 O   0  0  0  0  0  0  0  0  0  0  0  0
   52.9182    7.6299    6.6204 O   0  0  0  0  0  0  0  0  0  0  0  0
   51.7297    6.4232    8.1583 O   0  0  0  0  0  0  0  0  0  0  0  0
   53.2733    5.4775   10.2098 N   0  0  0  0  0  0  0  0  0  0  0  0
   55.6347    6.0664   10.6079 C   0  0  0  0  0  0  0  0  0  0  0  0
   54.5520    5.8394    9.7311 C   0  0  0  0  0  0  0  0  0  0  0  0
   55.4607    6.2132   12.0685 C   0  0  0  0  0  0  0  0  0  0  0  0
   54.8301    5.7516    8.3465 C   0  0  0  0  0  0  0  0  0  0  0  0
   54.6505    7.3298   12.6412 C   0  0  0  0  0  0  0  0  0  0  0  0
   56.9465    6.2147   10.1333 C   0  0  0  0  0  0  0  0  0  0  0  0
   56.1500    5.9054    7.8844 C   0  0  0  0  0  0  0  0  0  0  0  0
   57.2016    6.1376    8.7705 C   0  0  0  0  0  0  0  0  0  0  0  0
   53.7385    5.5113    7.3212 C   0  0  0  0  0  0  0  0  0  0  0  0
   54.4462    7.3478   14.0298 C   0  0  0  0  0  0  0  0  0  0  0  0
   54.1300    8.3729   11.8618 C   0  0  0  0  0  0  0  0  0  0  0  0
   53.2168    9.4154   13.8449 C   0  0  0  0  0  0  0  0  0  0  0  0
   53.7314    8.3875   14.6321 C   0  0  0  0  0  0  0  0  0  0  0  0
   53.4079    9.4104   12.4633 C   0  0  0  0  0  0  0  0  0  0  0  0
   52.6960    6.6337    7.3628 C   0  0  0  0  0  0  0  0  0  0  0  0
   57.1786    7.6855   15.8616 Br  0  0  0  0  0  0  0  0  0  0  0  0
   51.8660    8.6208   11.6664 O   0  0  0  0  0  0  0  0  0  0  0  0
   56.6194    4.7048    7.6903 O   0  0  0  0  0  0  0  0  0  0  0  0
   55.3776    3.7369    9.3541 O   0  0  0  0  0  0  0  0  0  0  0  0
   53.4564    5.3345   10.4154 N   0  0  0  0  0  0  0  0  0  0  0  0
   53.2050    7.7453    9.9616 C   0  0  0  0  0  0  0  0  0  0  0  0
   53.5748    6.4472    9.5508 C   0  0  0  0  0  0  0  0  0  0  0  0
   52.9406    8.0979   11.3739 C   0  0  0  0  0  0  0  0  0  0  0  0
   53.8409    6.2390    8.1758 C   0  0  0  0  0  0  0  0  0  0  0  0
   53.9863    7.9265   12.4259 C   0  0  0  0  0  0  0  0  0  0  0  0
   53.1134    8.8051    9.0460 C   0  0  0  0  0  0  0  0  0  0  0  0
   53.7468    7.3133    7.2713 C   0  0  0  0  0  0  0  0  0  0  0  0
   53.3895    8.5896    7.7030 C   0  0  0  0  0  0  0  0  0  0  0  0
   54.2521    4.8846    7.6285 C   0  0  0  0  0  0  0  0  0  0  0  0
   53.6100    8.1214   13.7651 C   0  0  0  0  0  0  0  0  0  0  0  0
   55.3270    7.6421   12.1270 C   0  0  0  0  0  0  0  0  0  0  0  0
   55.8882    7.7606   14.4771 C   0  0  0  0  0  0  0  0  0  0  0  0
   54.5582    8.0383   14.7892 C   0  0  0  0  0  0  0  0  0  0  0  0
   56.2756    7.5530   13.1533 C   0  0  0  0  0  0  0  0  0  0  0  0
   55.5476    4.3979    8.2834 C   0  0  0  0  0  0  0  0  0  0  0  0
   54.2983    6.9850   10.5488 Na  0  0  0  0  0 15  0  0  0  0  0  0
   54.2983    6.9850   10.5488 Na  0  0  0  0  0 15  0  0  0  0  0  0
   54.1087    6.6744   10.7097 O   0  0  0  0  0  0  0  0  0  0  0  0
   54.1140    6.6929   10.7467 O   0  0  0  0  0  0  0  0  0  0  0  0
   54.4840    7.4688   11.1438 H   0  0  0  0  0  0  0  0  0  0  0  0
   54.3007    6.8061    9.7804 H   0  0  0  0  0  0  0  0  0  0  0  0
   53.0113    5.8650   11.1051 H   0  0  0  0  0  0  0  0  0  0  0  0
   52.5244    5.7062    9.5241 H   0  0  0  0  0  0  0  0  0  0  0  0
   57.7624    6.3947   10.8312 H   0  0  0  0  0  0  0  0  0  0  0  0
   56.3560    5.8502    6.8184 H   0  0  0  0  0  0  0  0  0  0  0  0
   58.2125    6.2548    8.3916 H   0  0  0  0  0  0  0  0  0  0  0  0
   54.1533    5.4580    6.3073 H   0  0  0  0  0  0  0  0  0  0  0  0
   53.2726    4.5344    7.5082 H   0  0  0  0  0  0  0  0  0  0  0  0
   54.8505    6.5506   14.6520 H   0  0  0  0  0  0  0  0  0  0  0  0
   54.2645    8.4010   10.7821 H   0  0  0  0  0  0  0  0  0  0  0  0
   53.5856    8.3848   15.7082 H   0  0  0  0  0  0  0  0  0  0  0  0
   53.0014   10.2012   11.8372 H   0  0  0  0  0  0  0  0  0  0  0  0
   54.0775    4.5523   10.1196 H   0  0  0  0  0  0  0  0  0  0  0  0
   53.6429    5.5198   11.3925 H   0  0  0  0  0  0  0  0  0  0  0  0
   52.8336    9.7995    9.3918 H   0  0  0  0  0  0  0  0  0  0  0  0
   53.9635    7.1497    6.2183 H   0  0  0  0  0  0  0  0  0  0  0  0
   53.3258    9.4084    6.9935 H   0  0  0  0  0  0  0  0  0  0  0  0
   53.4458    4.1601    7.7950 H   0  0  0  0  0  0  0  0  0  0  0  0
   54.4041    4.9311    6.5421 H   0  0  0  0  0  0  0  0  0  0  0  0
   52.5748    8.3520   14.0134 H   0  0  0  0  0  0  0  0  0  0  0  0
   55.6641    7.4864   11.1038 H   0  0  0  0  0  0  0  0  0  0  0  0
   54.2500    8.2029   15.8188 H   0  0  0  0  0  0  0  0  0  0  0  0
   57.3120    7.3298   12.9039 H   0  0  0  0  0  0  0  0  0  0  0  0
   54.3142    6.8297    9.7758 H   0  0  0  0  0  0  0  0  0  0  0  0
   54.4721    7.4509   11.1607 H   0  0  0  0  0  0  0  0  0  0  0  0
   54.5071    7.5023   11.1064 H   0  0  0  0  0  0  0  0  0  0  0  0
   54.2740    6.7599    9.7932 H   0  0  0  0  0  0  0  0  0  0  0  0
  2 18  1  0
  3  9  2  0
  4 21  1  0
  5 21  2  0
  6  8  1  0
  7  8  2  0
  7  9  1  0
  7 12  1  0
  8 10  1  0
  9 11  1  0
 10 13  2  0
 10 15  1  0
 11 16  2  0
 11 17  1  0
 12 14  2  0
 13 14  1  0
 15 21  1  0
 16 19  1  0
 17 20  2  0
 18 19  2  0
 18 20  1  0
 22 38  1  0
 23 29  2  0
 24 41  1  0
 25 41  2  0
 26 28  1  0
 27 28  2  0
 27 29  1  0
 27 32  1  0
 28 30  1  0
 29 31  1  0
 30 33  2  0
 30 35  1  0
 31 36  2  0
 31 37  1  0
 32 34  2  0
 33 34  1  0
 35 41  1  0
 36 39  1  0
 37 40  2  0
 38 39  2  0
 38 40  1  0
  1 46  1  0
  1 47  1  0
  6 48  1  0
  6 49  1  0
 12 50  1  0
 13 51  1  0
 14 52  1  0
 15 53  1  0
 15 54  1  0
 16 55  1  0
 17 56  1  0
 19 57  1  0
 20 58  1  0
 26 59  1  0
 26 60  1  0
 32 61  1  0
 33 62  1  0
 34 63  1  0
 35 64  1  0
 35 65  1  0
 36 66  1  0
 37 67  1  0
 39 68  1  0
 40 69  1  0
 44 70  1  0
 44 71  1  0
 45 72  1  0
 45 73  1  0
M  CHG  4   4  -1  24  -1  42   1  43   1
M  END
> <Uni-Dock RESULT> 
ENERGY=   -4.659  LOWER_BOUND=    8.434  UPPER_BOUND=   11.096
INTER + INTRA:          -4.659
INTER:                  -4.659
INTRA:                   0.000
UNBOUND:                 0.000

$$$$
