
     RDKit          3D

 73 70  0  0  0  0  0  0  0  0999 V2000
   49.2338    6.2719   19.9751 O   0  0  0  0  0  0  0  0  0  0  0  0
   48.4535   11.7779   23.3538 Br  0  0  0  0  0  0  0  0  0  0  0  0
   48.3162    5.0420   22.0503 O   0  0  0  0  0  0  0  0  0  0  0  0
   48.0669    3.1310   15.3293 O   0  0  0  0  0  0  0  0  0  0  0  0
   46.6844    3.7243   17.0635 O   0  0  0  0  0  0  0  0  0  0  0  0
   47.1957    5.6021   19.0257 N   0  0  0  0  0  0  0  0  0  0  0  0
   49.4271    5.5935   20.0717 C   0  0  0  0  0  0  0  0  0  0  0  0
   48.6034    5.4278   18.9443 C   0  0  0  0  0  0  0  0  0  0  0  0
   48.8291    5.9335   21.3756 C   0  0  0  0  0  0  0  0  0  0  0  0
   49.2187    5.2565   17.6839 C   0  0  0  0  0  0  0  0  0  0  0  0
   48.7972    7.3544   21.8387 C   0  0  0  0  0  0  0  0  0  0  0  0
   50.8120    5.4069   19.9974 C   0  0  0  0  0  0  0  0  0  0  0  0
   50.6086    5.0606   17.6144 C   0  0  0  0  0  0  0  0  0  0  0  0
   51.4013    5.1196   18.7659 C   0  0  0  0  0  0  0  0  0  0  0  0
   48.4111    5.2083   16.3988 C   0  0  0  0  0  0  0  0  0  0  0  0
   49.4931    8.3815   21.1841 C   0  0  0  0  0  0  0  0  0  0  0  0
   48.0193    7.6637   22.9663 C   0  0  0  0  0  0  0  0  0  0  0  0
   48.6176    9.9905   22.7644 C   0  0  0  0  0  0  0  0  0  0  0  0
   49.4109    9.6959   21.6549 C   0  0  0  0  0  0  0  0  0  0  0  0
   47.9283    8.9764   23.4334 C   0  0  0  0  0  0  0  0  0  0  0  0
   47.6521    3.8923   16.2503 C   0  0  0  0  0  0  0  0  0  0  0  0
   51.1996    1.4139   17.2758 Br  0  0  0  0  0  0  0  0  0  0  0  0
   46.0490    5.6491   18.8503 O   0  0  0  0  0  0  0  0  0  0  0  0
   51.3032    7.1134   22.1648 O   0  0  0  0  0  0  0  0  0  0  0  0
   51.9953    9.2829   21.9430 O   0  0  0  0  0  0  0  0  0  0  0  0
   48.8093    6.2181   21.5462 N   0  0  0  0  0  0  0  0  0  0  0  0
   47.6834    7.1624   19.5517 C   0  0  0  0  0  0  0  0  0  0  0  0
   48.4892    7.3019   20.6992 C   0  0  0  0  0  0  0  0  0  0  0  0
   47.2558    5.8547   19.0117 C   0  0  0  0  0  0  0  0  0  0  0  0
   48.8448    8.6101   21.1081 C   0  0  0  0  0  0  0  0  0  0  0  0
   48.2479    4.8187   18.5858 C   0  0  0  0  0  0  0  0  0  0  0  0
   47.2744    8.2811   18.8076 C   0  0  0  0  0  0  0  0  0  0  0  0
   48.4482    9.7192   20.3387 C   0  0  0  0  0  0  0  0  0  0  0  0
   47.6691    9.5554   19.1958 C   0  0  0  0  0  0  0  0  0  0  0  0
   49.6944    8.8567   22.3419 C   0  0  0  0  0  0  0  0  0  0  0  0
   47.7575    3.5665   18.1786 C   0  0  0  0  0  0  0  0  0  0  0  0
   49.6294    5.0478   18.5629 C   0  0  0  0  0  0  0  0  0  0  0  0
   50.0092    2.7893   17.7790 C   0  0  0  0  0  0  0  0  0  0  0  0
   48.6374    2.5511   17.7845 C   0  0  0  0  0  0  0  0  0  0  0  0
   50.5096    4.0334   18.1603 C   0  0  0  0  0  0  0  0  0  0  0  0
   51.1369    8.3732   22.1272 C   0  0  0  0  0  0  0  0  0  0  0  0
   49.0099    6.5019   19.7402 Na  0  0  0  0  0 15  0  0  0  0  0  0
   49.0099    6.5019   19.7402 Na  0  0  0  0  0 15  0  0  0  0  0  0
   49.2284    6.3164   20.0168 O   0  0  0  0  0  0  0  0  0  0  0  0
   49.2236    6.3373   20.0309 O   0  0  0  0  0  0  0  0  0  0  0  0
   48.8600    7.1441   20.1744 H   0  0  0  0  0  0  0  0  0  0  0  0
   48.9359    6.0898   19.0712 H   0  0  0  0  0  0  0  0  0  0  0  0
   46.8477    5.2664   19.9230 H   0  0  0  0  0  0  0  0  0  0  0  0
   46.7624    4.9790   18.3057 H   0  0  0  0  0  0  0  0  0  0  0  0
   51.4181    5.4674   20.8944 H   0  0  0  0  0  0  0  0  0  0  0  0
   51.0764    4.8350   16.6494 H   0  0  0  0  0  0  0  0  0  0  0  0
   52.4677    4.9483   18.6875 H   0  0  0  0  0  0  0  0  0  0  0  0
   47.6860    6.0325   16.3738 H   0  0  0  0  0  0  0  0  0  0  0  0
   49.0549    5.3626   15.5278 H   0  0  0  0  0  0  0  0  0  0  0  0
   50.1041    8.1751   20.3089 H   0  0  0  0  0  0  0  0  0  0  0  0
   47.4738    6.8727   23.4784 H   0  0  0  0  0  0  0  0  0  0  0  0
   49.9480   10.4884   21.1329 H   0  0  0  0  0  0  0  0  0  0  0  0
   47.3072    9.1953   24.2989 H   0  0  0  0  0  0  0  0  0  0  0  0
   48.7822    5.3015   21.1264 H   0  0  0  0  0  0  0  0  0  0  0  0
   49.7718    6.3637   21.9190 H   0  0  0  0  0  0  0  0  0  0  0  0
   46.6648    8.1526   17.9098 H   0  0  0  0  0  0  0  0  0  0  0  0
   48.7572   10.7240   20.6324 H   0  0  0  0  0  0  0  0  0  0  0  0
   47.3824   10.4219   18.6064 H   0  0  0  0  0  0  0  0  0  0  0  0
   49.6926    9.9204   22.6100 H   0  0  0  0  0  0  0  0  0  0  0  0
   49.2569    8.3391   23.2038 H   0  0  0  0  0  0  0  0  0  0  0  0
   46.6873    3.3763   18.1799 H   0  0  0  0  0  0  0  0  0  0  0  0
   50.0535    6.0008   18.8711 H   0  0  0  0  0  0  0  0  0  0  0  0
   48.2393    1.5867   17.4754 H   0  0  0  0  0  0  0  0  0  0  0  0
   51.5787    4.2244   18.1821 H   0  0  0  0  0  0  0  0  0  0  0  0
   49.0042    6.0058   19.1261 H   0  0  0  0  0  0  0  0  0  0  0  0
   48.7971    7.1835   20.0779 H   0  0  0  0  0  0  0  0  0  0  0  0
   48.7722    7.1957   20.0355 H   0  0  0  0  0  0  0  0  0  0  0  0
   49.0340    5.9727   19.1542 H   0  0  0  0  0  0  0  0  0  0  0  0
  2 18  1  0
  3  9  2  0
  4 21  1  0
  5 21  2  0
  6  8  1  0
  7  8  2  0
  7  9  1  0
  7 12  1  0
  8 10  1  0
  9 11  1  0
 10 13  2  0
 10 15  1  0
 11 16  2  0
 11 17  1  0
 12 14  2  0
 13 14  1  0
 15 21  1  0
 16 19  1  0
 17 20  2  0
 18 19  2  0
 18 20  1  0
 22 38  1  0
 23 29  2  0
 24 41  1  0
 25 41  2  0
 26 28  1  0
 27 28  2  0
 27 29  1  0
 27 32  1  0
 28 30  1  0
 29 31  1  0
 30 33  2  0
 30 35  1  0
 31 36  2  0
 31 37  1  0
 32 34  2  0
 33 34  1  0
 35 41  1  0
 36 39  1  0
 37 40  2  0
 38 39  2  0
 38 40  1  0
  1 46  1  0
  1 47  1  0
  6 48  1  0
  6 49  1  0
 12 50  1  0
 13 51  1  0
 14 52  1  0
 15 53  1  0
 15 54  1  0
 16 55  1  0
 17 56  1  0
 19 57  1  0
 20 58  1  0
 26 59  1  0
 26 60  1  0
 32 61  1  0
 33 62  1  0
 34 63  1  0
 35 64  1  0
 35 65  1  0
 36 66  1  0
 37 67  1  0
 39 68  1  0
 40 69  1  0
 44 70  1  0
 44 71  1  0
 45 72  1  0
 45 73  1  0
M  CHG  4   4  -1  24  -1  42   1  43   1
M  END
> <Uni-Dock RESULT> 
ENERGY=   -5.808  LOWER_BOUND=    0.000  UPPER_BOUND=    0.000
INTER + INTRA:          -5.808
INTER:                  -5.808
INTRA:                   0.000
UNBOUND:                 0.000

$$$$

     RDKit          3D

 73 70  0  0  0  0  0  0  0  0999 V2000
   52.2335    4.2769   19.4209 O   0  0  0  0  0  0  0  0  0  0  0  0
   55.8130   -0.4639   16.7654 Br  0  0  0  0  0  0  0  0  0  0  0  0
   53.8650    5.9341   18.3018 O   0  0  0  0  0  0  0  0  0  0  0  0
   47.1594    6.8586   20.0527 O   0  0  0  0  0  0  0  0  0  0  0  0
   48.5206    6.7681   18.2063 O   0  0  0  0  0  0  0  0  0  0  0  0
   50.7226    5.1374   17.8460 N   0  0  0  0  0  0  0  0  0  0  0  0
   52.3103    4.9193   19.7181 C   0  0  0  0  0  0  0  0  0  0  0  0
   50.9959    5.0563   19.2379 C   0  0  0  0  0  0  0  0  0  0  0  0
   53.4389    4.8797   18.7705 C   0  0  0  0  0  0  0  0  0  0  0  0
   49.9301    4.9348   20.1576 C   0  0  0  0  0  0  0  0  0  0  0  0
   54.0145    3.5679   18.3438 C   0  0  0  0  0  0  0  0  0  0  0  0
   52.5833    4.8550   21.0891 C   0  0  0  0  0  0  0  0  0  0  0  0
   50.2081    4.8795   21.5340 C   0  0  0  0  0  0  0  0  0  0  0  0
   51.5270    4.8553   22.0006 C   0  0  0  0  0  0  0  0  0  0  0  0
   48.4801    4.9316   19.7065 C   0  0  0  0  0  0  0  0  0  0  0  0
   53.6690    2.3532   18.9543 C   0  0  0  0  0  0  0  0  0  0  0  0
   54.9238    3.5631   17.2735 C   0  0  0  0  0  0  0  0  0  0  0  0
   55.1148    1.1643   17.4217 C   0  0  0  0  0  0  0  0  0  0  0  0
   54.2284    1.1547   18.4993 C   0  0  0  0  0  0  0  0  0  0  0  0
   55.4772    2.3673   16.8113 C   0  0  0  0  0  0  0  0  0  0  0  0
   48.0097    6.3214   19.2858 C   0  0  0  0  0  0  0  0  0  0  0  0
   49.6802    8.2838   22.9104 Br  0  0  0  0  0  0  0  0  0  0  0  0
   50.2585    5.2608   16.7890 O   0  0  0  0  0  0  0  0  0  0  0  0
   54.9601    3.4246   20.6953 O   0  0  0  0  0  0  0  0  0  0  0  0
   55.1412    1.1603   20.9690 O   0  0  0  0  0  0  0  0  0  0  0  0
   53.6254    4.6306   18.6537 N   0  0  0  0  0  0  0  0  0  0  0  0
   51.5083    3.6106   17.8698 C   0  0  0  0  0  0  0  0  0  0  0  0
   52.8348    3.5051   18.3335 C   0  0  0  0  0  0  0  0  0  0  0  0
   50.7497    4.8789   17.8556 C   0  0  0  0  0  0  0  0  0  0  0  0
   53.4487    2.2294   18.3105 C   0  0  0  0  0  0  0  0  0  0  0  0
   50.4989    5.6580   19.1082 C   0  0  0  0  0  0  0  0  0  0  0  0
   50.7965    2.4812   17.4335 C   0  0  0  0  0  0  0  0  0  0  0  0
   52.7148    1.1036   17.8939 C   0  0  0  0  0  0  0  0  0  0  0  0
   51.3975    1.2289   17.4594 C   0  0  0  0  0  0  0  0  0  0  0  0
   54.8799    2.0247   18.7737 C   0  0  0  0  0  0  0  0  0  0  0  0
   49.8568    6.9024   18.9916 C   0  0  0  0  0  0  0  0  0  0  0  0
   50.8611    5.1966   20.3801 C   0  0  0  0  0  0  0  0  0  0  0  0
   49.9864    7.2189   21.3826 C   0  0  0  0  0  0  0  0  0  0  0  0
   49.6093    7.6850   20.1259 C   0  0  0  0  0  0  0  0  0  0  0  0
   50.6056    5.9771   21.5166 C   0  0  0  0  0  0  0  0  0  0  0  0
   55.0041    2.2196   20.2926 C   0  0  0  0  0  0  0  0  0  0  0  0
   51.9719    4.0565   19.2180 Na  0  0  0  0  0 15  0  0  0  0  0  0
   51.9719    4.0565   19.2180 Na  0  0  0  0  0 15  0  0  0  0  0  0
   52.2764    4.2405   19.3969 O   0  0  0  0  0  0  0  0  0  0  0  0
   52.2908    4.2230   19.3848 O   0  0  0  0  0  0  0  0  0  0  0  0
   52.4124    3.5194   18.8427 H   0  0  0  0  0  0  0  0  0  0  0  0
   51.2697    4.3731   19.3903 H   0  0  0  0  0  0  0  0  0  0  0  0
   51.4601    5.6546   17.3689 H   0  0  0  0  0  0  0  0  0  0  0  0
   49.8568    5.7133   17.7315 H   0  0  0  0  0  0  0  0  0  0  0  0
   53.6091    4.8240   21.4389 H   0  0  0  0  0  0  0  0  0  0  0  0
   49.3819    4.8791   22.2540 H   0  0  0  0  0  0  0  0  0  0  0  0
   51.7141    4.8296   23.0669 H   0  0  0  0  0  0  0  0  0  0  0  0
   48.3471    4.2478   18.8577 H   0  0  0  0  0  0  0  0  0  0  0  0
   47.8275    4.5448   20.4949 H   0  0  0  0  0  0  0  0  0  0  0  0
   52.9684    2.3228   19.7850 H   0  0  0  0  0  0  0  0  0  0  0  0
   55.1951    4.5014   16.7923 H   0  0  0  0  0  0  0  0  0  0  0  0
   53.9455    0.2150   18.9745 H   0  0  0  0  0  0  0  0  0  0  0  0
   56.1670    2.3857   15.9708 H   0  0  0  0  0  0  0  0  0  0  0  0
   53.1255    5.4673   18.9126 H   0  0  0  0  0  0  0  0  0  0  0  0
   54.2497    4.3795   19.4500 H   0  0  0  0  0  0  0  0  0  0  0  0
   49.7622    2.5791   17.0943 H   0  0  0  0  0  0  0  0  0  0  0  0
   53.1763    0.1147   17.9151 H   0  0  0  0  0  0  0  0  0  0  0  0
   50.8415    0.3472   17.1532 H   0  0  0  0  0  0  0  0  0  0  0  0
   55.2412    1.0274   18.4939 H   0  0  0  0  0  0  0  0  0  0  0  0
   55.5421    2.7292   18.2567 H   0  0  0  0  0  0  0  0  0  0  0  0
   49.5591    7.2697   18.0128 H   0  0  0  0  0  0  0  0  0  0  0  0
   51.3616    4.2408   20.5176 H   0  0  0  0  0  0  0  0  0  0  0  0
   49.1137    8.6475   20.0155 H   0  0  0  0  0  0  0  0  0  0  0  0
   50.9252    5.6125   22.4886 H   0  0  0  0  0  0  0  0  0  0  0  0
   51.3321    4.4514   19.4589 H   0  0  0  0  0  0  0  0  0  0  0  0
   52.3072    3.4776   18.7981 H   0  0  0  0  0  0  0  0  0  0  0  0
   52.2612    3.4638   18.7821 H   0  0  0  0  0  0  0  0  0  0  0  0
   51.3637    4.4827   19.4872 H   0  0  0  0  0  0  0  0  0  0  0  0
  2 18  1  0
  3  9  2  0
  4 21  1  0
  5 21  2  0
  6  8  1  0
  7  8  2  0
  7  9  1  0
  7 12  1  0
  8 10  1  0
  9 11  1  0
 10 13  2  0
 10 15  1  0
 11 16  2  0
 11 17  1  0
 12 14  2  0
 13 14  1  0
 15 21  1  0
 16 19  1  0
 17 20  2  0
 18 19  2  0
 18 20  1  0
 22 38  1  0
 23 29  2  0
 24 41  1  0
 25 41  2  0
 26 28  1  0
 27 28  2  0
 27 29  1  0
 27 32  1  0
 28 30  1  0
 29 31  1  0
 30 33  2  0
 30 35  1  0
 31 36  2  0
 31 37  1  0
 32 34  2  0
 33 34  1  0
 35 41  1  0
 36 39  1  0
 37 40  2  0
 38 39  2  0
 38 40  1  0
  1 46  1  0
  1 47  1  0
  6 48  1  0
  6 49  1  0
 12 50  1  0
 13 51  1  0
 14 52  1  0
 15 53  1  0
 15 54  1  0
 16 55  1  0
 17 56  1  0
 19 57  1  0
 20 58  1  0
 26 59  1  0
 26 60  1  0
 32 61  1  0
 33 62  1  0
 34 63  1  0
 35 64  1  0
 35 65  1  0
 36 66  1  0
 37 67  1  0
 39 68  1  0
 40 69  1  0
 44 70  1  0
 44 71  1  0
 45 72  1  0
 45 73  1  0
M  CHG  4   4  -1  24  -1  42   1  43   1
M  END
> <Uni-Dock RESULT> 
ENERGY=   -5.676  LOWER_BOUND=    3.362  UPPER_BOUND=    6.709
INTER + INTRA:          -5.676
INTER:                  -5.676
INTRA:                   0.000
UNBOUND:                 0.000

$$$$

     RDKit          3D

 73 70  0  0  0  0  0  0  0  0999 V2000
   49.1547    6.2339   15.9587 O   0  0  0  0  0  0  0  0  0  0  0  0
   53.3582    3.7982   20.2875 Br  0  0  0  0  0  0  0  0  0  0  0  0
   47.7415    6.9946   17.9799 O   0  0  0  0  0  0  0  0  0  0  0  0
   48.0863    9.7451   11.5610 O   0  0  0  0  0  0  0  0  0  0  0  0
   48.5624   10.2616   13.7467 O   0  0  0  0  0  0  0  0  0  0  0  0
   49.5023    8.5386   15.6923 N   0  0  0  0  0  0  0  0  0  0  0  0
   48.4539    6.3148   15.8624 C   0  0  0  0  0  0  0  0  0  0  0  0
   48.9075    7.3980   15.0891 C   0  0  0  0  0  0  0  0  0  0  0  0
   48.5717    6.3597   17.3312 C   0  0  0  0  0  0  0  0  0  0  0  0
   48.9227    7.2580   13.6832 C   0  0  0  0  0  0  0  0  0  0  0  0
   49.7211    5.6896   18.0125 C   0  0  0  0  0  0  0  0  0  0  0  0
   47.8535    5.1973   15.2718 C   0  0  0  0  0  0  0  0  0  0  0  0
   48.3108    6.1387   13.0936 C   0  0  0  0  0  0  0  0  0  0  0  0
   47.7645    5.1197   13.8816 C   0  0  0  0  0  0  0  0  0  0  0  0
   49.5228    8.3207   12.7795 C   0  0  0  0  0  0  0  0  0  0  0  0
   50.6071    4.8341   17.3410 C   0  0  0  0  0  0  0  0  0  0  0  0
   49.9224    5.9505   19.3777 C   0  0  0  0  0  0  0  0  0  0  0  0
   51.8736    4.5344   19.3803 C   0  0  0  0  0  0  0  0  0  0  0  0
   51.6752    4.2493   18.0288 C   0  0  0  0  0  0  0  0  0  0  0  0
   50.9930    5.3750   20.0650 C   0  0  0  0  0  0  0  0  0  0  0  0
   48.6347    9.5585   12.6854 C   0  0  0  0  0  0  0  0  0  0  0  0
   44.9434    7.1906   11.9461 Br  0  0  0  0  0  0  0  0  0  0  0  0
   49.9727    9.5695   15.9451 O   0  0  0  0  0  0  0  0  0  0  0  0
   48.5859    3.5078   17.3837 O   0  0  0  0  0  0  0  0  0  0  0  0
   50.3709    2.0787   17.3077 O   0  0  0  0  0  0  0  0  0  0  0  0
   48.7834    6.2169   17.5440 N   0  0  0  0  0  0  0  0  0  0  0  0
   50.5877    7.3405   16.2714 C   0  0  0  0  0  0  0  0  0  0  0  0
   50.1106    6.2783   17.0650 C   0  0  0  0  0  0  0  0  0  0  0  0
   49.7134    8.3870   15.7016 C   0  0  0  0  0  0  0  0  0  0  0  0
   51.0476    5.3288   17.5399 C   0  0  0  0  0  0  0  0  0  0  0  0
   48.5831    8.0503   14.7807 C   0  0  0  0  0  0  0  0  0  0  0  0
   51.9451    7.4387   15.9245 C   0  0  0  0  0  0  0  0  0  0  0  0
   52.3997    5.4268   17.1636 C   0  0  0  0  0  0  0  0  0  0  0  0
   52.8449    6.4741   16.3607 C   0  0  0  0  0  0  0  0  0  0  0  0
   50.6267    4.1624   18.4157 C   0  0  0  0  0  0  0  0  0  0  0  0
   47.7401    9.0946   14.3648 C   0  0  0  0  0  0  0  0  0  0  0  0
   48.3418    6.7535   14.3099 C   0  0  0  0  0  0  0  0  0  0  0  0
   46.4207    7.5429   13.0666 C   0  0  0  0  0  0  0  0  0  0  0  0
   46.6558    8.8395   13.5164 C   0  0  0  0  0  0  0  0  0  0  0  0
   47.2607    6.4999   13.4539 C   0  0  0  0  0  0  0  0  0  0  0  0
   49.7822    3.1517   17.6246 C   0  0  0  0  0  0  0  0  0  0  0  0
   49.5038    6.3978   15.8616 Na  0  0  0  0  0 15  0  0  0  0  0  0
   49.5038    6.3978   15.8616 Na  0  0  0  0  0 15  0  0  0  0  0  0
   49.1842    6.2096   16.0066 O   0  0  0  0  0  0  0  0  0  0  0  0
   49.2003    6.2017   16.0249 O   0  0  0  0  0  0  0  0  0  0  0  0
   50.0016    6.1549   16.4241 H   0  0  0  0  0  0  0  0  0  0  0  0
   49.3551    6.8048   15.2018 H   0  0  0  0  0  0  0  0  0  0  0  0
   49.0512    8.7452   16.5827 H   0  0  0  0  0  0  0  0  0  0  0  0
   49.2973    9.3592   15.0767 H   0  0  0  0  0  0  0  0  0  0  0  0
   47.4447    4.4076   15.8921 H   0  0  0  0  0  0  0  0  0  0  0  0
   48.2387    6.0728   12.0020 H   0  0  0  0  0  0  0  0  0  0  0  0
   47.2837    4.2760   13.4025 H   0  0  0  0  0  0  0  0  0  0  0  0
   50.5080    8.6274   13.1548 H   0  0  0  0  0  0  0  0  0  0  0  0
   49.7062    7.9218   11.7773 H   0  0  0  0  0  0  0  0  0  0  0  0
   50.4788    4.6116   16.2846 H   0  0  0  0  0  0  0  0  0  0  0  0
   49.2409    6.6157   19.9057 H   0  0  0  0  0  0  0  0  0  0  0  0
   52.3638    3.5935   17.4951 H   0  0  0  0  0  0  0  0  0  0  0  0
   51.1387    5.6038   21.1181 H   0  0  0  0  0  0  0  0  0  0  0  0
   48.0932    6.7226   17.0102 H   0  0  0  0  0  0  0  0  0  0  0  0
   48.4883    5.2175   17.5710 H   0  0  0  0  0  0  0  0  0  0  0  0
   52.2942    8.2593   15.2928 H   0  0  0  0  0  0  0  0  0  0  0  0
   53.1135    4.6714   17.4970 H   0  0  0  0  0  0  0  0  0  0  0  0
   53.8902    6.5273   16.0693 H   0  0  0  0  0  0  0  0  0  0  0  0
   51.5031    3.6618   18.8457 H   0  0  0  0  0  0  0  0  0  0  0  0
   50.0522    4.5305   19.2740 H   0  0  0  0  0  0  0  0  0  0  0  0
   47.9205   10.1087   14.7121 H   0  0  0  0  0  0  0  0  0  0  0  0
   48.9671    5.9146   14.6070 H   0  0  0  0  0  0  0  0  0  0  0  0
   46.0119    9.6606   13.2074 H   0  0  0  0  0  0  0  0  0  0  0  0
   47.0746    5.4805   13.1282 H   0  0  0  0  0  0  0  0  0  0  0  0
   49.2411    6.7647   15.2138 H   0  0  0  0  0  0  0  0  0  0  0  0
   50.0860    6.2191   16.3644 H   0  0  0  0  0  0  0  0  0  0  0  0
   50.1176    6.2470   16.3365 H   0  0  0  0  0  0  0  0  0  0  0  0
   49.1933    6.7448   15.2234 H   0  0  0  0  0  0  0  0  0  0  0  0
  2 18  1  0
  3  9  2  0
  4 21  1  0
  5 21  2  0
  6  8  1  0
  7  8  2  0
  7  9  1  0
  7 12  1  0
  8 10  1  0
  9 11  1  0
 10 13  2  0
 10 15  1  0
 11 16  2  0
 11 17  1  0
 12 14  2  0
 13 14  1  0
 15 21  1  0
 16 19  1  0
 17 20  2  0
 18 19  2  0
 18 20  1  0
 22 38  1  0
 23 29  2  0
 24 41  1  0
 25 41  2  0
 26 28  1  0
 27 28  2  0
 27 29  1  0
 27 32  1  0
 28 30  1  0
 29 31  1  0
 30 33  2  0
 30 35  1  0
 31 36  2  0
 31 37  1  0
 32 34  2  0
 33 34  1  0
 35 41  1  0
 36 39  1  0
 37 40  2  0
 38 39  2  0
 38 40  1  0
  1 46  1  0
  1 47  1  0
  6 48  1  0
  6 49  1  0
 12 50  1  0
 13 51  1  0
 14 52  1  0
 15 53  1  0
 15 54  1  0
 16 55  1  0
 17 56  1  0
 19 57  1  0
 20 58  1  0
 26 59  1  0
 26 60  1  0
 32 61  1  0
 33 62  1  0
 34 63  1  0
 35 64  1  0
 35 65  1  0
 36 66  1  0
 37 67  1  0
 39 68  1  0
 40 69  1  0
 44 70  1  0
 44 71  1  0
 45 72  1  0
 45 73  1  0
M  CHG  4   4  -1  24  -1  42   1  43   1
M  END
> <Uni-Dock RESULT> 
ENERGY=   -5.542  LOWER_BOUND=    3.695  UPPER_BOUND=    5.958
INTER + INTRA:          -5.542
INTER:                  -5.542
INTRA:                   0.000
UNBOUND:                 0.000

$$$$

     RDKit          3D

 73 70  0  0  0  0  0  0  0  0999 V2000
   47.5802   11.9207   12.7161 O   0  0  0  0  0  0  0  0  0  0  0  0
   47.2559    5.4553   13.3751 Br  0  0  0  0  0  0  0  0  0  0  0  0
   49.7446   11.5268   11.3667 O   0  0  0  0  0  0  0  0  0  0  0  0
   45.1979   16.8223   10.9527 O   0  0  0  0  0  0  0  0  0  0  0  0
   46.0145   15.0759    9.7061 O   0  0  0  0  0  0  0  0  0  0  0  0
   46.7310   12.5711   10.6282 N   0  0  0  0  0  0  0  0  0  0  0  0
   48.0611   12.4454   12.6990 C   0  0  0  0  0  0  0  0  0  0  0  0
   47.0521   13.0483   11.9273 C   0  0  0  0  0  0  0  0  0  0  0  0
   48.8241   11.3084   12.1528 C   0  0  0  0  0  0  0  0  0  0  0  0
   46.2386   14.0299   12.5365 C   0  0  0  0  0  0  0  0  0  0  0  0
   48.4406    9.9079   12.5078 C   0  0  0  0  0  0  0  0  0  0  0  0
   48.3898   12.9236   13.9725 C   0  0  0  0  0  0  0  0  0  0  0  0
   46.5772   14.5138   13.8117 C   0  0  0  0  0  0  0  0  0  0  0  0
   47.6562   13.9757   14.5216 C   0  0  0  0  0  0  0  0  0  0  0  0
   45.0411   14.6324   11.8230 C   0  0  0  0  0  0  0  0  0  0  0  0
   47.5027    9.6081   13.5068 C   0  0  0  0  0  0  0  0  0  0  0  0
   49.0377    8.8583   11.7907 C   0  0  0  0  0  0  0  0  0  0  0  0
   47.7586    7.2467   13.0474 C   0  0  0  0  0  0  0  0  0  0  0  0
   47.1718    8.2775   13.7825 C   0  0  0  0  0  0  0  0  0  0  0  0
   48.7027    7.5293   12.0576 C   0  0  0  0  0  0  0  0  0  0  0  0
   45.4610   15.6063   10.7251 C   0  0  0  0  0  0  0  0  0  0  0  0
   48.3650   17.7299   13.3395 Br  0  0  0  0  0  0  0  0  0  0  0  0
   46.3219   12.3956    9.5559 O   0  0  0  0  0  0  0  0  0  0  0  0
   49.3615   10.4340   14.8142 O   0  0  0  0  0  0  0  0  0  0  0  0
   48.1696    8.9783   16.1161 O   0  0  0  0  0  0  0  0  0  0  0  0
   48.8083   10.9808   12.2067 N   0  0  0  0  0  0  0  0  0  0  0  0
   46.4338   11.1318   11.5164 C   0  0  0  0  0  0  0  0  0  0  0  0
   47.4695   10.5345   12.2623 C   0  0  0  0  0  0  0  0  0  0  0  0
   46.5977   12.3906   10.7595 C   0  0  0  0  0  0  0  0  0  0  0  0
   47.1828    9.3350   12.9579 C   0  0  0  0  0  0  0  0  0  0  0  0
   47.0079   13.6631   11.4314 C   0  0  0  0  0  0  0  0  0  0  0  0
   45.1422   10.5807   11.4913 C   0  0  0  0  0  0  0  0  0  0  0  0
   45.8781    8.8087   12.9433 C   0  0  0  0  0  0  0  0  0  0  0  0
   44.8649    9.4281   12.2156 C   0  0  0  0  0  0  0  0  0  0  0  0
   48.2414    8.6126   13.7718 C   0  0  0  0  0  0  0  0  0  0  0  0
   47.2380   14.7892   10.6232 C   0  0  0  0  0  0  0  0  0  0  0  0
   47.1566   13.7807   12.8191 C   0  0  0  0  0  0  0  0  0  0  0  0
   47.7959   16.1023   12.5721 C   0  0  0  0  0  0  0  0  0  0  0  0
   47.6398   16.0039   11.1921 C   0  0  0  0  0  0  0  0  0  0  0  0
   47.5511   14.9994   13.3891 C   0  0  0  0  0  0  0  0  0  0  0  0
   48.6251    9.4189   15.0221 C   0  0  0  0  0  0  0  0  0  0  0  0
   47.2181   11.8251   12.5820 Na  0  0  0  0  0 15  0  0  0  0  0  0
   47.2181   11.8251   12.5820 Na  0  0  0  0  0 15  0  0  0  0  0  0
   47.5895   11.8604   12.7216 O   0  0  0  0  0  0  0  0  0  0  0  0
   47.5890   11.8348   12.7222 O   0  0  0  0  0  0  0  0  0  0  0  0
   47.2008   11.0359   12.6004 H   0  0  0  0  0  0  0  0  0  0  0  0
   46.8734   12.5185   12.4296 H   0  0  0  0  0  0  0  0  0  0  0  0
   47.5727   12.2549   10.1481 H   0  0  0  0  0  0  0  0  0  0  0  0
   46.3816   13.3868   10.0742 H   0  0  0  0  0  0  0  0  0  0  0  0
   49.2202   12.4905   14.5188 H   0  0  0  0  0  0  0  0  0  0  0  0
   46.0039   15.3398   14.2476 H   0  0  0  0  0  0  0  0  0  0  0  0
   47.9066   14.3779   15.4953 H   0  0  0  0  0  0  0  0  0  0  0  0
   44.4298   13.8406   11.3703 H   0  0  0  0  0  0  0  0  0  0  0  0
   44.3795   15.1393   12.5318 H   0  0  0  0  0  0  0  0  0  0  0  0
   47.0229   10.3974   14.0801 H   0  0  0  0  0  0  0  0  0  0  0  0
   49.7645    9.0826   11.0116 H   0  0  0  0  0  0  0  0  0  0  0  0
   46.4343    8.0558   14.5544 H   0  0  0  0  0  0  0  0  0  0  0  0
   49.1658    6.7334   11.4789 H   0  0  0  0  0  0  0  0  0  0  0  0
   48.9464   11.9432   11.9390 H   0  0  0  0  0  0  0  0  0  0  0  0
   49.2382   10.8524   13.1477 H   0  0  0  0  0  0  0  0  0  0  0  0
   44.3466   11.0677   10.9221 H   0  0  0  0  0  0  0  0  0  0  0  0
   45.6488    7.9063   13.5129 H   0  0  0  0  0  0  0  0  0  0  0  0
   43.8600    9.0150   12.2257 H   0  0  0  0  0  0  0  0  0  0  0  0
   47.8946    7.6135   14.0630 H   0  0  0  0  0  0  0  0  0  0  0  0
   49.1322    8.4428   13.1554 H   0  0  0  0  0  0  0  0  0  0  0  0
   47.1160   14.7176    9.5454 H   0  0  0  0  0  0  0  0  0  0  0  0
   46.9909   12.9351   13.4830 H   0  0  0  0  0  0  0  0  0  0  0  0
   47.8164   16.8643   10.5497 H   0  0  0  0  0  0  0  0  0  0  0  0
   47.6913   15.0570   14.4646 H   0  0  0  0  0  0  0  0  0  0  0  0
   46.9775   12.5682   12.4675 H   0  0  0  0  0  0  0  0  0  0  0  0
   47.0875   11.0465   12.5571 H   0  0  0  0  0  0  0  0  0  0  0  0
   47.0411   11.0557   12.5392 H   0  0  0  0  0  0  0  0  0  0  0  0
   47.0244   12.5847   12.4847 H   0  0  0  0  0  0  0  0  0  0  0  0
  2 18  1  0
  3  9  2  0
  4 21  1  0
  5 21  2  0
  6  8  1  0
  7  8  2  0
  7  9  1  0
  7 12  1  0
  8 10  1  0
  9 11  1  0
 10 13  2  0
 10 15  1  0
 11 16  2  0
 11 17  1  0
 12 14  2  0
 13 14  1  0
 15 21  1  0
 16 19  1  0
 17 20  2  0
 18 19  2  0
 18 20  1  0
 22 38  1  0
 23 29  2  0
 24 41  1  0
 25 41  2  0
 26 28  1  0
 27 28  2  0
 27 29  1  0
 27 32  1  0
 28 30  1  0
 29 31  1  0
 30 33  2  0
 30 35  1  0
 31 36  2  0
 31 37  1  0
 32 34  2  0
 33 34  1  0
 35 41  1  0
 36 39  1  0
 37 40  2  0
 38 39  2  0
 38 40  1  0
  1 46  1  0
  1 47  1  0
  6 48  1  0
  6 49  1  0
 12 50  1  0
 13 51  1  0
 14 52  1  0
 15 53  1  0
 15 54  1  0
 16 55  1  0
 17 56  1  0
 19 57  1  0
 20 58  1  0
 26 59  1  0
 26 60  1  0
 32 61  1  0
 33 62  1  0
 34 63  1  0
 35 64  1  0
 35 65  1  0
 36 66  1  0
 37 67  1  0
 39 68  1  0
 40 69  1  0
 44 70  1  0
 44 71  1  0
 45 72  1  0
 45 73  1  0
M  CHG  4   4  -1  24  -1  42   1  43   1
M  END
> <Uni-Dock RESULT> 
ENERGY=   -4.941  LOWER_BOUND=    8.222  UPPER_BOUND=   10.771
INTER + INTRA:          -4.941
INTER:                  -4.941
INTRA:                   0.000
UNBOUND:                 0.000

$$$$

     RDKit          3D

 73 70  0  0  0  0  0  0  0  0999 V2000
   49.8014    6.9117   15.9605 O   0  0  0  0  0  0  0  0  0  0  0  0
   45.6960    6.7115   10.9160 Br  0  0  0  0  0  0  0  0  0  0  0  0
   48.8814    9.2777   16.4258 O   0  0  0  0  0  0  0  0  0  0  0  0
   51.6616    4.6751   20.8948 O   0  0  0  0  0  0  0  0  0  0  0  0
   49.6801    5.7424   20.4421 O   0  0  0  0  0  0  0  0  0  0  0  0
   48.6743    6.3881   17.9503 N   0  0  0  0  0  0  0  0  0  0  0  0
   50.2234    7.3705   16.3045 C   0  0  0  0  0  0  0  0  0  0  0  0
   49.9635    6.4786   17.3601 C   0  0  0  0  0  0  0  0  0  0  0  0
   49.1515    8.2508   15.8050 C   0  0  0  0  0  0  0  0  0  0  0  0
   50.9638    5.5437   17.7094 C   0  0  0  0  0  0  0  0  0  0  0  0
   48.3674    7.8643   14.5925 C   0  0  0  0  0  0  0  0  0  0  0  0
   51.4963    7.4727   15.7322 C   0  0  0  0  0  0  0  0  0  0  0  0
   52.2433    5.6553   17.1390 C   0  0  0  0  0  0  0  0  0  0  0  0
   52.5149    6.6239   16.1665 C   0  0  0  0  0  0  0  0  0  0  0  0
   50.7181    4.4567   18.7408 C   0  0  0  0  0  0  0  0  0  0  0  0
   48.7274    6.7887   13.7672 C   0  0  0  0  0  0  0  0  0  0  0  0
   47.2138    8.6054   14.2887 C   0  0  0  0  0  0  0  0  0  0  0  0
   46.7893    7.1976   12.3781 C   0  0  0  0  0  0  0  0  0  0  0  0
   47.9437    6.4643   12.6550 C   0  0  0  0  0  0  0  0  0  0  0  0
   46.4246    8.2785   13.1842 C   0  0  0  0  0  0  0  0  0  0  0  0
   50.6882    5.0137   20.1616 C   0  0  0  0  0  0  0  0  0  0  0  0
   54.4108    7.3824   19.6050 Br  0  0  0  0  0  0  0  0  0  0  0  0
   47.7429    6.1634   18.6060 O   0  0  0  0  0  0  0  0  0  0  0  0
   50.4804    8.3824   13.2845 O   0  0  0  0  0  0  0  0  0  0  0  0
   50.2088    7.0478   11.4461 O   0  0  0  0  0  0  0  0  0  0  0  0
   48.9579    8.2380   15.5351 N   0  0  0  0  0  0  0  0  0  0  0  0
   48.2488    6.0020   16.3320 C   0  0  0  0  0  0  0  0  0  0  0  0
   48.4983    6.9242   15.2960 C   0  0  0  0  0  0  0  0  0  0  0  0
   48.6215    6.2416   17.7419 C   0  0  0  0  0  0  0  0  0  0  0  0
   48.1070    6.5711   13.9818 C   0  0  0  0  0  0  0  0  0  0  0  0
   50.0397    6.4935   18.1473 C   0  0  0  0  0  0  0  0  0  0  0  0
   47.6659    4.7514   16.0700 C   0  0  0  0  0  0  0  0  0  0  0  0
   47.5468    5.3051   13.7314 C   0  0  0  0  0  0  0  0  0  0  0  0
   47.3287    4.4014   14.7685 C   0  0  0  0  0  0  0  0  0  0  0  0
   48.3197    7.5093   12.8073 C   0  0  0  0  0  0  0  0  0  0  0  0
   50.2928    6.8113   19.4924 C   0  0  0  0  0  0  0  0  0  0  0  0
   51.1154    6.4124   17.2541 C   0  0  0  0  0  0  0  0  0  0  0  0
   52.6551    7.0016   19.0265 C   0  0  0  0  0  0  0  0  0  0  0  0
   51.5972    7.0736   19.9288 C   0  0  0  0  0  0  0  0  0  0  0  0
   52.4224    6.6670   17.6933 C   0  0  0  0  0  0  0  0  0  0  0  0
   49.8135    7.6580   12.4804 C   0  0  0  0  0  0  0  0  0  0  0  0
   49.5900    6.5796   16.0173 Na  0  0  0  0  0 15  0  0  0  0  0  0
   49.5900    6.5796   16.0173 Na  0  0  0  0  0 15  0  0  0  0  0  0
   49.7643    6.9221   15.9129 O   0  0  0  0  0  0  0  0  0  0  0  0
   49.7467    6.9224   15.8942 O   0  0  0  0  0  0  0  0  0  0  0  0
   49.0485    6.5872   15.4428 H   0  0  0  0  0  0  0  0  0  0  0  0
   49.9202    6.2399   16.6487 H   0  0  0  0  0  0  0  0  0  0  0  0
   48.2339    7.3067   17.9838 H   0  0  0  0  0  0  0  0  0  0  0  0
   48.8078    6.1042   18.9483 H   0  0  0  0  0  0  0  0  0  0  0  0
   51.6920    8.2188   14.9702 H   0  0  0  0  0  0  0  0  0  0  0  0
   53.0467    4.9908   17.4764 H   0  0  0  0  0  0  0  0  0  0  0  0
   53.5136    6.6999   15.7551 H   0  0  0  0  0  0  0  0  0  0  0  0
   49.7618    3.9544   18.5441 H   0  0  0  0  0  0  0  0  0  0  0  0
   51.4774    3.6722   18.6687 H   0  0  0  0  0  0  0  0  0  0  0  0
   49.6144    6.1954   13.9747 H   0  0  0  0  0  0  0  0  0  0  0  0
   46.9258    9.4400   14.9260 H   0  0  0  0  0  0  0  0  0  0  0  0
   48.2271    5.6202   12.0256 H   0  0  0  0  0  0  0  0  0  0  0  0
   45.5269    8.8563   12.9771 H   0  0  0  0  0  0  0  0  0  0  0  0
   49.4627    8.3837   16.3959 H   0  0  0  0  0  0  0  0  0  0  0  0
   49.5877    8.5148   14.7518 H   0  0  0  0  0  0  0  0  0  0  0  0
   47.4965    4.0414   16.8833 H   0  0  0  0  0  0  0  0  0  0  0  0
   47.2830    5.0186   12.7118 H   0  0  0  0  0  0  0  0  0  0  0  0
   46.9069    3.4231   14.5553 H   0  0  0  0  0  0  0  0  0  0  0  0
   47.7767    7.1552   11.9224 H   0  0  0  0  0  0  0  0  0  0  0  0
   47.8930    8.4932   13.0356 H   0  0  0  0  0  0  0  0  0  0  0  0
   49.4703    6.8673   20.2008 H   0  0  0  0  0  0  0  0  0  0  0  0
   50.9663    6.1715   16.2039 H   0  0  0  0  0  0  0  0  0  0  0  0
   51.7733    7.3212   20.9737 H   0  0  0  0  0  0  0  0  0  0  0  0
   53.2361    6.6299   16.9748 H   0  0  0  0  0  0  0  0  0  0  0  0
   49.9959    6.3347   16.6486 H   0  0  0  0  0  0  0  0  0  0  0  0
   49.0098    6.4820   15.4904 H   0  0  0  0  0  0  0  0  0  0  0  0
   48.9972    6.4388   15.5135 H   0  0  0  0  0  0  0  0  0  0  0  0
   50.0261    6.3777   16.6443 H   0  0  0  0  0  0  0  0  0  0  0  0
  2 18  1  0
  3  9  2  0
  4 21  1  0
  5 21  2  0
  6  8  1  0
  7  8  2  0
  7  9  1  0
  7 12  1  0
  8 10  1  0
  9 11  1  0
 10 13  2  0
 10 15  1  0
 11 16  2  0
 11 17  1  0
 12 14  2  0
 13 14  1  0
 15 21  1  0
 16 19  1  0
 17 20  2  0
 18 19  2  0
 18 20  1  0
 22 38  1  0
 23 29  2  0
 24 41  1  0
 25 41  2  0
 26 28  1  0
 27 28  2  0
 27 29  1  0
 27 32  1  0
 28 30  1  0
 29 31  1  0
 30 33  2  0
 30 35  1  0
 31 36  2  0
 31 37  1  0
 32 34  2  0
 33 34  1  0
 35 41  1  0
 36 39  1  0
 37 40  2  0
 38 39  2  0
 38 40  1  0
  1 46  1  0
  1 47  1  0
  6 48  1  0
  6 49  1  0
 12 50  1  0
 13 51  1  0
 14 52  1  0
 15 53  1  0
 15 54  1  0
 16 55  1  0
 17 56  1  0
 19 57  1  0
 20 58  1  0
 26 59  1  0
 26 60  1  0
 32 61  1  0
 33 62  1  0
 34 63  1  0
 35 64  1  0
 35 65  1  0
 36 66  1  0
 37 67  1  0
 39 68  1  0
 40 69  1  0
 44 70  1  0
 44 71  1  0
 45 72  1  0
 45 73  1  0
M  CHG  4   4  -1  24  -1  42   1  43   1
M  END
> <Uni-Dock RESULT> 
ENERGY=   -4.800  LOWER_BOUND=    3.623  UPPER_BOUND=    6.420
INTER + INTRA:          -4.800
INTER:                  -4.800
INTRA:                   0.000
UNBOUND:                 0.000

$$$$

     RDKit          3D

 73 70  0  0  0  0  0  0  0  0999 V2000
   48.6408   11.0634   11.4431 O   0  0  0  0  0  0  0  0  0  0  0  0
   47.6400    5.4193   14.5227 Br  0  0  0  0  0  0  0  0  0  0  0  0
   48.4902   12.1860   13.7621 O   0  0  0  0  0  0  0  0  0  0  0  0
   51.9161   14.3158    8.0513 O   0  0  0  0  0  0  0  0  0  0  0  0
   52.3055   13.6119   10.2015 O   0  0  0  0  0  0  0  0  0  0  0  0
   50.8965   11.6885   11.5990 N   0  0  0  0  0  0  0  0  0  0  0  0
   48.4362   11.7448   11.4696 C   0  0  0  0  0  0  0  0  0  0  0  0
   49.6974   11.9181   10.8725 C   0  0  0  0  0  0  0  0  0  0  0  0
   48.3418   11.3381   12.8835 C   0  0  0  0  0  0  0  0  0  0  0  0
   49.7532   12.1554    9.4807 C   0  0  0  0  0  0  0  0  0  0  0  0
   48.1272    9.9020   13.2383 C   0  0  0  0  0  0  0  0  0  0  0  0
   47.2539   11.9856   10.7608 C   0  0  0  0  0  0  0  0  0  0  0  0
   48.5644   12.4055    8.7742 C   0  0  0  0  0  0  0  0  0  0  0  0
   47.3210   12.3368    9.4121 C   0  0  0  0  0  0  0  0  0  0  0  0
   51.0727   12.2174    8.7317 C   0  0  0  0  0  0  0  0  0  0  0  0
   47.8057    8.9247   12.2847 C   0  0  0  0  0  0  0  0  0  0  0  0
   48.2750    9.5252   14.5831 C   0  0  0  0  0  0  0  0  0  0  0  0
   47.8039    7.2308   14.0120 C   0  0  0  0  0  0  0  0  0  0  0  0
   47.6337    7.5928   12.6752 C   0  0  0  0  0  0  0  0  0  0  0  0
   48.1125    8.1948   14.9745 C   0  0  0  0  0  0  0  0  0  0  0  0
   51.8338   13.5084    9.0214 C   0  0  0  0  0  0  0  0  0  0  0  0
   48.2649   16.0813    8.3723 Br  0  0  0  0  0  0  0  0  0  0  0  0
   51.9892   11.6046   11.9824 O   0  0  0  0  0  0  0  0  0  0  0  0
   45.7687   10.2254   12.3566 O   0  0  0  0  0  0  0  0  0  0  0  0
   45.2269    8.0923   11.7313 O   0  0  0  0  0  0  0  0  0  0  0  0
   48.2738   11.0473   13.0294 N   0  0  0  0  0  0  0  0  0  0  0  0
   50.1921   10.1304   11.7578 C   0  0  0  0  0  0  0  0  0  0  0  0
   48.9376    9.9819   12.3823 C   0  0  0  0  0  0  0  0  0  0  0  0
   50.8459   11.4389   11.5463 C   0  0  0  0  0  0  0  0  0  0  0  0
   48.4091    8.6747   12.5122 C   0  0  0  0  0  0  0  0  0  0  0  0
   50.1902   12.5254   10.7535 C   0  0  0  0  0  0  0  0  0  0  0  0
   50.8851    9.0233   11.2415 C   0  0  0  0  0  0  0  0  0  0  0  0
   49.1033    7.5786   11.9682 C   0  0  0  0  0  0  0  0  0  0  0  0
   50.3324    7.7522   11.3364 C   0  0  0  0  0  0  0  0  0  0  0  0
   47.0736    8.4180   13.1869 C   0  0  0  0  0  0  0  0  0  0  0  0
   50.8358   13.7716   10.6858 C   0  0  0  0  0  0  0  0  0  0  0  0
   48.9797   12.3491   10.0715 C   0  0  0  0  0  0  0  0  0  0  0  0
   49.0532   14.6458    9.3103 C   0  0  0  0  0  0  0  0  0  0  0  0
   50.2635   14.8321    9.9729 C   0  0  0  0  0  0  0  0  0  0  0  0
   48.4111   13.4090    9.3509 C   0  0  0  0  0  0  0  0  0  0  0  0
   45.9118    8.9623   12.3415 C   0  0  0  0  0  0  0  0  0  0  0  0
   48.9451   10.8333   11.3306 Na  0  0  0  0  0 15  0  0  0  0  0  0
   48.9451   10.8333   11.3306 Na  0  0  0  0  0 15  0  0  0  0  0  0
   48.6251   11.0172   11.4802 O   0  0  0  0  0  0  0  0  0  0  0  0
   48.6223   10.9958   11.4939 O   0  0  0  0  0  0  0  0  0  0  0  0
   48.8614   10.1715   11.7529 H   0  0  0  0  0  0  0  0  0  0  0  0
   49.3332   11.2651   10.7959 H   0  0  0  0  0  0  0  0  0  0  0  0
   50.7851   11.9799   12.5694 H   0  0  0  0  0  0  0  0  0  0  0  0
   51.6289   12.3192   11.1988 H   0  0  0  0  0  0  0  0  0  0  0  0
   46.2951   11.9171   11.2623 H   0  0  0  0  0  0  0  0  0  0  0  0
   48.6117   12.6815    7.7147 H   0  0  0  0  0  0  0  0  0  0  0  0
   46.4211   12.5505    8.8490 H   0  0  0  0  0  0  0  0  0  0  0  0
   51.7095   11.3680    9.0117 H   0  0  0  0  0  0  0  0  0  0  0  0
   50.9140   12.1173    7.6538 H   0  0  0  0  0  0  0  0  0  0  0  0
   47.6841    9.1837   11.2359 H   0  0  0  0  0  0  0  0  0  0  0  0
   48.5273   10.2772   15.3291 H   0  0  0  0  0  0  0  0  0  0  0  0
   47.3935    6.8393   11.9244 H   0  0  0  0  0  0  0  0  0  0  0  0
   48.2474    7.9232   16.0189 H   0  0  0  0  0  0  0  0  0  0  0  0
   48.5114   11.9761   12.7164 H   0  0  0  0  0  0  0  0  0  0  0  0
   47.2470   10.9251   12.8974 H   0  0  0  0  0  0  0  0  0  0  0  0
   51.8485    9.1596   10.7440 H   0  0  0  0  0  0  0  0  0  0  0  0
   48.6754    6.5766   12.0332 H   0  0  0  0  0  0  0  0  0  0  0  0
   50.8488    6.8963   10.9108 H   0  0  0  0  0  0  0  0  0  0  0  0
   46.9306    7.3464   13.3729 H   0  0  0  0  0  0  0  0  0  0  0  0
   47.0608    8.8890   14.1769 H   0  0  0  0  0  0  0  0  0  0  0  0
   51.7816   13.9214   11.2002 H   0  0  0  0  0  0  0  0  0  0  0  0
   48.4443   11.4027   10.0976 H   0  0  0  0  0  0  0  0  0  0  0  0
   50.7766   15.7910    9.9344 H   0  0  0  0  0  0  0  0  0  0  0  0
   47.4554   13.2575    8.8573 H   0  0  0  0  0  0  0  0  0  0  0  0
   49.2485   11.3496   10.8162 H   0  0  0  0  0  0  0  0  0  0  0  0
   48.9617   10.1331   11.6956 H   0  0  0  0  0  0  0  0  0  0  0  0
   49.0034   10.1214   11.6695 H   0  0  0  0  0  0  0  0  0  0  0  0
   49.2095   11.3828   10.8285 H   0  0  0  0  0  0  0  0  0  0  0  0
  2 18  1  0
  3  9  2  0
  4 21  1  0
  5 21  2  0
  6  8  1  0
  7  8  2  0
  7  9  1  0
  7 12  1  0
  8 10  1  0
  9 11  1  0
 10 13  2  0
 10 15  1  0
 11 16  2  0
 11 17  1  0
 12 14  2  0
 13 14  1  0
 15 21  1  0
 16 19  1  0
 17 20  2  0
 18 19  2  0
 18 20  1  0
 22 38  1  0
 23 29  2  0
 24 41  1  0
 25 41  2  0
 26 28  1  0
 27 28  2  0
 27 29  1  0
 27 32  1  0
 28 30  1  0
 29 31  1  0
 30 33  2  0
 30 35  1  0
 31 36  2  0
 31 37  1  0
 32 34  2  0
 33 34  1  0
 35 41  1  0
 36 39  1  0
 37 40  2  0
 38 39  2  0
 38 40  1  0
  1 46  1  0
  1 47  1  0
  6 48  1  0
  6 49  1  0
 12 50  1  0
 13 51  1  0
 14 52  1  0
 15 53  1  0
 15 54  1  0
 16 55  1  0
 17 56  1  0
 19 57  1  0
 20 58  1  0
 26 59  1  0
 26 60  1  0
 32 61  1  0
 33 62  1  0
 34 63  1  0
 35 64  1  0
 35 65  1  0
 36 66  1  0
 37 67  1  0
 39 68  1  0
 40 69  1  0
 44 70  1  0
 44 71  1  0
 45 72  1  0
 45 73  1  0
M  CHG  4   4  -1  24  -1  42   1  43   1
M  END
> <Uni-Dock RESULT> 
ENERGY=   -4.796  LOWER_BOUND=    8.725  UPPER_BOUND=   10.947
INTER + INTRA:          -4.796
INTER:                  -4.796
INTRA:                   0.000
UNBOUND:                 0.000

$$$$

     RDKit          3D

 73 70  0  0  0  0  0  0  0  0999 V2000
   48.3347    9.7380   20.4676 O   0  0  0  0  0  0  0  0  0  0  0  0
   49.6610   15.3927   17.5341 Br  0  0  0  0  0  0  0  0  0  0  0  0
   45.8622   10.1785   19.8730 O   0  0  0  0  0  0  0  0  0  0  0  0
   49.1365    4.0799   20.8592 O   0  0  0  0  0  0  0  0  0  0  0  0
   48.0718    5.2838   19.2197 O   0  0  0  0  0  0  0  0  0  0  0  0
   48.1192    8.0258   18.8784 N   0  0  0  0  0  0  0  0  0  0  0  0
   47.8359    9.4383   20.8779 C   0  0  0  0  0  0  0  0  0  0  0  0
   48.3362    8.2788   20.2595 C   0  0  0  0  0  0  0  0  0  0  0  0
   47.0500   10.4087   20.0943 C   0  0  0  0  0  0  0  0  0  0  0  0
   49.2125    7.4510   20.9966 C   0  0  0  0  0  0  0  0  0  0  0  0
   47.7091   11.6254   19.5287 C   0  0  0  0  0  0  0  0  0  0  0  0
   48.0348    9.6819   22.2415 C   0  0  0  0  0  0  0  0  0  0  0  0
   49.4026    7.6936   22.3677 C   0  0  0  0  0  0  0  0  0  0  0  0
   48.8055    8.7939   22.9926 C   0  0  0  0  0  0  0  0  0  0  0  0
   49.9065    6.2571   20.3649 C   0  0  0  0  0  0  0  0  0  0  0  0
   49.0137   12.0102   19.8715 C   0  0  0  0  0  0  0  0  0  0  0  0
   46.9879   12.3963   18.6024 C   0  0  0  0  0  0  0  0  0  0  0  0
   48.8615   13.8944   18.3617 C   0  0  0  0  0  0  0  0  0  0  0  0
   49.5834   13.1504   19.2957 C   0  0  0  0  0  0  0  0  0  0  0  0
   47.5573   13.5301   18.0193 C   0  0  0  0  0  0  0  0  0  0  0  0
   48.9445    5.0955   20.1302 C   0  0  0  0  0  0  0  0  0  0  0  0
   47.2250    5.3331   24.2248 Br  0  0  0  0  0  0  0  0  0  0  0  0
   48.0438    7.5865   17.8064 O   0  0  0  0  0  0  0  0  0  0  0  0
   47.8175   12.4573   21.9246 O   0  0  0  0  0  0  0  0  0  0  0  0
   49.6144   13.8703   21.8282 O   0  0  0  0  0  0  0  0  0  0  0  0
   47.1255   10.7043   19.9621 N   0  0  0  0  0  0  0  0  0  0  0  0
   48.9354    9.5307   18.7436 C   0  0  0  0  0  0  0  0  0  0  0  0
   48.3994   10.6828   19.3528 C   0  0  0  0  0  0  0  0  0  0  0  0
   48.3162    8.1927   18.8471 C   0  0  0  0  0  0  0  0  0  0  0  0
   49.0953   11.9056   19.1928 C   0  0  0  0  0  0  0  0  0  0  0  0
   48.0905    7.5321   20.1706 C   0  0  0  0  0  0  0  0  0  0  0  0
   50.1445    9.5785   18.0308 C   0  0  0  0  0  0  0  0  0  0  0  0
   50.3177   11.9327   18.4969 C   0  0  0  0  0  0  0  0  0  0  0  0
   50.8389   10.7768   17.9208 C   0  0  0  0  0  0  0  0  0  0  0  0
   48.5826   13.2000   19.7982 C   0  0  0  0  0  0  0  0  0  0  0  0
   47.4054    6.3054   20.1852 C   0  0  0  0  0  0  0  0  0  0  0  0
   48.5417    8.0731   21.3811 C   0  0  0  0  0  0  0  0  0  0  0  0
   47.5931    6.2033   22.5910 C   0  0  0  0  0  0  0  0  0  0  0  0
   47.1496    5.6471   21.3942 C   0  0  0  0  0  0  0  0  0  0  0  0
   48.2924    7.4093   22.5908 C   0  0  0  0  0  0  0  0  0  0  0  0
   48.6842   13.1733   21.3310 C   0  0  0  0  0  0  0  0  0  0  0  0
   48.6120    9.6472   20.1974 Na  0  0  0  0  0 15  0  0  0  0  0  0
   48.6120    9.6472   20.1974 Na  0  0  0  0  0 15  0  0  0  0  0  0
   48.3357    9.7943   20.4436 O   0  0  0  0  0  0  0  0  0  0  0  0
   48.3394    9.8161   20.4306 O   0  0  0  0  0  0  0  0  0  0  0  0
   48.7272   10.3179   19.7970 H   0  0  0  0  0  0  0  0  0  0  0  0
   48.7742    8.8858   20.3274 H   0  0  0  0  0  0  0  0  0  0  0  0
   47.1959    8.3542   18.5981 H   0  0  0  0  0  0  0  0  0  0  0  0
   48.0984    6.9876   18.7513 H   0  0  0  0  0  0  0  0  0  0  0  0
   47.5774   10.5447   22.7125 H   0  0  0  0  0  0  0  0  0  0  0  0
   50.0073    6.9993   22.9621 H   0  0  0  0  0  0  0  0  0  0  0  0
   48.9541    8.9489   24.0540 H   0  0  0  0  0  0  0  0  0  0  0  0
   50.3506    6.5408   19.4017 H   0  0  0  0  0  0  0  0  0  0  0  0
   50.7449    5.9219   20.9827 H   0  0  0  0  0  0  0  0  0  0  0  0
   49.5983   11.4353   20.5854 H   0  0  0  0  0  0  0  0  0  0  0  0
   45.9757   12.1028   18.3288 H   0  0  0  0  0  0  0  0  0  0  0  0
   50.6018   13.4352   19.5617 H   0  0  0  0  0  0  0  0  0  0  0  0
   46.9861   14.1029   17.2924 H   0  0  0  0  0  0  0  0  0  0  0  0
   46.7746    9.8183   20.2923 H   0  0  0  0  0  0  0  0  0  0  0  0
   47.1611   11.3512   20.7787 H   0  0  0  0  0  0  0  0  0  0  0  0
   50.5546    8.6712   17.5804 H   0  0  0  0  0  0  0  0  0  0  0  0
   50.8734   12.8681   18.4090 H   0  0  0  0  0  0  0  0  0  0  0  0
   51.7905   10.8133   17.3978 H   0  0  0  0  0  0  0  0  0  0  0  0
   49.1347   14.0611   19.4019 H   0  0  0  0  0  0  0  0  0  0  0  0
   47.5397   13.3618   19.5010 H   0  0  0  0  0  0  0  0  0  0  0  0
   47.0585    5.8665   19.2532 H   0  0  0  0  0  0  0  0  0  0  0  0
   49.0744    9.0207   21.4177 H   0  0  0  0  0  0  0  0  0  0  0  0
   46.6147    4.6994   21.3859 H   0  0  0  0  0  0  0  0  0  0  0  0
   48.6237    7.8649   23.5195 H   0  0  0  0  0  0  0  0  0  0  0  0
   48.6916    8.8929   20.4161 H   0  0  0  0  0  0  0  0  0  0  0  0
   48.8087   10.2546   19.7324 H   0  0  0  0  0  0  0  0  0  0  0  0
   48.8415   10.2245   19.7083 H   0  0  0  0  0  0  0  0  0  0  0  0
   48.6551    8.9011   20.4532 H   0  0  0  0  0  0  0  0  0  0  0  0
  2 18  1  0
  3  9  2  0
  4 21  1  0
  5 21  2  0
  6  8  1  0
  7  8  2  0
  7  9  1  0
  7 12  1  0
  8 10  1  0
  9 11  1  0
 10 13  2  0
 10 15  1  0
 11 16  2  0
 11 17  1  0
 12 14  2  0
 13 14  1  0
 15 21  1  0
 16 19  1  0
 17 20  2  0
 18 19  2  0
 18 20  1  0
 22 38  1  0
 23 29  2  0
 24 41  1  0
 25 41  2  0
 26 28  1  0
 27 28  2  0
 27 29  1  0
 27 32  1  0
 28 30  1  0
 29 31  1  0
 30 33  2  0
 30 35  1  0
 31 36  2  0
 31 37  1  0
 32 34  2  0
 33 34  1  0
 35 41  1  0
 36 39  1  0
 37 40  2  0
 38 39  2  0
 38 40  1  0
  1 46  1  0
  1 47  1  0
  6 48  1  0
  6 49  1  0
 12 50  1  0
 13 51  1  0
 14 52  1  0
 15 53  1  0
 15 54  1  0
 16 55  1  0
 17 56  1  0
 19 57  1  0
 20 58  1  0
 26 59  1  0
 26 60  1  0
 32 61  1  0
 33 62  1  0
 34 63  1  0
 35 64  1  0
 35 65  1  0
 36 66  1  0
 37 67  1  0
 39 68  1  0
 40 69  1  0
 44 70  1  0
 44 71  1  0
 45 72  1  0
 45 73  1  0
M  CHG  4   4  -1  24  -1  42   1  43   1
M  END
> <Uni-Dock RESULT> 
ENERGY=   -4.771  LOWER_BOUND=    3.084  UPPER_BOUND=    4.809
INTER + INTRA:          -4.771
INTER:                  -4.771
INTRA:                   0.000
UNBOUND:                 0.000

$$$$

     RDKit          3D

 73 70  0  0  0  0  0  0  0  0999 V2000
   45.5709   11.9344   10.7335 O   0  0  0  0  0  0  0  0  0  0  0  0
   52.0629   12.3723   10.6778 Br  0  0  0  0  0  0  0  0  0  0  0  0
   45.6375   13.4008   12.8562 O   0  0  0  0  0  0  0  0  0  0  0  0
   40.5511   12.7617    8.1016 O   0  0  0  0  0  0  0  0  0  0  0  0
   42.0255   14.3125    8.9332 O   0  0  0  0  0  0  0  0  0  0  0  0
   44.6161   13.8529    9.7789 N   0  0  0  0  0  0  0  0  0  0  0  0
   45.0304   11.8778   11.1934 C   0  0  0  0  0  0  0  0  0  0  0  0
   44.3508   12.5027   10.1329 C   0  0  0  0  0  0  0  0  0  0  0  0
   46.0249   12.6336   11.9763 C   0  0  0  0  0  0  0  0  0  0  0  0
   43.5221   11.7096    9.3078 C   0  0  0  0  0  0  0  0  0  0  0  0
   47.4805   12.5093   11.6598 C   0  0  0  0  0  0  0  0  0  0  0  0
   44.7595   10.5531   11.5539 C   0  0  0  0  0  0  0  0  0  0  0  0
   43.2454   10.3825    9.6781 C   0  0  0  0  0  0  0  0  0  0  0  0
   43.8478    9.8097   10.8037 C   0  0  0  0  0  0  0  0  0  0  0  0
   42.8609   12.2711    8.0614 C   0  0  0  0  0  0  0  0  0  0  0  0
   47.9848   11.5456   10.7740 C   0  0  0  0  0  0  0  0  0  0  0  0
   48.3675   13.4132   12.2670 C   0  0  0  0  0  0  0  0  0  0  0  0
   50.2217   12.4073   11.0998 C   0  0  0  0  0  0  0  0  0  0  0  0
   49.3560   11.4893   10.5042 C   0  0  0  0  0  0  0  0  0  0  0  0
   49.7358   13.3650   11.9929 C   0  0  0  0  0  0  0  0  0  0  0  0
   41.6988   13.2008    8.4009 C   0  0  0  0  0  0  0  0  0  0  0  0
   39.9209   10.3598   11.3243 Br  0  0  0  0  0  0  0  0  0  0  0  0
   44.6263   14.9254    9.3346 O   0  0  0  0  0  0  0  0  0  0  0  0
   47.3104   10.1783   12.6507 O   0  0  0  0  0  0  0  0  0  0  0  0
   49.0150    9.1043   11.5664 O   0  0  0  0  0  0  0  0  0  0  0  0
   46.3573   12.6357   11.9749 N   0  0  0  0  0  0  0  0  0  0  0  0
   46.1960   13.2127    9.5711 C   0  0  0  0  0  0  0  0  0  0  0  0
   46.8645   12.6131   10.6570 C   0  0  0  0  0  0  0  0  0  0  0  0
   44.8218   13.7498    9.6577 C   0  0  0  0  0  0  0  0  0  0  0  0
   48.1753   12.1222   10.4431 C   0  0  0  0  0  0  0  0  0  0  0  0
   43.6639   12.8854   10.0462 C   0  0  0  0  0  0  0  0  0  0  0  0
   46.7907   13.2889    8.3010 C   0  0  0  0  0  0  0  0  0  0  0  0
   48.7480   12.1835    9.1595 C   0  0  0  0  0  0  0  0  0  0  0  0
   48.0598   12.7621    8.0958 C   0  0  0  0  0  0  0  0  0  0  0  0
   48.9775   11.4777   11.5593 C   0  0  0  0  0  0  0  0  0  0  0  0
   42.4088   13.4978   10.2018 C   0  0  0  0  0  0  0  0  0  0  0  0
   43.7751   11.5034   10.2450 C   0  0  0  0  0  0  0  0  0  0  0  0
   41.4194   11.3734   10.7866 C   0  0  0  0  0  0  0  0  0  0  0  0
   41.2909   12.7443   10.5800 C   0  0  0  0  0  0  0  0  0  0  0  0
   42.6536   10.7480   10.6158 C   0  0  0  0  0  0  0  0  0  0  0  0
   48.3772   10.1218   11.9616 C   0  0  0  0  0  0  0  0  0  0  0  0
   45.6584   12.0709   10.3703 Na  0  0  0  0  0 15  0  0  0  0  0  0
   45.6584   12.0709   10.3703 Na  0  0  0  0  0 15  0  0  0  0  0  0
   45.6308   11.9396   10.7453 O   0  0  0  0  0  0  0  0  0  0  0  0
   45.6562   11.9433   10.7457 O   0  0  0  0  0  0  0  0  0  0  0  0
   46.4393   12.1862   10.3833 H   0  0  0  0  0  0  0  0  0  0  0  0
   44.9648   12.0921    9.9941 H   0  0  0  0  0  0  0  0  0  0  0  0
   44.8100   14.4068   10.6123 H   0  0  0  0  0  0  0  0  0  0  0  0
   43.7348   14.2487    9.3775 H   0  0  0  0  0  0  0  0  0  0  0  0
   45.2417   10.1155   12.4209 H   0  0  0  0  0  0  0  0  0  0  0  0
   42.5303    9.7943    9.0920 H   0  0  0  0  0  0  0  0  0  0  0  0
   43.6046    8.7905   11.0771 H   0  0  0  0  0  0  0  0  0  0  0  0
   43.5911   12.8315    7.4628 H   0  0  0  0  0  0  0  0  0  0  0  0
   42.5098   11.4654    7.4098 H   0  0  0  0  0  0  0  0  0  0  0  0
   47.3248   10.8314   10.2879 H   0  0  0  0  0  0  0  0  0  0  0  0
   47.9838   14.1661   12.9536 H   0  0  0  0  0  0  0  0  0  0  0  0
   49.7363   10.7425    9.8066 H   0  0  0  0  0  0  0  0  0  0  0  0
   50.4020   14.0851   12.4622 H   0  0  0  0  0  0  0  0  0  0  0  0
   45.3585   12.7405   12.0662 H   0  0  0  0  0  0  0  0  0  0  0  0
   46.6233   11.7447   12.4461 H   0  0  0  0  0  0  0  0  0  0  0  0
   46.2500   13.7410    7.4659 H   0  0  0  0  0  0  0  0  0  0  0  0
   49.7425   11.7682    8.9868 H   0  0  0  0  0  0  0  0  0  0  0  0
   48.5120   12.7896    7.1083 H   0  0  0  0  0  0  0  0  0  0  0  0
   50.0255   11.3492   11.2619 H   0  0  0  0  0  0  0  0  0  0  0  0
   49.0022   12.1426   12.4308 H   0  0  0  0  0  0  0  0  0  0  0  0
   42.3033   14.5675   10.0402 H   0  0  0  0  0  0  0  0  0  0  0  0
   44.7267   10.9877   10.1374 H   0  0  0  0  0  0  0  0  0  0  0  0
   40.3277   13.2367   10.6988 H   0  0  0  0  0  0  0  0  0  0  0  0
   42.7718    9.6834   10.7960 H   0  0  0  0  0  0  0  0  0  0  0  0
   44.9178   12.0498   10.0976 H   0  0  0  0  0  0  0  0  0  0  0  0
   46.4265   12.2234   10.2681 H   0  0  0  0  0  0  0  0  0  0  0  0
   46.4165   12.2379   10.2207 H   0  0  0  0  0  0  0  0  0  0  0  0
   44.9024   12.0315   10.1446 H   0  0  0  0  0  0  0  0  0  0  0  0
  2 18  1  0
  3  9  2  0
  4 21  1  0
  5 21  2  0
  6  8  1  0
  7  8  2  0
  7  9  1  0
  7 12  1  0
  8 10  1  0
  9 11  1  0
 10 13  2  0
 10 15  1  0
 11 16  2  0
 11 17  1  0
 12 14  2  0
 13 14  1  0
 15 21  1  0
 16 19  1  0
 17 20  2  0
 18 19  2  0
 18 20  1  0
 22 38  1  0
 23 29  2  0
 24 41  1  0
 25 41  2  0
 26 28  1  0
 27 28  2  0
 27 29  1  0
 27 32  1  0
 28 30  1  0
 29 31  1  0
 30 33  2  0
 30 35  1  0
 31 36  2  0
 31 37  1  0
 32 34  2  0
 33 34  1  0
 35 41  1  0
 36 39  1  0
 37 40  2  0
 38 39  2  0
 38 40  1  0
  1 46  1  0
  1 47  1  0
  6 48  1  0
  6 49  1  0
 12 50  1  0
 13 51  1  0
 14 52  1  0
 15 53  1  0
 15 54  1  0
 16 55  1  0
 17 56  1  0
 19 57  1  0
 20 58  1  0
 26 59  1  0
 26 60  1  0
 32 61  1  0
 33 62  1  0
 34 63  1  0
 35 64  1  0
 35 65  1  0
 36 66  1  0
 37 67  1  0
 39 68  1  0
 40 69  1  0
 44 70  1  0
 44 71  1  0
 45 72  1  0
 45 73  1  0
M  CHG  4   4  -1  24  -1  42   1  43   1
M  END
> <Uni-Dock RESULT> 
ENERGY=   -4.762  LOWER_BOUND=   10.368  UPPER_BOUND=   12.245
INTER + INTRA:          -4.762
INTER:                  -4.762
INTRA:                   0.000
UNBOUND:                 0.000

$$$$

     RDKit          3D

 73 70  0  0  0  0  0  0  0  0999 V2000
   42.9216   13.5779   11.5475 O   0  0  0  0  0  0  0  0  0  0  0  0
   37.8990    9.4512   11.2572 Br  0  0  0  0  0  0  0  0  0  0  0  0
   42.1315   14.4689    9.2578 O   0  0  0  0  0  0  0  0  0  0  0  0
   45.7013   17.7764   14.2781 O   0  0  0  0  0  0  0  0  0  0  0  0
   43.6783   17.8418   13.1945 O   0  0  0  0  0  0  0  0  0  0  0  0
   42.2055   15.6823   12.2974 N   0  0  0  0  0  0  0  0  0  0  0  0
   43.4070   13.8795   11.1229 C   0  0  0  0  0  0  0  0  0  0  0  0
   43.3534   14.8627   12.1267 C   0  0  0  0  0  0  0  0  0  0  0  0
   42.2650   13.6996   10.2082 C   0  0  0  0  0  0  0  0  0  0  0  0
   44.3951   14.9044   13.0804 C   0  0  0  0  0  0  0  0  0  0  0  0
   41.2536   12.6310   10.4721 C   0  0  0  0  0  0  0  0  0  0  0  0
   44.5426   13.0817   10.9427 C   0  0  0  0  0  0  0  0  0  0  0  0
   45.5376   14.1083   12.8911 C   0  0  0  0  0  0  0  0  0  0  0  0
   45.6198   13.2120   11.8198 C   0  0  0  0  0  0  0  0  0  0  0  0
   44.3491   15.8402   14.2755 C   0  0  0  0  0  0  0  0  0  0  0  0
   41.4344   11.6394   11.4476 C   0  0  0  0  0  0  0  0  0  0  0  0
   40.0689   12.6429    9.7179 C   0  0  0  0  0  0  0  0  0  0  0  0
   39.2636   10.7126   10.9171 C   0  0  0  0  0  0  0  0  0  0  0  0
   40.4438   10.6753   11.6606 C   0  0  0  0  0  0  0  0  0  0  0  0
   39.0744   11.6870    9.9343 C   0  0  0  0  0  0  0  0  0  0  0  0
   44.6051   17.2908   13.8753 C   0  0  0  0  0  0  0  0  0  0  0  0
   48.1640   16.2704   11.4113 Br  0  0  0  0  0  0  0  0  0  0  0  0
   41.4202   16.4806   12.6038 O   0  0  0  0  0  0  0  0  0  0  0  0
   43.0708   10.9958    9.7880 O   0  0  0  0  0  0  0  0  0  0  0  0
   42.4302    9.1136   10.9201 O   0  0  0  0  0  0  0  0  0  0  0  0
   42.0218   13.4734   10.1944 N   0  0  0  0  0  0  0  0  0  0  0  0
   41.4655   14.1477   12.5124 C   0  0  0  0  0  0  0  0  0  0  0  0
   41.5131   13.1889   11.4807 C   0  0  0  0  0  0  0  0  0  0  0  0
   42.1114   15.4738   12.4212 C   0  0  0  0  0  0  0  0  0  0  0  0
   40.8669   11.9474   11.6952 C   0  0  0  0  0  0  0  0  0  0  0  0
   43.5838   15.6163   12.1957 C   0  0  0  0  0  0  0  0  0  0  0  0
   40.8318   13.8720   13.7351 C   0  0  0  0  0  0  0  0  0  0  0  0
   40.2577   11.6768   12.9342 C   0  0  0  0  0  0  0  0  0  0  0  0
   40.2413   12.6325   13.9473 C   0  0  0  0  0  0  0  0  0  0  0  0
   40.8512   10.8627   10.6332 C   0  0  0  0  0  0  0  0  0  0  0  0
   44.1003   16.9113   12.0214 C   0  0  0  0  0  0  0  0  0  0  0  0
   44.4611   14.5249   12.1658 C   0  0  0  0  0  0  0  0  0  0  0  0
   46.3255   16.0119   11.7508 C   0  0  0  0  0  0  0  0  0  0  0  0
   45.4673   17.1076   11.7905 C   0  0  0  0  0  0  0  0  0  0  0  0
   45.8311   14.7226   11.9427 C   0  0  0  0  0  0  0  0  0  0  0  0
   42.2522   10.2654   10.4303 C   0  0  0  0  0  0  0  0  0  0  0  0
   42.7229   13.6390   11.8866 Na  0  0  0  0  0 15  0  0  0  0  0  0
   42.7229   13.6390   11.8866 Na  0  0  0  0  0 15  0  0  0  0  0  0
   42.8759   13.5399   11.5325 O   0  0  0  0  0  0  0  0  0  0  0  0
   42.8550   13.5252   11.5304 O   0  0  0  0  0  0  0  0  0  0  0  0
   42.0786   13.1869   11.8243 H   0  0  0  0  0  0  0  0  0  0  0  0
   43.1684   14.1522   12.2879 H   0  0  0  0  0  0  0  0  0  0  0  0
   41.7881   15.9013   11.3937 H   0  0  0  0  0  0  0  0  0  0  0  0
   42.5312   16.5976   12.6855 H   0  0  0  0  0  0  0  0  0  0  0  0
   44.5902   12.3815   10.1163 H   0  0  0  0  0  0  0  0  0  0  0  0
   46.3863   14.2066   13.5774 H   0  0  0  0  0  0  0  0  0  0  0  0
   46.5182   12.6223   11.6867 H   0  0  0  0  0  0  0  0  0  0  0  0
   43.3685   15.7827   14.7663 H   0  0  0  0  0  0  0  0  0  0  0  0
   45.0725   15.5351   15.0375 H   0  0  0  0  0  0  0  0  0  0  0  0
   42.3400   11.6024   12.0480 H   0  0  0  0  0  0  0  0  0  0  0  0
   39.9195   13.4110    8.9607 H   0  0  0  0  0  0  0  0  0  0  0  0
   40.5902    9.9147   12.4281 H   0  0  0  0  0  0  0  0  0  0  0  0
   38.1583   11.7250    9.3495 H   0  0  0  0  0  0  0  0  0  0  0  0
   42.6879   14.2283   10.1356 H   0  0  0  0  0  0  0  0  0  0  0  0
   42.4867   12.6159    9.8264 H   0  0  0  0  0  0  0  0  0  0  0  0
   40.8206   14.6210   14.5308 H   0  0  0  0  0  0  0  0  0  0  0  0
   39.7953   10.7044   13.1126 H   0  0  0  0  0  0  0  0  0  0  0  0
   39.7775   12.4021   14.9024 H   0  0  0  0  0  0  0  0  0  0  0  0
   40.1411   10.0692   10.8970 H   0  0  0  0  0  0  0  0  0  0  0  0
   40.4862   11.2758    9.6854 H   0  0  0  0  0  0  0  0  0  0  0  0
   43.4344   17.7699   12.0531 H   0  0  0  0  0  0  0  0  0  0  0  0
   44.1054   13.5051   12.2941 H   0  0  0  0  0  0  0  0  0  0  0  0
   45.8485   18.1177   11.6546 H   0  0  0  0  0  0  0  0  0  0  0  0
   46.4866   13.8580   11.8914 H   0  0  0  0  0  0  0  0  0  0  0  0
   43.2434   14.1475   12.1926 H   0  0  0  0  0  0  0  0  0  0  0  0
   42.0492   13.2295   11.9345 H   0  0  0  0  0  0  0  0  0  0  0  0
   42.0411   13.2498   11.9801 H   0  0  0  0  0  0  0  0  0  0  0  0
   43.2725   14.1420   12.1491 H   0  0  0  0  0  0  0  0  0  0  0  0
  2 18  1  0
  3  9  2  0
  4 21  1  0
  5 21  2  0
  6  8  1  0
  7  8  2  0
  7  9  1  0
  7 12  1  0
  8 10  1  0
  9 11  1  0
 10 13  2  0
 10 15  1  0
 11 16  2  0
 11 17  1  0
 12 14  2  0
 13 14  1  0
 15 21  1  0
 16 19  1  0
 17 20  2  0
 18 19  2  0
 18 20  1  0
 22 38  1  0
 23 29  2  0
 24 41  1  0
 25 41  2  0
 26 28  1  0
 27 28  2  0
 27 29  1  0
 27 32  1  0
 28 30  1  0
 29 31  1  0
 30 33  2  0
 30 35  1  0
 31 36  2  0
 31 37  1  0
 32 34  2  0
 33 34  1  0
 35 41  1  0
 36 39  1  0
 37 40  2  0
 38 39  2  0
 38 40  1  0
  1 46  1  0
  1 47  1  0
  6 48  1  0
  6 49  1  0
 12 50  1  0
 13 51  1  0
 14 52  1  0
 15 53  1  0
 15 54  1  0
 16 55  1  0
 17 56  1  0
 19 57  1  0
 20 58  1  0
 26 59  1  0
 26 60  1  0
 32 61  1  0
 33 62  1  0
 34 63  1  0
 35 64  1  0
 35 65  1  0
 36 66  1  0
 37 67  1  0
 39 68  1  0
 40 69  1  0
 44 70  1  0
 44 71  1  0
 45 72  1  0
 45 73  1  0
M  CHG  4   4  -1  24  -1  42   1  43   1
M  END
> <Uni-Dock RESULT> 
ENERGY=   -4.704  LOWER_BOUND=   11.595  UPPER_BOUND=   13.761
INTER + INTRA:          -4.704
INTER:                  -4.704
INTRA:                   0.000
UNBOUND:                 0.000

$$$$
