
     RDKit          3D

 73 70  0  0  0  0  0  0  0  0999 V2000
   48.8790    7.8465   20.1181 O   0  0  0  0  0  0  0  0  0  0  0  0
   53.7867    3.5274   20.4960 Br  0  0  0  0  0  0  0  0  0  0  0  0
   48.4433    6.6398   17.5118 O   0  0  0  0  0  0  0  0  0  0  0  0
   48.6741   12.5819   22.0476 O   0  0  0  0  0  0  0  0  0  0  0  0
   46.6922   13.1605   21.0728 O   0  0  0  0  0  0  0  0  0  0  0  0
   49.0335    9.6398   18.0481 N   0  0  0  0  0  0  0  0  0  0  0  0
   48.2863    7.8290   19.5239 C   0  0  0  0  0  0  0  0  0  0  0  0
   48.3492    9.2017   19.2101 C   0  0  0  0  0  0  0  0  0  0  0  0
   48.9122    6.8326   18.6304 C   0  0  0  0  0  0  0  0  0  0  0  0
   47.9145   10.1303   20.1828 C   0  0  0  0  0  0  0  0  0  0  0  0
   50.1025    6.0673   19.0973 C   0  0  0  0  0  0  0  0  0  0  0  0
   47.6645    7.3661   20.6897 C   0  0  0  0  0  0  0  0  0  0  0  0
   47.2865    9.6496   21.3499 C   0  0  0  0  0  0  0  0  0  0  0  0
   47.1495    8.2833   21.5958 C   0  0  0  0  0  0  0  0  0  0  0  0
   48.0913   11.6217   19.9567 C   0  0  0  0  0  0  0  0  0  0  0  0
   50.8951    6.5067   20.1657 C   0  0  0  0  0  0  0  0  0  0  0  0
   50.4366    4.8811   18.4322 C   0  0  0  0  0  0  0  0  0  0  0  0
   52.3059    4.5600   19.9238 C   0  0  0  0  0  0  0  0  0  0  0  0
   51.9956    5.7507   20.5811 C   0  0  0  0  0  0  0  0  0  0  0  0
   51.5340    4.1227   18.8489 C   0  0  0  0  0  0  0  0  0  0  0  0
   47.7919   12.5364   21.1402 C   0  0  0  0  0  0  0  0  0  0  0  0
   47.1370   13.4144   17.6962 Br  0  0  0  0  0  0  0  0  0  0  0  0
   49.6693    9.2483   22.5037 O   0  0  0  0  0  0  0  0  0  0  0  0
   50.7578    6.2112   16.8626 O   0  0  0  0  0  0  0  0  0  0  0  0
   48.8922    4.9025   16.6188 O   0  0  0  0  0  0  0  0  0  0  0  0
   50.5373    7.6607   19.1539 N   0  0  0  0  0  0  0  0  0  0  0  0
   49.0872    7.4770   21.1060 C   0  0  0  0  0  0  0  0  0  0  0  0
   49.7168    6.8887   19.9892 C   0  0  0  0  0  0  0  0  0  0  0  0
   49.2098    8.9202   21.4083 C   0  0  0  0  0  0  0  0  0  0  0  0
   49.4964    5.5153   19.7422 C   0  0  0  0  0  0  0  0  0  0  0  0
   48.7258    9.9680   20.4601 C   0  0  0  0  0  0  0  0  0  0  0  0
   48.2986    6.7234   21.9854 C   0  0  0  0  0  0  0  0  0  0  0  0
   48.6788    4.7786   20.6258 C   0  0  0  0  0  0  0  0  0  0  0  0
   48.0884    5.3732   21.7396 C   0  0  0  0  0  0  0  0  0  0  0  0
   50.1685    4.7565   18.6143 C   0  0  0  0  0  0  0  0  0  0  0  0
   48.0233    9.6683   19.2853 C   0  0  0  0  0  0  0  0  0  0  0  0
   48.9514   11.3137   20.7938 C   0  0  0  0  0  0  0  0  0  0  0  0
   47.7866   12.0267   18.8030 C   0  0  0  0  0  0  0  0  0  0  0  0
   47.5541   10.6981   18.4576 C   0  0  0  0  0  0  0  0  0  0  0  0
   48.4827   12.3412   19.9684 C   0  0  0  0  0  0  0  0  0  0  0  0
   49.9032    5.3469   17.2327 C   0  0  0  0  0  0  0  0  0  0  0  0
   49.0070    7.9592   19.7587 Na  0  0  0  0  0 15  0  0  0  0  0  0
   49.0070    7.9592   19.7587 Na  0  0  0  0  0 15  0  0  0  0  0  0
   48.8755    7.8526   20.1188 O   0  0  0  0  0  0  0  0  0  0  0  0
   48.8819    7.8413   20.1176 O   0  0  0  0  0  0  0  0  0  0  0  0
   48.6928    8.6747   19.6511 H   0  0  0  0  0  0  0  0  0  0  0  0
   49.4493    7.3564   19.5070 H   0  0  0  0  0  0  0  0  0  0  0  0
   48.9310    8.9693   17.2849 H   0  0  0  0  0  0  0  0  0  0  0  0
   48.7254   10.5669   17.7642 H   0  0  0  0  0  0  0  0  0  0  0  0
   47.5898    6.3025   20.8948 H   0  0  0  0  0  0  0  0  0  0  0  0
   46.9099   10.3501   22.0970 H   0  0  0  0  0  0  0  0  0  0  0  0
   46.6653    7.9484   22.5096 H   0  0  0  0  0  0  0  0  0  0  0  0
   49.1279   11.8187   19.6606 H   0  0  0  0  0  0  0  0  0  0  0  0
   47.4496   11.9210   19.1197 H   0  0  0  0  0  0  0  0  0  0  0  0
   50.6790    7.4419   20.6798 H   0  0  0  0  0  0  0  0  0  0  0  0
   49.8361    4.5423   17.5911 H   0  0  0  0  0  0  0  0  0  0  0  0
   52.6002    6.1039   21.4127 H   0  0  0  0  0  0  0  0  0  0  0  0
   51.7735    3.1998   18.3279 H   0  0  0  0  0  0  0  0  0  0  0  0
   50.8468    7.1980   18.2763 H   0  0  0  0  0  0  0  0  0  0  0  0
   51.2971    8.1462   19.6170 H   0  0  0  0  0  0  0  0  0  0  0  0
   47.8419    7.1962   22.8501 H   0  0  0  0  0  0  0  0  0  0  0  0
   48.5066    3.7192   20.4414 H   0  0  0  0  0  0  0  0  0  0  0  0
   47.4647    4.7833   22.4058 H   0  0  0  0  0  0  0  0  0  0  0  0
   51.2477    4.7247   18.8116 H   0  0  0  0  0  0  0  0  0  0  0  0
   49.8341    3.7112   18.5980 H   0  0  0  0  0  0  0  0  0  0  0  0
   47.8368    8.6395   18.9804 H   0  0  0  0  0  0  0  0  0  0  0  0
   49.4864   11.5658   21.7066 H   0  0  0  0  0  0  0  0  0  0  0  0
   47.0248   10.4420   17.5444 H   0  0  0  0  0  0  0  0  0  0  0  0
   48.6659   13.3762   20.2429 H   0  0  0  0  0  0  0  0  0  0  0  0
   49.4466    7.3498   19.5189 H   0  0  0  0  0  0  0  0  0  0  0  0
   48.6990    8.6753   19.6385 H   0  0  0  0  0  0  0  0  0  0  0  0
   48.6877    8.6740   19.6615 H   0  0  0  0  0  0  0  0  0  0  0  0
   49.4515    7.3622   19.4971 H   0  0  0  0  0  0  0  0  0  0  0  0
  2 18  1  0
  3  9  2  0
  4 21  1  0
  5 21  2  0
  6  8  1  0
  7  8  2  0
  7  9  1  0
  7 12  1  0
  8 10  1  0
  9 11  1  0
 10 13  2  0
 10 15  1  0
 11 16  2  0
 11 17  1  0
 12 14  2  0
 13 14  1  0
 15 21  1  0
 16 19  1  0
 17 20  2  0
 18 19  2  0
 18 20  1  0
 22 38  1  0
 23 29  2  0
 24 41  1  0
 25 41  2  0
 26 28  1  0
 27 28  2  0
 27 29  1  0
 27 32  1  0
 28 30  1  0
 29 31  1  0
 30 33  2  0
 30 35  1  0
 31 36  2  0
 31 37  1  0
 32 34  2  0
 33 34  1  0
 35 41  1  0
 36 39  1  0
 37 40  2  0
 38 39  2  0
 38 40  1  0
  1 46  1  0
  1 47  1  0
  6 48  1  0
  6 49  1  0
 12 50  1  0
 13 51  1  0
 14 52  1  0
 15 53  1  0
 15 54  1  0
 16 55  1  0
 17 56  1  0
 19 57  1  0
 20 58  1  0
 26 59  1  0
 26 60  1  0
 32 61  1  0
 33 62  1  0
 34 63  1  0
 35 64  1  0
 35 65  1  0
 36 66  1  0
 37 67  1  0
 39 68  1  0
 40 69  1  0
 44 70  1  0
 44 71  1  0
 45 72  1  0
 45 73  1  0
M  CHG  4   4  -1  24  -1  42   1  43   1
M  END
> <Uni-Dock RESULT> 
ENERGY=   -5.177  LOWER_BOUND=    0.000  UPPER_BOUND=    0.000
INTER + INTRA:          -5.177
INTER:                  -5.177
INTRA:                   0.000
UNBOUND:                 0.000

$$$$

     RDKit          3D

 73 70  0  0  0  0  0  0  0  0999 V2000
   50.2382    5.5630   19.4709 O   0  0  0  0  0  0  0  0  0  0  0  0
   46.4911   10.8875   20.1713 Br  0  0  0  0  0  0  0  0  0  0  0  0
   49.4830    5.0606   22.2305 O   0  0  0  0  0  0  0  0  0  0  0  0
   54.4937    5.0320   16.6784 O   0  0  0  0  0  0  0  0  0  0  0  0
   55.0168    2.9372   17.4208 O   0  0  0  0  0  0  0  0  0  0  0  0
   52.3827    5.3891   21.1725 N   0  0  0  0  0  0  0  0  0  0  0  0
   50.2633    4.9334   20.0255 C   0  0  0  0  0  0  0  0  0  0  0  0
   51.6685    4.8375   20.0789 C   0  0  0  0  0  0  0  0  0  0  0  0
   49.5205    5.5881   21.1221 C   0  0  0  0  0  0  0  0  0  0  0  0
   52.3517    4.3849   18.9274 C   0  0  0  0  0  0  0  0  0  0  0  0
   48.8196    6.8789   20.8709 C   0  0  0  0  0  0  0  0  0  0  0  0
   49.5310    4.4465   18.9361 C   0  0  0  0  0  0  0  0  0  0  0  0
   51.6013    3.8938   17.8397 C   0  0  0  0  0  0  0  0  0  0  0  0
   50.2064    3.9106   17.8479 C   0  0  0  0  0  0  0  0  0  0  0  0
   53.8697    4.3968   18.8785 C   0  0  0  0  0  0  0  0  0  0  0  0
   49.1430    7.6996   19.7826 C   0  0  0  0  0  0  0  0  0  0  0  0
   47.8177    7.2793   21.7637 C   0  0  0  0  0  0  0  0  0  0  0  0
   47.4402    9.2744   20.4602 C   0  0  0  0  0  0  0  0  0  0  0  0
   48.4505    8.8965   19.5755 C   0  0  0  0  0  0  0  0  0  0  0  0
   47.1223    8.4736   21.5556 C   0  0  0  0  0  0  0  0  0  0  0  0
   54.5162    4.0952   17.5301 C   0  0  0  0  0  0  0  0  0  0  0  0
   55.9256    3.1087   20.7084 Br  0  0  0  0  0  0  0  0  0  0  0  0
   51.2633    6.3820   16.9098 O   0  0  0  0  0  0  0  0  0  0  0  0
   49.4373    7.3530   23.0705 O   0  0  0  0  0  0  0  0  0  0  0  0
   47.9965    5.6129   23.4564 O   0  0  0  0  0  0  0  0  0  0  0  0
   50.4145    7.1572   20.5393 N   0  0  0  0  0  0  0  0  0  0  0  0
   49.7212    5.8777   18.5824 C   0  0  0  0  0  0  0  0  0  0  0  0
   49.4181    6.4796   19.8215 C   0  0  0  0  0  0  0  0  0  0  0  0
   51.0903    5.8788   18.0214 C   0  0  0  0  0  0  0  0  0  0  0  0
   48.0964    6.3786   20.3100 C   0  0  0  0  0  0  0  0  0  0  0  0
   52.2326    5.2263   18.7290 C   0  0  0  0  0  0  0  0  0  0  0  0
   48.7383    5.2333   17.8195 C   0  0  0  0  0  0  0  0  0  0  0  0
   47.1260    5.7039   19.5384 C   0  0  0  0  0  0  0  0  0  0  0  0
   47.4402    5.1402   18.3031 C   0  0  0  0  0  0  0  0  0  0  0  0
   47.6334    7.0387   21.5943 C   0  0  0  0  0  0  0  0  0  0  0  0
   52.0749    4.4735   19.9002 C   0  0  0  0  0  0  0  0  0  0  0  0
   53.5121    5.3415   18.1609 C   0  0  0  0  0  0  0  0  0  0  0  0
   54.4408    3.9707   19.9178 C   0  0  0  0  0  0  0  0  0  0  0  0
   53.1793    3.8460   20.4937 C   0  0  0  0  0  0  0  0  0  0  0  0
   54.6139    4.7150   18.7527 C   0  0  0  0  0  0  0  0  0  0  0  0
   48.4313    6.6169   22.8244 C   0  0  0  0  0  0  0  0  0  0  0  0
   50.4276    5.6528   19.8089 Na  0  0  0  0  0 15  0  0  0  0  0  0
   50.4276    5.6528   19.8089 Na  0  0  0  0  0 15  0  0  0  0  0  0
   50.2436    5.5589   19.4688 O   0  0  0  0  0  0  0  0  0  0  0  0
   50.2336    5.5663   19.4725 O   0  0  0  0  0  0  0  0  0  0  0  0
   51.1116    5.2625   19.7635 H   0  0  0  0  0  0  0  0  0  0  0  0
   49.9330    6.1331   20.1925 H   0  0  0  0  0  0  0  0  0  0  0  0
   51.8544    5.2982   22.0415 H   0  0  0  0  0  0  0  0  0  0  0  0
   53.3061    4.9712   21.2605 H   0  0  0  0  0  0  0  0  0  0  0  0
   48.4463    4.4922   18.9306 H   0  0  0  0  0  0  0  0  0  0  0  0
   52.1089    3.5051   16.9555 H   0  0  0  0  0  0  0  0  0  0  0  0
   49.6601    3.5293   16.9888 H   0  0  0  0  0  0  0  0  0  0  0  0
   54.2303    5.3847   19.1868 H   0  0  0  0  0  0  0  0  0  0  0  0
   54.2429    3.6697   19.6092 H   0  0  0  0  0  0  0  0  0  0  0  0
   49.9398    7.4301   19.0913 H   0  0  0  0  0  0  0  0  0  0  0  0
   47.5726    6.6558   22.6204 H   0  0  0  0  0  0  0  0  0  0  0  0
   48.7118    9.5220   18.7256 H   0  0  0  0  0  0  0  0  0  0  0  0
   46.3412    8.7645   22.2526 H   0  0  0  0  0  0  0  0  0  0  0  0
   50.1554    7.4464   21.5033 H   0  0  0  0  0  0  0  0  0  0  0  0
   50.8889    7.8969   20.0342 H   0  0  0  0  0  0  0  0  0  0  0  0
   48.9933    4.7960   16.8585 H   0  0  0  0  0  0  0  0  0  0  0  0
   46.1052    5.6243   19.9090 H   0  0  0  0  0  0  0  0  0  0  0  0
   46.6741    4.6277   17.7273 H   0  0  0  0  0  0  0  0  0  0  0  0
   47.6857    8.1272   21.4640 H   0  0  0  0  0  0  0  0  0  0  0  0
   46.5778    6.8089   21.7888 H   0  0  0  0  0  0  0  0  0  0  0  0
   51.1041    4.3678   20.3825 H   0  0  0  0  0  0  0  0  0  0  0  0
   53.6522    5.9138   17.2467 H   0  0  0  0  0  0  0  0  0  0  0  0
   53.0360    3.2798   21.4095 H   0  0  0  0  0  0  0  0  0  0  0  0
   55.5960    4.8146   18.2988 H   0  0  0  0  0  0  0  0  0  0  0  0
   49.9241    6.1318   20.1819 H   0  0  0  0  0  0  0  0  0  0  0  0
   51.1151    5.2677   19.7760 H   0  0  0  0  0  0  0  0  0  0  0  0
   51.1084    5.2583   19.7531 H   0  0  0  0  0  0  0  0  0  0  0  0
   49.9407    6.1339   20.2012 H   0  0  0  0  0  0  0  0  0  0  0  0
  2 18  1  0
  3  9  2  0
  4 21  1  0
  5 21  2  0
  6  8  1  0
  7  8  2  0
  7  9  1  0
  7 12  1  0
  8 10  1  0
  9 11  1  0
 10 13  2  0
 10 15  1  0
 11 16  2  0
 11 17  1  0
 12 14  2  0
 13 14  1  0
 15 21  1  0
 16 19  1  0
 17 20  2  0
 18 19  2  0
 18 20  1  0
 22 38  1  0
 23 29  2  0
 24 41  1  0
 25 41  2  0
 26 28  1  0
 27 28  2  0
 27 29  1  0
 27 32  1  0
 28 30  1  0
 29 31  1  0
 30 33  2  0
 30 35  1  0
 31 36  2  0
 31 37  1  0
 32 34  2  0
 33 34  1  0
 35 41  1  0
 36 39  1  0
 37 40  2  0
 38 39  2  0
 38 40  1  0
  1 46  1  0
  1 47  1  0
  6 48  1  0
  6 49  1  0
 12 50  1  0
 13 51  1  0
 14 52  1  0
 15 53  1  0
 15 54  1  0
 16 55  1  0
 17 56  1  0
 19 57  1  0
 20 58  1  0
 26 59  1  0
 26 60  1  0
 32 61  1  0
 33 62  1  0
 34 63  1  0
 35 64  1  0
 35 65  1  0
 36 66  1  0
 37 67  1  0
 39 68  1  0
 40 69  1  0
 44 70  1  0
 44 71  1  0
 45 72  1  0
 45 73  1  0
M  CHG  4   4  -1  24  -1  42   1  43   1
M  END
> <Uni-Dock RESULT> 
ENERGY=   -5.018  LOWER_BOUND=    2.325  UPPER_BOUND=    6.667
INTER + INTRA:          -5.018
INTER:                  -5.018
INTRA:                   0.000
UNBOUND:                 0.000

$$$$

     RDKit          3D

 73 70  0  0  0  0  0  0  0  0999 V2000
   48.6059    8.6531   18.9348 O   0  0  0  0  0  0  0  0  0  0  0  0
   51.8923    5.1019   23.3474 Br  0  0  0  0  0  0  0  0  0  0  0  0
   47.5358    6.0751   18.1302 O   0  0  0  0  0  0  0  0  0  0  0  0
   50.1255   12.9060   16.5280 O   0  0  0  0  0  0  0  0  0  0  0  0
   48.3401   13.0396   15.1111 O   0  0  0  0  0  0  0  0  0  0  0  0
   49.1044    8.0388   16.3083 N   0  0  0  0  0  0  0  0  0  0  0  0
   47.9793    8.3508   18.4651 C   0  0  0  0  0  0  0  0  0  0  0  0
   48.4428    8.8759   17.2420 C   0  0  0  0  0  0  0  0  0  0  0  0
   48.1571    6.9168   18.7736 C   0  0  0  0  0  0  0  0  0  0  0  0
   48.4319   10.2787   17.0700 C   0  0  0  0  0  0  0  0  0  0  0  0
   49.0837    6.5063   19.8660 C   0  0  0  0  0  0  0  0  0  0  0  0
   47.3691    9.1592   19.4316 C   0  0  0  0  0  0  0  0  0  0  0  0
   47.8104   11.0797   18.0496 C   0  0  0  0  0  0  0  0  0  0  0  0
   47.2719   10.5265   19.2115 C   0  0  0  0  0  0  0  0  0  0  0  0
   49.0499   10.9075   15.8333 C   0  0  0  0  0  0  0  0  0  0  0  0
   50.0831    7.3597   20.3514 C   0  0  0  0  0  0  0  0  0  0  0  0
   48.9502    5.2216   20.4072 C   0  0  0  0  0  0  0  0  0  0  0  0
   50.7660    5.6653   21.9329 C   0  0  0  0  0  0  0  0  0  0  0  0
   50.9226    6.9399   21.3878 C   0  0  0  0  0  0  0  0  0  0  0  0
   49.7862    4.8023   21.4457 C   0  0  0  0  0  0  0  0  0  0  0  0
   49.1843   12.4271   15.8292 C   0  0  0  0  0  0  0  0  0  0  0  0
   48.4837   10.4561   12.8820 Br  0  0  0  0  0  0  0  0  0  0  0  0
   50.0489   11.0733   19.5191 O   0  0  0  0  0  0  0  0  0  0  0  0
   49.5110    4.6817   18.4759 O   0  0  0  0  0  0  0  0  0  0  0  0
   47.3108    4.2675   18.9663 O   0  0  0  0  0  0  0  0  0  0  0  0
   50.0070    7.3393   18.7775 N   0  0  0  0  0  0  0  0  0  0  0  0
   48.7885    9.1455   19.8729 C   0  0  0  0  0  0  0  0  0  0  0  0
   49.0762    7.7717   19.7334 C   0  0  0  0  0  0  0  0  0  0  0  0
   49.3958   10.1695   18.9943 C   0  0  0  0  0  0  0  0  0  0  0  0
   48.4049    6.8576   20.5757 C   0  0  0  0  0  0  0  0  0  0  0  0
   49.1737   10.1727   17.5172 C   0  0  0  0  0  0  0  0  0  0  0  0
   47.8983    9.6136   20.8485 C   0  0  0  0  0  0  0  0  0  0  0  0
   47.4932    7.3467   21.5358 C   0  0  0  0  0  0  0  0  0  0  0  0
   47.2442    8.7109   21.6759 C   0  0  0  0  0  0  0  0  0  0  0  0
   48.6772    5.3659   20.5660 C   0  0  0  0  0  0  0  0  0  0  0  0
   48.2925    9.2919   16.8760 C   0  0  0  0  0  0  0  0  0  0  0  0
   49.8503   11.1364   16.7511 C   0  0  0  0  0  0  0  0  0  0  0  0
   48.7702   10.3346   14.7464 C   0  0  0  0  0  0  0  0  0  0  0  0
   48.0913    9.3737   15.4909 C   0  0  0  0  0  0  0  0  0  0  0  0
   49.6491   11.2184   15.3693 C   0  0  0  0  0  0  0  0  0  0  0  0
   48.4696    4.7122   19.2032 C   0  0  0  0  0  0  0  0  0  0  0  0
   48.7245    8.4046   18.6478 Na  0  0  0  0  0 15  0  0  0  0  0  0
   48.7245    8.4046   18.6478 Na  0  0  0  0  0 15  0  0  0  0  0  0
   48.6046    8.6582   18.9300 O   0  0  0  0  0  0  0  0  0  0  0  0
   48.6069    8.6490   18.9389 O   0  0  0  0  0  0  0  0  0  0  0  0
   48.6451    8.8187   17.9810 H   0  0  0  0  0  0  0  0  0  0  0  0
   48.9225    7.7420   19.0274 H   0  0  0  0  0  0  0  0  0  0  0  0
   48.7136    7.0955   16.3170 H   0  0  0  0  0  0  0  0  0  0  0  0
   49.0797    8.4361   15.3720 H   0  0  0  0  0  0  0  0  0  0  0  0
   46.9814    8.7302   20.3506 H   0  0  0  0  0  0  0  0  0  0  0  0
   47.7578   12.1618   17.9191 H   0  0  0  0  0  0  0  0  0  0  0  0
   46.8055   11.1753   19.9485 H   0  0  0  0  0  0  0  0  0  0  0  0
   50.0579   10.5017   15.6908 H   0  0  0  0  0  0  0  0  0  0  0  0
   48.4525   10.6127   14.9626 H   0  0  0  0  0  0  0  0  0  0  0  0
   50.2317    8.3514   19.9271 H   0  0  0  0  0  0  0  0  0  0  0  0
   48.1878    4.5473   20.0240 H   0  0  0  0  0  0  0  0  0  0  0  0
   51.6924    7.6140   21.7549 H   0  0  0  0  0  0  0  0  0  0  0  0
   49.6627    3.8058   21.8607 H   0  0  0  0  0  0  0  0  0  0  0  0
   50.0584    6.3112   18.6338 H   0  0  0  0  0  0  0  0  0  0  0  0
   50.9263    7.7614   18.8421 H   0  0  0  0  0  0  0  0  0  0  0  0
   47.7100   10.6786   20.9491 H   0  0  0  0  0  0  0  0  0  0  0  0
   46.9739    6.6470   22.1889 H   0  0  0  0  0  0  0  0  0  0  0  0
   46.5390    9.0619   22.4245 H   0  0  0  0  0  0  0  0  0  0  0  0
   49.7044    5.1979   20.9140 H   0  0  0  0  0  0  0  0  0  0  0  0
   48.0273    4.8492   21.2841 H   0  0  0  0  0  0  0  0  0  0  0  0
   47.7568    8.5207   17.4279 H   0  0  0  0  0  0  0  0  0  0  0  0
   50.5309   11.8348   17.2328 H   0  0  0  0  0  0  0  0  0  0  0  0
   47.4147    8.6710   15.0131 H   0  0  0  0  0  0  0  0  0  0  0  0
   50.1805   11.9706   14.7931 H   0  0  0  0  0  0  0  0  0  0  0  0
   48.9190    7.7483   19.0394 H   0  0  0  0  0  0  0  0  0  0  0  0
   48.6498    8.8075   17.9738 H   0  0  0  0  0  0  0  0  0  0  0  0
   48.6412    8.8277   17.9872 H   0  0  0  0  0  0  0  0  0  0  0  0
   48.9253    7.7371   19.0173 H   0  0  0  0  0  0  0  0  0  0  0  0
  2 18  1  0
  3  9  2  0
  4 21  1  0
  5 21  2  0
  6  8  1  0
  7  8  2  0
  7  9  1  0
  7 12  1  0
  8 10  1  0
  9 11  1  0
 10 13  2  0
 10 15  1  0
 11 16  2  0
 11 17  1  0
 12 14  2  0
 13 14  1  0
 15 21  1  0
 16 19  1  0
 17 20  2  0
 18 19  2  0
 18 20  1  0
 22 38  1  0
 23 29  2  0
 24 41  1  0
 25 41  2  0
 26 28  1  0
 27 28  2  0
 27 29  1  0
 27 32  1  0
 28 30  1  0
 29 31  1  0
 30 33  2  0
 30 35  1  0
 31 36  2  0
 31 37  1  0
 32 34  2  0
 33 34  1  0
 35 41  1  0
 36 39  1  0
 37 40  2  0
 38 39  2  0
 38 40  1  0
  1 46  1  0
  1 47  1  0
  6 48  1  0
  6 49  1  0
 12 50  1  0
 13 51  1  0
 14 52  1  0
 15 53  1  0
 15 54  1  0
 16 55  1  0
 17 56  1  0
 19 57  1  0
 20 58  1  0
 26 59  1  0
 26 60  1  0
 32 61  1  0
 33 62  1  0
 34 63  1  0
 35 64  1  0
 35 65  1  0
 36 66  1  0
 37 67  1  0
 39 68  1  0
 40 69  1  0
 44 70  1  0
 44 71  1  0
 45 72  1  0
 45 73  1  0
M  CHG  4   4  -1  24  -1  42   1  43   1
M  END
> <Uni-Dock RESULT> 
ENERGY=   -4.751  LOWER_BOUND=    2.419  UPPER_BOUND=    3.107
INTER + INTRA:          -4.751
INTER:                  -4.751
INTRA:                   0.000
UNBOUND:                 0.000

$$$$

     RDKit          3D

 73 70  0  0  0  0  0  0  0  0999 V2000
   49.3813    6.7444   20.6672 O   0  0  0  0  0  0  0  0  0  0  0  0
   46.9699   12.8309   20.8101 Br  0  0  0  0  0  0  0  0  0  0  0  0
   51.4915    7.8850   22.3058 O   0  0  0  0  0  0  0  0  0  0  0  0
   49.1317    3.3290   16.8643 O   0  0  0  0  0  0  0  0  0  0  0  0
   50.4991    1.7789   17.8340 O   0  0  0  0  0  0  0  0  0  0  0  0
   51.8789    6.4832   19.5633 N   0  0  0  0  0  0  0  0  0  0  0  0
   50.0122    6.4804   21.1541 C   0  0  0  0  0  0  0  0  0  0  0  0
   50.7412    5.8506   20.1253 C   0  0  0  0  0  0  0  0  0  0  0  0
   50.4428    7.7951   21.6730 C   0  0  0  0  0  0  0  0  0  0  0  0
   50.1887    4.6968   19.5245 C   0  0  0  0  0  0  0  0  0  0  0  0
   49.5976    8.9978   21.4285 C   0  0  0  0  0  0  0  0  0  0  0  0
   48.8544    5.9086   21.6951 C   0  0  0  0  0  0  0  0  0  0  0  0
   49.0249    4.1298   20.0826 C   0  0  0  0  0  0  0  0  0  0  0  0
   48.3715    4.7199   21.1647 C   0  0  0  0  0  0  0  0  0  0  0  0
   50.8586    4.0607   18.3190 C   0  0  0  0  0  0  0  0  0  0  0  0
   48.6319    9.0326   20.4141 C   0  0  0  0  0  0  0  0  0  0  0  0
   49.7923   10.1258   22.2353 C   0  0  0  0  0  0  0  0  0  0  0  0
   48.0393   11.2867   21.0515 C   0  0  0  0  0  0  0  0  0  0  0  0
   47.8502   10.1768   20.2278 C   0  0  0  0  0  0  0  0  0  0  0  0
   49.0088   11.2686   22.0524 C   0  0  0  0  0  0  0  0  0  0  0  0
   50.0860    2.9543   17.6076 C   0  0  0  0  0  0  0  0  0  0  0  0
   53.6840    3.0070   17.9431 Br  0  0  0  0  0  0  0  0  0  0  0  0
   47.4932    5.8332   18.6961 O   0  0  0  0  0  0  0  0  0  0  0  0
   51.6490   10.1012   21.2929 O   0  0  0  0  0  0  0  0  0  0  0  0
   51.7061    9.4813   23.4986 O   0  0  0  0  0  0  0  0  0  0  0  0
   50.0009    8.4160   19.9352 N   0  0  0  0  0  0  0  0  0  0  0  0
   48.3085    6.8111   20.6477 C   0  0  0  0  0  0  0  0  0  0  0  0
   49.0796    7.9666   20.8925 C   0  0  0  0  0  0  0  0  0  0  0  0
   48.4752    5.9995   19.4219 C   0  0  0  0  0  0  0  0  0  0  0  0
   48.8969    8.6471   22.1170 C   0  0  0  0  0  0  0  0  0  0  0  0
   49.7672    5.3264   19.0918 C   0  0  0  0  0  0  0  0  0  0  0  0
   47.3476    6.3625   21.5634 C   0  0  0  0  0  0  0  0  0  0  0  0
   47.9414    8.1653   23.0374 C   0  0  0  0  0  0  0  0  0  0  0  0
   47.1699    7.0373   22.7636 C   0  0  0  0  0  0  0  0  0  0  0  0
   49.6175    9.9347   22.4666 C   0  0  0  0  0  0  0  0  0  0  0  0
   50.8655    5.3145   19.9619 C   0  0  0  0  0  0  0  0  0  0  0  0
   49.8590    4.6392   17.8701 C   0  0  0  0  0  0  0  0  0  0  0  0
   52.1112    3.9503   18.4005 C   0  0  0  0  0  0  0  0  0  0  0  0
   52.0368    4.6262   19.6155 C   0  0  0  0  0  0  0  0  0  0  0  0
   51.0273    3.9519   17.5248 C   0  0  0  0  0  0  0  0  0  0  0  0
   51.1382    9.8195   22.4217 C   0  0  0  0  0  0  0  0  0  0  0  0
   49.7371    6.8886   20.5631 Na  0  0  0  0  0 15  0  0  0  0  0  0
   49.7371    6.8886   20.5631 Na  0  0  0  0  0 15  0  0  0  0  0  0
   49.3831    6.7380   20.6647 O   0  0  0  0  0  0  0  0  0  0  0  0
   49.3797    6.7496   20.6694 O   0  0  0  0  0  0  0  0  0  0  0  0
   50.1115    6.2769   20.2347 H   0  0  0  0  0  0  0  0  0  0  0  0
   49.7185    7.6447   20.7875 H   0  0  0  0  0  0  0  0  0  0  0  0
   52.3910    7.0153   20.2685 H   0  0  0  0  0  0  0  0  0  0  0  0
   52.4860    5.8106   19.1005 H   0  0  0  0  0  0  0  0  0  0  0  0
   48.3287    6.3883   22.5151 H   0  0  0  0  0  0  0  0  0  0  0  0
   48.6022    3.2180   19.6576 H   0  0  0  0  0  0  0  0  0  0  0  0
   47.4727    4.2583   21.5655 H   0  0  0  0  0  0  0  0  0  0  0  0
   51.0598    4.8356   17.5706 H   0  0  0  0  0  0  0  0  0  0  0  0
   51.8259    3.6547   18.6375 H   0  0  0  0  0  0  0  0  0  0  0  0
   48.4817    8.1827   19.7503 H   0  0  0  0  0  0  0  0  0  0  0  0
   50.5516   10.1124   23.0138 H   0  0  0  0  0  0  0  0  0  0  0  0
   47.1038   10.1882   19.4374 H   0  0  0  0  0  0  0  0  0  0  0  0
   49.1664   12.1316   22.6936 H   0  0  0  0  0  0  0  0  0  0  0  0
   50.6316    9.1821   20.2440 H   0  0  0  0  0  0  0  0  0  0  0  0
   49.6215    8.5843   19.0104 H   0  0  0  0  0  0  0  0  0  0  0  0
   46.7520    5.4816   21.3415 H   0  0  0  0  0  0  0  0  0  0  0  0
   47.7951    8.6865   23.9822 H   0  0  0  0  0  0  0  0  0  0  0  0
   46.4393    6.6879   23.4883 H   0  0  0  0  0  0  0  0  0  0  0  0
   49.2770   10.7208   21.7807 H   0  0  0  0  0  0  0  0  0  0  0  0
   49.3401   10.2723   23.4735 H   0  0  0  0  0  0  0  0  0  0  0  0
   50.8438    5.8443   20.9132 H   0  0  0  0  0  0  0  0  0  0  0  0
   49.0133    4.6293   17.1863 H   0  0  0  0  0  0  0  0  0  0  0  0
   52.8809    4.6428   20.2989 H   0  0  0  0  0  0  0  0  0  0  0  0
   51.0800    3.4254   16.5760 H   0  0  0  0  0  0  0  0  0  0  0  0
   49.7056    7.6427   20.7922 H   0  0  0  0  0  0  0  0  0  0  0  0
   50.1226    6.2852   20.2325 H   0  0  0  0  0  0  0  0  0  0  0  0
   50.1021    6.2703   20.2366 H   0  0  0  0  0  0  0  0  0  0  0  0
   49.7294    7.6462   20.7834 H   0  0  0  0  0  0  0  0  0  0  0  0
  2 18  1  0
  3  9  2  0
  4 21  1  0
  5 21  2  0
  6  8  1  0
  7  8  2  0
  7  9  1  0
  7 12  1  0
  8 10  1  0
  9 11  1  0
 10 13  2  0
 10 15  1  0
 11 16  2  0
 11 17  1  0
 12 14  2  0
 13 14  1  0
 15 21  1  0
 16 19  1  0
 17 20  2  0
 18 19  2  0
 18 20  1  0
 22 38  1  0
 23 29  2  0
 24 41  1  0
 25 41  2  0
 26 28  1  0
 27 28  2  0
 27 29  1  0
 27 32  1  0
 28 30  1  0
 29 31  1  0
 30 33  2  0
 30 35  1  0
 31 36  2  0
 31 37  1  0
 32 34  2  0
 33 34  1  0
 35 41  1  0
 36 39  1  0
 37 40  2  0
 38 39  2  0
 38 40  1  0
  1 46  1  0
  1 47  1  0
  6 48  1  0
  6 49  1  0
 12 50  1  0
 13 51  1  0
 14 52  1  0
 15 53  1  0
 15 54  1  0
 16 55  1  0
 17 56  1  0
 19 57  1  0
 20 58  1  0
 26 59  1  0
 26 60  1  0
 32 61  1  0
 33 62  1  0
 34 63  1  0
 35 64  1  0
 35 65  1  0
 36 66  1  0
 37 67  1  0
 39 68  1  0
 40 69  1  0
 44 70  1  0
 44 71  1  0
 45 72  1  0
 45 73  1  0
M  CHG  4   4  -1  24  -1  42   1  43   1
M  END
> <Uni-Dock RESULT> 
ENERGY=   -4.464  LOWER_BOUND=    1.791  UPPER_BOUND=    6.288
INTER + INTRA:          -4.464
INTER:                  -4.464
INTRA:                   0.000
UNBOUND:                 0.000

$$$$

     RDKit          3D

 73 70  0  0  0  0  0  0  0  0999 V2000
   49.7259    6.6062   18.9720 O   0  0  0  0  0  0  0  0  0  0  0  0
   54.6643    2.7330   20.8407 Br  0  0  0  0  0  0  0  0  0  0  0  0
   51.4418    7.1555   16.6932 O   0  0  0  0  0  0  0  0  0  0  0  0
   46.5555    9.3371   21.9181 O   0  0  0  0  0  0  0  0  0  0  0  0
   45.5114   10.4327   20.2085 O   0  0  0  0  0  0  0  0  0  0  0  0
   50.3438    9.2639   18.6896 N   0  0  0  0  0  0  0  0  0  0  0  0
   49.6685    6.9553   18.2107 C   0  0  0  0  0  0  0  0  0  0  0  0
   49.3514    8.2515   18.6643 C   0  0  0  0  0  0  0  0  0  0  0  0
   51.0325    6.6474   17.7337 C   0  0  0  0  0  0  0  0  0  0  0  0
   48.1016    8.4526   19.2929 C   0  0  0  0  0  0  0  0  0  0  0  0
   51.8960    5.7188   18.5166 C   0  0  0  0  0  0  0  0  0  0  0  0
   48.7275    5.9186   18.2216 C   0  0  0  0  0  0  0  0  0  0  0  0
   47.1627    7.4010   19.2926 C   0  0  0  0  0  0  0  0  0  0  0  0
   47.4654    6.1516   18.7509 C   0  0  0  0  0  0  0  0  0  0  0  0
   47.7654    9.7910   19.9272 C   0  0  0  0  0  0  0  0  0  0  0  0
   51.6452    5.4309   19.8645 C   0  0  0  0  0  0  0  0  0  0  0  0
   52.9960    5.1323   17.8784 C   0  0  0  0  0  0  0  0  0  0  0  0
   53.5529    3.9485   19.9058 C   0  0  0  0  0  0  0  0  0  0  0  0
   52.4725    4.5425   20.5584 C   0  0  0  0  0  0  0  0  0  0  0  0
   53.8213    4.2413   18.5700 C   0  0  0  0  0  0  0  0  0  0  0  0
   46.4914    9.8542   20.7639 C   0  0  0  0  0  0  0  0  0  0  0  0
   47.7187   12.5915   18.7484 Br  0  0  0  0  0  0  0  0  0  0  0  0
   48.3114    6.3337   21.4631 O   0  0  0  0  0  0  0  0  0  0  0  0
   53.6195    7.1174   17.7970 O   0  0  0  0  0  0  0  0  0  0  0  0
   52.9765    6.2504   15.7752 O   0  0  0  0  0  0  0  0  0  0  0  0
   51.5329    6.9680   19.5358 N   0  0  0  0  0  0  0  0  0  0  0  0
   49.4350    5.7249   19.5145 C   0  0  0  0  0  0  0  0  0  0  0  0
   50.7710    5.8784   19.0892 C   0  0  0  0  0  0  0  0  0  0  0  0
   48.7675    6.7181   20.3847 C   0  0  0  0  0  0  0  0  0  0  0  0
   51.3095    4.9127   18.2099 C   0  0  0  0  0  0  0  0  0  0  0  0
   48.5713    8.1356   19.9565 C   0  0  0  0  0  0  0  0  0  0  0  0
   48.6621    4.6237   19.1231 C   0  0  0  0  0  0  0  0  0  0  0  0
   50.5071    3.8236   17.8073 C   0  0  0  0  0  0  0  0  0  0  0  0
   49.1978    3.6758   18.2617 C   0  0  0  0  0  0  0  0  0  0  0  0
   52.7499    4.9329   17.7361 C   0  0  0  0  0  0  0  0  0  0  0  0
   48.8926    8.5965   18.6728 C   0  0  0  0  0  0  0  0  0  0  0  0
   47.9963    9.0283   20.8761 C   0  0  0  0  0  0  0  0  0  0  0  0
   48.0725   10.8006   19.2385 C   0  0  0  0  0  0  0  0  0  0  0  0
   48.6427    9.9288   18.3147 C   0  0  0  0  0  0  0  0  0  0  0  0
   47.7464   10.3574   20.5187 C   0  0  0  0  0  0  0  0  0  0  0  0
   53.1455    6.2246   17.0271 C   0  0  0  0  0  0  0  0  0  0  0  0
   49.9832    6.9033   18.9105 Na  0  0  0  0  0 15  0  0  0  0  0  0
   49.9832    6.9033   18.9105 Na  0  0  0  0  0 15  0  0  0  0  0  0
   49.7206    6.6109   18.9725 O   0  0  0  0  0  0  0  0  0  0  0  0
   49.7303    6.6023   18.9716 O   0  0  0  0  0  0  0  0  0  0  0  0
   49.5415    7.5565   18.9310 H   0  0  0  0  0  0  0  0  0  0  0  0
   50.6823    6.5471   18.8285 H   0  0  0  0  0  0  0  0  0  0  0  0
   50.9902    9.1663   17.9051 H   0  0  0  0  0  0  0  0  0  0  0  0
   49.9264   10.1916   18.7061 H   0  0  0  0  0  0  0  0  0  0  0  0
   48.9774    4.9372   17.8303 H   0  0  0  0  0  0  0  0  0  0  0  0
   46.1779    7.5464   19.7395 H   0  0  0  0  0  0  0  0  0  0  0  0
   46.7188    5.3618   18.7736 H   0  0  0  0  0  0  0  0  0  0  0  0
   48.5890   10.0931   20.5841 H   0  0  0  0  0  0  0  0  0  0  0  0
   47.6910   10.5402   19.1303 H   0  0  0  0  0  0  0  0  0  0  0  0
   50.8172    5.8978   20.3954 H   0  0  0  0  0  0  0  0  0  0  0  0
   53.2071    5.3641   16.8370 H   0  0  0  0  0  0  0  0  0  0  0  0
   52.2642    4.3278   21.6036 H   0  0  0  0  0  0  0  0  0  0  0  0
   54.6648    3.7877   18.0569 H   0  0  0  0  0  0  0  0  0  0  0  0
   52.4531    7.0938   19.0694 H   0  0  0  0  0  0  0  0  0  0  0  0
   51.5986    7.0707   20.5420 H   0  0  0  0  0  0  0  0  0  0  0  0
   47.6422    4.5179   19.4817 H   0  0  0  0  0  0  0  0  0  0  0  0
   50.9172    3.0751   17.1310 H   0  0  0  0  0  0  0  0  0  0  0  0
   48.6014    2.8268   17.9383 H   0  0  0  0  0  0  0  0  0  0  0  0
   53.4027    4.7607   18.6014 H   0  0  0  0  0  0  0  0  0  0  0  0
   52.9413    4.1027   17.0441 H   0  0  0  0  0  0  0  0  0  0  0  0
   49.3518    7.9433   17.9320 H   0  0  0  0  0  0  0  0  0  0  0  0
   47.7314    8.6862   21.8739 H   0  0  0  0  0  0  0  0  0  0  0  0
   48.9135   10.2677   17.3189 H   0  0  0  0  0  0  0  0  0  0  0  0
   47.3004   11.0334   21.2428 H   0  0  0  0  0  0  0  0  0  0  0  0
   50.6760    6.5348   18.8304 H   0  0  0  0  0  0  0  0  0  0  0  0
   49.5531    7.5641   18.9287 H   0  0  0  0  0  0  0  0  0  0  0  0
   49.5321    7.5500   18.9330 H   0  0  0  0  0  0  0  0  0  0  0  0
   50.6874    6.5574   18.8270 H   0  0  0  0  0  0  0  0  0  0  0  0
  2 18  1  0
  3  9  2  0
  4 21  1  0
  5 21  2  0
  6  8  1  0
  7  8  2  0
  7  9  1  0
  7 12  1  0
  8 10  1  0
  9 11  1  0
 10 13  2  0
 10 15  1  0
 11 16  2  0
 11 17  1  0
 12 14  2  0
 13 14  1  0
 15 21  1  0
 16 19  1  0
 17 20  2  0
 18 19  2  0
 18 20  1  0
 22 38  1  0
 23 29  2  0
 24 41  1  0
 25 41  2  0
 26 28  1  0
 27 28  2  0
 27 29  1  0
 27 32  1  0
 28 30  1  0
 29 31  1  0
 30 33  2  0
 30 35  1  0
 31 36  2  0
 31 37  1  0
 32 34  2  0
 33 34  1  0
 35 41  1  0
 36 39  1  0
 37 40  2  0
 38 39  2  0
 38 40  1  0
  1 46  1  0
  1 47  1  0
  6 48  1  0
  6 49  1  0
 12 50  1  0
 13 51  1  0
 14 52  1  0
 15 53  1  0
 15 54  1  0
 16 55  1  0
 17 56  1  0
 19 57  1  0
 20 58  1  0
 26 59  1  0
 26 60  1  0
 32 61  1  0
 33 62  1  0
 34 63  1  0
 35 64  1  0
 35 65  1  0
 36 66  1  0
 37 67  1  0
 39 68  1  0
 40 69  1  0
 44 70  1  0
 44 71  1  0
 45 72  1  0
 45 73  1  0
M  CHG  4   4  -1  24  -1  42   1  43   1
M  END
> <Uni-Dock RESULT> 
ENERGY=   -4.461  LOWER_BOUND=    1.625  UPPER_BOUND=    2.498
INTER + INTRA:          -4.461
INTER:                  -4.461
INTRA:                   0.000
UNBOUND:                 0.000

$$$$

     RDKit          3D

 73 70  0  0  0  0  0  0  0  0999 V2000
   48.5776   11.4683   18.3365 O   0  0  0  0  0  0  0  0  0  0  0  0
   49.4357    8.7312   24.2232 Br  0  0  0  0  0  0  0  0  0  0  0  0
   47.6497    8.8177   17.5940 O   0  0  0  0  0  0  0  0  0  0  0  0
   51.3727   15.1324   16.1114 O   0  0  0  0  0  0  0  0  0  0  0  0
   50.3251   15.0460   14.0846 O   0  0  0  0  0  0  0  0  0  0  0  0
   50.0133   10.3468   16.2858 N   0  0  0  0  0  0  0  0  0  0  0  0
   48.1618   11.1007   17.7067 C   0  0  0  0  0  0  0  0  0  0  0  0
   49.1273   11.3672   16.7150 C   0  0  0  0  0  0  0  0  0  0  0  0
   48.0486    9.7478   18.2896 C   0  0  0  0  0  0  0  0  0  0  0  0
   49.3349   12.7106   16.3281 C   0  0  0  0  0  0  0  0  0  0  0  0
   48.4137    9.5265   19.7173 C   0  0  0  0  0  0  0  0  0  0  0  0
   47.3066   12.0977   18.1911 C   0  0  0  0  0  0  0  0  0  0  0  0
   48.4634   13.7031   16.8208 C   0  0  0  0  0  0  0  0  0  0  0  0
   47.4510   13.3997   17.7314 C   0  0  0  0  0  0  0  0  0  0  0  0
   50.4575   13.0714   15.3709 C   0  0  0  0  0  0  0  0  0  0  0  0
   49.2213   10.4263   20.4250 C   0  0  0  0  0  0  0  0  0  0  0  0
   47.9400    8.3741   20.3567 C   0  0  0  0  0  0  0  0  0  0  0  0
   49.0333    9.0468   22.3998 C   0  0  0  0  0  0  0  0  0  0  0  0
   49.5285   10.1878   21.7680 C   0  0  0  0  0  0  0  0  0  0  0  0
   48.2432    8.1366   21.7001 C   0  0  0  0  0  0  0  0  0  0  0  0
   50.7430   14.5571   15.1754 C   0  0  0  0  0  0  0  0  0  0  0  0
   51.0700   12.0797   12.5645 Br  0  0  0  0  0  0  0  0  0  0  0  0
   49.9162   13.9106   19.0605 O   0  0  0  0  0  0  0  0  0  0  0  0
   49.1632    7.4569   18.9430 O   0  0  0  0  0  0  0  0  0  0  0  0
   46.9195    7.2117   18.5452 O   0  0  0  0  0  0  0  0  0  0  0  0
   49.7771   10.1067   18.9854 N   0  0  0  0  0  0  0  0  0  0  0  0
   48.4223   12.1258   19.1729 C   0  0  0  0  0  0  0  0  0  0  0  0
   48.5941   10.7426   19.3895 C   0  0  0  0  0  0  0  0  0  0  0  0
   49.4345   12.9432   18.4682 C   0  0  0  0  0  0  0  0  0  0  0  0
   47.5498   10.0279   20.0175 C   0  0  0  0  0  0  0  0  0  0  0  0
   49.8212   12.6698   17.0515 C   0  0  0  0  0  0  0  0  0  0  0  0
   47.2723   12.7991   19.6056 C   0  0  0  0  0  0  0  0  0  0  0  0
   46.3886   10.7196   20.4240 C   0  0  0  0  0  0  0  0  0  0  0  0
   46.2507   12.0922   20.2254 C   0  0  0  0  0  0  0  0  0  0  0  0
   47.6433    8.5545   20.3633 C   0  0  0  0  0  0  0  0  0  0  0  0
   49.1804   11.7096   16.2573 C   0  0  0  0  0  0  0  0  0  0  0  0
   50.8452   13.4476   16.4861 C   0  0  0  0  0  0  0  0  0  0  0  0
   50.5750   12.3094   14.3742 C   0  0  0  0  0  0  0  0  0  0  0  0
   49.5578   11.5302   14.9190 C   0  0  0  0  0  0  0  0  0  0  0  0
   51.2213   13.2691   15.1507 C   0  0  0  0  0  0  0  0  0  0  0  0
   47.9279    7.6581   19.1620 C   0  0  0  0  0  0  0  0  0  0  0  0
   48.7736   11.1659   18.1683 Na  0  0  0  0  0 15  0  0  0  0  0  0
   48.7736   11.1659   18.1683 Na  0  0  0  0  0 15  0  0  0  0  0  0
   48.5788   11.4724   18.3309 O   0  0  0  0  0  0  0  0  0  0  0  0
   48.5764   11.4651   18.3413 O   0  0  0  0  0  0  0  0  0  0  0  0
   49.0110   11.4466   17.4703 H   0  0  0  0  0  0  0  0  0  0  0  0
   48.7323   10.5828   18.6979 H   0  0  0  0  0  0  0  0  0  0  0  0
   49.5536    9.4350   16.2863 H   0  0  0  0  0  0  0  0  0  0  0  0
   50.4060   10.5577   15.3713 H   0  0  0  0  0  0  0  0  0  0  0  0
   46.5416   11.8650   18.9256 H   0  0  0  0  0  0  0  0  0  0  0  0
   48.5823   14.7412   16.5062 H   0  0  0  0  0  0  0  0  0  0  0  0
   46.8012   14.1918   18.0949 H   0  0  0  0  0  0  0  0  0  0  0  0
   51.3895   12.6153   15.7237 H   0  0  0  0  0  0  0  0  0  0  0  0
   50.2290   12.6333   14.3922 H   0  0  0  0  0  0  0  0  0  0  0  0
   49.6311   11.3132   19.9443 H   0  0  0  0  0  0  0  0  0  0  0  0
   47.3265    7.6623   19.8091 H   0  0  0  0  0  0  0  0  0  0  0  0
   50.1550   10.8960   22.3043 H   0  0  0  0  0  0  0  0  0  0  0  0
   47.8594    7.2424   22.1836 H   0  0  0  0  0  0  0  0  0  0  0  0
   49.7720    9.0691   19.0448 H   0  0  0  0  0  0  0  0  0  0  0  0
   50.6336   10.5052   19.3528 H   0  0  0  0  0  0  0  0  0  0  0  0
   47.1737   13.8689   19.4452 H   0  0  0  0  0  0  0  0  0  0  0  0
   45.5809   10.1743   20.9100 H   0  0  0  0  0  0  0  0  0  0  0  0
   45.3472   12.6016   20.5496 H   0  0  0  0  0  0  0  0  0  0  0  0
   48.4225    8.4251   21.1253 H   0  0  0  0  0  0  0  0  0  0  0  0
   46.7103    8.2051   20.8241 H   0  0  0  0  0  0  0  0  0  0  0  0
   48.3906   11.0753   16.6573 H   0  0  0  0  0  0  0  0  0  0  0  0
   51.3474   14.2044   17.0844 H   0  0  0  0  0  0  0  0  0  0  0  0
   49.0573   10.7699   14.3264 H   0  0  0  0  0  0  0  0  0  0  0  0
   52.0150   13.8803   14.7301 H   0  0  0  0  0  0  0  0  0  0  0  0
   48.7250   10.5913   18.7062 H   0  0  0  0  0  0  0  0  0  0  0  0
   49.0170   11.4341   17.4676 H   0  0  0  0  0  0  0  0  0  0  0  0
   49.0059   11.4567   17.4727 H   0  0  0  0  0  0  0  0  0  0  0  0
   48.7384   10.5759   18.6908 H   0  0  0  0  0  0  0  0  0  0  0  0
  2 18  1  0
  3  9  2  0
  4 21  1  0
  5 21  2  0
  6  8  1  0
  7  8  2  0
  7  9  1  0
  7 12  1  0
  8 10  1  0
  9 11  1  0
 10 13  2  0
 10 15  1  0
 11 16  2  0
 11 17  1  0
 12 14  2  0
 13 14  1  0
 15 21  1  0
 16 19  1  0
 17 20  2  0
 18 19  2  0
 18 20  1  0
 22 38  1  0
 23 29  2  0
 24 41  1  0
 25 41  2  0
 26 28  1  0
 27 28  2  0
 27 29  1  0
 27 32  1  0
 28 30  1  0
 29 31  1  0
 30 33  2  0
 30 35  1  0
 31 36  2  0
 31 37  1  0
 32 34  2  0
 33 34  1  0
 35 41  1  0
 36 39  1  0
 37 40  2  0
 38 39  2  0
 38 40  1  0
  1 46  1  0
  1 47  1  0
  6 48  1  0
  6 49  1  0
 12 50  1  0
 13 51  1  0
 14 52  1  0
 15 53  1  0
 15 54  1  0
 16 55  1  0
 17 56  1  0
 19 57  1  0
 20 58  1  0
 26 59  1  0
 26 60  1  0
 32 61  1  0
 33 62  1  0
 34 63  1  0
 35 64  1  0
 35 65  1  0
 36 66  1  0
 37 67  1  0
 39 68  1  0
 40 69  1  0
 44 70  1  0
 44 71  1  0
 45 72  1  0
 45 73  1  0
M  CHG  4   4  -1  24  -1  42   1  43   1
M  END
> <Uni-Dock RESULT> 
ENERGY=   -4.303  LOWER_BOUND=    3.387  UPPER_BOUND=    5.086
INTER + INTRA:          -4.303
INTER:                  -4.303
INTRA:                   0.000
UNBOUND:                 0.000

$$$$

     RDKit          3D

 73 70  0  0  0  0  0  0  0  0999 V2000
   49.1340   10.7765   14.0459 O   0  0  0  0  0  0  0  0  0  0  0  0
   45.6693    5.9232   11.3398 Br  0  0  0  0  0  0  0  0  0  0  0  0
   50.2593    8.6415   15.6627 O   0  0  0  0  0  0  0  0  0  0  0  0
   47.6988   15.6217   14.8537 O   0  0  0  0  0  0  0  0  0  0  0  0
   49.5479   16.2318   16.0461 O   0  0  0  0  0  0  0  0  0  0  0  0
   48.7641   11.1396   16.7395 N   0  0  0  0  0  0  0  0  0  0  0  0
   49.7842   10.6543   14.5626 C   0  0  0  0  0  0  0  0  0  0  0  0
   49.3750   11.5841   15.5397 C   0  0  0  0  0  0  0  0  0  0  0  0
   49.6024    9.2061   14.7920 C   0  0  0  0  0  0  0  0  0  0  0  0
   49.3839   12.9563   15.2017 C   0  0  0  0  0  0  0  0  0  0  0  0
   48.6284    8.4438   13.9609 C   0  0  0  0  0  0  0  0  0  0  0  0
   50.3424   11.0608   13.3447 C   0  0  0  0  0  0  0  0  0  0  0  0
   49.9528   13.3512   13.9738 C   0  0  0  0  0  0  0  0  0  0  0  0
   50.4400   12.4162   13.0603 C   0  0  0  0  0  0  0  0  0  0  0  0
   48.8203   13.9894   16.1619 C   0  0  0  0  0  0  0  0  0  0  0  0
   47.6012    9.0792   13.2512 C   0  0  0  0  0  0  0  0  0  0  0  0
   48.7455    7.0494   13.9055 C   0  0  0  0  0  0  0  0  0  0  0  0
   46.8568    6.9407   12.4080 C   0  0  0  0  0  0  0  0  0  0  0  0
   46.7169    8.3273   12.4717 C   0  0  0  0  0  0  0  0  0  0  0  0
   47.8646    6.2971   13.1237 C   0  0  0  0  0  0  0  0  0  0  0  0
   48.6752   15.4127   15.6325 C   0  0  0  0  0  0  0  0  0  0  0  0
   49.5279   14.6094   19.0514 Br  0  0  0  0  0  0  0  0  0  0  0  0
   47.6478   12.8459   12.7082 O   0  0  0  0  0  0  0  0  0  0  0  0
   48.2801    7.2359   15.9266 O   0  0  0  0  0  0  0  0  0  0  0  0
   50.4577    6.6526   15.5134 O   0  0  0  0  0  0  0  0  0  0  0  0
   47.7514    9.6181   14.7245 N   0  0  0  0  0  0  0  0  0  0  0  0
   48.9040   10.9056   13.0037 C   0  0  0  0  0  0  0  0  0  0  0  0
   48.6330    9.6737   13.6351 C   0  0  0  0  0  0  0  0  0  0  0  0
   48.3313   12.1808   13.4887 C   0  0  0  0  0  0  0  0  0  0  0  0
   49.2705    8.5135   13.1419 C   0  0  0  0  0  0  0  0  0  0  0  0
   48.6226   12.7059   14.8564 C   0  0  0  0  0  0  0  0  0  0  0  0
   49.7438   10.9879   11.8852 C   0  0  0  0  0  0  0  0  0  0  0  0
   50.1325    8.6208   12.0295 C   0  0  0  0  0  0  0  0  0  0  0  0
   50.3648    9.8438   11.4027 C   0  0  0  0  0  0  0  0  0  0  0  0
   49.0097    7.1252   13.6933 C   0  0  0  0  0  0  0  0  0  0  0  0
   49.5393   12.1014   15.7267 C   0  0  0  0  0  0  0  0  0  0  0  0
   47.9759   13.8855   15.2609 C   0  0  0  0  0  0  0  0  0  0  0  0
   49.1549   13.8368   17.3671 C   0  0  0  0  0  0  0  0  0  0  0  0
   49.8049   12.6675   16.9816 C   0  0  0  0  0  0  0  0  0  0  0  0
   48.2414   14.4507   16.5126 C   0  0  0  0  0  0  0  0  0  0  0  0
   49.2859    6.9958   15.1882 C   0  0  0  0  0  0  0  0  0  0  0  0
   49.0309   10.6473   14.4076 Na  0  0  0  0  0 15  0  0  0  0  0  0
   49.0309   10.6473   14.4076 Na  0  0  0  0  0 15  0  0  0  0  0  0
   49.1355   10.7829   14.0485 O   0  0  0  0  0  0  0  0  0  0  0  0
   49.1328   10.7712   14.0435 O   0  0  0  0  0  0  0  0  0  0  0  0
   49.1386   11.2702   14.8795 H   0  0  0  0  0  0  0  0  0  0  0  0
   48.8200    9.8951   14.2976 H   0  0  0  0  0  0  0  0  0  0  0  0
   49.1608   10.2508   17.0481 H   0  0  0  0  0  0  0  0  0  0  0  0
   48.8300   11.8432   17.4715 H   0  0  0  0  0  0  0  0  0  0  0  0
   50.6895   10.3297   12.6210 H   0  0  0  0  0  0  0  0  0  0  0  0
   50.0038   14.4085   13.7089 H   0  0  0  0  0  0  0  0  0  0  0  0
   50.8666   12.7564   12.1201 H   0  0  0  0  0  0  0  0  0  0  0  0
   47.8230   13.6707   16.4860 H   0  0  0  0  0  0  0  0  0  0  0  0
   49.4601   14.0169   17.0517 H   0  0  0  0  0  0  0  0  0  0  0  0
   47.4655   10.1584   13.3022 H   0  0  0  0  0  0  0  0  0  0  0  0
   49.5300    6.5474   14.4673 H   0  0  0  0  0  0  0  0  0  0  0  0
   45.9258    8.8348   11.9254 H   0  0  0  0  0  0  0  0  0  0  0  0
   47.9757    5.2170   13.0843 H   0  0  0  0  0  0  0  0  0  0  0  0
   47.7142    8.7086   15.2260 H   0  0  0  0  0  0  0  0  0  0  0  0
   46.8271    9.9990   14.5571 H   0  0  0  0  0  0  0  0  0  0  0  0
   49.9195   11.9459   11.4043 H   0  0  0  0  0  0  0  0  0  0  0  0
   50.6255    7.7296   11.6439 H   0  0  0  0  0  0  0  0  0  0  0  0
   51.0315    9.8991   10.5463 H   0  0  0  0  0  0  0  0  0  0  0  0
   47.9685    6.8548   13.4759 H   0  0  0  0  0  0  0  0  0  0  0  0
   49.6288    6.3808   13.1761 H   0  0  0  0  0  0  0  0  0  0  0  0
   50.0540   11.1792   15.4604 H   0  0  0  0  0  0  0  0  0  0  0  0
   47.2684   14.3742   14.5949 H   0  0  0  0  0  0  0  0  0  0  0  0
   50.5083   12.1735   17.6457 H   0  0  0  0  0  0  0  0  0  0  0  0
   47.7322   15.3637   16.8083 H   0  0  0  0  0  0  0  0  0  0  0  0
   48.8229    9.8966   14.2841 H   0  0  0  0  0  0  0  0  0  0  0  0
   49.1343   11.2624   14.8904 H   0  0  0  0  0  0  0  0  0  0  0  0
   49.1421   11.2764   14.8703 H   0  0  0  0  0  0  0  0  0  0  0  0
   48.8177    9.8941   14.3090 H   0  0  0  0  0  0  0  0  0  0  0  0
  2 18  1  0
  3  9  2  0
  4 21  1  0
  5 21  2  0
  6  8  1  0
  7  8  2  0
  7  9  1  0
  7 12  1  0
  8 10  1  0
  9 11  1  0
 10 13  2  0
 10 15  1  0
 11 16  2  0
 11 17  1  0
 12 14  2  0
 13 14  1  0
 15 21  1  0
 16 19  1  0
 17 20  2  0
 18 19  2  0
 18 20  1  0
 22 38  1  0
 23 29  2  0
 24 41  1  0
 25 41  2  0
 26 28  1  0
 27 28  2  0
 27 29  1  0
 27 32  1  0
 28 30  1  0
 29 31  1  0
 30 33  2  0
 30 35  1  0
 31 36  2  0
 31 37  1  0
 32 34  2  0
 33 34  1  0
 35 41  1  0
 36 39  1  0
 37 40  2  0
 38 39  2  0
 38 40  1  0
  1 46  1  0
  1 47  1  0
  6 48  1  0
  6 49  1  0
 12 50  1  0
 13 51  1  0
 14 52  1  0
 15 53  1  0
 15 54  1  0
 16 55  1  0
 17 56  1  0
 19 57  1  0
 20 58  1  0
 26 59  1  0
 26 60  1  0
 32 61  1  0
 33 62  1  0
 34 63  1  0
 35 64  1  0
 35 65  1  0
 36 66  1  0
 37 67  1  0
 39 68  1  0
 40 69  1  0
 44 70  1  0
 44 71  1  0
 45 72  1  0
 45 73  1  0
M  CHG  4   4  -1  24  -1  42   1  43   1
M  END
> <Uni-Dock RESULT> 
ENERGY=   -4.208  LOWER_BOUND=    5.138  UPPER_BOUND=    7.013
INTER + INTRA:          -4.208
INTER:                  -4.208
INTRA:                   0.000
UNBOUND:                 0.000

$$$$

     RDKit          3D

 73 70  0  0  0  0  0  0  0  0999 V2000
   48.6332   10.1842   20.0608 O   0  0  0  0  0  0  0  0  0  0  0  0
   48.4771   14.6469   15.2710 Br  0  0  0  0  0  0  0  0  0  0  0  0
   50.7628   11.8563   21.1134 O   0  0  0  0  0  0  0  0  0  0  0  0
   47.7408    5.1558   19.7327 O   0  0  0  0  0  0  0  0  0  0  0  0
   48.3425    4.6574   21.8781 O   0  0  0  0  0  0  0  0  0  0  0  0
   51.0126    8.8538   20.3659 N   0  0  0  0  0  0  0  0  0  0  0  0
   49.0613   10.2818   20.7763 C   0  0  0  0  0  0  0  0  0  0  0  0
   49.6611    9.0064   20.7665 C   0  0  0  0  0  0  0  0  0  0  0  0
   49.8444   11.4746   20.3928 C   0  0  0  0  0  0  0  0  0  0  0  0
   48.8315    7.8764   20.9467 C   0  0  0  0  0  0  0  0  0  0  0  0
   49.5084   12.2061   19.1388 C   0  0  0  0  0  0  0  0  0  0  0  0
   47.7150   10.4619   21.1156 C   0  0  0  0  0  0  0  0  0  0  0  0
   47.4789    8.0731   21.2919 C   0  0  0  0  0  0  0  0  0  0  0  0
   46.9284    9.3512   21.3896 C   0  0  0  0  0  0  0  0  0  0  0  0
   49.3983    6.4746   20.8037 C   0  0  0  0  0  0  0  0  0  0  0  0
   48.7623   11.6141   18.1113 C   0  0  0  0  0  0  0  0  0  0  0  0
   49.9687   13.5202   18.9886 C   0  0  0  0  0  0  0  0  0  0  0  0
   48.9037   13.6564   16.8278 C   0  0  0  0  0  0  0  0  0  0  0  0
   48.4571   12.3410   16.9566 C   0  0  0  0  0  0  0  0  0  0  0  0
   49.6610   14.2490   17.8365 C   0  0  0  0  0  0  0  0  0  0  0  0
   48.3959    5.3247   20.8032 C   0  0  0  0  0  0  0  0  0  0  0  0
   51.7090    5.1116   22.2311 Br  0  0  0  0  0  0  0  0  0  0  0  0
   46.8343    8.3881   18.7121 O   0  0  0  0  0  0  0  0  0  0  0  0
   51.8128   12.5535   19.0220 O   0  0  0  0  0  0  0  0  0  0  0  0
   51.3506   13.7620   20.9137 O   0  0  0  0  0  0  0  0  0  0  0  0
   49.8857   10.6647   18.6773 N   0  0  0  0  0  0  0  0  0  0  0  0
   47.6628   10.3617   19.6334 C   0  0  0  0  0  0  0  0  0  0  0  0
   48.7445   11.2002   19.2920 C   0  0  0  0  0  0  0  0  0  0  0  0
   47.7045    8.8981   19.4203 C   0  0  0  0  0  0  0  0  0  0  0  0
   48.6428   12.5782   19.5860 C   0  0  0  0  0  0  0  0  0  0  0  0
   48.7167    8.0318   20.0957 C   0  0  0  0  0  0  0  0  0  0  0  0
   46.4907   10.8724   20.2065 C   0  0  0  0  0  0  0  0  0  0  0  0
   47.4636   13.0698   20.1862 C   0  0  0  0  0  0  0  0  0  0  0  0
   46.3950   12.2281   20.4900 C   0  0  0  0  0  0  0  0  0  0  0  0
   49.7089   13.5884   19.2087 C   0  0  0  0  0  0  0  0  0  0  0  0
   49.6136    8.5142   21.0582 C   0  0  0  0  0  0  0  0  0  0  0  0
   48.7313    6.6638   19.7767 C   0  0  0  0  0  0  0  0  0  0  0  0
   50.5121    6.2893   21.3631 C   0  0  0  0  0  0  0  0  0  0  0  0
   50.5106    7.6424   21.6913 C   0  0  0  0  0  0  0  0  0  0  0  0
   49.6258    5.7939   20.4089 C   0  0  0  0  0  0  0  0  0  0  0  0
   51.0872   13.2698   19.7802 C   0  0  0  0  0  0  0  0  0  0  0  0
   49.0275   10.1539   20.0186 Na  0  0  0  0  0 15  0  0  0  0  0  0
   49.0275   10.1539   20.0186 Na  0  0  0  0  0 15  0  0  0  0  0  0
   48.6330   10.1779   20.0640 O   0  0  0  0  0  0  0  0  0  0  0  0
   48.6332   10.1895   20.0582 O   0  0  0  0  0  0  0  0  0  0  0  0
   49.2087    9.4556   20.3378 H   0  0  0  0  0  0  0  0  0  0  0  0
   49.2409   10.8219   19.6572 H   0  0  0  0  0  0  0  0  0  0  0  0
   51.5756    9.6551   20.6548 H   0  0  0  0  0  0  0  0  0  0  0  0
   51.4071    7.9841   20.7169 H   0  0  0  0  0  0  0  0  0  0  0  0
   47.2807   11.4561   21.1574 H   0  0  0  0  0  0  0  0  0  0  0  0
   46.8296    7.2149   21.4720 H   0  0  0  0  0  0  0  0  0  0  0  0
   45.8797    9.4651   21.6521 H   0  0  0  0  0  0  0  0  0  0  0  0
   49.9549    6.4076   19.8620 H   0  0  0  0  0  0  0  0  0  0  0  0
   50.1127    6.3078   21.6184 H   0  0  0  0  0  0  0  0  0  0  0  0
   48.4198   10.5833   18.1862 H   0  0  0  0  0  0  0  0  0  0  0  0
   50.5629   13.9808   19.7745 H   0  0  0  0  0  0  0  0  0  0  0  0
   47.8759   11.8685   16.1687 H   0  0  0  0  0  0  0  0  0  0  0  0
   50.0179   15.2708   17.7404 H   0  0  0  0  0  0  0  0  0  0  0  0
   50.6938   11.3122   18.5890 H   0  0  0  0  0  0  0  0  0  0  0  0
   49.7178   10.1464   17.8225 H   0  0  0  0  0  0  0  0  0  0  0  0
   45.6637   10.2082   20.4407 H   0  0  0  0  0  0  0  0  0  0  0  0
   47.3789   14.1313   20.4137 H   0  0  0  0  0  0  0  0  0  0  0  0
   45.4971   12.6320   20.9500 H   0  0  0  0  0  0  0  0  0  0  0  0
   49.7578   13.6494   18.1139 H   0  0  0  0  0  0  0  0  0  0  0  0
   49.4305   14.5923   19.5543 H   0  0  0  0  0  0  0  0  0  0  0  0
   49.6466    9.5690   21.3273 H   0  0  0  0  0  0  0  0  0  0  0  0
   48.0360    6.2695   19.0391 H   0  0  0  0  0  0  0  0  0  0  0  0
   51.2068    8.0410   22.4236 H   0  0  0  0  0  0  0  0  0  0  0  0
   49.6223    4.7388   20.1499 H   0  0  0  0  0  0  0  0  0  0  0  0
   49.2275   10.8258   19.6572 H   0  0  0  0  0  0  0  0  0  0  0  0
   49.2222    9.4580   20.3347 H   0  0  0  0  0  0  0  0  0  0  0  0
   49.1975    9.4540   20.3403 H   0  0  0  0  0  0  0  0  0  0  0  0
   49.2520   10.8184   19.6573 H   0  0  0  0  0  0  0  0  0  0  0  0
  2 18  1  0
  3  9  2  0
  4 21  1  0
  5 21  2  0
  6  8  1  0
  7  8  2  0
  7  9  1  0
  7 12  1  0
  8 10  1  0
  9 11  1  0
 10 13  2  0
 10 15  1  0
 11 16  2  0
 11 17  1  0
 12 14  2  0
 13 14  1  0
 15 21  1  0
 16 19  1  0
 17 20  2  0
 18 19  2  0
 18 20  1  0
 22 38  1  0
 23 29  2  0
 24 41  1  0
 25 41  2  0
 26 28  1  0
 27 28  2  0
 27 29  1  0
 27 32  1  0
 28 30  1  0
 29 31  1  0
 30 33  2  0
 30 35  1  0
 31 36  2  0
 31 37  1  0
 32 34  2  0
 33 34  1  0
 35 41  1  0
 36 39  1  0
 37 40  2  0
 38 39  2  0
 38 40  1  0
  1 46  1  0
  1 47  1  0
  6 48  1  0
  6 49  1  0
 12 50  1  0
 13 51  1  0
 14 52  1  0
 15 53  1  0
 15 54  1  0
 16 55  1  0
 17 56  1  0
 19 57  1  0
 20 58  1  0
 26 59  1  0
 26 60  1  0
 32 61  1  0
 33 62  1  0
 34 63  1  0
 35 64  1  0
 35 65  1  0
 36 66  1  0
 37 67  1  0
 39 68  1  0
 40 69  1  0
 44 70  1  0
 44 71  1  0
 45 72  1  0
 45 73  1  0
M  CHG  4   4  -1  24  -1  42   1  43   1
M  END
> <Uni-Dock RESULT> 
ENERGY=   -4.185  LOWER_BOUND=    1.978  UPPER_BOUND=    6.316
INTER + INTRA:          -4.185
INTER:                  -4.185
INTRA:                   0.000
UNBOUND:                 0.000

$$$$

     RDKit          3D

 73 70  0  0  0  0  0  0  0  0999 V2000
   49.4287    7.7064   18.2988 O   0  0  0  0  0  0  0  0  0  0  0  0
   48.3484    7.1630   11.8631 Br  0  0  0  0  0  0  0  0  0  0  0  0
   52.1185    8.4168   17.4629 O   0  0  0  0  0  0  0  0  0  0  0  0
   47.3735    4.9600   22.0966 O   0  0  0  0  0  0  0  0  0  0  0  0
   48.6660    5.8359   23.7625 O   0  0  0  0  0  0  0  0  0  0  0  0
   51.3604    6.0491   19.3218 N   0  0  0  0  0  0  0  0  0  0  0  0
   50.1205    8.0485   18.6290 C   0  0  0  0  0  0  0  0  0  0  0  0
   50.3606    7.0242   19.5669 C   0  0  0  0  0  0  0  0  0  0  0  0
   50.9265    8.1293   17.3934 C   0  0  0  0  0  0  0  0  0  0  0  0
   49.4449    6.8647   20.6315 C   0  0  0  0  0  0  0  0  0  0  0  0
   50.2840    7.8668   16.0747 C   0  0  0  0  0  0  0  0  0  0  0  0
   49.1066    8.9961   18.8142 C   0  0  0  0  0  0  0  0  0  0  0  0
   48.4317    7.8288   20.8080 C   0  0  0  0  0  0  0  0  0  0  0  0
   48.2714    8.8913   19.9182 C   0  0  0  0  0  0  0  0  0  0  0  0
   49.5733    5.6922   21.5883 C   0  0  0  0  0  0  0  0  0  0  0  0
   49.0726    7.1718   15.9645 C   0  0  0  0  0  0  0  0  0  0  0  0
   50.9264    8.3224   14.9166 C   0  0  0  0  0  0  0  0  0  0  0  0
   49.1358    7.4364   13.5635 C   0  0  0  0  0  0  0  0  0  0  0  0
   48.4967    6.9594   14.7082 C   0  0  0  0  0  0  0  0  0  0  0  0
   50.3497    8.1140   13.6608 C   0  0  0  0  0  0  0  0  0  0  0  0
   48.4267    5.4787   22.5715 C   0  0  0  0  0  0  0  0  0  0  0  0
   51.8930    4.8014   23.3377 Br  0  0  0  0  0  0  0  0  0  0  0  0
   46.8835    6.5737   19.0198 O   0  0  0  0  0  0  0  0  0  0  0  0
   52.3555    6.9392   15.5334 O   0  0  0  0  0  0  0  0  0  0  0  0
   52.9868    9.1260   15.8015 O   0  0  0  0  0  0  0  0  0  0  0  0
   50.0838    6.4854   16.9594 N   0  0  0  0  0  0  0  0  0  0  0  0
   48.4356    7.9657   17.9790 C   0  0  0  0  0  0  0  0  0  0  0  0
   49.4434    7.7317   17.0202 C   0  0  0  0  0  0  0  0  0  0  0  0
   48.0566    6.9497   18.9856 C   0  0  0  0  0  0  0  0  0  0  0  0
   49.7829    8.7796   16.1356 C   0  0  0  0  0  0  0  0  0  0  0  0
   49.0325    6.4361   19.9931 C   0  0  0  0  0  0  0  0  0  0  0  0
   47.7453    9.1837   18.0359 C   0  0  0  0  0  0  0  0  0  0  0  0
   49.0932   10.0077   16.2249 C   0  0  0  0  0  0  0  0  0  0  0  0
   48.0809   10.2087   17.1617 C   0  0  0  0  0  0  0  0  0  0  0  0
   50.8010    8.6286   15.0220 C   0  0  0  0  0  0  0  0  0  0  0  0
   50.3263    6.9547   20.1357 C   0  0  0  0  0  0  0  0  0  0  0  0
   48.6079    5.4171   20.8619 C   0  0  0  0  0  0  0  0  0  0  0  0
   50.7453    5.4515   21.9838 C   0  0  0  0  0  0  0  0  0  0  0  0
   51.1818    6.4620   21.1312 C   0  0  0  0  0  0  0  0  0  0  0  0
   49.4612    4.9260   21.8556 C   0  0  0  0  0  0  0  0  0  0  0  0
   52.1822    8.1976   15.5062 C   0  0  0  0  0  0  0  0  0  0  0  0
   49.7539    7.4804   18.2625 Na  0  0  0  0  0 15  0  0  0  0  0  0
   49.7539    7.4804   18.2625 Na  0  0  0  0  0 15  0  0  0  0  0  0
   49.4283    7.7049   18.3058 O   0  0  0  0  0  0  0  0  0  0  0  0
   49.4288    7.7077   18.2931 O   0  0  0  0  0  0  0  0  0  0  0  0
   49.8869    7.2048   18.9896 H   0  0  0  0  0  0  0  0  0  0  0  0
   49.9463    7.5299   17.4990 H   0  0  0  0  0  0  0  0  0  0  0  0
   52.1567    6.4537   18.8270 H   0  0  0  0  0  0  0  0  0  0  0  0
   51.6567    5.5976   20.1840 H   0  0  0  0  0  0  0  0  0  0  0  0
   48.9627    9.8024   18.1014 H   0  0  0  0  0  0  0  0  0  0  0  0
   47.7367    7.7456   21.6450 H   0  0  0  0  0  0  0  0  0  0  0  0
   47.4750    9.6128   20.0819 H   0  0  0  0  0  0  0  0  0  0  0  0
   49.6686    4.7664   21.0096 H   0  0  0  0  0  0  0  0  0  0  0  0
   50.4995    5.8161   22.1617 H   0  0  0  0  0  0  0  0  0  0  0  0
   48.5678    6.7771   16.8447 H   0  0  0  0  0  0  0  0  0  0  0  0
   51.8755    8.8479   14.9929 H   0  0  0  0  0  0  0  0  0  0  0  0
   47.5556    6.4198   14.6389 H   0  0  0  0  0  0  0  0  0  0  0  0
   50.8567    8.4826   12.7732 H   0  0  0  0  0  0  0  0  0  0  0  0
   50.9093    6.4350   16.3301 H   0  0  0  0  0  0  0  0  0  0  0  0
   49.4712    5.6855   16.8490 H   0  0  0  0  0  0  0  0  0  0  0  0
   46.9587    9.3311   18.7703 H   0  0  0  0  0  0  0  0  0  0  0  0
   49.3494   10.8185   15.5447 H   0  0  0  0  0  0  0  0  0  0  0  0
   47.5635   11.1632   17.2085 H   0  0  0  0  0  0  0  0  0  0  0  0
   50.4133    7.9064   14.2922 H   0  0  0  0  0  0  0  0  0  0  0  0
   50.9208    9.5736   14.4765 H   0  0  0  0  0  0  0  0  0  0  0  0
   50.7023    7.7358   19.4763 H   0  0  0  0  0  0  0  0  0  0  0  0
   47.6038    5.0090   20.7725 H   0  0  0  0  0  0  0  0  0  0  0  0
   52.1856    6.8687   21.2138 H   0  0  0  0  0  0  0  0  0  0  0  0
   49.1155    4.1381   22.5189 H   0  0  0  0  0  0  0  0  0  0  0  0
   49.9353    7.5382   17.4971 H   0  0  0  0  0  0  0  0  0  0  0  0
   49.8981    7.1979   18.9846 H   0  0  0  0  0  0  0  0  0  0  0  0
   49.8776    7.2105   18.9934 H   0  0  0  0  0  0  0  0  0  0  0  0
   49.9554    7.5228   17.5009 H   0  0  0  0  0  0  0  0  0  0  0  0
  2 18  1  0
  3  9  2  0
  4 21  1  0
  5 21  2  0
  6  8  1  0
  7  8  2  0
  7  9  1  0
  7 12  1  0
  8 10  1  0
  9 11  1  0
 10 13  2  0
 10 15  1  0
 11 16  2  0
 11 17  1  0
 12 14  2  0
 13 14  1  0
 15 21  1  0
 16 19  1  0
 17 20  2  0
 18 19  2  0
 18 20  1  0
 22 38  1  0
 23 29  2  0
 24 41  1  0
 25 41  2  0
 26 28  1  0
 27 28  2  0
 27 29  1  0
 27 32  1  0
 28 30  1  0
 29 31  1  0
 30 33  2  0
 30 35  1  0
 31 36  2  0
 31 37  1  0
 32 34  2  0
 33 34  1  0
 35 41  1  0
 36 39  1  0
 37 40  2  0
 38 39  2  0
 38 40  1  0
  1 46  1  0
  1 47  1  0
  6 48  1  0
  6 49  1  0
 12 50  1  0
 13 51  1  0
 14 52  1  0
 15 53  1  0
 15 54  1  0
 16 55  1  0
 17 56  1  0
 19 57  1  0
 20 58  1  0
 26 59  1  0
 26 60  1  0
 32 61  1  0
 33 62  1  0
 34 63  1  0
 35 64  1  0
 35 65  1  0
 36 66  1  0
 37 67  1  0
 39 68  1  0
 40 69  1  0
 44 70  1  0
 44 71  1  0
 45 72  1  0
 45 73  1  0
M  CHG  4   4  -1  24  -1  42   1  43   1
M  END
> <Uni-Dock RESULT> 
ENERGY=   -4.166  LOWER_BOUND=    2.769  UPPER_BOUND=    5.342
INTER + INTRA:          -4.166
INTER:                  -4.166
INTRA:                   0.000
UNBOUND:                 0.000

$$$$
