
     RDKit          3D

 73 70  0  0  0  0  0  0  0  0999 V2000
   43.5825   10.8813    9.7094 O   0  0  0  0  0  0  0  0  0  0  0  0
   46.2115    5.6110   12.7302 Br  0  0  0  0  0  0  0  0  0  0  0  0
   45.0252   12.2866   11.9155 O   0  0  0  0  0  0  0  0  0  0  0  0
   41.8034   15.1001    6.6941 O   0  0  0  0  0  0  0  0  0  0  0  0
   39.7000   14.2217    6.6416 O   0  0  0  0  0  0  0  0  0  0  0  0
   42.4131   13.0781   11.0377 N   0  0  0  0  0  0  0  0  0  0  0  0
   44.0291   11.6704    9.8612 C   0  0  0  0  0  0  0  0  0  0  0  0
   42.9534   12.5897    9.8246 C   0  0  0  0  0  0  0  0  0  0  0  0
   44.7192   11.3776   11.1463 C   0  0  0  0  0  0  0  0  0  0  0  0
   42.2934   12.8148    8.5932 C   0  0  0  0  0  0  0  0  0  0  0  0
   45.0550    9.9798   11.5174 C   0  0  0  0  0  0  0  0  0  0  0  0
   44.4865   11.0365    8.6967 C   0  0  0  0  0  0  0  0  0  0  0  0
   42.7507   12.1377    7.4439 C   0  0  0  0  0  0  0  0  0  0  0  0
   43.8424   11.2710    7.4896 C   0  0  0  0  0  0  0  0  0  0  0  0
   41.0806   13.7255    8.4914 C   0  0  0  0  0  0  0  0  0  0  0  0
   46.2620    9.7341   12.1847 C   0  0  0  0  0  0  0  0  0  0  0  0
   44.1841    8.9214   11.2321 C   0  0  0  0  0  0  0  0  0  0  0  0
   45.7452    7.3781   12.2447 C   0  0  0  0  0  0  0  0  0  0  0  0
   46.6130    8.4301   12.5399 C   0  0  0  0  0  0  0  0  0  0  0  0
   44.5311    7.6178   11.5976 C   0  0  0  0  0  0  0  0  0  0  0  0
   40.8476   14.4044    7.1414 C   0  0  0  0  0  0  0  0  0  0  0  0
   48.5790   10.0397   13.5156 Br  0  0  0  0  0  0  0  0  0  0  0  0
   42.4183    8.5988   10.8798 O   0  0  0  0  0  0  0  0  0  0  0  0
   44.3900   14.7497    7.4137 O   0  0  0  0  0  0  0  0  0  0  0  0
   45.2210   12.6958    6.8462 O   0  0  0  0  0  0  0  0  0  0  0  0
   44.0499   10.5989    8.1439 N   0  0  0  0  0  0  0  0  0  0  0  0
   42.4480   10.7657   10.0079 C   0  0  0  0  0  0  0  0  0  0  0  0
   43.0165   11.2775    8.8242 C   0  0  0  0  0  0  0  0  0  0  0  0
   43.0555    9.6461   10.7570 C   0  0  0  0  0  0  0  0  0  0  0  0
   42.3683   12.3705    8.2003 C   0  0  0  0  0  0  0  0  0  0  0  0
   44.3928    9.7906   11.4122 C   0  0  0  0  0  0  0  0  0  0  0  0
   41.2837   11.3156   10.5618 C   0  0  0  0  0  0  0  0  0  0  0  0
   41.2110   12.9258    8.7790 C   0  0  0  0  0  0  0  0  0  0  0  0
   40.6699   12.3997    9.9499 C   0  0  0  0  0  0  0  0  0  0  0  0
   42.8790   12.9846    6.9090 C   0  0  0  0  0  0  0  0  0  0  0  0
   45.1233   10.9856   11.3923 C   0  0  0  0  0  0  0  0  0  0  0  0
   44.9220    8.6775   12.0864 C   0  0  0  0  0  0  0  0  0  0  0  0
   46.8883    9.9404   12.6761 C   0  0  0  0  0  0  0  0  0  0  0  0
   46.3755   11.0556   12.0149 C   0  0  0  0  0  0  0  0  0  0  0  0
   46.1643    8.7517   12.7212 C   0  0  0  0  0  0  0  0  0  0  0  0
   44.2994   13.5372    7.0740 C   0  0  0  0  0  0  0  0  0  0  0  0
   43.6226   11.1562    9.9937 Na  0  0  0  0  0 15  0  0  0  0  0  0
   43.6226   11.1562    9.9937 Na  0  0  0  0  0 15  0  0  0  0  0  0
   43.6133   10.8372    9.7555 O   0  0  0  0  0  0  0  0  0  0  0  0
   43.5970   10.8593    9.7301 O   0  0  0  0  0  0  0  0  0  0  0  0
   43.3159   11.8125    9.6801 H   0  0  0  0  0  0  0  0  0  0  0  0
   43.9692   10.7749   10.5916 H   0  0  0  0  0  0  0  0  0  0  0  0
   43.1483   13.2183   11.7341 H   0  0  0  0  0  0  0  0  0  0  0  0
   41.8428   13.9054   10.9237 H   0  0  0  0  0  0  0  0  0  0  0  0
   45.3379   10.3621    8.7199 H   0  0  0  0  0  0  0  0  0  0  0  0
   42.2594   12.3042    6.4843 H   0  0  0  0  0  0  0  0  0  0  0  0
   44.1774   10.7811    6.5777 H   0  0  0  0  0  0  0  0  0  0  0  0
   40.1949   13.1418    8.7696 H   0  0  0  0  0  0  0  0  0  0  0  0
   41.1681   14.5572    9.1992 H   0  0  0  0  0  0  0  0  0  0  0  0
   46.9262   10.5621   12.4223 H   0  0  0  0  0  0  0  0  0  0  0  0
   43.2285    9.1076   10.7428 H   0  0  0  0  0  0  0  0  0  0  0  0
   47.5561    8.2468   13.0484 H   0  0  0  0  0  0  0  0  0  0  0  0
   43.8502    6.8002   11.3738 H   0  0  0  0  0  0  0  0  0  0  0  0
   44.5969   11.2377    7.5329 H   0  0  0  0  0  0  0  0  0  0  0  0
   44.6939   10.0708    8.7167 H   0  0  0  0  0  0  0  0  0  0  0  0
   40.8631   10.8962   11.4715 H   0  0  0  0  0  0  0  0  0  0  0  0
   40.7281   13.7779    8.3055 H   0  0  0  0  0  0  0  0  0  0  0  0
   39.7698   12.8326   10.3716 H   0  0  0  0  0  0  0  0  0  0  0  0
   42.2223   13.7950    6.5738 H   0  0  0  0  0  0  0  0  0  0  0  0
   42.8529   12.2279    6.1126 H   0  0  0  0  0  0  0  0  0  0  0  0
   44.7537   11.8766   10.8872 H   0  0  0  0  0  0  0  0  0  0  0  0
   44.3628    7.7443   12.1172 H   0  0  0  0  0  0  0  0  0  0  0  0
   46.9373   11.9843   11.9662 H   0  0  0  0  0  0  0  0  0  0  0  0
   46.5556    7.8781   13.2361 H   0  0  0  0  0  0  0  0  0  0  0  0
   43.2921   11.7330    9.5678 H   0  0  0  0  0  0  0  0  0  0  0  0
   43.9622   10.8985   10.6578 H   0  0  0  0  0  0  0  0  0  0  0  0
   43.3036   11.7771    9.6258 H   0  0  0  0  0  0  0  0  0  0  0  0
   43.9671   10.8324   10.6253 H   0  0  0  0  0  0  0  0  0  0  0  0
  2 18  1  0
  3  9  2  0
  4 21  1  0
  5 21  2  0
  6  8  1  0
  7  8  2  0
  7  9  1  0
  7 12  1  0
  8 10  1  0
  9 11  1  0
 10 13  2  0
 10 15  1  0
 11 16  2  0
 11 17  1  0
 12 14  2  0
 13 14  1  0
 15 21  1  0
 16 19  1  0
 17 20  2  0
 18 19  2  0
 18 20  1  0
 22 38  1  0
 23 29  2  0
 24 41  1  0
 25 41  2  0
 26 28  1  0
 27 28  2  0
 27 29  1  0
 27 32  1  0
 28 30  1  0
 29 31  1  0
 30 33  2  0
 30 35  1  0
 31 36  2  0
 31 37  1  0
 32 34  2  0
 33 34  1  0
 35 41  1  0
 36 39  1  0
 37 40  2  0
 38 39  2  0
 38 40  1  0
  1 46  1  0
  1 47  1  0
  6 48  1  0
  6 49  1  0
 12 50  1  0
 13 51  1  0
 14 52  1  0
 15 53  1  0
 15 54  1  0
 16 55  1  0
 17 56  1  0
 19 57  1  0
 20 58  1  0
 26 59  1  0
 26 60  1  0
 32 61  1  0
 33 62  1  0
 34 63  1  0
 35 64  1  0
 35 65  1  0
 36 66  1  0
 37 67  1  0
 39 68  1  0
 40 69  1  0
 44 70  1  0
 44 71  1  0
 45 72  1  0
 45 73  1  0
M  CHG  4   4  -1  24  -1  42   1  43   1
M  END
> <Uni-Dock RESULT> 
ENERGY=   -6.462  LOWER_BOUND=    0.000  UPPER_BOUND=    0.000
INTER + INTRA:          -6.462
INTER:                  -6.462
INTRA:                   0.000
UNBOUND:                 0.000

$$$$

     RDKit          3D

 73 70  0  0  0  0  0  0  0  0999 V2000
   48.7049    8.1963   12.4615 O   0  0  0  0  0  0  0  0  0  0  0  0
   44.5997    3.0063   12.3028 Br  0  0  0  0  0  0  0  0  0  0  0  0
   48.5474    7.6435   15.3928 O   0  0  0  0  0  0  0  0  0  0  0  0
   52.5458   12.1041   12.2826 O   0  0  0  0  0  0  0  0  0  0  0  0
   51.2161   13.4004   10.9598 O   0  0  0  0  0  0  0  0  0  0  0  0
   48.5575   10.3057   14.3288 N   0  0  0  0  0  0  0  0  0  0  0  0
   49.2359    8.2401   13.2106 C   0  0  0  0  0  0  0  0  0  0  0  0
   49.3533    9.6422   13.3652 C   0  0  0  0  0  0  0  0  0  0  0  0
   48.4407    7.4445   14.1843 C   0  0  0  0  0  0  0  0  0  0  0  0
   50.0838   10.3736   12.3987 C   0  0  0  0  0  0  0  0  0  0  0  0
   47.5082    6.3910   13.7099 C   0  0  0  0  0  0  0  0  0  0  0  0
   49.8794    7.5655   12.1628 C   0  0  0  0  0  0  0  0  0  0  0  0
   50.6916    9.6751   11.3352 C   0  0  0  0  0  0  0  0  0  0  0  0
   50.6048    8.2875   11.2249 C   0  0  0  0  0  0  0  0  0  0  0  0
   50.1864   11.8893   12.4531 C   0  0  0  0  0  0  0  0  0  0  0  0
   47.3878    5.2139   14.4599 C   0  0  0  0  0  0  0  0  0  0  0  0
   46.7424    6.5646   12.5508 C   0  0  0  0  0  0  0  0  0  0  0  0
   45.7732    4.3738   12.8760 C   0  0  0  0  0  0  0  0  0  0  0  0
   46.5270    4.1991   14.0372 C   0  0  0  0  0  0  0  0  0  0  0  0
   45.8729    5.5529   12.1341 C   0  0  0  0  0  0  0  0  0  0  0  0
   51.4373   12.5120   11.8327 C   0  0  0  0  0  0  0  0  0  0  0  0
   47.5707    3.3717   16.4107 Br  0  0  0  0  0  0  0  0  0  0  0  0
   46.0835    7.8905   11.4766 O   0  0  0  0  0  0  0  0  0  0  0  0
   52.8918    9.7085   13.4959 O   0  0  0  0  0  0  0  0  0  0  0  0
   52.4457    7.9265   12.1331 O   0  0  0  0  0  0  0  0  0  0  0  0
   49.8388    7.7210   11.3493 N   0  0  0  0  0  0  0  0  0  0  0  0
   47.9636    9.0742   12.1981 C   0  0  0  0  0  0  0  0  0  0  0  0
   49.3279    8.9255   11.8778 C   0  0  0  0  0  0  0  0  0  0  0  0
   47.0357    7.9257   12.2577 C   0  0  0  0  0  0  0  0  0  0  0  0
   50.1354   10.0884   11.8759 C   0  0  0  0  0  0  0  0  0  0  0  0
   47.2026    6.8503   13.2843 C   0  0  0  0  0  0  0  0  0  0  0  0
   47.4142   10.3250   12.5120 C   0  0  0  0  0  0  0  0  0  0  0  0
   49.5744   11.3351   12.2131 C   0  0  0  0  0  0  0  0  0  0  0  0
   48.2220   11.4535   12.5254 C   0  0  0  0  0  0  0  0  0  0  0  0
   51.6113   10.0484   11.5216 C   0  0  0  0  0  0  0  0  0  0  0  0
   48.2055    6.8822   14.2617 C   0  0  0  0  0  0  0  0  0  0  0  0
   46.2994    5.7744   13.2671 C   0  0  0  0  0  0  0  0  0  0  0  0
   47.4157    4.7768   15.1559 C   0  0  0  0  0  0  0  0  0  0  0  0
   48.3176    5.8395   15.1895 C   0  0  0  0  0  0  0  0  0  0  0  0
   46.4012    4.7417   14.2026 C   0  0  0  0  0  0  0  0  0  0  0  0
   52.3943    9.1453   12.4815 C   0  0  0  0  0  0  0  0  0  0  0  0
   48.6791    8.2984   12.8449 Na  0  0  0  0  0 15  0  0  0  0  0  0
   48.6791    8.2984   12.8449 Na  0  0  0  0  0 15  0  0  0  0  0  0
   48.6594    8.1446   12.4780 O   0  0  0  0  0  0  0  0  0  0  0  0
   48.6834    8.1713   12.4678 O   0  0  0  0  0  0  0  0  0  0  0  0
   49.1545    8.9244   12.9162 H   0  0  0  0  0  0  0  0  0  0  0  0
   48.1780    7.7744   13.1569 H   0  0  0  0  0  0  0  0  0  0  0  0
   48.4469    9.7322   15.1679 H   0  0  0  0  0  0  0  0  0  0  0  0
   48.8831   11.2368   14.5520 H   0  0  0  0  0  0  0  0  0  0  0  0
   49.8213    6.4848   12.0691 H   0  0  0  0  0  0  0  0  0  0  0  0
   51.2651   10.2209   10.5847 H   0  0  0  0  0  0  0  0  0  0  0  0
   51.1029    7.7823   10.4001 H   0  0  0  0  0  0  0  0  0  0  0  0
   49.2907   12.3062   11.9773 H   0  0  0  0  0  0  0  0  0  0  0  0
   50.2025   12.2330   13.4934 H   0  0  0  0  0  0  0  0  0  0  0  0
   47.9697    5.0919   15.3708 H   0  0  0  0  0  0  0  0  0  0  0  0
   46.8053    7.4903   11.9795 H   0  0  0  0  0  0  0  0  0  0  0  0
   46.4471    3.2846   14.6195 H   0  0  0  0  0  0  0  0  0  0  0  0
   45.2804    5.6939   11.2334 H   0  0  0  0  0  0  0  0  0  0  0  0
   50.8632    7.6334   11.5034 H   0  0  0  0  0  0  0  0  0  0  0  0
   49.3922    6.8690   11.6595 H   0  0  0  0  0  0  0  0  0  0  0  0
   46.3572   10.4115   12.7481 H   0  0  0  0  0  0  0  0  0  0  0  0
   50.2039   12.2222   12.2287 H   0  0  0  0  0  0  0  0  0  0  0  0
   47.8064   12.4250   12.7682 H   0  0  0  0  0  0  0  0  0  0  0  0
   52.0480   11.0528   11.5475 H   0  0  0  0  0  0  0  0  0  0  0  0
   51.7262    9.6975   10.4865 H   0  0  0  0  0  0  0  0  0  0  0  0
   48.9261    7.6964   14.3191 H   0  0  0  0  0  0  0  0  0  0  0  0
   45.5100    5.7394   12.5187 H   0  0  0  0  0  0  0  0  0  0  0  0
   49.1182    5.8707   15.9235 H   0  0  0  0  0  0  0  0  0  0  0  0
   45.6926    3.9182   14.1705 H   0  0  0  0  0  0  0  0  0  0  0  0
   49.1783    8.9065   12.7797 H   0  0  0  0  0  0  0  0  0  0  0  0
   48.1997    7.8439   13.2768 H   0  0  0  0  0  0  0  0  0  0  0  0
   49.1674    8.9181   12.8518 H   0  0  0  0  0  0  0  0  0  0  0  0
   48.1866    7.8057   13.2152 H   0  0  0  0  0  0  0  0  0  0  0  0
  2 18  1  0
  3  9  2  0
  4 21  1  0
  5 21  2  0
  6  8  1  0
  7  8  2  0
  7  9  1  0
  7 12  1  0
  8 10  1  0
  9 11  1  0
 10 13  2  0
 10 15  1  0
 11 16  2  0
 11 17  1  0
 12 14  2  0
 13 14  1  0
 15 21  1  0
 16 19  1  0
 17 20  2  0
 18 19  2  0
 18 20  1  0
 22 38  1  0
 23 29  2  0
 24 41  1  0
 25 41  2  0
 26 28  1  0
 27 28  2  0
 27 29  1  0
 27 32  1  0
 28 30  1  0
 29 31  1  0
 30 33  2  0
 30 35  1  0
 31 36  2  0
 31 37  1  0
 32 34  2  0
 33 34  1  0
 35 41  1  0
 36 39  1  0
 37 40  2  0
 38 39  2  0
 38 40  1  0
  1 46  1  0
  1 47  1  0
  6 48  1  0
  6 49  1  0
 12 50  1  0
 13 51  1  0
 14 52  1  0
 15 53  1  0
 15 54  1  0
 16 55  1  0
 17 56  1  0
 19 57  1  0
 20 58  1  0
 26 59  1  0
 26 60  1  0
 32 61  1  0
 33 62  1  0
 34 63  1  0
 35 64  1  0
 35 65  1  0
 36 66  1  0
 37 67  1  0
 39 68  1  0
 40 69  1  0
 44 70  1  0
 44 71  1  0
 45 72  1  0
 45 73  1  0
M  CHG  4   4  -1  24  -1  42   1  43   1
M  END
> <Uni-Dock RESULT> 
ENERGY=   -5.928  LOWER_BOUND=    5.741  UPPER_BOUND=    7.489
INTER + INTRA:          -5.928
INTER:                  -5.928
INTRA:                   0.000
UNBOUND:                 0.000

$$$$

     RDKit          3D

 73 70  0  0  0  0  0  0  0  0999 V2000
   49.5710    7.6071   16.1147 O   0  0  0  0  0  0  0  0  0  0  0  0
   47.7111    5.4368   22.0849 Br  0  0  0  0  0  0  0  0  0  0  0  0
   47.6092    9.7545   16.7951 O   0  0  0  0  0  0  0  0  0  0  0  0
   51.7107    9.5112   11.4401 O   0  0  0  0  0  0  0  0  0  0  0  0
   51.3867    7.4938   10.4284 O   0  0  0  0  0  0  0  0  0  0  0  0
   47.8170    8.6401   14.1617 N   0  0  0  0  0  0  0  0  0  0  0  0
   49.4459    8.5078   15.9800 C   0  0  0  0  0  0  0  0  0  0  0  0
   49.1595    8.5268   14.5940 C   0  0  0  0  0  0  0  0  0  0  0  0
   48.3760    8.8093   16.9689 C   0  0  0  0  0  0  0  0  0  0  0  0
   50.1902    8.1962   13.6825 C   0  0  0  0  0  0  0  0  0  0  0  0
   48.2217    7.9745   18.1869 C   0  0  0  0  0  0  0  0  0  0  0  0
   50.7369    8.2333   16.4543 C   0  0  0  0  0  0  0  0  0  0  0  0
   51.4706    7.8893   14.1874 C   0  0  0  0  0  0  0  0  0  0  0  0
   51.7467    7.9217   15.5541 C   0  0  0  0  0  0  0  0  0  0  0  0
   49.9382    8.1167   12.1855 C   0  0  0  0  0  0  0  0  0  0  0  0
   47.8600    8.5993   19.3874 C   0  0  0  0  0  0  0  0  0  0  0  0
   48.4095    6.5876   18.1477 C   0  0  0  0  0  0  0  0  0  0  0  0
   47.9131    6.4645   20.5105 C   0  0  0  0  0  0  0  0  0  0  0  0
   47.7155    7.8452   20.5537 C   0  0  0  0  0  0  0  0  0  0  0  0
   48.2541    5.8319   19.3130 C   0  0  0  0  0  0  0  0  0  0  0  0
   51.1340    8.3986   11.2755 C   0  0  0  0  0  0  0  0  0  0  0  0
   47.0434   10.3992   21.2113 Br  0  0  0  0  0  0  0  0  0  0  0  0
   48.3974    5.1918   16.9654 O   0  0  0  0  0  0  0  0  0  0  0  0
   51.6091   10.9374   13.7393 O   0  0  0  0  0  0  0  0  0  0  0  0
   52.5367    9.8502   15.5251 O   0  0  0  0  0  0  0  0  0  0  0  0
   51.2203    7.5817   16.2823 N   0  0  0  0  0  0  0  0  0  0  0  0
   49.0447    6.8163   15.4168 C   0  0  0  0  0  0  0  0  0  0  0  0
   50.2697    7.4912   15.2434 C   0  0  0  0  0  0  0  0  0  0  0  0
   48.5560    6.3937   16.7458 C   0  0  0  0  0  0  0  0  0  0  0  0
   50.6305    7.8759   13.9296 C   0  0  0  0  0  0  0  0  0  0  0  0
   48.1975    7.4004   17.7929 C   0  0  0  0  0  0  0  0  0  0  0  0
   48.2006    6.5350   14.3337 C   0  0  0  0  0  0  0  0  0  0  0  0
   49.7632    7.6050   12.8539 C   0  0  0  0  0  0  0  0  0  0  0  0
   48.5580    6.9355   13.0537 C   0  0  0  0  0  0  0  0  0  0  0  0
   51.9377    8.5854   13.6241 C   0  0  0  0  0  0  0  0  0  0  0  0
   48.2624    8.7821   17.5721 C   0  0  0  0  0  0  0  0  0  0  0  0
   47.7638    6.9279   19.0428 C   0  0  0  0  0  0  0  0  0  0  0  0
   47.4997    9.1897   19.8321 C   0  0  0  0  0  0  0  0  0  0  0  0
   47.9240    9.6752   18.5960 C   0  0  0  0  0  0  0  0  0  0  0  0
   47.4110    7.8187   20.0595 C   0  0  0  0  0  0  0  0  0  0  0  0
   52.0346    9.9254   14.3626 C   0  0  0  0  0  0  0  0  0  0  0  0
   49.2774    7.8631   16.0351 Na  0  0  0  0  0 15  0  0  0  0  0  0
   49.2774    7.8631   16.0351 Na  0  0  0  0  0 15  0  0  0  0  0  0
   49.5372    7.5960   16.1759 O   0  0  0  0  0  0  0  0  0  0  0  0
   49.5561    7.6008   16.1441 O   0  0  0  0  0  0  0  0  0  0  0  0
   49.4528    8.1507   15.3212 H   0  0  0  0  0  0  0  0  0  0  0  0
   48.8085    7.8313   16.6692 H   0  0  0  0  0  0  0  0  0  0  0  0
   47.2875    9.2631   14.7755 H   0  0  0  0  0  0  0  0  0  0  0  0
   47.7248    8.9049   13.1900 H   0  0  0  0  0  0  0  0  0  0  0  0
   50.9641    8.2588   17.5162 H   0  0  0  0  0  0  0  0  0  0  0  0
   52.2798    7.6395   13.4998 H   0  0  0  0  0  0  0  0  0  0  0  0
   52.7521    7.6968   15.9041 H   0  0  0  0  0  0  0  0  0  0  0  0
   49.5303    7.1233   11.9634 H   0  0  0  0  0  0  0  0  0  0  0  0
   49.1907    8.8593   11.8851 H   0  0  0  0  0  0  0  0  0  0  0  0
   47.6953    9.6743   19.4087 H   0  0  0  0  0  0  0  0  0  0  0  0
   48.6587    6.0892   17.2114 H   0  0  0  0  0  0  0  0  0  0  0  0
   47.4446    8.3392   21.4833 H   0  0  0  0  0  0  0  0  0  0  0  0
   48.4007    4.7552   19.2760 H   0  0  0  0  0  0  0  0  0  0  0  0
   51.8723    8.3793   16.1431 H   0  0  0  0  0  0  0  0  0  0  0  0
   50.8545    7.6249   17.2236 H   0  0  0  0  0  0  0  0  0  0  0  0
   47.2651    6.0066   14.4954 H   0  0  0  0  0  0  0  0  0  0  0  0
   50.0368    7.9200   11.8493 H   0  0  0  0  0  0  0  0  0  0  0  0
   47.9110    6.7237   12.2099 H   0  0  0  0  0  0  0  0  0  0  0  0
   52.0430    8.7671   12.5489 H   0  0  0  0  0  0  0  0  0  0  0  0
   52.7775    7.9335   13.9023 H   0  0  0  0  0  0  0  0  0  0  0  0
   48.5877    9.1970   16.6194 H   0  0  0  0  0  0  0  0  0  0  0  0
   47.7006    5.8571   19.2269 H   0  0  0  0  0  0  0  0  0  0  0  0
   48.0055   10.7431   18.4125 H   0  0  0  0  0  0  0  0  0  0  0  0
   47.0792    7.4317   21.0194 H   0  0  0  0  0  0  0  0  0  0  0  0
   49.5643    8.0669   15.3283 H   0  0  0  0  0  0  0  0  0  0  0  0
   48.7309    7.9263   16.6010 H   0  0  0  0  0  0  0  0  0  0  0  0
   49.5062    8.1120   15.3221 H   0  0  0  0  0  0  0  0  0  0  0  0
   48.7699    7.8765   16.6390 H   0  0  0  0  0  0  0  0  0  0  0  0
  2 18  1  0
  3  9  2  0
  4 21  1  0
  5 21  2  0
  6  8  1  0
  7  8  2  0
  7  9  1  0
  7 12  1  0
  8 10  1  0
  9 11  1  0
 10 13  2  0
 10 15  1  0
 11 16  2  0
 11 17  1  0
 12 14  2  0
 13 14  1  0
 15 21  1  0
 16 19  1  0
 17 20  2  0
 18 19  2  0
 18 20  1  0
 22 38  1  0
 23 29  2  0
 24 41  1  0
 25 41  2  0
 26 28  1  0
 27 28  2  0
 27 29  1  0
 27 32  1  0
 28 30  1  0
 29 31  1  0
 30 33  2  0
 30 35  1  0
 31 36  2  0
 31 37  1  0
 32 34  2  0
 33 34  1  0
 35 41  1  0
 36 39  1  0
 37 40  2  0
 38 39  2  0
 38 40  1  0
  1 46  1  0
  1 47  1  0
  6 48  1  0
  6 49  1  0
 12 50  1  0
 13 51  1  0
 14 52  1  0
 15 53  1  0
 15 54  1  0
 16 55  1  0
 17 56  1  0
 19 57  1  0
 20 58  1  0
 26 59  1  0
 26 60  1  0
 32 61  1  0
 33 62  1  0
 34 63  1  0
 35 64  1  0
 35 65  1  0
 36 66  1  0
 37 67  1  0
 39 68  1  0
 40 69  1  0
 44 70  1  0
 44 71  1  0
 45 72  1  0
 45 73  1  0
M  CHG  4   4  -1  24  -1  42   1  43   1
M  END
> <Uni-Dock RESULT> 
ENERGY=   -5.876  LOWER_BOUND=    8.064  UPPER_BOUND=    9.613
INTER + INTRA:          -5.876
INTER:                  -5.876
INTRA:                   0.000
UNBOUND:                 0.000

$$$$

     RDKit          3D

 73 70  0  0  0  0  0  0  0  0999 V2000
   48.3084    8.5178   14.0399 O   0  0  0  0  0  0  0  0  0  0  0  0
   43.1987    4.9823   11.7586 Br  0  0  0  0  0  0  0  0  0  0  0  0
   47.3666   10.3898   11.9112 O   0  0  0  0  0  0  0  0  0  0  0  0
   52.1938   11.5067   16.4947 O   0  0  0  0  0  0  0  0  0  0  0  0
   53.6601    9.7650   16.3740 O   0  0  0  0  0  0  0  0  0  0  0  0
   50.1477    9.9142   12.4197 N   0  0  0  0  0  0  0  0  0  0  0  0
   48.2495    9.4211   13.8794 C   0  0  0  0  0  0  0  0  0  0  0  0
   49.6177    9.7474   13.7210 C   0  0  0  0  0  0  0  0  0  0  0  0
   47.3323    9.4546   12.7085 C   0  0  0  0  0  0  0  0  0  0  0  0
   50.4704    9.6666   14.8475 C   0  0  0  0  0  0  0  0  0  0  0  0
   46.3550    8.3589   12.4880 C   0  0  0  0  0  0  0  0  0  0  0  0
   47.7202    9.0861   15.1343 C   0  0  0  0  0  0  0  0  0  0  0  0
   49.9197    9.2929   16.0907 C   0  0  0  0  0  0  0  0  0  0  0  0
   48.5598    9.0206   16.2378 C   0  0  0  0  0  0  0  0  0  0  0  0
   51.9647    9.9237   14.7387 C   0  0  0  0  0  0  0  0  0  0  0  0
   45.0880    8.6810   11.9844 C   0  0  0  0  0  0  0  0  0  0  0  0
   46.6851    7.0244   12.7529 C   0  0  0  0  0  0  0  0  0  0  0  0
   44.4733    6.3487   12.0488 C   0  0  0  0  0  0  0  0  0  0  0  0
   44.1417    7.6760   11.7741 C   0  0  0  0  0  0  0  0  0  0  0  0
   45.7412    6.0177   12.5320 C   0  0  0  0  0  0  0  0  0  0  0  0
   52.6617   10.4436   15.9962 C   0  0  0  0  0  0  0  0  0  0  0  0
   42.9994    9.9895   10.9081 Br  0  0  0  0  0  0  0  0  0  0  0  0
   48.1455    5.9362   12.9246 O   0  0  0  0  0  0  0  0  0  0  0  0
   49.6557   12.3655   16.1056 O   0  0  0  0  0  0  0  0  0  0  0  0
   48.0747   10.9286   16.9223 O   0  0  0  0  0  0  0  0  0  0  0  0
   47.9839    8.5067   15.6657 N   0  0  0  0  0  0  0  0  0  0  0  0
   49.2159    7.8913   13.6232 C   0  0  0  0  0  0  0  0  0  0  0  0
   49.1078    8.6263   14.8209 C   0  0  0  0  0  0  0  0  0  0  0  0
   48.0724    7.1609   13.0379 C   0  0  0  0  0  0  0  0  0  0  0  0
   50.2580    9.3123   15.2797 C   0  0  0  0  0  0  0  0  0  0  0  0
   46.8682    7.8897   12.5310 C   0  0  0  0  0  0  0  0  0  0  0  0
   50.4146    7.8387   12.8986 C   0  0  0  0  0  0  0  0  0  0  0  0
   51.4496    9.2674   14.5308 C   0  0  0  0  0  0  0  0  0  0  0  0
   51.5288    8.5324   13.3501 C   0  0  0  0  0  0  0  0  0  0  0  0
   50.2619   10.1137   16.5694 C   0  0  0  0  0  0  0  0  0  0  0  0
   46.7654    9.2866   12.5416 C   0  0  0  0  0  0  0  0  0  0  0  0
   45.8070    7.1305   12.0103 C   0  0  0  0  0  0  0  0  0  0  0  0
   44.5611    9.1424   11.5535 C   0  0  0  0  0  0  0  0  0  0  0  0
   45.6070    9.9108   12.0630 C   0  0  0  0  0  0  0  0  0  0  0  0
   44.6575    7.7537   11.5182 C   0  0  0  0  0  0  0  0  0  0  0  0
   49.2356   11.2517   16.5258 C   0  0  0  0  0  0  0  0  0  0  0  0
   48.3580    8.7758   13.7415 Na  0  0  0  0  0 15  0  0  0  0  0  0
   48.3580    8.7758   13.7415 Na  0  0  0  0  0 15  0  0  0  0  0  0
   48.2551    8.4919   14.0012 O   0  0  0  0  0  0  0  0  0  0  0  0
   48.2829    8.5045   14.0227 O   0  0  0  0  0  0  0  0  0  0  0  0
   48.9674    9.2244   13.9660 H   0  0  0  0  0  0  0  0  0  0  0  0
   47.7982    8.5852   13.2187 H   0  0  0  0  0  0  0  0  0  0  0  0
   49.4669   10.3634   11.8034 H   0  0  0  0  0  0  0  0  0  0  0  0
   51.0394   10.3912   12.4031 H   0  0  0  0  0  0  0  0  0  0  0  0
   46.6622    8.8753   15.2612 H   0  0  0  0  0  0  0  0  0  0  0  0
   50.5599    9.2325   16.9719 H   0  0  0  0  0  0  0  0  0  0  0  0
   48.1688    8.7534   17.2174 H   0  0  0  0  0  0  0  0  0  0  0  0
   52.4444    8.9950   14.4070 H   0  0  0  0  0  0  0  0  0  0  0  0
   52.1652   10.6914   13.9831 H   0  0  0  0  0  0  0  0  0  0  0  0
   44.8428    9.7169   11.7609 H   0  0  0  0  0  0  0  0  0  0  0  0
   47.6791    6.7614   13.1136 H   0  0  0  0  0  0  0  0  0  0  0  0
   43.1574    7.9355   11.3927 H   0  0  0  0  0  0  0  0  0  0  0  0
   46.0039    4.9832   12.7390 H   0  0  0  0  0  0  0  0  0  0  0  0
   47.8734    9.3351   16.2840 H   0  0  0  0  0  0  0  0  0  0  0  0
   47.0992    8.3220   15.2132 H   0  0  0  0  0  0  0  0  0  0  0  0
   50.4716    7.2582   11.9820 H   0  0  0  0  0  0  0  0  0  0  0  0
   52.3247    9.8122   14.8783 H   0  0  0  0  0  0  0  0  0  0  0  0
   52.4600    8.4988   12.7957 H   0  0  0  0  0  0  0  0  0  0  0  0
   51.2524   10.5397   16.7632 H   0  0  0  0  0  0  0  0  0  0  0  0
   50.0531    9.4423   17.4139 H   0  0  0  0  0  0  0  0  0  0  0  0
   47.5624    9.9184   12.9303 H   0  0  0  0  0  0  0  0  0  0  0  0
   45.8753    6.0445   11.9882 H   0  0  0  0  0  0  0  0  0  0  0  0
   45.5369   10.9944   12.1034 H   0  0  0  0  0  0  0  0  0  0  0  0
   43.8479    7.1471   11.1209 H   0  0  0  0  0  0  0  0  0  0  0  0
   48.9680    9.1448   14.0807 H   0  0  0  0  0  0  0  0  0  0  0  0
   47.8510    8.6907   13.1427 H   0  0  0  0  0  0  0  0  0  0  0  0
   48.9698    9.1882   14.0211 H   0  0  0  0  0  0  0  0  0  0  0  0
   47.8214    8.6348   13.1807 H   0  0  0  0  0  0  0  0  0  0  0  0
  2 18  1  0
  3  9  2  0
  4 21  1  0
  5 21  2  0
  6  8  1  0
  7  8  2  0
  7  9  1  0
  7 12  1  0
  8 10  1  0
  9 11  1  0
 10 13  2  0
 10 15  1  0
 11 16  2  0
 11 17  1  0
 12 14  2  0
 13 14  1  0
 15 21  1  0
 16 19  1  0
 17 20  2  0
 18 19  2  0
 18 20  1  0
 22 38  1  0
 23 29  2  0
 24 41  1  0
 25 41  2  0
 26 28  1  0
 27 28  2  0
 27 29  1  0
 27 32  1  0
 28 30  1  0
 29 31  1  0
 30 33  2  0
 30 35  1  0
 31 36  2  0
 31 37  1  0
 32 34  2  0
 33 34  1  0
 35 41  1  0
 36 39  1  0
 37 40  2  0
 38 39  2  0
 38 40  1  0
  1 46  1  0
  1 47  1  0
  6 48  1  0
  6 49  1  0
 12 50  1  0
 13 51  1  0
 14 52  1  0
 15 53  1  0
 15 54  1  0
 16 55  1  0
 17 56  1  0
 19 57  1  0
 20 58  1  0
 26 59  1  0
 26 60  1  0
 32 61  1  0
 33 62  1  0
 34 63  1  0
 35 64  1  0
 35 65  1  0
 36 66  1  0
 37 67  1  0
 39 68  1  0
 40 69  1  0
 44 70  1  0
 44 71  1  0
 45 72  1  0
 45 73  1  0
M  CHG  4   4  -1  24  -1  42   1  43   1
M  END
> <Uni-Dock RESULT> 
ENERGY=   -5.718  LOWER_BOUND=    4.857  UPPER_BOUND=    8.435
INTER + INTRA:          -5.718
INTER:                  -5.718
INTRA:                   0.000
UNBOUND:                 0.000

$$$$

     RDKit          3D

 73 70  0  0  0  0  0  0  0  0999 V2000
   48.9150   10.4203   19.8437 O   0  0  0  0  0  0  0  0  0  0  0  0
   47.7212    4.1444   18.1111 Br  0  0  0  0  0  0  0  0  0  0  0  0
   47.2379    9.6087   22.1786 O   0  0  0  0  0  0  0  0  0  0  0  0
   50.5407   15.4359   21.3459 O   0  0  0  0  0  0  0  0  0  0  0  0
   49.9253   16.2810   19.3197 O   0  0  0  0  0  0  0  0  0  0  0  0
   46.9976   12.1797   20.9327 N   0  0  0  0  0  0  0  0  0  0  0  0
   48.8435   10.5876   20.7448 C   0  0  0  0  0  0  0  0  0  0  0  0
   48.3734   11.9226   20.7253 C   0  0  0  0  0  0  0  0  0  0  0  0
   47.9450    9.4848   21.1804 C   0  0  0  0  0  0  0  0  0  0  0  0
   49.2415   12.9421   20.2675 C   0  0  0  0  0  0  0  0  0  0  0  0
   47.8931    8.2121   20.4176 C   0  0  0  0  0  0  0  0  0  0  0  0
   50.1616   10.2733   20.3832 C   0  0  0  0  0  0  0  0  0  0  0  0
   50.5508   12.5942   19.8761 C   0  0  0  0  0  0  0  0  0  0  0  0
   51.0120   11.2799   19.9465 C   0  0  0  0  0  0  0  0  0  0  0  0
   48.7826   14.3859   20.1422 C   0  0  0  0  0  0  0  0  0  0  0  0
   47.7482    7.0113   21.1245 C   0  0  0  0  0  0  0  0  0  0  0  0
   47.9649    8.1977   19.0195 C   0  0  0  0  0  0  0  0  0  0  0  0
   47.7867    5.7869   19.0458 C   0  0  0  0  0  0  0  0  0  0  0  0
   47.7053    5.7957   20.4388 C   0  0  0  0  0  0  0  0  0  0  0  0
   47.9110    6.9815   18.3331 C   0  0  0  0  0  0  0  0  0  0  0  0
   49.8618   15.4601   20.2800 C   0  0  0  0  0  0  0  0  0  0  0  0
   47.3306    5.1997   23.0679 Br  0  0  0  0  0  0  0  0  0  0  0  0
   47.6829    9.2878   17.5778 O   0  0  0  0  0  0  0  0  0  0  0  0
   50.8647   13.2271   22.8780 O   0  0  0  0  0  0  0  0  0  0  0  0
   51.9390   11.5212   21.7977 O   0  0  0  0  0  0  0  0  0  0  0  0
   50.5647   10.4706   19.6858 N   0  0  0  0  0  0  0  0  0  0  0  0
   48.2384   10.9971   19.0697 C   0  0  0  0  0  0  0  0  0  0  0  0
   49.4774   11.3683   19.6296 C   0  0  0  0  0  0  0  0  0  0  0  0
   47.9036    9.5936   18.7507 C   0  0  0  0  0  0  0  0  0  0  0  0
   49.6849   12.7377   19.9225 C   0  0  0  0  0  0  0  0  0  0  0  0
   47.7707    8.5666   19.8305 C   0  0  0  0  0  0  0  0  0  0  0  0
   47.2354   11.9418   18.8125 C   0  0  0  0  0  0  0  0  0  0  0  0
   48.6608   13.6726   19.6779 C   0  0  0  0  0  0  0  0  0  0  0  0
   47.4454   13.2782   19.1230 C   0  0  0  0  0  0  0  0  0  0  0  0
   50.9898   13.2524   20.5037 C   0  0  0  0  0  0  0  0  0  0  0  0
   47.9128    8.8713   21.1902 C   0  0  0  0  0  0  0  0  0  0  0  0
   47.4756    7.2458   19.4535 C   0  0  0  0  0  0  0  0  0  0  0  0
   47.4990    6.5569   21.7629 C   0  0  0  0  0  0  0  0  0  0  0  0
   47.7878    7.8635   22.1542 C   0  0  0  0  0  0  0  0  0  0  0  0
   47.3352    6.2431   20.4161 C   0  0  0  0  0  0  0  0  0  0  0  0
   51.2907   12.6096   21.8626 C   0  0  0  0  0  0  0  0  0  0  0  0
   48.6342   10.4747   20.1198 Na  0  0  0  0  0 15  0  0  0  0  0  0
   48.6342   10.4747   20.1198 Na  0  0  0  0  0 15  0  0  0  0  0  0
   48.8890   10.3546   19.8382 O   0  0  0  0  0  0  0  0  0  0  0  0
   48.9038   10.3889   19.8400 O   0  0  0  0  0  0  0  0  0  0  0  0
   48.7327   11.2205   20.3590 H   0  0  0  0  0  0  0  0  0  0  0  0
   48.2549    9.7835   20.1567 H   0  0  0  0  0  0  0  0  0  0  0  0
   46.6069   11.5373   21.6255 H   0  0  0  0  0  0  0  0  0  0  0  0
   46.7950   13.1440   21.1602 H   0  0  0  0  0  0  0  0  0  0  0  0
   50.5325    9.2537   20.4373 H   0  0  0  0  0  0  0  0  0  0  0  0
   51.2368   13.3674   19.5276 H   0  0  0  0  0  0  0  0  0  0  0  0
   52.0350   11.0535   19.6531 H   0  0  0  0  0  0  0  0  0  0  0  0
   48.2719   14.4961   19.1781 H   0  0  0  0  0  0  0  0  0  0  0  0
   48.0615   14.6263   20.9313 H   0  0  0  0  0  0  0  0  0  0  0  0
   47.6724    7.0290   22.2095 H   0  0  0  0  0  0  0  0  0  0  0  0
   48.0447    9.1293   18.4599 H   0  0  0  0  0  0  0  0  0  0  0  0
   47.6029    4.8677   20.9956 H   0  0  0  0  0  0  0  0  0  0  0  0
   47.9666    6.9770   17.2472 H   0  0  0  0  0  0  0  0  0  0  0  0
   51.2520   10.7392   20.4180 H   0  0  0  0  0  0  0  0  0  0  0  0
   50.3350    9.4932   19.8024 H   0  0  0  0  0  0  0  0  0  0  0  0
   46.2922   11.6286   18.3734 H   0  0  0  0  0  0  0  0  0  0  0  0
   48.8189   14.7207   19.9228 H   0  0  0  0  0  0  0  0  0  0  0  0
   46.6750   14.0160   18.9290 H   0  0  0  0  0  0  0  0  0  0  0  0
   50.9616   14.3406   20.6271 H   0  0  0  0  0  0  0  0  0  0  0  0
   51.8061   13.0512   19.7961 H   0  0  0  0  0  0  0  0  0  0  0  0
   48.1368    9.8803   21.5326 H   0  0  0  0  0  0  0  0  0  0  0  0
   47.3547    6.9951   18.4013 H   0  0  0  0  0  0  0  0  0  0  0  0
   47.9267    8.1158   23.2019 H   0  0  0  0  0  0  0  0  0  0  0  0
   47.1080    5.2276   20.1023 H   0  0  0  0  0  0  0  0  0  0  0  0
   48.8372   11.2234   20.2664 H   0  0  0  0  0  0  0  0  0  0  0  0
   48.1765    9.8461   20.2547 H   0  0  0  0  0  0  0  0  0  0  0  0
   48.7826   11.2245   20.3159 H   0  0  0  0  0  0  0  0  0  0  0  0
   48.2162    9.8109   20.2035 H   0  0  0  0  0  0  0  0  0  0  0  0
  2 18  1  0
  3  9  2  0
  4 21  1  0
  5 21  2  0
  6  8  1  0
  7  8  2  0
  7  9  1  0
  7 12  1  0
  8 10  1  0
  9 11  1  0
 10 13  2  0
 10 15  1  0
 11 16  2  0
 11 17  1  0
 12 14  2  0
 13 14  1  0
 15 21  1  0
 16 19  1  0
 17 20  2  0
 18 19  2  0
 18 20  1  0
 22 38  1  0
 23 29  2  0
 24 41  1  0
 25 41  2  0
 26 28  1  0
 27 28  2  0
 27 29  1  0
 27 32  1  0
 28 30  1  0
 29 31  1  0
 30 33  2  0
 30 35  1  0
 31 36  2  0
 31 37  1  0
 32 34  2  0
 33 34  1  0
 35 41  1  0
 36 39  1  0
 37 40  2  0
 38 39  2  0
 38 40  1  0
  1 46  1  0
  1 47  1  0
  6 48  1  0
  6 49  1  0
 12 50  1  0
 13 51  1  0
 14 52  1  0
 15 53  1  0
 15 54  1  0
 16 55  1  0
 17 56  1  0
 19 57  1  0
 20 58  1  0
 26 59  1  0
 26 60  1  0
 32 61  1  0
 33 62  1  0
 34 63  1  0
 35 64  1  0
 35 65  1  0
 36 66  1  0
 37 67  1  0
 39 68  1  0
 40 69  1  0
 44 70  1  0
 44 71  1  0
 45 72  1  0
 45 73  1  0
M  CHG  4   4  -1  24  -1  42   1  43   1
M  END
> <Uni-Dock RESULT> 
ENERGY=   -5.555  LOWER_BOUND=   10.024  UPPER_BOUND=   11.999
INTER + INTRA:          -5.555
INTER:                  -5.555
INTRA:                   0.000
UNBOUND:                 0.000

$$$$

     RDKit          3D

 73 70  0  0  0  0  0  0  0  0999 V2000
   49.6013    6.1673   18.4643 O   0  0  0  0  0  0  0  0  0  0  0  0
   46.2845   11.5707   20.3657 Br  0  0  0  0  0  0  0  0  0  0  0  0
   49.4716    7.5777   15.8343 O   0  0  0  0  0  0  0  0  0  0  0  0
   52.8462    1.9121   17.2732 O   0  0  0  0  0  0  0  0  0  0  0  0
   51.3688    0.4692   18.2394 O   0  0  0  0  0  0  0  0  0  0  0  0
   49.1200    4.7428   16.0775 N   0  0  0  0  0  0  0  0  0  0  0  0
   50.1069    6.2776   17.7045 C   0  0  0  0  0  0  0  0  0  0  0  0
   50.0198    4.9812   17.1431 C   0  0  0  0  0  0  0  0  0  0  0  0
   49.4163    7.4228   17.0527 C   0  0  0  0  0  0  0  0  0  0  0  0
   50.6555    3.9074   17.8106 C   0  0  0  0  0  0  0  0  0  0  0  0
   48.6528    8.4019   17.8668 C   0  0  0  0  0  0  0  0  0  0  0  0
   50.8592    6.5216   18.8629 C   0  0  0  0  0  0  0  0  0  0  0  0
   51.3760    4.1740   18.9930 C   0  0  0  0  0  0  0  0  0  0  0  0
   51.4906    5.4658   19.5061 C   0  0  0  0  0  0  0  0  0  0  0  0
   50.5391    2.4758   17.3127 C   0  0  0  0  0  0  0  0  0  0  0  0
   48.6886    9.7532   17.4992 C   0  0  0  0  0  0  0  0  0  0  0  0
   47.8912    7.9956   18.9691 C   0  0  0  0  0  0  0  0  0  0  0  0
   47.2397   10.2920   19.3517 C   0  0  0  0  0  0  0  0  0  0  0  0
   47.9896   10.7016   18.2486 C   0  0  0  0  0  0  0  0  0  0  0  0
   47.1830    8.9439   19.7122 C   0  0  0  0  0  0  0  0  0  0  0  0
   51.6990    1.5388   17.6503 C   0  0  0  0  0  0  0  0  0  0  0  0
   49.0979   12.0491   16.1597 Br  0  0  0  0  0  0  0  0  0  0  0  0
   47.0689    6.5099   19.6494 O   0  0  0  0  0  0  0  0  0  0  0  0
   53.5094    4.4921   16.7889 O   0  0  0  0  0  0  0  0  0  0  0  0
   53.3476    5.8339   18.6341 O   0  0  0  0  0  0  0  0  0  0  0  0
   50.8115    6.1392   19.5972 N   0  0  0  0  0  0  0  0  0  0  0  0
   48.7469    5.3562   18.5051 C   0  0  0  0  0  0  0  0  0  0  0  0
   50.1240    5.2229   18.7733 C   0  0  0  0  0  0  0  0  0  0  0  0
   47.9919    6.5825   18.8366 C   0  0  0  0  0  0  0  0  0  0  0  0
   50.7567    4.0159   18.3897 C   0  0  0  0  0  0  0  0  0  0  0  0
   48.2925    7.8817   18.1582 C   0  0  0  0  0  0  0  0  0  0  0  0
   48.0186    4.3377   17.8751 C   0  0  0  0  0  0  0  0  0  0  0  0
   50.0172    3.0097   17.7391 C   0  0  0  0  0  0  0  0  0  0  0  0
   48.6563    3.1676   17.4868 C   0  0  0  0  0  0  0  0  0  0  0  0
   52.2293    3.7551   18.6521 C   0  0  0  0  0  0  0  0  0  0  0  0
   49.2627    8.0086   17.1559 C   0  0  0  0  0  0  0  0  0  0  0  0
   47.5529    9.0133   18.5405 C   0  0  0  0  0  0  0  0  0  0  0  0
   48.7662   10.3689   16.9597 C   0  0  0  0  0  0  0  0  0  0  0  0
   49.5060    9.2548   16.5657 C   0  0  0  0  0  0  0  0  0  0  0  0
   47.7845   10.2536   17.9406 C   0  0  0  0  0  0  0  0  0  0  0  0
   53.1161    4.7905   17.9508 C   0  0  0  0  0  0  0  0  0  0  0  0
   49.5543    6.1875   18.0701 Na  0  0  0  0  0 15  0  0  0  0  0  0
   49.5543    6.1875   18.0701 Na  0  0  0  0  0 15  0  0  0  0  0  0
   49.5634    6.2271   18.4663 O   0  0  0  0  0  0  0  0  0  0  0  0
   49.5835    6.1956   18.4668 O   0  0  0  0  0  0  0  0  0  0  0  0
   49.9339    5.5537   17.7920 H   0  0  0  0  0  0  0  0  0  0  0  0
   49.1277    6.8414   17.9538 H   0  0  0  0  0  0  0  0  0  0  0  0
   49.0774    5.5480   15.4490 H   0  0  0  0  0  0  0  0  0  0  0  0
   49.3049    3.8850   15.5747 H   0  0  0  0  0  0  0  0  0  0  0  0
   50.9580    7.5240   19.2695 H   0  0  0  0  0  0  0  0  0  0  0  0
   51.8790    3.3603   19.5174 H   0  0  0  0  0  0  0  0  0  0  0  0
   52.0707    5.6345   20.4109 H   0  0  0  0  0  0  0  0  0  0  0  0
   49.6017    2.0583   17.6993 H   0  0  0  0  0  0  0  0  0  0  0  0
   50.4871    2.4561   16.2184 H   0  0  0  0  0  0  0  0  0  0  0  0
   49.2654   10.0615   16.6300 H   0  0  0  0  0  0  0  0  0  0  0  0
   47.8313    6.9425   19.2424 H   0  0  0  0  0  0  0  0  0  0  0  0
   48.0308   11.7496   17.9625 H   0  0  0  0  0  0  0  0  0  0  0  0
   46.5928    8.6220   20.5668 H   0  0  0  0  0  0  0  0  0  0  0  0
   51.8349    6.1331   19.4146 H   0  0  0  0  0  0  0  0  0  0  0  0
   50.4858    7.0958   19.5747 H   0  0  0  0  0  0  0  0  0  0  0  0
   46.9561    4.4645   17.6872 H   0  0  0  0  0  0  0  0  0  0  0  0
   50.5129    2.0922   17.4295 H   0  0  0  0  0  0  0  0  0  0  0  0
   48.1017    2.3748   16.9976 H   0  0  0  0  0  0  0  0  0  0  0  0
   52.5172    2.7549   18.3099 H   0  0  0  0  0  0  0  0  0  0  0  0
   52.4119    3.7660   19.7356 H   0  0  0  0  0  0  0  0  0  0  0  0
   49.8582    7.1605   16.8220 H   0  0  0  0  0  0  0  0  0  0  0  0
   46.7903    8.9289   19.3124 H   0  0  0  0  0  0  0  0  0  0  0  0
   50.2805    9.3371   15.8080 H   0  0  0  0  0  0  0  0  0  0  0  0
   47.2017   11.1164   18.2523 H   0  0  0  0  0  0  0  0  0  0  0  0
   49.9624    5.5272   17.9262 H   0  0  0  0  0  0  0  0  0  0  0  0
   49.1371    6.8082   17.8178 H   0  0  0  0  0  0  0  0  0  0  0  0
   49.9487    5.5389   17.8547 H   0  0  0  0  0  0  0  0  0  0  0  0
   49.1307    6.8279   17.8886 H   0  0  0  0  0  0  0  0  0  0  0  0
  2 18  1  0
  3  9  2  0
  4 21  1  0
  5 21  2  0
  6  8  1  0
  7  8  2  0
  7  9  1  0
  7 12  1  0
  8 10  1  0
  9 11  1  0
 10 13  2  0
 10 15  1  0
 11 16  2  0
 11 17  1  0
 12 14  2  0
 13 14  1  0
 15 21  1  0
 16 19  1  0
 17 20  2  0
 18 19  2  0
 18 20  1  0
 22 38  1  0
 23 29  2  0
 24 41  1  0
 25 41  2  0
 26 28  1  0
 27 28  2  0
 27 29  1  0
 27 32  1  0
 28 30  1  0
 29 31  1  0
 30 33  2  0
 30 35  1  0
 31 36  2  0
 31 37  1  0
 32 34  2  0
 33 34  1  0
 35 41  1  0
 36 39  1  0
 37 40  2  0
 38 39  2  0
 38 40  1  0
  1 46  1  0
  1 47  1  0
  6 48  1  0
  6 49  1  0
 12 50  1  0
 13 51  1  0
 14 52  1  0
 15 53  1  0
 15 54  1  0
 16 55  1  0
 17 56  1  0
 19 57  1  0
 20 58  1  0
 26 59  1  0
 26 60  1  0
 32 61  1  0
 33 62  1  0
 34 63  1  0
 35 64  1  0
 35 65  1  0
 36 66  1  0
 37 67  1  0
 39 68  1  0
 40 69  1  0
 44 70  1  0
 44 71  1  0
 45 72  1  0
 45 73  1  0
M  CHG  4   4  -1  24  -1  42   1  43   1
M  END
> <Uni-Dock RESULT> 
ENERGY=   -5.539  LOWER_BOUND=    9.547  UPPER_BOUND=   12.533
INTER + INTRA:          -5.539
INTER:                  -5.539
INTRA:                   0.000
UNBOUND:                 0.000

$$$$

     RDKit          3D

 73 70  0  0  0  0  0  0  0  0999 V2000
   48.3934    5.2457   17.4253 O   0  0  0  0  0  0  0  0  0  0  0  0
   44.7094    3.7838   12.1239 Br  0  0  0  0  0  0  0  0  0  0  0  0
   49.6496    7.1139   15.4618 O   0  0  0  0  0  0  0  0  0  0  0  0
   50.8878    6.7042   22.0843 O   0  0  0  0  0  0  0  0  0  0  0  0
   51.3682    4.5249   22.5512 O   0  0  0  0  0  0  0  0  0  0  0  0
   51.1863    5.6409   17.3824 N   0  0  0  0  0  0  0  0  0  0  0  0
   48.7811    6.0789   17.4026 C   0  0  0  0  0  0  0  0  0  0  0  0
   49.9838    5.8260   18.1048 C   0  0  0  0  0  0  0  0  0  0  0  0
   48.8121    6.3515   15.9404 C   0  0  0  0  0  0  0  0  0  0  0  0
   49.9145    5.5309   19.4871 C   0  0  0  0  0  0  0  0  0  0  0  0
   47.8254    5.7099   15.0354 C   0  0  0  0  0  0  0  0  0  0  0  0
   47.5435    6.1053   18.0619 C   0  0  0  0  0  0  0  0  0  0  0  0
   48.6538    5.5291   20.1187 C   0  0  0  0  0  0  0  0  0  0  0  0
   47.4837    5.8271   19.4206 C   0  0  0  0  0  0  0  0  0  0  0  0
   51.1536    5.1702   20.2903 C   0  0  0  0  0  0  0  0  0  0  0  0
   47.3228    6.4501   13.9574 C   0  0  0  0  0  0  0  0  0  0  0  0
   47.4121    4.3864   15.2297 C   0  0  0  0  0  0  0  0  0  0  0  0
   45.9713    4.5637   13.2966 C   0  0  0  0  0  0  0  0  0  0  0  0
   46.3864    5.8802   13.0924 C   0  0  0  0  0  0  0  0  0  0  0  0
   46.4830    3.8130   14.3572 C   0  0  0  0  0  0  0  0  0  0  0  0
   51.1196    5.4987   21.7831 C   0  0  0  0  0  0  0  0  0  0  0  0
   46.9277    8.3570   12.1026 Br  0  0  0  0  0  0  0  0  0  0  0  0
   47.9618    2.8365   16.0309 O   0  0  0  0  0  0  0  0  0  0  0  0
   49.6002    8.4445   20.4581 O   0  0  0  0  0  0  0  0  0  0  0  0
   47.4464    7.8308   19.9934 O   0  0  0  0  0  0  0  0  0  0  0  0
   47.2087    5.5252   18.5509 N   0  0  0  0  0  0  0  0  0  0  0  0
   49.0581    4.2757   17.5084 C   0  0  0  0  0  0  0  0  0  0  0  0
   48.5572    5.1101   18.5278 C   0  0  0  0  0  0  0  0  0  0  0  0
   48.2999    3.9966   16.2711 C   0  0  0  0  0  0  0  0  0  0  0  0
   49.3774    5.3333   19.6599 C   0  0  0  0  0  0  0  0  0  0  0  0
   47.9962    5.0840   15.2894 C   0  0  0  0  0  0  0  0  0  0  0  0
   50.3264    3.6858   17.5981 C   0  0  0  0  0  0  0  0  0  0  0  0
   50.6575    4.7507   19.7271 C   0  0  0  0  0  0  0  0  0  0  0  0
   51.1277    3.9293   18.7050 C   0  0  0  0  0  0  0  0  0  0  0  0
   48.9286    6.1938   20.8276 C   0  0  0  0  0  0  0  0  0  0  0  0
   48.4368    6.4031   15.4567 C   0  0  0  0  0  0  0  0  0  0  0  0
   47.2491    4.7529   14.1467 C   0  0  0  0  0  0  0  0  0  0  0  0
   47.3649    7.0353   13.3813 C   0  0  0  0  0  0  0  0  0  0  0  0
   48.1109    7.3797   14.5076 C   0  0  0  0  0  0  0  0  0  0  0  0
   46.9372    5.7237   13.1917 C   0  0  0  0  0  0  0  0  0  0  0  0
   48.6366    7.6322   20.3848 C   0  0  0  0  0  0  0  0  0  0  0  0
   48.6991    5.4324   17.2528 Na  0  0  0  0  0 15  0  0  0  0  0  0
   48.6991    5.4324   17.2528 Na  0  0  0  0  0 15  0  0  0  0  0  0
   48.3677    5.2390   17.3596 O   0  0  0  0  0  0  0  0  0  0  0  0
   48.3800    5.2418   17.3948 O   0  0  0  0  0  0  0  0  0  0  0  0
   49.1763    5.6267   17.8508 H   0  0  0  0  0  0  0  0  0  0  0  0
   48.5277    5.4249   16.4823 H   0  0  0  0  0  0  0  0  0  0  0  0
   51.2203    6.2566   16.5670 H   0  0  0  0  0  0  0  0  0  0  0  0
   52.0182    5.7264   17.9510 H   0  0  0  0  0  0  0  0  0  0  0  0
   46.6263    6.3394   17.5289 H   0  0  0  0  0  0  0  0  0  0  0  0
   48.5812    5.3114   21.1851 H   0  0  0  0  0  0  0  0  0  0  0  0
   46.5315    5.8338   19.9469 H   0  0  0  0  0  0  0  0  0  0  0  0
   51.3470    4.0998   20.1515 H   0  0  0  0  0  0  0  0  0  0  0  0
   52.0245    5.7184   19.9141 H   0  0  0  0  0  0  0  0  0  0  0  0
   47.6620    7.4713   13.7985 H   0  0  0  0  0  0  0  0  0  0  0  0
   47.8225    3.7928   16.0461 H   0  0  0  0  0  0  0  0  0  0  0  0
   45.9938    6.4648   12.2644 H   0  0  0  0  0  0  0  0  0  0  0  0
   46.1666    2.7845   14.5131 H   0  0  0  0  0  0  0  0  0  0  0  0
   47.0781    6.3881   19.1158 H   0  0  0  0  0  0  0  0  0  0  0  0
   46.7637    5.6573   17.6531 H   0  0  0  0  0  0  0  0  0  0  0  0
   50.6845    3.0408   16.8006 H   0  0  0  0  0  0  0  0  0  0  0  0
   51.2911    4.9413   20.5907 H   0  0  0  0  0  0  0  0  0  0  0  0
   52.1107    3.4786   18.7827 H   0  0  0  0  0  0  0  0  0  0  0  0
   49.6906    6.2150   21.6144 H   0  0  0  0  0  0  0  0  0  0  0  0
   48.0359    5.7458   21.2859 H   0  0  0  0  0  0  0  0  0  0  0  0
   49.0223    6.7079   16.3226 H   0  0  0  0  0  0  0  0  0  0  0  0
   46.9063    3.7306   13.9989 H   0  0  0  0  0  0  0  0  0  0  0  0
   48.4407    8.4024   14.6689 H   0  0  0  0  0  0  0  0  0  0  0  0
   46.3569    5.4461   12.3156 H   0  0  0  0  0  0  0  0  0  0  0  0
   49.0802    5.5651   17.9314 H   0  0  0  0  0  0  0  0  0  0  0  0
   48.6493    5.4932   16.4675 H   0  0  0  0  0  0  0  0  0  0  0  0
   49.1324    5.5982   17.8911 H   0  0  0  0  0  0  0  0  0  0  0  0
   48.5850    5.4574   16.4726 H   0  0  0  0  0  0  0  0  0  0  0  0
  2 18  1  0
  3  9  2  0
  4 21  1  0
  5 21  2  0
  6  8  1  0
  7  8  2  0
  7  9  1  0
  7 12  1  0
  8 10  1  0
  9 11  1  0
 10 13  2  0
 10 15  1  0
 11 16  2  0
 11 17  1  0
 12 14  2  0
 13 14  1  0
 15 21  1  0
 16 19  1  0
 17 20  2  0
 18 19  2  0
 18 20  1  0
 22 38  1  0
 23 29  2  0
 24 41  1  0
 25 41  2  0
 26 28  1  0
 27 28  2  0
 27 29  1  0
 27 32  1  0
 28 30  1  0
 29 31  1  0
 30 33  2  0
 30 35  1  0
 31 36  2  0
 31 37  1  0
 32 34  2  0
 33 34  1  0
 35 41  1  0
 36 39  1  0
 37 40  2  0
 38 39  2  0
 38 40  1  0
  1 46  1  0
  1 47  1  0
  6 48  1  0
  6 49  1  0
 12 50  1  0
 13 51  1  0
 14 52  1  0
 15 53  1  0
 15 54  1  0
 16 55  1  0
 17 56  1  0
 19 57  1  0
 20 58  1  0
 26 59  1  0
 26 60  1  0
 32 61  1  0
 33 62  1  0
 34 63  1  0
 35 64  1  0
 35 65  1  0
 36 66  1  0
 37 67  1  0
 39 68  1  0
 40 69  1  0
 44 70  1  0
 44 71  1  0
 45 72  1  0
 45 73  1  0
M  CHG  4   4  -1  24  -1  42   1  43   1
M  END
> <Uni-Dock RESULT> 
ENERGY=   -5.434  LOWER_BOUND=    8.250  UPPER_BOUND=   11.875
INTER + INTRA:          -5.434
INTER:                  -5.434
INTRA:                   0.000
UNBOUND:                 0.000

$$$$

     RDKit          3D

 73 70  0  0  0  0  0  0  0  0999 V2000
   55.2649    6.1479    8.8765 O   0  0  0  0  0  0  0  0  0  0  0  0
   57.9241    0.9914   12.0628 Br  0  0  0  0  0  0  0  0  0  0  0  0
   54.0641    6.6036   11.5735 O   0  0  0  0  0  0  0  0  0  0  0  0
   53.6823   10.6573    6.1902 O   0  0  0  0  0  0  0  0  0  0  0  0
   52.9334    9.3973    4.4438 O   0  0  0  0  0  0  0  0  0  0  0  0
   52.5888    6.9983    9.1471 N   0  0  0  0  0  0  0  0  0  0  0  0
   55.0133    6.8445    9.4211 C   0  0  0  0  0  0  0  0  0  0  0  0
   53.8918    7.3375    8.7121 C   0  0  0  0  0  0  0  0  0  0  0  0
   54.8284    6.1503   10.7238 C   0  0  0  0  0  0  0  0  0  0  0  0
   54.0999    7.9573    7.4571 C   0  0  0  0  0  0  0  0  0  0  0  0
   55.5709    4.8993   11.0206 C   0  0  0  0  0  0  0  0  0  0  0  0
   56.3173    7.0173    8.9343 C   0  0  0  0  0  0  0  0  0  0  0  0
   55.4183    8.0867    6.9738 C   0  0  0  0  0  0  0  0  0  0  0  0
   56.5155    7.6371    7.7081 C   0  0  0  0  0  0  0  0  0  0  0  0
   52.9394    8.4390    6.6014 C   0  0  0  0  0  0  0  0  0  0  0  0
   56.0332    4.6868   12.3258 C   0  0  0  0  0  0  0  0  0  0  0  0
   55.7938    3.9329   10.0324 C   0  0  0  0  0  0  0  0  0  0  0  0
   56.9703    2.5700   11.6456 C   0  0  0  0  0  0  0  0  0  0  0  0
   56.7431    3.5253   12.6370 C   0  0  0  0  0  0  0  0  0  0  0  0
   56.4949    2.7657   10.3471 C   0  0  0  0  0  0  0  0  0  0  0  0
   53.2258    9.6064    5.6566 C   0  0  0  0  0  0  0  0  0  0  0  0
   56.4687    4.8975   14.9714 Br  0  0  0  0  0  0  0  0  0  0  0  0
   55.1209    3.3709    8.4269 O   0  0  0  0  0  0  0  0  0  0  0  0
   54.9957   10.6990    8.5575 O   0  0  0  0  0  0  0  0  0  0  0  0
   56.9438    9.5007    8.5374 O   0  0  0  0  0  0  0  0  0  0  0  0
   56.6198    6.8124    8.1898 N   0  0  0  0  0  0  0  0  0  0  0  0
   54.4737    5.6031    8.1934 C   0  0  0  0  0  0  0  0  0  0  0  0
   55.2323    6.7630    7.9377 C   0  0  0  0  0  0  0  0  0  0  0  0
   55.0046    4.4676    8.9760 C   0  0  0  0  0  0  0  0  0  0  0  0
   54.6176    7.8037    7.2006 C   0  0  0  0  0  0  0  0  0  0  0  0
   55.3398    4.6187   10.4262 C   0  0  0  0  0  0  0  0  0  0  0  0
   53.1523    5.4749    7.7435 C   0  0  0  0  0  0  0  0  0  0  0  0
   53.2829    7.6696    6.7728 C   0  0  0  0  0  0  0  0  0  0  0  0
   52.5560    6.5114    7.0390 C   0  0  0  0  0  0  0  0  0  0  0  0
   55.3494    9.0862    6.8467 C   0  0  0  0  0  0  0  0  0  0  0  0
   55.1384    5.8117   11.1321 C   0  0  0  0  0  0  0  0  0  0  0  0
   55.8645    3.5048   11.1027 C   0  0  0  0  0  0  0  0  0  0  0  0
   56.0062    4.7810   13.1423 C   0  0  0  0  0  0  0  0  0  0  0  0
   55.4824    5.8945   12.4869 C   0  0  0  0  0  0  0  0  0  0  0  0
   56.1932    3.5825   12.4583 C   0  0  0  0  0  0  0  0  0  0  0  0
   55.8010    9.8395    8.1032 C   0  0  0  0  0  0  0  0  0  0  0  0
   54.9719    6.2455    9.1268 Na  0  0  0  0  0 15  0  0  0  0  0  0
   54.9719    6.2455    9.1268 Na  0  0  0  0  0 15  0  0  0  0  0  0
   55.2801    6.0968    8.9231 O   0  0  0  0  0  0  0  0  0  0  0  0
   55.2733    6.1232    8.8977 O   0  0  0  0  0  0  0  0  0  0  0  0
   54.6163    6.8621    8.7857 H   0  0  0  0  0  0  0  0  0  0  0  0
   55.0344    5.7264    9.7182 H   0  0  0  0  0  0  0  0  0  0  0  0
   52.5420    6.9655   10.1678 H   0  0  0  0  0  0  0  0  0  0  0  0
   51.8650    7.5878    8.7580 H   0  0  0  0  0  0  0  0  0  0  0  0
   57.1794    6.6740    9.4991 H   0  0  0  0  0  0  0  0  0  0  0  0
   55.5991    8.5684    6.0120 H   0  0  0  0  0  0  0  0  0  0  0  0
   57.5192    7.7715    7.3102 H   0  0  0  0  0  0  0  0  0  0  0  0
   52.5635    7.5829    6.0284 H   0  0  0  0  0  0  0  0  0  0  0  0
   52.1226    8.8006    7.2359 H   0  0  0  0  0  0  0  0  0  0  0  0
   55.8402    5.4311   13.0952 H   0  0  0  0  0  0  0  0  0  0  0  0
   55.4093    4.0750    9.0228 H   0  0  0  0  0  0  0  0  0  0  0  0
   57.1072    3.3728   13.6498 H   0  0  0  0  0  0  0  0  0  0  0  0
   56.6642    2.0187    9.5754 H   0  0  0  0  0  0  0  0  0  0  0  0
   56.9592    7.7886    8.3016 H   0  0  0  0  0  0  0  0  0  0  0  0
   56.9547    6.2634    8.9696 H   0  0  0  0  0  0  0  0  0  0  0  0
   52.5932    4.5662    7.9487 H   0  0  0  0  0  0  0  0  0  0  0  0
   52.8096    8.4805    6.2234 H   0  0  0  0  0  0  0  0  0  0  0  0
   51.5341    6.4220    6.6881 H   0  0  0  0  0  0  0  0  0  0  0  0
   54.7134    9.7480    6.2485 H   0  0  0  0  0  0  0  0  0  0  0  0
   56.2143    8.8468    6.2125 H   0  0  0  0  0  0  0  0  0  0  0  0
   54.7303    6.7005   10.6537 H   0  0  0  0  0  0  0  0  0  0  0  0
   56.0195    2.5687   10.5696 H   0  0  0  0  0  0  0  0  0  0  0  0
   55.3419    6.8366   13.0099 H   0  0  0  0  0  0  0  0  0  0  0  0
   56.5990    2.7090   12.9619 H   0  0  0  0  0  0  0  0  0  0  0  0
   54.7115    6.8456    8.6848 H   0  0  0  0  0  0  0  0  0  0  0  0
   54.9241    5.7941    9.7725 H   0  0  0  0  0  0  0  0  0  0  0  0
   54.6602    6.8564    8.7368 H   0  0  0  0  0  0  0  0  0  0  0  0
   54.9821    5.7568    9.7462 H   0  0  0  0  0  0  0  0  0  0  0  0
  2 18  1  0
  3  9  2  0
  4 21  1  0
  5 21  2  0
  6  8  1  0
  7  8  2  0
  7  9  1  0
  7 12  1  0
  8 10  1  0
  9 11  1  0
 10 13  2  0
 10 15  1  0
 11 16  2  0
 11 17  1  0
 12 14  2  0
 13 14  1  0
 15 21  1  0
 16 19  1  0
 17 20  2  0
 18 19  2  0
 18 20  1  0
 22 38  1  0
 23 29  2  0
 24 41  1  0
 25 41  2  0
 26 28  1  0
 27 28  2  0
 27 29  1  0
 27 32  1  0
 28 30  1  0
 29 31  1  0
 30 33  2  0
 30 35  1  0
 31 36  2  0
 31 37  1  0
 32 34  2  0
 33 34  1  0
 35 41  1  0
 36 39  1  0
 37 40  2  0
 38 39  2  0
 38 40  1  0
  1 46  1  0
  1 47  1  0
  6 48  1  0
  6 49  1  0
 12 50  1  0
 13 51  1  0
 14 52  1  0
 15 53  1  0
 15 54  1  0
 16 55  1  0
 17 56  1  0
 19 57  1  0
 20 58  1  0
 26 59  1  0
 26 60  1  0
 32 61  1  0
 33 62  1  0
 34 63  1  0
 35 64  1  0
 35 65  1  0
 36 66  1  0
 37 67  1  0
 39 68  1  0
 40 69  1  0
 44 70  1  0
 44 71  1  0
 45 72  1  0
 45 73  1  0
M  CHG  4   4  -1  24  -1  42   1  43   1
M  END
> <Uni-Dock RESULT> 
ENERGY=   -5.284  LOWER_BOUND=   10.721  UPPER_BOUND=   12.414
INTER + INTRA:          -5.284
INTER:                  -5.284
INTRA:                   0.000
UNBOUND:                 0.000

$$$$

     RDKit          3D

 73 70  0  0  0  0  0  0  0  0999 V2000
   49.9935    8.8519   15.2817 O   0  0  0  0  0  0  0  0  0  0  0  0
   47.2729    8.8709   21.3159 Br  0  0  0  0  0  0  0  0  0  0  0  0
   48.4640   11.4105   15.0895 O   0  0  0  0  0  0  0  0  0  0  0  0
   52.8324    8.9110   10.5920 O   0  0  0  0  0  0  0  0  0  0  0  0
   52.1832    6.7746   10.1305 O   0  0  0  0  0  0  0  0  0  0  0  0
   48.6437    9.5593   12.9077 N   0  0  0  0  0  0  0  0  0  0  0  0
   50.0655    9.6818   14.8929 C   0  0  0  0  0  0  0  0  0  0  0  0
   49.8973    9.3457   13.5282 C   0  0  0  0  0  0  0  0  0  0  0  0
   49.0062   10.4389   15.6126 C   0  0  0  0  0  0  0  0  0  0  0  0
   50.9065    8.5904   12.8850 C   0  0  0  0  0  0  0  0  0  0  0  0
   48.5909   10.0349   16.9796 C   0  0  0  0  0  0  0  0  0  0  0  0
   51.2327    9.3376   15.5902 C   0  0  0  0  0  0  0  0  0  0  0  0
   52.0543    8.2267   13.6189 C   0  0  0  0  0  0  0  0  0  0  0  0
   52.2244    8.6072   14.9498 C   0  0  0  0  0  0  0  0  0  0  0  0
   50.7604    8.1235   11.4457 C   0  0  0  0  0  0  0  0  0  0  0  0
   48.2722   11.0350   17.9073 C   0  0  0  0  0  0  0  0  0  0  0  0
   48.4944    8.6861   17.3425 C   0  0  0  0  0  0  0  0  0  0  0  0
   47.8017    9.3443   19.5631 C   0  0  0  0  0  0  0  0  0  0  0  0
   47.8870   10.6901   19.2044 C   0  0  0  0  0  0  0  0  0  0  0  0
   48.0983    8.3414   18.6377 C   0  0  0  0  0  0  0  0  0  0  0  0
   52.0554    7.9163   10.6600 C   0  0  0  0  0  0  0  0  0  0  0  0
   47.7010   13.4011   19.0511 Br  0  0  0  0  0  0  0  0  0  0  0  0
   48.2896    7.0308   16.5914 O   0  0  0  0  0  0  0  0  0  0  0  0
   52.8457   10.9399   12.3848 O   0  0  0  0  0  0  0  0  0  0  0  0
   53.3909   10.2761   14.5046 O   0  0  0  0  0  0  0  0  0  0  0  0
   51.5849    8.5907   15.6666 N   0  0  0  0  0  0  0  0  0  0  0  0
   49.3727    7.9959   14.7606 C   0  0  0  0  0  0  0  0  0  0  0  0
   50.7192    8.3679   14.5747 C   0  0  0  0  0  0  0  0  0  0  0  0
   48.7065    8.0701   16.0776 C   0  0  0  0  0  0  0  0  0  0  0  0
   51.2516    8.2847   13.2655 C   0  0  0  0  0  0  0  0  0  0  0  0
   48.4807    9.3842   16.7560 C   0  0  0  0  0  0  0  0  0  0  0  0
   48.5755    7.5623   13.6923 C   0  0  0  0  0  0  0  0  0  0  0  0
   50.4334    7.8671   12.1984 C   0  0  0  0  0  0  0  0  0  0  0  0
   49.1052    7.5045   12.4107 C   0  0  0  0  0  0  0  0  0  0  0  0
   52.6957    8.6365   12.9552 C   0  0  0  0  0  0  0  0  0  0  0  0
   48.8430   10.6086   16.1801 C   0  0  0  0  0  0  0  0  0  0  0  0
   47.8642    9.3789   18.0184 C   0  0  0  0  0  0  0  0  0  0  0  0
   48.0065   11.7825   18.1238 C   0  0  0  0  0  0  0  0  0  0  0  0
   48.6155   11.8057   16.8699 C   0  0  0  0  0  0  0  0  0  0  0  0
   47.6228   10.5742   18.7000 C   0  0  0  0  0  0  0  0  0  0  0  0
   53.0063   10.0954   13.3094 C   0  0  0  0  0  0  0  0  0  0  0  0
   49.7653    9.1204   15.0976 Na  0  0  0  0  0 15  0  0  0  0  0  0
   49.7653    9.1204   15.0976 Na  0  0  0  0  0 15  0  0  0  0  0  0
   49.9534    8.8650   15.3386 O   0  0  0  0  0  0  0  0  0  0  0  0
   49.9754    8.8570   15.3094 O   0  0  0  0  0  0  0  0  0  0  0  0
   50.0504    9.1528   14.3623 H   0  0  0  0  0  0  0  0  0  0  0  0
   49.2521    9.3565   15.6488 H   0  0  0  0  0  0  0  0  0  0  0  0
   48.2065   10.4160   13.2543 H   0  0  0  0  0  0  0  0  0  0  0  0
   48.6831    9.5415   11.8973 H   0  0  0  0  0  0  0  0  0  0  0  0
   51.3773    9.6314   16.6260 H   0  0  0  0  0  0  0  0  0  0  0  0
   52.8464    7.6511   13.1379 H   0  0  0  0  0  0  0  0  0  0  0  0
   53.1325    8.3232   15.4775 H   0  0  0  0  0  0  0  0  0  0  0  0
   50.1770    7.1950   11.4489 H   0  0  0  0  0  0  0  0  0  0  0  0
   50.2056    8.8644   10.8593 H   0  0  0  0  0  0  0  0  0  0  0  0
   48.3291   12.0811   17.6148 H   0  0  0  0  0  0  0  0  0  0  0  0
   48.7086    7.9013   16.6176 H   0  0  0  0  0  0  0  0  0  0  0  0
   47.6513   11.4726   19.9212 H   0  0  0  0  0  0  0  0  0  0  0  0
   48.0247    7.2922   18.9132 H   0  0  0  0  0  0  0  0  0  0  0  0
   52.3946    9.1874   15.4042 H   0  0  0  0  0  0  0  0  0  0  0  0
   51.1638    8.9688   16.5040 H   0  0  0  0  0  0  0  0  0  0  0  0
   47.5423    7.2746   13.8658 H   0  0  0  0  0  0  0  0  0  0  0  0
   50.8426    7.8234   11.1914 H   0  0  0  0  0  0  0  0  0  0  0  0
   48.4960    7.1716   11.5779 H   0  0  0  0  0  0  0  0  0  0  0  0
   52.9189    8.4761   11.8946 H   0  0  0  0  0  0  0  0  0  0  0  0
   53.3608    7.9586   13.5080 H   0  0  0  0  0  0  0  0  0  0  0  0
   49.3190   10.6652   15.2025 H   0  0  0  0  0  0  0  0  0  0  0  0
   47.5700    8.4360   18.4755 H   0  0  0  0  0  0  0  0  0  0  0  0
   48.9270   12.7428   16.4166 H   0  0  0  0  0  0  0  0  0  0  0  0
   47.1457   10.5471   19.6762 H   0  0  0  0  0  0  0  0  0  0  0  0
   50.1416    9.0566   14.4065 H   0  0  0  0  0  0  0  0  0  0  0  0
   49.2010    9.4394   15.5478 H   0  0  0  0  0  0  0  0  0  0  0  0
   50.0946    9.1073   14.3807 H   0  0  0  0  0  0  0  0  0  0  0  0
   49.2259    9.3968   15.6026 H   0  0  0  0  0  0  0  0  0  0  0  0
  2 18  1  0
  3  9  2  0
  4 21  1  0
  5 21  2  0
  6  8  1  0
  7  8  2  0
  7  9  1  0
  7 12  1  0
  8 10  1  0
  9 11  1  0
 10 13  2  0
 10 15  1  0
 11 16  2  0
 11 17  1  0
 12 14  2  0
 13 14  1  0
 15 21  1  0
 16 19  1  0
 17 20  2  0
 18 19  2  0
 18 20  1  0
 22 38  1  0
 23 29  2  0
 24 41  1  0
 25 41  2  0
 26 28  1  0
 27 28  2  0
 27 29  1  0
 27 32  1  0
 28 30  1  0
 29 31  1  0
 30 33  2  0
 30 35  1  0
 31 36  2  0
 31 37  1  0
 32 34  2  0
 33 34  1  0
 35 41  1  0
 36 39  1  0
 37 40  2  0
 38 39  2  0
 38 40  1  0
  1 46  1  0
  1 47  1  0
  6 48  1  0
  6 49  1  0
 12 50  1  0
 13 51  1  0
 14 52  1  0
 15 53  1  0
 15 54  1  0
 16 55  1  0
 17 56  1  0
 19 57  1  0
 20 58  1  0
 26 59  1  0
 26 60  1  0
 32 61  1  0
 33 62  1  0
 34 63  1  0
 35 64  1  0
 35 65  1  0
 36 66  1  0
 37 67  1  0
 39 68  1  0
 40 69  1  0
 44 70  1  0
 44 71  1  0
 45 72  1  0
 45 73  1  0
M  CHG  4   4  -1  24  -1  42   1  43   1
M  END
> <Uni-Dock RESULT> 
ENERGY=   -5.272  LOWER_BOUND=    7.742  UPPER_BOUND=    9.253
INTER + INTRA:          -5.272
INTER:                  -5.272
INTRA:                   0.000
UNBOUND:                 0.000

$$$$
