
     RDKit          3D

 73 70  0  0  0  0  0  0  0  0999 V2000
   50.0188    6.0578   19.9975 O   0  0  0  0  0  0  0  0  0  0  0  0
   53.2380    1.5928   17.9439 Br  0  0  0  0  0  0  0  0  0  0  0  0
   51.6357    8.2437   18.1134 O   0  0  0  0  0  0  0  0  0  0  0  0
   48.8623    5.6538   23.4025 O   0  0  0  0  0  0  0  0  0  0  0  0
   46.6891    5.2778   22.7804 O   0  0  0  0  0  0  0  0  0  0  0  0
   50.2766    6.6093   21.3021 N   0  0  0  0  0  0  0  0  0  0  0  0
   49.6593    7.6390   19.1800 C   0  0  0  0  0  0  0  0  0  0  0  0
   49.3327    7.2785   20.5046 C   0  0  0  0  0  0  0  0  0  0  0  0
   50.9664    7.3115   18.5682 C   0  0  0  0  0  0  0  0  0  0  0  0
   48.0674    7.6514   21.0120 C   0  0  0  0  0  0  0  0  0  0  0  0
   51.4695    5.9111   18.4413 C   0  0  0  0  0  0  0  0  0  0  0  0
   48.7705    8.3738   18.3849 C   0  0  0  0  0  0  0  0  0  0  0  0
   47.1797    8.3684   20.1855 C   0  0  0  0  0  0  0  0  0  0  0  0
   47.5242    8.7263   18.8831 C   0  0  0  0  0  0  0  0  0  0  0  0
   47.6431    7.4253   22.4518 C   0  0  0  0  0  0  0  0  0  0  0  0
   50.6957    4.7887   18.7565 C   0  0  0  0  0  0  0  0  0  0  0  0
   52.7730    5.7233   17.9510 C   0  0  0  0  0  0  0  0  0  0  0  0
   52.5192    3.3302   18.1156 C   0  0  0  0  0  0  0  0  0  0  0  0
   51.2213    3.4983   18.5970 C   0  0  0  0  0  0  0  0  0  0  0  0
   53.2963    4.4360   17.7824 C   0  0  0  0  0  0  0  0  0  0  0  0
   47.7327    5.9790   22.9190 C   0  0  0  0  0  0  0  0  0  0  0  0
   48.4410   11.1596   23.1147 Br  0  0  0  0  0  0  0  0  0  0  0  0
   48.0953    4.4463   21.7572 O   0  0  0  0  0  0  0  0  0  0  0  0
   52.5523    7.1175   16.4109 O   0  0  0  0  0  0  0  0  0  0  0  0
   53.0748    6.8705   18.6252 O   0  0  0  0  0  0  0  0  0  0  0  0
   51.3911    5.5027   20.2407 N   0  0  0  0  0  0  0  0  0  0  0  0
   49.0431    4.9775   19.6850 C   0  0  0  0  0  0  0  0  0  0  0  0
   50.3832    5.1940   19.2991 C   0  0  0  0  0  0  0  0  0  0  0  0
   48.5449    5.3362   21.0312 C   0  0  0  0  0  0  0  0  0  0  0  0
   50.7491    4.8633   17.9728 C   0  0  0  0  0  0  0  0  0  0  0  0
   48.5356    6.7604   21.4891 C   0  0  0  0  0  0  0  0  0  0  0  0
   48.0969    4.4451   18.7961 C   0  0  0  0  0  0  0  0  0  0  0  0
   49.7810    4.3526   17.0849 C   0  0  0  0  0  0  0  0  0  0  0  0
   48.4678    4.1338   17.4941 C   0  0  0  0  0  0  0  0  0  0  0  0
   52.1709    5.0217   17.4657 C   0  0  0  0  0  0  0  0  0  0  0  0
   48.9431    7.8275   20.6763 C   0  0  0  0  0  0  0  0  0  0  0  0
   48.0860    7.0285   22.7911 C   0  0  0  0  0  0  0  0  0  0  0  0
   48.4740    9.3872   22.4600 C   0  0  0  0  0  0  0  0  0  0  0  0
   48.9189    9.1389   21.1642 C   0  0  0  0  0  0  0  0  0  0  0  0
   48.0505    8.3409   23.2760 C   0  0  0  0  0  0  0  0  0  0  0  0
   52.6365    6.4817   17.4995 C   0  0  0  0  0  0  0  0  0  0  0  0
   49.7740    6.2992   19.7982 Na  0  0  0  0  0 15  0  0  0  0  0  0
   49.7740    6.2992   19.7982 Na  0  0  0  0  0 15  0  0  0  0  0  0
   50.0243    6.0540   19.9851 O   0  0  0  0  0  0  0  0  0  0  0  0
   50.0268    6.0522   19.9794 O   0  0  0  0  0  0  0  0  0  0  0  0
   49.9675    6.1969   19.0399 H   0  0  0  0  0  0  0  0  0  0  0  0
   49.3355    6.6430   20.3572 H   0  0  0  0  0  0  0  0  0  0  0  0
   51.1390    7.1260   21.4391 H   0  0  0  0  0  0  0  0  0  0  0  0
   49.9114    6.2843   22.2210 H   0  0  0  0  0  0  0  0  0  0  0  0
   49.0566    8.6727   17.3825 H   0  0  0  0  0  0  0  0  0  0  0  0
   46.2058    8.6645   20.5704 H   0  0  0  0  0  0  0  0  0  0  0  0
   46.8283    9.2950   18.2766 H   0  0  0  0  0  0  0  0  0  0  0  0
   48.2705    8.0610   23.0956 H   0  0  0  0  0  0  0  0  0  0  0  0
   46.6070    7.7632   22.6107 H   0  0  0  0  0  0  0  0  0  0  0  0
   49.6844    4.8859   19.1536 H   0  0  0  0  0  0  0  0  0  0  0  0
   53.3847    6.5844   17.6960 H   0  0  0  0  0  0  0  0  0  0  0  0
   50.6145    2.6439   18.8801 H   0  0  0  0  0  0  0  0  0  0  0  0
   54.3113    4.3134   17.4174 H   0  0  0  0  0  0  0  0  0  0  0  0
   51.1028    6.0169   21.0616 H   0  0  0  0  0  0  0  0  0  0  0  0
   52.1877    6.0051   19.7994 H   0  0  0  0  0  0  0  0  0  0  0  0
   47.0755    4.2757   19.1246 H   0  0  0  0  0  0  0  0  0  0  0  0
   50.0646    4.1086   16.0632 H   0  0  0  0  0  0  0  0  0  0  0  0
   47.7468    3.7170   16.7986 H   0  0  0  0  0  0  0  0  0  0  0  0
   52.8363    4.4039   18.0802 H   0  0  0  0  0  0  0  0  0  0  0  0
   52.2678    4.6394   16.4414 H   0  0  0  0  0  0  0  0  0  0  0  0
   49.3019    7.6742   19.6616 H   0  0  0  0  0  0  0  0  0  0  0  0
   47.7648    6.2108   23.4355 H   0  0  0  0  0  0  0  0  0  0  0  0
   49.2662    9.9454   20.5239 H   0  0  0  0  0  0  0  0  0  0  0  0
   47.7040    8.5271   24.2876 H   0  0  0  0  0  0  0  0  0  0  0  0
   49.3497    6.6283   20.3764 H   0  0  0  0  0  0  0  0  0  0  0  0
   49.9478    6.2154   19.0330 H   0  0  0  0  0  0  0  0  0  0  0  0
   49.9387    6.2240   19.0296 H   0  0  0  0  0  0  0  0  0  0  0  0
   49.3563    6.6214   20.3857 H   0  0  0  0  0  0  0  0  0  0  0  0
  2 18  1  0
  3  9  2  0
  4 21  1  0
  5 21  2  0
  6  8  1  0
  7  8  2  0
  7  9  1  0
  7 12  1  0
  8 10  1  0
  9 11  1  0
 10 13  2  0
 10 15  1  0
 11 16  2  0
 11 17  1  0
 12 14  2  0
 13 14  1  0
 15 21  1  0
 16 19  1  0
 17 20  2  0
 18 19  2  0
 18 20  1  0
 22 38  1  0
 23 29  2  0
 24 41  1  0
 25 41  2  0
 26 28  1  0
 27 28  2  0
 27 29  1  0
 27 32  1  0
 28 30  1  0
 29 31  1  0
 30 33  2  0
 30 35  1  0
 31 36  2  0
 31 37  1  0
 32 34  2  0
 33 34  1  0
 35 41  1  0
 36 39  1  0
 37 40  2  0
 38 39  2  0
 38 40  1  0
  1 46  1  0
  1 47  1  0
  6 48  1  0
  6 49  1  0
 12 50  1  0
 13 51  1  0
 14 52  1  0
 15 53  1  0
 15 54  1  0
 16 55  1  0
 17 56  1  0
 19 57  1  0
 20 58  1  0
 26 59  1  0
 26 60  1  0
 32 61  1  0
 33 62  1  0
 34 63  1  0
 35 64  1  0
 35 65  1  0
 36 66  1  0
 37 67  1  0
 39 68  1  0
 40 69  1  0
 44 70  1  0
 44 71  1  0
 45 72  1  0
 45 73  1  0
M  CHG  4   4  -1  24  -1  42   1  43   1
M  END
> <Uni-Dock RESULT> 
ENERGY=   -4.712  LOWER_BOUND=    0.000  UPPER_BOUND=    0.000
INTER + INTRA:          -4.712
INTER:                  -4.712
INTRA:                   0.000
UNBOUND:                 0.000

$$$$

     RDKit          3D

 73 70  0  0  0  0  0  0  0  0999 V2000
   48.9440    9.8467   20.8029 O   0  0  0  0  0  0  0  0  0  0  0  0
   51.4091    5.1920   23.4057 Br  0  0  0  0  0  0  0  0  0  0  0  0
   47.1228    7.9220   18.8225 O   0  0  0  0  0  0  0  0  0  0  0  0
   51.0492   12.7854   20.6405 O   0  0  0  0  0  0  0  0  0  0  0  0
   49.8559   13.9146   22.2381 O   0  0  0  0  0  0  0  0  0  0  0  0
   49.6694   10.6069   19.8188 N   0  0  0  0  0  0  0  0  0  0  0  0
   47.3313    9.9330   19.9725 C   0  0  0  0  0  0  0  0  0  0  0  0
   48.3180   10.9411   20.0102 C   0  0  0  0  0  0  0  0  0  0  0  0
   47.6633    8.5056   19.7666 C   0  0  0  0  0  0  0  0  0  0  0  0
   47.9059   12.2808   20.1913 C   0  0  0  0  0  0  0  0  0  0  0  0
   48.5752    7.7500   20.6765 C   0  0  0  0  0  0  0  0  0  0  0  0
   45.9695   10.2421   20.0826 C   0  0  0  0  0  0  0  0  0  0  0  0
   46.5325   12.5652   20.3250 C   0  0  0  0  0  0  0  0  0  0  0  0
   45.5708   11.5575   20.2733 C   0  0  0  0  0  0  0  0  0  0  0  0
   48.8555   13.4637   20.1343 C   0  0  0  0  0  0  0  0  0  0  0  0
   49.0768    8.2807   21.8701 C   0  0  0  0  0  0  0  0  0  0  0  0
   48.9135    6.4329   20.3220 C   0  0  0  0  0  0  0  0  0  0  0  0
   50.2457    6.2084   22.3202 C   0  0  0  0  0  0  0  0  0  0  0  0
   49.9147    7.5115   22.6905 C   0  0  0  0  0  0  0  0  0  0  0  0
   49.7422    5.6603   21.1439 C   0  0  0  0  0  0  0  0  0  0  0  0
   50.0272   13.3828   21.1032 C   0  0  0  0  0  0  0  0  0  0  0  0
   47.6017   14.1031   16.5232 Br  0  0  0  0  0  0  0  0  0  0  0  0
   50.2225   12.0427   22.5163 O   0  0  0  0  0  0  0  0  0  0  0  0
   46.9581    5.9155   19.7990 O   0  0  0  0  0  0  0  0  0  0  0  0
   48.8843    6.8874   19.0358 O   0  0  0  0  0  0  0  0  0  0  0  0
   50.0325    8.8670   20.4776 N   0  0  0  0  0  0  0  0  0  0  0  0
   48.8912   10.1356   22.2625 C   0  0  0  0  0  0  0  0  0  0  0  0
   49.0945    8.9453   21.5320 C   0  0  0  0  0  0  0  0  0  0  0  0
   49.4173   11.4397   21.8027 C   0  0  0  0  0  0  0  0  0  0  0  0
   48.5080    7.7576   22.0299 C   0  0  0  0  0  0  0  0  0  0  0  0
   48.9441   12.0463   20.5196 C   0  0  0  0  0  0  0  0  0  0  0  0
   48.1418   10.1535   23.4486 C   0  0  0  0  0  0  0  0  0  0  0  0
   47.7375    7.7971   23.2094 C   0  0  0  0  0  0  0  0  0  0  0  0
   47.5639    8.9818   23.9208 C   0  0  0  0  0  0  0  0  0  0  0  0
   48.6946    6.4172   21.3429 C   0  0  0  0  0  0  0  0  0  0  0  0
   47.9608   11.4573   19.7125 C   0  0  0  0  0  0  0  0  0  0  0  0
   49.5111   13.2667   20.1220 C   0  0  0  0  0  0  0  0  0  0  0  0
   48.1405   13.2783   18.1359 C   0  0  0  0  0  0  0  0  0  0  0  0
   47.5647   12.0696   18.5180 C   0  0  0  0  0  0  0  0  0  0  0  0
   49.1074   13.8857   18.9335 C   0  0  0  0  0  0  0  0  0  0  0  0
   48.1142    6.4099   19.9242 C   0  0  0  0  0  0  0  0  0  0  0  0
   48.5611    9.9528   20.7957 Na  0  0  0  0  0 15  0  0  0  0  0  0
   48.5611    9.9528   20.7957 Na  0  0  0  0  0 15  0  0  0  0  0  0
   48.9399    9.8338   20.8070 O   0  0  0  0  0  0  0  0  0  0  0  0
   48.9379    9.8280   20.8089 O   0  0  0  0  0  0  0  0  0  0  0  0
   48.1706    9.3041   21.0186 H   0  0  0  0  0  0  0  0  0  0  0  0
   48.5685   10.7077   20.5655 H   0  0  0  0  0  0  0  0  0  0  0  0
   49.8616   10.1681   18.9244 H   0  0  0  0  0  0  0  0  0  0  0  0
   50.3340   11.3926   19.9754 H   0  0  0  0  0  0  0  0  0  0  0  0
   45.2257    9.4560   20.0132 H   0  0  0  0  0  0  0  0  0  0  0  0
   46.2063   13.5948   20.4589 H   0  0  0  0  0  0  0  0  0  0  0  0
   44.5195   11.8083   20.3597 H   0  0  0  0  0  0  0  0  0  0  0  0
   49.2337   13.5475   19.1037 H   0  0  0  0  0  0  0  0  0  0  0  0
   48.3196   14.4042   20.3372 H   0  0  0  0  0  0  0  0  0  0  0  0
   48.8530    9.3027   22.1788 H   0  0  0  0  0  0  0  0  0  0  0  0
   48.5274    6.0040   19.4013 H   0  0  0  0  0  0  0  0  0  0  0  0
   50.3190    7.9561   23.5946 H   0  0  0  0  0  0  0  0  0  0  0  0
   50.0042    4.6505   20.8436 H   0  0  0  0  0  0  0  0  0  0  0  0
   50.1961    9.7146   19.9521 H   0  0  0  0  0  0  0  0  0  0  0  0
   49.7968    8.1051   19.8100 H   0  0  0  0  0  0  0  0  0  0  0  0
   48.0134   11.0816   23.9982 H   0  0  0  0  0  0  0  0  0  0  0  0
   47.2805    6.8834   23.5835 H   0  0  0  0  0  0  0  0  0  0  0  0
   46.9862    8.9816   24.8393 H   0  0  0  0  0  0  0  0  0  0  0  0
   49.7653    6.1834   21.3088 H   0  0  0  0  0  0  0  0  0  0  0  0
   48.2297    5.6099   21.9232 H   0  0  0  0  0  0  0  0  0  0  0  0
   47.4917   10.5119   19.9734 H   0  0  0  0  0  0  0  0  0  0  0  0
   50.2759   13.7384   20.7383 H   0  0  0  0  0  0  0  0  0  0  0  0
   46.8207   11.5788   17.8963 H   0  0  0  0  0  0  0  0  0  0  0  0
   49.5614   14.8271   18.6408 H   0  0  0  0  0  0  0  0  0  0  0  0
   48.5965   10.7062   20.5641 H   0  0  0  0  0  0  0  0  0  0  0  0
   48.1468    9.3183   21.0159 H   0  0  0  0  0  0  0  0  0  0  0  0
   48.1355    9.3247   21.0147 H   0  0  0  0  0  0  0  0  0  0  0  0
   48.6098   10.7058   20.5633 H   0  0  0  0  0  0  0  0  0  0  0  0
  2 18  1  0
  3  9  2  0
  4 21  1  0
  5 21  2  0
  6  8  1  0
  7  8  2  0
  7  9  1  0
  7 12  1  0
  8 10  1  0
  9 11  1  0
 10 13  2  0
 10 15  1  0
 11 16  2  0
 11 17  1  0
 12 14  2  0
 13 14  1  0
 15 21  1  0
 16 19  1  0
 17 20  2  0
 18 19  2  0
 18 20  1  0
 22 38  1  0
 23 29  2  0
 24 41  1  0
 25 41  2  0
 26 28  1  0
 27 28  2  0
 27 29  1  0
 27 32  1  0
 28 30  1  0
 29 31  1  0
 30 33  2  0
 30 35  1  0
 31 36  2  0
 31 37  1  0
 32 34  2  0
 33 34  1  0
 35 41  1  0
 36 39  1  0
 37 40  2  0
 38 39  2  0
 38 40  1  0
  1 46  1  0
  1 47  1  0
  6 48  1  0
  6 49  1  0
 12 50  1  0
 13 51  1  0
 14 52  1  0
 15 53  1  0
 15 54  1  0
 16 55  1  0
 17 56  1  0
 19 57  1  0
 20 58  1  0
 26 59  1  0
 26 60  1  0
 32 61  1  0
 33 62  1  0
 34 63  1  0
 35 64  1  0
 35 65  1  0
 36 66  1  0
 37 67  1  0
 39 68  1  0
 40 69  1  0
 44 70  1  0
 44 71  1  0
 45 72  1  0
 45 73  1  0
M  CHG  4   4  -1  24  -1  42   1  43   1
M  END
> <Uni-Dock RESULT> 
ENERGY=   -4.618  LOWER_BOUND=    3.515  UPPER_BOUND=    5.614
INTER + INTRA:          -4.618
INTER:                  -4.618
INTRA:                   0.000
UNBOUND:                 0.000

$$$$

     RDKit          3D

 73 70  0  0  0  0  0  0  0  0999 V2000
   49.3685    8.7660   12.0191 O   0  0  0  0  0  0  0  0  0  0  0  0
   46.9591    3.7798   13.9809 Br  0  0  0  0  0  0  0  0  0  0  0  0
   46.4206   10.2555   11.8348 O   0  0  0  0  0  0  0  0  0  0  0  0
   52.3797    8.3277   10.0606 O   0  0  0  0  0  0  0  0  0  0  0  0
   53.7523    9.1248   11.7134 O   0  0  0  0  0  0  0  0  0  0  0  0
   49.7976    8.8848   10.6500 N   0  0  0  0  0  0  0  0  0  0  0  0
   48.7138   10.4531   12.1699 C   0  0  0  0  0  0  0  0  0  0  0  0
   49.8486   10.0492   11.4351 C   0  0  0  0  0  0  0  0  0  0  0  0
   47.4550    9.6749   12.1767 C   0  0  0  0  0  0  0  0  0  0  0  0
   51.0011   10.8664   11.4717 C   0  0  0  0  0  0  0  0  0  0  0  0
   47.3891    8.2512   12.6230 C   0  0  0  0  0  0  0  0  0  0  0  0
   48.7065   11.6483   12.9004 C   0  0  0  0  0  0  0  0  0  0  0  0
   50.9792   12.0515   12.2334 C   0  0  0  0  0  0  0  0  0  0  0  0
   49.8448   12.4408   12.9437 C   0  0  0  0  0  0  0  0  0  0  0  0
   52.2409   10.6032   10.6363 C   0  0  0  0  0  0  0  0  0  0  0  0
   48.4719    7.5799   13.2016 C   0  0  0  0  0  0  0  0  0  0  0  0
   46.1666    7.5734   12.4785 C   0  0  0  0  0  0  0  0  0  0  0  0
   47.1206    5.5874   13.4602 C   0  0  0  0  0  0  0  0  0  0  0  0
   48.3391    6.2471   13.6172 C   0  0  0  0  0  0  0  0  0  0  0  0
   46.0292    6.2460   12.9010 C   0  0  0  0  0  0  0  0  0  0  0  0
   52.8532    9.2226   10.8290 C   0  0  0  0  0  0  0  0  0  0  0  0
   50.9967   13.3469    8.1982 Br  0  0  0  0  0  0  0  0  0  0  0  0
   52.3139    7.9394   12.2050 O   0  0  0  0  0  0  0  0  0  0  0  0
   45.0289    9.1668   13.2076 O   0  0  0  0  0  0  0  0  0  0  0  0
   46.0217    8.3037   11.3350 O   0  0  0  0  0  0  0  0  0  0  0  0
   48.6328    7.6034   11.4211 N   0  0  0  0  0  0  0  0  0  0  0  0
   50.2183    8.3402   13.1651 C   0  0  0  0  0  0  0  0  0  0  0  0
   48.9180    7.9765   12.7542 C   0  0  0  0  0  0  0  0  0  0  0  0
   51.2956    8.6351   12.1948 C   0  0  0  0  0  0  0  0  0  0  0  0
   47.9444    7.7637   13.7588 C   0  0  0  0  0  0  0  0  0  0  0  0
   51.1796    9.7895   11.2503 C   0  0  0  0  0  0  0  0  0  0  0  0
   50.5504    8.4813   14.5211 C   0  0  0  0  0  0  0  0  0  0  0  0
   48.2876    7.9336   15.1153 C   0  0  0  0  0  0  0  0  0  0  0  0
   49.5821    8.2783   15.4963 C   0  0  0  0  0  0  0  0  0  0  0  0
   46.5266    7.3341   13.4290 C   0  0  0  0  0  0  0  0  0  0  0  0
   50.0922   10.6742   11.2542 C   0  0  0  0  0  0  0  0  0  0  0  0
   52.2192    9.9915   10.3297 C   0  0  0  0  0  0  0  0  0  0  0  0
   51.0744   11.9159    9.4301 C   0  0  0  0  0  0  0  0  0  0  0  0
   50.0365   11.7322   10.3398 C   0  0  0  0  0  0  0  0  0  0  0  0
   52.1700   11.0561    9.4225 C   0  0  0  0  0  0  0  0  0  0  0  0
   45.7901    8.3768   12.5806 C   0  0  0  0  0  0  0  0  0  0  0  0
   49.3674    9.1255   12.1887 Na  0  0  0  0  0 15  0  0  0  0  0  0
   49.3674    9.1255   12.1887 Na  0  0  0  0  0 15  0  0  0  0  0  0
   49.3581    8.7624   12.0278 O   0  0  0  0  0  0  0  0  0  0  0  0
   49.3532    8.7608   12.0318 O   0  0  0  0  0  0  0  0  0  0  0  0
   48.7985    9.0861   12.7344 H   0  0  0  0  0  0  0  0  0  0  0  0
   49.9353    9.5242   11.8126 H   0  0  0  0  0  0  0  0  0  0  0  0
   49.0854    8.9070    9.9277 H   0  0  0  0  0  0  0  0  0  0  0  0
   50.7103    8.6039   10.2357 H   0  0  0  0  0  0  0  0  0  0  0  0
   47.8110   11.9585   13.4275 H   0  0  0  0  0  0  0  0  0  0  0  0
   51.8604   12.6895   12.2623 H   0  0  0  0  0  0  0  0  0  0  0  0
   49.8504   13.3680   13.5058 H   0  0  0  0  0  0  0  0  0  0  0  0
   51.9745   10.7446    9.5775 H   0  0  0  0  0  0  0  0  0  0  0  0
   53.0228   11.3477   10.8535 H   0  0  0  0  0  0  0  0  0  0  0  0
   49.4438    8.0607   13.3207 H   0  0  0  0  0  0  0  0  0  0  0  0
   45.3144    8.0825   12.0365 H   0  0  0  0  0  0  0  0  0  0  0  0
   49.2025    5.7364   14.0321 H   0  0  0  0  0  0  0  0  0  0  0  0
   45.0807    5.7357   12.7655 H   0  0  0  0  0  0  0  0  0  0  0  0
   49.1960    8.0321   10.6997 H   0  0  0  0  0  0  0  0  0  0  0  0
   47.6300    7.7500   11.1877 H   0  0  0  0  0  0  0  0  0  0  0  0
   51.5631    8.7483   14.8092 H   0  0  0  0  0  0  0  0  0  0  0  0
   47.5334    7.7781   15.8838 H   0  0  0  0  0  0  0  0  0  0  0  0
   49.8275    8.3795   16.5483 H   0  0  0  0  0  0  0  0  0  0  0  0
   46.5623    6.3770   12.8951 H   0  0  0  0  0  0  0  0  0  0  0  0
   45.9499    7.1459   14.3437 H   0  0  0  0  0  0  0  0  0  0  0  0
   49.2601   10.5611   11.9447 H   0  0  0  0  0  0  0  0  0  0  0  0
   53.0721    9.3137   10.3139 H   0  0  0  0  0  0  0  0  0  0  0  0
   49.1695   12.3874   10.3449 H   0  0  0  0  0  0  0  0  0  0  0  0
   52.9818   11.1926    8.7150 H   0  0  0  0  0  0  0  0  0  0  0  0
   49.9401    9.5014   11.7971 H   0  0  0  0  0  0  0  0  0  0  0  0
   48.8041    9.1126   12.7412 H   0  0  0  0  0  0  0  0  0  0  0  0
   48.8066    9.1249   12.7446 H   0  0  0  0  0  0  0  0  0  0  0  0
   49.9426    9.4907   11.7896 H   0  0  0  0  0  0  0  0  0  0  0  0
  2 18  1  0
  3  9  2  0
  4 21  1  0
  5 21  2  0
  6  8  1  0
  7  8  2  0
  7  9  1  0
  7 12  1  0
  8 10  1  0
  9 11  1  0
 10 13  2  0
 10 15  1  0
 11 16  2  0
 11 17  1  0
 12 14  2  0
 13 14  1  0
 15 21  1  0
 16 19  1  0
 17 20  2  0
 18 19  2  0
 18 20  1  0
 22 38  1  0
 23 29  2  0
 24 41  1  0
 25 41  2  0
 26 28  1  0
 27 28  2  0
 27 29  1  0
 27 32  1  0
 28 30  1  0
 29 31  1  0
 30 33  2  0
 30 35  1  0
 31 36  2  0
 31 37  1  0
 32 34  2  0
 33 34  1  0
 35 41  1  0
 36 39  1  0
 37 40  2  0
 38 39  2  0
 38 40  1  0
  1 46  1  0
  1 47  1  0
  6 48  1  0
  6 49  1  0
 12 50  1  0
 13 51  1  0
 14 52  1  0
 15 53  1  0
 15 54  1  0
 16 55  1  0
 17 56  1  0
 19 57  1  0
 20 58  1  0
 26 59  1  0
 26 60  1  0
 32 61  1  0
 33 62  1  0
 34 63  1  0
 35 64  1  0
 35 65  1  0
 36 66  1  0
 37 67  1  0
 39 68  1  0
 40 69  1  0
 44 70  1  0
 44 71  1  0
 45 72  1  0
 45 73  1  0
M  CHG  4   4  -1  24  -1  42   1  43   1
M  END
> <Uni-Dock RESULT> 
ENERGY=   -4.425  LOWER_BOUND=    7.157  UPPER_BOUND=    9.643
INTER + INTRA:          -4.425
INTER:                  -4.425
INTRA:                   0.000
UNBOUND:                 0.000

$$$$

     RDKit          3D

 73 70  0  0  0  0  0  0  0  0999 V2000
   48.7153    9.9617   20.4436 O   0  0  0  0  0  0  0  0  0  0  0  0
   48.4592   14.4564   16.6688 Br  0  0  0  0  0  0  0  0  0  0  0  0
   50.2084   11.8203   22.7368 O   0  0  0  0  0  0  0  0  0  0  0  0
   49.0022    6.7005   18.9018 O   0  0  0  0  0  0  0  0  0  0  0  0
   46.8482    6.1041   19.4079 O   0  0  0  0  0  0  0  0  0  0  0  0
   49.6982    8.9224   20.2816 N   0  0  0  0  0  0  0  0  0  0  0  0
   48.7984   10.0340   22.2562 C   0  0  0  0  0  0  0  0  0  0  0  0
   48.9179    8.8824   21.4496 C   0  0  0  0  0  0  0  0  0  0  0  0
   49.4456   11.3181   21.9063 C   0  0  0  0  0  0  0  0  0  0  0  0
   48.2817    7.6938   21.8735 C   0  0  0  0  0  0  0  0  0  0  0  0
   49.1722   12.0368   20.6260 C   0  0  0  0  0  0  0  0  0  0  0  0
   48.0921   10.0062   23.4655 C   0  0  0  0  0  0  0  0  0  0  0  0
   47.5557    7.6960   23.0810 C   0  0  0  0  0  0  0  0  0  0  0  0
   47.4583    8.8402   23.8711 C   0  0  0  0  0  0  0  0  0  0  0  0
   48.4301    6.3635   21.1574 C   0  0  0  0  0  0  0  0  0  0  0  0
   48.1845   11.6359   19.7194 C   0  0  0  0  0  0  0  0  0  0  0  0
   49.9282   13.1874   20.3441 C   0  0  0  0  0  0  0  0  0  0  0  0
   48.7287   13.5017   18.2752 C   0  0  0  0  0  0  0  0  0  0  0  0
   47.9648   12.3661   18.5425 C   0  0  0  0  0  0  0  0  0  0  0  0
   49.7042   13.9228   19.1744 C   0  0  0  0  0  0  0  0  0  0  0  0
   48.0489    6.3915   19.6836 C   0  0  0  0  0  0  0  0  0  0  0  0
   50.9974    5.3556   23.8802 Br  0  0  0  0  0  0  0  0  0  0  0  0
   47.1825    7.8951   18.7784 O   0  0  0  0  0  0  0  0  0  0  0  0
   49.7441   13.9602   22.2764 O   0  0  0  0  0  0  0  0  0  0  0  0
   50.9540   12.5316   20.9602 O   0  0  0  0  0  0  0  0  0  0  0  0
   49.6620   10.6518   19.5065 N   0  0  0  0  0  0  0  0  0  0  0  0
   47.3294    9.9432   19.8999 C   0  0  0  0  0  0  0  0  0  0  0  0
   48.3369   10.9314   19.9114 C   0  0  0  0  0  0  0  0  0  0  0  0
   47.6407    8.5049   19.7476 C   0  0  0  0  0  0  0  0  0  0  0  0
   47.9407   12.2748   20.1131 C   0  0  0  0  0  0  0  0  0  0  0  0
   48.4534    7.7848   20.7768 C   0  0  0  0  0  0  0  0  0  0  0  0
   45.9756   10.2688   20.0732 C   0  0  0  0  0  0  0  0  0  0  0  0
   46.5794   12.5824   20.3103 C   0  0  0  0  0  0  0  0  0  0  0  0
   45.6019   11.5908   20.2796 C   0  0  0  0  0  0  0  0  0  0  0  0
   48.9380   13.4188   20.1066 C   0  0  0  0  0  0  0  0  0  0  0  0
   48.9214    8.3978   21.9474 C   0  0  0  0  0  0  0  0  0  0  0  0
   48.7451    6.4305   20.5533 C   0  0  0  0  0  0  0  0  0  0  0  0
   49.9685    6.3313   22.6310 C   0  0  0  0  0  0  0  0  0  0  0  0
   49.6843    7.6732   22.8701 C   0  0  0  0  0  0  0  0  0  0  0  0
   49.4983    5.7019   21.4810 C   0  0  0  0  0  0  0  0  0  0  0  0
   49.9724   13.2892   21.2303 C   0  0  0  0  0  0  0  0  0  0  0  0
   48.5462    9.9287   20.8017 Na  0  0  0  0  0 15  0  0  0  0  0  0
   48.5462    9.9287   20.8017 Na  0  0  0  0  0 15  0  0  0  0  0  0
   48.7130    9.9756   20.4443 O   0  0  0  0  0  0  0  0  0  0  0  0
   48.7119    9.9820   20.4446 O   0  0  0  0  0  0  0  0  0  0  0  0
   48.3457   10.6671   20.9957 H   0  0  0  0  0  0  0  0  0  0  0  0
   48.5774    9.1574   20.9658 H   0  0  0  0  0  0  0  0  0  0  0  0
   50.6716    9.1573   20.4454 H   0  0  0  0  0  0  0  0  0  0  0  0
   49.6372    8.0660   19.6930 H   0  0  0  0  0  0  0  0  0  0  0  0
   48.0445   10.8926   24.0884 H   0  0  0  0  0  0  0  0  0  0  0  0
   47.0676    6.7833   23.4177 H   0  0  0  0  0  0  0  0  0  0  0  0
   46.9090    8.8072   24.8053 H   0  0  0  0  0  0  0  0  0  0  0  0
   49.4756    6.0350   21.2623 H   0  0  0  0  0  0  0  0  0  0  0  0
   47.8189    5.5878   21.6450 H   0  0  0  0  0  0  0  0  0  0  0  0
   47.5833   10.7417   19.8890 H   0  0  0  0  0  0  0  0  0  0  0  0
   50.6949   13.5153   21.0408 H   0  0  0  0  0  0  0  0  0  0  0  0
   47.2163   12.0166   17.8380 H   0  0  0  0  0  0  0  0  0  0  0  0
   50.3102   14.7995   18.9680 H   0  0  0  0  0  0  0  0  0  0  0  0
   49.9955    9.7110   19.6643 H   0  0  0  0  0  0  0  0  0  0  0  0
   50.3406   11.3177   19.9281 H   0  0  0  0  0  0  0  0  0  0  0  0
   45.2197    9.4893   20.0456 H   0  0  0  0  0  0  0  0  0  0  0  0
   46.2804   13.6155   20.4744 H   0  0  0  0  0  0  0  0  0  0  0  0
   44.5579   11.8561   20.4100 H   0  0  0  0  0  0  0  0  0  0  0  0
   49.4446   13.4408   19.1344 H   0  0  0  0  0  0  0  0  0  0  0  0
   48.4276   14.3860   20.2007 H   0  0  0  0  0  0  0  0  0  0  0  0
   48.7255    9.4443   22.1675 H   0  0  0  0  0  0  0  0  0  0  0  0
   48.3882    5.9386   19.6490 H   0  0  0  0  0  0  0  0  0  0  0  0
   50.0588    8.1789   23.7562 H   0  0  0  0  0  0  0  0  0  0  0  0
   49.7173    4.6565   21.2876 H   0  0  0  0  0  0  0  0  0  0  0  0
   48.5900    9.1533   20.9410 H   0  0  0  0  0  0  0  0  0  0  0  0
   48.3355   10.6572   21.0198 H   0  0  0  0  0  0  0  0  0  0  0  0
   48.3306   10.6529   21.0311 H   0  0  0  0  0  0  0  0  0  0  0  0
   48.5960    9.1511   20.9294 H   0  0  0  0  0  0  0  0  0  0  0  0
  2 18  1  0
  3  9  2  0
  4 21  1  0
  5 21  2  0
  6  8  1  0
  7  8  2  0
  7  9  1  0
  7 12  1  0
  8 10  1  0
  9 11  1  0
 10 13  2  0
 10 15  1  0
 11 16  2  0
 11 17  1  0
 12 14  2  0
 13 14  1  0
 15 21  1  0
 16 19  1  0
 17 20  2  0
 18 19  2  0
 18 20  1  0
 22 38  1  0
 23 29  2  0
 24 41  1  0
 25 41  2  0
 26 28  1  0
 27 28  2  0
 27 29  1  0
 27 32  1  0
 28 30  1  0
 29 31  1  0
 30 33  2  0
 30 35  1  0
 31 36  2  0
 31 37  1  0
 32 34  2  0
 33 34  1  0
 35 41  1  0
 36 39  1  0
 37 40  2  0
 38 39  2  0
 38 40  1  0
  1 46  1  0
  1 47  1  0
  6 48  1  0
  6 49  1  0
 12 50  1  0
 13 51  1  0
 14 52  1  0
 15 53  1  0
 15 54  1  0
 16 55  1  0
 17 56  1  0
 19 57  1  0
 20 58  1  0
 26 59  1  0
 26 60  1  0
 32 61  1  0
 33 62  1  0
 34 63  1  0
 35 64  1  0
 35 65  1  0
 36 66  1  0
 37 67  1  0
 39 68  1  0
 40 69  1  0
 44 70  1  0
 44 71  1  0
 45 72  1  0
 45 73  1  0
M  CHG  4   4  -1  24  -1  42   1  43   1
M  END
> <Uni-Dock RESULT> 
ENERGY=   -4.385  LOWER_BOUND=    3.534  UPPER_BOUND=    6.186
INTER + INTRA:          -4.385
INTER:                  -4.385
INTRA:                   0.000
UNBOUND:                 0.000

$$$$

     RDKit          3D

 73 70  0  0  0  0  0  0  0  0999 V2000
   49.4513    7.0060   15.9614 O   0  0  0  0  0  0  0  0  0  0  0  0
   45.6232    9.5529   12.3042 Br  0  0  0  0  0  0  0  0  0  0  0  0
   52.0178    7.8592   14.0566 O   0  0  0  0  0  0  0  0  0  0  0  0
   48.1610    4.1381   17.7516 O   0  0  0  0  0  0  0  0  0  0  0  0
   48.0438    5.2491   19.7524 O   0  0  0  0  0  0  0  0  0  0  0  0
   49.6121    5.5754   15.9758 N   0  0  0  0  0  0  0  0  0  0  0  0
   51.2079    7.4064   16.1894 C   0  0  0  0  0  0  0  0  0  0  0  0
   50.5065    6.3232   16.7604 C   0  0  0  0  0  0  0  0  0  0  0  0
   51.0189    7.8195   14.7810 C   0  0  0  0  0  0  0  0  0  0  0  0
   50.7665    5.9876   18.1084 C   0  0  0  0  0  0  0  0  0  0  0  0
   49.6922    8.2299   14.2316 C   0  0  0  0  0  0  0  0  0  0  0  0
   52.1628    8.1231   16.9219 C   0  0  0  0  0  0  0  0  0  0  0  0
   51.7130    6.7385   18.8333 C   0  0  0  0  0  0  0  0  0  0  0  0
   52.4052    7.7980   18.2491 C   0  0  0  0  0  0  0  0  0  0  0  0
   50.1657    4.7777   18.8008 C   0  0  0  0  0  0  0  0  0  0  0  0
   48.5527    8.3946   15.0269 C   0  0  0  0  0  0  0  0  0  0  0  0
   49.6039    8.4907   12.8536 C   0  0  0  0  0  0  0  0  0  0  0  0
   47.2684    9.0488   13.0812 C   0  0  0  0  0  0  0  0  0  0  0  0
   47.3399    8.8007   14.4516 C   0  0  0  0  0  0  0  0  0  0  0  0
   48.3967    8.9049   12.2789 C   0  0  0  0  0  0  0  0  0  0  0  0
   48.6444    4.7218   18.7719 C   0  0  0  0  0  0  0  0  0  0  0  0
   53.5428    2.9634   18.2313 Br  0  0  0  0  0  0  0  0  0  0  0  0
   47.4812    6.1700   18.1552 O   0  0  0  0  0  0  0  0  0  0  0  0
   51.3760    9.5960   12.8002 O   0  0  0  0  0  0  0  0  0  0  0  0
   50.5096    7.4795   12.7150 O   0  0  0  0  0  0  0  0  0  0  0  0
   48.8054    6.6651   14.6510 N   0  0  0  0  0  0  0  0  0  0  0  0
   48.5324    7.7888   16.8329 C   0  0  0  0  0  0  0  0  0  0  0  0
   48.8025    7.8321   15.4483 C   0  0  0  0  0  0  0  0  0  0  0  0
   48.5216    6.5192   17.5924 C   0  0  0  0  0  0  0  0  0  0  0  0
   48.8392    9.1010   14.8231 C   0  0  0  0  0  0  0  0  0  0  0  0
   49.7634    5.6950   17.7228 C   0  0  0  0  0  0  0  0  0  0  0  0
   48.2981    8.9564   17.5751 C   0  0  0  0  0  0  0  0  0  0  0  0
   48.6261   10.2659   15.5874 C   0  0  0  0  0  0  0  0  0  0  0  0
   48.3465   10.1961   16.9500 C   0  0  0  0  0  0  0  0  0  0  0  0
   49.0841    9.2586   13.3335 C   0  0  0  0  0  0  0  0  0  0  0  0
   50.9993    6.0849   17.1882 C   0  0  0  0  0  0  0  0  0  0  0  0
   49.6761    4.4827   18.4240 C   0  0  0  0  0  0  0  0  0  0  0  0
   52.0201    4.0647   18.0314 C   0  0  0  0  0  0  0  0  0  0  0  0
   52.1249    5.2667   17.3365 C   0  0  0  0  0  0  0  0  0  0  0  0
   50.8038    3.6692   18.5828 C   0  0  0  0  0  0  0  0  0  0  0  0
   50.4617    8.7316   12.9162 C   0  0  0  0  0  0  0  0  0  0  0  0
   49.7464    7.1741   16.1679 Na  0  0  0  0  0 15  0  0  0  0  0  0
   49.7464    7.1741   16.1679 Na  0  0  0  0  0 15  0  0  0  0  0  0
   49.4509    7.0176   15.9535 O   0  0  0  0  0  0  0  0  0  0  0  0
   49.4507    7.0230   15.9498 O   0  0  0  0  0  0  0  0  0  0  0  0
   49.8512    7.8785   15.8276 H   0  0  0  0  0  0  0  0  0  0  0  0
   49.9367    6.6377   16.7146 H   0  0  0  0  0  0  0  0  0  0  0  0
   50.0418    5.1360   15.1685 H   0  0  0  0  0  0  0  0  0  0  0  0
   49.0581    4.8717   16.5062 H   0  0  0  0  0  0  0  0  0  0  0  0
   52.7174    8.9279   16.4521 H   0  0  0  0  0  0  0  0  0  0  0  0
   51.9234    6.4830   19.8700 H   0  0  0  0  0  0  0  0  0  0  0  0
   53.1421    8.3460   18.8255 H   0  0  0  0  0  0  0  0  0  0  0  0
   50.5775    3.8740   18.3256 H   0  0  0  0  0  0  0  0  0  0  0  0
   50.4807    4.7353   19.8552 H   0  0  0  0  0  0  0  0  0  0  0  0
   48.5700    8.1900   16.0982 H   0  0  0  0  0  0  0  0  0  0  0  0
   50.4812    8.3732   12.2232 H   0  0  0  0  0  0  0  0  0  0  0  0
   46.4612    8.8889   15.0829 H   0  0  0  0  0  0  0  0  0  0  0  0
   48.3461    9.0857   11.2096 H   0  0  0  0  0  0  0  0  0  0  0  0
   49.0821    5.8059   15.1056 H   0  0  0  0  0  0  0  0  0  0  0  0
   49.3834    6.7866   13.7950 H   0  0  0  0  0  0  0  0  0  0  0  0
   48.0785    8.8923   18.6369 H   0  0  0  0  0  0  0  0  0  0  0  0
   48.6646   11.2400   15.1043 H   0  0  0  0  0  0  0  0  0  0  0  0
   48.1622   11.1059   17.5118 H   0  0  0  0  0  0  0  0  0  0  0  0
   48.2989    8.7228   12.7874 H   0  0  0  0  0  0  0  0  0  0  0  0
   48.9968   10.3098   13.0298 H   0  0  0  0  0  0  0  0  0  0  0  0
   51.1205    7.0127   16.6347 H   0  0  0  0  0  0  0  0  0  0  0  0
   48.7233    4.1653   18.8465 H   0  0  0  0  0  0  0  0  0  0  0  0
   53.0650    5.5782   16.8889 H   0  0  0  0  0  0  0  0  0  0  0  0
   50.7147    2.7328   19.1244 H   0  0  0  0  0  0  0  0  0  0  0  0
   49.9168    6.6209   16.7042 H   0  0  0  0  0  0  0  0  0  0  0  0
   49.8715    7.8836   15.8460 H   0  0  0  0  0  0  0  0  0  0  0  0
   49.8811    7.8863   15.8545 H   0  0  0  0  0  0  0  0  0  0  0  0
   49.9074    6.6128   16.6994 H   0  0  0  0  0  0  0  0  0  0  0  0
  2 18  1  0
  3  9  2  0
  4 21  1  0
  5 21  2  0
  6  8  1  0
  7  8  2  0
  7  9  1  0
  7 12  1  0
  8 10  1  0
  9 11  1  0
 10 13  2  0
 10 15  1  0
 11 16  2  0
 11 17  1  0
 12 14  2  0
 13 14  1  0
 15 21  1  0
 16 19  1  0
 17 20  2  0
 18 19  2  0
 18 20  1  0
 22 38  1  0
 23 29  2  0
 24 41  1  0
 25 41  2  0
 26 28  1  0
 27 28  2  0
 27 29  1  0
 27 32  1  0
 28 30  1  0
 29 31  1  0
 30 33  2  0
 30 35  1  0
 31 36  2  0
 31 37  1  0
 32 34  2  0
 33 34  1  0
 35 41  1  0
 36 39  1  0
 37 40  2  0
 38 39  2  0
 38 40  1  0
  1 46  1  0
  1 47  1  0
  6 48  1  0
  6 49  1  0
 12 50  1  0
 13 51  1  0
 14 52  1  0
 15 53  1  0
 15 54  1  0
 16 55  1  0
 17 56  1  0
 19 57  1  0
 20 58  1  0
 26 59  1  0
 26 60  1  0
 32 61  1  0
 33 62  1  0
 34 63  1  0
 35 64  1  0
 35 65  1  0
 36 66  1  0
 37 67  1  0
 39 68  1  0
 40 69  1  0
 44 70  1  0
 44 71  1  0
 45 72  1  0
 45 73  1  0
M  CHG  4   4  -1  24  -1  42   1  43   1
M  END
> <Uni-Dock RESULT> 
ENERGY=   -4.372  LOWER_BOUND=    3.664  UPPER_BOUND=    5.827
INTER + INTRA:          -4.372
INTER:                  -4.372
INTRA:                   0.000
UNBOUND:                 0.000

$$$$

     RDKit          3D

 73 70  0  0  0  0  0  0  0  0999 V2000
   48.8661    7.8987   18.9998 O   0  0  0  0  0  0  0  0  0  0  0  0
   47.1523   13.2846   20.6037 Br  0  0  0  0  0  0  0  0  0  0  0  0
   49.2681    8.8365   15.8531 O   0  0  0  0  0  0  0  0  0  0  0  0
   47.4036    5.2056   20.9241 O   0  0  0  0  0  0  0  0  0  0  0  0
   49.3506    4.7428   22.0404 O   0  0  0  0  0  0  0  0  0  0  0  0
   47.9027    6.8429   18.8277 N   0  0  0  0  0  0  0  0  0  0  0  0
   49.9197    7.4385   17.5942 C   0  0  0  0  0  0  0  0  0  0  0  0
   49.2281    6.5606   18.4555 C   0  0  0  0  0  0  0  0  0  0  0  0
   49.3120    8.6851   17.0775 C   0  0  0  0  0  0  0  0  0  0  0  0
   49.8811    5.3823   18.8827 C   0  0  0  0  0  0  0  0  0  0  0  0
   48.8051    9.7671   17.9734 C   0  0  0  0  0  0  0  0  0  0  0  0
   51.2134    7.1474   17.1429 C   0  0  0  0  0  0  0  0  0  0  0  0
   51.1919    5.1225   18.4360 C   0  0  0  0  0  0  0  0  0  0  0  0
   51.8553    5.9957   17.5755 C   0  0  0  0  0  0  0  0  0  0  0  0
   49.2064    4.3052   19.7127 C   0  0  0  0  0  0  0  0  0  0  0  0
   48.9877    9.7599   19.3607 C   0  0  0  0  0  0  0  0  0  0  0  0
   48.1419   10.8546   17.3799 C   0  0  0  0  0  0  0  0  0  0  0  0
   47.8413   11.8852   19.5399 C   0  0  0  0  0  0  0  0  0  0  0  0
   48.5031   10.8170   20.1446 C   0  0  0  0  0  0  0  0  0  0  0  0
   47.6655   11.9151   18.1594 C   0  0  0  0  0  0  0  0  0  0  0  0
   48.6036    4.7982   21.0211 C   0  0  0  0  0  0  0  0  0  0  0  0
   48.7731    2.2692   16.4435 Br  0  0  0  0  0  0  0  0  0  0  0  0
   48.8621    6.5878   21.7701 O   0  0  0  0  0  0  0  0  0  0  0  0
   49.5411   11.0573   15.8417 O   0  0  0  0  0  0  0  0  0  0  0  0
   47.6565    9.9357   16.4957 O   0  0  0  0  0  0  0  0  0  0  0  0
   47.6101    8.7140   18.9084 N   0  0  0  0  0  0  0  0  0  0  0  0
   49.6181    8.1974   20.2496 C   0  0  0  0  0  0  0  0  0  0  0  0
   48.9230    9.0173   19.3351 C   0  0  0  0  0  0  0  0  0  0  0  0
   49.1519    6.8370   20.5975 C   0  0  0  0  0  0  0  0  0  0  0  0
   49.4777   10.2830   19.0306 C   0  0  0  0  0  0  0  0  0  0  0  0
   49.0815    5.7632   19.5581 C   0  0  0  0  0  0  0  0  0  0  0  0
   50.8156    8.6142   20.8506 C   0  0  0  0  0  0  0  0  0  0  0  0
   50.6941   10.6766   19.6239 C   0  0  0  0  0  0  0  0  0  0  0  0
   51.3536    9.8556   20.5353 C   0  0  0  0  0  0  0  0  0  0  0  0
   48.7935   11.2574   18.0894 C   0  0  0  0  0  0  0  0  0  0  0  0
   49.4876    5.9567   18.2304 C   0  0  0  0  0  0  0  0  0  0  0  0
   48.5946    4.5055   19.9455 C   0  0  0  0  0  0  0  0  0  0  0  0
   48.9010    3.6742   17.7008 C   0  0  0  0  0  0  0  0  0  0  0  0
   49.3905    4.9148   17.3011 C   0  0  0  0  0  0  0  0  0  0  0  0
   48.5079    3.4596   19.0196 C   0  0  0  0  0  0  0  0  0  0  0  0
   48.6600   10.6925   16.6708 C   0  0  0  0  0  0  0  0  0  0  0  0
   49.2156    7.7843   18.8492 Na  0  0  0  0  0 15  0  0  0  0  0  0
   49.2156    7.7843   18.8492 Na  0  0  0  0  0 15  0  0  0  0  0  0
   48.8696    7.9120   18.9966 O   0  0  0  0  0  0  0  0  0  0  0  0
   48.8713    7.9181   18.9951 O   0  0  0  0  0  0  0  0  0  0  0  0
   49.5579    8.4542   18.6101 H   0  0  0  0  0  0  0  0  0  0  0  0
   49.2229    7.0001   18.9376 H   0  0  0  0  0  0  0  0  0  0  0  0
   47.2607    6.9067   18.0446 H   0  0  0  0  0  0  0  0  0  0  0  0
   47.5129    6.2042   19.5512 H   0  0  0  0  0  0  0  0  0  0  0  0
   51.7122    7.8175   16.4514 H   0  0  0  0  0  0  0  0  0  0  0  0
   51.6998    4.2146   18.7556 H   0  0  0  0  0  0  0  0  0  0  0  0
   52.8566    5.7603   17.2326 H   0  0  0  0  0  0  0  0  0  0  0  0
   48.4212    3.8416   19.0958 H   0  0  0  0  0  0  0  0  0  0  0  0
   49.9158    3.4985   19.9558 H   0  0  0  0  0  0  0  0  0  0  0  0
   49.4835    8.9305   19.8667 H   0  0  0  0  0  0  0  0  0  0  0  0
   47.9972   10.8781   16.3032 H   0  0  0  0  0  0  0  0  0  0  0  0
   48.6268   10.7731   21.2222 H   0  0  0  0  0  0  0  0  0  0  0  0
   47.1417   12.7379   17.6828 H   0  0  0  0  0  0  0  0  0  0  0  0
   47.3612    7.7353   18.8674 H   0  0  0  0  0  0  0  0  0  0  0  0
   47.3959    9.1479   17.9878 H   0  0  0  0  0  0  0  0  0  0  0  0
   51.3220    7.9682   21.5620 H   0  0  0  0  0  0  0  0  0  0  0  0
   51.1217   11.6467   19.3797 H   0  0  0  0  0  0  0  0  0  0  0  0
   52.2763   10.1914   20.9970 H   0  0  0  0  0  0  0  0  0  0  0  0
   47.8015   11.4982   18.4896 H   0  0  0  0  0  0  0  0  0  0  0  0
   49.3381   12.2093   18.0451 H   0  0  0  0  0  0  0  0  0  0  0  0
   49.8698    6.9116   17.8783 H   0  0  0  0  0  0  0  0  0  0  0  0
   48.2757    4.3380   20.9738 H   0  0  0  0  0  0  0  0  0  0  0  0
   49.6857    5.0985   16.2714 H   0  0  0  0  0  0  0  0  0  0  0  0
   48.1239    2.4954   19.3377 H   0  0  0  0  0  0  0  0  0  0  0  0
   49.1975    7.0019   18.9493 H   0  0  0  0  0  0  0  0  0  0  0  0
   49.5798    8.4391   18.6016 H   0  0  0  0  0  0  0  0  0  0  0  0
   49.5902    8.4323   18.5975 H   0  0  0  0  0  0  0  0  0  0  0  0
   49.1854    7.0025   18.9549 H   0  0  0  0  0  0  0  0  0  0  0  0
  2 18  1  0
  3  9  2  0
  4 21  1  0
  5 21  2  0
  6  8  1  0
  7  8  2  0
  7  9  1  0
  7 12  1  0
  8 10  1  0
  9 11  1  0
 10 13  2  0
 10 15  1  0
 11 16  2  0
 11 17  1  0
 12 14  2  0
 13 14  1  0
 15 21  1  0
 16 19  1  0
 17 20  2  0
 18 19  2  0
 18 20  1  0
 22 38  1  0
 23 29  2  0
 24 41  1  0
 25 41  2  0
 26 28  1  0
 27 28  2  0
 27 29  1  0
 27 32  1  0
 28 30  1  0
 29 31  1  0
 30 33  2  0
 30 35  1  0
 31 36  2  0
 31 37  1  0
 32 34  2  0
 33 34  1  0
 35 41  1  0
 36 39  1  0
 37 40  2  0
 38 39  2  0
 38 40  1  0
  1 46  1  0
  1 47  1  0
  6 48  1  0
  6 49  1  0
 12 50  1  0
 13 51  1  0
 14 52  1  0
 15 53  1  0
 15 54  1  0
 16 55  1  0
 17 56  1  0
 19 57  1  0
 20 58  1  0
 26 59  1  0
 26 60  1  0
 32 61  1  0
 33 62  1  0
 34 63  1  0
 35 64  1  0
 35 65  1  0
 36 66  1  0
 37 67  1  0
 39 68  1  0
 40 69  1  0
 44 70  1  0
 44 71  1  0
 45 72  1  0
 45 73  1  0
M  CHG  4   4  -1  24  -1  42   1  43   1
M  END
> <Uni-Dock RESULT> 
ENERGY=   -4.305  LOWER_BOUND=    2.316  UPPER_BOUND=    5.513
INTER + INTRA:          -4.305
INTER:                  -4.305
INTRA:                   0.000
UNBOUND:                 0.000

$$$$

     RDKit          3D

 73 70  0  0  0  0  0  0  0  0999 V2000
   48.7598   10.1852   17.0930 O   0  0  0  0  0  0  0  0  0  0  0  0
   47.6122    7.4495   12.0219 Br  0  0  0  0  0  0  0  0  0  0  0  0
   49.8652    7.3946   18.4834 O   0  0  0  0  0  0  0  0  0  0  0  0
   46.5827   12.9785   17.8362 O   0  0  0  0  0  0  0  0  0  0  0  0
   48.2014   14.5464   17.4206 O   0  0  0  0  0  0  0  0  0  0  0  0
   47.6963   10.5175   18.0046 N   0  0  0  0  0  0  0  0  0  0  0  0
   49.9706    9.7149   18.3621 C   0  0  0  0  0  0  0  0  0  0  0  0
   49.0094   10.7442   18.4507 C   0  0  0  0  0  0  0  0  0  0  0  0
   49.6619    8.3893   17.7812 C   0  0  0  0  0  0  0  0  0  0  0  0
   49.3889   11.9716   19.0396 C   0  0  0  0  0  0  0  0  0  0  0  0
   49.1686    8.2165   16.3822 C   0  0  0  0  0  0  0  0  0  0  0  0
   51.2661    9.8826   18.8676 C   0  0  0  0  0  0  0  0  0  0  0  0
   50.7049   12.1263   19.5186 C   0  0  0  0  0  0  0  0  0  0  0  0
   51.6378   11.0940   19.4333 C   0  0  0  0  0  0  0  0  0  0  0  0
   48.4199   13.1113   19.2975 C   0  0  0  0  0  0  0  0  0  0  0  0
   49.0921    9.2685   15.4626 C   0  0  0  0  0  0  0  0  0  0  0  0
   48.7960    6.9252   15.9716 C   0  0  0  0  0  0  0  0  0  0  0  0
   48.2652    7.7496   13.7678 C   0  0  0  0  0  0  0  0  0  0  0  0
   48.6373    9.0361   14.1565 C   0  0  0  0  0  0  0  0  0  0  0  0
   48.3505    6.6894   14.6658 C   0  0  0  0  0  0  0  0  0  0  0  0
   47.6697   13.5963   18.0645 C   0  0  0  0  0  0  0  0  0  0  0  0
   48.2888   11.9626   22.9967 Br  0  0  0  0  0  0  0  0  0  0  0  0
   48.0535   13.0393   16.2280 O   0  0  0  0  0  0  0  0  0  0  0  0
   50.4666    6.0110   16.8309 O   0  0  0  0  0  0  0  0  0  0  0  0
   48.3474    6.7663   17.2505 O   0  0  0  0  0  0  0  0  0  0  0  0
   47.6787    9.2938   16.5572 N   0  0  0  0  0  0  0  0  0  0  0  0
   49.3075   11.0738   16.0314 C   0  0  0  0  0  0  0  0  0  0  0  0
   48.9222    9.7161   16.0346 C   0  0  0  0  0  0  0  0  0  0  0  0
   48.5864   12.0974   16.8196 C   0  0  0  0  0  0  0  0  0  0  0  0
   49.7070    8.8062   15.2873 C   0  0  0  0  0  0  0  0  0  0  0  0
   48.5461   12.0247   18.3134 C   0  0  0  0  0  0  0  0  0  0  0  0
   50.4241   11.5214   15.3092 C   0  0  0  0  0  0  0  0  0  0  0  0
   50.8400    9.2677   14.5873 C   0  0  0  0  0  0  0  0  0  0  0  0
   51.1911   10.6155   14.5874 C   0  0  0  0  0  0  0  0  0  0  0  0
   49.3604    7.3316   15.1927 C   0  0  0  0  0  0  0  0  0  0  0  0
   49.2118   11.0341   19.0487 C   0  0  0  0  0  0  0  0  0  0  0  0
   47.8131   13.0054   18.9989 C   0  0  0  0  0  0  0  0  0  0  0  0
   48.3951   11.9920   21.1102 C   0  0  0  0  0  0  0  0  0  0  0  0
   49.1302   11.0139   20.4457 C   0  0  0  0  0  0  0  0  0  0  0  0
   47.7404   12.9929   20.3964 C   0  0  0  0  0  0  0  0  0  0  0  0
   49.4044    6.6395   16.5597 C   0  0  0  0  0  0  0  0  0  0  0  0
   49.1096   10.2328   17.2754 Na  0  0  0  0  0 15  0  0  0  0  0  0
   49.1096   10.2328   17.2754 Na  0  0  0  0  0 15  0  0  0  0  0  0
   48.7657   10.1751   17.0852 O   0  0  0  0  0  0  0  0  0  0  0  0
   48.7685   10.1704   17.0817 O   0  0  0  0  0  0  0  0  0  0  0  0
   49.5866    9.7064   16.9314 H   0  0  0  0  0  0  0  0  0  0  0  0
   48.9826   10.8069   17.8018 H   0  0  0  0  0  0  0  0  0  0  0  0
   47.2248    9.7577   18.4841 H   0  0  0  0  0  0  0  0  0  0  0  0
   47.0894   11.3632   18.0035 H   0  0  0  0  0  0  0  0  0  0  0  0
   51.9777    9.0655   18.8230 H   0  0  0  0  0  0  0  0  0  0  0  0
   51.0035   13.0661   19.9788 H   0  0  0  0  0  0  0  0  0  0  0  0
   52.6378   11.2350   19.8278 H   0  0  0  0  0  0  0  0  0  0  0  0
   47.6997   12.7798   20.0614 H   0  0  0  0  0  0  0  0  0  0  0  0
   48.9435   13.9778   19.7312 H   0  0  0  0  0  0  0  0  0  0  0  0
   49.3568   10.2896   15.7403 H   0  0  0  0  0  0  0  0  0  0  0  0
   48.8553    6.0965   16.6719 H   0  0  0  0  0  0  0  0  0  0  0  0
   48.5543    9.8737   13.4710 H   0  0  0  0  0  0  0  0  0  0  0  0
   48.0523    5.6873   14.3738 H   0  0  0  0  0  0  0  0  0  0  0  0
   47.2970    9.8398   17.3172 H   0  0  0  0  0  0  0  0  0  0  0  0
   47.7037    8.2956   16.8479 H   0  0  0  0  0  0  0  0  0  0  0  0
   50.6893   12.5747   15.3132 H   0  0  0  0  0  0  0  0  0  0  0  0
   51.4460    8.5630   14.0217 H   0  0  0  0  0  0  0  0  0  0  0  0
   52.0540   10.9498   14.0209 H   0  0  0  0  0  0  0  0  0  0  0  0
   48.3598    7.2308   14.7560 H   0  0  0  0  0  0  0  0  0  0  0  0
   50.0409    6.8110   14.5067 H   0  0  0  0  0  0  0  0  0  0  0  0
   49.7910   10.2504   18.5668 H   0  0  0  0  0  0  0  0  0  0  0  0
   47.2905   13.7829   18.4425 H   0  0  0  0  0  0  0  0  0  0  0  0
   49.6325   10.2193   20.9910 H   0  0  0  0  0  0  0  0  0  0  0  0
   47.1643   13.7575   20.9080 H   0  0  0  0  0  0  0  0  0  0  0  0
   48.9560   10.8083   17.7929 H   0  0  0  0  0  0  0  0  0  0  0  0
   49.6072    9.7151   16.9481 H   0  0  0  0  0  0  0  0  0  0  0  0
   49.6170    9.7190   16.9557 H   0  0  0  0  0  0  0  0  0  0  0  0
   48.9434   10.8091   17.7889 H   0  0  0  0  0  0  0  0  0  0  0  0
  2 18  1  0
  3  9  2  0
  4 21  1  0
  5 21  2  0
  6  8  1  0
  7  8  2  0
  7  9  1  0
  7 12  1  0
  8 10  1  0
  9 11  1  0
 10 13  2  0
 10 15  1  0
 11 16  2  0
 11 17  1  0
 12 14  2  0
 13 14  1  0
 15 21  1  0
 16 19  1  0
 17 20  2  0
 18 19  2  0
 18 20  1  0
 22 38  1  0
 23 29  2  0
 24 41  1  0
 25 41  2  0
 26 28  1  0
 27 28  2  0
 27 29  1  0
 27 32  1  0
 28 30  1  0
 29 31  1  0
 30 33  2  0
 30 35  1  0
 31 36  2  0
 31 37  1  0
 32 34  2  0
 33 34  1  0
 35 41  1  0
 36 39  1  0
 37 40  2  0
 38 39  2  0
 38 40  1  0
  1 46  1  0
  1 47  1  0
  6 48  1  0
  6 49  1  0
 12 50  1  0
 13 51  1  0
 14 52  1  0
 15 53  1  0
 15 54  1  0
 16 55  1  0
 17 56  1  0
 19 57  1  0
 20 58  1  0
 26 59  1  0
 26 60  1  0
 32 61  1  0
 33 62  1  0
 34 63  1  0
 35 64  1  0
 35 65  1  0
 36 66  1  0
 37 67  1  0
 39 68  1  0
 40 69  1  0
 44 70  1  0
 44 71  1  0
 45 72  1  0
 45 73  1  0
M  CHG  4   4  -1  24  -1  42   1  43   1
M  END
> <Uni-Dock RESULT> 
ENERGY=   -4.277  LOWER_BOUND=    4.194  UPPER_BOUND=    5.969
INTER + INTRA:          -4.277
INTER:                  -4.277
INTRA:                   0.000
UNBOUND:                 0.000

$$$$

     RDKit          3D

 73 70  0  0  0  0  0  0  0  0999 V2000
   48.4971    9.5432   17.9998 O   0  0  0  0  0  0  0  0  0  0  0  0
   46.8424    8.0337   12.5684 Br  0  0  0  0  0  0  0  0  0  0  0  0
   50.6179    7.0112   18.1836 O   0  0  0  0  0  0  0  0  0  0  0  0
   45.9297   11.1571   19.9742 O   0  0  0  0  0  0  0  0  0  0  0  0
   46.9146   13.2222   19.8439 O   0  0  0  0  0  0  0  0  0  0  0  0
   47.6561    9.2509   19.1311 N   0  0  0  0  0  0  0  0  0  0  0  0
   50.0738    9.1799   18.8243 C   0  0  0  0  0  0  0  0  0  0  0  0
   48.9322    9.7713   19.4057 C   0  0  0  0  0  0  0  0  0  0  0  0
   49.9859    8.0316   17.8949 C   0  0  0  0  0  0  0  0  0  0  0  0
   49.1138   10.8519   20.2984 C   0  0  0  0  0  0  0  0  0  0  0  0
   49.2120    8.0839   16.6187 C   0  0  0  0  0  0  0  0  0  0  0  0
   51.3644    9.6252   19.1375 C   0  0  0  0  0  0  0  0  0  0  0  0
   50.4200   11.2992   20.5792 C   0  0  0  0  0  0  0  0  0  0  0  0
   51.5369   10.6949   20.0045 C   0  0  0  0  0  0  0  0  0  0  0  0
   47.9795   11.4958   21.0751 C   0  0  0  0  0  0  0  0  0  0  0  0
   48.6268    9.2558   16.1264 C   0  0  0  0  0  0  0  0  0  0  0  0
   49.0996    6.9004   15.8695 C   0  0  0  0  0  0  0  0  0  0  0  0
   47.8208    8.0573   14.1830 C   0  0  0  0  0  0  0  0  0  0  0  0
   47.9283    9.2421   14.9104 C   0  0  0  0  0  0  0  0  0  0  0  0
   48.4108    6.8866   14.6510 C   0  0  0  0  0  0  0  0  0  0  0  0
   46.8365   12.0149   20.2136 C   0  0  0  0  0  0  0  0  0  0  0  0
   49.1140    9.4293   24.1513 Br  0  0  0  0  0  0  0  0  0  0  0  0
   46.8662   12.1251   18.2597 O   0  0  0  0  0  0  0  0  0  0  0  0
   51.1148    6.3955   16.0906 O   0  0  0  0  0  0  0  0  0  0  0  0
   49.0542    6.2686   17.0780 O   0  0  0  0  0  0  0  0  0  0  0  0
   47.5885    8.5213   17.3829 N   0  0  0  0  0  0  0  0  0  0  0  0
   48.4986   10.8110   17.2191 C   0  0  0  0  0  0  0  0  0  0  0  0
   48.4986    9.4532   16.8342 C   0  0  0  0  0  0  0  0  0  0  0  0
   47.7621   11.2907   18.4093 C   0  0  0  0  0  0  0  0  0  0  0  0
   49.2749    9.0867   15.7093 C   0  0  0  0  0  0  0  0  0  0  0  0
   48.1290   10.8146   19.7793 C   0  0  0  0  0  0  0  0  0  0  0  0
   49.2326   11.7770   16.5141 C   0  0  0  0  0  0  0  0  0  0  0  0
   50.0262   10.0647   15.0270 C   0  0  0  0  0  0  0  0  0  0  0  0
   49.9979   11.4013   15.4172 C   0  0  0  0  0  0  0  0  0  0  0  0
   49.3165    7.6617   15.1885 C   0  0  0  0  0  0  0  0  0  0  0  0
   49.1982    9.9418   20.0244 C   0  0  0  0  0  0  0  0  0  0  0  0
   47.3662   11.2788   20.8618 C   0  0  0  0  0  0  0  0  0  0  0  0
   48.7185    9.9921   22.3912 C   0  0  0  0  0  0  0  0  0  0  0  0
   49.4880    9.5255   21.3288 C   0  0  0  0  0  0  0  0  0  0  0  0
   47.6624   10.8722   22.1678 C   0  0  0  0  0  0  0  0  0  0  0  0
   49.8921    6.6862   16.2212 C   0  0  0  0  0  0  0  0  0  0  0  0
   48.8569    9.6535   18.1278 Na  0  0  0  0  0 15  0  0  0  0  0  0
   48.8569    9.6535   18.1278 Na  0  0  0  0  0 15  0  0  0  0  0  0
   48.5033    9.5381   17.9882 O   0  0  0  0  0  0  0  0  0  0  0  0
   48.5062    9.5358   17.9829 O   0  0  0  0  0  0  0  0  0  0  0  0
   49.3501    9.4255   17.5553 H   0  0  0  0  0  0  0  0  0  0  0  0
   48.7234    9.9917   18.8282 H   0  0  0  0  0  0  0  0  0  0  0  0
   47.5414    8.2797   19.4013 H   0  0  0  0  0  0  0  0  0  0  0  0
   46.8691    9.8169   19.5102 H   0  0  0  0  0  0  0  0  0  0  0  0
   52.2295    9.1319   18.7082 H   0  0  0  0  0  0  0  0  0  0  0  0
   50.5689   12.1268   21.2700 H   0  0  0  0  0  0  0  0  0  0  0  0
   52.5312   11.0479   20.2541 H   0  0  0  0  0  0  0  0  0  0  0  0
   47.5943   10.7548   21.7924 H   0  0  0  0  0  0  0  0  0  0  0  0
   48.3501   12.3382   21.6800 H   0  0  0  0  0  0  0  0  0  0  0  0
   48.6758   10.1943   16.6801 H   0  0  0  0  0  0  0  0  0  0  0  0
   49.5535    5.9832   16.2350 H   0  0  0  0  0  0  0  0  0  0  0  0
   47.4539   10.1556   14.5654 H   0  0  0  0  0  0  0  0  0  0  0  0
   48.3220    5.9580   14.0958 H   0  0  0  0  0  0  0  0  0  0  0  0
   47.2860    8.6879   18.3327 H   0  0  0  0  0  0  0  0  0  0  0  0
   47.9495    7.5481   17.3174 H   0  0  0  0  0  0  0  0  0  0  0  0
   49.2029   12.8175   16.8242 H   0  0  0  0  0  0  0  0  0  0  0  0
   50.6291    9.7767   14.1684 H   0  0  0  0  0  0  0  0  0  0  0  0
   50.5659   12.1395   14.8608 H   0  0  0  0  0  0  0  0  0  0  0  0
   48.3001    7.3561   14.9131 H   0  0  0  0  0  0  0  0  0  0  0  0
   49.9091    7.5970   14.2669 H   0  0  0  0  0  0  0  0  0  0  0  0
   49.8187    9.5512   19.2217 H   0  0  0  0  0  0  0  0  0  0  0  0
   46.5323   11.9584   20.6887 H   0  0  0  0  0  0  0  0  0  0  0  0
   50.3047    8.8267   21.4892 H   0  0  0  0  0  0  0  0  0  0  0  0
   47.0575   11.2387   22.9912 H   0  0  0  0  0  0  0  0  0  0  0  0
   48.6961    9.9865   18.8248 H   0  0  0  0  0  0  0  0  0  0  0  0
   49.3712    9.4358   17.5703 H   0  0  0  0  0  0  0  0  0  0  0  0
   49.3813    9.4405   17.5771 H   0  0  0  0  0  0  0  0  0  0  0  0
   48.6830    9.9841   18.8234 H   0  0  0  0  0  0  0  0  0  0  0  0
  2 18  1  0
  3  9  2  0
  4 21  1  0
  5 21  2  0
  6  8  1  0
  7  8  2  0
  7  9  1  0
  7 12  1  0
  8 10  1  0
  9 11  1  0
 10 13  2  0
 10 15  1  0
 11 16  2  0
 11 17  1  0
 12 14  2  0
 13 14  1  0
 15 21  1  0
 16 19  1  0
 17 20  2  0
 18 19  2  0
 18 20  1  0
 22 38  1  0
 23 29  2  0
 24 41  1  0
 25 41  2  0
 26 28  1  0
 27 28  2  0
 27 29  1  0
 27 32  1  0
 28 30  1  0
 29 31  1  0
 30 33  2  0
 30 35  1  0
 31 36  2  0
 31 37  1  0
 32 34  2  0
 33 34  1  0
 35 41  1  0
 36 39  1  0
 37 40  2  0
 38 39  2  0
 38 40  1  0
  1 46  1  0
  1 47  1  0
  6 48  1  0
  6 49  1  0
 12 50  1  0
 13 51  1  0
 14 52  1  0
 15 53  1  0
 15 54  1  0
 16 55  1  0
 17 56  1  0
 19 57  1  0
 20 58  1  0
 26 59  1  0
 26 60  1  0
 32 61  1  0
 33 62  1  0
 34 63  1  0
 35 64  1  0
 35 65  1  0
 36 66  1  0
 37 67  1  0
 39 68  1  0
 40 69  1  0
 44 70  1  0
 44 71  1  0
 45 72  1  0
 45 73  1  0
M  CHG  4   4  -1  24  -1  42   1  43   1
M  END
> <Uni-Dock RESULT> 
ENERGY=   -4.229  LOWER_BOUND=    3.653  UPPER_BOUND=    5.176
INTER + INTRA:          -4.229
INTER:                  -4.229
INTRA:                   0.000
UNBOUND:                 0.000

$$$$

     RDKit          3D

 73 70  0  0  0  0  0  0  0  0999 V2000
   51.5119    5.3694   21.1321 O   0  0  0  0  0  0  0  0  0  0  0  0
   47.3287    8.0994   24.2248 Br  0  0  0  0  0  0  0  0  0  0  0  0
   49.2819    3.9716   19.1281 O   0  0  0  0  0  0  0  0  0  0  0  0
   54.4709    4.4965   23.0235 O   0  0  0  0  0  0  0  0  0  0  0  0
   55.7624    6.1125   22.0378 O   0  0  0  0  0  0  0  0  0  0  0  0
   52.1581    4.1922   21.6511 N   0  0  0  0  0  0  0  0  0  0  0  0
   51.4337    4.8095   19.4064 C   0  0  0  0  0  0  0  0  0  0  0  0
   52.4699    4.5582   20.3307 C   0  0  0  0  0  0  0  0  0  0  0  0
   50.0034    4.7335   19.7784 C   0  0  0  0  0  0  0  0  0  0  0  0
   53.8074    4.6341   19.8806 C   0  0  0  0  0  0  0  0  0  0  0  0
   49.4060    5.5700   20.8619 C   0  0  0  0  0  0  0  0  0  0  0  0
   51.7096    5.1009   18.0643 C   0  0  0  0  0  0  0  0  0  0  0  0
   54.0617    4.9535   18.5321 C   0  0  0  0  0  0  0  0  0  0  0  0
   53.0248    5.1870   17.6302 C   0  0  0  0  0  0  0  0  0  0  0  0
   55.0030    4.2742   20.7440 C   0  0  0  0  0  0  0  0  0  0  0  0
   50.1070    6.5891   21.5160 C   0  0  0  0  0  0  0  0  0  0  0  0
   48.0654    5.3337   21.2107 C   0  0  0  0  0  0  0  0  0  0  0  0
   48.1527    7.0995   22.8516 C   0  0  0  0  0  0  0  0  0  0  0  0
   49.4818    7.3518   22.5132 C   0  0  0  0  0  0  0  0  0  0  0  0
   47.4367    6.0998   22.1992 C   0  0  0  0  0  0  0  0  0  0  0  0
   55.0904    5.0410   22.0565 C   0  0  0  0  0  0  0  0  0  0  0  0
   55.1148    0.8652   18.9037 Br  0  0  0  0  0  0  0  0  0  0  0  0
   53.9573    6.5605   22.5443 O   0  0  0  0  0  0  0  0  0  0  0  0
   47.4187    5.2066   19.2281 O   0  0  0  0  0  0  0  0  0  0  0  0
   48.3436    4.0227   20.9545 O   0  0  0  0  0  0  0  0  0  0  0  0
   50.5342    4.9965   22.2071 N   0  0  0  0  0  0  0  0  0  0  0  0
   51.9904    6.7698   21.2946 C   0  0  0  0  0  0  0  0  0  0  0  0
   50.7209    6.1717   21.4443 C   0  0  0  0  0  0  0  0  0  0  0  0
   53.2385    6.0698   21.6705 C   0  0  0  0  0  0  0  0  0  0  0  0
   49.5914    6.9043   21.0086 C   0  0  0  0  0  0  0  0  0  0  0  0
   53.6531    4.8152   20.9687 C   0  0  0  0  0  0  0  0  0  0  0  0
   52.1412    8.0507   20.7419 C   0  0  0  0  0  0  0  0  0  0  0  0
   49.7619    8.1794   20.4328 C   0  0  0  0  0  0  0  0  0  0  0  0
   51.0243    8.7547   20.3098 C   0  0  0  0  0  0  0  0  0  0  0  0
   48.1784    6.3703   21.1567 C   0  0  0  0  0  0  0  0  0  0  0  0
   52.9299    4.2603   19.9037 C   0  0  0  0  0  0  0  0  0  0  0  0
   54.8279    4.1799   21.3991 C   0  0  0  0  0  0  0  0  0  0  0  0
   54.5300    2.4590   19.7338 C   0  0  0  0  0  0  0  0  0  0  0  0
   53.3645    3.0792   19.2917 C   0  0  0  0  0  0  0  0  0  0  0  0
   55.2696    3.0049   20.7802 C   0  0  0  0  0  0  0  0  0  0  0  0
   47.9633    5.0780   20.3611 C   0  0  0  0  0  0  0  0  0  0  0  0
   51.6034    5.4115   20.7477 Na  0  0  0  0  0 15  0  0  0  0  0  0
   51.6034    5.4115   20.7477 Na  0  0  0  0  0 15  0  0  0  0  0  0
   51.4996    5.3757   21.1294 O   0  0  0  0  0  0  0  0  0  0  0  0
   51.4940    5.3787   21.1281 O   0  0  0  0  0  0  0  0  0  0  0  0
   50.9776    5.7752   20.4329 H   0  0  0  0  0  0  0  0  0  0  0  0
   52.3208    5.0900   20.6780 H   0  0  0  0  0  0  0  0  0  0  0  0
   51.6108    3.3409   21.7233 H   0  0  0  0  0  0  0  0  0  0  0  0
   52.9791    4.1379   22.2886 H   0  0  0  0  0  0  0  0  0  0  0  0
   50.8971    5.2536   17.3625 H   0  0  0  0  0  0  0  0  0  0  0  0
   55.0886    5.0083   18.1759 H   0  0  0  0  0  0  0  0  0  0  0  0
   53.2500    5.4118   16.5937 H   0  0  0  0  0  0  0  0  0  0  0  0
   54.9614    3.1934   20.9498 H   0  0  0  0  0  0  0  0  0  0  0  0
   55.9439    4.4419   20.1968 H   0  0  0  0  0  0  0  0  0  0  0  0
   51.1530    6.7990   21.2889 H   0  0  0  0  0  0  0  0  0  0  0  0
   47.5054    4.5498   20.7079 H   0  0  0  0  0  0  0  0  0  0  0  0
   50.0558    8.1144   23.0303 H   0  0  0  0  0  0  0  0  0  0  0  0
   46.4052    5.8903   22.4647 H   0  0  0  0  0  0  0  0  0  0  0  0
   51.3093    4.3489   22.2397 H   0  0  0  0  0  0  0  0  0  0  0  0
   49.6829    4.4778   21.9105 H   0  0  0  0  0  0  0  0  0  0  0  0
   53.1294    8.4925   20.6518 H   0  0  0  0  0  0  0  0  0  0  0  0
   48.8914    8.7351   20.0906 H   0  0  0  0  0  0  0  0  0  0  0  0
   51.1271    9.7479   19.8852 H   0  0  0  0  0  0  0  0  0  0  0  0
   47.9776    6.1914   22.2197 H   0  0  0  0  0  0  0  0  0  0  0  0
   47.4405    7.1159   20.8335 H   0  0  0  0  0  0  0  0  0  0  0  0
   52.0126    4.7113   19.5334 H   0  0  0  0  0  0  0  0  0  0  0  0
   55.4023    4.5985   22.2249 H   0  0  0  0  0  0  0  0  0  0  0  0
   52.7711    2.6542   18.4865 H   0  0  0  0  0  0  0  0  0  0  0  0
   56.1783    2.5258   21.1308 H   0  0  0  0  0  0  0  0  0  0  0  0
   52.3202    5.0843   20.7054 H   0  0  0  0  0  0  0  0  0  0  0  0
   50.9905    5.7746   20.4082 H   0  0  0  0  0  0  0  0  0  0  0  0
   50.9963    5.7745   20.3965 H   0  0  0  0  0  0  0  0  0  0  0  0
   52.3201    5.0814   20.7184 H   0  0  0  0  0  0  0  0  0  0  0  0
  2 18  1  0
  3  9  2  0
  4 21  1  0
  5 21  2  0
  6  8  1  0
  7  8  2  0
  7  9  1  0
  7 12  1  0
  8 10  1  0
  9 11  1  0
 10 13  2  0
 10 15  1  0
 11 16  2  0
 11 17  1  0
 12 14  2  0
 13 14  1  0
 15 21  1  0
 16 19  1  0
 17 20  2  0
 18 19  2  0
 18 20  1  0
 22 38  1  0
 23 29  2  0
 24 41  1  0
 25 41  2  0
 26 28  1  0
 27 28  2  0
 27 29  1  0
 27 32  1  0
 28 30  1  0
 29 31  1  0
 30 33  2  0
 30 35  1  0
 31 36  2  0
 31 37  1  0
 32 34  2  0
 33 34  1  0
 35 41  1  0
 36 39  1  0
 37 40  2  0
 38 39  2  0
 38 40  1  0
  1 46  1  0
  1 47  1  0
  6 48  1  0
  6 49  1  0
 12 50  1  0
 13 51  1  0
 14 52  1  0
 15 53  1  0
 15 54  1  0
 16 55  1  0
 17 56  1  0
 19 57  1  0
 20 58  1  0
 26 59  1  0
 26 60  1  0
 32 61  1  0
 33 62  1  0
 34 63  1  0
 35 64  1  0
 35 65  1  0
 36 66  1  0
 37 67  1  0
 39 68  1  0
 40 69  1  0
 44 70  1  0
 44 71  1  0
 45 72  1  0
 45 73  1  0
M  CHG  4   4  -1  24  -1  42   1  43   1
M  END
> <Uni-Dock RESULT> 
ENERGY=   -4.203  LOWER_BOUND=    2.452  UPPER_BOUND=    6.101
INTER + INTRA:          -4.203
INTER:                  -4.203
INTRA:                   0.000
UNBOUND:                 0.000

$$$$
