
     RDKit          3D

 73 70  0  0  0  0  0  0  0  0999 V2000
   45.1798    7.1163   10.6704 O   0  0  0  0  0  0  0  0  0  0  0  0
   45.1442    1.9844    7.5320 Br  0  0  0  0  0  0  0  0  0  0  0  0
   44.5144    5.3836   13.4764 O   0  0  0  0  0  0  0  0  0  0  0  0
   45.0905   11.5673    9.0815 O   0  0  0  0  0  0  0  0  0  0  0  0
   43.7716    9.7528    8.5747 O   0  0  0  0  0  0  0  0  0  0  0  0
   43.1377    7.7625   10.9138 N   0  0  0  0  0  0  0  0  0  0  0  0
   45.1377    7.2742   12.2821 C   0  0  0  0  0  0  0  0  0  0  0  0
   44.3336    8.1592   11.5392 C   0  0  0  0  0  0  0  0  0  0  0  0
   44.8411    5.8339   12.3749 C   0  0  0  0  0  0  0  0  0  0  0  0
   44.6753    9.5304   11.5411 C   0  0  0  0  0  0  0  0  0  0  0  0
   44.9388    4.9476   11.1797 C   0  0  0  0  0  0  0  0  0  0  0  0
   46.2904    7.7194   12.9618 C   0  0  0  0  0  0  0  0  0  0  0  0
   45.8633    9.9545   12.1682 C   0  0  0  0  0  0  0  0  0  0  0  0
   46.6644    9.0573   12.8841 C   0  0  0  0  0  0  0  0  0  0  0  0
   43.8297   10.5503   10.8171 C   0  0  0  0  0  0  0  0  0  0  0  0
   44.6158    3.5867   11.3490 C   0  0  0  0  0  0  0  0  0  0  0  0
   45.3226    5.4085    9.9119 C   0  0  0  0  0  0  0  0  0  0  0  0
   45.0469    3.1809    8.9992 C   0  0  0  0  0  0  0  0  0  0  0  0
   44.6728    2.7103   10.2605 C   0  0  0  0  0  0  0  0  0  0  0  0
   45.3637    4.5291    8.8226 C   0  0  0  0  0  0  0  0  0  0  0  0
   44.2713   10.6307    9.3528 C   0  0  0  0  0  0  0  0  0  0  0  0
   46.5997    2.2459    7.1463 Br  0  0  0  0  0  0  0  0  0  0  0  0
   42.7027    5.5014   11.6768 O   0  0  0  0  0  0  0  0  0  0  0  0
   43.6513   10.7567    9.6671 O   0  0  0  0  0  0  0  0  0  0  0  0
   45.3668   12.0958   10.3365 O   0  0  0  0  0  0  0  0  0  0  0  0
   42.8509    8.5311   10.9222 N   0  0  0  0  0  0  0  0  0  0  0  0
   44.5050    6.9977   11.9040 C   0  0  0  0  0  0  0  0  0  0  0  0
   44.0130    8.2925   11.6631 C   0  0  0  0  0  0  0  0  0  0  0  0
   43.8339    5.8163   11.3303 C   0  0  0  0  0  0  0  0  0  0  0  0
   44.7166    9.3873   12.2054 C   0  0  0  0  0  0  0  0  0  0  0  0
   44.5524    4.9753   10.3385 C   0  0  0  0  0  0  0  0  0  0  0  0
   45.6816    6.7831   12.6370 C   0  0  0  0  0  0  0  0  0  0  0  0
   45.8946    9.1628   12.9499 C   0  0  0  0  0  0  0  0  0  0  0  0
   46.3763    7.8679   13.1615 C   0  0  0  0  0  0  0  0  0  0  0  0
   44.2451   10.8158   11.9755 C   0  0  0  0  0  0  0  0  0  0  0  0
   45.3919    5.5434    9.3699 C   0  0  0  0  0  0  0  0  0  0  0  0
   44.3294    3.5906   10.3559 C   0  0  0  0  0  0  0  0  0  0  0  0
   45.7850    3.3469    8.4490 C   0  0  0  0  0  0  0  0  0  0  0  0
   46.0077    4.7272    8.4233 C   0  0  0  0  0  0  0  0  0  0  0  0
   44.9496    2.7752    9.4119 C   0  0  0  0  0  0  0  0  0  0  0  0
   44.4406   11.2542   10.5245 C   0  0  0  0  0  0  0  0  0  0  0  0
   44.9067    7.0971   10.9601 Na  0  0  0  0  0 15  0  0  0  0  0  0
   44.9067    7.0971   10.9601 Na  0  0  0  0  0 15  0  0  0  0  0  0
   45.1796    7.1215   10.6707 O   0  0  0  0  0  0  0  0  0  0  0  0
   45.1761    7.1683   10.6758 O   0  0  0  0  0  0  0  0  0  0  0  0
   44.7555    7.8489   11.1414 H   0  0  0  0  0  0  0  0  0  0  0  0
   44.7849    6.3260   11.0683 H   0  0  0  0  0  0  0  0  0  0  0  0
   42.9401    6.7684   10.8603 H   0  0  0  0  0  0  0  0  0  0  0  0
   43.0094    8.2644   10.0200 H   0  0  0  0  0  0  0  0  0  0  0  0
   46.8879    7.0344   13.5529 H   0  0  0  0  0  0  0  0  0  0  0  0
   46.1534   11.0006   12.1014 H   0  0  0  0  0  0  0  0  0  0  0  0
   47.5665    9.3987   13.3918 H   0  0  0  0  0  0  0  0  0  0  0  0
   43.9085   11.5265   11.3126 H   0  0  0  0  0  0  0  0  0  0  0  0
   42.7746   10.2824   10.8888 H   0  0  0  0  0  0  0  0  0  0  0  0
   44.3103    3.2186   12.3278 H   0  0  0  0  0  0  0  0  0  0  0  0
   45.5809    6.4560    9.7392 H   0  0  0  0  0  0  0  0  0  0  0  0
   44.4211    1.6584   10.4079 H   0  0  0  0  0  0  0  0  0  0  0  0
   45.6518    4.9132    7.8402 H   0  0  0  0  0  0  0  0  0  0  0  0
   42.3956    7.7142   10.5227 H   0  0  0  0  0  0  0  0  0  0  0  0
   43.0059    9.2954   10.2403 H   0  0  0  0  0  0  0  0  0  0  0  0
   46.0468    5.7679   12.8002 H   0  0  0  0  0  0  0  0  0  0  0  0
   46.4437   10.0168   13.3727 H   0  0  0  0  0  0  0  0  0  0  0  0
   47.2975    7.7220   13.7199 H   0  0  0  0  0  0  0  0  0  0  0  0
   43.2015   10.9070   12.2761 H   0  0  0  0  0  0  0  0  0  0  0  0
   44.7979   11.5118   12.6231 H   0  0  0  0  0  0  0  0  0  0  0  0
   45.5349    6.6214    9.3098 H   0  0  0  0  0  0  0  0  0  0  0  0
   43.6567    3.1736   11.0983 H   0  0  0  0  0  0  0  0  0  0  0  0
   46.6370    5.1793    7.6576 H   0  0  0  0  0  0  0  0  0  0  0  0
   44.7737    1.6960    9.4129 H   0  0  0  0  0  0  0  0  0  0  0  0
   44.7921    6.3227   11.0606 H   0  0  0  0  0  0  0  0  0  0  0  0
   44.7484    7.8472   11.1488 H   0  0  0  0  0  0  0  0  0  0  0  0
   44.6884    7.8138   11.2117 H   0  0  0  0  0  0  0  0  0  0  0  0
   44.8556    6.3092   10.9927 H   0  0  0  0  0  0  0  0  0  0  0  0
  2 18  1  0
  3  9  2  0
  4 21  1  0
  5 21  2  0
  6  8  1  0
  7  8  2  0
  7  9  1  0
  7 12  1  0
  8 10  1  0
  9 11  1  0
 10 13  2  0
 10 15  1  0
 11 16  2  0
 11 17  1  0
 12 14  2  0
 13 14  1  0
 15 21  1  0
 16 19  1  0
 17 20  2  0
 18 19  2  0
 18 20  1  0
 22 38  1  0
 23 29  2  0
 24 41  1  0
 25 41  2  0
 26 28  1  0
 27 28  2  0
 27 29  1  0
 27 32  1  0
 28 30  1  0
 29 31  1  0
 30 33  2  0
 30 35  1  0
 31 36  2  0
 31 37  1  0
 32 34  2  0
 33 34  1  0
 35 41  1  0
 36 39  1  0
 37 40  2  0
 38 39  2  0
 38 40  1  0
  1 46  1  0
  1 47  1  0
  6 48  1  0
  6 49  1  0
 12 50  1  0
 13 51  1  0
 14 52  1  0
 15 53  1  0
 15 54  1  0
 16 55  1  0
 17 56  1  0
 19 57  1  0
 20 58  1  0
 26 59  1  0
 26 60  1  0
 32 61  1  0
 33 62  1  0
 34 63  1  0
 35 64  1  0
 35 65  1  0
 36 66  1  0
 37 67  1  0
 39 68  1  0
 40 69  1  0
 44 70  1  0
 44 71  1  0
 45 72  1  0
 45 73  1  0
M  CHG  4   4  -1  24  -1  42   1  43   1
M  END
> <Uni-Dock RESULT> 
ENERGY=   -7.643  LOWER_BOUND=    0.000  UPPER_BOUND=    0.000
INTER + INTRA:          -7.643
INTER:                  -7.643
INTRA:                   0.000
UNBOUND:                 0.000

$$$$

     RDKit          3D

 73 70  0  0  0  0  0  0  0  0999 V2000
   48.0047    8.1706   11.7470 O   0  0  0  0  0  0  0  0  0  0  0  0
   43.7186    3.9834   12.2811 Br  0  0  0  0  0  0  0  0  0  0  0  0
   49.6778    6.7575   14.3009 O   0  0  0  0  0  0  0  0  0  0  0  0
   47.9143   12.2147    9.3014 O   0  0  0  0  0  0  0  0  0  0  0  0
   46.4200   11.3210   10.8037 O   0  0  0  0  0  0  0  0  0  0  0  0
   47.6209    9.7070   13.2094 N   0  0  0  0  0  0  0  0  0  0  0  0
   49.4417    8.1959   12.4941 C   0  0  0  0  0  0  0  0  0  0  0  0
   48.7474    9.4181   12.4181 C   0  0  0  0  0  0  0  0  0  0  0  0
   48.9776    7.0805   13.3375 C   0  0  0  0  0  0  0  0  0  0  0  0
   49.2909   10.4438   11.6122 C   0  0  0  0  0  0  0  0  0  0  0  0
   47.7076    6.3604   13.0338 C   0  0  0  0  0  0  0  0  0  0  0  0
   50.6134    7.9657   11.7436 C   0  0  0  0  0  0  0  0  0  0  0  0
   50.4241   10.1824   10.8170 C   0  0  0  0  0  0  0  0  0  0  0  0
   51.0902    8.9533   10.8872 C   0  0  0  0  0  0  0  0  0  0  0  0
   48.6373   11.8019   11.5247 C   0  0  0  0  0  0  0  0  0  0  0  0
   47.3237    5.3205   13.9033 C   0  0  0  0  0  0  0  0  0  0  0  0
   46.8876    6.6783   11.9412 C   0  0  0  0  0  0  0  0  0  0  0  0
   45.3188    4.9507   12.5935 C   0  0  0  0  0  0  0  0  0  0  0  0
   46.1340    4.6201   13.6791 C   0  0  0  0  0  0  0  0  0  0  0  0
   45.6901    5.9831   11.7302 C   0  0  0  0  0  0  0  0  0  0  0  0
   47.5544   11.7770   10.4419 C   0  0  0  0  0  0  0  0  0  0  0  0
   44.0228    3.5336   10.8525 Br  0  0  0  0  0  0  0  0  0  0  0  0
   47.4426    7.8901   14.8067 O   0  0  0  0  0  0  0  0  0  0  0  0
   47.6267   12.1627   11.0293 O   0  0  0  0  0  0  0  0  0  0  0  0
   49.2741   12.4365    9.4816 O   0  0  0  0  0  0  0  0  0  0  0  0
   47.7471   10.5143   13.1359 N   0  0  0  0  0  0  0  0  0  0  0  0
   48.7847    8.2947   12.9163 C   0  0  0  0  0  0  0  0  0  0  0  0
   48.7714    9.6800   12.6764 C   0  0  0  0  0  0  0  0  0  0  0  0
   47.6716    7.6415   13.6300 C   0  0  0  0  0  0  0  0  0  0  0  0
   49.8438   10.2447   11.9561 C   0  0  0  0  0  0  0  0  0  0  0  0
   46.8326    6.6417   12.9203 C   0  0  0  0  0  0  0  0  0  0  0  0
   49.8149    7.4749   12.4322 C   0  0  0  0  0  0  0  0  0  0  0  0
   50.8815    9.4146   11.4803 C   0  0  0  0  0  0  0  0  0  0  0  0
   50.8652    8.0367   11.7142 C   0  0  0  0  0  0  0  0  0  0  0  0
   49.8879   11.7352   11.6529 C   0  0  0  0  0  0  0  0  0  0  0  0
   46.4818    6.8064   11.5729 C   0  0  0  0  0  0  0  0  0  0  0  0
   46.3477    5.5449   13.6478 C   0  0  0  0  0  0  0  0  0  0  0  0
   45.1736    4.7807   11.6852 C   0  0  0  0  0  0  0  0  0  0  0  0
   45.6499    5.8745   10.9556 C   0  0  0  0  0  0  0  0  0  0  0  0
   45.5200    4.6114   13.0280 C   0  0  0  0  0  0  0  0  0  0  0  0
   48.8285   12.1404   10.6286 C   0  0  0  0  0  0  0  0  0  0  0  0
   48.1461    8.2630   12.1079 Na  0  0  0  0  0 15  0  0  0  0  0  0
   48.1461    8.2630   12.1079 Na  0  0  0  0  0 15  0  0  0  0  0  0
   48.0064    8.1751   11.7451 O   0  0  0  0  0  0  0  0  0  0  0  0
   48.0234    8.2170   11.7320 O   0  0  0  0  0  0  0  0  0  0  0  0
   48.4706    8.9755   12.0181 H   0  0  0  0  0  0  0  0  0  0  0  0
   47.9630    7.6430   12.5586 H   0  0  0  0  0  0  0  0  0  0  0  0
   47.2007    8.9432   13.7293 H   0  0  0  0  0  0  0  0  0  0  0  0
   46.9415   10.2793   12.6821 H   0  0  0  0  0  0  0  0  0  0  0  0
   51.1553    7.0307   11.8297 H   0  0  0  0  0  0  0  0  0  0  0  0
   50.7906   10.9561   10.1463 H   0  0  0  0  0  0  0  0  0  0  0  0
   51.9838    8.7691   10.2910 H   0  0  0  0  0  0  0  0  0  0  0  0
   49.3919   12.5716   11.3178 H   0  0  0  0  0  0  0  0  0  0  0  0
   48.2120   12.0770   12.4909 H   0  0  0  0  0  0  0  0  0  0  0  0
   47.9496    5.0688   14.7589 H   0  0  0  0  0  0  0  0  0  0  0  0
   47.1499    7.4775   11.2439 H   0  0  0  0  0  0  0  0  0  0  0  0
   45.8509    3.8159   14.3608 H   0  0  0  0  0  0  0  0  0  0  0  0
   45.0592    6.2575   10.8804 H   0  0  0  0  0  0  0  0  0  0  0  0
   46.9784   10.0585   13.6213 H   0  0  0  0  0  0  0  0  0  0  0  0
   47.4406   11.1594   12.3855 H   0  0  0  0  0  0  0  0  0  0  0  0
   49.7949    6.4009   12.6239 H   0  0  0  0  0  0  0  0  0  0  0  0
   51.7179    9.8549   10.9182 H   0  0  0  0  0  0  0  0  0  0  0  0
   51.6650    7.4153   11.3190 H   0  0  0  0  0  0  0  0  0  0  0  0
   49.7741   12.2982   12.5791 H   0  0  0  0  0  0  0  0  0  0  0  0
   50.8747   12.0180   11.2583 H   0  0  0  0  0  0  0  0  0  0  0  0
   46.8068    7.6790   11.0081 H   0  0  0  0  0  0  0  0  0  0  0  0
   46.6108    5.4490   14.6962 H   0  0  0  0  0  0  0  0  0  0  0  0
   45.3602    6.0240    9.9161 H   0  0  0  0  0  0  0  0  0  0  0  0
   45.1303    3.7586   13.5906 H   0  0  0  0  0  0  0  0  0  0  0  0
   47.9580    7.6372   12.5506 H   0  0  0  0  0  0  0  0  0  0  0  0
   48.4738    8.9768   12.0278 H   0  0  0  0  0  0  0  0  0  0  0  0
   48.4955    8.9718   12.1183 H   0  0  0  0  0  0  0  0  0  0  0  0
   47.9193    7.6002   12.4734 H   0  0  0  0  0  0  0  0  0  0  0  0
  2 18  1  0
  3  9  2  0
  4 21  1  0
  5 21  2  0
  6  8  1  0
  7  8  2  0
  7  9  1  0
  7 12  1  0
  8 10  1  0
  9 11  1  0
 10 13  2  0
 10 15  1  0
 11 16  2  0
 11 17  1  0
 12 14  2  0
 13 14  1  0
 15 21  1  0
 16 19  1  0
 17 20  2  0
 18 19  2  0
 18 20  1  0
 22 38  1  0
 23 29  2  0
 24 41  1  0
 25 41  2  0
 26 28  1  0
 27 28  2  0
 27 29  1  0
 27 32  1  0
 28 30  1  0
 29 31  1  0
 30 33  2  0
 30 35  1  0
 31 36  2  0
 31 37  1  0
 32 34  2  0
 33 34  1  0
 35 41  1  0
 36 39  1  0
 37 40  2  0
 38 39  2  0
 38 40  1  0
  1 46  1  0
  1 47  1  0
  6 48  1  0
  6 49  1  0
 12 50  1  0
 13 51  1  0
 14 52  1  0
 15 53  1  0
 15 54  1  0
 16 55  1  0
 17 56  1  0
 19 57  1  0
 20 58  1  0
 26 59  1  0
 26 60  1  0
 32 61  1  0
 33 62  1  0
 34 63  1  0
 35 64  1  0
 35 65  1  0
 36 66  1  0
 37 67  1  0
 39 68  1  0
 40 69  1  0
 44 70  1  0
 44 71  1  0
 45 72  1  0
 45 73  1  0
M  CHG  4   4  -1  24  -1  42   1  43   1
M  END
> <Uni-Dock RESULT> 
ENERGY=   -7.207  LOWER_BOUND=    3.313  UPPER_BOUND=    4.375
INTER + INTRA:          -7.207
INTER:                  -7.207
INTRA:                   0.000
UNBOUND:                 0.000

$$$$

     RDKit          3D

 73 70  0  0  0  0  0  0  0  0999 V2000
   49.8164    5.7673   18.5257 O   0  0  0  0  0  0  0  0  0  0  0  0
   53.6019    1.2393   17.3616 Br  0  0  0  0  0  0  0  0  0  0  0  0
   47.2146    3.6771   18.1011 O   0  0  0  0  0  0  0  0  0  0  0  0
   50.7120   10.4037   18.7391 O   0  0  0  0  0  0  0  0  0  0  0  0
   51.2350    8.8333   17.1425 O   0  0  0  0  0  0  0  0  0  0  0  0
   49.1303    6.5627   16.6434 N   0  0  0  0  0  0  0  0  0  0  0  0
   48.2164    5.6657   18.7577 C   0  0  0  0  0  0  0  0  0  0  0  0
   48.6731    6.7337   17.9626 C   0  0  0  0  0  0  0  0  0  0  0  0
   48.2803    4.2655   18.3035 C   0  0  0  0  0  0  0  0  0  0  0  0
   48.5348    8.0464   18.4674 C   0  0  0  0  0  0  0  0  0  0  0  0
   49.5886    3.5789   18.1013 C   0  0  0  0  0  0  0  0  0  0  0  0
   47.6918    5.8798   20.0493 C   0  0  0  0  0  0  0  0  0  0  0  0
   48.0705    8.2449   19.7826 C   0  0  0  0  0  0  0  0  0  0  0  0
   47.6414    7.1694   20.5691 C   0  0  0  0  0  0  0  0  0  0  0  0
   48.9465    9.2479   17.6512 C   0  0  0  0  0  0  0  0  0  0  0  0
   49.5620    2.2470   17.6432 C   0  0  0  0  0  0  0  0  0  0  0  0
   50.8247    4.1991   18.3349 C   0  0  0  0  0  0  0  0  0  0  0  0
   51.9843    2.1864   17.6454 C   0  0  0  0  0  0  0  0  0  0  0  0
   50.7577    1.5569   17.4191 C   0  0  0  0  0  0  0  0  0  0  0  0
   52.0189    3.5077   18.0948 C   0  0  0  0  0  0  0  0  0  0  0  0
   50.4386    9.5204   17.8633 C   0  0  0  0  0  0  0  0  0  0  0  0
   54.1944    1.4158   18.7593 Br  0  0  0  0  0  0  0  0  0  0  0  0
   48.6346    4.2616   16.0574 O   0  0  0  0  0  0  0  0  0  0  0  0
   50.0062    9.6541   17.3210 O   0  0  0  0  0  0  0  0  0  0  0  0
   49.4620   10.6925   19.2728 O   0  0  0  0  0  0  0  0  0  0  0  0
   48.9622    7.3442   16.4588 N   0  0  0  0  0  0  0  0  0  0  0  0
   48.5138    5.5174   18.0441 C   0  0  0  0  0  0  0  0  0  0  0  0
   48.4774    6.8760   17.6844 C   0  0  0  0  0  0  0  0  0  0  0  0
   49.1246    4.5160   17.1501 C   0  0  0  0  0  0  0  0  0  0  0  0
   47.9153    7.7943   18.5947 C   0  0  0  0  0  0  0  0  0  0  0  0
   50.3366    3.7801   17.5938 C   0  0  0  0  0  0  0  0  0  0  0  0
   48.0359    5.0727   19.2858 C   0  0  0  0  0  0  0  0  0  0  0  0
   47.4278    7.3379   19.8383 C   0  0  0  0  0  0  0  0  0  0  0  0
   47.4911    5.9850   20.1832 C   0  0  0  0  0  0  0  0  0  0  0  0
   47.8525    9.2804   18.2734 C   0  0  0  0  0  0  0  0  0  0  0  0
   51.3455    4.4124   18.3342 C   0  0  0  0  0  0  0  0  0  0  0  0
   50.4788    2.4395   17.2067 C   0  0  0  0  0  0  0  0  0  0  0  0
   52.6255    2.3660   18.3024 C   0  0  0  0  0  0  0  0  0  0  0  0
   52.4920    3.7036   18.6875 C   0  0  0  0  0  0  0  0  0  0  0  0
   51.6234    1.7308   17.5648 C   0  0  0  0  0  0  0  0  0  0  0  0
   49.2375    9.9265   18.2907 C   0  0  0  0  0  0  0  0  0  0  0  0
   49.4894    5.7283   18.3014 Na  0  0  0  0  0 15  0  0  0  0  0  0
   49.4894    5.7283   18.3014 Na  0  0  0  0  0 15  0  0  0  0  0  0
   49.8154    5.7724   18.5263 O   0  0  0  0  0  0  0  0  0  0  0  0
   49.8032    5.8178   18.5294 O   0  0  0  0  0  0  0  0  0  0  0  0
   49.1787    6.4521   18.2749 H   0  0  0  0  0  0  0  0  0  0  0  0
   49.4729    4.9656   18.1037 H   0  0  0  0  0  0  0  0  0  0  0  0
   49.2902    5.6145   16.3183 H   0  0  0  0  0  0  0  0  0  0  0  0
   49.9068    7.2127   16.4391 H   0  0  0  0  0  0  0  0  0  0  0  0
   47.3183    5.0530   20.6429 H   0  0  0  0  0  0  0  0  0  0  0  0
   48.0366    9.2544   20.1857 H   0  0  0  0  0  0  0  0  0  0  0  0
   47.2555    7.3342   21.5750 H   0  0  0  0  0  0  0  0  0  0  0  0
   48.3379   10.1186   17.9272 H   0  0  0  0  0  0  0  0  0  0  0  0
   48.7308    9.0768   16.5956 H   0  0  0  0  0  0  0  0  0  0  0  0
   48.6077    1.7571   17.4523 H   0  0  0  0  0  0  0  0  0  0  0  0
   50.8881    5.2302   18.6905 H   0  0  0  0  0  0  0  0  0  0  0  0
   50.7206    0.5248   17.0656 H   0  0  0  0  0  0  0  0  0  0  0  0
   52.9712    4.0156   18.2700 H   0  0  0  0  0  0  0  0  0  0  0  0
   49.3887    6.6513   15.8487 H   0  0  0  0  0  0  0  0  0  0  0  0
   49.5441    8.1898   16.5980 H   0  0  0  0  0  0  0  0  0  0  0  0
   48.0860    4.0136   19.5436 H   0  0  0  0  0  0  0  0  0  0  0  0
   46.9896    8.0542   20.5485 H   0  0  0  0  0  0  0  0  0  0  0  0
   47.1287    5.6610   21.1556 H   0  0  0  0  0  0  0  0  0  0  0  0
   47.3645    9.4237   17.3095 H   0  0  0  0  0  0  0  0  0  0  0  0
   47.2186    9.8049   19.0030 H   0  0  0  0  0  0  0  0  0  0  0  0
   51.2748    5.4666   18.5982 H   0  0  0  0  0  0  0  0  0  0  0  0
   49.6978    1.9759   16.6129 H   0  0  0  0  0  0  0  0  0  0  0  0
   53.2831    4.2098   19.2395 H   0  0  0  0  0  0  0  0  0  0  0  0
   51.7461    0.6881   17.2590 H   0  0  0  0  0  0  0  0  0  0  0  0
   49.4822    4.9629   18.1091 H   0  0  0  0  0  0  0  0  0  0  0  0
   49.1705    6.4498   18.2689 H   0  0  0  0  0  0  0  0  0  0  0  0
   49.1035    6.4127   18.2159 H   0  0  0  0  0  0  0  0  0  0  0  0
   49.5614    4.9544   18.1590 H   0  0  0  0  0  0  0  0  0  0  0  0
  2 18  1  0
  3  9  2  0
  4 21  1  0
  5 21  2  0
  6  8  1  0
  7  8  2  0
  7  9  1  0
  7 12  1  0
  8 10  1  0
  9 11  1  0
 10 13  2  0
 10 15  1  0
 11 16  2  0
 11 17  1  0
 12 14  2  0
 13 14  1  0
 15 21  1  0
 16 19  1  0
 17 20  2  0
 18 19  2  0
 18 20  1  0
 22 38  1  0
 23 29  2  0
 24 41  1  0
 25 41  2  0
 26 28  1  0
 27 28  2  0
 27 29  1  0
 27 32  1  0
 28 30  1  0
 29 31  1  0
 30 33  2  0
 30 35  1  0
 31 36  2  0
 31 37  1  0
 32 34  2  0
 33 34  1  0
 35 41  1  0
 36 39  1  0
 37 40  2  0
 38 39  2  0
 38 40  1  0
  1 46  1  0
  1 47  1  0
  6 48  1  0
  6 49  1  0
 12 50  1  0
 13 51  1  0
 14 52  1  0
 15 53  1  0
 15 54  1  0
 16 55  1  0
 17 56  1  0
 19 57  1  0
 20 58  1  0
 26 59  1  0
 26 60  1  0
 32 61  1  0
 33 62  1  0
 34 63  1  0
 35 64  1  0
 35 65  1  0
 36 66  1  0
 37 67  1  0
 39 68  1  0
 40 69  1  0
 44 70  1  0
 44 71  1  0
 45 72  1  0
 45 73  1  0
M  CHG  4   4  -1  24  -1  42   1  43   1
M  END
> <Uni-Dock RESULT> 
ENERGY=   -6.584  LOWER_BOUND=    8.163  UPPER_BOUND=    9.269
INTER + INTRA:          -6.584
INTER:                  -6.584
INTRA:                   0.000
UNBOUND:                 0.000

$$$$

     RDKit          3D

 73 70  0  0  0  0  0  0  0  0999 V2000
   48.9623    8.5189   15.0561 O   0  0  0  0  0  0  0  0  0  0  0  0
   47.6946    9.8671   20.7800 Br  0  0  0  0  0  0  0  0  0  0  0  0
   48.5680    5.2523   15.7574 O   0  0  0  0  0  0  0  0  0  0  0  0
   50.8111   11.2821   11.6959 O   0  0  0  0  0  0  0  0  0  0  0  0
   51.4850   10.8686   13.8555 O   0  0  0  0  0  0  0  0  0  0  0  0
   51.0420    7.9625   14.9477 N   0  0  0  0  0  0  0  0  0  0  0  0
   48.8171    7.0735   14.3395 C   0  0  0  0  0  0  0  0  0  0  0  0
   49.9770    7.8131   14.0410 C   0  0  0  0  0  0  0  0  0  0  0  0
   48.5830    6.4830   15.6690 C   0  0  0  0  0  0  0  0  0  0  0  0
   50.1315    8.3076   12.7262 C   0  0  0  0  0  0  0  0  0  0  0  0
   48.3644    7.3431   16.8674 C   0  0  0  0  0  0  0  0  0  0  0  0
   47.8007    6.8776   13.3816 C   0  0  0  0  0  0  0  0  0  0  0  0
   49.0829    8.1628   11.7966 C   0  0  0  0  0  0  0  0  0  0  0  0
   47.9256    7.4435   12.1166 C   0  0  0  0  0  0  0  0  0  0  0  0
   51.3735    9.0594   12.3120 C   0  0  0  0  0  0  0  0  0  0  0  0
   48.1708    6.6992   18.1055 C   0  0  0  0  0  0  0  0  0  0  0  0
   48.3546    8.7446   16.8146 C   0  0  0  0  0  0  0  0  0  0  0  0
   47.9792    8.8495   19.2061 C   0  0  0  0  0  0  0  0  0  0  0  0
   47.9776    7.4536   19.2672 C   0  0  0  0  0  0  0  0  0  0  0  0
   48.1753    9.4948   17.9837 C   0  0  0  0  0  0  0  0  0  0  0  0
   51.2084   10.5431   12.6541 C   0  0  0  0  0  0  0  0  0  0  0  0
   46.4920   10.6739   20.2916 Br  0  0  0  0  0  0  0  0  0  0  0  0
   50.5547    6.4759   16.8015 O   0  0  0  0  0  0  0  0  0  0  0  0
   51.7801   10.1323   12.5960 O   0  0  0  0  0  0  0  0  0  0  0  0
   50.5509   10.3567   10.6926 O   0  0  0  0  0  0  0  0  0  0  0  0
   51.5711    8.1099   14.3382 N   0  0  0  0  0  0  0  0  0  0  0  0
   49.3646    7.1760   14.8957 C   0  0  0  0  0  0  0  0  0  0  0  0
   50.3018    7.6565   13.9644 C   0  0  0  0  0  0  0  0  0  0  0  0
   49.6654    7.1792   16.3396 C   0  0  0  0  0  0  0  0  0  0  0  0
   49.9457    7.6648   12.6003 C   0  0  0  0  0  0  0  0  0  0  0  0
   48.8567    8.0253   17.2546 C   0  0  0  0  0  0  0  0  0  0  0  0
   48.0913    6.7408   14.4994 C   0  0  0  0  0  0  0  0  0  0  0  0
   48.6659    7.2165   12.2082 C   0  0  0  0  0  0  0  0  0  0  0  0
   47.7427    6.7603   13.1531 C   0  0  0  0  0  0  0  0  0  0  0  0
   50.9082    8.1803   11.5403 C   0  0  0  0  0  0  0  0  0  0  0  0
   48.4170    9.3008   16.8733 C   0  0  0  0  0  0  0  0  0  0  0  0
   48.5846    7.5397   18.5420 C   0  0  0  0  0  0  0  0  0  0  0  0
   47.4333    9.5946   19.0581 C   0  0  0  0  0  0  0  0  0  0  0  0
   47.7053   10.0864   17.7776 C   0  0  0  0  0  0  0  0  0  0  0  0
   47.8688    8.3242   19.4434 C   0  0  0  0  0  0  0  0  0  0  0  0
   51.0925    9.6950   11.6256 C   0  0  0  0  0  0  0  0  0  0  0  0
   49.1660    8.1767   15.0420 Na  0  0  0  0  0 15  0  0  0  0  0  0
   49.1660    8.1767   15.0420 Na  0  0  0  0  0 15  0  0  0  0  0  0
   48.9641    8.5202   15.0514 O   0  0  0  0  0  0  0  0  0  0  0  0
   48.9827    8.5286   15.0089 O   0  0  0  0  0  0  0  0  0  0  0  0
   49.5380    8.1950   14.3475 H   0  0  0  0  0  0  0  0  0  0  0  0
   48.9977    7.8163   15.7224 H   0  0  0  0  0  0  0  0  0  0  0  0
   50.8912    7.6649   15.9063 H   0  0  0  0  0  0  0  0  0  0  0  0
   51.4658    8.9006   14.8615 H   0  0  0  0  0  0  0  0  0  0  0  0
   46.9237    6.2839   13.6134 H   0  0  0  0  0  0  0  0  0  0  0  0
   49.1837    8.6103   10.8105 H   0  0  0  0  0  0  0  0  0  0  0  0
   47.1315    7.3105   11.3820 H   0  0  0  0  0  0  0  0  0  0  0  0
   51.5628    8.9148   11.2407 H   0  0  0  0  0  0  0  0  0  0  0  0
   52.2491    8.6424   12.8116 H   0  0  0  0  0  0  0  0  0  0  0  0
   48.1826    5.6111   18.1596 H   0  0  0  0  0  0  0  0  0  0  0  0
   48.5010    9.2817   15.8745 H   0  0  0  0  0  0  0  0  0  0  0  0
   47.8273    6.9401   20.2188 H   0  0  0  0  0  0  0  0  0  0  0  0
   48.1857   10.5864   17.9214 H   0  0  0  0  0  0  0  0  0  0  0  0
   51.7714    8.1167   15.3353 H   0  0  0  0  0  0  0  0  0  0  0  0
   51.7911    9.0042   13.8640 H   0  0  0  0  0  0  0  0  0  0  0  0
   47.3793    6.3825   15.2446 H   0  0  0  0  0  0  0  0  0  0  0  0
   48.3880    7.2232   11.1441 H   0  0  0  0  0  0  0  0  0  0  0  0
   46.7556    6.4403   12.8287 H   0  0  0  0  0  0  0  0  0  0  0  0
   51.8628    7.6628   11.6335 H   0  0  0  0  0  0  0  0  0  0  0  0
   50.5392    7.9343   10.5339 H   0  0  0  0  0  0  0  0  0  0  0  0
   48.6641    9.7139   15.8962 H   0  0  0  0  0  0  0  0  0  0  0  0
   48.9551    6.5600   18.8258 H   0  0  0  0  0  0  0  0  0  0  0  0
   47.3906   11.0868   17.4828 H   0  0  0  0  0  0  0  0  0  0  0  0
   47.6606    7.9568   20.4520 H   0  0  0  0  0  0  0  0  0  0  0  0
   48.9910    7.8243   15.7262 H   0  0  0  0  0  0  0  0  0  0  0  0
   49.5428    8.1858   14.3483 H   0  0  0  0  0  0  0  0  0  0  0  0
   49.5777    8.1026   14.3715 H   0  0  0  0  0  0  0  0  0  0  0  0
   48.9375    7.8990   15.7456 H   0  0  0  0  0  0  0  0  0  0  0  0
  2 18  1  0
  3  9  2  0
  4 21  1  0
  5 21  2  0
  6  8  1  0
  7  8  2  0
  7  9  1  0
  7 12  1  0
  8 10  1  0
  9 11  1  0
 10 13  2  0
 10 15  1  0
 11 16  2  0
 11 17  1  0
 12 14  2  0
 13 14  1  0
 15 21  1  0
 16 19  1  0
 17 20  2  0
 18 19  2  0
 18 20  1  0
 22 38  1  0
 23 29  2  0
 24 41  1  0
 25 41  2  0
 26 28  1  0
 27 28  2  0
 27 29  1  0
 27 32  1  0
 28 30  1  0
 29 31  1  0
 30 33  2  0
 30 35  1  0
 31 36  2  0
 31 37  1  0
 32 34  2  0
 33 34  1  0
 35 41  1  0
 36 39  1  0
 37 40  2  0
 38 39  2  0
 38 40  1  0
  1 46  1  0
  1 47  1  0
  6 48  1  0
  6 49  1  0
 12 50  1  0
 13 51  1  0
 14 52  1  0
 15 53  1  0
 15 54  1  0
 16 55  1  0
 17 56  1  0
 19 57  1  0
 20 58  1  0
 26 59  1  0
 26 60  1  0
 32 61  1  0
 33 62  1  0
 34 63  1  0
 35 64  1  0
 35 65  1  0
 36 66  1  0
 37 67  1  0
 39 68  1  0
 40 69  1  0
 44 70  1  0
 44 71  1  0
 45 72  1  0
 45 73  1  0
M  CHG  4   4  -1  24  -1  42   1  43   1
M  END
> <Uni-Dock RESULT> 
ENERGY=   -6.418  LOWER_BOUND=    6.023  UPPER_BOUND=    8.106
INTER + INTRA:          -6.418
INTER:                  -6.418
INTRA:                   0.000
UNBOUND:                 0.000

$$$$

     RDKit          3D

 73 70  0  0  0  0  0  0  0  0999 V2000
   49.2009    5.3891   17.4757 O   0  0  0  0  0  0  0  0  0  0  0  0
   46.1388    6.4769   12.4134 Br  0  0  0  0  0  0  0  0  0  0  0  0
   48.7799    2.0855   16.9989 O   0  0  0  0  0  0  0  0  0  0  0  0
   50.4415    8.4030   20.8994 O   0  0  0  0  0  0  0  0  0  0  0  0
   48.4156    8.0214   19.8799 O   0  0  0  0  0  0  0  0  0  0  0  0
   47.7755    5.0631   19.0595 N   0  0  0  0  0  0  0  0  0  0  0  0
   49.7189    3.9511   18.0122 C   0  0  0  0  0  0  0  0  0  0  0  0
   49.1576    4.8177   18.9690 C   0  0  0  0  0  0  0  0  0  0  0  0
   48.9086    3.3121   16.9605 C   0  0  0  0  0  0  0  0  0  0  0  0
   50.0076    5.3523   19.9633 C   0  0  0  0  0  0  0  0  0  0  0  0
   48.2705    4.1193   15.8811 C   0  0  0  0  0  0  0  0  0  0  0  0
   51.1000    3.6657   17.9963 C   0  0  0  0  0  0  0  0  0  0  0  0
   51.3946    5.1136   19.9001 C   0  0  0  0  0  0  0  0  0  0  0  0
   51.9402    4.2671   18.9280 C   0  0  0  0  0  0  0  0  0  0  0  0
   49.4708    6.2422   21.0584 C   0  0  0  0  0  0  0  0  0  0  0  0
   47.4929    3.4335   14.9272 C   0  0  0  0  0  0  0  0  0  0  0  0
   48.4023    5.5123   15.7847 C   0  0  0  0  0  0  0  0  0  0  0  0
   46.9855    5.5278   13.8192 C   0  0  0  0  0  0  0  0  0  0  0  0
   46.8562    4.1390   13.9012 C   0  0  0  0  0  0  0  0  0  0  0  0
   47.7504    6.2150   14.7635 C   0  0  0  0  0  0  0  0  0  0  0  0
   49.4386    7.6922   20.5662 C   0  0  0  0  0  0  0  0  0  0  0  0
   47.3824    7.1586   11.8438 Br  0  0  0  0  0  0  0  0  0  0  0  0
   46.7176    3.4956   17.5403 O   0  0  0  0  0  0  0  0  0  0  0  0
   49.0506    7.3468   21.0450 O   0  0  0  0  0  0  0  0  0  0  0  0
   51.2755    7.4752   21.5113 O   0  0  0  0  0  0  0  0  0  0  0  0
   47.8416    5.2791   19.8483 N   0  0  0  0  0  0  0  0  0  0  0  0
   48.9464    4.1010   17.9926 C   0  0  0  0  0  0  0  0  0  0  0  0
   48.9727    4.6987   19.2649 C   0  0  0  0  0  0  0  0  0  0  0  0
   47.7151    4.1077   17.1809 C   0  0  0  0  0  0  0  0  0  0  0  0
   50.1875    4.6959   19.9805 C   0  0  0  0  0  0  0  0  0  0  0  0
   47.6926    4.8428   15.8900 C   0  0  0  0  0  0  0  0  0  0  0  0
   50.0973    3.5387   17.4208 C   0  0  0  0  0  0  0  0  0  0  0  0
   51.3391    4.1197   19.4023 C   0  0  0  0  0  0  0  0  0  0  0  0
   51.2949    3.5474   18.1280 C   0  0  0  0  0  0  0  0  0  0  0  0
   50.2889    5.3336   21.3585 C   0  0  0  0  0  0  0  0  0  0  0  0
   48.3517    6.0707   15.7365 C   0  0  0  0  0  0  0  0  0  0  0  0
   46.9453    4.3048   14.8320 C   0  0  0  0  0  0  0  0  0  0  0  0
   47.5216    6.2124   13.4742 C   0  0  0  0  0  0  0  0  0  0  0  0
   48.2644    6.7564   14.5267 C   0  0  0  0  0  0  0  0  0  0  0  0
   46.8630    4.9891   13.6214 C   0  0  0  0  0  0  0  0  0  0  0  0
   50.1934    6.8574   21.2900 C   0  0  0  0  0  0  0  0  0  0  0  0
   49.0458    5.0713   17.6594 Na  0  0  0  0  0 15  0  0  0  0  0  0
   49.0458    5.0713   17.6594 Na  0  0  0  0  0 15  0  0  0  0  0  0
   49.2030    5.3906   17.4802 O   0  0  0  0  0  0  0  0  0  0  0  0
   49.2204    5.4018   17.5226 O   0  0  0  0  0  0  0  0  0  0  0  0
   49.2748    5.1436   18.4099 H   0  0  0  0  0  0  0  0  0  0  0  0
   48.6617    4.6811   17.0925 H   0  0  0  0  0  0  0  0  0  0  0  0
   47.1865    4.7317   18.3022 H   0  0  0  0  0  0  0  0  0  0  0  0
   47.5959    6.0431   19.3325 H   0  0  0  0  0  0  0  0  0  0  0  0
   51.5179    2.9761   17.2716 H   0  0  0  0  0  0  0  0  0  0  0  0
   52.0477    5.5891   20.6283 H   0  0  0  0  0  0  0  0  0  0  0  0
   53.0108    4.0637   18.9040 H   0  0  0  0  0  0  0  0  0  0  0  0
   50.0845    6.1405   21.9626 H   0  0  0  0  0  0  0  0  0  0  0  0
   48.4743    5.9124   21.3558 H   0  0  0  0  0  0  0  0  0  0  0  0
   47.3783    2.3522   14.9957 H   0  0  0  0  0  0  0  0  0  0  0  0
   48.9963    6.0808   16.5042 H   0  0  0  0  0  0  0  0  0  0  0  0
   46.2584    3.5934   13.1687 H   0  0  0  0  0  0  0  0  0  0  0  0
   47.8553    7.3024   14.7161 H   0  0  0  0  0  0  0  0  0  0  0  0
   46.9969    5.2876   19.2820 H   0  0  0  0  0  0  0  0  0  0  0  0
   48.0771    6.2013   20.2571 H   0  0  0  0  0  0  0  0  0  0  0  0
   50.0511    3.0906   16.4270 H   0  0  0  0  0  0  0  0  0  0  0  0
   52.2868    4.1177   19.9604 H   0  0  0  0  0  0  0  0  0  0  0  0
   52.2002    3.1292   17.6953 H   0  0  0  0  0  0  0  0  0  0  0  0
   49.5174    4.9206   22.0079 H   0  0  0  0  0  0  0  0  0  0  0  0
   51.2443    5.0694   21.8348 H   0  0  0  0  0  0  0  0  0  0  0  0
   48.8929    6.5276   16.5639 H   0  0  0  0  0  0  0  0  0  0  0  0
   46.4224    3.3655   14.9792 H   0  0  0  0  0  0  0  0  0  0  0  0
   48.7571    7.7226   14.4244 H   0  0  0  0  0  0  0  0  0  0  0  0
   46.2749    4.5811   12.7947 H   0  0  0  0  0  0  0  0  0  0  0  0
   48.6642    4.6883   17.0844 H   0  0  0  0  0  0  0  0  0  0  0  0
   49.2703    5.1350   18.4136 H   0  0  0  0  0  0  0  0  0  0  0  0
   49.2241    5.0556   18.4292 H   0  0  0  0  0  0  0  0  0  0  0  0
   48.6929    4.7564   17.0264 H   0  0  0  0  0  0  0  0  0  0  0  0
  2 18  1  0
  3  9  2  0
  4 21  1  0
  5 21  2  0
  6  8  1  0
  7  8  2  0
  7  9  1  0
  7 12  1  0
  8 10  1  0
  9 11  1  0
 10 13  2  0
 10 15  1  0
 11 16  2  0
 11 17  1  0
 12 14  2  0
 13 14  1  0
 15 21  1  0
 16 19  1  0
 17 20  2  0
 18 19  2  0
 18 20  1  0
 22 38  1  0
 23 29  2  0
 24 41  1  0
 25 41  2  0
 26 28  1  0
 27 28  2  0
 27 29  1  0
 27 32  1  0
 28 30  1  0
 29 31  1  0
 30 33  2  0
 30 35  1  0
 31 36  2  0
 31 37  1  0
 32 34  2  0
 33 34  1  0
 35 41  1  0
 36 39  1  0
 37 40  2  0
 38 39  2  0
 38 40  1  0
  1 46  1  0
  1 47  1  0
  6 48  1  0
  6 49  1  0
 12 50  1  0
 13 51  1  0
 14 52  1  0
 15 53  1  0
 15 54  1  0
 16 55  1  0
 17 56  1  0
 19 57  1  0
 20 58  1  0
 26 59  1  0
 26 60  1  0
 32 61  1  0
 33 62  1  0
 34 63  1  0
 35 64  1  0
 35 65  1  0
 36 66  1  0
 37 67  1  0
 39 68  1  0
 40 69  1  0
 44 70  1  0
 44 71  1  0
 45 72  1  0
 45 73  1  0
M  CHG  4   4  -1  24  -1  42   1  43   1
M  END
> <Uni-Dock RESULT> 
ENERGY=   -6.231  LOWER_BOUND=    7.059  UPPER_BOUND=    8.938
INTER + INTRA:          -6.231
INTER:                  -6.231
INTRA:                   0.000
UNBOUND:                 0.000

$$$$

     RDKit          3D

 73 70  0  0  0  0  0  0  0  0999 V2000
   52.1816    7.4663   10.7239 O   0  0  0  0  0  0  0  0  0  0  0  0
   46.7832    9.4053   12.5366 Br  0  0  0  0  0  0  0  0  0  0  0  0
   53.6370    9.9578   12.4539 O   0  0  0  0  0  0  0  0  0  0  0  0
   53.2290    4.3542    7.3237 O   0  0  0  0  0  0  0  0  0  0  0  0
   51.8616    6.2032    7.3139 O   0  0  0  0  0  0  0  0  0  0  0  0
   52.7842    8.6589    9.0323 N   0  0  0  0  0  0  0  0  0  0  0  0
   53.6271    7.9716   11.2522 C   0  0  0  0  0  0  0  0  0  0  0  0
   53.4948    7.7751    9.8646 C   0  0  0  0  0  0  0  0  0  0  0  0
   52.9408    9.0673   11.9589 C   0  0  0  0  0  0  0  0  0  0  0  0
   54.2229    6.7205    9.2689 C   0  0  0  0  0  0  0  0  0  0  0  0
   51.4547    9.0966   12.0785 C   0  0  0  0  0  0  0  0  0  0  0  0
   54.4106    7.1098   12.0475 C   0  0  0  0  0  0  0  0  0  0  0  0
   54.9498    5.8269   10.0799 C   0  0  0  0  0  0  0  0  0  0  0  0
   55.0529    6.0233   11.4619 C   0  0  0  0  0  0  0  0  0  0  0  0
   54.1798    6.4815    7.7789 C   0  0  0  0  0  0  0  0  0  0  0  0
   50.8761   10.1916   12.7500 C   0  0  0  0  0  0  0  0  0  0  0  0
   50.6224    8.0996   11.5489 C   0  0  0  0  0  0  0  0  0  0  0  0
   48.6651    9.2890   12.3395 C   0  0  0  0  0  0  0  0  0  0  0  0
   49.4864   10.2823   12.8790 C   0  0  0  0  0  0  0  0  0  0  0  0
   49.2308    8.2033   11.6684 C   0  0  0  0  0  0  0  0  0  0  0  0
   52.9763    5.5971    7.4397 C   0  0  0  0  0  0  0  0  0  0  0  0
   46.5616    8.0558   13.2190 Br  0  0  0  0  0  0  0  0  0  0  0  0
   52.2268   10.5740   10.4128 O   0  0  0  0  0  0  0  0  0  0  0  0
   53.3245    6.0850    7.0659 O   0  0  0  0  0  0  0  0  0  0  0  0
   54.5644    4.2841    7.7011 O   0  0  0  0  0  0  0  0  0  0  0  0
   53.2104    8.4187    8.3738 N   0  0  0  0  0  0  0  0  0  0  0  0
   53.1757    8.4618   10.8331 C   0  0  0  0  0  0  0  0  0  0  0  0
   53.6787    7.9737    9.6144 C   0  0  0  0  0  0  0  0  0  0  0  0
   52.0750    9.4431   10.8566 C   0  0  0  0  0  0  0  0  0  0  0  0
   54.7057    7.0085    9.6529 C   0  0  0  0  0  0  0  0  0  0  0  0
   50.7693    9.0654   11.4565 C   0  0  0  0  0  0  0  0  0  0  0  0
   53.6498    7.9893   12.0659 C   0  0  0  0  0  0  0  0  0  0  0  0
   55.1842    6.5449   10.8974 C   0  0  0  0  0  0  0  0  0  0  0  0
   54.6566    7.0302   12.0971 C   0  0  0  0  0  0  0  0  0  0  0  0
   55.2892    6.4308    8.3718 C   0  0  0  0  0  0  0  0  0  0  0  0
   50.2357    7.7790   11.2952 C   0  0  0  0  0  0  0  0  0  0  0  0
   50.0473   10.0482   12.1493 C   0  0  0  0  0  0  0  0  0  0  0  0
   48.2713    8.4603   12.5217 C   0  0  0  0  0  0  0  0  0  0  0  0
   48.9840    7.4773   11.8279 C   0  0  0  0  0  0  0  0  0  0  0  0
   48.7983    9.7438   12.6857 C   0  0  0  0  0  0  0  0  0  0  0  0
   54.2950    5.5198    7.6525 C   0  0  0  0  0  0  0  0  0  0  0  0
   52.4224    7.7785   10.6658 Na  0  0  0  0  0 15  0  0  0  0  0  0
   52.4224    7.7785   10.6658 Na  0  0  0  0  0 15  0  0  0  0  0  0
   52.1846    7.4635   10.7208 O   0  0  0  0  0  0  0  0  0  0  0  0
   52.2140    7.4404   10.6921 O   0  0  0  0  0  0  0  0  0  0  0  0
   52.9823    7.5103   10.1804 H   0  0  0  0  0  0  0  0  0  0  0  0
   52.1035    8.3587   11.0932 H   0  0  0  0  0  0  0  0  0  0  0  0
   52.2110    9.3685    9.4774 H   0  0  0  0  0  0  0  0  0  0  0  0
   52.3023    8.1425    8.2786 H   0  0  0  0  0  0  0  0  0  0  0  0
   54.5273    7.2857   13.1109 H   0  0  0  0  0  0  0  0  0  0  0  0
   55.4469    4.9770    9.6180 H   0  0  0  0  0  0  0  0  0  0  0  0
   55.6419    5.3444   12.0786 H   0  0  0  0  0  0  0  0  0  0  0  0
   55.1192    6.0245    7.4423 H   0  0  0  0  0  0  0  0  0  0  0  0
   54.1230    7.4325    7.2473 H   0  0  0  0  0  0  0  0  0  0  0  0
   51.5123   10.9752   13.1601 H   0  0  0  0  0  0  0  0  0  0  0  0
   51.0318    7.2347   11.0215 H   0  0  0  0  0  0  0  0  0  0  0  0
   49.0531   11.1361   13.4034 H   0  0  0  0  0  0  0  0  0  0  0  0
   48.6006    7.4218   11.2353 H   0  0  0  0  0  0  0  0  0  0  0  0
   52.4468    9.0900    8.3949 H   0  0  0  0  0  0  0  0  0  0  0  0
   53.0409    7.6162    7.7410 H   0  0  0  0  0  0  0  0  0  0  0  0
   53.2342    8.3779   12.9970 H   0  0  0  0  0  0  0  0  0  0  0  0
   55.9851    5.7918   10.9275 H   0  0  0  0  0  0  0  0  0  0  0  0
   55.0266    6.6419   13.0427 H   0  0  0  0  0  0  0  0  0  0  0  0
   55.6177    7.2428    7.7234 H   0  0  0  0  0  0  0  0  0  0  0  0
   56.1950    5.8470    8.5911 H   0  0  0  0  0  0  0  0  0  0  0  0
   50.7592    7.0197   10.7159 H   0  0  0  0  0  0  0  0  0  0  0  0
   50.4670   11.0446   12.2417 H   0  0  0  0  0  0  0  0  0  0  0  0
   48.5646    6.4836   11.6751 H   0  0  0  0  0  0  0  0  0  0  0  0
   48.2249   10.5069   13.2192 H   0  0  0  0  0  0  0  0  0  0  0  0
   52.0950    8.3527   11.0970 H   0  0  0  0  0  0  0  0  0  0  0  0
   52.9878    7.5191   10.1796 H   0  0  0  0  0  0  0  0  0  0  0  0
   53.0244    7.6046   10.1842 H   0  0  0  0  0  0  0  0  0  0  0  0
   52.0289    8.2905   11.1212 H   0  0  0  0  0  0  0  0  0  0  0  0
  2 18  1  0
  3  9  2  0
  4 21  1  0
  5 21  2  0
  6  8  1  0
  7  8  2  0
  7  9  1  0
  7 12  1  0
  8 10  1  0
  9 11  1  0
 10 13  2  0
 10 15  1  0
 11 16  2  0
 11 17  1  0
 12 14  2  0
 13 14  1  0
 15 21  1  0
 16 19  1  0
 17 20  2  0
 18 19  2  0
 18 20  1  0
 22 38  1  0
 23 29  2  0
 24 41  1  0
 25 41  2  0
 26 28  1  0
 27 28  2  0
 27 29  1  0
 27 32  1  0
 28 30  1  0
 29 31  1  0
 30 33  2  0
 30 35  1  0
 31 36  2  0
 31 37  1  0
 32 34  2  0
 33 34  1  0
 35 41  1  0
 36 39  1  0
 37 40  2  0
 38 39  2  0
 38 40  1  0
  1 46  1  0
  1 47  1  0
  6 48  1  0
  6 49  1  0
 12 50  1  0
 13 51  1  0
 14 52  1  0
 15 53  1  0
 15 54  1  0
 16 55  1  0
 17 56  1  0
 19 57  1  0
 20 58  1  0
 26 59  1  0
 26 60  1  0
 32 61  1  0
 33 62  1  0
 34 63  1  0
 35 64  1  0
 35 65  1  0
 36 66  1  0
 37 67  1  0
 39 68  1  0
 40 69  1  0
 44 70  1  0
 44 71  1  0
 45 72  1  0
 45 73  1  0
M  CHG  4   4  -1  24  -1  42   1  43   1
M  END
> <Uni-Dock RESULT> 
ENERGY=   -6.225  LOWER_BOUND=    7.265  UPPER_BOUND=    9.114
INTER + INTRA:          -6.225
INTER:                  -6.225
INTRA:                   0.000
UNBOUND:                 0.000

$$$$

     RDKit          3D

 73 70  0  0  0  0  0  0  0  0999 V2000
   41.3619   12.3974   11.1376 O   0  0  0  0  0  0  0  0  0  0  0  0
   38.3273   12.8967   16.3077 Br  0  0  0  0  0  0  0  0  0  0  0  0
   38.5074   11.5647    9.5638 O   0  0  0  0  0  0  0  0  0  0  0  0
   46.0348   12.2368   10.4429 O   0  0  0  0  0  0  0  0  0  0  0  0
   44.6767   11.0592   11.8773 O   0  0  0  0  0  0  0  0  0  0  0  0
   41.8164   10.3127   10.8305 N   0  0  0  0  0  0  0  0  0  0  0  0
   40.7380   12.2014    9.6556 C   0  0  0  0  0  0  0  0  0  0  0  0
   41.8693   11.4261    9.9726 C   0  0  0  0  0  0  0  0  0  0  0  0
   39.4254   11.9679   10.2831 C   0  0  0  0  0  0  0  0  0  0  0  0
   43.0763   11.6992    9.2900 C   0  0  0  0  0  0  0  0  0  0  0  0
   39.2105   12.2168   11.7376 C   0  0  0  0  0  0  0  0  0  0  0  0
   40.8080   13.2646    8.7316 C   0  0  0  0  0  0  0  0  0  0  0  0
   43.1526   12.8033    8.4183 C   0  0  0  0  0  0  0  0  0  0  0  0
   42.0232   13.5786    8.1310 C   0  0  0  0  0  0  0  0  0  0  0  0
   44.3175   10.8744    9.5312 C   0  0  0  0  0  0  0  0  0  0  0  0
   37.9318   11.9463   12.2634 C   0  0  0  0  0  0  0  0  0  0  0  0
   40.2167   12.6915   12.5917 C   0  0  0  0  0  0  0  0  0  0  0  0
   38.6867   12.6084   14.4687 C   0  0  0  0  0  0  0  0  0  0  0  0
   37.6751   12.1445   13.6239 C   0  0  0  0  0  0  0  0  0  0  0  0
   39.9577   12.8741   13.9560 C   0  0  0  0  0  0  0  0  0  0  0  0
   45.0815   11.4428   10.7307 C   0  0  0  0  0  0  0  0  0  0  0  0
   38.7399   14.3669   16.3724 Br  0  0  0  0  0  0  0  0  0  0  0  0
   39.4635    9.9206   11.2717 O   0  0  0  0  0  0  0  0  0  0  0  0
   45.0438   10.7915   10.4599 O   0  0  0  0  0  0  0  0  0  0  0  0
   45.9061   12.3719    9.0660 O   0  0  0  0  0  0  0  0  0  0  0  0
   42.4895    9.9893   10.4909 N   0  0  0  0  0  0  0  0  0  0  0  0
   40.6736   11.6199   10.1823 C   0  0  0  0  0  0  0  0  0  0  0  0
   41.9282   11.0895    9.8343 C   0  0  0  0  0  0  0  0  0  0  0  0
   39.9047   11.0619   11.3104 C   0  0  0  0  0  0  0  0  0  0  0  0
   42.6357   11.6868    8.7711 C   0  0  0  0  0  0  0  0  0  0  0  0
   39.6333   11.9077   12.5014 C   0  0  0  0  0  0  0  0  0  0  0  0
   40.1372   12.7340    9.5198 C   0  0  0  0  0  0  0  0  0  0  0  0
   42.0852   12.8018    8.1031 C   0  0  0  0  0  0  0  0  0  0  0  0
   40.8443   13.3246    8.4779 C   0  0  0  0  0  0  0  0  0  0  0  0
   44.0029   11.1694    8.3484 C   0  0  0  0  0  0  0  0  0  0  0  0
   40.5920   12.8031   12.9959 C   0  0  0  0  0  0  0  0  0  0  0  0
   38.4054   11.7515   13.1612 C   0  0  0  0  0  0  0  0  0  0  0  0
   39.0931   13.3845   14.7966 C   0  0  0  0  0  0  0  0  0  0  0  0
   40.3211   13.5414   14.1462 C   0  0  0  0  0  0  0  0  0  0  0  0
   38.1339   12.4938   14.3082 C   0  0  0  0  0  0  0  0  0  0  0  0
   45.0759   11.4744    9.3930 C   0  0  0  0  0  0  0  0  0  0  0  0
   41.2079   12.1004   10.9211 Na  0  0  0  0  0 15  0  0  0  0  0  0
   41.2079   12.1004   10.9211 Na  0  0  0  0  0 15  0  0  0  0  0  0
   41.3663   12.3970   11.1349 O   0  0  0  0  0  0  0  0  0  0  0  0
   41.4051   12.3908   11.1088 O   0  0  0  0  0  0  0  0  0  0  0  0
   41.7843   11.8970   10.4237 H   0  0  0  0  0  0  0  0  0  0  0  0
   40.4775   12.0069   11.2019 H   0  0  0  0  0  0  0  0  0  0  0  0
   40.9660   10.1694   11.3660 H   0  0  0  0  0  0  0  0  0  0  0  0
   42.6816   10.2420   11.3905 H   0  0  0  0  0  0  0  0  0  0  0  0
   39.9248   13.8384    8.4747 H   0  0  0  0  0  0  0  0  0  0  0  0
   44.1056   13.0471    7.9544 H   0  0  0  0  0  0  0  0  0  0  0  0
   42.0834   14.4132    7.4325 H   0  0  0  0  0  0  0  0  0  0  0  0
   44.9428   10.8603    8.6292 H   0  0  0  0  0  0  0  0  0  0  0  0
   44.0479    9.8314    9.7033 H   0  0  0  0  0  0  0  0  0  0  0  0
   37.1442   11.5713   11.6106 H   0  0  0  0  0  0  0  0  0  0  0  0
   41.2210   12.9132   12.2231 H   0  0  0  0  0  0  0  0  0  0  0  0
   36.6788   11.9319   14.0161 H   0  0  0  0  0  0  0  0  0  0  0  0
   40.7611   13.2313   14.6061 H   0  0  0  0  0  0  0  0  0  0  0  0
   41.9591    9.6125   11.2725 H   0  0  0  0  0  0  0  0  0  0  0  0
   43.4855   10.1684   10.7123 H   0  0  0  0  0  0  0  0  0  0  0  0
   39.1657   13.1318    9.8173 H   0  0  0  0  0  0  0  0  0  0  0  0
   42.6371   13.2680    7.2739 H   0  0  0  0  0  0  0  0  0  0  0  0
   40.4512   14.1972    7.9623 H   0  0  0  0  0  0  0  0  0  0  0  0
   43.9412   10.0996    8.1497 H   0  0  0  0  0  0  0  0  0  0  0  0
   44.3092   11.6265    7.3962 H   0  0  0  0  0  0  0  0  0  0  0  0
   41.5700   12.8984   12.5262 H   0  0  0  0  0  0  0  0  0  0  0  0
   37.6868   11.0352   12.7764 H   0  0  0  0  0  0  0  0  0  0  0  0
   41.0817   14.2149   14.5392 H   0  0  0  0  0  0  0  0  0  0  0  0
   37.1829   12.3712   14.8338 H   0  0  0  0  0  0  0  0  0  0  0  0
   40.4782   12.0149   11.2095 H   0  0  0  0  0  0  0  0  0  0  0  0
   41.7792   11.8894   10.4188 H   0  0  0  0  0  0  0  0  0  0  0  0
   41.7201   11.8256   10.3856 H   0  0  0  0  0  0  0  0  0  0  0  0
   40.4985   12.0849   11.2687 H   0  0  0  0  0  0  0  0  0  0  0  0
  2 18  1  0
  3  9  2  0
  4 21  1  0
  5 21  2  0
  6  8  1  0
  7  8  2  0
  7  9  1  0
  7 12  1  0
  8 10  1  0
  9 11  1  0
 10 13  2  0
 10 15  1  0
 11 16  2  0
 11 17  1  0
 12 14  2  0
 13 14  1  0
 15 21  1  0
 16 19  1  0
 17 20  2  0
 18 19  2  0
 18 20  1  0
 22 38  1  0
 23 29  2  0
 24 41  1  0
 25 41  2  0
 26 28  1  0
 27 28  2  0
 27 29  1  0
 27 32  1  0
 28 30  1  0
 29 31  1  0
 30 33  2  0
 30 35  1  0
 31 36  2  0
 31 37  1  0
 32 34  2  0
 33 34  1  0
 35 41  1  0
 36 39  1  0
 37 40  2  0
 38 39  2  0
 38 40  1  0
  1 46  1  0
  1 47  1  0
  6 48  1  0
  6 49  1  0
 12 50  1  0
 13 51  1  0
 14 52  1  0
 15 53  1  0
 15 54  1  0
 16 55  1  0
 17 56  1  0
 19 57  1  0
 20 58  1  0
 26 59  1  0
 26 60  1  0
 32 61  1  0
 33 62  1  0
 34 63  1  0
 35 64  1  0
 35 65  1  0
 36 66  1  0
 37 67  1  0
 39 68  1  0
 40 69  1  0
 44 70  1  0
 44 71  1  0
 45 72  1  0
 45 73  1  0
M  CHG  4   4  -1  24  -1  42   1  43   1
M  END
> <Uni-Dock RESULT> 
ENERGY=   -6.174  LOWER_BOUND=    5.828  UPPER_BOUND=    8.243
INTER + INTRA:          -6.174
INTER:                  -6.174
INTRA:                   0.000
UNBOUND:                 0.000

$$$$

     RDKit          3D

 73 70  0  0  0  0  0  0  0  0999 V2000
   41.4407   15.0122   15.1268 O   0  0  0  0  0  0  0  0  0  0  0  0
   47.0338   16.2302   13.2770 Br  0  0  0  0  0  0  0  0  0  0  0  0
   40.7493   13.6946   12.1094 O   0  0  0  0  0  0  0  0  0  0  0  0
   39.1849   16.5652   18.9795 O   0  0  0  0  0  0  0  0  0  0  0  0
   40.3600   17.6933   17.3561 O   0  0  0  0  0  0  0  0  0  0  0  0
   40.1494   16.5905   14.4280 N   0  0  0  0  0  0  0  0  0  0  0  0
   40.3283   14.1262   14.3512 C   0  0  0  0  0  0  0  0  0  0  0  0
   39.8795   15.3152   14.9565 C   0  0  0  0  0  0  0  0  0  0  0  0
   41.2076   14.1306   13.1689 C   0  0  0  0  0  0  0  0  0  0  0  0
   39.0068   15.2108   16.0632 C   0  0  0  0  0  0  0  0  0  0  0  0
   42.6074   14.6384   13.2505 C   0  0  0  0  0  0  0  0  0  0  0  0
   39.9760   12.8599   14.8626 C   0  0  0  0  0  0  0  0  0  0  0  0
   38.7135   13.9442   16.6057 C   0  0  0  0  0  0  0  0  0  0  0  0
   39.1866   12.7718   16.0049 C   0  0  0  0  0  0  0  0  0  0  0  0
   38.4358   16.4389   16.7302 C   0  0  0  0  0  0  0  0  0  0  0  0
   43.3742   14.6292   12.0687 C   0  0  0  0  0  0  0  0  0  0  0  0
   43.1787   15.1267   14.4347 C   0  0  0  0  0  0  0  0  0  0  0  0
   45.2451   15.6023   13.2623 C   0  0  0  0  0  0  0  0  0  0  0  0
   44.6880   15.1087   12.0798 C   0  0  0  0  0  0  0  0  0  0  0  0
   44.4899   15.6190   14.4363 C   0  0  0  0  0  0  0  0  0  0  0  0
   39.4198   16.9480   17.7877 C   0  0  0  0  0  0  0  0  0  0  0  0
   47.5652   15.3191   14.3829 Br  0  0  0  0  0  0  0  0  0  0  0  0
   41.1629   16.2129   12.2567 O   0  0  0  0  0  0  0  0  0  0  0  0
   38.9312   17.2782   17.3988 O   0  0  0  0  0  0  0  0  0  0  0  0
   38.1300   15.6777   18.8061 O   0  0  0  0  0  0  0  0  0  0  0  0
   39.4969   16.9117   14.8075 N   0  0  0  0  0  0  0  0  0  0  0  0
   40.5478   14.8201   14.0512 C   0  0  0  0  0  0  0  0  0  0  0  0
   39.6015   15.5170   14.8228 C   0  0  0  0  0  0  0  0  0  0  0  0
   41.5242   15.5460   13.2176 C   0  0  0  0  0  0  0  0  0  0  0  0
   38.7173   14.7725   15.6300 C   0  0  0  0  0  0  0  0  0  0  0  0
   42.9733   15.4423   13.5286 C   0  0  0  0  0  0  0  0  0  0  0  0
   40.6448   13.4213   14.0943 C   0  0  0  0  0  0  0  0  0  0  0  0
   38.8149   13.3647   15.6609 C   0  0  0  0  0  0  0  0  0  0  0  0
   39.7757   12.6932   14.8999 C   0  0  0  0  0  0  0  0  0  0  0  0
   37.6750   15.4632   16.4974 C   0  0  0  0  0  0  0  0  0  0  0  0
   43.4361   15.4038   14.8514 C   0  0  0  0  0  0  0  0  0  0  0  0
   43.8833   15.4386   12.4612 C   0  0  0  0  0  0  0  0  0  0  0  0
   45.7075   15.3511   14.0357 C   0  0  0  0  0  0  0  0  0  0  0  0
   44.8056   15.3594   15.1044 C   0  0  0  0  0  0  0  0  0  0  0  0
   45.2520   15.3892   12.7155 C   0  0  0  0  0  0  0  0  0  0  0  0
   38.3119   16.2068   17.6709 C   0  0  0  0  0  0  0  0  0  0  0  0
   41.1868   15.0602   14.8234 Na  0  0  0  0  0 15  0  0  0  0  0  0
   41.1868   15.0602   14.8234 Na  0  0  0  0  0 15  0  0  0  0  0  0
   41.4368   15.0128   15.1301 O   0  0  0  0  0  0  0  0  0  0  0  0
   41.3990   15.0185   15.1576 O   0  0  0  0  0  0  0  0  0  0  0  0
   40.4857   15.1697   15.1660 H   0  0  0  0  0  0  0  0  0  0  0  0
   41.6341   14.9987   14.1774 H   0  0  0  0  0  0  0  0  0  0  0  0
   40.8307   16.6563   13.6784 H   0  0  0  0  0  0  0  0  0  0  0  0
   40.2926   17.2771   15.1864 H   0  0  0  0  0  0  0  0  0  0  0  0
   40.3052   11.9503   14.3731 H   0  0  0  0  0  0  0  0  0  0  0  0
   38.0993   13.8807   17.5010 H   0  0  0  0  0  0  0  0  0  0  0  0
   38.9307   11.7942   16.4134 H   0  0  0  0  0  0  0  0  0  0  0  0
   37.4579   16.2085   17.1721 H   0  0  0  0  0  0  0  0  0  0  0  0
   38.2339   17.2109   15.9863 H   0  0  0  0  0  0  0  0  0  0  0  0
   42.9388   14.2581   11.1415 H   0  0  0  0  0  0  0  0  0  0  0  0
   42.6175   15.1506   15.3719 H   0  0  0  0  0  0  0  0  0  0  0  0
   45.2700   15.0937   11.1564 H   0  0  0  0  0  0  0  0  0  0  0  0
   44.9101   16.0083   15.3677 H   0  0  0  0  0  0  0  0  0  0  0  0
   40.1767   17.4082   14.2369 H   0  0  0  0  0  0  0  0  0  0  0  0
   39.4161   17.2800   15.7724 H   0  0  0  0  0  0  0  0  0  0  0  0
   41.3957   12.9064   13.4929 H   0  0  0  0  0  0  0  0  0  0  0  0
   38.1253   12.7839   16.2908 H   0  0  0  0  0  0  0  0  0  0  0  0
   39.8452   11.6097   14.9570 H   0  0  0  0  0  0  0  0  0  0  0  0
   37.0791   16.1373   15.8824 H   0  0  0  0  0  0  0  0  0  0  0  0
   36.9628   14.7287   16.9007 H   0  0  0  0  0  0  0  0  0  0  0  0
   42.7459   15.4585   15.6922 H   0  0  0  0  0  0  0  0  0  0  0  0
   43.5056   15.4939   11.4454 H   0  0  0  0  0  0  0  0  0  0  0  0
   45.1579   15.3569   16.1353 H   0  0  0  0  0  0  0  0  0  0  0  0
   45.9683   15.3953   11.8893 H   0  0  0  0  0  0  0  0  0  0  0  0
   41.6436   14.9971   14.1829 H   0  0  0  0  0  0  0  0  0  0  0  0
   40.4801   15.1708   15.1573 H   0  0  0  0  0  0  0  0  0  0  0  0
   40.4457   15.1782   15.0711 H   0  0  0  0  0  0  0  0  0  0  0  0
   41.7159   14.9839   14.2414 H   0  0  0  0  0  0  0  0  0  0  0  0
  2 18  1  0
  3  9  2  0
  4 21  1  0
  5 21  2  0
  6  8  1  0
  7  8  2  0
  7  9  1  0
  7 12  1  0
  8 10  1  0
  9 11  1  0
 10 13  2  0
 10 15  1  0
 11 16  2  0
 11 17  1  0
 12 14  2  0
 13 14  1  0
 15 21  1  0
 16 19  1  0
 17 20  2  0
 18 19  2  0
 18 20  1  0
 22 38  1  0
 23 29  2  0
 24 41  1  0
 25 41  2  0
 26 28  1  0
 27 28  2  0
 27 29  1  0
 27 32  1  0
 28 30  1  0
 29 31  1  0
 30 33  2  0
 30 35  1  0
 31 36  2  0
 31 37  1  0
 32 34  2  0
 33 34  1  0
 35 41  1  0
 36 39  1  0
 37 40  2  0
 38 39  2  0
 38 40  1  0
  1 46  1  0
  1 47  1  0
  6 48  1  0
  6 49  1  0
 12 50  1  0
 13 51  1  0
 14 52  1  0
 15 53  1  0
 15 54  1  0
 16 55  1  0
 17 56  1  0
 19 57  1  0
 20 58  1  0
 26 59  1  0
 26 60  1  0
 32 61  1  0
 33 62  1  0
 34 63  1  0
 35 64  1  0
 35 65  1  0
 36 66  1  0
 37 67  1  0
 39 68  1  0
 40 69  1  0
 44 70  1  0
 44 71  1  0
 45 72  1  0
 45 73  1  0
M  CHG  4   4  -1  24  -1  42   1  43   1
M  END
> <Uni-Dock RESULT> 
ENERGY=   -6.046  LOWER_BOUND=    8.830  UPPER_BOUND=   10.743
INTER + INTRA:          -6.046
INTER:                  -6.046
INTRA:                   0.000
UNBOUND:                 0.000

$$$$

     RDKit          3D

 73 70  0  0  0  0  0  0  0  0999 V2000
   49.2702    9.6852   12.4968 O   0  0  0  0  0  0  0  0  0  0  0  0
   43.4382   10.9752   11.7810 Br  0  0  0  0  0  0  0  0  0  0  0  0
   48.5107    6.4105   12.6300 O   0  0  0  0  0  0  0  0  0  0  0  0
   52.8481   12.5960   13.5310 O   0  0  0  0  0  0  0  0  0  0  0  0
   50.7887   12.3199   14.5165 O   0  0  0  0  0  0  0  0  0  0  0  0
   49.6368    9.4044   14.6024 N   0  0  0  0  0  0  0  0  0  0  0  0
   49.9566    8.2185   12.4572 C   0  0  0  0  0  0  0  0  0  0  0  0
   50.4017    9.0976   13.4625 C   0  0  0  0  0  0  0  0  0  0  0  0
   48.6057    7.6304   12.4703 C   0  0  0  0  0  0  0  0  0  0  0  0
   51.7277    9.5804   13.3857 C   0  0  0  0  0  0  0  0  0  0  0  0
   47.3930    8.4793   12.2898 C   0  0  0  0  0  0  0  0  0  0  0  0
   50.7783    7.8708   11.3650 C   0  0  0  0  0  0  0  0  0  0  0  0
   52.5174    9.2797   12.2585 C   0  0  0  0  0  0  0  0  0  0  0  0
   52.0513    8.4216   11.2557 C   0  0  0  0  0  0  0  0  0  0  0  0
   52.2979   10.4798   14.4557 C   0  0  0  0  0  0  0  0  0  0  0  0
   46.1376    7.8417   12.3384 C   0  0  0  0  0  0  0  0  0  0  0  0
   47.4503    9.8660   12.0874 C   0  0  0  0  0  0  0  0  0  0  0  0
   45.0310    9.9709   12.0009 C   0  0  0  0  0  0  0  0  0  0  0  0
   44.9641    8.5884   12.1924 C   0  0  0  0  0  0  0  0  0  0  0  0
   46.2712   10.6105   11.9564 C   0  0  0  0  0  0  0  0  0  0  0  0
   51.9443   11.9358   14.1387 C   0  0  0  0  0  0  0  0  0  0  0  0
   43.7751   11.6067   10.4307 Br  0  0  0  0  0  0  0  0  0  0  0  0
   47.7299    7.9059   14.5506 O   0  0  0  0  0  0  0  0  0  0  0  0
   52.0720   11.6024   14.7483 O   0  0  0  0  0  0  0  0  0  0  0  0
   53.8068   11.6237   13.2737 O   0  0  0  0  0  0  0  0  0  0  0  0
   50.3085    9.6071   15.0275 N   0  0  0  0  0  0  0  0  0  0  0  0
   49.4740    8.4037   13.0510 C   0  0  0  0  0  0  0  0  0  0  0  0
   50.5178    8.9833   13.7932 C   0  0  0  0  0  0  0  0  0  0  0  0
   48.0795    8.4766   13.5254 C   0  0  0  0  0  0  0  0  0  0  0  0
   51.8264    8.9162   13.2727 C   0  0  0  0  0  0  0  0  0  0  0  0
   47.0738    9.2282   12.7312 C   0  0  0  0  0  0  0  0  0  0  0  0
   49.7052    7.7969   11.8075 C   0  0  0  0  0  0  0  0  0  0  0  0
   52.0526    8.2957   12.0252 C   0  0  0  0  0  0  0  0  0  0  0  0
   50.9971    7.7422   11.2952 C   0  0  0  0  0  0  0  0  0  0  0  0
   53.0012    9.5312   14.0193 C   0  0  0  0  0  0  0  0  0  0  0  0
   47.4023   10.4267   12.0821 C   0  0  0  0  0  0  0  0  0  0  0  0
   45.7603    8.7382   12.6879 C   0  0  0  0  0  0  0  0  0  0  0  0
   45.1125   10.6346   11.3468 C   0  0  0  0  0  0  0  0  0  0  0  0
   46.4191   11.1309   11.3901 C   0  0  0  0  0  0  0  0  0  0  0  0
   44.7794    9.4408   11.9916 C   0  0  0  0  0  0  0  0  0  0  0  0
   52.9463   11.0585   14.0099 C   0  0  0  0  0  0  0  0  0  0  0  0
   49.3083    9.3725   12.7409 Na  0  0  0  0  0 15  0  0  0  0  0  0
   49.3083    9.3725   12.7409 Na  0  0  0  0  0 15  0  0  0  0  0  0
   49.2751    9.6866   12.4979 O   0  0  0  0  0  0  0  0  0  0  0  0
   49.3196    9.6965   12.5098 O   0  0  0  0  0  0  0  0  0  0  0  0
   50.0441    9.4248   13.0181 H   0  0  0  0  0  0  0  0  0  0  0  0
   48.6106    9.0075   12.7076 H   0  0  0  0  0  0  0  0  0  0  0  0
   48.6655    9.1097   14.6125 H   0  0  0  0  0  0  0  0  0  0  0  0
   49.7796   10.3880   14.8839 H   0  0  0  0  0  0  0  0  0  0  0  0
   50.4354    7.1722   10.6102 H   0  0  0  0  0  0  0  0  0  0  0  0
   53.5103    9.7157   12.1758 H   0  0  0  0  0  0  0  0  0  0  0  0
   52.6797    8.1701   10.4014 H   0  0  0  0  0  0  0  0  0  0  0  0
   53.3840   10.3388   14.5283 H   0  0  0  0  0  0  0  0  0  0  0  0
   51.9106   10.1919   15.4342 H   0  0  0  0  0  0  0  0  0  0  0  0
   46.0807    6.7660   12.5014 H   0  0  0  0  0  0  0  0  0  0  0  0
   48.4037   10.3978   12.0434 H   0  0  0  0  0  0  0  0  0  0  0  0
   43.9990    8.0798   12.2308 H   0  0  0  0  0  0  0  0  0  0  0  0
   46.3391   11.6925   11.8139 H   0  0  0  0  0  0  0  0  0  0  0  0
   49.3446    9.6612   15.3472 H   0  0  0  0  0  0  0  0  0  0  0  0
   50.8106   10.5124   15.0662 H   0  0  0  0  0  0  0  0  0  0  0  0
   48.8749    7.3639   11.2474 H   0  0  0  0  0  0  0  0  0  0  0  0
   53.0733    8.2436   11.6191 H   0  0  0  0  0  0  0  0  0  0  0  0
   51.1934    7.2887   10.3268 H   0  0  0  0  0  0  0  0  0  0  0  0
   53.0265    9.1455   15.0383 H   0  0  0  0  0  0  0  0  0  0  0  0
   53.9521    9.2178   13.5643 H   0  0  0  0  0  0  0  0  0  0  0  0
   48.4045   10.8480   12.1491 H   0  0  0  0  0  0  0  0  0  0  0  0
   45.5210    7.8218   13.2175 H   0  0  0  0  0  0  0  0  0  0  0  0
   46.6764   12.0750   10.9112 H   0  0  0  0  0  0  0  0  0  0  0  0
   43.7510    9.0704   11.9607 H   0  0  0  0  0  0  0  0  0  0  0  0
   48.6060    9.0146   12.7005 H   0  0  0  0  0  0  0  0  0  0  0  0
   50.0439    9.4164   13.0241 H   0  0  0  0  0  0  0  0  0  0  0  0
   50.0250    9.3390   13.0724 H   0  0  0  0  0  0  0  0  0  0  0  0
   48.5804    9.0820   12.6404 H   0  0  0  0  0  0  0  0  0  0  0  0
  2 18  1  0
  3  9  2  0
  4 21  1  0
  5 21  2  0
  6  8  1  0
  7  8  2  0
  7  9  1  0
  7 12  1  0
  8 10  1  0
  9 11  1  0
 10 13  2  0
 10 15  1  0
 11 16  2  0
 11 17  1  0
 12 14  2  0
 13 14  1  0
 15 21  1  0
 16 19  1  0
 17 20  2  0
 18 19  2  0
 18 20  1  0
 22 38  1  0
 23 29  2  0
 24 41  1  0
 25 41  2  0
 26 28  1  0
 27 28  2  0
 27 29  1  0
 27 32  1  0
 28 30  1  0
 29 31  1  0
 30 33  2  0
 30 35  1  0
 31 36  2  0
 31 37  1  0
 32 34  2  0
 33 34  1  0
 35 41  1  0
 36 39  1  0
 37 40  2  0
 38 39  2  0
 38 40  1  0
  1 46  1  0
  1 47  1  0
  6 48  1  0
  6 49  1  0
 12 50  1  0
 13 51  1  0
 14 52  1  0
 15 53  1  0
 15 54  1  0
 16 55  1  0
 17 56  1  0
 19 57  1  0
 20 58  1  0
 26 59  1  0
 26 60  1  0
 32 61  1  0
 33 62  1  0
 34 63  1  0
 35 64  1  0
 35 65  1  0
 36 66  1  0
 37 67  1  0
 39 68  1  0
 40 69  1  0
 44 70  1  0
 44 71  1  0
 45 72  1  0
 45 73  1  0
M  CHG  4   4  -1  24  -1  42   1  43   1
M  END
> <Uni-Dock RESULT> 
ENERGY=   -6.040  LOWER_BOUND=    5.155  UPPER_BOUND=    6.940
INTER + INTRA:          -6.040
INTER:                  -6.040
INTRA:                   0.000
UNBOUND:                 0.000

$$$$
