
     RDKit          3D

 68 69  0  0  0  0  0  0  0  0999 V2000
   43.9769    7.3388   10.9714 O   0  0  0  0  0  0  0  0  0  0  0  0
   44.4124    6.4465   11.8926 C   0  0  0  0  0  0  0  0  0  0  0  0
   45.8831    6.0908   11.6854 C   0  0  2  0  0  0  0  0  0  0  0  0
   46.6536    6.2390   12.9981 C   0  0  2  0  0  0  0  0  0  0  0  0
   46.7518    7.7201   13.3653 C   0  0  0  0  0  0  0  0  0  0  0  0
   48.0211    8.1826   13.3972 O   0  0  0  0  0  0  0  0  0  0  0  0
   43.6630    6.0073   12.7474 O   0  0  0  0  0  0  0  0  0  0  0  0
   47.9377    5.6142   12.8671 O   0  0  0  0  0  0  0  0  0  0  0  0
   46.5203    6.8447   10.6434 O   0  0  0  0  0  0  0  0  0  0  0  0
   45.8142    8.4719   13.5841 O   0  0  0  0  0  0  0  0  0  0  0  0
   45.1390    5.4681   12.4016 N   0  0  0  0  0  0  0  0  0  0  0  0
   43.7755    5.0891   12.7448 C   0  0  0  0  0  0  0  0  0  0  0  0
   43.5070    3.7300   12.2578 C   0  0  0  0  0  0  0  0  0  0  0  0
   43.2867    2.6181   11.8602 C   0  0  0  0  0  0  0  0  0  0  0  0
   45.4553    6.8274   12.8221 C   0  0  2  0  0  0  0  0  0  0  0  0
   44.7760    7.9229   11.9674 C   0  0  0  0  0  0  0  0  0  0  0  0
   45.6878    9.1558   12.0445 C   0  0  0  0  0  0  0  0  0  0  0  0
   47.0306    8.5099   12.1778 C   0  0  0  0  0  0  0  0  0  0  0  0
   46.9045    7.1829   12.6095 C   0  0  0  0  0  0  0  0  0  0  0  0
   48.0285    6.4052   12.8447 C   0  0  0  0  0  0  0  0  0  0  0  0
   48.2748    9.0822   11.9726 C   0  0  0  0  0  0  0  0  0  0  0  0
   49.4090    8.2983   12.1948 C   0  0  0  0  0  0  0  0  0  0  0  0
   49.2876    6.9685   12.6276 C   0  0  0  0  0  0  0  0  0  0  0  0
   45.1365    6.0156   10.9939 N   0  0  0  0  0  0  0  0  0  0  0  0
   44.8064    4.6458   11.3601 C   0  0  0  0  0  0  0  0  0  0  0  0
   45.0360    3.7621   10.2098 C   0  0  0  0  0  0  0  0  0  0  0  0
   45.2320    3.0400    9.2701 C   0  0  0  0  0  0  0  0  0  0  0  0
   45.0598    6.9349   12.1208 C   0  0  2  0  0  0  0  0  0  0  0  0
   44.7645    8.3598   11.5999 C   0  0  0  0  0  0  0  0  0  0  0  0
   45.2989    9.3206   12.6682 C   0  0  0  0  0  0  0  0  0  0  0  0
   46.4741    8.5447   13.1776 C   0  0  0  0  0  0  0  0  0  0  0  0
   46.3524    7.1821   12.8600 C   0  0  0  0  0  0  0  0  0  0  0  0
   47.3226    6.2815   13.2750 C   0  0  0  0  0  0  0  0  0  0  0  0
   47.5502    9.0266   13.9051 C   0  0  0  0  0  0  0  0  0  0  0  0
   48.5315    8.1224   14.3111 C   0  0  0  0  0  0  0  0  0  0  0  0
   48.4183    6.7601   13.9976 C   0  0  0  0  0  0  0  0  0  0  0  0
   43.0399    7.5020   11.2245 H   0  0  0  0  0  0  0  0  0  0  0  0
   45.9123    5.0464   11.3507 H   0  0  0  0  0  0  0  0  0  0  0  0
   46.1471    5.7317   13.8260 H   0  0  0  0  0  0  0  0  0  0  0  0
   47.9380    9.1296   13.6362 H   0  0  0  0  0  0  0  0  0  0  0  0
   48.4566    6.2209   12.3018 H   0  0  0  0  0  0  0  0  0  0  0  0
   45.8011    7.3508   10.2079 H   0  0  0  0  0  0  0  0  0  0  0  0
   45.2728    5.3840   11.3957 H   0  0  0  0  0  0  0  0  0  0  0  0
   43.0482    5.7771   12.3038 H   0  0  0  0  0  0  0  0  0  0  0  0
   43.6442    5.1123   13.8316 H   0  0  0  0  0  0  0  0  0  0  0  0
   43.0994    1.6338   11.5011 H   0  0  0  0  0  0  0  0  0  0  0  0
   45.2297    6.9744   13.8864 H   0  0  0  0  0  0  0  0  0  0  0  0
   43.7573    8.1450   12.3019 H   0  0  0  0  0  0  0  0  0  0  0  0
   44.7061    7.6024   10.9176 H   0  0  0  0  0  0  0  0  0  0  0  0
   45.4686    9.7583   12.9317 H   0  0  0  0  0  0  0  0  0  0  0  0
   45.6048    9.7691   11.1434 H   0  0  0  0  0  0  0  0  0  0  0  0
   47.9299    5.3807   13.1907 H   0  0  0  0  0  0  0  0  0  0  0  0
   48.3715   10.1133   11.6495 H   0  0  0  0  0  0  0  0  0  0  0  0
   50.3977    8.7217   12.0378 H   0  0  0  0  0  0  0  0  0  0  0  0
   50.1812    6.3742   12.8006 H   0  0  0  0  0  0  0  0  0  0  0  0
   46.0698    6.0553   10.5851 H   0  0  0  0  0  0  0  0  0  0  0  0
   43.7531    4.5843   11.6597 H   0  0  0  0  0  0  0  0  0  0  0  0
   45.4061    4.2930   12.2047 H   0  0  0  0  0  0  0  0  0  0  0  0
   45.4013    2.4044    8.4314 H   0  0  0  0  0  0  0  0  0  0  0  0
   44.2757    6.6513   12.8363 H   0  0  0  0  0  0  0  0  0  0  0  0
   43.6993    8.5177   11.3967 H   0  0  0  0  0  0  0  0  0  0  0  0
   45.3019    8.5490   10.6583 H   0  0  0  0  0  0  0  0  0  0  0  0
   44.5695    9.4719   13.4708 H   0  0  0  0  0  0  0  0  0  0  0  0
   45.5877   10.2808   12.2336 H   0  0  0  0  0  0  0  0  0  0  0  0
   47.2499    5.2232   13.0533 H   0  0  0  0  0  0  0  0  0  0  0  0
   47.6331   10.0797   14.1536 H   0  0  0  0  0  0  0  0  0  0  0  0
   49.3898    8.4740   14.8785 H   0  0  0  0  0  0  0  0  0  0  0  0
   49.1893    6.0670   14.3250 H   0  0  0  0  0  0  0  0  0  0  0  0
  1  2  1  0
  2  3  1  0
  3  4  1  0
  4  5  1  0
  5  6  1  0
  2  7  2  0
  4  8  1  0
  3  9  1  0
  5 10  2  0
 12 11  1  0
 15 11  1  0
 12 13  1  0
 13 14  3  0
 16 15  1  0
 19 15  1  0
 16 17  1  0
 17 18  1  0
 18 19  2  0
 18 21  1  0
 20 19  1  0
 23 20  2  0
 21 22  2  0
 22 23  1  0
 25 24  1  0
 28 24  1  0
 25 26  1  0
 26 27  3  0
 29 28  1  0
 32 28  1  0
 29 30  1  0
 30 31  1  0
 31 32  2  0
 31 34  1  0
 33 32  1  0
 36 33  2  0
 34 35  2  0
 35 36  1  0
  1 37  1  0
  3 38  1  1
  4 39  1  1
  6 40  1  0
  8 41  1  0
  9 42  1  0
 11 43  1  0
 12 44  1  0
 12 45  1  0
 14 46  1  0
 15 47  1  1
 16 48  1  0
 16 49  1  0
 17 50  1  0
 17 51  1  0
 20 52  1  0
 21 53  1  0
 22 54  1  0
 23 55  1  0
 24 56  1  0
 25 57  1  0
 25 58  1  0
 27 59  1  0
 28 60  1  1
 29 61  1  0
 29 62  1  0
 30 63  1  0
 30 64  1  0
 33 65  1  0
 34 66  1  0
 35 67  1  0
 36 68  1  0
M  END
> <Uni-Dock RESULT> 
ENERGY=   -7.722  LOWER_BOUND=    0.000  UPPER_BOUND=    0.000
INTER + INTRA:          -7.722
INTER:                  -7.722
INTRA:                   0.000
UNBOUND:                 0.000

$$$$

     RDKit          3D

 68 69  0  0  0  0  0  0  0  0999 V2000
   48.5783    7.6601   18.7086 O   0  0  0  0  0  0  0  0  0  0  0  0
   47.9163    6.5737   19.1734 C   0  0  0  0  0  0  0  0  0  0  0  0
   48.6932    5.8694   20.2837 C   0  0  2  0  0  0  0  0  0  0  0  0
   47.7906    5.6380   21.4964 C   0  0  2  0  0  0  0  0  0  0  0  0
   47.4729    6.9799   22.1569 C   0  0  0  0  0  0  0  0  0  0  0  0
   47.9397    7.0802   23.4211 O   0  0  0  0  0  0  0  0  0  0  0  0
   46.8406    6.2437   18.7052 O   0  0  0  0  0  0  0  0  0  0  0  0
   48.4271    4.7163   22.3919 O   0  0  0  0  0  0  0  0  0  0  0  0
   49.8923    6.5538   20.6759 O   0  0  0  0  0  0  0  0  0  0  0  0
   46.8912    7.9195   21.6364 O   0  0  0  0  0  0  0  0  0  0  0  0
   47.7492    5.3805   19.7142 N   0  0  0  0  0  0  0  0  0  0  0  0
   46.8995    5.3369   18.5325 C   0  0  0  0  0  0  0  0  0  0  0  0
   47.2582    4.1722   17.7132 C   0  0  0  0  0  0  0  0  0  0  0  0
   47.5507    3.2193   17.0428 C   0  0  0  0  0  0  0  0  0  0  0  0
   47.4704    6.5413   20.5506 C   0  0  2  0  0  0  0  0  0  0  0  0
   47.9722    7.8781   19.9563 C   0  0  0  0  0  0  0  0  0  0  0  0
   48.2461    8.8037   21.1503 C   0  0  0  0  0  0  0  0  0  0  0  0
   48.6634    7.8126   22.1902 C   0  0  0  0  0  0  0  0  0  0  0  0
   48.2344    6.5229   21.8497 C   0  0  0  0  0  0  0  0  0  0  0  0
   48.4732    5.4509   22.6966 C   0  0  0  0  0  0  0  0  0  0  0  0
   49.3366    8.0549   23.3757 C   0  0  0  0  0  0  0  0  0  0  0  0
   49.5915    6.9758   24.2250 C   0  0  0  0  0  0  0  0  0  0  0  0
   49.1634    5.6821   23.8882 C   0  0  0  0  0  0  0  0  0  0  0  0
   49.0337    6.0847   19.3462 N   0  0  0  0  0  0  0  0  0  0  0  0
   48.5848    4.8167   18.7893 C   0  0  0  0  0  0  0  0  0  0  0  0
   49.7435    4.0588   18.2998 C   0  0  0  0  0  0  0  0  0  0  0  0
   50.6934    3.4371   17.9072 C   0  0  0  0  0  0  0  0  0  0  0  0
   47.9565    6.8390   19.9719 C   0  0  2  0  0  0  0  0  0  0  0  0
   48.2994    8.3457   19.9374 C   0  0  0  0  0  0  0  0  0  0  0  0
   47.5173    8.9847   21.0905 C   0  0  0  0  0  0  0  0  0  0  0  0
   47.5246    7.8657   22.0857 C   0  0  0  0  0  0  0  0  0  0  0  0
   47.7859    6.6368   21.4579 C   0  0  0  0  0  0  0  0  0  0  0  0
   47.8004    5.4651   22.2007 C   0  0  0  0  0  0  0  0  0  0  0  0
   47.2760    7.9467   23.4462 C   0  0  0  0  0  0  0  0  0  0  0  0
   47.3032    6.7699   24.1944 C   0  0  0  0  0  0  0  0  0  0  0  0
   47.5642    5.5385   23.5757 C   0  0  0  0  0  0  0  0  0  0  0  0
   47.9730    8.0328   18.0278 H   0  0  0  0  0  0  0  0  0  0  0  0
   49.0257    4.9066   19.8760 H   0  0  0  0  0  0  0  0  0  0  0  0
   46.8365    5.1818   21.2117 H   0  0  0  0  0  0  0  0  0  0  0  0
   47.6749    7.9765   23.7168 H   0  0  0  0  0  0  0  0  0  0  0  0
   49.1436    5.2304   22.8153 H   0  0  0  0  0  0  0  0  0  0  0  0
   50.0010    7.2844   20.0297 H   0  0  0  0  0  0  0  0  0  0  0  0
   48.7269    5.3935   19.4303 H   0  0  0  0  0  0  0  0  0  0  0  0
   47.0078    6.2442   17.9308 H   0  0  0  0  0  0  0  0  0  0  0  0
   45.8493    5.2547   18.8309 H   0  0  0  0  0  0  0  0  0  0  0  0
   47.8193    2.3747   16.4534 H   0  0  0  0  0  0  0  0  0  0  0  0
   46.4019    6.6053   20.7943 H   0  0  0  0  0  0  0  0  0  0  0  0
   47.2591    8.3183   19.2516 H   0  0  0  0  0  0  0  0  0  0  0  0
   48.9127    7.7250   19.4072 H   0  0  0  0  0  0  0  0  0  0  0  0
   47.3367    9.3240   21.4675 H   0  0  0  0  0  0  0  0  0  0  0  0
   49.0327    9.5273   20.9207 H   0  0  0  0  0  0  0  0  0  0  0  0
   48.1299    4.4538   22.4375 H   0  0  0  0  0  0  0  0  0  0  0  0
   49.6580    9.0557   23.6438 H   0  0  0  0  0  0  0  0  0  0  0  0
   50.1213    7.1377   25.1601 H   0  0  0  0  0  0  0  0  0  0  0  0
   49.3659    4.8546   24.5633 H   0  0  0  0  0  0  0  0  0  0  0  0
   49.7779    5.9268   20.0252 H   0  0  0  0  0  0  0  0  0  0  0  0
   47.8937    4.9996   17.9575 H   0  0  0  0  0  0  0  0  0  0  0  0
   48.0510    4.2120   19.5288 H   0  0  0  0  0  0  0  0  0  0  0  0
   51.5389    2.8923   17.5544 H   0  0  0  0  0  0  0  0  0  0  0  0
   46.9930    6.6848   19.4670 H   0  0  0  0  0  0  0  0  0  0  0  0
   48.0625    8.8058   18.9714 H   0  0  0  0  0  0  0  0  0  0  0  0
   49.3742    8.5042   20.1129 H   0  0  0  0  0  0  0  0  0  0  0  0
   46.4897    9.2203   20.7946 H   0  0  0  0  0  0  0  0  0  0  0  0
   48.0181    9.8810   21.4648 H   0  0  0  0  0  0  0  0  0  0  0  0
   47.9891    4.5017   21.7417 H   0  0  0  0  0  0  0  0  0  0  0  0
   47.0668    8.8990   23.9227 H   0  0  0  0  0  0  0  0  0  0  0  0
   47.1172    6.8049   25.2650 H   0  0  0  0  0  0  0  0  0  0  0  0
   47.5776    4.6293   24.1718 H   0  0  0  0  0  0  0  0  0  0  0  0
  1  2  1  0
  2  3  1  0
  3  4  1  0
  4  5  1  0
  5  6  1  0
  2  7  2  0
  4  8  1  0
  3  9  1  0
  5 10  2  0
 12 11  1  0
 15 11  1  0
 12 13  1  0
 13 14  3  0
 16 15  1  0
 19 15  1  0
 16 17  1  0
 17 18  1  0
 18 19  2  0
 18 21  1  0
 20 19  1  0
 23 20  2  0
 21 22  2  0
 22 23  1  0
 25 24  1  0
 28 24  1  0
 25 26  1  0
 26 27  3  0
 29 28  1  0
 32 28  1  0
 29 30  1  0
 30 31  1  0
 31 32  2  0
 31 34  1  0
 33 32  1  0
 36 33  2  0
 34 35  2  0
 35 36  1  0
  1 37  1  0
  3 38  1  1
  4 39  1  1
  6 40  1  0
  8 41  1  0
  9 42  1  0
 11 43  1  0
 12 44  1  0
 12 45  1  0
 14 46  1  0
 15 47  1  1
 16 48  1  0
 16 49  1  0
 17 50  1  0
 17 51  1  0
 20 52  1  0
 21 53  1  0
 22 54  1  0
 23 55  1  0
 24 56  1  0
 25 57  1  0
 25 58  1  0
 27 59  1  0
 28 60  1  1
 29 61  1  0
 29 62  1  0
 30 63  1  0
 30 64  1  0
 33 65  1  0
 34 66  1  0
 35 67  1  0
 36 68  1  0
M  END
> <Uni-Dock RESULT> 
ENERGY=   -6.595  LOWER_BOUND=    7.506  UPPER_BOUND=    9.151
INTER + INTRA:          -6.595
INTER:                  -6.595
INTRA:                   0.000
UNBOUND:                 0.000

$$$$

     RDKit          3D

 68 69  0  0  0  0  0  0  0  0999 V2000
   48.2780   14.5427   19.1584 O   0  0  0  0  0  0  0  0  0  0  0  0
   47.8621   13.7411   18.1490 C   0  0  0  0  0  0  0  0  0  0  0  0
   48.7420   12.5004   18.0119 C   0  0  2  0  0  0  0  0  0  0  0  0
   47.8770   11.2401   17.9698 C   0  0  2  0  0  0  0  0  0  0  0  0
   47.2463   11.0105   19.3437 C   0  0  0  0  0  0  0  0  0  0  0  0
   47.6392    9.8577   19.9292 O   0  0  0  0  0  0  0  0  0  0  0  0
   46.9027   14.0420   17.4603 O   0  0  0  0  0  0  0  0  0  0  0  0
   48.6756   10.1314   17.5343 O   0  0  0  0  0  0  0  0  0  0  0  0
   49.7445   12.3854   19.0326 O   0  0  0  0  0  0  0  0  0  0  0  0
   46.4854   11.7702   19.9234 O   0  0  0  0  0  0  0  0  0  0  0  0
   47.9498   12.8544   17.1743 N   0  0  0  0  0  0  0  0  0  0  0  0
   47.1686   13.9308   16.5814 C   0  0  0  0  0  0  0  0  0  0  0  0
   47.8045   14.3672   15.3317 C   0  0  0  0  0  0  0  0  0  0  0  0
   48.3237   14.7245   14.3091 C   0  0  0  0  0  0  0  0  0  0  0  0
   47.3921   12.4036   18.4433 C   0  0  2  0  0  0  0  0  0  0  0  0
   47.6000   13.3987   19.6090 C   0  0  0  0  0  0  0  0  0  0  0  0
   47.6223   12.5579   20.8935 C   0  0  0  0  0  0  0  0  0  0  0  0
   48.2184   11.2818   20.3893 C   0  0  0  0  0  0  0  0  0  0  0  0
   48.1000   11.1931   18.9960 C   0  0  0  0  0  0  0  0  0  0  0  0
   48.5465   10.0687   18.3178 C   0  0  0  0  0  0  0  0  0  0  0  0
   48.7830   10.2556   21.1279 C   0  0  0  0  0  0  0  0  0  0  0  0
   49.2466    9.1274   20.4475 C   0  0  0  0  0  0  0  0  0  0  0  0
   49.1299    9.0340   19.0519 C   0  0  0  0  0  0  0  0  0  0  0  0
   49.0547   13.4716   17.9985 N   0  0  0  0  0  0  0  0  0  0  0  0
   48.9188   13.5947   16.5542 C   0  0  0  0  0  0  0  0  0  0  0  0
   50.2325   13.8744   15.9604 C   0  0  0  0  0  0  0  0  0  0  0  0
   51.3092   14.0952   15.4760 C   0  0  0  0  0  0  0  0  0  0  0  0
   47.8170   13.0646   18.6490 C   0  0  2  0  0  0  0  0  0  0  0  0
   47.8145   13.5731   20.1086 C   0  0  0  0  0  0  0  0  0  0  0  0
   46.8736   12.6409   20.8803 C   0  0  0  0  0  0  0  0  0  0  0  0
   47.1005   11.3518   20.1528 C   0  0  0  0  0  0  0  0  0  0  0  0
   47.6498   11.5826   18.8810 C   0  0  0  0  0  0  0  0  0  0  0  0
   47.9033   10.5176   18.0288 C   0  0  0  0  0  0  0  0  0  0  0  0
   46.7979   10.0727   20.5909 C   0  0  0  0  0  0  0  0  0  0  0  0
   47.0647    9.0016   19.7384 C   0  0  0  0  0  0  0  0  0  0  0  0
   47.6140    9.2230   18.4670 C   0  0  0  0  0  0  0  0  0  0  0  0
   47.6261   15.2801   19.1591 H   0  0  0  0  0  0  0  0  0  0  0  0
   49.2943   12.6064   17.0698 H   0  0  0  0  0  0  0  0  0  0  0  0
   47.0587   11.3327   17.2479 H   0  0  0  0  0  0  0  0  0  0  0  0
   47.1714    9.8406   20.7905 H   0  0  0  0  0  0  0  0  0  0  0  0
   49.2451    9.9151   18.2996 H   0  0  0  0  0  0  0  0  0  0  0  0
   49.7069   13.2282   19.5339 H   0  0  0  0  0  0  0  0  0  0  0  0
   48.9081   13.1676   17.3166 H   0  0  0  0  0  0  0  0  0  0  0  0
   47.0896   14.7854   17.2598 H   0  0  0  0  0  0  0  0  0  0  0  0
   46.1547   13.5796   16.3634 H   0  0  0  0  0  0  0  0  0  0  0  0
   48.7928   15.0368   13.4062 H   0  0  0  0  0  0  0  0  0  0  0  0
   46.3294   12.1486   18.3397 H   0  0  0  0  0  0  0  0  0  0  0  0
   46.8287   14.1752   19.6407 H   0  0  0  0  0  0  0  0  0  0  0  0
   48.5675   13.9117   19.5078 H   0  0  0  0  0  0  0  0  0  0  0  0
   46.6100   12.3791   21.2700 H   0  0  0  0  0  0  0  0  0  0  0  0
   48.2335   13.0296   21.6674 H   0  0  0  0  0  0  0  0  0  0  0  0
   48.4435    9.9957   17.2393 H   0  0  0  0  0  0  0  0  0  0  0  0
   48.8636   10.3203   22.2078 H   0  0  0  0  0  0  0  0  0  0  0  0
   49.6973    8.3089   21.0029 H   0  0  0  0  0  0  0  0  0  0  0  0
   49.4915    8.1464   18.5390 H   0  0  0  0  0  0  0  0  0  0  0  0
   49.7939   12.8074   18.2269 H   0  0  0  0  0  0  0  0  0  0  0  0
   48.2305   14.4141   16.3137 H   0  0  0  0  0  0  0  0  0  0  0  0
   48.5113   12.6846   16.1034 H   0  0  0  0  0  0  0  0  0  0  0  0
   52.2659   14.2977   15.0516 H   0  0  0  0  0  0  0  0  0  0  0  0
   46.9287   13.4589   18.1366 H   0  0  0  0  0  0  0  0  0  0  0  0
   47.5108   14.6232   20.1844 H   0  0  0  0  0  0  0  0  0  0  0  0
   48.8205   13.4979   20.5484 H   0  0  0  0  0  0  0  0  0  0  0  0
   45.8291   12.9533   20.7786 H   0  0  0  0  0  0  0  0  0  0  0  0
   47.1491   12.5798   21.9361 H   0  0  0  0  0  0  0  0  0  0  0  0
   48.3172   10.6664   17.0383 H   0  0  0  0  0  0  0  0  0  0  0  0
   46.3659    9.9031   21.5719 H   0  0  0  0  0  0  0  0  0  0  0  0
   46.8423    7.9867   20.0587 H   0  0  0  0  0  0  0  0  0  0  0  0
   47.8122    8.3780   17.8122 H   0  0  0  0  0  0  0  0  0  0  0  0
  1  2  1  0
  2  3  1  0
  3  4  1  0
  4  5  1  0
  5  6  1  0
  2  7  2  0
  4  8  1  0
  3  9  1  0
  5 10  2  0
 12 11  1  0
 15 11  1  0
 12 13  1  0
 13 14  3  0
 16 15  1  0
 19 15  1  0
 16 17  1  0
 17 18  1  0
 18 19  2  0
 18 21  1  0
 20 19  1  0
 23 20  2  0
 21 22  2  0
 22 23  1  0
 25 24  1  0
 28 24  1  0
 25 26  1  0
 26 27  3  0
 29 28  1  0
 32 28  1  0
 29 30  1  0
 30 31  1  0
 31 32  2  0
 31 34  1  0
 33 32  1  0
 36 33  2  0
 34 35  2  0
 35 36  1  0
  1 37  1  0
  3 38  1  1
  4 39  1  1
  6 40  1  0
  8 41  1  0
  9 42  1  0
 11 43  1  0
 12 44  1  0
 12 45  1  0
 14 46  1  0
 15 47  1  1
 16 48  1  0
 16 49  1  0
 17 50  1  0
 17 51  1  0
 20 52  1  0
 21 53  1  0
 22 54  1  0
 23 55  1  0
 24 56  1  0
 25 57  1  0
 25 58  1  0
 27 59  1  0
 28 60  1  1
 29 61  1  0
 29 62  1  0
 30 63  1  0
 30 64  1  0
 33 65  1  0
 34 66  1  0
 35 67  1  0
 36 68  1  0
M  END
> <Uni-Dock RESULT> 
ENERGY=   -5.596  LOWER_BOUND=    7.293  UPPER_BOUND=    9.224
INTER + INTRA:          -5.596
INTER:                  -5.596
INTRA:                   0.000
UNBOUND:                 0.000

$$$$

     RDKit          3D

 68 69  0  0  0  0  0  0  0  0999 V2000
   53.8858    8.3834   12.1274 O   0  0  0  0  0  0  0  0  0  0  0  0
   52.7941    8.1088   11.3744 C   0  0  0  0  0  0  0  0  0  0  0  0
   53.0369    8.4046    9.8959 C   0  0  2  0  0  0  0  0  0  0  0  0
   52.6346    7.2012    9.0423 C   0  0  2  0  0  0  0  0  0  0  0  0
   53.6173    6.0551    9.2844 C   0  0  0  0  0  0  0  0  0  0  0  0
   54.3121    5.7011    8.1808 O   0  0  0  0  0  0  0  0  0  0  0  0
   51.7671    7.6933   11.8822 O   0  0  0  0  0  0  0  0  0  0  0  0
   52.5725    7.5964    7.6651 O   0  0  0  0  0  0  0  0  0  0  0  0
   54.3837    8.8015    9.5979 O   0  0  0  0  0  0  0  0  0  0  0  0
   53.8256    5.4977   10.3513 O   0  0  0  0  0  0  0  0  0  0  0  0
   51.9448    8.2069   10.3678 N   0  0  0  0  0  0  0  0  0  0  0  0
   51.0804    8.2098   11.5396 C   0  0  0  0  0  0  0  0  0  0  0  0
   50.2129    9.3942   11.5061 C   0  0  0  0  0  0  0  0  0  0  0  0
   49.5025   10.3625   11.4790 C   0  0  0  0  0  0  0  0  0  0  0  0
   52.8626    7.0746   10.3633 C   0  0  2  0  0  0  0  0  0  0  0  0
   54.0093    7.1920   11.3945 C   0  0  0  0  0  0  0  0  0  0  0  0
   55.1838    6.3830   10.8259 C   0  0  0  0  0  0  0  0  0  0  0  0
   54.9744    6.5698    9.3564 C   0  0  0  0  0  0  0  0  0  0  0  0
   53.6596    6.9731    9.0880 C   0  0  0  0  0  0  0  0  0  0  0  0
   53.2297    7.1620    7.7830 C   0  0  0  0  0  0  0  0  0  0  0  0
   55.8804    6.3500    8.3326 C   0  0  0  0  0  0  0  0  0  0  0  0
   55.4556    6.5526    7.0176 C   0  0  0  0  0  0  0  0  0  0  0  0
   54.1395    6.9563    6.7438 C   0  0  0  0  0  0  0  0  0  0  0  0
   53.1570    9.0545   10.6733 N   0  0  0  0  0  0  0  0  0  0  0  0
   51.7889    9.5465   10.5973 C   0  0  0  0  0  0  0  0  0  0  0  0
   51.8008   10.9812   10.2840 C   0  0  0  0  0  0  0  0  0  0  0  0
   51.8126   12.1530   10.0200 C   0  0  0  0  0  0  0  0  0  0  0  0
   53.2283    7.6109   10.8516 C   0  0  2  0  0  0  0  0  0  0  0  0
   54.5530    7.2473   11.5599 C   0  0  0  0  0  0  0  0  0  0  0  0
   54.8582    5.7968   11.1691 C   0  0  0  0  0  0  0  0  0  0  0  0
   54.2912    5.7566    9.7836 C   0  0  0  0  0  0  0  0  0  0  0  0
   53.3670    6.7960    9.5886 C   0  0  0  0  0  0  0  0  0  0  0  0
   52.6982    6.9148    8.3790 C   0  0  0  0  0  0  0  0  0  0  0  0
   54.5605    4.8296    8.7898 C   0  0  0  0  0  0  0  0  0  0  0  0
   53.8970    4.9572    7.5697 C   0  0  0  0  0  0  0  0  0  0  0  0
   52.9732    5.9927    7.3661 C   0  0  0  0  0  0  0  0  0  0  0  0
   53.6141    8.1313   13.0391 H   0  0  0  0  0  0  0  0  0  0  0  0
   52.4132    9.2700    9.6395 H   0  0  0  0  0  0  0  0  0  0  0  0
   51.6362    6.8339    9.3026 H   0  0  0  0  0  0  0  0  0  0  0  0
   54.8979    4.9723    8.4752 H   0  0  0  0  0  0  0  0  0  0  0  0
   53.5059    7.6908    7.3878 H   0  0  0  0  0  0  0  0  0  0  0  0
   54.8241    8.9102   10.4682 H   0  0  0  0  0  0  0  0  0  0  0  0
   52.4761    9.0749   10.3344 H   0  0  0  0  0  0  0  0  0  0  0  0
   51.6642    8.2204   12.4648 H   0  0  0  0  0  0  0  0  0  0  0  0
   50.4570    7.3097   11.5456 H   0  0  0  0  0  0  0  0  0  0  0  0
   48.8798   11.2252   11.4486 H   0  0  0  0  0  0  0  0  0  0  0  0
   52.3227    6.1277   10.4940 H   0  0  0  0  0  0  0  0  0  0  0  0
   53.7158    6.8438   12.3903 H   0  0  0  0  0  0  0  0  0  0  0  0
   54.3236    8.2405   11.5012 H   0  0  0  0  0  0  0  0  0  0  0  0
   55.1011    5.3233   11.0876 H   0  0  0  0  0  0  0  0  0  0  0  0
   56.1433    6.7809   11.1669 H   0  0  0  0  0  0  0  0  0  0  0  0
   52.2073    7.4630    7.5754 H   0  0  0  0  0  0  0  0  0  0  0  0
   56.8947    6.0265    8.5410 H   0  0  0  0  0  0  0  0  0  0  0  0
   56.1477    6.3907    6.1953 H   0  0  0  0  0  0  0  0  0  0  0  0
   53.8243    7.1045    5.7142 H   0  0  0  0  0  0  0  0  0  0  0  0
   53.6734    9.3200    9.8351 H   0  0  0  0  0  0  0  0  0  0  0  0
   51.2831    9.3894   11.5577 H   0  0  0  0  0  0  0  0  0  0  0  0
   51.2077    9.0207    9.8336 H   0  0  0  0  0  0  0  0  0  0  0  0
   51.8285   13.1942    9.7922 H   0  0  0  0  0  0  0  0  0  0  0  0
   52.3912    7.2237   11.4487 H   0  0  0  0  0  0  0  0  0  0  0  0
   54.4958    7.3801   12.6461 H   0  0  0  0  0  0  0  0  0  0  0  0
   55.3740    7.8867   11.2016 H   0  0  0  0  0  0  0  0  0  0  0  0
   54.3284    5.0888   11.8148 H   0  0  0  0  0  0  0  0  0  0  0  0
   55.9321    5.5954   11.1879 H   0  0  0  0  0  0  0  0  0  0  0  0
   51.9727    7.7004    8.2037 H   0  0  0  0  0  0  0  0  0  0  0  0
   55.2698    4.0243    8.9509 H   0  0  0  0  0  0  0  0  0  0  0  0
   54.0933    4.2470    6.7701 H   0  0  0  0  0  0  0  0  0  0  0  0
   52.4608    6.0762    6.4108 H   0  0  0  0  0  0  0  0  0  0  0  0
  1  2  1  0
  2  3  1  0
  3  4  1  0
  4  5  1  0
  5  6  1  0
  2  7  2  0
  4  8  1  0
  3  9  1  0
  5 10  2  0
 12 11  1  0
 15 11  1  0
 12 13  1  0
 13 14  3  0
 16 15  1  0
 19 15  1  0
 16 17  1  0
 17 18  1  0
 18 19  2  0
 18 21  1  0
 20 19  1  0
 23 20  2  0
 21 22  2  0
 22 23  1  0
 25 24  1  0
 28 24  1  0
 25 26  1  0
 26 27  3  0
 29 28  1  0
 32 28  1  0
 29 30  1  0
 30 31  1  0
 31 32  2  0
 31 34  1  0
 33 32  1  0
 36 33  2  0
 34 35  2  0
 35 36  1  0
  1 37  1  0
  3 38  1  1
  4 39  1  1
  6 40  1  0
  8 41  1  0
  9 42  1  0
 11 43  1  0
 12 44  1  0
 12 45  1  0
 14 46  1  0
 15 47  1  1
 16 48  1  0
 16 49  1  0
 17 50  1  0
 17 51  1  0
 20 52  1  0
 21 53  1  0
 22 54  1  0
 23 55  1  0
 24 56  1  0
 25 57  1  0
 25 58  1  0
 27 59  1  0
 28 60  1  1
 29 61  1  0
 29 62  1  0
 30 63  1  0
 30 64  1  0
 33 65  1  0
 34 66  1  0
 35 67  1  0
 36 68  1  0
M  END
> <Uni-Dock RESULT> 
ENERGY=   -5.435  LOWER_BOUND=    5.768  UPPER_BOUND=    8.679
INTER + INTRA:          -5.435
INTER:                  -5.435
INTRA:                   0.000
UNBOUND:                 0.000

$$$$

     RDKit          3D

 68 69  0  0  0  0  0  0  0  0999 V2000
   50.5606    5.4108   16.6846 O   0  0  0  0  0  0  0  0  0  0  0  0
   50.2194    4.3926   17.5100 C   0  0  0  0  0  0  0  0  0  0  0  0
   50.5885    4.6922   18.9614 C   0  0  2  0  0  0  0  0  0  0  0  0
   49.3862    4.4480   19.8744 C   0  0  2  0  0  0  0  0  0  0  0  0
   48.3220    5.5134   19.6093 C   0  0  0  0  0  0  0  0  0  0  0  0
   48.0699    6.2990   20.6795 O   0  0  0  0  0  0  0  0  0  0  0  0
   49.6981    3.3793   17.0779 O   0  0  0  0  0  0  0  0  0  0  0  0
   49.8240    4.4299   21.2399 O   0  0  0  0  0  0  0  0  0  0  0  0
   51.1115    6.0131   19.1654 O   0  0  0  0  0  0  0  0  0  0  0  0
   47.7467    5.7092   18.5496 O   0  0  0  0  0  0  0  0  0  0  0  0
   50.2795    3.5969   18.5623 N   0  0  0  0  0  0  0  0  0  0  0  0
   50.1649    2.6701   17.4450 C   0  0  0  0  0  0  0  0  0  0  0  0
   51.2697    1.7039   17.4940 C   0  0  0  0  0  0  0  0  0  0  0  0
   52.1729    0.9129   17.5337 C   0  0  0  0  0  0  0  0  0  0  0  0
   49.2323    4.6106   18.5467 C   0  0  2  0  0  0  0  0  0  0  0  0
   49.4118    5.6815   17.4452 C   0  0  0  0  0  0  0  0  0  0  0  0
   48.7292    6.9539   17.9671 C   0  0  0  0  0  0  0  0  0  0  0  0
   48.9499    6.8130   19.4399 C   0  0  0  0  0  0  0  0  0  0  0  0
   49.2467    5.4851   19.7743 C   0  0  0  0  0  0  0  0  0  0  0  0
   49.4445    5.1153   21.0963 C   0  0  0  0  0  0  0  0  0  0  0  0
   48.8469    7.7920   20.4138 C   0  0  0  0  0  0  0  0  0  0  0  0
   49.0592    7.4267   21.7450 C   0  0  0  0  0  0  0  0  0  0  0  0
   49.3565    6.0976   22.0848 C   0  0  0  0  0  0  0  0  0  0  0  0
   51.2178    4.7094   18.1584 N   0  0  0  0  0  0  0  0  0  0  0  0
   51.5913    3.3095   18.3013 C   0  0  0  0  0  0  0  0  0  0  0  0
   53.0320    3.2115   18.5687 C   0  0  0  0  0  0  0  0  0  0  0  0
   54.2091    3.1340   18.7951 C   0  0  0  0  0  0  0  0  0  0  0  0
   49.7804    4.8986   18.0209 C   0  0  2  0  0  0  0  0  0  0  0  0
   49.5082    6.2078   17.2459 C   0  0  0  0  0  0  0  0  0  0  0  0
   48.1048    6.6627   17.6623 C   0  0  0  0  0  0  0  0  0  0  0  0
   48.0655    6.1816   19.0800 C   0  0  0  0  0  0  0  0  0  0  0  0
   49.0269    5.1813   19.2978 C   0  0  0  0  0  0  0  0  0  0  0  0
   49.1306    4.5747   20.5413 C   0  0  0  0  0  0  0  0  0  0  0  0
   47.2020    6.5887   20.0840 C   0  0  0  0  0  0  0  0  0  0  0  0
   47.3152    5.9873   21.3373 C   0  0  0  0  0  0  0  0  0  0  0  0
   48.2731    4.9881   21.5639 C   0  0  0  0  0  0  0  0  0  0  0  0
   50.2530    5.1110   15.7991 H   0  0  0  0  0  0  0  0  0  0  0  0
   51.4050    4.0096   19.2279 H   0  0  0  0  0  0  0  0  0  0  0  0
   48.9242    3.4732   19.6861 H   0  0  0  0  0  0  0  0  0  0  0  0
   47.3847    6.9295   20.3732 H   0  0  0  0  0  0  0  0  0  0  0  0
   50.0092    5.3654   21.4576 H   0  0  0  0  0  0  0  0  0  0  0  0
   51.2267    6.3917   18.2673 H   0  0  0  0  0  0  0  0  0  0  0  0
   51.1911    4.0498   18.5368 H   0  0  0  0  0  0  0  0  0  0  0  0
   50.1928    3.1968   16.4866 H   0  0  0  0  0  0  0  0  0  0  0  0
   49.2143    2.1300   17.5043 H   0  0  0  0  0  0  0  0  0  0  0  0
   52.9786    0.2187   17.5748 H   0  0  0  0  0  0  0  0  0  0  0  0
   48.2379    4.1506   18.4780 H   0  0  0  0  0  0  0  0  0  0  0  0
   49.0036    5.3637   16.4802 H   0  0  0  0  0  0  0  0  0  0  0  0
   50.4791    5.8946   17.2874 H   0  0  0  0  0  0  0  0  0  0  0  0
   47.6575    6.9510   17.7436 H   0  0  0  0  0  0  0  0  0  0  0  0
   49.1964    7.8531   17.5569 H   0  0  0  0  0  0  0  0  0  0  0  0
   49.6626    4.0837   21.3556 H   0  0  0  0  0  0  0  0  0  0  0  0
   48.6057    8.8175   20.1549 H   0  0  0  0  0  0  0  0  0  0  0  0
   48.9879    8.1763   22.5289 H   0  0  0  0  0  0  0  0  0  0  0  0
   49.5137    5.8298   23.1265 H   0  0  0  0  0  0  0  0  0  0  0  0
   51.5574    5.2472   18.9554 H   0  0  0  0  0  0  0  0  0  0  0  0
   51.3562    2.7656   17.3783 H   0  0  0  0  0  0  0  0  0  0  0  0
   51.0448    2.8220   19.1144 H   0  0  0  0  0  0  0  0  0  0  0  0
   55.2553    3.0703   18.9893 H   0  0  0  0  0  0  0  0  0  0  0  0
   49.3006    4.0665   17.4875 H   0  0  0  0  0  0  0  0  0  0  0  0
   49.5962    6.0770   16.1614 H   0  0  0  0  0  0  0  0  0  0  0  0
   50.2292    6.9877   17.5342 H   0  0  0  0  0  0  0  0  0  0  0  0
   47.3305    6.1620   17.0719 H   0  0  0  0  0  0  0  0  0  0  0  0
   47.9970    7.7474   17.5852 H   0  0  0  0  0  0  0  0  0  0  0  0
   49.8559    3.7933   20.7355 H   0  0  0  0  0  0  0  0  0  0  0  0
   46.4562    7.3565   19.9056 H   0  0  0  0  0  0  0  0  0  0  0  0
   46.6542    6.2914   22.1451 H   0  0  0  0  0  0  0  0  0  0  0  0
   48.3461    4.5257   22.5452 H   0  0  0  0  0  0  0  0  0  0  0  0
  1  2  1  0
  2  3  1  0
  3  4  1  0
  4  5  1  0
  5  6  1  0
  2  7  2  0
  4  8  1  0
  3  9  1  0
  5 10  2  0
 12 11  1  0
 15 11  1  0
 12 13  1  0
 13 14  3  0
 16 15  1  0
 19 15  1  0
 16 17  1  0
 17 18  1  0
 18 19  2  0
 18 21  1  0
 20 19  1  0
 23 20  2  0
 21 22  2  0
 22 23  1  0
 25 24  1  0
 28 24  1  0
 25 26  1  0
 26 27  3  0
 29 28  1  0
 32 28  1  0
 29 30  1  0
 30 31  1  0
 31 32  2  0
 31 34  1  0
 33 32  1  0
 36 33  2  0
 34 35  2  0
 35 36  1  0
  1 37  1  0
  3 38  1  1
  4 39  1  1
  6 40  1  0
  8 41  1  0
  9 42  1  0
 11 43  1  0
 12 44  1  0
 12 45  1  0
 14 46  1  0
 15 47  1  1
 16 48  1  0
 16 49  1  0
 17 50  1  0
 17 51  1  0
 20 52  1  0
 21 53  1  0
 22 54  1  0
 23 55  1  0
 24 56  1  0
 25 57  1  0
 25 58  1  0
 27 59  1  0
 28 60  1  1
 29 61  1  0
 29 62  1  0
 30 63  1  0
 30 64  1  0
 33 65  1  0
 34 66  1  0
 35 67  1  0
 36 68  1  0
M  END
> <Uni-Dock RESULT> 
ENERGY=   -5.432  LOWER_BOUND=    6.435  UPPER_BOUND=    8.445
INTER + INTRA:          -5.432
INTER:                  -5.432
INTRA:                   0.000
UNBOUND:                 0.000

$$$$

     RDKit          3D

 68 69  0  0  0  0  0  0  0  0999 V2000
   46.5451    5.5227   19.5593 O   0  0  0  0  0  0  0  0  0  0  0  0
   47.5202    6.3402   20.0234 C   0  0  0  0  0  0  0  0  0  0  0  0
   48.7438    5.5543   20.4896 C   0  0  2  0  0  0  0  0  0  0  0  0
   50.0131    6.1271   19.8575 C   0  0  2  0  0  0  0  0  0  0  0  0
   50.0154    5.8249   18.3586 C   0  0  0  0  0  0  0  0  0  0  0  0
   51.0386    5.0314   17.9722 O   0  0  0  0  0  0  0  0  0  0  0  0
   47.3674    7.5489   20.0531 O   0  0  0  0  0  0  0  0  0  0  0  0
   51.1608    5.5939   20.5321 O   0  0  0  0  0  0  0  0  0  0  0  0
   48.6549    4.1432   20.2425 O   0  0  0  0  0  0  0  0  0  0  0  0
   49.1852    6.2027   17.5461 O   0  0  0  0  0  0  0  0  0  0  0  0
   48.5607    6.7190   20.7430 N   0  0  0  0  0  0  0  0  0  0  0  0
   47.6234    7.8225   20.8988 C   0  0  0  0  0  0  0  0  0  0  0  0
   47.3958    8.0746   22.3275 C   0  0  0  0  0  0  0  0  0  0  0  0
   47.2094    8.2817   23.4960 C   0  0  0  0  0  0  0  0  0  0  0  0
   48.7971    6.3908   19.3427 C   0  0  2  0  0  0  0  0  0  0  0  0
   47.6095    5.6761   18.6564 C   0  0  0  0  0  0  0  0  0  0  0  0
   48.2130    4.8212   17.5329 C   0  0  0  0  0  0  0  0  0  0  0  0
   49.5424    4.4712   18.1230 C   0  0  0  0  0  0  0  0  0  0  0  0
   49.8752    5.3535   19.1594 C   0  0  0  0  0  0  0  0  0  0  0  0
   51.0892    5.2428   19.8207 C   0  0  0  0  0  0  0  0  0  0  0  0
   50.4101    3.4661   17.7303 C   0  0  0  0  0  0  0  0  0  0  0  0
   51.6278    3.3423   18.4029 C   0  0  0  0  0  0  0  0  0  0  0  0
   51.9657    4.2240   19.4415 C   0  0  0  0  0  0  0  0  0  0  0  0
   47.7824    5.4262   20.8065 N   0  0  0  0  0  0  0  0  0  0  0  0
   47.9161    6.3776   21.9004 C   0  0  0  0  0  0  0  0  0  0  0  0
   47.7120    5.6855   23.1795 C   0  0  0  0  0  0  0  0  0  0  0  0
   47.5526    5.1160   24.2250 C   0  0  0  0  0  0  0  0  0  0  0  0
   48.1002    6.0087   19.5102 C   0  0  2  0  0  0  0  0  0  0  0  0
   47.3456    5.2374   18.4036 C   0  0  0  0  0  0  0  0  0  0  0  0
   48.1519    5.4461   17.1166 C   0  0  0  0  0  0  0  0  0  0  0  0
   49.5421    5.5218   17.6683 C   0  0  0  0  0  0  0  0  0  0  0  0
   49.5228    5.8317   19.0380 C   0  0  0  0  0  0  0  0  0  0  0  0
   50.7134    5.9843   19.7337 C   0  0  0  0  0  0  0  0  0  0  0  0
   50.7323    5.3614   16.9776 C   0  0  0  0  0  0  0  0  0  0  0  0
   51.9286    5.5027   17.6805 C   0  0  0  0  0  0  0  0  0  0  0  0
   51.9186    5.8113   19.0487 C   0  0  0  0  0  0  0  0  0  0  0  0
   45.8350    6.1406   19.2717 H   0  0  0  0  0  0  0  0  0  0  0  0
   48.7901    5.6581   21.5808 H   0  0  0  0  0  0  0  0  0  0  0  0
   50.0677    7.2151   19.9698 H   0  0  0  0  0  0  0  0  0  0  0  0
   50.9169    4.9161   17.0063 H   0  0  0  0  0  0  0  0  0  0  0  0
   51.2265    4.6678   20.2239 H   0  0  0  0  0  0  0  0  0  0  0  0
   47.7388    3.9892   19.9260 H   0  0  0  0  0  0  0  0  0  0  0  0
   48.2041    5.8983   21.2288 H   0  0  0  0  0  0  0  0  0  0  0  0
   46.6659    7.6023   20.4177 H   0  0  0  0  0  0  0  0  0  0  0  0
   48.0319    8.7271   20.4365 H   0  0  0  0  0  0  0  0  0  0  0  0
   47.0476    8.4555   24.5335 H   0  0  0  0  0  0  0  0  0  0  0  0
   49.0923    7.2812   18.7724 H   0  0  0  0  0  0  0  0  0  0  0  0
   46.8585    6.3779   18.2792 H   0  0  0  0  0  0  0  0  0  0  0  0
   47.0984    5.0114   19.3681 H   0  0  0  0  0  0  0  0  0  0  0  0
   48.3482    5.4053   16.6170 H   0  0  0  0  0  0  0  0  0  0  0  0
   47.5989    3.9399   17.3298 H   0  0  0  0  0  0  0  0  0  0  0  0
   51.3514    5.9344   20.6156 H   0  0  0  0  0  0  0  0  0  0  0  0
   50.1564    2.7908   16.9200 H   0  0  0  0  0  0  0  0  0  0  0  0
   52.3258    2.5597   18.1170 H   0  0  0  0  0  0  0  0  0  0  0  0
   52.9199    4.1164   19.9510 H   0  0  0  0  0  0  0  0  0  0  0  0
   48.3785    4.6153   20.9708 H   0  0  0  0  0  0  0  0  0  0  0  0
   47.1682    7.1729   21.7953 H   0  0  0  0  0  0  0  0  0  0  0  0
   48.9005    6.8555   21.9079 H   0  0  0  0  0  0  0  0  0  0  0  0
   47.4037    4.6073   25.1498 H   0  0  0  0  0  0  0  0  0  0  0  0
   47.8230    7.0703   19.4521 H   0  0  0  0  0  0  0  0  0  0  0  0
   46.3060    5.5679   18.2989 H   0  0  0  0  0  0  0  0  0  0  0  0
   47.3184    4.1606   18.6292 H   0  0  0  0  0  0  0  0  0  0  0  0
   47.8876    6.3895   16.6277 H   0  0  0  0  0  0  0  0  0  0  0  0
   48.0214    4.6113   16.4236 H   0  0  0  0  0  0  0  0  0  0  0  0
   50.7292    6.2332   20.7883 H   0  0  0  0  0  0  0  0  0  0  0  0
   50.7390    5.1301   15.9174 H   0  0  0  0  0  0  0  0  0  0  0  0
   52.8774    5.3767   17.1648 H   0  0  0  0  0  0  0  0  0  0  0  0
   52.8596    5.9225   19.5818 H   0  0  0  0  0  0  0  0  0  0  0  0
  1  2  1  0
  2  3  1  0
  3  4  1  0
  4  5  1  0
  5  6  1  0
  2  7  2  0
  4  8  1  0
  3  9  1  0
  5 10  2  0
 12 11  1  0
 15 11  1  0
 12 13  1  0
 13 14  3  0
 16 15  1  0
 19 15  1  0
 16 17  1  0
 17 18  1  0
 18 19  2  0
 18 21  1  0
 20 19  1  0
 23 20  2  0
 21 22  2  0
 22 23  1  0
 25 24  1  0
 28 24  1  0
 25 26  1  0
 26 27  3  0
 29 28  1  0
 32 28  1  0
 29 30  1  0
 30 31  1  0
 31 32  2  0
 31 34  1  0
 33 32  1  0
 36 33  2  0
 34 35  2  0
 35 36  1  0
  1 37  1  0
  3 38  1  1
  4 39  1  1
  6 40  1  0
  8 41  1  0
  9 42  1  0
 11 43  1  0
 12 44  1  0
 12 45  1  0
 14 46  1  0
 15 47  1  1
 16 48  1  0
 16 49  1  0
 17 50  1  0
 17 51  1  0
 20 52  1  0
 21 53  1  0
 22 54  1  0
 23 55  1  0
 24 56  1  0
 25 57  1  0
 25 58  1  0
 27 59  1  0
 28 60  1  1
 29 61  1  0
 29 62  1  0
 30 63  1  0
 30 64  1  0
 33 65  1  0
 34 66  1  0
 35 67  1  0
 36 68  1  0
M  END
> <Uni-Dock RESULT> 
ENERGY=   -5.375  LOWER_BOUND=    6.538  UPPER_BOUND=    8.723
INTER + INTRA:          -5.375
INTER:                  -5.375
INTRA:                   0.000
UNBOUND:                 0.000

$$$$

     RDKit          3D

 68 69  0  0  0  0  0  0  0  0999 V2000
   48.4281    7.4210   11.3223 O   0  0  0  0  0  0  0  0  0  0  0  0
   47.5074    7.7025   12.2750 C   0  0  0  0  0  0  0  0  0  0  0  0
   48.0504    7.4487   13.6797 C   0  0  2  0  0  0  0  0  0  0  0  0
   47.8093    8.6695   14.5688 C   0  0  2  0  0  0  0  0  0  0  0  0
   48.7028    9.8203   14.1050 C   0  0  0  0  0  0  0  0  0  0  0  0
   49.6011   10.2116   15.0356 O   0  0  0  0  0  0  0  0  0  0  0  0
   46.3918    8.0921   11.9771 O   0  0  0  0  0  0  0  0  0  0  0  0
   48.0349    8.3101   15.9387 O   0  0  0  0  0  0  0  0  0  0  0  0
   49.4361    7.0759   13.7068 O   0  0  0  0  0  0  0  0  0  0  0  0
   48.6806   10.3518   13.0053 O   0  0  0  0  0  0  0  0  0  0  0  0
   46.8820    7.6210   13.4353 N   0  0  0  0  0  0  0  0  0  0  0  0
   45.7979    7.5768   12.4642 C   0  0  0  0  0  0  0  0  0  0  0  0
   44.9755    6.3835   12.7013 C   0  0  0  0  0  0  0  0  0  0  0  0
   44.3020    5.4078   12.8949 C   0  0  0  0  0  0  0  0  0  0  0  0
   47.7623    8.7638   13.2265 C   0  0  2  0  0  0  0  0  0  0  0  0
   48.6775    8.6327   11.9866 C   0  0  0  0  0  0  0  0  0  0  0  0
   49.9291    9.4703   12.2853 C   0  0  0  0  0  0  0  0  0  0  0  0
   50.0255    9.3201   13.7706 C   0  0  0  0  0  0  0  0  0  0  0  0
   48.7997    8.9085   14.3103 C   0  0  0  0  0  0  0  0  0  0  0  0
   48.6470    8.7490   15.6794 C   0  0  0  0  0  0  0  0  0  0  0  0
   51.1167    9.5776   14.5833 C   0  0  0  0  0  0  0  0  0  0  0  0
   50.9712    9.4048   15.9616 C   0  0  0  0  0  0  0  0  0  0  0  0
   49.7451    8.9929   16.5068 C   0  0  0  0  0  0  0  0  0  0  0  0
   48.0211    6.7800   12.9096 N   0  0  0  0  0  0  0  0  0  0  0  0
   46.7055    6.2740   13.2739 C   0  0  0  0  0  0  0  0  0  0  0  0
   46.8052    4.8483   13.6117 C   0  0  0  0  0  0  0  0  0  0  0  0
   46.8902    3.6841   13.8953 C   0  0  0  0  0  0  0  0  0  0  0  0
   48.0303    8.2191   12.6867 C   0  0  2  0  0  0  0  0  0  0  0  0
   49.1772    8.5795   11.7154 C   0  0  0  0  0  0  0  0  0  0  0  0
   49.5307   10.0434   12.0018 C   0  0  0  0  0  0  0  0  0  0  0  0
   49.2561   10.1135   13.4723 C   0  0  0  0  0  0  0  0  0  0  0  0
   48.4086    9.0687   13.8755 C   0  0  0  0  0  0  0  0  0  0  0  0
   48.0014    8.9741   15.1984 C   0  0  0  0  0  0  0  0  0  0  0  0
   49.7058   11.0696   14.3685 C   0  0  0  0  0  0  0  0  0  0  0  0
   49.3061   10.9665   15.7008 C   0  0  0  0  0  0  0  0  0  0  0  0
   48.4606    9.9258   16.1122 C   0  0  0  0  0  0  0  0  0  0  0  0
   47.9727    7.6457   10.4792 H   0  0  0  0  0  0  0  0  0  0  0  0
   47.5065    6.5831   14.0779 H   0  0  0  0  0  0  0  0  0  0  0  0
   46.7728    9.0179   14.5084 H   0  0  0  0  0  0  0  0  0  0  0  0
   50.1025   10.9393   14.6112 H   0  0  0  0  0  0  0  0  0  0  0  0
   49.0065    8.2342   16.0225 H   0  0  0  0  0  0  0  0  0  0  0  0
   49.6925    6.9495   12.7680 H   0  0  0  0  0  0  0  0  0  0  0  0
   47.4237    6.7605   13.3803 H   0  0  0  0  0  0  0  0  0  0  0  0
   46.1818    7.5486   11.4401 H   0  0  0  0  0  0  0  0  0  0  0  0
   45.1710    8.4689   12.5639 H   0  0  0  0  0  0  0  0  0  0  0  0
   43.7132    4.5389   13.0717 H   0  0  0  0  0  0  0  0  0  0  0  0
   47.1911    9.7004   13.1860 H   0  0  0  0  0  0  0  0  0  0  0  0
   48.1821    8.9509   11.0635 H   0  0  0  0  0  0  0  0  0  0  0  0
   48.9814    7.5855   11.8428 H   0  0  0  0  0  0  0  0  0  0  0  0
   49.7770   10.5217   12.0210 H   0  0  0  0  0  0  0  0  0  0  0  0
   50.8060    9.0750   11.7658 H   0  0  0  0  0  0  0  0  0  0  0  0
   47.6932    8.4416   16.0977 H   0  0  0  0  0  0  0  0  0  0  0  0
   52.0619    9.9075   14.1655 H   0  0  0  0  0  0  0  0  0  0  0  0
   51.8130    9.5967   16.6219 H   0  0  0  0  0  0  0  0  0  0  0  0
   49.6481    8.8683   17.5822 H   0  0  0  0  0  0  0  0  0  0  0  0
   48.7014    6.5429   13.6313 H   0  0  0  0  0  0  0  0  0  0  0  0
   46.0127    6.3996   12.4330 H   0  0  0  0  0  0  0  0  0  0  0  0
   46.2826    6.8129   14.1272 H   0  0  0  0  0  0  0  0  0  0  0  0
   46.9698    2.6496   14.1395 H   0  0  0  0  0  0  0  0  0  0  0  0
   47.0829    8.5804   12.2634 H   0  0  0  0  0  0  0  0  0  0  0  0
   48.9030    8.4173   10.6669 H   0  0  0  0  0  0  0  0  0  0  0  0
   50.0646    7.9596   11.9142 H   0  0  0  0  0  0  0  0  0  0  0  0
   48.8688   10.7277   11.4609 H   0  0  0  0  0  0  0  0  0  0  0  0
   50.5748   10.2570   11.7603 H   0  0  0  0  0  0  0  0  0  0  0  0
   47.3400    8.1848   15.5360 H   0  0  0  0  0  0  0  0  0  0  0  0
   50.3539   11.8787   14.0477 H   0  0  0  0  0  0  0  0  0  0  0  0
   49.6486   11.6999   16.4267 H   0  0  0  0  0  0  0  0  0  0  0  0
   48.1542    9.8616   17.1535 H   0  0  0  0  0  0  0  0  0  0  0  0
  1  2  1  0
  2  3  1  0
  3  4  1  0
  4  5  1  0
  5  6  1  0
  2  7  2  0
  4  8  1  0
  3  9  1  0
  5 10  2  0
 12 11  1  0
 15 11  1  0
 12 13  1  0
 13 14  3  0
 16 15  1  0
 19 15  1  0
 16 17  1  0
 17 18  1  0
 18 19  2  0
 18 21  1  0
 20 19  1  0
 23 20  2  0
 21 22  2  0
 22 23  1  0
 25 24  1  0
 28 24  1  0
 25 26  1  0
 26 27  3  0
 29 28  1  0
 32 28  1  0
 29 30  1  0
 30 31  1  0
 31 32  2  0
 31 34  1  0
 33 32  1  0
 36 33  2  0
 34 35  2  0
 35 36  1  0
  1 37  1  0
  3 38  1  1
  4 39  1  1
  6 40  1  0
  8 41  1  0
  9 42  1  0
 11 43  1  0
 12 44  1  0
 12 45  1  0
 14 46  1  0
 15 47  1  1
 16 48  1  0
 16 49  1  0
 17 50  1  0
 17 51  1  0
 20 52  1  0
 21 53  1  0
 22 54  1  0
 23 55  1  0
 24 56  1  0
 25 57  1  0
 25 58  1  0
 27 59  1  0
 28 60  1  1
 29 61  1  0
 29 62  1  0
 30 63  1  0
 30 64  1  0
 33 65  1  0
 34 66  1  0
 35 67  1  0
 36 68  1  0
M  END
> <Uni-Dock RESULT> 
ENERGY=   -5.297  LOWER_BOUND=    1.961  UPPER_BOUND=    3.632
INTER + INTRA:          -5.297
INTER:                  -5.297
INTRA:                   0.000
UNBOUND:                 0.000

$$$$

     RDKit          3D

 68 69  0  0  0  0  0  0  0  0999 V2000
   45.6704   10.0382   20.4053 O   0  0  0  0  0  0  0  0  0  0  0  0
   46.9113    9.6841   20.8167 C   0  0  0  0  0  0  0  0  0  0  0  0
   47.8937    9.6053   19.6501 C   0  0  2  0  0  0  0  0  0  0  0  0
   49.1563   10.4082   19.9662 C   0  0  2  0  0  0  0  0  0  0  0  0
   48.8208   11.8999   19.9759 C   0  0  0  0  0  0  0  0  0  0  0  0
   49.4737   12.6035   19.0247 O   0  0  0  0  0  0  0  0  0  0  0  0
   47.1437    9.4538   21.9907 O   0  0  0  0  0  0  0  0  0  0  0  0
   50.1790   10.0763   19.0173 O   0  0  0  0  0  0  0  0  0  0  0  0
   47.3370   10.0223   18.3946 O   0  0  0  0  0  0  0  0  0  0  0  0
   48.0256   12.4549   20.7188 O   0  0  0  0  0  0  0  0  0  0  0  0
   48.1207    9.1584   20.7469 N   0  0  0  0  0  0  0  0  0  0  0  0
   47.6059    8.6528   22.0118 C   0  0  0  0  0  0  0  0  0  0  0  0
   47.7032    7.1877   22.0303 C   0  0  0  0  0  0  0  0  0  0  0  0
   47.7829    5.9892   22.0465 C   0  0  0  0  0  0  0  0  0  0  0  0
   48.0130   10.6086   20.6486 C   0  0  2  0  0  0  0  0  0  0  0  0
   46.5680   11.1176   20.4359 C   0  0  0  0  0  0  0  0  0  0  0  0
   46.6880   12.4524   19.6868 C   0  0  0  0  0  0  0  0  0  0  0  0
   47.9235   12.2156   18.8773 C   0  0  0  0  0  0  0  0  0  0  0  0
   48.6756   11.1617   19.4129 C   0  0  0  0  0  0  0  0  0  0  0  0
   49.8880   10.7978   18.8462 C   0  0  0  0  0  0  0  0  0  0  0  0
   48.3647   12.9215   17.7707 C   0  0  0  0  0  0  0  0  0  0  0  0
   49.5783   12.5493   17.1884 C   0  0  0  0  0  0  0  0  0  0  0  0
   50.3353   11.4943   17.7217 C   0  0  0  0  0  0  0  0  0  0  0  0
   47.0047    9.1109   19.7303 N   0  0  0  0  0  0  0  0  0  0  0  0
   47.6007    7.9491   20.3742 C   0  0  0  0  0  0  0  0  0  0  0  0
   47.4059    6.7655   19.5270 C   0  0  0  0  0  0  0  0  0  0  0  0
   47.2525    5.8002   18.8288 C   0  0  0  0  0  0  0  0  0  0  0  0
   47.2696   10.3508   20.4467 C   0  0  2  0  0  0  0  0  0  0  0  0
   46.1446   11.3668   20.1449 C   0  0  0  0  0  0  0  0  0  0  0  0
   46.7544   12.7545   20.3738 C   0  0  0  0  0  0  0  0  0  0  0  0
   48.1713   12.5083   19.9559 C   0  0  0  0  0  0  0  0  0  0  0  0
   48.4721   11.1367   19.9835 C   0  0  0  0  0  0  0  0  0  0  0  0
   49.7489   10.6978   19.6644 C   0  0  0  0  0  0  0  0  0  0  0  0
   49.1253   13.4533   19.6149 C   0  0  0  0  0  0  0  0  0  0  0  0
   50.4052   13.0102   19.2821 C   0  0  0  0  0  0  0  0  0  0  0  0
   50.7140   11.6423   19.3062 C   0  0  0  0  0  0  0  0  0  0  0  0
   45.1472   10.0779   21.2380 H   0  0  0  0  0  0  0  0  0  0  0  0
   48.1471    8.5458   19.5205 H   0  0  0  0  0  0  0  0  0  0  0  0
   49.5596   10.1593   20.9535 H   0  0  0  0  0  0  0  0  0  0  0  0
   49.1665   13.5273   19.1395 H   0  0  0  0  0  0  0  0  0  0  0  0
   49.9061   10.5177   18.1880 H   0  0  0  0  0  0  0  0  0  0  0  0
   46.3790   10.1536   18.5627 H   0  0  0  0  0  0  0  0  0  0  0  0
   47.6139    8.7271   19.9763 H   0  0  0  0  0  0  0  0  0  0  0  0
   46.5619    8.9437   22.1613 H   0  0  0  0  0  0  0  0  0  0  0  0
   48.1909    9.0608   22.8425 H   0  0  0  0  0  0  0  0  0  0  0  0
   47.8540    4.9272   22.0504 H   0  0  0  0  0  0  0  0  0  0  0  0
   48.4697   11.0987   21.5183 H   0  0  0  0  0  0  0  0  0  0  0  0
   46.0175   11.2234   21.3764 H   0  0  0  0  0  0  0  0  0  0  0  0
   46.0011   10.4130   19.8101 H   0  0  0  0  0  0  0  0  0  0  0  0
   46.8443   13.2853   20.3799 H   0  0  0  0  0  0  0  0  0  0  0  0
   45.8087   12.6404   19.0652 H   0  0  0  0  0  0  0  0  0  0  0  0
   50.4759    9.9888   19.2692 H   0  0  0  0  0  0  0  0  0  0  0  0
   47.7872   13.7448   17.3638 H   0  0  0  0  0  0  0  0  0  0  0  0
   49.9460   13.0845   16.3168 H   0  0  0  0  0  0  0  0  0  0  0  0
   51.2802   11.2212   17.2589 H   0  0  0  0  0  0  0  0  0  0  0  0
   47.3416    9.1930   18.7714 H   0  0  0  0  0  0  0  0  0  0  0  0
   47.1262    7.7794   21.3484 H   0  0  0  0  0  0  0  0  0  0  0  0
   48.6715    8.0859   20.5532 H   0  0  0  0  0  0  0  0  0  0  0  0
   47.1079    4.9453   18.2087 H   0  0  0  0  0  0  0  0  0  0  0  0
   47.3259   10.1993   21.5335 H   0  0  0  0  0  0  0  0  0  0  0  0
   45.2542   11.1992   20.7613 H   0  0  0  0  0  0  0  0  0  0  0  0
   45.8256   11.2933   19.0942 H   0  0  0  0  0  0  0  0  0  0  0  0
   46.7162   13.0388   21.4305 H   0  0  0  0  0  0  0  0  0  0  0  0
   46.2628   13.5132   19.7599 H   0  0  0  0  0  0  0  0  0  0  0  0
   50.0124    9.6468   19.6869 H   0  0  0  0  0  0  0  0  0  0  0  0
   48.8874   14.5121   19.6039 H   0  0  0  0  0  0  0  0  0  0  0  0
   51.1719   13.7296   19.0052 H   0  0  0  0  0  0  0  0  0  0  0  0
   51.7175   11.3128   19.0484 H   0  0  0  0  0  0  0  0  0  0  0  0
  1  2  1  0
  2  3  1  0
  3  4  1  0
  4  5  1  0
  5  6  1  0
  2  7  2  0
  4  8  1  0
  3  9  1  0
  5 10  2  0
 12 11  1  0
 15 11  1  0
 12 13  1  0
 13 14  3  0
 16 15  1  0
 19 15  1  0
 16 17  1  0
 17 18  1  0
 18 19  2  0
 18 21  1  0
 20 19  1  0
 23 20  2  0
 21 22  2  0
 22 23  1  0
 25 24  1  0
 28 24  1  0
 25 26  1  0
 26 27  3  0
 29 28  1  0
 32 28  1  0
 29 30  1  0
 30 31  1  0
 31 32  2  0
 31 34  1  0
 33 32  1  0
 36 33  2  0
 34 35  2  0
 35 36  1  0
  1 37  1  0
  3 38  1  1
  4 39  1  1
  6 40  1  0
  8 41  1  0
  9 42  1  0
 11 43  1  0
 12 44  1  0
 12 45  1  0
 14 46  1  0
 15 47  1  1
 16 48  1  0
 16 49  1  0
 17 50  1  0
 17 51  1  0
 20 52  1  0
 21 53  1  0
 22 54  1  0
 23 55  1  0
 24 56  1  0
 25 57  1  0
 25 58  1  0
 27 59  1  0
 28 60  1  1
 29 61  1  0
 29 62  1  0
 30 63  1  0
 30 64  1  0
 33 65  1  0
 34 66  1  0
 35 67  1  0
 36 68  1  0
M  END
> <Uni-Dock RESULT> 
ENERGY=   -5.008  LOWER_BOUND=    7.153  UPPER_BOUND=    8.834
INTER + INTRA:          -5.008
INTER:                  -5.008
INTRA:                   0.000
UNBOUND:                 0.000

$$$$
