
     RDKit          3D

 68 69  0  0  0  0  0  0  0  0999 V2000
   46.2508    5.1776   10.9795 O   0  0  0  0  0  0  0  0  0  0  0  0
   45.0395    4.8812   11.4767 C   0  0  0  0  0  0  0  0  0  0  0  0
   44.4024    3.6155   10.9131 C   0  0  2  0  0  0  0  0  0  0  0  0
   44.3183    3.6290    9.3866 C   0  0  2  0  0  0  0  0  0  0  0  0
   45.7083    3.4401    8.7794 C   0  0  0  0  0  0  0  0  0  0  0  0
   45.9585    4.2303    7.7174 O   0  0  0  0  0  0  0  0  0  0  0  0
   44.5528    5.5611   12.3708 O   0  0  0  0  0  0  0  0  0  0  0  0
   43.5630    4.7586    8.9496 O   0  0  0  0  0  0  0  0  0  0  0  0
   43.0537    3.5038   11.4192 O   0  0  0  0  0  0  0  0  0  0  0  0
   46.5449    2.6314    9.1554 O   0  0  0  0  0  0  0  0  0  0  0  0
   44.4765    4.2029    8.3272 N   0  0  0  0  0  0  0  0  0  0  0  0
   44.6986    3.2559    7.2389 C   0  0  0  0  0  0  0  0  0  0  0  0
   46.1125    3.1808    6.8502 C   0  0  0  0  0  0  0  0  0  0  0  0
   47.2687    3.1190    6.5303 C   0  0  0  0  0  0  0  0  0  0  0  0
   45.0506    3.7787    9.6026 C   0  0  2  0  0  0  0  0  0  0  0  0
   44.4001    2.5088   10.1997 C   0  0  0  0  0  0  0  0  0  0  0  0
   44.5701    2.6113   11.7219 C   0  0  0  0  0  0  0  0  0  0  0  0
   44.5103    4.0937   11.9151 C   0  0  0  0  0  0  0  0  0  0  0  0
   44.7784    4.7632   10.7136 C   0  0  0  0  0  0  0  0  0  0  0  0
   44.8263    6.1488   10.6710 C   0  0  0  0  0  0  0  0  0  0  0  0
   44.2798    4.7910   13.0892 C   0  0  0  0  0  0  0  0  0  0  0  0
   44.3099    6.1867   13.0474 C   0  0  0  0  0  0  0  0  0  0  0  0
   44.5818    6.8611   11.8469 C   0  0  0  0  0  0  0  0  0  0  0  0
   45.7455    3.3586    8.9554 N   0  0  0  0  0  0  0  0  0  0  0  0
   46.0166    2.0037    8.4868 C   0  0  0  0  0  0  0  0  0  0  0  0
   46.7135    2.0636    7.1948 C   0  0  0  0  0  0  0  0  0  0  0  0
   47.2837    2.1135    6.1388 C   0  0  0  0  0  0  0  0  0  0  0  0
   45.1665    3.3689   10.2950 C   0  0  2  0  0  0  0  0  0  0  0  0
   43.7234    2.8177   10.3351 C   0  0  0  0  0  0  0  0  0  0  0  0
   43.0435    3.4783   11.5409 C   0  0  0  0  0  0  0  0  0  0  0  0
   43.7379    4.8036   11.5689 C   0  0  0  0  0  0  0  0  0  0  0  0
   44.9411    4.7541   10.8498 C   0  0  0  0  0  0  0  0  0  0  0  0
   45.7674    5.8673   10.7871 C   0  0  0  0  0  0  0  0  0  0  0  0
   43.3376    5.9547   12.2277 C   0  0  0  0  0  0  0  0  0  0  0  0
   44.1590    7.0804   12.1520 C   0  0  0  0  0  0  0  0  0  0  0  0
   45.3652    7.0373   11.4369 C   0  0  0  0  0  0  0  0  0  0  0  0
   46.5177    5.9989   11.4450 H   0  0  0  0  0  0  0  0  0  0  0  0
   44.9626    2.7541   11.2918 H   0  0  0  0  0  0  0  0  0  0  0  0
   43.7417    2.7565    9.0533 H   0  0  0  0  0  0  0  0  0  0  0  0
   46.8691    4.0008    7.4435 H   0  0  0  0  0  0  0  0  0  0  0  0
   42.7092    4.7028    9.4213 H   0  0  0  0  0  0  0  0  0  0  0  0
   43.0709    3.8690   12.3274 H   0  0  0  0  0  0  0  0  0  0  0  0
   43.4740    4.3300    8.4532 H   0  0  0  0  0  0  0  0  0  0  0  0
   44.1221    3.6006    6.3723 H   0  0  0  0  0  0  0  0  0  0  0  0
   44.3095    2.2622    7.4863 H   0  0  0  0  0  0  0  0  0  0  0  0
   48.2956    3.0746    6.2496 H   0  0  0  0  0  0  0  0  0  0  0  0
   46.1387    3.6559    9.5352 H   0  0  0  0  0  0  0  0  0  0  0  0
   44.8365    1.5874    9.8002 H   0  0  0  0  0  0  0  0  0  0  0  0
   43.3252    2.4840    9.9675 H   0  0  0  0  0  0  0  0  0  0  0  0
   45.5446    2.2272   12.0402 H   0  0  0  0  0  0  0  0  0  0  0  0
   43.7683    2.0869   12.2490 H   0  0  0  0  0  0  0  0  0  0  0  0
   45.0521    6.6669    9.7436 H   0  0  0  0  0  0  0  0  0  0  0  0
   44.0831    4.2715   14.0214 H   0  0  0  0  0  0  0  0  0  0  0  0
   44.1291    6.7578   13.9546 H   0  0  0  0  0  0  0  0  0  0  0  0
   44.6104    7.9478   11.8339 H   0  0  0  0  0  0  0  0  0  0  0  0
   46.6250    3.8700    8.9730 H   0  0  0  0  0  0  0  0  0  0  0  0
   45.0838    1.4434    8.3620 H   0  0  0  0  0  0  0  0  0  0  0  0
   46.6423    1.4632    9.2067 H   0  0  0  0  0  0  0  0  0  0  0  0
   47.7836    2.1645    5.1992 H   0  0  0  0  0  0  0  0  0  0  0  0
   45.8038    2.8258   11.0055 H   0  0  0  0  0  0  0  0  0  0  0  0
   43.1800    3.1058    9.4229 H   0  0  0  0  0  0  0  0  0  0  0  0
   43.6924    1.7248   10.3965 H   0  0  0  0  0  0  0  0  0  0  0  0
   43.2464    2.9260   12.4640 H   0  0  0  0  0  0  0  0  0  0  0  0
   41.9649    3.5732   11.3884 H   0  0  0  0  0  0  0  0  0  0  0  0
   46.7074    5.8418   10.2465 H   0  0  0  0  0  0  0  0  0  0  0  0
   42.4091    5.9858   12.7885 H   0  0  0  0  0  0  0  0  0  0  0  0
   43.8646    7.9986   12.6543 H   0  0  0  0  0  0  0  0  0  0  0  0
   45.9947    7.9226   11.3917 H   0  0  0  0  0  0  0  0  0  0  0  0
  1  2  1  0
  2  3  1  0
  3  4  1  0
  4  5  1  0
  5  6  1  0
  2  7  2  0
  4  8  1  0
  3  9  1  0
  5 10  2  0
 12 11  1  0
 15 11  1  0
 12 13  1  0
 13 14  3  0
 16 15  1  0
 19 15  1  0
 16 17  1  0
 17 18  1  0
 18 19  2  0
 18 21  1  0
 20 19  1  0
 23 20  2  0
 21 22  2  0
 22 23  1  0
 25 24  1  0
 28 24  1  0
 25 26  1  0
 26 27  3  0
 29 28  1  0
 32 28  1  0
 29 30  1  0
 30 31  1  0
 31 32  2  0
 31 34  1  0
 33 32  1  0
 36 33  2  0
 34 35  2  0
 35 36  1  0
  1 37  1  0
  3 38  1  1
  4 39  1  6
  6 40  1  0
  8 41  1  0
  9 42  1  0
 11 43  1  0
 12 44  1  0
 12 45  1  0
 14 46  1  0
 15 47  1  1
 16 48  1  0
 16 49  1  0
 17 50  1  0
 17 51  1  0
 20 52  1  0
 21 53  1  0
 22 54  1  0
 23 55  1  0
 24 56  1  0
 25 57  1  0
 25 58  1  0
 27 59  1  0
 28 60  1  1
 29 61  1  0
 29 62  1  0
 30 63  1  0
 30 64  1  0
 33 65  1  0
 34 66  1  0
 35 67  1  0
 36 68  1  0
M  END
> <Uni-Dock RESULT> 
ENERGY=   -5.821  LOWER_BOUND=    0.000  UPPER_BOUND=    0.000
INTER + INTRA:          -5.821
INTER:                  -5.821
INTRA:                   0.000
UNBOUND:                 0.000

$$$$

     RDKit          3D

 68 69  0  0  0  0  0  0  0  0999 V2000
   44.2782    6.9410   12.9356 O   0  0  0  0  0  0  0  0  0  0  0  0
   44.6696    5.6654   12.7869 C   0  0  0  0  0  0  0  0  0  0  0  0
   46.1224    5.3885   13.1587 C   0  0  2  0  0  0  0  0  0  0  0  0
   47.1031    6.2946   12.4140 C   0  0  2  0  0  0  0  0  0  0  0  0
   47.0253    7.7196   12.9613 C   0  0  0  0  0  0  0  0  0  0  0  0
   47.0641    8.6772   12.0144 O   0  0  0  0  0  0  0  0  0  0  0  0
   43.8664    4.8057   12.4486 O   0  0  0  0  0  0  0  0  0  0  0  0
   46.9484    6.1270   11.0049 O   0  0  0  0  0  0  0  0  0  0  0  0
   46.4441    4.0239   12.8092 O   0  0  0  0  0  0  0  0  0  0  0  0
   46.9727    8.0255   14.1440 O   0  0  0  0  0  0  0  0  0  0  0  0
   47.3212    7.1548   11.5839 N   0  0  0  0  0  0  0  0  0  0  0  0
   48.5325    7.9044   11.9025 C   0  0  0  0  0  0  0  0  0  0  0  0
   48.2331    9.2224   12.4761 C   0  0  0  0  0  0  0  0  0  0  0  0
   47.9899   10.3015   12.9447 C   0  0  0  0  0  0  0  0  0  0  0  0
   46.5629    6.7344   12.7605 C   0  0  2  0  0  0  0  0  0  0  0  0
   47.2983    5.7100   13.6561 C   0  0  0  0  0  0  0  0  0  0  0  0
   46.2079    4.8858   14.3548 C   0  0  0  0  0  0  0  0  0  0  0  0
   45.1357    4.8909   13.3114 C   0  0  0  0  0  0  0  0  0  0  0  0
   45.3337    5.9365   12.3997 C   0  0  0  0  0  0  0  0  0  0  0  0
   44.4277    6.1622   11.3740 C   0  0  0  0  0  0  0  0  0  0  0  0
   44.0388    4.0512   13.2132 C   0  0  0  0  0  0  0  0  0  0  0  0
   43.1330    4.2640   12.1717 C   0  0  0  0  0  0  0  0  0  0  0  0
   43.3256    5.3124   11.2586 C   0  0  0  0  0  0  0  0  0  0  0  0
   46.9534    7.6268   13.1200 N   0  0  0  0  0  0  0  0  0  0  0  0
   48.0254    7.9728   14.0473 C   0  0  0  0  0  0  0  0  0  0  0  0
   48.5020    9.3321   13.7583 C   0  0  0  0  0  0  0  0  0  0  0  0
   48.8907   10.4438   13.5215 C   0  0  0  0  0  0  0  0  0  0  0  0
   46.3514    6.3356   13.4365 C   0  0  2  0  0  0  0  0  0  0  0  0
   47.2934    5.1433   13.1556 C   0  0  0  0  0  0  0  0  0  0  0  0
   46.3890    3.9359   12.8784 C   0  0  0  0  0  0  0  0  0  0  0  0
   45.2078    4.6036   12.2472 C   0  0  0  0  0  0  0  0  0  0  0  0
   45.1864    5.9733   12.5482 C   0  0  0  0  0  0  0  0  0  0  0  0
   44.1465    6.7745   12.0982 C   0  0  0  0  0  0  0  0  0  0  0  0
   44.2054    4.0143   11.4942 C   0  0  0  0  0  0  0  0  0  0  0  0
   43.1673    4.8215   11.0265 C   0  0  0  0  0  0  0  0  0  0  0  0
   43.1380    6.1917   11.3262 C   0  0  0  0  0  0  0  0  0  0  0  0
   43.3344    6.9455   12.6677 H   0  0  0  0  0  0  0  0  0  0  0  0
   46.2185    5.4753   14.2460 H   0  0  0  0  0  0  0  0  0  0  0  0
   48.1275    5.9635   12.6279 H   0  0  0  0  0  0  0  0  0  0  0  0
   47.0053    9.5198   12.5078 H   0  0  0  0  0  0  0  0  0  0  0  0
   47.0477    5.1689   10.8413 H   0  0  0  0  0  0  0  0  0  0  0  0
   45.6285    3.5034   12.9587 H   0  0  0  0  0  0  0  0  0  0  0  0
   47.5783    6.3239   11.0543 H   0  0  0  0  0  0  0  0  0  0  0  0
   49.0886    8.0543   10.9695 H   0  0  0  0  0  0  0  0  0  0  0  0
   49.1952    7.3340   12.5623 H   0  0  0  0  0  0  0  0  0  0  0  0
   47.7648   11.2588   13.3545 H   0  0  0  0  0  0  0  0  0  0  0  0
   46.2305    7.5940   13.3555 H   0  0  0  0  0  0  0  0  0  0  0  0
   47.9724    6.1892   14.3739 H   0  0  0  0  0  0  0  0  0  0  0  0
   47.9098    5.0334   13.0412 H   0  0  0  0  0  0  0  0  0  0  0  0
   45.8540    5.3833   15.2636 H   0  0  0  0  0  0  0  0  0  0  0  0
   46.5594    3.8775   14.5902 H   0  0  0  0  0  0  0  0  0  0  0  0
   44.5716    6.9838   10.6786 H   0  0  0  0  0  0  0  0  0  0  0  0
   43.8805    3.2486   13.9262 H   0  0  0  0  0  0  0  0  0  0  0  0
   42.2653    3.6169   12.0704 H   0  0  0  0  0  0  0  0  0  0  0  0
   42.6059    5.4696   10.4590 H   0  0  0  0  0  0  0  0  0  0  0  0
   46.2374    8.3473   13.1798 H   0  0  0  0  0  0  0  0  0  0  0  0
   48.8629    7.2739   13.9490 H   0  0  0  0  0  0  0  0  0  0  0  0
   47.6693    7.9308   15.0834 H   0  0  0  0  0  0  0  0  0  0  0  0
   49.2354   11.4279   13.3023 H   0  0  0  0  0  0  0  0  0  0  0  0
   45.9981    6.3080   14.4759 H   0  0  0  0  0  0  0  0  0  0  0  0
   47.9015    5.3407   12.2602 H   0  0  0  0  0  0  0  0  0  0  0  0
   47.9879    4.9528   13.9806 H   0  0  0  0  0  0  0  0  0  0  0  0
   46.0907    3.4404   13.8079 H   0  0  0  0  0  0  0  0  0  0  0  0
   46.8733    3.2198   12.2088 H   0  0  0  0  0  0  0  0  0  0  0  0
   44.1079    7.8326   12.3333 H   0  0  0  0  0  0  0  0  0  0  0  0
   44.2229    2.9527   11.2698 H   0  0  0  0  0  0  0  0  0  0  0  0
   42.3717    4.3851   10.4277 H   0  0  0  0  0  0  0  0  0  0  0  0
   42.3196    6.8047   10.9568 H   0  0  0  0  0  0  0  0  0  0  0  0
  1  2  1  0
  2  3  1  0
  3  4  1  0
  4  5  1  0
  5  6  1  0
  2  7  2  0
  4  8  1  0
  3  9  1  0
  5 10  2  0
 12 11  1  0
 15 11  1  0
 12 13  1  0
 13 14  3  0
 16 15  1  0
 19 15  1  0
 16 17  1  0
 17 18  1  0
 18 19  2  0
 18 21  1  0
 20 19  1  0
 23 20  2  0
 21 22  2  0
 22 23  1  0
 25 24  1  0
 28 24  1  0
 25 26  1  0
 26 27  3  0
 29 28  1  0
 32 28  1  0
 29 30  1  0
 30 31  1  0
 31 32  2  0
 31 34  1  0
 33 32  1  0
 36 33  2  0
 34 35  2  0
 35 36  1  0
  1 37  1  0
  3 38  1  1
  4 39  1  6
  6 40  1  0
  8 41  1  0
  9 42  1  0
 11 43  1  0
 12 44  1  0
 12 45  1  0
 14 46  1  0
 15 47  1  1
 16 48  1  0
 16 49  1  0
 17 50  1  0
 17 51  1  0
 20 52  1  0
 21 53  1  0
 22 54  1  0
 23 55  1  0
 24 56  1  0
 25 57  1  0
 25 58  1  0
 27 59  1  0
 28 60  1  1
 29 61  1  0
 29 62  1  0
 30 63  1  0
 30 64  1  0
 33 65  1  0
 34 66  1  0
 35 67  1  0
 36 68  1  0
M  END
> <Uni-Dock RESULT> 
ENERGY=   -5.729  LOWER_BOUND=    2.936  UPPER_BOUND=    5.195
INTER + INTRA:          -5.729
INTER:                  -5.729
INTRA:                   0.000
UNBOUND:                 0.000

$$$$

     RDKit          3D

 68 69  0  0  0  0  0  0  0  0999 V2000
   47.3037    6.5946   14.1001 O   0  0  0  0  0  0  0  0  0  0  0  0
   47.3134    7.7610   13.4354 C   0  0  0  0  0  0  0  0  0  0  0  0
   46.0880    8.0180   12.5648 C   0  0  2  0  0  0  0  0  0  0  0  0
   45.8254    6.8867   11.5705 C   0  0  2  0  0  0  0  0  0  0  0  0
   45.2954    5.6534   12.3016 C   0  0  0  0  0  0  0  0  0  0  0  0
   45.8167    4.4890   11.8687 O   0  0  0  0  0  0  0  0  0  0  0  0
   48.2221    8.5636   13.6045 O   0  0  0  0  0  0  0  0  0  0  0  0
   46.9613    6.7066   10.7251 O   0  0  0  0  0  0  0  0  0  0  0  0
   46.3010    9.2250   11.7997 O   0  0  0  0  0  0  0  0  0  0  0  0
   44.4449    5.6580   13.1801 O   0  0  0  0  0  0  0  0  0  0  0  0
   46.1532    5.8327   11.0623 N   0  0  0  0  0  0  0  0  0  0  0  0
   44.9932    5.1024   10.5604 C   0  0  0  0  0  0  0  0  0  0  0  0
   44.6110    3.9949   11.4453 C   0  0  0  0  0  0  0  0  0  0  0  0
   44.2975    3.0877   12.1677 C   0  0  0  0  0  0  0  0  0  0  0  0
   45.8890    6.5873   12.2857 C   0  0  2  0  0  0  0  0  0  0  0  0
   44.8822    7.7483   12.1099 C   0  0  0  0  0  0  0  0  0  0  0  0
   45.2420    8.7967   13.1718 C   0  0  0  0  0  0  0  0  0  0  0  0
   46.7229    8.6069   13.2679 C   0  0  0  0  0  0  0  0  0  0  0  0
   47.0979    7.3549   12.7623 C   0  0  0  0  0  0  0  0  0  0  0  0
   48.4224    6.9448   12.7988 C   0  0  0  0  0  0  0  0  0  0  0  0
   47.6590    9.4713   13.8108 C   0  0  0  0  0  0  0  0  0  0  0  0
   48.9963    9.0696   13.8339 C   0  0  0  0  0  0  0  0  0  0  0  0
   49.3757    7.8149   13.3320 C   0  0  0  0  0  0  0  0  0  0  0  0
   45.2438    5.7879   12.4366 N   0  0  0  0  0  0  0  0  0  0  0  0
   43.7987    5.6096   12.3432 C   0  0  0  0  0  0  0  0  0  0  0  0
   43.4951    4.1908   12.1122 C   0  0  0  0  0  0  0  0  0  0  0  0
   43.2479    3.0306   11.9239 C   0  0  0  0  0  0  0  0  0  0  0  0
   45.6046    7.1568   12.7914 C   0  0  2  0  0  0  0  0  0  0  0  0
   45.3197    8.1704   11.6604 C   0  0  0  0  0  0  0  0  0  0  0  0
   46.3012    9.3312   11.8651 C   0  0  0  0  0  0  0  0  0  0  0  0
   47.4729    8.6127   12.4568 C   0  0  0  0  0  0  0  0  0  0  0  0
   47.0879    7.3671   12.9741 C   0  0  0  0  0  0  0  0  0  0  0  0
   48.0151    6.5550   13.6116 C   0  0  0  0  0  0  0  0  0  0  0  0
   48.7785    9.0646   12.5596 C   0  0  0  0  0  0  0  0  0  0  0  0
   49.7163    8.2421   13.1856 C   0  0  0  0  0  0  0  0  0  0  0  0
   49.3376    6.9963   13.7078 C   0  0  0  0  0  0  0  0  0  0  0  0
   48.1422    6.5904   14.6094 H   0  0  0  0  0  0  0  0  0  0  0  0
   45.2331    8.1996   13.2245 H   0  0  0  0  0  0  0  0  0  0  0  0
   45.0141    7.1869   10.8947 H   0  0  0  0  0  0  0  0  0  0  0  0
   45.3907    3.8032   12.4211 H   0  0  0  0  0  0  0  0  0  0  0  0
   47.1393    7.5836   10.3330 H   0  0  0  0  0  0  0  0  0  0  0  0
   46.8239    9.8232   12.3717 H   0  0  0  0  0  0  0  0  0  0  0  0
   46.4672    6.4840   10.3453 H   0  0  0  0  0  0  0  0  0  0  0  0
   45.2584    4.6843    9.5821 H   0  0  0  0  0  0  0  0  0  0  0  0
   44.1437    5.7711   10.3844 H   0  0  0  0  0  0  0  0  0  0  0  0
   44.0300    2.2821   12.8116 H   0  0  0  0  0  0  0  0  0  0  0  0
   45.5760    5.9301   13.1064 H   0  0  0  0  0  0  0  0  0  0  0  0
   43.8420    7.4173   12.1973 H   0  0  0  0  0  0  0  0  0  0  0  0
   44.9934    8.2040   11.1150 H   0  0  0  0  0  0  0  0  0  0  0  0
   44.7682    8.5692   14.1322 H   0  0  0  0  0  0  0  0  0  0  0  0
   44.9684    9.8041   12.8464 H   0  0  0  0  0  0  0  0  0  0  0  0
   48.7100    5.9671   12.4236 H   0  0  0  0  0  0  0  0  0  0  0  0
   47.3661   10.4360   14.2121 H   0  0  0  0  0  0  0  0  0  0  0  0
   49.7514    9.7308   14.2518 H   0  0  0  0  0  0  0  0  0  0  0  0
   50.4199    7.5142   13.3659 H   0  0  0  0  0  0  0  0  0  0  0  0
   45.5953    5.1583   13.1546 H   0  0  0  0  0  0  0  0  0  0  0  0
   43.3885    6.2001   11.5169 H   0  0  0  0  0  0  0  0  0  0  0  0
   43.3081    5.9351   13.2680 H   0  0  0  0  0  0  0  0  0  0  0  0
   43.0354    2.0009   11.7506 H   0  0  0  0  0  0  0  0  0  0  0  0
   45.1078    7.4689   13.7196 H   0  0  0  0  0  0  0  0  0  0  0  0
   45.5160    7.7122   10.6796 H   0  0  0  0  0  0  0  0  0  0  0  0
   44.2791    8.5115   11.6538 H   0  0  0  0  0  0  0  0  0  0  0  0
   45.9082   10.0636   12.5775 H   0  0  0  0  0  0  0  0  0  0  0  0
   46.5440    9.8204   10.9178 H   0  0  0  0  0  0  0  0  0  0  0  0
   47.7310    5.5950   14.0288 H   0  0  0  0  0  0  0  0  0  0  0  0
   49.0699   10.0320   12.1639 H   0  0  0  0  0  0  0  0  0  0  0  0
   50.7491    8.5701   13.2733 H   0  0  0  0  0  0  0  0  0  0  0  0
   50.0806    6.3702   14.1957 H   0  0  0  0  0  0  0  0  0  0  0  0
  1  2  1  0
  2  3  1  0
  3  4  1  0
  4  5  1  0
  5  6  1  0
  2  7  2  0
  4  8  1  0
  3  9  1  0
  5 10  2  0
 12 11  1  0
 15 11  1  0
 12 13  1  0
 13 14  3  0
 16 15  1  0
 19 15  1  0
 16 17  1  0
 17 18  1  0
 18 19  2  0
 18 21  1  0
 20 19  1  0
 23 20  2  0
 21 22  2  0
 22 23  1  0
 25 24  1  0
 28 24  1  0
 25 26  1  0
 26 27  3  0
 29 28  1  0
 32 28  1  0
 29 30  1  0
 30 31  1  0
 31 32  2  0
 31 34  1  0
 33 32  1  0
 36 33  2  0
 34 35  2  0
 35 36  1  0
  1 37  1  0
  3 38  1  1
  4 39  1  6
  6 40  1  0
  8 41  1  0
  9 42  1  0
 11 43  1  0
 12 44  1  0
 12 45  1  0
 14 46  1  0
 15 47  1  1
 16 48  1  0
 16 49  1  0
 17 50  1  0
 17 51  1  0
 20 52  1  0
 21 53  1  0
 22 54  1  0
 23 55  1  0
 24 56  1  0
 25 57  1  0
 25 58  1  0
 27 59  1  0
 28 60  1  1
 29 61  1  0
 29 62  1  0
 30 63  1  0
 30 64  1  0
 33 65  1  0
 34 66  1  0
 35 67  1  0
 36 68  1  0
M  END
> <Uni-Dock RESULT> 
ENERGY=   -5.697  LOWER_BOUND=    2.825  UPPER_BOUND=    5.130
INTER + INTRA:          -5.697
INTER:                  -5.697
INTRA:                   0.000
UNBOUND:                 0.000

$$$$

     RDKit          3D

 68 69  0  0  0  0  0  0  0  0999 V2000
   53.2312    5.4297   10.2231 O   0  0  0  0  0  0  0  0  0  0  0  0
   53.9255    5.4931    9.0758 C   0  0  0  0  0  0  0  0  0  0  0  0
   55.3201    4.8786    9.1304 C   0  0  2  0  0  0  0  0  0  0  0  0
   56.1753    5.4602   10.2564 C   0  0  2  0  0  0  0  0  0  0  0  0
   55.6808    4.9532   11.6109 C   0  0  0  0  0  0  0  0  0  0  0  0
   55.6549    5.8931   12.5758 O   0  0  0  0  0  0  0  0  0  0  0  0
   53.4102    5.9498    8.0636 O   0  0  0  0  0  0  0  0  0  0  0  0
   56.3006    6.8727   10.0940 O   0  0  0  0  0  0  0  0  0  0  0  0
   56.0015    5.1504    7.8856 O   0  0  0  0  0  0  0  0  0  0  0  0
   55.3627    3.8004   11.8661 O   0  0  0  0  0  0  0  0  0  0  0  0
   56.3243    6.2534   11.1648 N   0  0  0  0  0  0  0  0  0  0  0  0
   57.2595    5.7459   12.1640 C   0  0  0  0  0  0  0  0  0  0  0  0
   56.5729    5.2488   13.3629 C   0  0  0  0  0  0  0  0  0  0  0  0
   56.0127    4.8426   14.3448 C   0  0  0  0  0  0  0  0  0  0  0  0
   55.4983    5.2154   10.5513 C   0  0  2  0  0  0  0  0  0  0  0  0
   56.2903    4.1950    9.7005 C   0  0  0  0  0  0  0  0  0  0  0  0
   55.3187    3.6784    8.6303 C   0  0  0  0  0  0  0  0  0  0  0  0
   54.4636    4.8872    8.4158 C   0  0  0  0  0  0  0  0  0  0  0  0
   54.5641    5.7668    9.5020 C   0  0  0  0  0  0  0  0  0  0  0  0
   53.8145    6.9332    9.5399 C   0  0  0  0  0  0  0  0  0  0  0  0
   53.6221    5.1569    7.3494 C   0  0  0  0  0  0  0  0  0  0  0  0
   52.8783    6.3387    7.3752 C   0  0  0  0  0  0  0  0  0  0  0  0
   52.9732    7.2207    8.4630 C   0  0  0  0  0  0  0  0  0  0  0  0
   55.6068    4.8075   11.5000 N   0  0  0  0  0  0  0  0  0  0  0  0
   56.4001    3.7180   12.0590 C   0  0  0  0  0  0  0  0  0  0  0  0
   56.5916    3.9414   13.4984 C   0  0  0  0  0  0  0  0  0  0  0  0
   56.7472    4.1245   14.6753 C   0  0  0  0  0  0  0  0  0  0  0  0
   55.2749    4.5792   10.0974 C   0  0  2  0  0  0  0  0  0  0  0  0
   56.4998    4.6815    9.1609 C   0  0  0  0  0  0  0  0  0  0  0  0
   55.9575    5.0903    7.7856 C   0  0  0  0  0  0  0  0  0  0  0  0
   54.7764    5.9201    8.1802 C   0  0  0  0  0  0  0  0  0  0  0  0
   54.3897    5.6457    9.5002 C   0  0  0  0  0  0  0  0  0  0  0  0
   53.2830    6.2750   10.0524 C   0  0  0  0  0  0  0  0  0  0  0  0
   54.0768    6.8228    7.3960 C   0  0  0  0  0  0  0  0  0  0  0  0
   52.9735    7.4693    7.9550 C   0  0  0  0  0  0  0  0  0  0  0  0
   52.5793    7.1976    9.2736 C   0  0  0  0  0  0  0  0  0  0  0  0
   52.3701    5.8525   10.0177 H   0  0  0  0  0  0  0  0  0  0  0  0
   55.2110    3.7919    9.2090 H   0  0  0  0  0  0  0  0  0  0  0  0
   57.1981    5.0726   10.1641 H   0  0  0  0  0  0  0  0  0  0  0  0
   55.3220    5.4281   13.3694 H   0  0  0  0  0  0  0  0  0  0  0  0
   56.6440    7.0043    9.1889 H   0  0  0  0  0  0  0  0  0  0  0  0
   55.3148    5.1331    7.1881 H   0  0  0  0  0  0  0  0  0  0  0  0
   56.8508    6.7209   10.4290 H   0  0  0  0  0  0  0  0  0  0  0  0
   57.9135    6.5742   12.4617 H   0  0  0  0  0  0  0  0  0  0  0  0
   57.9164    4.9764   11.7443 H   0  0  0  0  0  0  0  0  0  0  0  0
   55.5077    4.4895   15.2140 H   0  0  0  0  0  0  0  0  0  0  0  0
   54.8821    4.6965   11.2960 H   0  0  0  0  0  0  0  0  0  0  0  0
   56.7063    3.3808   10.3031 H   0  0  0  0  0  0  0  0  0  0  0  0
   57.1351    4.6892    9.1984 H   0  0  0  0  0  0  0  0  0  0  0  0
   54.7132    2.8490    9.0097 H   0  0  0  0  0  0  0  0  0  0  0  0
   55.8490    3.3736    7.7239 H   0  0  0  0  0  0  0  0  0  0  0  0
   53.8789    7.6057   10.3902 H   0  0  0  0  0  0  0  0  0  0  0  0
   53.5366    4.4699    6.5139 H   0  0  0  0  0  0  0  0  0  0  0  0
   52.2126    6.5756    6.5490 H   0  0  0  0  0  0  0  0  0  0  0  0
   52.3804    8.1319    8.4712 H   0  0  0  0  0  0  0  0  0  0  0  0
   54.7442    4.8788   12.0350 H   0  0  0  0  0  0  0  0  0  0  0  0
   57.3806    3.6647   11.5739 H   0  0  0  0  0  0  0  0  0  0  0  0
   55.8958    2.7561   11.9097 H   0  0  0  0  0  0  0  0  0  0  0  0
   56.8871    4.2960   15.7176 H   0  0  0  0  0  0  0  0  0  0  0  0
   54.7692    3.6137    9.9627 H   0  0  0  0  0  0  0  0  0  0  0  0
   57.1864    5.4645    9.5157 H   0  0  0  0  0  0  0  0  0  0  0  0
   57.0720    3.7489    9.1138 H   0  0  0  0  0  0  0  0  0  0  0  0
   55.6309    4.2175    7.2111 H   0  0  0  0  0  0  0  0  0  0  0  0
   56.6986    5.6591    7.2174 H   0  0  0  0  0  0  0  0  0  0  0  0
   52.9627    6.0642   11.0670 H   0  0  0  0  0  0  0  0  0  0  0  0
   54.3759    7.0266    6.3730 H   0  0  0  0  0  0  0  0  0  0  0  0
   52.4113    8.1874    7.3631 H   0  0  0  0  0  0  0  0  0  0  0  0
   51.7149    7.7076    9.6916 H   0  0  0  0  0  0  0  0  0  0  0  0
  1  2  1  0
  2  3  1  0
  3  4  1  0
  4  5  1  0
  5  6  1  0
  2  7  2  0
  4  8  1  0
  3  9  1  0
  5 10  2  0
 12 11  1  0
 15 11  1  0
 12 13  1  0
 13 14  3  0
 16 15  1  0
 19 15  1  0
 16 17  1  0
 17 18  1  0
 18 19  2  0
 18 21  1  0
 20 19  1  0
 23 20  2  0
 21 22  2  0
 22 23  1  0
 25 24  1  0
 28 24  1  0
 25 26  1  0
 26 27  3  0
 29 28  1  0
 32 28  1  0
 29 30  1  0
 30 31  1  0
 31 32  2  0
 31 34  1  0
 33 32  1  0
 36 33  2  0
 34 35  2  0
 35 36  1  0
  1 37  1  0
  3 38  1  1
  4 39  1  6
  6 40  1  0
  8 41  1  0
  9 42  1  0
 11 43  1  0
 12 44  1  0
 12 45  1  0
 14 46  1  0
 15 47  1  1
 16 48  1  0
 16 49  1  0
 17 50  1  0
 17 51  1  0
 20 52  1  0
 21 53  1  0
 22 54  1  0
 23 55  1  0
 24 56  1  0
 25 57  1  0
 25 58  1  0
 27 59  1  0
 28 60  1  1
 29 61  1  0
 29 62  1  0
 30 63  1  0
 30 64  1  0
 33 65  1  0
 34 66  1  0
 35 67  1  0
 36 68  1  0
M  END
> <Uni-Dock RESULT> 
ENERGY=   -5.350  LOWER_BOUND=    9.129  UPPER_BOUND=   11.000
INTER + INTRA:          -5.350
INTER:                  -5.350
INTRA:                   0.000
UNBOUND:                 0.000

$$$$

     RDKit          3D

 68 69  0  0  0  0  0  0  0  0999 V2000
   46.6990    5.4645   19.0248 O   0  0  0  0  0  0  0  0  0  0  0  0
   47.8923    4.8933   19.2529 C   0  0  0  0  0  0  0  0  0  0  0  0
   48.8117    5.6708   20.1888 C   0  0  2  0  0  0  0  0  0  0  0  0
   49.0351    7.1121   19.7303 C   0  0  2  0  0  0  0  0  0  0  0  0
   47.7712    7.9408   19.9585 C   0  0  0  0  0  0  0  0  0  0  0  0
   47.4746    8.7837   18.9502 O   0  0  0  0  0  0  0  0  0  0  0  0
   48.1522    3.7922   18.7856 O   0  0  0  0  0  0  0  0  0  0  0  0
   49.5963    7.1251   18.4179 O   0  0  0  0  0  0  0  0  0  0  0  0
   50.1028    5.0231   20.2229 O   0  0  0  0  0  0  0  0  0  0  0  0
   47.0746    7.9138   20.9630 O   0  0  0  0  0  0  0  0  0  0  0  0
   48.8698    7.9957   18.9127 N   0  0  0  0  0  0  0  0  0  0  0  0
   48.9382    9.3141   19.5355 C   0  0  0  0  0  0  0  0  0  0  0  0
   47.6083    9.9080   19.7217 C   0  0  0  0  0  0  0  0  0  0  0  0
   46.5211   10.3957   19.8738 C   0  0  0  0  0  0  0  0  0  0  0  0
   48.2707    6.9721   19.7666 C   0  0  2  0  0  0  0  0  0  0  0  0
   49.0946    6.6408   21.0330 C   0  0  0  0  0  0  0  0  0  0  0  0
   48.7653    5.1857   21.3943 C   0  0  0  0  0  0  0  0  0  0  0  0
   48.5196    4.6049   20.0375 C   0  0  0  0  0  0  0  0  0  0  0  0
   48.2420    5.6150   19.1068 C   0  0  0  0  0  0  0  0  0  0  0  0
   47.9321    5.3001   17.7920 C   0  0  0  0  0  0  0  0  0  0  0  0
   48.4996    3.2687   19.6739 C   0  0  0  0  0  0  0  0  0  0  0  0
   48.2051    2.9479   18.3469 C   0  0  0  0  0  0  0  0  0  0  0  0
   47.9227    3.9563   17.4124 C   0  0  0  0  0  0  0  0  0  0  0  0
   47.7340    7.7995   20.0913 N   0  0  0  0  0  0  0  0  0  0  0  0
   47.7746    8.6402   21.2831 C   0  0  0  0  0  0  0  0  0  0  0  0
   47.2043    9.9578   20.9717 C   0  0  0  0  0  0  0  0  0  0  0  0
   46.7373   11.0346   20.7162 C   0  0  0  0  0  0  0  0  0  0  0  0
   48.1712    6.4351   20.3687 C   0  0  2  0  0  0  0  0  0  0  0  0
   49.6832    6.3335   20.6714 C   0  0  0  0  0  0  0  0  0  0  0  0
   50.1061    4.9121   20.2798 C   0  0  0  0  0  0  0  0  0  0  0  0
   49.1698    4.6385   19.1450 C   0  0  0  0  0  0  0  0  0  0  0  0
   48.0719    5.5108   19.1799 C   0  0  0  0  0  0  0  0  0  0  0  0
   47.0562    5.3982   18.2410 C   0  0  0  0  0  0  0  0  0  0  0  0
   49.2768    3.6511   18.1792 C   0  0  0  0  0  0  0  0  0  0  0  0
   48.2646    3.5470   17.2240 C   0  0  0  0  0  0  0  0  0  0  0  0
   47.1623    4.4142   17.2545 C   0  0  0  0  0  0  0  0  0  0  0  0
   46.2360    4.8438   18.4224 H   0  0  0  0  0  0  0  0  0  0  0  0
   48.3949    5.6152   21.1999 H   0  0  0  0  0  0  0  0  0  0  0  0
   49.7980    7.5755   20.3692 H   0  0  0  0  0  0  0  0  0  0  0  0
   46.6553    9.2360   19.2348 H   0  0  0  0  0  0  0  0  0  0  0  0
   50.3964    6.5668   18.4682 H   0  0  0  0  0  0  0  0  0  0  0  0
   49.9300    4.0632   20.1374 H   0  0  0  0  0  0  0  0  0  0  0  0
   49.8126    7.6981   18.6685 H   0  0  0  0  0  0  0  0  0  0  0  0
   49.5164    9.9682   18.8722 H   0  0  0  0  0  0  0  0  0  0  0  0
   49.4864    9.2820   20.4833 H   0  0  0  0  0  0  0  0  0  0  0  0
   45.5532   10.8229   19.9999 H   0  0  0  0  0  0  0  0  0  0  0  0
   47.2380    7.2249   20.0370 H   0  0  0  0  0  0  0  0  0  0  0  0
   48.8836    7.3259   21.8608 H   0  0  0  0  0  0  0  0  0  0  0  0
   50.1710    6.7144   20.8195 H   0  0  0  0  0  0  0  0  0  0  0  0
   47.8575    5.1224   22.0030 H   0  0  0  0  0  0  0  0  0  0  0  0
   49.5998    4.7045   21.9117 H   0  0  0  0  0  0  0  0  0  0  0  0
   47.6991    6.0821   17.0753 H   0  0  0  0  0  0  0  0  0  0  0  0
   48.7040    2.4866   20.3978 H   0  0  0  0  0  0  0  0  0  0  0  0
   48.1860    1.9067   18.0348 H   0  0  0  0  0  0  0  0  0  0  0  0
   47.6865    3.6886   16.3855 H   0  0  0  0  0  0  0  0  0  0  0  0
   46.7748    7.7754   19.7528 H   0  0  0  0  0  0  0  0  0  0  0  0
   48.8055    8.7717   21.6290 H   0  0  0  0  0  0  0  0  0  0  0  0
   47.1998    8.1844   22.0979 H   0  0  0  0  0  0  0  0  0  0  0  0
   46.3278   11.9899   20.4815 H   0  0  0  0  0  0  0  0  0  0  0  0
   47.5864    5.9906   21.1851 H   0  0  0  0  0  0  0  0  0  0  0  0
   50.2444    7.0506   20.0540 H   0  0  0  0  0  0  0  0  0  0  0  0
   49.9184    6.5563   21.7174 H   0  0  0  0  0  0  0  0  0  0  0  0
   49.9275    4.2047   21.0959 H   0  0  0  0  0  0  0  0  0  0  0  0
   51.1557    4.8778   19.9750 H   0  0  0  0  0  0  0  0  0  0  0  0
   46.1941    6.0560   18.2619 H   0  0  0  0  0  0  0  0  0  0  0  0
   50.1247    2.9743   18.1607 H   0  0  0  0  0  0  0  0  0  0  0  0
   48.3278    2.7850   16.4511 H   0  0  0  0  0  0  0  0  0  0  0  0
   46.3810    4.3162   16.5047 H   0  0  0  0  0  0  0  0  0  0  0  0
  1  2  1  0
  2  3  1  0
  3  4  1  0
  4  5  1  0
  5  6  1  0
  2  7  2  0
  4  8  1  0
  3  9  1  0
  5 10  2  0
 12 11  1  0
 15 11  1  0
 12 13  1  0
 13 14  3  0
 16 15  1  0
 19 15  1  0
 16 17  1  0
 17 18  1  0
 18 19  2  0
 18 21  1  0
 20 19  1  0
 23 20  2  0
 21 22  2  0
 22 23  1  0
 25 24  1  0
 28 24  1  0
 25 26  1  0
 26 27  3  0
 29 28  1  0
 32 28  1  0
 29 30  1  0
 30 31  1  0
 31 32  2  0
 31 34  1  0
 33 32  1  0
 36 33  2  0
 34 35  2  0
 35 36  1  0
  1 37  1  0
  3 38  1  1
  4 39  1  6
  6 40  1  0
  8 41  1  0
  9 42  1  0
 11 43  1  0
 12 44  1  0
 12 45  1  0
 14 46  1  0
 15 47  1  1
 16 48  1  0
 16 49  1  0
 17 50  1  0
 17 51  1  0
 20 52  1  0
 21 53  1  0
 22 54  1  0
 23 55  1  0
 24 56  1  0
 25 57  1  0
 25 58  1  0
 27 59  1  0
 28 60  1  1
 29 61  1  0
 29 62  1  0
 30 63  1  0
 30 64  1  0
 33 65  1  0
 34 66  1  0
 35 67  1  0
 36 68  1  0
M  END
> <Uni-Dock RESULT> 
ENERGY=   -5.314  LOWER_BOUND=    8.351  UPPER_BOUND=   11.135
INTER + INTRA:          -5.314
INTER:                  -5.314
INTRA:                   0.000
UNBOUND:                 0.000

$$$$

     RDKit          3D

 68 69  0  0  0  0  0  0  0  0999 V2000
   46.4144   10.7198   19.9198 O   0  0  0  0  0  0  0  0  0  0  0  0
   47.3887   11.2227   19.1451 C   0  0  0  0  0  0  0  0  0  0  0  0
   48.3353   10.1883   18.5456 C   0  0  2  0  0  0  0  0  0  0  0  0
   48.9658    9.2841   19.6050 C   0  0  2  0  0  0  0  0  0  0  0  0
   47.9251    8.3080   20.1534 C   0  0  0  0  0  0  0  0  0  0  0  0
   47.9840    8.1308   21.4876 O   0  0  0  0  0  0  0  0  0  0  0  0
   47.4312   12.4217   18.9022 O   0  0  0  0  0  0  0  0  0  0  0  0
   49.6854   10.0719   20.5531 O   0  0  0  0  0  0  0  0  0  0  0  0
   49.4110   10.8742   17.8673 O   0  0  0  0  0  0  0  0  0  0  0  0
   47.1137    7.6836   19.4849 O   0  0  0  0  0  0  0  0  0  0  0  0
   49.1349    8.9856   20.7708 N   0  0  0  0  0  0  0  0  0  0  0  0
   49.4398    7.5655   20.9157 C   0  0  0  0  0  0  0  0  0  0  0  0
   48.2839    6.7972   21.3948 C   0  0  0  0  0  0  0  0  0  0  0  0
   47.3394    6.1673   21.7877 C   0  0  0  0  0  0  0  0  0  0  0  0
   48.1927    9.2779   19.6923 C   0  0  2  0  0  0  0  0  0  0  0  0
   48.7306    8.9613   18.2771 C   0  0  0  0  0  0  0  0  0  0  0  0
   48.0083    9.9165   17.3168 C   0  0  0  0  0  0  0  0  0  0  0  0
   47.8137   11.1106   18.1969 C   0  0  0  0  0  0  0  0  0  0  0  0
   47.9214   10.7555   19.5482 C   0  0  0  0  0  0  0  0  0  0  0  0
   47.7248   11.6990   20.5458 C   0  0  0  0  0  0  0  0  0  0  0  0
   47.5158   12.4088   17.8176 C   0  0  0  0  0  0  0  0  0  0  0  0
   47.3341   13.3660   18.8183 C   0  0  0  0  0  0  0  0  0  0  0  0
   47.4372   13.0137   20.1731 C   0  0  0  0  0  0  0  0  0  0  0  0
   47.8367    8.3461   19.9809 N   0  0  0  0  0  0  0  0  0  0  0  0
   47.9207    7.0018   19.4201 C   0  0  0  0  0  0  0  0  0  0  0  0
   47.7389    6.0130   20.4914 C   0  0  0  0  0  0  0  0  0  0  0  0
   47.5896    5.2052   21.3678 C   0  0  0  0  0  0  0  0  0  0  0  0
   47.8838    9.3746   18.9467 C   0  0  2  0  0  0  0  0  0  0  0  0
   49.2692    9.4920   18.2722 C   0  0  0  0  0  0  0  0  0  0  0  0
   49.3792   10.9346   17.7628 C   0  0  0  0  0  0  0  0  0  0  0  0
   48.5670   11.6616   18.7880 C   0  0  0  0  0  0  0  0  0  0  0  0
   47.7226   10.7784   19.4767 C   0  0  0  0  0  0  0  0  0  0  0  0
   46.8472   11.2542   20.4427 C   0  0  0  0  0  0  0  0  0  0  0  0
   48.5581   13.0217   19.0513 C   0  0  0  0  0  0  0  0  0  0  0  0
   47.6904   13.5000   20.0342 C   0  0  0  0  0  0  0  0  0  0  0  0
   46.8411   12.6228   20.7250 C   0  0  0  0  0  0  0  0  0  0  0  0
   45.8993   11.5018   20.2124 H   0  0  0  0  0  0  0  0  0  0  0  0
   47.7847    9.6209   17.7879 H   0  0  0  0  0  0  0  0  0  0  0  0
   49.7252    8.6513   19.1279 H   0  0  0  0  0  0  0  0  0  0  0  0
   47.2700    7.4926   21.6871 H   0  0  0  0  0  0  0  0  0  0  0  0
   50.3096   10.6101   20.0284 H   0  0  0  0  0  0  0  0  0  0  0  0
   49.0210   11.6888   17.4892 H   0  0  0  0  0  0  0  0  0  0  0  0
   49.9998    9.4905   20.5866 H   0  0  0  0  0  0  0  0  0  0  0  0
   50.2453    7.4696   21.6534 H   0  0  0  0  0  0  0  0  0  0  0  0
   49.8297    7.1418   19.9839 H   0  0  0  0  0  0  0  0  0  0  0  0
   46.4981    5.6176   22.1415 H   0  0  0  0  0  0  0  0  0  0  0  0
   47.2269    8.7834   19.8543 H   0  0  0  0  0  0  0  0  0  0  0  0
   48.5842    7.9125   17.9984 H   0  0  0  0  0  0  0  0  0  0  0  0
   49.8109    9.1615   18.2246 H   0  0  0  0  0  0  0  0  0  0  0  0
   47.0390    9.5123   17.0077 H   0  0  0  0  0  0  0  0  0  0  0  0
   48.6211   10.1380   16.4387 H   0  0  0  0  0  0  0  0  0  0  0  0
   47.7901   11.4195   21.5931 H   0  0  0  0  0  0  0  0  0  0  0  0
   47.4218   12.6806   16.7713 H   0  0  0  0  0  0  0  0  0  0  0  0
   47.1024   14.3930   18.5472 H   0  0  0  0  0  0  0  0  0  0  0  0
   47.2839   13.7693   20.9395 H   0  0  0  0  0  0  0  0  0  0  0  0
   46.9559    8.4254   20.4841 H   0  0  0  0  0  0  0  0  0  0  0  0
   48.8956    6.8395   18.9481 H   0  0  0  0  0  0  0  0  0  0  0  0
   47.1466    6.8513   18.6584 H   0  0  0  0  0  0  0  0  0  0  0  0
   47.4629    4.4937   22.1508 H   0  0  0  0  0  0  0  0  0  0  0  0
   47.1028    9.2126   18.1919 H   0  0  0  0  0  0  0  0  0  0  0  0
   50.0676    9.3167   19.0085 H   0  0  0  0  0  0  0  0  0  0  0  0
   49.4079    8.7627   17.4671 H   0  0  0  0  0  0  0  0  0  0  0  0
   48.9235   11.0431   16.7734 H   0  0  0  0  0  0  0  0  0  0  0  0
   50.4196   11.2704   17.7368 H   0  0  0  0  0  0  0  0  0  0  0  0
   46.1784   10.5867   20.9750 H   0  0  0  0  0  0  0  0  0  0  0  0
   49.2084   13.7018   18.5109 H   0  0  0  0  0  0  0  0  0  0  0  0
   47.6687   14.5623   20.2649 H   0  0  0  0  0  0  0  0  0  0  0  0
   46.1687   13.0134   21.4849 H   0  0  0  0  0  0  0  0  0  0  0  0
  1  2  1  0
  2  3  1  0
  3  4  1  0
  4  5  1  0
  5  6  1  0
  2  7  2  0
  4  8  1  0
  3  9  1  0
  5 10  2  0
 12 11  1  0
 15 11  1  0
 12 13  1  0
 13 14  3  0
 16 15  1  0
 19 15  1  0
 16 17  1  0
 17 18  1  0
 18 19  2  0
 18 21  1  0
 20 19  1  0
 23 20  2  0
 21 22  2  0
 22 23  1  0
 25 24  1  0
 28 24  1  0
 25 26  1  0
 26 27  3  0
 29 28  1  0
 32 28  1  0
 29 30  1  0
 30 31  1  0
 31 32  2  0
 31 34  1  0
 33 32  1  0
 36 33  2  0
 34 35  2  0
 35 36  1  0
  1 37  1  0
  3 38  1  1
  4 39  1  6
  6 40  1  0
  8 41  1  0
  9 42  1  0
 11 43  1  0
 12 44  1  0
 12 45  1  0
 14 46  1  0
 15 47  1  1
 16 48  1  0
 16 49  1  0
 17 50  1  0
 17 51  1  0
 20 52  1  0
 21 53  1  0
 22 54  1  0
 23 55  1  0
 24 56  1  0
 25 57  1  0
 25 58  1  0
 27 59  1  0
 28 60  1  1
 29 61  1  0
 29 62  1  0
 30 63  1  0
 30 64  1  0
 33 65  1  0
 34 66  1  0
 35 67  1  0
 36 68  1  0
M  END
> <Uni-Dock RESULT> 
ENERGY=   -5.154  LOWER_BOUND=   10.187  UPPER_BOUND=   12.014
INTER + INTRA:          -5.154
INTER:                  -5.154
INTRA:                   0.000
UNBOUND:                 0.000

$$$$

     RDKit          3D

 68 69  0  0  0  0  0  0  0  0999 V2000
   43.5011   15.6409   15.6113 O   0  0  0  0  0  0  0  0  0  0  0  0
   43.4545   16.5107   14.5897 C   0  0  0  0  0  0  0  0  0  0  0  0
   42.0595   16.7834   14.0373 C   0  0  2  0  0  0  0  0  0  0  0  0
   41.3284   15.5044   13.6288 C   0  0  2  0  0  0  0  0  0  0  0  0
   40.9017   14.7206   14.8698 C   0  0  0  0  0  0  0  0  0  0  0  0
   41.0828   13.3893   14.7708 O   0  0  0  0  0  0  0  0  0  0  0  0
   44.4711   17.0782   14.2116 O   0  0  0  0  0  0  0  0  0  0  0  0
   42.0854   14.8035   12.6423 O   0  0  0  0  0  0  0  0  0  0  0  0
   42.1754   17.6103   12.8581 O   0  0  0  0  0  0  0  0  0  0  0  0
   40.3974   15.2000   15.8753 O   0  0  0  0  0  0  0  0  0  0  0  0
   41.3195   14.2993   13.4728 N   0  0  0  0  0  0  0  0  0  0  0  0
   39.9688   13.7589   13.5925 C   0  0  0  0  0  0  0  0  0  0  0  0
   39.7483   13.1014   14.8867 C   0  0  0  0  0  0  0  0  0  0  0  0
   39.5666   12.5623   15.9447 C   0  0  0  0  0  0  0  0  0  0  0  0
   41.5815   15.4302   14.3606 C   0  0  2  0  0  0  0  0  0  0  0  0
   40.7460   16.6926   14.0432 C   0  0  0  0  0  0  0  0  0  0  0  0
   41.5785   17.8921   14.5170 C   0  0  0  0  0  0  0  0  0  0  0  0
   42.9664   17.3835   14.2858 C   0  0  0  0  0  0  0  0  0  0  0  0
   42.9747   15.9853   14.1919 C   0  0  0  0  0  0  0  0  0  0  0  0
   44.1661   15.2940   14.0285 C   0  0  0  0  0  0  0  0  0  0  0  0
   44.1403   18.1146   14.2124 C   0  0  0  0  0  0  0  0  0  0  0  0
   45.3404   17.4239   14.0305 C   0  0  0  0  0  0  0  0  0  0  0  0
   45.3536   16.0234   13.9397 C   0  0  0  0  0  0  0  0  0  0  0  0
   40.9168   14.8981   14.9550 N   0  0  0  0  0  0  0  0  0  0  0  0
   39.5117   15.0598   15.3132 C   0  0  0  0  0  0  0  0  0  0  0  0
   38.9535   13.7578   15.7026 C   0  0  0  0  0  0  0  0  0  0  0  0
   38.4981   12.6929   16.0213 C   0  0  0  0  0  0  0  0  0  0  0  0
   41.5622   16.1777   14.6795 C   0  0  2  0  0  0  0  0  0  0  0  0
   41.0655   16.8376   13.3735 C   0  0  0  0  0  0  0  0  0  0  0  0
   42.2120   17.7279   12.8779 C   0  0  0  0  0  0  0  0  0  0  0  0
   43.4004   16.9587   13.3630 C   0  0  0  0  0  0  0  0  0  0  0  0
   43.0368   16.0633   14.3795 C   0  0  0  0  0  0  0  0  0  0  0  0
   43.9989   15.2817   15.0034 C   0  0  0  0  0  0  0  0  0  0  0  0
   44.7166   17.0860   12.9499 C   0  0  0  0  0  0  0  0  0  0  0  0
   45.6833   16.2888   13.5645 C   0  0  0  0  0  0  0  0  0  0  0  0
   45.3272   15.3930   14.5838 C   0  0  0  0  0  0  0  0  0  0  0  0
   44.4512   15.5860   15.8495 H   0  0  0  0  0  0  0  0  0  0  0  0
   41.5039   17.3604   14.7839 H   0  0  0  0  0  0  0  0  0  0  0  0
   40.3903   15.7745   13.1268 H   0  0  0  0  0  0  0  0  0  0  0  0
   40.7710   13.0300   15.6256 H   0  0  0  0  0  0  0  0  0  0  0  0
   42.2452   15.4483   11.9259 H   0  0  0  0  0  0  0  0  0  0  0  0
   42.9358   18.2065   13.0154 H   0  0  0  0  0  0  0  0  0  0  0  0
   41.4677   14.6043   12.5126 H   0  0  0  0  0  0  0  0  0  0  0  0
   39.8356   13.0120   12.8009 H   0  0  0  0  0  0  0  0  0  0  0  0
   39.2112   14.5294   13.4131 H   0  0  0  0  0  0  0  0  0  0  0  0
   39.4160   12.0815   16.8835 H   0  0  0  0  0  0  0  0  0  0  0  0
   41.4675   15.1509   15.4155 H   0  0  0  0  0  0  0  0  0  0  0  0
   39.7572   16.6693   14.5132 H   0  0  0  0  0  0  0  0  0  0  0  0
   40.5859   16.7829   12.9587 H   0  0  0  0  0  0  0  0  0  0  0  0
   41.4206   18.0902   15.5821 H   0  0  0  0  0  0  0  0  0  0  0  0
   41.3569   18.7879   13.9305 H   0  0  0  0  0  0  0  0  0  0  0  0
   44.1742   14.2094   13.9741 H   0  0  0  0  0  0  0  0  0  0  0  0
   44.1341   19.1965   14.2962 H   0  0  0  0  0  0  0  0  0  0  0  0
   46.2757   17.9745   13.9664 H   0  0  0  0  0  0  0  0  0  0  0  0
   46.2977   15.5008   13.8072 H   0  0  0  0  0  0  0  0  0  0  0  0
   41.3933   14.4502   15.7345 H   0  0  0  0  0  0  0  0  0  0  0  0
   38.9392   15.4533   14.4664 H   0  0  0  0  0  0  0  0  0  0  0  0
   39.4037   15.7605   16.1495 H   0  0  0  0  0  0  0  0  0  0  0  0
   38.0985   11.7444   16.2967 H   0  0  0  0  0  0  0  0  0  0  0  0
   41.4477   16.8686   15.5254 H   0  0  0  0  0  0  0  0  0  0  0  0
   40.8616   16.0699   12.6123 H   0  0  0  0  0  0  0  0  0  0  0  0
   40.1394   17.4047   13.5148 H   0  0  0  0  0  0  0  0  0  0  0  0
   42.1822   18.7149   13.3506 H   0  0  0  0  0  0  0  0  0  0  0  0
   42.1951   17.8313   11.7894 H   0  0  0  0  0  0  0  0  0  0  0  0
   43.7367   14.5941   15.8001 H   0  0  0  0  0  0  0  0  0  0  0  0
   44.9938   17.7852   12.1677 H   0  0  0  0  0  0  0  0  0  0  0  0
   46.7225   16.3643   13.2541 H   0  0  0  0  0  0  0  0  0  0  0  0
   46.0941   14.7825   15.0543 H   0  0  0  0  0  0  0  0  0  0  0  0
  1  2  1  0
  2  3  1  0
  3  4  1  0
  4  5  1  0
  5  6  1  0
  2  7  2  0
  4  8  1  0
  3  9  1  0
  5 10  2  0
 12 11  1  0
 15 11  1  0
 12 13  1  0
 13 14  3  0
 16 15  1  0
 19 15  1  0
 16 17  1  0
 17 18  1  0
 18 19  2  0
 18 21  1  0
 20 19  1  0
 23 20  2  0
 21 22  2  0
 22 23  1  0
 25 24  1  0
 28 24  1  0
 25 26  1  0
 26 27  3  0
 29 28  1  0
 32 28  1  0
 29 30  1  0
 30 31  1  0
 31 32  2  0
 31 34  1  0
 33 32  1  0
 36 33  2  0
 34 35  2  0
 35 36  1  0
  1 37  1  0
  3 38  1  1
  4 39  1  6
  6 40  1  0
  8 41  1  0
  9 42  1  0
 11 43  1  0
 12 44  1  0
 12 45  1  0
 14 46  1  0
 15 47  1  1
 16 48  1  0
 16 49  1  0
 17 50  1  0
 17 51  1  0
 20 52  1  0
 21 53  1  0
 22 54  1  0
 23 55  1  0
 24 56  1  0
 25 57  1  0
 25 58  1  0
 27 59  1  0
 28 60  1  1
 29 61  1  0
 29 62  1  0
 30 63  1  0
 30 64  1  0
 33 65  1  0
 34 66  1  0
 35 67  1  0
 36 68  1  0
M  END
> <Uni-Dock RESULT> 
ENERGY=   -5.142  LOWER_BOUND=   11.473  UPPER_BOUND=   13.149
INTER + INTRA:          -5.142
INTER:                  -5.142
INTRA:                   0.000
UNBOUND:                 0.000

$$$$

     RDKit          3D

 68 69  0  0  0  0  0  0  0  0999 V2000
   47.0272    7.1004   20.1103 O   0  0  0  0  0  0  0  0  0  0  0  0
   47.6413    6.9114   21.2890 C   0  0  0  0  0  0  0  0  0  0  0  0
   47.8956    8.1807   22.0951 C   0  0  2  0  0  0  0  0  0  0  0  0
   48.6660    9.2366   21.3021 C   0  0  2  0  0  0  0  0  0  0  0  0
   47.7653    9.8560   20.2336 C   0  0  0  0  0  0  0  0  0  0  0  0
   48.3704   10.0475   19.0453 O   0  0  0  0  0  0  0  0  0  0  0  0
   47.8916    5.7800   21.6835 O   0  0  0  0  0  0  0  0  0  0  0  0
   49.9191    8.7056   20.8719 O   0  0  0  0  0  0  0  0  0  0  0  0
   48.6889    7.8481   23.2560 O   0  0  0  0  0  0  0  0  0  0  0  0
   46.6047   10.2046   20.3965 O   0  0  0  0  0  0  0  0  0  0  0  0
   49.2559    9.5765   20.2955 N   0  0  0  0  0  0  0  0  0  0  0  0
   49.1969   11.0230   20.1090 C   0  0  0  0  0  0  0  0  0  0  0  0
   48.2231   11.4092   19.0802 C   0  0  0  0  0  0  0  0  0  0  0  0
   47.4275   11.7269   18.2381 C   0  0  0  0  0  0  0  0  0  0  0  0
   48.0466    9.0101   20.8895 C   0  0  2  0  0  0  0  0  0  0  0  0
   47.7788    9.4688   22.3422 C   0  0  0  0  0  0  0  0  0  0  0  0
   46.9889    8.3369   23.0139 C   0  0  0  0  0  0  0  0  0  0  0  0
   47.5438    7.1428   22.3035 C   0  0  0  0  0  0  0  0  0  0  0  0
   48.1500    7.5188   21.0973 C   0  0  0  0  0  0  0  0  0  0  0  0
   48.6886    6.5636   20.2480 C   0  0  0  0  0  0  0  0  0  0  0  0
   47.4699    5.8138   22.6858 C   0  0  0  0  0  0  0  0  0  0  0  0
   48.0263    4.8500   21.8420 C   0  0  0  0  0  0  0  0  0  0  0  0
   48.6310    5.2219   20.6312 C   0  0  0  0  0  0  0  0  0  0  0  0
   47.6226    9.7924   20.3543 N   0  0  0  0  0  0  0  0  0  0  0  0
   47.0773   11.0975   20.7121 C   0  0  0  0  0  0  0  0  0  0  0  0
   47.1396   11.9896   19.5465 C   0  0  0  0  0  0  0  0  0  0  0  0
   47.1905   12.7181   18.5927 C   0  0  0  0  0  0  0  0  0  0  0  0
   47.4731    8.8221   21.4341 C   0  0  2  0  0  0  0  0  0  0  0  0
   48.3778    9.1248   22.6497 C   0  0  0  0  0  0  0  0  0  0  0  0
   48.6310    7.7805   23.3435 C   0  0  0  0  0  0  0  0  0  0  0  0
   48.6002    6.8464   22.1748 C   0  0  0  0  0  0  0  0  0  0  0  0
   47.9550    7.4368   21.0783 C   0  0  0  0  0  0  0  0  0  0  0  0
   47.7758    6.7231   19.9018 C   0  0  0  0  0  0  0  0  0  0  0  0
   49.0792    5.5478   22.1170 C   0  0  0  0  0  0  0  0  0  0  0  0
   48.9149    4.8339   20.9291 C   0  0  0  0  0  0  0  0  0  0  0  0
   48.2680    5.4172   19.8293 C   0  0  0  0  0  0  0  0  0  0  0  0
   46.9327    6.2006   19.7308 H   0  0  0  0  0  0  0  0  0  0  0  0
   46.9317    8.5532   22.4577 H   0  0  0  0  0  0  0  0  0  0  0  0
   48.9251   10.0670   21.9716 H   0  0  0  0  0  0  0  0  0  0  0  0
   47.6812   10.4419   18.4740 H   0  0  0  0  0  0  0  0  0  0  0  0
   50.3581    8.3784   21.6811 H   0  0  0  0  0  0  0  0  0  0  0  0
   48.4066    6.9525   23.5331 H   0  0  0  0  0  0  0  0  0  0  0  0
   50.0445    9.3548   20.9005 H   0  0  0  0  0  0  0  0  0  0  0  0
   50.1891   11.3597   19.7861 H   0  0  0  0  0  0  0  0  0  0  0  0
   48.9928   11.5410   21.0523 H   0  0  0  0  0  0  0  0  0  0  0  0
   46.7236   11.9990   17.4860 H   0  0  0  0  0  0  0  0  0  0  0  0
   47.1650    9.1913   20.2621 H   0  0  0  0  0  0  0  0  0  0  0  0
   47.2450   10.4238   22.3880 H   0  0  0  0  0  0  0  0  0  0  0  0
   48.7276    9.6030   22.8822 H   0  0  0  0  0  0  0  0  0  0  0  0
   45.9159    8.4293   22.8172 H   0  0  0  0  0  0  0  0  0  0  0  0
   47.1729    8.3070   24.0914 H   0  0  0  0  0  0  0  0  0  0  0  0
   49.1420    6.8536   19.3048 H   0  0  0  0  0  0  0  0  0  0  0  0
   46.9906    5.5226   23.6148 H   0  0  0  0  0  0  0  0  0  0  0  0
   47.9843    3.8000   22.1204 H   0  0  0  0  0  0  0  0  0  0  0  0
   49.0512    4.4580   19.9817 H   0  0  0  0  0  0  0  0  0  0  0  0
   47.1226    9.4533   19.5356 H   0  0  0  0  0  0  0  0  0  0  0  0
   47.6489   11.5442   21.5327 H   0  0  0  0  0  0  0  0  0  0  0  0
   46.0343   11.0052   21.0372 H   0  0  0  0  0  0  0  0  0  0  0  0
   47.2443   13.3613   17.7449 H   0  0  0  0  0  0  0  0  0  0  0  0
   46.4243    8.7386   21.7485 H   0  0  0  0  0  0  0  0  0  0  0  0
   49.3419    9.5352   22.3144 H   0  0  0  0  0  0  0  0  0  0  0  0
   47.9349    9.8592   23.3308 H   0  0  0  0  0  0  0  0  0  0  0  0
   47.8258    7.5362   24.0437 H   0  0  0  0  0  0  0  0  0  0  0  0
   49.5945    7.7736   23.8607 H   0  0  0  0  0  0  0  0  0  0  0  0
   47.2673    7.1601   19.0493 H   0  0  0  0  0  0  0  0  0  0  0  0
   49.5716    5.0931   22.9704 H   0  0  0  0  0  0  0  0  0  0  0  0
   49.2878    3.8153   20.8552 H   0  0  0  0  0  0  0  0  0  0  0  0
   48.1453    4.8450   18.9130 H   0  0  0  0  0  0  0  0  0  0  0  0
  1  2  1  0
  2  3  1  0
  3  4  1  0
  4  5  1  0
  5  6  1  0
  2  7  2  0
  4  8  1  0
  3  9  1  0
  5 10  2  0
 12 11  1  0
 15 11  1  0
 12 13  1  0
 13 14  3  0
 16 15  1  0
 19 15  1  0
 16 17  1  0
 17 18  1  0
 18 19  2  0
 18 21  1  0
 20 19  1  0
 23 20  2  0
 21 22  2  0
 22 23  1  0
 25 24  1  0
 28 24  1  0
 25 26  1  0
 26 27  3  0
 29 28  1  0
 32 28  1  0
 29 30  1  0
 30 31  1  0
 31 32  2  0
 31 34  1  0
 33 32  1  0
 36 33  2  0
 34 35  2  0
 35 36  1  0
  1 37  1  0
  3 38  1  1
  4 39  1  6
  6 40  1  0
  8 41  1  0
  9 42  1  0
 11 43  1  0
 12 44  1  0
 12 45  1  0
 14 46  1  0
 15 47  1  1
 16 48  1  0
 16 49  1  0
 17 50  1  0
 17 51  1  0
 20 52  1  0
 21 53  1  0
 22 54  1  0
 23 55  1  0
 24 56  1  0
 25 57  1  0
 25 58  1  0
 27 59  1  0
 28 60  1  1
 29 61  1  0
 29 62  1  0
 30 63  1  0
 30 64  1  0
 33 65  1  0
 34 66  1  0
 35 67  1  0
 36 68  1  0
M  END
> <Uni-Dock RESULT> 
ENERGY=   -5.048  LOWER_BOUND=   10.743  UPPER_BOUND=   12.669
INTER + INTRA:          -5.048
INTER:                  -5.048
INTRA:                   0.000
UNBOUND:                 0.000

$$$$

     RDKit          3D

 68 69  0  0  0  0  0  0  0  0999 V2000
   50.1354    3.1846   16.8046 O   0  0  0  0  0  0  0  0  0  0  0  0
   49.4716    4.3119   17.1058 C   0  0  0  0  0  0  0  0  0  0  0  0
   50.3384    5.4495   17.6352 C   0  0  2  0  0  0  0  0  0  0  0  0
   51.1790    5.0352   18.8432 C   0  0  2  0  0  0  0  0  0  0  0  0
   52.3126    4.1082   18.4049 C   0  0  0  0  0  0  0  0  0  0  0  0
   52.5255    3.0673   19.2332 O   0  0  0  0  0  0  0  0  0  0  0  0
   48.2712    4.4028   16.8840 O   0  0  0  0  0  0  0  0  0  0  0  0
   50.3295    4.5761   19.8943 O   0  0  0  0  0  0  0  0  0  0  0  0
   49.4823    6.5347   18.0562 O   0  0  0  0  0  0  0  0  0  0  0  0
   53.0232    4.2686   17.4229 O   0  0  0  0  0  0  0  0  0  0  0  0
   51.4904    4.2078   19.6768 N   0  0  0  0  0  0  0  0  0  0  0  0
   52.8563    4.4168   20.1472 C   0  0  0  0  0  0  0  0  0  0  0  0
   53.7984    3.4588   19.5550 C   0  0  0  0  0  0  0  0  0  0  0  0
   54.5703    2.6752   19.0722 C   0  0  0  0  0  0  0  0  0  0  0  0
   51.2989    4.5297   18.2641 C   0  0  2  0  0  0  0  0  0  0  0  0
   51.4860    6.0269   17.9238 C   0  0  0  0  0  0  0  0  0  0  0  0
   50.6114    6.3027   16.6928 C   0  0  0  0  0  0  0  0  0  0  0  0
   49.4887    5.3404   16.9207 C   0  0  0  0  0  0  0  0  0  0  0  0
   49.8713    4.3325   17.8159 C   0  0  0  0  0  0  0  0  0  0  0  0
   49.0009    3.3005   18.1339 C   0  0  0  0  0  0  0  0  0  0  0  0
   48.2343    5.3407   16.3339 C   0  0  0  0  0  0  0  0  0  0  0  0
   47.3483    4.3130   16.6645 C   0  0  0  0  0  0  0  0  0  0  0  0
   47.7288    3.2995   17.5577 C   0  0  0  0  0  0  0  0  0  0  0  0
   52.2815    4.1956   18.2305 N   0  0  0  0  0  0  0  0  0  0  0  0
   53.5797    4.8505   18.1098 C   0  0  0  0  0  0  0  0  0  0  0  0
   54.6209    3.9792   18.6713 C   0  0  0  0  0  0  0  0  0  0  0  0
   55.4715    3.2659   19.1301 C   0  0  0  0  0  0  0  0  0  0  0  0
   51.2217    4.9565   17.5766 C   0  0  2  0  0  0  0  0  0  0  0  0
   50.8837    6.2753   18.3076 C   0  0  0  0  0  0  0  0  0  0  0  0
   49.4235    6.5958   17.9647 C   0  0  0  0  0  0  0  0  0  0  0  0
   48.8563    5.2188   17.8182 C   0  0  0  0  0  0  0  0  0  0  0  0
   49.8747    4.2768   17.6110 C   0  0  0  0  0  0  0  0  0  0  0  0
   49.5630    2.9405   17.4038 C   0  0  0  0  0  0  0  0  0  0  0  0
   47.5215    4.8482   17.8284 C   0  0  0  0  0  0  0  0  0  0  0  0
   47.2067    3.5021   17.6369 C   0  0  0  0  0  0  0  0  0  0  0  0
   48.2200    2.5549   17.4262 C   0  0  0  0  0  0  0  0  0  0  0  0
   49.4459    2.5690   16.4758 H   0  0  0  0  0  0  0  0  0  0  0  0
   50.9522    5.8233   16.8090 H   0  0  0  0  0  0  0  0  0  0  0  0
   51.6795    5.9230   19.2508 H   0  0  0  0  0  0  0  0  0  0  0  0
   53.2660    2.5726   18.8284 H   0  0  0  0  0  0  0  0  0  0  0  0
   49.6896    5.2978   20.0499 H   0  0  0  0  0  0  0  0  0  0  0  0
   48.7195    6.5355   17.4426 H   0  0  0  0  0  0  0  0  0  0  0  0
   50.8607    4.7894   20.2265 H   0  0  0  0  0  0  0  0  0  0  0  0
   52.8613    4.2757   21.2345 H   0  0  0  0  0  0  0  0  0  0  0  0
   53.1872    5.4465   19.9734 H   0  0  0  0  0  0  0  0  0  0  0  0
   55.2468    1.9727   18.6432 H   0  0  0  0  0  0  0  0  0  0  0  0
   51.9320    3.9084   17.6185 H   0  0  0  0  0  0  0  0  0  0  0  0
   52.5347    6.2885   17.7479 H   0  0  0  0  0  0  0  0  0  0  0  0
   51.1314    6.6553   18.7541 H   0  0  0  0  0  0  0  0  0  0  0  0
   51.1395    6.0555   15.7661 H   0  0  0  0  0  0  0  0  0  0  0  0
   50.2742    7.3425   16.6680 H   0  0  0  0  0  0  0  0  0  0  0  0
   49.3042    2.5096   18.8135 H   0  0  0  0  0  0  0  0  0  0  0  0
   47.9427    6.1156   15.6324 H   0  0  0  0  0  0  0  0  0  0  0  0
   46.3563    4.2919   16.2201 H   0  0  0  0  0  0  0  0  0  0  0  0
   47.0300    2.5019   17.7972 H   0  0  0  0  0  0  0  0  0  0  0  0
   52.3467    3.2792   17.7932 H   0  0  0  0  0  0  0  0  0  0  0  0
   53.5842    5.8034   18.6498 H   0  0  0  0  0  0  0  0  0  0  0  0
   53.8131    5.0561   17.0585 H   0  0  0  0  0  0  0  0  0  0  0  0
   56.2205    2.6313   19.5444 H   0  0  0  0  0  0  0  0  0  0  0  0
   51.4677    5.1538   16.5247 H   0  0  0  0  0  0  0  0  0  0  0  0
   50.9683    6.1401   19.3962 H   0  0  0  0  0  0  0  0  0  0  0  0
   51.5573    7.0935   18.0317 H   0  0  0  0  0  0  0  0  0  0  0  0
   49.3472    7.1385   17.0170 H   0  0  0  0  0  0  0  0  0  0  0  0
   48.9414    7.1651   18.7642 H   0  0  0  0  0  0  0  0  0  0  0  0
   50.3375    2.2017   17.2289 H   0  0  0  0  0  0  0  0  0  0  0  0
   46.7369    5.5819   17.9823 H   0  0  0  0  0  0  0  0  0  0  0  0
   46.1672    3.1838   17.6471 H   0  0  0  0  0  0  0  0  0  0  0  0
   47.9562    1.5111   17.2749 H   0  0  0  0  0  0  0  0  0  0  0  0
  1  2  1  0
  2  3  1  0
  3  4  1  0
  4  5  1  0
  5  6  1  0
  2  7  2  0
  4  8  1  0
  3  9  1  0
  5 10  2  0
 12 11  1  0
 15 11  1  0
 12 13  1  0
 13 14  3  0
 16 15  1  0
 19 15  1  0
 16 17  1  0
 17 18  1  0
 18 19  2  0
 18 21  1  0
 20 19  1  0
 23 20  2  0
 21 22  2  0
 22 23  1  0
 25 24  1  0
 28 24  1  0
 25 26  1  0
 26 27  3  0
 29 28  1  0
 32 28  1  0
 29 30  1  0
 30 31  1  0
 31 32  2  0
 31 34  1  0
 33 32  1  0
 36 33  2  0
 34 35  2  0
 35 36  1  0
  1 37  1  0
  3 38  1  1
  4 39  1  6
  6 40  1  0
  8 41  1  0
  9 42  1  0
 11 43  1  0
 12 44  1  0
 12 45  1  0
 14 46  1  0
 15 47  1  1
 16 48  1  0
 16 49  1  0
 17 50  1  0
 17 51  1  0
 20 52  1  0
 21 53  1  0
 22 54  1  0
 23 55  1  0
 24 56  1  0
 25 57  1  0
 25 58  1  0
 27 59  1  0
 28 60  1  1
 29 61  1  0
 29 62  1  0
 30 63  1  0
 30 64  1  0
 33 65  1  0
 34 66  1  0
 35 67  1  0
 36 68  1  0
M  END
> <Uni-Dock RESULT> 
ENERGY=   -5.019  LOWER_BOUND=    8.629  UPPER_BOUND=   10.440
INTER + INTRA:          -5.019
INTER:                  -5.019
INTRA:                   0.000
UNBOUND:                 0.000

$$$$
