
     RDKit          3D

 68 69  0  0  0  0  0  0  0  0999 V2000
   47.5108    6.4356   14.0347 O   0  0  0  0  0  0  0  0  0  0  0  0
   47.1366    6.6416   12.7599 C   0  0  0  0  0  0  0  0  0  0  0  0
   45.6455    6.9000   12.5848 C   0  0  2  0  0  0  0  0  0  0  0  0
   44.7868    5.8481   13.2854 C   0  0  2  0  0  0  0  0  0  0  0  0
   45.0840    4.4643   12.7096 C   0  0  0  0  0  0  0  0  0  0  0  0
   44.0862    3.9767   11.9409 O   0  0  0  0  0  0  0  0  0  0  0  0
   47.9625    6.6808   11.8598 O   0  0  0  0  0  0  0  0  0  0  0  0
   43.4038    6.2078   13.1650 O   0  0  0  0  0  0  0  0  0  0  0  0
   45.2774    6.9752   11.1980 O   0  0  0  0  0  0  0  0  0  0  0  0
   46.1105    3.8223   12.8693 O   0  0  0  0  0  0  0  0  0  0  0  0
   46.7581    7.0252   13.2980 N   0  0  0  0  0  0  0  0  0  0  0  0
   48.1809    6.7759   13.1173 C   0  0  0  0  0  0  0  0  0  0  0  0
   48.8849    7.0199   14.3833 C   0  0  0  0  0  0  0  0  0  0  0  0
   49.4598    7.2181   15.4192 C   0  0  0  0  0  0  0  0  0  0  0  0
   45.9804    6.7222   12.1039 C   0  0  2  0  0  0  0  0  0  0  0  0
   44.7084    7.5993   12.0834 C   0  0  0  0  0  0  0  0  0  0  0  0
   43.6866    6.8438   11.2266 C   0  0  0  0  0  0  0  0  0  0  0  0
   44.0550    5.4265   11.5396 C   0  0  0  0  0  0  0  0  0  0  0  0
   45.3591    5.3479   12.0538 C   0  0  0  0  0  0  0  0  0  0  0  0
   45.9064    4.1154   12.3790 C   0  0  0  0  0  0  0  0  0  0  0  0
   43.2842    4.2925   11.3413 C   0  0  0  0  0  0  0  0  0  0  0  0
   43.8302    3.0543   11.6796 C   0  0  0  0  0  0  0  0  0  0  0  0
   45.1314    2.9664   12.1954 C   0  0  0  0  0  0  0  0  0  0  0  0
   45.9134    7.5597   11.8372 N   0  0  0  0  0  0  0  0  0  0  0  0
   46.5255    8.7650   12.3819 C   0  0  0  0  0  0  0  0  0  0  0  0
   47.9759    8.6242   12.5623 C   0  0  0  0  0  0  0  0  0  0  0  0
   49.1641    8.5178   12.7044 C   0  0  0  0  0  0  0  0  0  0  0  0
   45.6101    6.5432   12.8376 C   0  0  2  0  0  0  0  0  0  0  0  0
   46.8294    5.7425   13.3478 C   0  0  0  0  0  0  0  0  0  0  0  0
   46.2937    4.3723   13.7874 C   0  0  0  0  0  0  0  0  0  0  0  0
   45.1600    4.1900   12.8287 C   0  0  0  0  0  0  0  0  0  0  0  0
   44.7715    5.4189   12.2788 C   0  0  0  0  0  0  0  0  0  0  0  0
   43.7039    5.4920   11.3962 C   0  0  0  0  0  0  0  0  0  0  0  0
   44.4974    3.0171   12.5070 C   0  0  0  0  0  0  0  0  0  0  0  0
   43.4321    3.0841   11.6066 C   0  0  0  0  0  0  0  0  0  0  0  0
   43.0377    4.3129   11.0549 C   0  0  0  0  0  0  0  0  0  0  0  0
   48.4751    6.2578   13.9843 H   0  0  0  0  0  0  0  0  0  0  0  0
   45.4332    7.8907   13.0028 H   0  0  0  0  0  0  0  0  0  0  0  0
   44.9998    5.8020   14.3585 H   0  0  0  0  0  0  0  0  0  0  0  0
   44.4131    3.1041   11.6378 H   0  0  0  0  0  0  0  0  0  0  0  0
   43.2090    6.1286   12.2088 H   0  0  0  0  0  0  0  0  0  0  0  0
   46.0258    7.4045   10.7372 H   0  0  0  0  0  0  0  0  0  0  0  0
   46.4049    6.4776   14.0813 H   0  0  0  0  0  0  0  0  0  0  0  0
   48.5827    7.4474   12.3497 H   0  0  0  0  0  0  0  0  0  0  0  0
   48.3749    5.7493   12.7921 H   0  0  0  0  0  0  0  0  0  0  0  0
   49.9646    7.4002   16.3397 H   0  0  0  0  0  0  0  0  0  0  0  0
   46.5474    6.9000   11.1805 H   0  0  0  0  0  0  0  0  0  0  0  0
   44.9037    8.6075   11.7021 H   0  0  0  0  0  0  0  0  0  0  0  0
   44.2997    7.7132   13.0988 H   0  0  0  0  0  0  0  0  0  0  0  0
   43.8309    7.0459   10.1604 H   0  0  0  0  0  0  0  0  0  0  0  0
   42.6616    7.0858   11.5210 H   0  0  0  0  0  0  0  0  0  0  0  0
   46.9138    4.0253   12.7688 H   0  0  0  0  0  0  0  0  0  0  0  0
   42.2801    4.3608   10.9352 H   0  0  0  0  0  0  0  0  0  0  0  0
   43.2449    2.1489   11.5389 H   0  0  0  0  0  0  0  0  0  0  0  0
   45.5428    1.9924   12.4496 H   0  0  0  0  0  0  0  0  0  0  0  0
   46.5084    7.1660   11.1106 H   0  0  0  0  0  0  0  0  0  0  0  0
   46.3449    9.5788   11.6699 H   0  0  0  0  0  0  0  0  0  0  0  0
   46.0418    9.0699   13.3169 H   0  0  0  0  0  0  0  0  0  0  0  0
   50.2182    8.4232   12.8288 H   0  0  0  0  0  0  0  0  0  0  0  0
   45.0544    6.9738   13.6810 H   0  0  0  0  0  0  0  0  0  0  0  0
   47.5547    5.5886   12.5357 H   0  0  0  0  0  0  0  0  0  0  0  0
   47.3550    6.2509   14.1625 H   0  0  0  0  0  0  0  0  0  0  0  0
   47.0567    3.5954   13.6879 H   0  0  0  0  0  0  0  0  0  0  0  0
   45.9186    4.4028   14.8155 H   0  0  0  0  0  0  0  0  0  0  0  0
   43.3927    6.4454   10.9804 H   0  0  0  0  0  0  0  0  0  0  0  0
   44.7935    2.0680   12.9416 H   0  0  0  0  0  0  0  0  0  0  0  0
   42.8979    2.1773   11.3340 H   0  0  0  0  0  0  0  0  0  0  0  0
   42.2021    4.3481   10.3605 H   0  0  0  0  0  0  0  0  0  0  0  0
  1  2  1  0
  2  3  1  0
  3  4  1  0
  4  5  1  0
  5  6  1  0
  2  7  2  0
  4  8  1  0
  3  9  1  0
  5 10  2  0
 12 11  1  0
 15 11  1  0
 12 13  1  0
 13 14  3  0
 16 15  1  0
 19 15  1  0
 16 17  1  0
 17 18  1  0
 18 19  2  0
 18 21  1  0
 20 19  1  0
 23 20  2  0
 21 22  2  0
 22 23  1  0
 25 24  1  0
 28 24  1  0
 25 26  1  0
 26 27  3  0
 29 28  1  0
 32 28  1  0
 29 30  1  0
 30 31  1  0
 31 32  2  0
 31 34  1  0
 33 32  1  0
 36 33  2  0
 34 35  2  0
 35 36  1  0
  1 37  1  0
  3 38  1  6
  4 39  1  6
  6 40  1  0
  8 41  1  0
  9 42  1  0
 11 43  1  0
 12 44  1  0
 12 45  1  0
 14 46  1  0
 15 47  1  1
 16 48  1  0
 16 49  1  0
 17 50  1  0
 17 51  1  0
 20 52  1  0
 21 53  1  0
 22 54  1  0
 23 55  1  0
 24 56  1  0
 25 57  1  0
 25 58  1  0
 27 59  1  0
 28 60  1  6
 29 61  1  0
 29 62  1  0
 30 63  1  0
 30 64  1  0
 33 65  1  0
 34 66  1  0
 35 67  1  0
 36 68  1  0
M  END
> <Uni-Dock RESULT> 
ENERGY=   -7.246  LOWER_BOUND=    0.000  UPPER_BOUND=    0.000
INTER + INTRA:          -7.246
INTER:                  -7.246
INTRA:                   0.000
UNBOUND:                 0.000

$$$$

     RDKit          3D

 68 69  0  0  0  0  0  0  0  0999 V2000
   47.0177    8.6611   11.9103 O   0  0  0  0  0  0  0  0  0  0  0  0
   46.7427    7.9729   13.0320 C   0  0  0  0  0  0  0  0  0  0  0  0
   46.8123    6.4603   12.8648 C   0  0  2  0  0  0  0  0  0  0  0  0
   46.0055    5.9702   11.6634 C   0  0  2  0  0  0  0  0  0  0  0  0
   44.5344    6.3463   11.8344 C   0  0  0  0  0  0  0  0  0  0  0  0
   43.7382    5.2901   12.1080 O   0  0  0  0  0  0  0  0  0  0  0  0
   46.5307    8.5497   14.0886 O   0  0  0  0  0  0  0  0  0  0  0  0
   46.1969    4.5575   11.5078 O   0  0  0  0  0  0  0  0  0  0  0  0
   46.3766    5.7731   14.0491 O   0  0  0  0  0  0  0  0  0  0  0  0
   44.0658    7.4721   11.7685 O   0  0  0  0  0  0  0  0  0  0  0  0
   47.2588    7.6725   12.5595 N   0  0  0  0  0  0  0  0  0  0  0  0
   47.0699    9.0355   13.0344 C   0  0  0  0  0  0  0  0  0  0  0  0
   47.7876    9.9649   12.1519 C   0  0  0  0  0  0  0  0  0  0  0  0
   48.3736   10.7246   11.4290 C   0  0  0  0  0  0  0  0  0  0  0  0
   46.5051    6.6987   13.3380 C   0  0  2  0  0  0  0  0  0  0  0  0
   47.2234    5.3315   13.2841 C   0  0  0  0  0  0  0  0  0  0  0  0
   46.1443    4.2754   13.5472 C   0  0  0  0  0  0  0  0  0  0  0  0
   44.9539    4.9316   12.9190 C   0  0  0  0  0  0  0  0  0  0  0  0
   45.1555    6.3144   12.7830 C   0  0  0  0  0  0  0  0  0  0  0  0
   44.1555    7.1149   12.2504 C   0  0  0  0  0  0  0  0  0  0  0  0
   43.7667    4.3305   12.5332 C   0  0  0  0  0  0  0  0  0  0  0  0
   42.7659    5.1338   11.9866 C   0  0  0  0  0  0  0  0  0  0  0  0
   42.9591    6.5157   11.8455 C   0  0  0  0  0  0  0  0  0  0  0  0
   47.1917    6.4364   13.8248 N   0  0  0  0  0  0  0  0  0  0  0  0
   48.5531    6.9542   13.8745 C   0  0  0  0  0  0  0  0  0  0  0  0
   48.5923    8.4099   14.0626 C   0  0  0  0  0  0  0  0  0  0  0  0
   48.6308    9.5997   14.2246 C   0  0  0  0  0  0  0  0  0  0  0  0
   46.5630    6.5429   12.5135 C   0  0  2  0  0  0  0  0  0  0  0  0
   46.0812    7.9608   12.1316 C   0  0  0  0  0  0  0  0  0  0  0  0
   44.9109    7.7716   11.1559 C   0  0  0  0  0  0  0  0  0  0  0  0
   44.3245    6.4915   11.6609 C   0  0  0  0  0  0  0  0  0  0  0  0
   45.2555    5.7916   12.4401 C   0  0  0  0  0  0  0  0  0  0  0  0
   44.9394    4.5509   12.9740 C   0  0  0  0  0  0  0  0  0  0  0  0
   43.0666    5.9717   11.4048 C   0  0  0  0  0  0  0  0  0  0  0  0
   42.7388    4.7302   11.9536 C   0  0  0  0  0  0  0  0  0  0  0  0
   43.6685    4.0244   12.7328 C   0  0  0  0  0  0  0  0  0  0  0  0
   46.9063    9.6031   12.1639 H   0  0  0  0  0  0  0  0  0  0  0  0
   47.8675    6.1928   12.7373 H   0  0  0  0  0  0  0  0  0  0  0  0
   46.3485    6.4311   10.7312 H   0  0  0  0  0  0  0  0  0  0  0  0
   42.8418    5.6750   12.1995 H   0  0  0  0  0  0  0  0  0  0  0  0
   45.7782    4.1616   12.2993 H   0  0  0  0  0  0  0  0  0  0  0  0
   46.6754    6.3141   14.8073 H   0  0  0  0  0  0  0  0  0  0  0  0
   46.9903    7.6046   11.5790 H   0  0  0  0  0  0  0  0  0  0  0  0
   47.4634    9.1337   14.0528 H   0  0  0  0  0  0  0  0  0  0  0  0
   46.0118    9.3128   13.0614 H   0  0  0  0  0  0  0  0  0  0  0  0
   48.8994   11.3928   10.7868 H   0  0  0  0  0  0  0  0  0  0  0  0
   46.3954    6.9992   14.3885 H   0  0  0  0  0  0  0  0  0  0  0  0
   48.0498    5.2667   14.0002 H   0  0  0  0  0  0  0  0  0  0  0  0
   47.6496    5.1569   12.2847 H   0  0  0  0  0  0  0  0  0  0  0  0
   45.9764    4.1335   14.6197 H   0  0  0  0  0  0  0  0  0  0  0  0
   46.3955    3.3214   13.0753 H   0  0  0  0  0  0  0  0  0  0  0  0
   44.2812    8.1862   12.1430 H   0  0  0  0  0  0  0  0  0  0  0  0
   43.6152    3.2622   12.6496 H   0  0  0  0  0  0  0  0  0  0  0  0
   41.8264    4.6868   11.6708 H   0  0  0  0  0  0  0  0  0  0  0  0
   42.1664    7.1275   11.4214 H   0  0  0  0  0  0  0  0  0  0  0  0
   46.6172    6.9024   14.5247 H   0  0  0  0  0  0  0  0  0  0  0  0
   49.0554    6.4836   14.7277 H   0  0  0  0  0  0  0  0  0  0  0  0
   49.1248    6.6579   12.9876 H   0  0  0  0  0  0  0  0  0  0  0  0
   48.6642   10.6549   14.3698 H   0  0  0  0  0  0  0  0  0  0  0  0
   47.2152    6.1359   11.7296 H   0  0  0  0  0  0  0  0  0  0  0  0
   45.7114    8.4928   13.0201 H   0  0  0  0  0  0  0  0  0  0  0  0
   46.8774    8.5714   11.6936 H   0  0  0  0  0  0  0  0  0  0  0  0
   44.2068    8.6064   11.2113 H   0  0  0  0  0  0  0  0  0  0  0  0
   45.2660    7.6455   10.1280 H   0  0  0  0  0  0  0  0  0  0  0  0
   45.6647    4.0011   13.5660 H   0  0  0  0  0  0  0  0  0  0  0  0
   42.3506    6.5108   10.7930 H   0  0  0  0  0  0  0  0  0  0  0  0
   41.7563    4.3019   11.7713 H   0  0  0  0  0  0  0  0  0  0  0  0
   43.3993    3.0561   13.1471 H   0  0  0  0  0  0  0  0  0  0  0  0
  1  2  1  0
  2  3  1  0
  3  4  1  0
  4  5  1  0
  5  6  1  0
  2  7  2  0
  4  8  1  0
  3  9  1  0
  5 10  2  0
 12 11  1  0
 15 11  1  0
 12 13  1  0
 13 14  3  0
 16 15  1  0
 19 15  1  0
 16 17  1  0
 17 18  1  0
 18 19  2  0
 18 21  1  0
 20 19  1  0
 23 20  2  0
 21 22  2  0
 22 23  1  0
 25 24  1  0
 28 24  1  0
 25 26  1  0
 26 27  3  0
 29 28  1  0
 32 28  1  0
 29 30  1  0
 30 31  1  0
 31 32  2  0
 31 34  1  0
 33 32  1  0
 36 33  2  0
 34 35  2  0
 35 36  1  0
  1 37  1  0
  3 38  1  6
  4 39  1  6
  6 40  1  0
  8 41  1  0
  9 42  1  0
 11 43  1  0
 12 44  1  0
 12 45  1  0
 14 46  1  0
 15 47  1  1
 16 48  1  0
 16 49  1  0
 17 50  1  0
 17 51  1  0
 20 52  1  0
 21 53  1  0
 22 54  1  0
 23 55  1  0
 24 56  1  0
 25 57  1  0
 25 58  1  0
 27 59  1  0
 28 60  1  6
 29 61  1  0
 29 62  1  0
 30 63  1  0
 30 64  1  0
 33 65  1  0
 34 66  1  0
 35 67  1  0
 36 68  1  0
M  END
> <Uni-Dock RESULT> 
ENERGY=   -6.676  LOWER_BOUND=    1.194  UPPER_BOUND=    2.816
INTER + INTRA:          -6.676
INTER:                  -6.676
INTRA:                   0.000
UNBOUND:                 0.000

$$$$

     RDKit          3D

 68 69  0  0  0  0  0  0  0  0999 V2000
   44.5741    9.0374   10.7338 O   0  0  0  0  0  0  0  0  0  0  0  0
   45.0635    9.1814   11.9777 C   0  0  0  0  0  0  0  0  0  0  0  0
   46.4618    8.6063   12.1649 C   0  0  2  0  0  0  0  0  0  0  0  0
   46.5735    7.1709   11.6532 C   0  0  2  0  0  0  0  0  0  0  0  0
   45.6006    6.2694   12.4119 C   0  0  0  0  0  0  0  0  0  0  0  0
   46.2096    5.4295   13.2767 O   0  0  0  0  0  0  0  0  0  0  0  0
   44.4383    9.7897   12.8338 O   0  0  0  0  0  0  0  0  0  0  0  0
   47.9336    6.7309   11.7680 O   0  0  0  0  0  0  0  0  0  0  0  0
   46.8805    8.6612   13.5382 O   0  0  0  0  0  0  0  0  0  0  0  0
   44.3836    6.2763   12.3113 O   0  0  0  0  0  0  0  0  0  0  0  0
   45.5622    9.2170   11.4033 N   0  0  0  0  0  0  0  0  0  0  0  0
   44.2441    9.8120   11.5690 C   0  0  0  0  0  0  0  0  0  0  0  0
   43.7236   10.2210   10.2576 C   0  0  0  0  0  0  0  0  0  0  0  0
   43.2979   10.5539    9.1847 C   0  0  0  0  0  0  0  0  0  0  0  0
   46.1087    8.7091   12.6546 C   0  0  2  0  0  0  0  0  0  0  0  0
   47.6523    8.7433   12.5922 C   0  0  0  0  0  0  0  0  0  0  0  0
   48.1400    7.6811   13.5836 C   0  0  0  0  0  0  0  0  0  0  0  0
   47.0447    6.6668   13.4657 C   0  0  0  0  0  0  0  0  0  0  0  0
   45.8839    7.2413   12.9236 C   0  0  0  0  0  0  0  0  0  0  0  0
   44.7386    6.4756   12.7609 C   0  0  0  0  0  0  0  0  0  0  0  0
   47.0832    5.3368   13.8518 C   0  0  0  0  0  0  0  0  0  0  0  0
   45.9352    4.5640   13.6770 C   0  0  0  0  0  0  0  0  0  0  0  0
   44.7718    5.1289   13.1347 C   0  0  0  0  0  0  0  0  0  0  0  0
   46.6339    9.4019   12.8000 N   0  0  0  0  0  0  0  0  0  0  0  0
   46.7496   10.6560   12.0665 C   0  0  0  0  0  0  0  0  0  0  0  0
   45.4492   11.3054   11.8585 C   0  0  0  0  0  0  0  0  0  0  0  0
   44.3890   11.8455   11.6924 C   0  0  0  0  0  0  0  0  0  0  0  0
   46.2846    8.2569   11.9676 C   0  0  2  0  0  0  0  0  0  0  0  0
   44.8021    8.1887   11.5365 C   0  0  0  0  0  0  0  0  0  0  0  0
   44.4833    6.7028   11.3177 C   0  0  0  0  0  0  0  0  0  0  0  0
   45.3817    6.0676   12.3311 C   0  0  0  0  0  0  0  0  0  0  0  0
   46.4033    6.9482   12.7111 C   0  0  0  0  0  0  0  0  0  0  0  0
   47.3816    6.5495   13.6101 C   0  0  0  0  0  0  0  0  0  0  0  0
   45.3147    4.7817   12.8411 C   0  0  0  0  0  0  0  0  0  0  0  0
   46.2885    4.3817   13.7585 C   0  0  0  0  0  0  0  0  0  0  0  0
   47.3151    5.2593   14.1406 C   0  0  0  0  0  0  0  0  0  0  0  0
   43.6722    9.4234   10.7761 H   0  0  0  0  0  0  0  0  0  0  0  0
   47.1576    9.2512   11.6160 H   0  0  0  0  0  0  0  0  0  0  0  0
   46.3161    7.0993   10.5913 H   0  0  0  0  0  0  0  0  0  0  0  0
   45.4763    4.9288   13.6910 H   0  0  0  0  0  0  0  0  0  0  0  0
   48.1016    6.6925   12.7317 H   0  0  0  0  0  0  0  0  0  0  0  0
   46.5105    9.4884   13.9063 H   0  0  0  0  0  0  0  0  0  0  0  0
   45.5208    8.4626   10.7197 H   0  0  0  0  0  0  0  0  0  0  0  0
   44.3114   10.6932   12.2175 H   0  0  0  0  0  0  0  0  0  0  0  0
   43.5394    9.1147   12.0319 H   0  0  0  0  0  0  0  0  0  0  0  0
   42.9281   10.8513    8.2308 H   0  0  0  0  0  0  0  0  0  0  0  0
   45.7769    9.2940   13.5227 H   0  0  0  0  0  0  0  0  0  0  0  0
   48.0563    9.7363   12.8172 H   0  0  0  0  0  0  0  0  0  0  0  0
   48.0055    8.4730   11.5857 H   0  0  0  0  0  0  0  0  0  0  0  0
   48.1826    8.0755   14.6039 H   0  0  0  0  0  0  0  0  0  0  0  0
   49.1154    7.2811   13.2928 H   0  0  0  0  0  0  0  0  0  0  0  0
   43.8263    6.8961   12.3538 H   0  0  0  0  0  0  0  0  0  0  0  0
   47.9817    4.9024   14.2781 H   0  0  0  0  0  0  0  0  0  0  0  0
   45.9400    3.5161   13.9667 H   0  0  0  0  0  0  0  0  0  0  0  0
   43.8845    4.5128   13.0096 H   0  0  0  0  0  0  0  0  0  0  0  0
   45.9578    9.5023   13.5548 H   0  0  0  0  0  0  0  0  0  0  0  0
   47.3793   11.3295   12.6595 H   0  0  0  0  0  0  0  0  0  0  0  0
   47.2737   10.5139   11.1144 H   0  0  0  0  0  0  0  0  0  0  0  0
   43.4484   12.3248   11.5468 H   0  0  0  0  0  0  0  0  0  0  0  0
   46.9420    8.1921   11.0905 H   0  0  0  0  0  0  0  0  0  0  0  0
   44.1517    8.5703   12.3369 H   0  0  0  0  0  0  0  0  0  0  0  0
   44.5977    8.7820   10.6394 H   0  0  0  0  0  0  0  0  0  0  0  0
   43.4265    6.4905   11.5018 H   0  0  0  0  0  0  0  0  0  0  0  0
   44.7625    6.3801   10.3094 H   0  0  0  0  0  0  0  0  0  0  0  0
   48.1818    7.2259   13.8946 H   0  0  0  0  0  0  0  0  0  0  0  0
   44.5285    4.0980   12.5380 H   0  0  0  0  0  0  0  0  0  0  0  0
   46.2563    3.3789   14.1772 H   0  0  0  0  0  0  0  0  0  0  0  0
   48.0690    4.9296   14.8510 H   0  0  0  0  0  0  0  0  0  0  0  0
  1  2  1  0
  2  3  1  0
  3  4  1  0
  4  5  1  0
  5  6  1  0
  2  7  2  0
  4  8  1  0
  3  9  1  0
  5 10  2  0
 12 11  1  0
 15 11  1  0
 12 13  1  0
 13 14  3  0
 16 15  1  0
 19 15  1  0
 16 17  1  0
 17 18  1  0
 18 19  2  0
 18 21  1  0
 20 19  1  0
 23 20  2  0
 21 22  2  0
 22 23  1  0
 25 24  1  0
 28 24  1  0
 25 26  1  0
 26 27  3  0
 29 28  1  0
 32 28  1  0
 29 30  1  0
 30 31  1  0
 31 32  2  0
 31 34  1  0
 33 32  1  0
 36 33  2  0
 34 35  2  0
 35 36  1  0
  1 37  1  0
  3 38  1  6
  4 39  1  6
  6 40  1  0
  8 41  1  0
  9 42  1  0
 11 43  1  0
 12 44  1  0
 12 45  1  0
 14 46  1  0
 15 47  1  1
 16 48  1  0
 16 49  1  0
 17 50  1  0
 17 51  1  0
 20 52  1  0
 21 53  1  0
 22 54  1  0
 23 55  1  0
 24 56  1  0
 25 57  1  0
 25 58  1  0
 27 59  1  0
 28 60  1  6
 29 61  1  0
 29 62  1  0
 30 63  1  0
 30 64  1  0
 33 65  1  0
 34 66  1  0
 35 67  1  0
 36 68  1  0
M  END
> <Uni-Dock RESULT> 
ENERGY=   -6.670  LOWER_BOUND=    1.729  UPPER_BOUND=    4.000
INTER + INTRA:          -6.670
INTER:                  -6.670
INTRA:                   0.000
UNBOUND:                 0.000

$$$$

     RDKit          3D

 68 69  0  0  0  0  0  0  0  0999 V2000
   48.2766    6.9360   20.1923 O   0  0  0  0  0  0  0  0  0  0  0  0
   47.7247    7.3641   19.0436 C   0  0  0  0  0  0  0  0  0  0  0  0
   48.5057    8.4772   18.3568 C   0  0  2  0  0  0  0  0  0  0  0  0
   48.8426    9.6240   19.3086 C   0  0  2  0  0  0  0  0  0  0  0  0
   47.5572   10.2381   19.8612 C   0  0  0  0  0  0  0  0  0  0  0  0
   47.2861   11.4614   19.3566 O   0  0  0  0  0  0  0  0  0  0  0  0
   46.7229    6.8311   18.5894 O   0  0  0  0  0  0  0  0  0  0  0  0
   49.6602   10.5836   18.6248 O   0  0  0  0  0  0  0  0  0  0  0  0
   47.8049    8.9920   17.2130 O   0  0  0  0  0  0  0  0  0  0  0  0
   46.7946    9.7169   20.6599 O   0  0  0  0  0  0  0  0  0  0  0  0
   48.4851    7.3671   19.0844 N   0  0  0  0  0  0  0  0  0  0  0  0
   47.5055    6.3702   19.4911 C   0  0  0  0  0  0  0  0  0  0  0  0
   48.1272    5.4290   20.4321 C   0  0  0  0  0  0  0  0  0  0  0  0
   48.6357    4.6604   21.2027 C   0  0  0  0  0  0  0  0  0  0  0  0
   47.9171    8.3876   18.2135 C   0  0  2  0  0  0  0  0  0  0  0  0
   49.0250    8.9568   17.2989 C   0  0  0  0  0  0  0  0  0  0  0  0
   48.5622   10.3614   16.8966 C   0  0  0  0  0  0  0  0  0  0  0  0
   47.8176   10.7725   18.1290 C   0  0  0  0  0  0  0  0  0  0  0  0
   47.4561    9.6527   18.8949 C   0  0  0  0  0  0  0  0  0  0  0  0
   46.7286    9.8146   20.0649 C   0  0  0  0  0  0  0  0  0  0  0  0
   47.4634   12.0566   18.5100 C   0  0  0  0  0  0  0  0  0  0  0  0
   46.7423   12.2202   19.6928 C   0  0  0  0  0  0  0  0  0  0  0  0
   46.3783   11.1076   20.4650 C   0  0  0  0  0  0  0  0  0  0  0  0
   48.2257    8.0363   17.4662 N   0  0  0  0  0  0  0  0  0  0  0  0
   48.9311    6.7800   17.2468 C   0  0  0  0  0  0  0  0  0  0  0  0
   48.2380    5.6353   17.8511 C   0  0  0  0  0  0  0  0  0  0  0  0
   47.6712    4.6937   18.3364 C   0  0  0  0  0  0  0  0  0  0  0  0
   48.5000    8.6538   18.7583 C   0  0  2  0  0  0  0  0  0  0  0  0
   47.7882    7.9967   19.9624 C   0  0  0  0  0  0  0  0  0  0  0  0
   47.6139    9.0997   21.0162 C   0  0  0  0  0  0  0  0  0  0  0  0
   47.4498   10.3031   20.1430 C   0  0  0  0  0  0  0  0  0  0  0  0
   47.9441   10.0542   18.8557 C   0  0  0  0  0  0  0  0  0  0  0  0
   47.9357   11.0508   17.8908 C   0  0  0  0  0  0  0  0  0  0  0  0
   46.9369   11.5423   20.4888 C   0  0  0  0  0  0  0  0  0  0  0  0
   46.9120   12.5435   19.5156 C   0  0  0  0  0  0  0  0  0  0  0  0
   47.4080   12.2998   18.2255 C   0  0  0  0  0  0  0  0  0  0  0  0
   47.6561    6.2518   20.5255 H   0  0  0  0  0  0  0  0  0  0  0  0
   49.4297    8.0361   17.9655 H   0  0  0  0  0  0  0  0  0  0  0  0
   49.4280    9.2780   20.1670 H   0  0  0  0  0  0  0  0  0  0  0  0
   46.4448   11.7233   19.7851 H   0  0  0  0  0  0  0  0  0  0  0  0
   49.0760   10.9613   17.9360 H   0  0  0  0  0  0  0  0  0  0  0  0
   47.3478    8.2300   16.8040 H   0  0  0  0  0  0  0  0  0  0  0  0
   48.8931    7.8105   19.9060 H   0  0  0  0  0  0  0  0  0  0  0  0
   47.1502    5.8167   18.6142 H   0  0  0  0  0  0  0  0  0  0  0  0
   46.6336    6.8287   19.9674 H   0  0  0  0  0  0  0  0  0  0  0  0
   49.0939    3.9793   21.8820 H   0  0  0  0  0  0  0  0  0  0  0  0
   47.1064    7.9957   17.5850 H   0  0  0  0  0  0  0  0  0  0  0  0
   49.2157    8.3186   16.4291 H   0  0  0  0  0  0  0  0  0  0  0  0
   49.9745    9.0436   17.8483 H   0  0  0  0  0  0  0  0  0  0  0  0
   47.8841   10.3286   16.0378 H   0  0  0  0  0  0  0  0  0  0  0  0
   49.4117   11.0156   16.6816 H   0  0  0  0  0  0  0  0  0  0  0  0
   46.4285    8.9669   20.6701 H   0  0  0  0  0  0  0  0  0  0  0  0
   47.7392   12.9164   17.9080 H   0  0  0  0  0  0  0  0  0  0  0  0
   46.4560   13.2175   20.0175 H   0  0  0  0  0  0  0  0  0  0  0  0
   45.8123   11.2532   21.3820 H   0  0  0  0  0  0  0  0  0  0  0  0
   47.2234    7.8959   17.3537 H   0  0  0  0  0  0  0  0  0  0  0  0
   48.9865    6.6160   16.1643 H   0  0  0  0  0  0  0  0  0  0  0  0
   49.9684    6.8392   17.5959 H   0  0  0  0  0  0  0  0  0  0  0  0
   47.1670    3.8588   18.7659 H   0  0  0  0  0  0  0  0  0  0  0  0
   49.5804    8.7206   18.9417 H   0  0  0  0  0  0  0  0  0  0  0  0
   46.7921    7.6349   19.6687 H   0  0  0  0  0  0  0  0  0  0  0  0
   48.3416    7.1406   20.3616 H   0  0  0  0  0  0  0  0  0  0  0  0
   46.7387    8.9151   21.6454 H   0  0  0  0  0  0  0  0  0  0  0  0
   48.5097    9.2020   21.6372 H   0  0  0  0  0  0  0  0  0  0  0  0
   48.3313   10.8637   16.8972 H   0  0  0  0  0  0  0  0  0  0  0  0
   46.5638   11.7359   21.4891 H   0  0  0  0  0  0  0  0  0  0  0  0
   46.5106   13.5239   19.7600 H   0  0  0  0  0  0  0  0  0  0  0  0
   47.3870   13.0924   17.4818 H   0  0  0  0  0  0  0  0  0  0  0  0
  1  2  1  0
  2  3  1  0
  3  4  1  0
  4  5  1  0
  5  6  1  0
  2  7  2  0
  4  8  1  0
  3  9  1  0
  5 10  2  0
 12 11  1  0
 15 11  1  0
 12 13  1  0
 13 14  3  0
 16 15  1  0
 19 15  1  0
 16 17  1  0
 17 18  1  0
 18 19  2  0
 18 21  1  0
 20 19  1  0
 23 20  2  0
 21 22  2  0
 22 23  1  0
 25 24  1  0
 28 24  1  0
 25 26  1  0
 26 27  3  0
 29 28  1  0
 32 28  1  0
 29 30  1  0
 30 31  1  0
 31 32  2  0
 31 34  1  0
 33 32  1  0
 36 33  2  0
 34 35  2  0
 35 36  1  0
  1 37  1  0
  3 38  1  6
  4 39  1  6
  6 40  1  0
  8 41  1  0
  9 42  1  0
 11 43  1  0
 12 44  1  0
 12 45  1  0
 14 46  1  0
 15 47  1  1
 16 48  1  0
 16 49  1  0
 17 50  1  0
 17 51  1  0
 20 52  1  0
 21 53  1  0
 22 54  1  0
 23 55  1  0
 24 56  1  0
 25 57  1  0
 25 58  1  0
 27 59  1  0
 28 60  1  6
 29 61  1  0
 29 62  1  0
 30 63  1  0
 30 64  1  0
 33 65  1  0
 34 66  1  0
 35 67  1  0
 36 68  1  0
M  END
> <Uni-Dock RESULT> 
ENERGY=   -6.508  LOWER_BOUND=    6.202  UPPER_BOUND=    8.661
INTER + INTRA:          -6.508
INTER:                  -6.508
INTRA:                   0.000
UNBOUND:                 0.000

$$$$

     RDKit          3D

 68 69  0  0  0  0  0  0  0  0999 V2000
   48.0448    6.6574   20.4593 O   0  0  0  0  0  0  0  0  0  0  0  0
   48.7065    5.5102   20.6909 C   0  0  0  0  0  0  0  0  0  0  0  0
   49.8305    5.2314   19.7012 C   0  0  2  0  0  0  0  0  0  0  0  0
   49.3724    5.3614   18.2493 C   0  0  2  0  0  0  0  0  0  0  0  0
   48.2513    4.3630   17.9645 C   0  0  0  0  0  0  0  0  0  0  0  0
   48.6353    3.3337   17.1787 O   0  0  0  0  0  0  0  0  0  0  0  0
   48.4440    4.8171   21.6629 O   0  0  0  0  0  0  0  0  0  0  0  0
   50.4986    5.1858   17.3789 O   0  0  0  0  0  0  0  0  0  0  0  0
   50.4119    3.9337   19.9074 O   0  0  0  0  0  0  0  0  0  0  0  0
   47.1097    4.4188   18.3947 O   0  0  0  0  0  0  0  0  0  0  0  0
   49.1100    6.0918   20.4101 N   0  0  0  0  0  0  0  0  0  0  0  0
   48.1118    6.0376   21.4683 C   0  0  0  0  0  0  0  0  0  0  0  0
   47.6045    7.3908   21.7319 C   0  0  0  0  0  0  0  0  0  0  0  0
   47.1889    8.4974   21.9459 C   0  0  0  0  0  0  0  0  0  0  0  0
   49.5996    4.7722   20.0342 C   0  0  2  0  0  0  0  0  0  0  0  0
   51.0384    4.8958   19.4843 C   0  0  0  0  0  0  0  0  0  0  0  0
   51.2486    3.6831   18.5711 C   0  0  0  0  0  0  0  0  0  0  0  0
   49.8642    3.4981   18.0313 C   0  0  0  0  0  0  0  0  0  0  0  0
   48.9159    4.1280   18.8532 C   0  0  0  0  0  0  0  0  0  0  0  0
   47.5655    4.0482   18.5459 C   0  0  0  0  0  0  0  0  0  0  0  0
   49.4877    2.7854   16.9044 C   0  0  0  0  0  0  0  0  0  0  0  0
   48.1308    2.7155   16.5889 C   0  0  0  0  0  0  0  0  0  0  0  0
   47.1768    3.3429   17.4031 C   0  0  0  0  0  0  0  0  0  0  0  0
   50.3462    4.8280   20.4994 N   0  0  0  0  0  0  0  0  0  0  0  0
   50.7959    5.8622   21.4226 C   0  0  0  0  0  0  0  0  0  0  0  0
   49.7860    6.1837   22.4389 C   0  0  0  0  0  0  0  0  0  0  0  0
   48.9668    6.4451   23.2778 C   0  0  0  0  0  0  0  0  0  0  0  0
   49.5199    5.3260   19.4062 C   0  0  2  0  0  0  0  0  0  0  0  0
   48.0639    5.6725   19.7914 C   0  0  0  0  0  0  0  0  0  0  0  0
   47.2250    5.4915   18.5182 C   0  0  0  0  0  0  0  0  0  0  0  0
   47.9677    4.3815   17.8445 C   0  0  0  0  0  0  0  0  0  0  0  0
   49.2703    4.2764   18.3500 C   0  0  0  0  0  0  0  0  0  0  0  0
   50.1549    3.3404   17.8345 C   0  0  0  0  0  0  0  0  0  0  0  0
   47.5241    3.5567   16.8241 C   0  0  0  0  0  0  0  0  0  0  0  0
   48.4063    2.6024   16.3132 C   0  0  0  0  0  0  0  0  0  0  0  0
   49.7128    2.4948   16.8146 C   0  0  0  0  0  0  0  0  0  0  0  0
   47.3456    6.6836   21.1483 H   0  0  0  0  0  0  0  0  0  0  0  0
   50.6315    5.9516   19.9034 H   0  0  0  0  0  0  0  0  0  0  0  0
   48.9745    6.3597   18.0390 H   0  0  0  0  0  0  0  0  0  0  0  0
   47.8324    2.7792   17.0898 H   0  0  0  0  0  0  0  0  0  0  0  0
   50.7630    4.2510   17.5006 H   0  0  0  0  0  0  0  0  0  0  0  0
   50.4010    3.7772   20.8729 H   0  0  0  0  0  0  0  0  0  0  0  0
   48.7238    6.5571   19.5901 H   0  0  0  0  0  0  0  0  0  0  0  0
   48.5615    5.6396   22.3854 H   0  0  0  0  0  0  0  0  0  0  0  0
   47.2734    5.3868   21.2024 H   0  0  0  0  0  0  0  0  0  0  0  0
   46.8279    9.4820   22.1343 H   0  0  0  0  0  0  0  0  0  0  0  0
   49.6033    4.0719   20.8800 H   0  0  0  0  0  0  0  0  0  0  0  0
   51.7865    4.9475   20.2829 H   0  0  0  0  0  0  0  0  0  0  0  0
   51.1462    5.8112   18.8832 H   0  0  0  0  0  0  0  0  0  0  0  0
   51.5536    2.8002   19.1420 H   0  0  0  0  0  0  0  0  0  0  0  0
   51.9800    3.8959   17.7864 H   0  0  0  0  0  0  0  0  0  0  0  0
   46.8119    4.5170   19.1681 H   0  0  0  0  0  0  0  0  0  0  0  0
   50.2261    2.2941   16.2790 H   0  0  0  0  0  0  0  0  0  0  0  0
   47.8086    2.1670   15.7072 H   0  0  0  0  0  0  0  0  0  0  0  0
   46.1227    3.2744   17.1446 H   0  0  0  0  0  0  0  0  0  0  0  0
   49.8477    4.1008   21.0089 H   0  0  0  0  0  0  0  0  0  0  0  0
   51.6894    5.4845   21.9333 H   0  0  0  0  0  0  0  0  0  0  0  0
   51.1138    6.7639   20.8868 H   0  0  0  0  0  0  0  0  0  0  0  0
   48.2402    6.6754   24.0226 H   0  0  0  0  0  0  0  0  0  0  0  0
   49.9978    6.1798   18.9082 H   0  0  0  0  0  0  0  0  0  0  0  0
   47.6924    4.9742   20.5555 H   0  0  0  0  0  0  0  0  0  0  0  0
   47.9663    6.6839   20.1989 H   0  0  0  0  0  0  0  0  0  0  0  0
   46.1924    5.2218   18.7563 H   0  0  0  0  0  0  0  0  0  0  0  0
   47.2456    6.3925   17.8966 H   0  0  0  0  0  0  0  0  0  0  0  0
   51.1690    3.2674   18.2153 H   0  0  0  0  0  0  0  0  0  0  0  0
   46.5182    3.6464   16.4273 H   0  0  0  0  0  0  0  0  0  0  0  0
   48.0816    1.9397   15.5149 H   0  0  0  0  0  0  0  0  0  0  0  0
   50.3888    1.7507   16.4011 H   0  0  0  0  0  0  0  0  0  0  0  0
  1  2  1  0
  2  3  1  0
  3  4  1  0
  4  5  1  0
  5  6  1  0
  2  7  2  0
  4  8  1  0
  3  9  1  0
  5 10  2  0
 12 11  1  0
 15 11  1  0
 12 13  1  0
 13 14  3  0
 16 15  1  0
 19 15  1  0
 16 17  1  0
 17 18  1  0
 18 19  2  0
 18 21  1  0
 20 19  1  0
 23 20  2  0
 21 22  2  0
 22 23  1  0
 25 24  1  0
 28 24  1  0
 25 26  1  0
 26 27  3  0
 29 28  1  0
 32 28  1  0
 29 30  1  0
 30 31  1  0
 31 32  2  0
 31 34  1  0
 33 32  1  0
 36 33  2  0
 34 35  2  0
 35 36  1  0
  1 37  1  0
  3 38  1  6
  4 39  1  6
  6 40  1  0
  8 41  1  0
  9 42  1  0
 11 43  1  0
 12 44  1  0
 12 45  1  0
 14 46  1  0
 15 47  1  1
 16 48  1  0
 16 49  1  0
 17 50  1  0
 17 51  1  0
 20 52  1  0
 21 53  1  0
 22 54  1  0
 23 55  1  0
 24 56  1  0
 25 57  1  0
 25 58  1  0
 27 59  1  0
 28 60  1  6
 29 61  1  0
 29 62  1  0
 30 63  1  0
 30 64  1  0
 33 65  1  0
 34 66  1  0
 35 67  1  0
 36 68  1  0
M  END
> <Uni-Dock RESULT> 
ENERGY=   -6.498  LOWER_BOUND=    6.037  UPPER_BOUND=    8.134
INTER + INTRA:          -6.498
INTER:                  -6.498
INTRA:                   0.000
UNBOUND:                 0.000

$$$$

     RDKit          3D

 68 69  0  0  0  0  0  0  0  0999 V2000
   48.3622    9.6505   19.3488 O   0  0  0  0  0  0  0  0  0  0  0  0
   47.4617    9.7568   20.3415 C   0  0  0  0  0  0  0  0  0  0  0  0
   48.0465    9.5570   21.7339 C   0  0  2  0  0  0  0  0  0  0  0  0
   48.8840    8.2831   21.8357 C   0  0  2  0  0  0  0  0  0  0  0  0
   48.0188    7.0635   21.5215 C   0  0  0  0  0  0  0  0  0  0  0  0
   47.7357    6.3116   22.6072 O   0  0  0  0  0  0  0  0  0  0  0  0
   46.3004   10.0588   20.1085 O   0  0  0  0  0  0  0  0  0  0  0  0
   49.4825    8.2116   23.1370 O   0  0  0  0  0  0  0  0  0  0  0  0
   47.0243    9.5423   22.7436 O   0  0  0  0  0  0  0  0  0  0  0  0
   47.5744    6.7578   20.4259 O   0  0  0  0  0  0  0  0  0  0  0  0
   48.1686    9.9989   20.4881 N   0  0  0  0  0  0  0  0  0  0  0  0
   47.3077   10.1931   19.3305 C   0  0  0  0  0  0  0  0  0  0  0  0
   48.1203   10.6154   18.1819 C   0  0  0  0  0  0  0  0  0  0  0  0
   48.7856   10.9593   17.2427 C   0  0  0  0  0  0  0  0  0  0  0  0
   47.4431    9.4969   21.6475 C   0  0  2  0  0  0  0  0  0  0  0  0
   48.1614    9.9503   22.9385 C   0  0  0  0  0  0  0  0  0  0  0  0
   47.7691    8.9373   24.0196 C   0  0  0  0  0  0  0  0  0  0  0  0
   47.6381    7.6915   23.1991 C   0  0  0  0  0  0  0  0  0  0  0  0
   47.4647    8.0004   21.8405 C   0  0  0  0  0  0  0  0  0  0  0  0
   47.2910    6.9844   20.9120 C   0  0  0  0  0  0  0  0  0  0  0  0
   47.6396    6.3817   23.6504 C   0  0  0  0  0  0  0  0  0  0  0  0
   47.4770    5.3597   22.7151 C   0  0  0  0  0  0  0  0  0  0  0  0
   47.3049    5.6588   21.3558 C   0  0  0  0  0  0  0  0  0  0  0  0
   47.3793   10.2799   22.0475 N   0  0  0  0  0  0  0  0  0  0  0  0
   47.7646   11.6037   21.5752 C   0  0  0  0  0  0  0  0  0  0  0  0
   47.2225   11.9033   20.2438 C   0  0  0  0  0  0  0  0  0  0  0  0
   46.7751   12.1572   19.1582 C   0  0  0  0  0  0  0  0  0  0  0  0
   48.2245    9.2017   21.5481 C   0  0  2  0  0  0  0  0  0  0  0  0
   47.9691    8.7966   20.0788 C   0  0  0  0  0  0  0  0  0  0  0  0
   48.3772    7.3212   19.9599 C   0  0  0  0  0  0  0  0  0  0  0  0
   48.0421    6.8228   21.3298 C   0  0  0  0  0  0  0  0  0  0  0  0
   47.9457    7.8871   22.2362 C   0  0  0  0  0  0  0  0  0  0  0  0
   47.6877    7.6507   23.5786 C   0  0  0  0  0  0  0  0  0  0  0  0
   47.8795    5.5107   21.7423 C   0  0  0  0  0  0  0  0  0  0  0  0
   47.6039    5.2695   23.0899 C   0  0  0  0  0  0  0  0  0  0  0  0
   47.5087    6.3319   24.0020 C   0  0  0  0  0  0  0  0  0  0  0  0
   47.8399    9.7725   18.5263 H   0  0  0  0  0  0  0  0  0  0  0  0
   48.6707   10.4302   21.9556 H   0  0  0  0  0  0  0  0  0  0  0  0
   49.7103    8.2843   21.1172 H   0  0  0  0  0  0  0  0  0  0  0  0
   47.1772    5.5836   22.2635 H   0  0  0  0  0  0  0  0  0  0  0  0
   48.7289    8.0942   23.7507 H   0  0  0  0  0  0  0  0  0  0  0  0
   46.3450   10.1852   22.4574 H   0  0  0  0  0  0  0  0  0  0  0  0
   48.9248    9.3567   20.2565 H   0  0  0  0  0  0  0  0  0  0  0  0
   46.5627   10.9679   19.5453 H   0  0  0  0  0  0  0  0  0  0  0  0
   46.7668    9.2786   19.0691 H   0  0  0  0  0  0  0  0  0  0  0  0
   49.3806   11.2687   16.4147 H   0  0  0  0  0  0  0  0  0  0  0  0
   46.4050    9.8535   21.6767 H   0  0  0  0  0  0  0  0  0  0  0  0
   47.9035   10.9771   23.2199 H   0  0  0  0  0  0  0  0  0  0  0  0
   49.2533    9.9178   22.8062 H   0  0  0  0  0  0  0  0  0  0  0  0
   46.8077    9.1923   24.4770 H   0  0  0  0  0  0  0  0  0  0  0  0
   48.5423    8.8540   24.7885 H   0  0  0  0  0  0  0  0  0  0  0  0
   47.1458    7.1951   19.8587 H   0  0  0  0  0  0  0  0  0  0  0  0
   47.7655    6.1515   24.7035 H   0  0  0  0  0  0  0  0  0  0  0  0
   47.4796    4.3227   23.0418 H   0  0  0  0  0  0  0  0  0  0  0  0
   47.1751    4.8497   20.6409 H   0  0  0  0  0  0  0  0  0  0  0  0
   46.4059   10.0966   21.8111 H   0  0  0  0  0  0  0  0  0  0  0  0
   47.3626   12.3378   22.2833 H   0  0  0  0  0  0  0  0  0  0  0  0
   48.8528   11.7323   21.5935 H   0  0  0  0  0  0  0  0  0  0  0  0
   46.3765   12.3824   18.1959 H   0  0  0  0  0  0  0  0  0  0  0  0
   49.2872    9.4299   21.7034 H   0  0  0  0  0  0  0  0  0  0  0  0
   46.8998    8.8828   19.8372 H   0  0  0  0  0  0  0  0  0  0  0  0
   48.5157    9.4253   19.3685 H   0  0  0  0  0  0  0  0  0  0  0  0
   47.8082    6.8121   19.1771 H   0  0  0  0  0  0  0  0  0  0  0  0
   49.4510    7.2191   19.7723 H   0  0  0  0  0  0  0  0  0  0  0  0
   47.6269    8.4733   24.2846 H   0  0  0  0  0  0  0  0  0  0  0  0
   47.9644    4.6873   21.0407 H   0  0  0  0  0  0  0  0  0  0  0  0
   47.4677    4.2489   23.4387 H   0  0  0  0  0  0  0  0  0  0  0  0
   47.3000    6.1261   25.0488 H   0  0  0  0  0  0  0  0  0  0  0  0
  1  2  1  0
  2  3  1  0
  3  4  1  0
  4  5  1  0
  5  6  1  0
  2  7  2  0
  4  8  1  0
  3  9  1  0
  5 10  2  0
 12 11  1  0
 15 11  1  0
 12 13  1  0
 13 14  3  0
 16 15  1  0
 19 15  1  0
 16 17  1  0
 17 18  1  0
 18 19  2  0
 18 21  1  0
 20 19  1  0
 23 20  2  0
 21 22  2  0
 22 23  1  0
 25 24  1  0
 28 24  1  0
 25 26  1  0
 26 27  3  0
 29 28  1  0
 32 28  1  0
 29 30  1  0
 30 31  1  0
 31 32  2  0
 31 34  1  0
 33 32  1  0
 36 33  2  0
 34 35  2  0
 35 36  1  0
  1 37  1  0
  3 38  1  6
  4 39  1  6
  6 40  1  0
  8 41  1  0
  9 42  1  0
 11 43  1  0
 12 44  1  0
 12 45  1  0
 14 46  1  0
 15 47  1  1
 16 48  1  0
 16 49  1  0
 17 50  1  0
 17 51  1  0
 20 52  1  0
 21 53  1  0
 22 54  1  0
 23 55  1  0
 24 56  1  0
 25 57  1  0
 25 58  1  0
 27 59  1  0
 28 60  1  6
 29 61  1  0
 29 62  1  0
 30 63  1  0
 30 64  1  0
 33 65  1  0
 34 66  1  0
 35 67  1  0
 36 68  1  0
M  END
> <Uni-Dock RESULT> 
ENERGY=   -6.148  LOWER_BOUND=    8.109  UPPER_BOUND=   10.069
INTER + INTRA:          -6.148
INTER:                  -6.148
INTRA:                   0.000
UNBOUND:                 0.000

$$$$

     RDKit          3D

 68 69  0  0  0  0  0  0  0  0999 V2000
   44.9081    6.6879   12.9572 O   0  0  0  0  0  0  0  0  0  0  0  0
   46.1686    6.4519   12.5534 C   0  0  0  0  0  0  0  0  0  0  0  0
   47.2335    6.9241   13.5351 C   0  0  2  0  0  0  0  0  0  0  0  0
   47.0194    8.3722   13.9732 C   0  0  2  0  0  0  0  0  0  0  0  0
   47.0714    9.2978   12.7586 C   0  0  0  0  0  0  0  0  0  0  0  0
   48.1899   10.0531   12.7062 O   0  0  0  0  0  0  0  0  0  0  0  0
   46.3944    5.8452   11.5166 O   0  0  0  0  0  0  0  0  0  0  0  0
   47.9936    8.7159   14.9679 O   0  0  0  0  0  0  0  0  0  0  0  0
   48.5573    6.7755   12.9968 O   0  0  0  0  0  0  0  0  0  0  0  0
   46.2318    9.3758   11.8752 O   0  0  0  0  0  0  0  0  0  0  0  0
   46.0315    6.4115   13.3014 N   0  0  0  0  0  0  0  0  0  0  0  0
   45.2892    5.8970   12.1598 C   0  0  0  0  0  0  0  0  0  0  0  0
   43.9132    5.5871   12.5705 C   0  0  0  0  0  0  0  0  0  0  0  0
   42.7878    5.3352   12.9066 C   0  0  0  0  0  0  0  0  0  0  0  0
   47.3849    6.8212   12.9507 C   0  0  2  0  0  0  0  0  0  0  0  0
   48.2988    6.6888   14.1897 C   0  0  0  0  0  0  0  0  0  0  0  0
   49.4573    7.6674   13.9681 C   0  0  0  0  0  0  0  0  0  0  0  0
   48.7610    8.7559   13.2113 C   0  0  0  0  0  0  0  0  0  0  0  0
   47.5691    8.2858   12.6372 C   0  0  0  0  0  0  0  0  0  0  0  0
   46.7872    9.1321   11.8646 C   0  0  0  0  0  0  0  0  0  0  0  0
   49.1899   10.0602   13.0262 C   0  0  0  0  0  0  0  0  0  0  0  0
   48.3975   10.9144   12.2593 C   0  0  0  0  0  0  0  0  0  0  0  0
   47.2045   10.4540   11.6835 C   0  0  0  0  0  0  0  0  0  0  0  0
   47.7714    6.0891   13.2534 N   0  0  0  0  0  0  0  0  0  0  0  0
   47.1752    4.8672   13.7783 C   0  0  0  0  0  0  0  0  0  0  0  0
   46.1495    4.3154   12.8842 C   0  0  0  0  0  0  0  0  0  0  0  0
   45.3151    3.8548   12.1529 C   0  0  0  0  0  0  0  0  0  0  0  0
   46.9971    7.2936   13.5285 C   0  0  2  0  0  0  0  0  0  0  0  0
   45.7409    7.4798   12.6479 C   0  0  0  0  0  0  0  0  0  0  0  0
   45.4890    8.9923   12.5682 C   0  0  0  0  0  0  0  0  0  0  0  0
   46.8877    9.5173   12.6433 C   0  0  0  0  0  0  0  0  0  0  0  0
   47.7519    8.5542   13.1808 C   0  0  0  0  0  0  0  0  0  0  0  0
   49.0931    8.8437   13.3850 C   0  0  0  0  0  0  0  0  0  0  0  0
   47.3433   10.7786   12.2974 C   0  0  0  0  0  0  0  0  0  0  0  0
   48.6961   11.0689   12.4866 C   0  0  0  0  0  0  0  0  0  0  0  0
   49.5652   10.1083   13.0268 C   0  0  0  0  0  0  0  0  0  0  0  0
   44.3467    6.3603   12.2213 H   0  0  0  0  0  0  0  0  0  0  0  0
   47.1914    6.2623   14.4078 H   0  0  0  0  0  0  0  0  0  0  0  0
   46.0395    8.5119   14.4417 H   0  0  0  0  0  0  0  0  0  0  0  0
   48.0927   10.5802   11.8860 H   0  0  0  0  0  0  0  0  0  0  0  0
   48.8499    8.6964   14.4939 H   0  0  0  0  0  0  0  0  0  0  0  0
   48.5465    5.9575   12.4606 H   0  0  0  0  0  0  0  0  0  0  0  0
   45.5344    7.1992   13.7143 H   0  0  0  0  0  0  0  0  0  0  0  0
   45.7652    4.9829   11.7864 H   0  0  0  0  0  0  0  0  0  0  0  0
   45.2631    6.6159   11.3354 H   0  0  0  0  0  0  0  0  0  0  0  0
   41.7923    5.1093   13.2121 H   0  0  0  0  0  0  0  0  0  0  0  0
   47.8053    6.2180   12.1351 H   0  0  0  0  0  0  0  0  0  0  0  0
   48.6477    5.6616   14.3420 H   0  0  0  0  0  0  0  0  0  0  0  0
   47.7594    6.9837   15.1024 H   0  0  0  0  0  0  0  0  0  0  0  0
   50.2451    7.2221   13.3520 H   0  0  0  0  0  0  0  0  0  0  0  0
   49.8729    8.0160   14.9176 H   0  0  0  0  0  0  0  0  0  0  0  0
   45.8675    8.7926   11.4022 H   0  0  0  0  0  0  0  0  0  0  0  0
   50.1170   10.4136   13.4662 H   0  0  0  0  0  0  0  0  0  0  0  0
   48.7082   11.9444   12.1027 H   0  0  0  0  0  0  0  0  0  0  0  0
   46.6013   11.1324   11.0848 H   0  0  0  0  0  0  0  0  0  0  0  0
   47.9269    5.9969   12.2513 H   0  0  0  0  0  0  0  0  0  0  0  0
   47.9762    4.1258   13.8815 H   0  0  0  0  0  0  0  0  0  0  0  0
   46.7749    5.0205   14.7870 H   0  0  0  0  0  0  0  0  0  0  0  0
   44.5761    3.4460   11.5029 H   0  0  0  0  0  0  0  0  0  0  0  0
   46.7322    7.3575   14.5921 H   0  0  0  0  0  0  0  0  0  0  0  0
   45.9257    7.1034   11.6312 H   0  0  0  0  0  0  0  0  0  0  0  0
   44.8697    6.9454   13.0402 H   0  0  0  0  0  0  0  0  0  0  0  0
   44.9881    9.2644   11.6350 H   0  0  0  0  0  0  0  0  0  0  0  0
   44.9061    9.3445   13.4254 H   0  0  0  0  0  0  0  0  0  0  0  0
   49.7609    8.1032   13.8146 H   0  0  0  0  0  0  0  0  0  0  0  0
   46.6704   11.5263   11.8905 H   0  0  0  0  0  0  0  0  0  0  0  0
   49.0802   12.0501   12.2192 H   0  0  0  0  0  0  0  0  0  0  0  0
   50.6142   10.3530   13.1735 H   0  0  0  0  0  0  0  0  0  0  0  0
  1  2  1  0
  2  3  1  0
  3  4  1  0
  4  5  1  0
  5  6  1  0
  2  7  2  0
  4  8  1  0
  3  9  1  0
  5 10  2  0
 12 11  1  0
 15 11  1  0
 12 13  1  0
 13 14  3  0
 16 15  1  0
 19 15  1  0
 16 17  1  0
 17 18  1  0
 18 19  2  0
 18 21  1  0
 20 19  1  0
 23 20  2  0
 21 22  2  0
 22 23  1  0
 25 24  1  0
 28 24  1  0
 25 26  1  0
 26 27  3  0
 29 28  1  0
 32 28  1  0
 29 30  1  0
 30 31  1  0
 31 32  2  0
 31 34  1  0
 33 32  1  0
 36 33  2  0
 34 35  2  0
 35 36  1  0
  1 37  1  0
  3 38  1  6
  4 39  1  6
  6 40  1  0
  8 41  1  0
  9 42  1  0
 11 43  1  0
 12 44  1  0
 12 45  1  0
 14 46  1  0
 15 47  1  1
 16 48  1  0
 16 49  1  0
 17 50  1  0
 17 51  1  0
 20 52  1  0
 21 53  1  0
 22 54  1  0
 23 55  1  0
 24 56  1  0
 25 57  1  0
 25 58  1  0
 27 59  1  0
 28 60  1  6
 29 61  1  0
 29 62  1  0
 30 63  1  0
 30 64  1  0
 33 65  1  0
 34 66  1  0
 35 67  1  0
 36 68  1  0
M  END
> <Uni-Dock RESULT> 
ENERGY=   -5.820  LOWER_BOUND=    1.481  UPPER_BOUND=    5.490
INTER + INTRA:          -5.820
INTER:                  -5.820
INTRA:                   0.000
UNBOUND:                 0.000

$$$$

     RDKit          3D

 68 69  0  0  0  0  0  0  0  0999 V2000
   50.3290    8.2065   13.5249 O   0  0  0  0  0  0  0  0  0  0  0  0
   49.6062    8.3885   12.4059 C   0  0  0  0  0  0  0  0  0  0  0  0
   48.2308    8.9971   12.6477 C   0  0  2  0  0  0  0  0  0  0  0  0
   47.4516    8.2596   13.7357 C   0  0  2  0  0  0  0  0  0  0  0  0
   47.2438    6.8010   13.3309 C   0  0  0  0  0  0  0  0  0  0  0  0
   45.9691    6.5149   12.9880 O   0  0  0  0  0  0  0  0  0  0  0  0
   50.0765    8.1406   11.3053 O   0  0  0  0  0  0  0  0  0  0  0  0
   46.2149    8.9435   13.9798 O   0  0  0  0  0  0  0  0  0  0  0  0
   47.4491    9.0417   11.4430 O   0  0  0  0  0  0  0  0  0  0  0  0
   48.1062    5.9380   13.2768 O   0  0  0  0  0  0  0  0  0  0  0  0
   49.5166    8.9001   12.9628 N   0  0  0  0  0  0  0  0  0  0  0  0
   50.7134    8.2866   12.4058 C   0  0  0  0  0  0  0  0  0  0  0  0
   51.8312    8.4547   13.3439 C   0  0  0  0  0  0  0  0  0  0  0  0
   52.7446    8.5912   14.1122 C   0  0  0  0  0  0  0  0  0  0  0  0
   48.3424    8.6998   12.1240 C   0  0  2  0  0  0  0  0  0  0  0  0
   47.3495    9.8632   12.3443 C   0  0  0  0  0  0  0  0  0  0  0  0
   45.9673    9.3172   11.9696 C   0  0  0  0  0  0  0  0  0  0  0  0
   46.1122    7.8856   12.3840 C   0  0  0  0  0  0  0  0  0  0  0  0
   47.4656    7.5268   12.4878 C   0  0  0  0  0  0  0  0  0  0  0  0
   47.8178    6.2293   12.8297 C   0  0  0  0  0  0  0  0  0  0  0  0
   45.0992    6.9688   12.6143 C   0  0  0  0  0  0  0  0  0  0  0  0
   45.4534    5.6674   12.9698 C   0  0  0  0  0  0  0  0  0  0  0  0
   46.8027    5.3005   13.0776 C   0  0  0  0  0  0  0  0  0  0  0  0
   48.3684    9.5009   11.7570 N   0  0  0  0  0  0  0  0  0  0  0  0
   49.3649   10.5562   11.8883 C   0  0  0  0  0  0  0  0  0  0  0  0
   50.7294   10.0717   11.6446 C   0  0  0  0  0  0  0  0  0  0  0  0
   51.8472    9.6828   11.4382 C   0  0  0  0  0  0  0  0  0  0  0  0
   48.2069    8.6840   12.9540 C   0  0  2  0  0  0  0  0  0  0  0  0
   49.3293    7.6499   13.1973 C   0  0  0  0  0  0  0  0  0  0  0  0
   48.6941    6.5019   13.9948 C   0  0  0  0  0  0  0  0  0  0  0  0
   47.2956    6.5278   13.4646 C   0  0  0  0  0  0  0  0  0  0  0  0
   47.0143    7.7623   12.8644 C   0  0  0  0  0  0  0  0  0  0  0  0
   45.7554    8.0245   12.3442 C   0  0  0  0  0  0  0  0  0  0  0  0
   46.3332    5.5357   13.5527 C   0  0  0  0  0  0  0  0  0  0  0  0
   45.0693    5.7898   13.0161 C   0  0  0  0  0  0  0  0  0  0  0  0
   44.7820    7.0256   12.4160 C   0  0  0  0  0  0  0  0  0  0  0  0
   51.1622    7.7885   13.2164 H   0  0  0  0  0  0  0  0  0  0  0  0
   48.3819   10.0418   12.9428 H   0  0  0  0  0  0  0  0  0  0  0  0
   47.9930    8.2548   14.6875 H   0  0  0  0  0  0  0  0  0  0  0  0
   45.9863    5.5653   12.7471 H   0  0  0  0  0  0  0  0  0  0  0  0
   45.7027    8.8330   13.1528 H   0  0  0  0  0  0  0  0  0  0  0  0
   48.0752    9.2275   10.7149 H   0  0  0  0  0  0  0  0  0  0  0  0
   49.3359    8.5290   13.8943 H   0  0  0  0  0  0  0  0  0  0  0  0
   50.9702    8.7663   11.4542 H   0  0  0  0  0  0  0  0  0  0  0  0
   50.5687    7.2200   12.2092 H   0  0  0  0  0  0  0  0  0  0  0  0
   53.5518    8.7199   14.7957 H   0  0  0  0  0  0  0  0  0  0  0  0
   48.5958    8.6486   11.0568 H   0  0  0  0  0  0  0  0  0  0  0  0
   47.6149   10.7529   11.7630 H   0  0  0  0  0  0  0  0  0  0  0  0
   47.3335   10.1638   13.4027 H   0  0  0  0  0  0  0  0  0  0  0  0
   45.7898    9.3833   10.8914 H   0  0  0  0  0  0  0  0  0  0  0  0
   45.1725    9.8337   12.5151 H   0  0  0  0  0  0  0  0  0  0  0  0
   48.8547    5.9231   12.9077 H   0  0  0  0  0  0  0  0  0  0  0  0
   44.0554    7.2517   12.5235 H   0  0  0  0  0  0  0  0  0  0  0  0
   44.6782    4.9295   13.1612 H   0  0  0  0  0  0  0  0  0  0  0  0
   47.0608    4.2802   13.3514 H   0  0  0  0  0  0  0  0  0  0  0  0
   48.5927    8.9087   10.9595 H   0  0  0  0  0  0  0  0  0  0  0  0
   49.1341   11.3243   11.1410 H   0  0  0  0  0  0  0  0  0  0  0  0
   49.2934   11.0529   12.8627 H   0  0  0  0  0  0  0  0  0  0  0  0
   52.8383    9.3375   11.2535 H   0  0  0  0  0  0  0  0  0  0  0  0
   48.0651    9.3119   13.8434 H   0  0  0  0  0  0  0  0  0  0  0  0
   49.6956    7.2488   12.2411 H   0  0  0  0  0  0  0  0  0  0  0  0
   50.1891    8.0787   13.7219 H   0  0  0  0  0  0  0  0  0  0  0  0
   49.2000    5.5525   13.7985 H   0  0  0  0  0  0  0  0  0  0  0  0
   48.6956    6.7148   15.0687 H   0  0  0  0  0  0  0  0  0  0  0  0
   45.5318    8.9857   11.8916 H   0  0  0  0  0  0  0  0  0  0  0  0
   46.5501    4.5840   14.0267 H   0  0  0  0  0  0  0  0  0  0  0  0
   44.2972    5.0262   13.0683 H   0  0  0  0  0  0  0  0  0  0  0  0
   43.7909    7.2092   12.0090 H   0  0  0  0  0  0  0  0  0  0  0  0
  1  2  1  0
  2  3  1  0
  3  4  1  0
  4  5  1  0
  5  6  1  0
  2  7  2  0
  4  8  1  0
  3  9  1  0
  5 10  2  0
 12 11  1  0
 15 11  1  0
 12 13  1  0
 13 14  3  0
 16 15  1  0
 19 15  1  0
 16 17  1  0
 17 18  1  0
 18 19  2  0
 18 21  1  0
 20 19  1  0
 23 20  2  0
 21 22  2  0
 22 23  1  0
 25 24  1  0
 28 24  1  0
 25 26  1  0
 26 27  3  0
 29 28  1  0
 32 28  1  0
 29 30  1  0
 30 31  1  0
 31 32  2  0
 31 34  1  0
 33 32  1  0
 36 33  2  0
 34 35  2  0
 35 36  1  0
  1 37  1  0
  3 38  1  6
  4 39  1  6
  6 40  1  0
  8 41  1  0
  9 42  1  0
 11 43  1  0
 12 44  1  0
 12 45  1  0
 14 46  1  0
 15 47  1  1
 16 48  1  0
 16 49  1  0
 17 50  1  0
 17 51  1  0
 20 52  1  0
 21 53  1  0
 22 54  1  0
 23 55  1  0
 24 56  1  0
 25 57  1  0
 25 58  1  0
 27 59  1  0
 28 60  1  6
 29 61  1  0
 29 62  1  0
 30 63  1  0
 30 64  1  0
 33 65  1  0
 34 66  1  0
 35 67  1  0
 36 68  1  0
M  END
> <Uni-Dock RESULT> 
ENERGY=   -5.633  LOWER_BOUND=    1.971  UPPER_BOUND=    3.290
INTER + INTRA:          -5.633
INTER:                  -5.633
INTRA:                   0.000
UNBOUND:                 0.000

$$$$

     RDKit          3D

 68 69  0  0  0  0  0  0  0  0999 V2000
   55.3383    5.4066    8.8535 O   0  0  0  0  0  0  0  0  0  0  0  0
   54.7506    5.1518   10.0356 C   0  0  0  0  0  0  0  0  0  0  0  0
   55.7075    5.1690   11.2208 C   0  0  2  0  0  0  0  0  0  0  0  0
   56.9444    4.3043   10.9824 C   0  0  2  0  0  0  0  0  0  0  0  0
   56.5289    2.8526   10.7485 C   0  0  0  0  0  0  0  0  0  0  0  0
   56.8284    2.0351   11.7811 O   0  0  0  0  0  0  0  0  0  0  0  0
   53.5410    4.9962   10.1168 O   0  0  0  0  0  0  0  0  0  0  0  0
   57.8436    4.4466   12.0904 O   0  0  0  0  0  0  0  0  0  0  0  0
   55.0590    4.7561   12.4347 O   0  0  0  0  0  0  0  0  0  0  0  0
   55.9573    2.4165    9.7613 O   0  0  0  0  0  0  0  0  0  0  0  0
   55.3343    5.6409   10.0375 N   0  0  0  0  0  0  0  0  0  0  0  0
   54.1930    5.5111    9.1433 C   0  0  0  0  0  0  0  0  0  0  0  0
   54.4706    6.2242    7.8894 C   0  0  0  0  0  0  0  0  0  0  0  0
   54.6987    6.8063    6.8636 C   0  0  0  0  0  0  0  0  0  0  0  0
   55.1665    4.8868   11.2727 C   0  0  2  0  0  0  0  0  0  0  0  0
   55.9805    5.5605   12.4003 C   0  0  0  0  0  0  0  0  0  0  0  0
   56.2754    4.4600   13.4254 C   0  0  0  0  0  0  0  0  0  0  0  0
   56.3957    3.2680   12.5270 C   0  0  0  0  0  0  0  0  0  0  0  0
   55.7766    3.5067   11.2897 C   0  0  0  0  0  0  0  0  0  0  0  0
   55.7476    2.5128   10.3223 C   0  0  0  0  0  0  0  0  0  0  0  0
   56.9874    2.0497   12.8188 C   0  0  0  0  0  0  0  0  0  0  0  0
   56.9687    1.0546   11.8415 C   0  0  0  0  0  0  0  0  0  0  0  0
   56.3542    1.2847   10.6021 C   0  0  0  0  0  0  0  0  0  0  0  0
   54.9299    5.5823   11.7599 N   0  0  0  0  0  0  0  0  0  0  0  0
   54.6741    6.9598   11.3586 C   0  0  0  0  0  0  0  0  0  0  0  0
   53.7353    7.0503   10.2331 C   0  0  0  0  0  0  0  0  0  0  0  0
   52.9614    7.1310    9.3178 C   0  0  0  0  0  0  0  0  0  0  0  0
   55.9472    4.9097   10.9606 C   0  0  2  0  0  0  0  0  0  0  0  0
   55.4841    4.4578    9.5571 C   0  0  0  0  0  0  0  0  0  0  0  0
   56.3520    3.2474    9.1844 C   0  0  0  0  0  0  0  0  0  0  0  0
   56.5870    2.6411   10.5315 C   0  0  0  0  0  0  0  0  0  0  0  0
   56.3510    3.5780   11.5463 C   0  0  0  0  0  0  0  0  0  0  0  0
   56.5532    3.2439   12.8774 C   0  0  0  0  0  0  0  0  0  0  0  0
   57.0226    1.3593   10.8240 C   0  0  0  0  0  0  0  0  0  0  0  0
   57.2121    1.0140   12.1637 C   0  0  0  0  0  0  0  0  0  0  0  0
   56.9793    1.9496   13.1836 C   0  0  0  0  0  0  0  0  0  0  0  0
   54.6133    5.3333    8.1954 H   0  0  0  0  0  0  0  0  0  0  0  0
   56.0085    6.2102   11.3840 H   0  0  0  0  0  0  0  0  0  0  0  0
   57.4979    4.6269   10.0943 H   0  0  0  0  0  0  0  0  0  0  0  0
   56.5022    1.1547   11.5005 H   0  0  0  0  0  0  0  0  0  0  0  0
   57.3701    4.0453   12.8475 H   0  0  0  0  0  0  0  0  0  0  0  0
   54.1440    5.0987   12.3886 H   0  0  0  0  0  0  0  0  0  0  0  0
   56.1837    5.3348    9.5655 H   0  0  0  0  0  0  0  0  0  0  0  0
   53.3014    5.9444    9.6111 H   0  0  0  0  0  0  0  0  0  0  0  0
   53.9714    4.4637    8.9176 H   0  0  0  0  0  0  0  0  0  0  0  0
   54.9052    7.3284    5.9581 H   0  0  0  0  0  0  0  0  0  0  0  0
   54.1153    4.8247   11.5841 H   0  0  0  0  0  0  0  0  0  0  0  0
   55.4513    6.4101   12.8454 H   0  0  0  0  0  0  0  0  0  0  0  0
   56.9359    5.9444   12.0122 H   0  0  0  0  0  0  0  0  0  0  0  0
   55.4408    4.3271   14.1212 H   0  0  0  0  0  0  0  0  0  0  0  0
   57.1973    4.6645   13.9770 H   0  0  0  0  0  0  0  0  0  0  0  0
   55.2684    2.6671    9.3624 H   0  0  0  0  0  0  0  0  0  0  0  0
   57.4563    1.8701   13.7809 H   0  0  0  0  0  0  0  0  0  0  0  0
   57.4305    0.0911   12.0426 H   0  0  0  0  0  0  0  0  0  0  0  0
   56.3451    0.4961    9.8534 H   0  0  0  0  0  0  0  0  0  0  0  0
   54.0630    5.0483   11.7404 H   0  0  0  0  0  0  0  0  0  0  0  0
   54.2323    7.4783   12.2175 H   0  0  0  0  0  0  0  0  0  0  0  0
   55.6071    7.4894   11.1344 H   0  0  0  0  0  0  0  0  0  0  0  0
   52.2737    7.2019    8.5069 H   0  0  0  0  0  0  0  0  0  0  0  0
   56.8568    5.5201   10.8857 H   0  0  0  0  0  0  0  0  0  0  0  0
   54.4325    4.1372    9.5847 H   0  0  0  0  0  0  0  0  0  0  0  0
   55.5624    5.2557    8.8117 H   0  0  0  0  0  0  0  0  0  0  0  0
   55.8235    2.5716    8.5063 H   0  0  0  0  0  0  0  0  0  0  0  0
   57.3021    3.5607    8.7396 H   0  0  0  0  0  0  0  0  0  0  0  0
   56.3844    3.9732   13.6638 H   0  0  0  0  0  0  0  0  0  0  0  0
   57.2143    0.6383   10.0361 H   0  0  0  0  0  0  0  0  0  0  0  0
   57.5494    0.0129   12.4206 H   0  0  0  0  0  0  0  0  0  0  0  0
   57.1380    1.6663   14.2210 H   0  0  0  0  0  0  0  0  0  0  0  0
  1  2  1  0
  2  3  1  0
  3  4  1  0
  4  5  1  0
  5  6  1  0
  2  7  2  0
  4  8  1  0
  3  9  1  0
  5 10  2  0
 12 11  1  0
 15 11  1  0
 12 13  1  0
 13 14  3  0
 16 15  1  0
 19 15  1  0
 16 17  1  0
 17 18  1  0
 18 19  2  0
 18 21  1  0
 20 19  1  0
 23 20  2  0
 21 22  2  0
 22 23  1  0
 25 24  1  0
 28 24  1  0
 25 26  1  0
 26 27  3  0
 29 28  1  0
 32 28  1  0
 29 30  1  0
 30 31  1  0
 31 32  2  0
 31 34  1  0
 33 32  1  0
 36 33  2  0
 34 35  2  0
 35 36  1  0
  1 37  1  0
  3 38  1  6
  4 39  1  6
  6 40  1  0
  8 41  1  0
  9 42  1  0
 11 43  1  0
 12 44  1  0
 12 45  1  0
 14 46  1  0
 15 47  1  1
 16 48  1  0
 16 49  1  0
 17 50  1  0
 17 51  1  0
 20 52  1  0
 21 53  1  0
 22 54  1  0
 23 55  1  0
 24 56  1  0
 25 57  1  0
 25 58  1  0
 27 59  1  0
 28 60  1  6
 29 61  1  0
 29 62  1  0
 30 63  1  0
 30 64  1  0
 33 65  1  0
 34 66  1  0
 35 67  1  0
 36 68  1  0
M  END
> <Uni-Dock RESULT> 
ENERGY=   -5.627  LOWER_BOUND=    8.533  UPPER_BOUND=   10.961
INTER + INTRA:          -5.627
INTER:                  -5.627
INTRA:                   0.000
UNBOUND:                 0.000

$$$$
