
     RDKit          3D

 68 69  0  0  0  0  0  0  0  0999 V2000
   48.0446    4.6700   18.9536 O   0  0  0  0  0  0  0  0  0  0  0  0
   47.4222    5.8339   19.2135 C   0  0  0  0  0  0  0  0  0  0  0  0
   48.3088    6.8755   19.8830 C   0  0  2  0  0  0  0  0  0  0  0  0
   48.9909    6.3401   21.1409 C   0  0  2  0  0  0  0  0  0  0  0  0
   47.9733    6.0591   22.2433 C   0  0  0  0  0  0  0  0  0  0  0  0
   47.1615    5.0165   21.9738 O   0  0  0  0  0  0  0  0  0  0  0  0
   46.2681    6.0206   18.8566 O   0  0  0  0  0  0  0  0  0  0  0  0
   49.9540    7.3080   21.5898 O   0  0  0  0  0  0  0  0  0  0  0  0
   47.5938    8.0793   20.1978 O   0  0  0  0  0  0  0  0  0  0  0  0
   47.8620    6.6591   23.3014 O   0  0  0  0  0  0  0  0  0  0  0  0
   47.8011    5.1704   19.4507 N   0  0  0  0  0  0  0  0  0  0  0  0
   47.6437    5.1614   18.0030 C   0  0  0  0  0  0  0  0  0  0  0  0
   47.7296    3.7799   17.5117 C   0  0  0  0  0  0  0  0  0  0  0  0
   47.8009    2.6499   17.1105 C   0  0  0  0  0  0  0  0  0  0  0  0
   47.7040    6.5124   20.0118 C   0  0  2  0  0  0  0  0  0  0  0  0
   48.8893    7.4374   19.6510 C   0  0  0  0  0  0  0  0  0  0  0  0
   49.0030    8.4570   20.7932 C   0  0  0  0  0  0  0  0  0  0  0  0
   48.5366    7.6364   21.9541 C   0  0  0  0  0  0  0  0  0  0  0  0
   47.8034    6.5253   21.5159 C   0  0  0  0  0  0  0  0  0  0  0  0
   47.2347    5.6485   22.4275 C   0  0  0  0  0  0  0  0  0  0  0  0
   48.7175    7.8901   23.3035 C   0  0  0  0  0  0  0  0  0  0  0  0
   48.1595    7.0013   24.2250 C   0  0  0  0  0  0  0  0  0  0  0  0
   47.4233    5.8881   23.7903 C   0  0  0  0  0  0  0  0  0  0  0  0
   49.1878    5.8114   19.2240 N   0  0  0  0  0  0  0  0  0  0  0  0
   48.9604    4.4427   18.7664 C   0  0  0  0  0  0  0  0  0  0  0  0
   48.1425    4.4138   17.5445 C   0  0  0  0  0  0  0  0  0  0  0  0
   47.4746    4.3918   16.5463 C   0  0  0  0  0  0  0  0  0  0  0  0
   48.0257    6.3846   19.8975 C   0  0  2  0  0  0  0  0  0  0  0  0
   47.9800    7.9193   19.7059 C   0  0  0  0  0  0  0  0  0  0  0  0
   47.1704    8.4683   20.8871 C   0  0  0  0  0  0  0  0  0  0  0  0
   47.5527    7.4968   21.9599 C   0  0  0  0  0  0  0  0  0  0  0  0
   48.0632    6.3129   21.4039 C   0  0  0  0  0  0  0  0  0  0  0  0
   48.4602    5.2701   22.2272 C   0  0  0  0  0  0  0  0  0  0  0  0
   47.4221    7.6557   23.3300 C   0  0  0  0  0  0  0  0  0  0  0  0
   47.8281    6.6092   24.1587 C   0  0  0  0  0  0  0  0  0  0  0  0
   48.3458    5.4258   23.6115 C   0  0  0  0  0  0  0  0  0  0  0  0
   47.3591    4.1131   18.5254 H   0  0  0  0  0  0  0  0  0  0  0  0
   49.0680    7.1687   19.1484 H   0  0  0  0  0  0  0  0  0  0  0  0
   49.5458    5.4161   20.9485 H   0  0  0  0  0  0  0  0  0  0  0  0
   46.5872    4.9610   22.7685 H   0  0  0  0  0  0  0  0  0  0  0  0
   49.4300    8.0956   21.8416 H   0  0  0  0  0  0  0  0  0  0  0  0
   46.9411    8.2105   19.4818 H   0  0  0  0  0  0  0  0  0  0  0  0
   48.7037    4.7658   19.6943 H   0  0  0  0  0  0  0  0  0  0  0  0
   48.4215    5.7609   17.5171 H   0  0  0  0  0  0  0  0  0  0  0  0
   46.6708    5.5824   17.7243 H   0  0  0  0  0  0  0  0  0  0  0  0
   47.8599    1.6448   16.7622 H   0  0  0  0  0  0  0  0  0  0  0  0
   46.7517    6.9844   19.7366 H   0  0  0  0  0  0  0  0  0  0  0  0
   49.8241    6.8598   19.6008 H   0  0  0  0  0  0  0  0  0  0  0  0
   48.7603    7.9243   18.6786 H   0  0  0  0  0  0  0  0  0  0  0  0
   50.0318    8.8077   20.9138 H   0  0  0  0  0  0  0  0  0  0  0  0
   48.3309    9.3069   20.6364 H   0  0  0  0  0  0  0  0  0  0  0  0
   46.6555    4.7947   22.0885 H   0  0  0  0  0  0  0  0  0  0  0  0
   49.2766    8.7562   23.6421 H   0  0  0  0  0  0  0  0  0  0  0  0
   48.2905    7.1751   25.2902 H   0  0  0  0  0  0  0  0  0  0  0  0
   46.9904    5.2097   24.5211 H   0  0  0  0  0  0  0  0  0  0  0  0
   49.4342    6.3784   18.4151 H   0  0  0  0  0  0  0  0  0  0  0  0
   49.9361    3.9948   18.5472 H   0  0  0  0  0  0  0  0  0  0  0  0
   48.5075    3.8237   19.5479 H   0  0  0  0  0  0  0  0  0  0  0  0
   46.8818    4.3706   15.6609 H   0  0  0  0  0  0  0  0  0  0  0  0
   47.0758    5.9638   19.5420 H   0  0  0  0  0  0  0  0  0  0  0  0
   47.5502    8.2053   18.7400 H   0  0  0  0  0  0  0  0  0  0  0  0
   48.9944    8.3438   19.7464 H   0  0  0  0  0  0  0  0  0  0  0  0
   46.0942    8.4154   20.6936 H   0  0  0  0  0  0  0  0  0  0  0  0
   47.4608    9.4948   21.1272 H   0  0  0  0  0  0  0  0  0  0  0  0
   48.8597    4.3503   21.8152 H   0  0  0  0  0  0  0  0  0  0  0  0
   47.0191    8.5701   23.7527 H   0  0  0  0  0  0  0  0  0  0  0  0
   47.7432    6.7101   25.2377 H   0  0  0  0  0  0  0  0  0  0  0  0
   48.6588    4.6205   24.2715 H   0  0  0  0  0  0  0  0  0  0  0  0
  1  2  1  0
  2  3  1  0
  3  4  1  0
  4  5  1  0
  5  6  1  0
  2  7  2  0
  4  8  1  0
  3  9  1  0
  5 10  2  0
 12 11  1  0
 15 11  1  0
 12 13  1  0
 13 14  3  0
 16 15  1  0
 19 15  1  0
 16 17  1  0
 17 18  1  0
 18 19  2  0
 18 21  1  0
 20 19  1  0
 23 20  2  0
 21 22  2  0
 22 23  1  0
 25 24  1  0
 28 24  1  0
 25 26  1  0
 26 27  3  0
 29 28  1  0
 32 28  1  0
 29 30  1  0
 30 31  1  0
 31 32  2  0
 31 34  1  0
 33 32  1  0
 36 33  2  0
 34 35  2  0
 35 36  1  0
  1 37  1  0
  3 38  1  6
  4 39  1  6
  6 40  1  0
  8 41  1  0
  9 42  1  0
 11 43  1  0
 12 44  1  0
 12 45  1  0
 14 46  1  0
 15 47  1  1
 16 48  1  0
 16 49  1  0
 17 50  1  0
 17 51  1  0
 20 52  1  0
 21 53  1  0
 22 54  1  0
 23 55  1  0
 24 56  1  0
 25 57  1  0
 25 58  1  0
 27 59  1  0
 28 60  1  1
 29 61  1  0
 29 62  1  0
 30 63  1  0
 30 64  1  0
 33 65  1  0
 34 66  1  0
 35 67  1  0
 36 68  1  0
M  END
> <Uni-Dock RESULT> 
ENERGY=   -5.931  LOWER_BOUND=    0.000  UPPER_BOUND=    0.000
INTER + INTRA:          -5.931
INTER:                  -5.931
INTRA:                   0.000
UNBOUND:                 0.000

$$$$

     RDKit          3D

 68 69  0  0  0  0  0  0  0  0999 V2000
   45.0586    8.0673   11.2672 O   0  0  0  0  0  0  0  0  0  0  0  0
   43.9567    7.3201   11.4600 C   0  0  0  0  0  0  0  0  0  0  0  0
   44.2205    5.9961   12.1647 C   0  0  2  0  0  0  0  0  0  0  0  0
   45.3105    5.1757   11.4770 C   0  0  2  0  0  0  0  0  0  0  0  0
   44.8558    4.6976   10.1006 C   0  0  0  0  0  0  0  0  0  0  0  0
   44.7294    5.6929    9.1995 O   0  0  0  0  0  0  0  0  0  0  0  0
   42.8519    7.7411   11.1496 O   0  0  0  0  0  0  0  0  0  0  0  0
   45.6351    4.0507   12.3107 O   0  0  0  0  0  0  0  0  0  0  0  0
   43.0320    5.2028   12.2979 O   0  0  0  0  0  0  0  0  0  0  0  0
   44.6337    3.5435    9.7676 O   0  0  0  0  0  0  0  0  0  0  0  0
   44.6780    7.4391   11.1351 N   0  0  0  0  0  0  0  0  0  0  0  0
   44.2790    8.6118   11.9010 C   0  0  0  0  0  0  0  0  0  0  0  0
   45.0245    9.7834   11.4226 C   0  0  0  0  0  0  0  0  0  0  0  0
   45.6352   10.7411   11.0315 C   0  0  0  0  0  0  0  0  0  0  0  0
   43.9588    6.2383   11.5426 C   0  0  2  0  0  0  0  0  0  0  0  0
   44.3320    5.7240   12.9521 C   0  0  0  0  0  0  0  0  0  0  0  0
   44.0740    4.2105   12.9405 C   0  0  0  0  0  0  0  0  0  0  0  0
   44.3764    3.8816   11.5125 C   0  0  0  0  0  0  0  0  0  0  0  0
   44.3196    5.0319   10.7138 C   0  0  0  0  0  0  0  0  0  0  0  0
   44.5231    4.9532    9.3443 C   0  0  0  0  0  0  0  0  0  0  0  0
   44.6392    2.6382   10.9623 C   0  0  0  0  0  0  0  0  0  0  0  0
   44.8600    2.5565    9.5858 C   0  0  0  0  0  0  0  0  0  0  0  0
   44.8025    3.7058    8.7821 C   0  0  0  0  0  0  0  0  0  0  0  0
   45.3978    6.9417   12.4077 N   0  0  0  0  0  0  0  0  0  0  0  0
   45.8894    8.1475   11.7454 C   0  0  0  0  0  0  0  0  0  0  0  0
   45.0111    9.2984   12.0040 C   0  0  0  0  0  0  0  0  0  0  0  0
   44.2928   10.2375   12.2163 C   0  0  0  0  0  0  0  0  0  0  0  0
   44.2682    6.3325   11.7109 C   0  0  2  0  0  0  0  0  0  0  0  0
   43.3393    5.5973   12.7062 C   0  0  0  0  0  0  0  0  0  0  0  0
   42.6049    4.5283   11.8876 C   0  0  0  0  0  0  0  0  0  0  0  0
   43.6604    4.1722   10.8876 C   0  0  0  0  0  0  0  0  0  0  0  0
   44.6264    5.1870   10.7969 C   0  0  0  0  0  0  0  0  0  0  0  0
   45.6859    5.0646    9.9106 C   0  0  0  0  0  0  0  0  0  0  0  0
   43.7284    3.0354   10.0986 C   0  0  0  0  0  0  0  0  0  0  0  0
   44.7981    2.9090    9.2117 C   0  0  0  0  0  0  0  0  0  0  0  0
   45.7713    3.9151    9.1201 C   0  0  0  0  0  0  0  0  0  0  0  0
   44.7333    8.8761   10.8162 H   0  0  0  0  0  0  0  0  0  0  0  0
   44.5301    6.2352   13.1889 H   0  0  0  0  0  0  0  0  0  0  0  0
   46.2371    5.7447   11.3488 H   0  0  0  0  0  0  0  0  0  0  0  0
   44.4483    5.2279    8.3814 H   0  0  0  0  0  0  0  0  0  0  0  0
   44.8209    3.5079   12.3399 H   0  0  0  0  0  0  0  0  0  0  0  0
   42.2946    5.8284   12.4420 H   0  0  0  0  0  0  0  0  0  0  0  0
   45.6793    7.2885   11.2461 H   0  0  0  0  0  0  0  0  0  0  0  0
   44.4804    8.4735   12.9690 H   0  0  0  0  0  0  0  0  0  0  0  0
   43.2051    8.7956   11.7819 H   0  0  0  0  0  0  0  0  0  0  0  0
   46.1765   11.5871   10.6762 H   0  0  0  0  0  0  0  0  0  0  0  0
   42.8737    6.3852   11.4628 H   0  0  0  0  0  0  0  0  0  0  0  0
   45.3996    5.8971   13.1526 H   0  0  0  0  0  0  0  0  0  0  0  0
   43.7704    6.2291   13.7451 H   0  0  0  0  0  0  0  0  0  0  0  0
   44.7327    3.6882   13.6398 H   0  0  0  0  0  0  0  0  0  0  0  0
   43.0273    3.9835   13.1673 H   0  0  0  0  0  0  0  0  0  0  0  0
   44.4662    5.8423    8.7233 H   0  0  0  0  0  0  0  0  0  0  0  0
   44.6729    1.7466   11.5799 H   0  0  0  0  0  0  0  0  0  0  0  0
   45.0726    1.5928    9.1294 H   0  0  0  0  0  0  0  0  0  0  0  0
   44.9706    3.6234    7.7112 H   0  0  0  0  0  0  0  0  0  0  0  0
   45.1262    7.1907   13.3568 H   0  0  0  0  0  0  0  0  0  0  0  0
   46.8855    8.3685   12.1450 H   0  0  0  0  0  0  0  0  0  0  0  0
   46.0179    7.9952   10.6687 H   0  0  0  0  0  0  0  0  0  0  0  0
   43.6564   11.0716   12.4034 H   0  0  0  0  0  0  0  0  0  0  0  0
   43.6673    7.0624   11.1525 H   0  0  0  0  0  0  0  0  0  0  0  0
   42.6478    6.2799   13.2119 H   0  0  0  0  0  0  0  0  0  0  0  0
   43.9300    5.0977   13.4888 H   0  0  0  0  0  0  0  0  0  0  0  0
   41.7279    4.9443   11.3815 H   0  0  0  0  0  0  0  0  0  0  0  0
   42.3133    3.6786   12.5111 H   0  0  0  0  0  0  0  0  0  0  0  0
   46.4425    5.8369    9.8300 H   0  0  0  0  0  0  0  0  0  0  0  0
   42.9739    2.2587   10.1677 H   0  0  0  0  0  0  0  0  0  0  0  0
   44.8796    2.0239    8.5858 H   0  0  0  0  0  0  0  0  0  0  0  0
   46.5992    3.8002    8.4249 H   0  0  0  0  0  0  0  0  0  0  0  0
  1  2  1  0
  2  3  1  0
  3  4  1  0
  4  5  1  0
  5  6  1  0
  2  7  2  0
  4  8  1  0
  3  9  1  0
  5 10  2  0
 12 11  1  0
 15 11  1  0
 12 13  1  0
 13 14  3  0
 16 15  1  0
 19 15  1  0
 16 17  1  0
 17 18  1  0
 18 19  2  0
 18 21  1  0
 20 19  1  0
 23 20  2  0
 21 22  2  0
 22 23  1  0
 25 24  1  0
 28 24  1  0
 25 26  1  0
 26 27  3  0
 29 28  1  0
 32 28  1  0
 29 30  1  0
 30 31  1  0
 31 32  2  0
 31 34  1  0
 33 32  1  0
 36 33  2  0
 34 35  2  0
 35 36  1  0
  1 37  1  0
  3 38  1  6
  4 39  1  6
  6 40  1  0
  8 41  1  0
  9 42  1  0
 11 43  1  0
 12 44  1  0
 12 45  1  0
 14 46  1  0
 15 47  1  1
 16 48  1  0
 16 49  1  0
 17 50  1  0
 17 51  1  0
 20 52  1  0
 21 53  1  0
 22 54  1  0
 23 55  1  0
 24 56  1  0
 25 57  1  0
 25 58  1  0
 27 59  1  0
 28 60  1  1
 29 61  1  0
 29 62  1  0
 30 63  1  0
 30 64  1  0
 33 65  1  0
 34 66  1  0
 35 67  1  0
 36 68  1  0
M  END
> <Uni-Dock RESULT> 
ENERGY=   -5.708  LOWER_BOUND=    9.065  UPPER_BOUND=   11.201
INTER + INTRA:          -5.708
INTER:                  -5.708
INTRA:                   0.000
UNBOUND:                 0.000

$$$$

     RDKit          3D

 68 69  0  0  0  0  0  0  0  0999 V2000
   47.8632    7.4231   21.4442 O   0  0  0  0  0  0  0  0  0  0  0  0
   47.7572    7.6182   20.1174 C   0  0  0  0  0  0  0  0  0  0  0  0
   48.7478    8.6308   19.5582 C   0  0  2  0  0  0  0  0  0  0  0  0
   48.7013    9.9649   20.3014 C   0  0  2  0  0  0  0  0  0  0  0  0
   47.3744   10.6817   20.0659 C   0  0  0  0  0  0  0  0  0  0  0  0
   46.3218   10.0707   20.6467 O   0  0  0  0  0  0  0  0  0  0  0  0
   46.9724    6.9620   19.4483 O   0  0  0  0  0  0  0  0  0  0  0  0
   49.7937   10.7821   19.8491 O   0  0  0  0  0  0  0  0  0  0  0  0
   48.5635    8.8553   18.1529 O   0  0  0  0  0  0  0  0  0  0  0  0
   47.2085   11.7211   19.4461 O   0  0  0  0  0  0  0  0  0  0  0  0
   47.7176    7.8800   20.8724 N   0  0  0  0  0  0  0  0  0  0  0  0
   48.0328    6.4582   20.8558 C   0  0  0  0  0  0  0  0  0  0  0  0
   47.6631    5.8618   22.1462 C   0  0  0  0  0  0  0  0  0  0  0  0
   47.3613    5.3748   23.2020 C   0  0  0  0  0  0  0  0  0  0  0  0
   48.0391    8.5350   19.6103 C   0  0  2  0  0  0  0  0  0  0  0  0
   49.5540    8.6438   19.3207 C   0  0  0  0  0  0  0  0  0  0  0  0
   49.7332    9.8761   18.4226 C   0  0  0  0  0  0  0  0  0  0  0  0
   48.6218   10.7495   18.9134 C   0  0  0  0  0  0  0  0  0  0  0  0
   47.6589    9.9937   19.5958 C   0  0  0  0  0  0  0  0  0  0  0  0
   46.5146   10.5940   20.0993 C   0  0  0  0  0  0  0  0  0  0  0  0
   48.4629   12.1121   18.7245 C   0  0  0  0  0  0  0  0  0  0  0  0
   47.3195   12.7236   19.2431 C   0  0  0  0  0  0  0  0  0  0  0  0
   46.3520   11.9700   19.9259 C   0  0  0  0  0  0  0  0  0  0  0  0
   49.2387    8.1432   20.9222 N   0  0  0  0  0  0  0  0  0  0  0  0
   48.5987    7.4883   22.0607 C   0  0  0  0  0  0  0  0  0  0  0  0
   48.2757    6.0852   21.7612 C   0  0  0  0  0  0  0  0  0  0  0  0
   48.0127    4.9392   21.5153 C   0  0  0  0  0  0  0  0  0  0  0  0
   48.2919    8.5064   19.8714 C   0  0  2  0  0  0  0  0  0  0  0  0
   48.9750    8.4835   18.4833 C   0  0  0  0  0  0  0  0  0  0  0  0
   48.1576    9.4293   17.5947 C   0  0  0  0  0  0  0  0  0  0  0  0
   47.7271   10.4508   18.6007 C   0  0  0  0  0  0  0  0  0  0  0  0
   47.8222    9.9396   19.9049 C   0  0  0  0  0  0  0  0  0  0  0  0
   47.4512   10.7205   20.9892 C   0  0  0  0  0  0  0  0  0  0  0  0
   47.2572   11.7312   18.3575 C   0  0  0  0  0  0  0  0  0  0  0  0
   46.8905   12.5194   19.4488 C   0  0  0  0  0  0  0  0  0  0  0  0
   46.9891   12.0188   20.7555 C   0  0  0  0  0  0  0  0  0  0  0  0
   47.1766    6.7530   21.6514 H   0  0  0  0  0  0  0  0  0  0  0  0
   49.7463    8.1888   19.6564 H   0  0  0  0  0  0  0  0  0  0  0  0
   48.8324    9.8411   21.3812 H   0  0  0  0  0  0  0  0  0  0  0  0
   45.5635   10.6506   20.4160 H   0  0  0  0  0  0  0  0  0  0  0  0
   49.6113   10.9561   18.9031 H   0  0  0  0  0  0  0  0  0  0  0  0
   48.2913    7.9989   17.7676 H   0  0  0  0  0  0  0  0  0  0  0  0
   48.2310    8.3303   21.6282 H   0  0  0  0  0  0  0  0  0  0  0  0
   49.1014    6.2923   20.6802 H   0  0  0  0  0  0  0  0  0  0  0  0
   47.4780    5.9558   20.0552 H   0  0  0  0  0  0  0  0  0  0  0  0
   47.0864    4.9485   24.1389 H   0  0  0  0  0  0  0  0  0  0  0  0
   47.5226    8.0476   18.7730 H   0  0  0  0  0  0  0  0  0  0  0  0
   50.1117    8.8053   20.2549 H   0  0  0  0  0  0  0  0  0  0  0  0
   49.9585    7.7374   18.8579 H   0  0  0  0  0  0  0  0  0  0  0  0
   50.7176   10.3316   18.5623 H   0  0  0  0  0  0  0  0  0  0  0  0
   49.5799    9.6257   17.3680 H   0  0  0  0  0  0  0  0  0  0  0  0
   45.7620   10.0063   20.6167 H   0  0  0  0  0  0  0  0  0  0  0  0
   49.2039   12.6948   18.1871 H   0  0  0  0  0  0  0  0  0  0  0  0
   47.1726   13.7929   19.1123 H   0  0  0  0  0  0  0  0  0  0  0  0
   45.4646   12.4608   20.3178 H   0  0  0  0  0  0  0  0  0  0  0  0
   49.9444    7.5111   20.5496 H   0  0  0  0  0  0  0  0  0  0  0  0
   49.2999    7.5159   22.9024 H   0  0  0  0  0  0  0  0  0  0  0  0
   47.7043    8.0280   22.3890 H   0  0  0  0  0  0  0  0  0  0  0  0
   47.7784    3.9224   21.2984 H   0  0  0  0  0  0  0  0  0  0  0  0
   47.4175    7.8432   19.8369 H   0  0  0  0  0  0  0  0  0  0  0  0
   49.0364    7.4725   18.0664 H   0  0  0  0  0  0  0  0  0  0  0  0
   50.0041    8.8671   18.5530 H   0  0  0  0  0  0  0  0  0  0  0  0
   47.2844    8.9241   17.1697 H   0  0  0  0  0  0  0  0  0  0  0  0
   48.7712    9.8578   16.7974 H   0  0  0  0  0  0  0  0  0  0  0  0
   47.5213   10.3431   22.0031 H   0  0  0  0  0  0  0  0  0  0  0  0
   47.1784   12.1172   17.3465 H   0  0  0  0  0  0  0  0  0  0  0  0
   46.5251   13.5304   19.2869 H   0  0  0  0  0  0  0  0  0  0  0  0
   46.7006   12.6467   21.5948 H   0  0  0  0  0  0  0  0  0  0  0  0
  1  2  1  0
  2  3  1  0
  3  4  1  0
  4  5  1  0
  5  6  1  0
  2  7  2  0
  4  8  1  0
  3  9  1  0
  5 10  2  0
 12 11  1  0
 15 11  1  0
 12 13  1  0
 13 14  3  0
 16 15  1  0
 19 15  1  0
 16 17  1  0
 17 18  1  0
 18 19  2  0
 18 21  1  0
 20 19  1  0
 23 20  2  0
 21 22  2  0
 22 23  1  0
 25 24  1  0
 28 24  1  0
 25 26  1  0
 26 27  3  0
 29 28  1  0
 32 28  1  0
 29 30  1  0
 30 31  1  0
 31 32  2  0
 31 34  1  0
 33 32  1  0
 36 33  2  0
 34 35  2  0
 35 36  1  0
  1 37  1  0
  3 38  1  6
  4 39  1  6
  6 40  1  0
  8 41  1  0
  9 42  1  0
 11 43  1  0
 12 44  1  0
 12 45  1  0
 14 46  1  0
 15 47  1  1
 16 48  1  0
 16 49  1  0
 17 50  1  0
 17 51  1  0
 20 52  1  0
 21 53  1  0
 22 54  1  0
 23 55  1  0
 24 56  1  0
 25 57  1  0
 25 58  1  0
 27 59  1  0
 28 60  1  1
 29 61  1  0
 29 62  1  0
 30 63  1  0
 30 64  1  0
 33 65  1  0
 34 66  1  0
 35 67  1  0
 36 68  1  0
M  END
> <Uni-Dock RESULT> 
ENERGY=   -5.575  LOWER_BOUND=    2.511  UPPER_BOUND=    4.679
INTER + INTRA:          -5.575
INTER:                  -5.575
INTRA:                   0.000
UNBOUND:                 0.000

$$$$

     RDKit          3D

 68 69  0  0  0  0  0  0  0  0999 V2000
   48.0914   10.6294   16.7870 O   0  0  0  0  0  0  0  0  0  0  0  0
   48.1577    9.2886   16.8735 C   0  0  0  0  0  0  0  0  0  0  0  0
   49.2714    8.6676   16.0409 C   0  0  2  0  0  0  0  0  0  0  0  0
   49.2226    9.1085   14.5789 C   0  0  2  0  0  0  0  0  0  0  0  0
   47.9826    8.5597   13.8782 C   0  0  0  0  0  0  0  0  0  0  0  0
   46.8308    9.1111   14.3117 O   0  0  0  0  0  0  0  0  0  0  0  0
   47.4179    8.6719   17.6262 O   0  0  0  0  0  0  0  0  0  0  0  0
   50.4119    8.6446   13.9182 O   0  0  0  0  0  0  0  0  0  0  0  0
   49.2716    7.2344   16.1124 O   0  0  0  0  0  0  0  0  0  0  0  0
   47.9595    7.7235   12.9882 O   0  0  0  0  0  0  0  0  0  0  0  0
   48.0451    9.9620   16.4565 N   0  0  0  0  0  0  0  0  0  0  0  0
   48.2674   10.2789   17.8604 C   0  0  0  0  0  0  0  0  0  0  0  0
   47.7082   11.6047   18.1555 C   0  0  0  0  0  0  0  0  0  0  0  0
   47.2514   12.6894   18.3959 C   0  0  0  0  0  0  0  0  0  0  0  0
   48.5569    8.6453   16.0964 C   0  0  2  0  0  0  0  0  0  0  0  0
   50.0994    8.5398   16.1092 C   0  0  0  0  0  0  0  0  0  0  0  0
   50.4641    7.4391   15.1028 C   0  0  0  0  0  0  0  0  0  0  0  0
   49.3607    7.5908   14.1036 C   0  0  0  0  0  0  0  0  0  0  0  0
   48.2763    8.2821   14.6605 C   0  0  0  0  0  0  0  0  0  0  0  0
   47.1211    8.4979   13.9240 C   0  0  0  0  0  0  0  0  0  0  0  0
   49.3139    7.1070   12.8069 C   0  0  0  0  0  0  0  0  0  0  0  0
   48.1585    7.3353   12.0563 C   0  0  0  0  0  0  0  0  0  0  0  0
   47.0696    8.0259   12.6107 C   0  0  0  0  0  0  0  0  0  0  0  0
   49.5630   10.1549   16.2468 N   0  0  0  0  0  0  0  0  0  0  0  0
   48.7505   11.3100   16.6208 C   0  0  0  0  0  0  0  0  0  0  0  0
   48.3757   11.2655   18.0422 C   0  0  0  0  0  0  0  0  0  0  0  0
   48.0705   11.2278   19.2034 C   0  0  0  0  0  0  0  0  0  0  0  0
   48.7743    8.9374   16.0787 C   0  0  2  0  0  0  0  0  0  0  0  0
   49.6157    7.6849   16.4210 C   0  0  0  0  0  0  0  0  0  0  0  0
   48.9733    6.5222   15.6545 C   0  0  0  0  0  0  0  0  0  0  0  0
   48.4924    7.2320   14.4275 C   0  0  0  0  0  0  0  0  0  0  0  0
   48.3975    8.6144   14.6540 C   0  0  0  0  0  0  0  0  0  0  0  0
   47.9507    9.4573   13.6476 C   0  0  0  0  0  0  0  0  0  0  0  0
   48.1387    6.6719   13.2107 C   0  0  0  0  0  0  0  0  0  0  0  0
   47.6957    7.5207   12.1958 C   0  0  0  0  0  0  0  0  0  0  0  0
   47.6047    8.9038   12.4117 C   0  0  0  0  0  0  0  0  0  0  0  0
   47.3430   10.8783   17.3714 H   0  0  0  0  0  0  0  0  0  0  0  0
   50.2204    8.9839   16.4897 H   0  0  0  0  0  0  0  0  0  0  0  0
   49.2153   10.1984   14.4760 H   0  0  0  0  0  0  0  0  0  0  0  0
   46.1446    8.6693   13.7654 H   0  0  0  0  0  0  0  0  0  0  0  0
   50.3555    7.6676   13.9417 H   0  0  0  0  0  0  0  0  0  0  0  0
   48.9927    7.0010   17.0199 H   0  0  0  0  0  0  0  0  0  0  0  0
   48.4923   10.6697   15.8761 H   0  0  0  0  0  0  0  0  0  0  0  0
   49.3364   10.2822   18.1003 H   0  0  0  0  0  0  0  0  0  0  0  0
   47.7812    9.5331   18.4996 H   0  0  0  0  0  0  0  0  0  0  0  0
   46.8395   13.6498   18.6032 H   0  0  0  0  0  0  0  0  0  0  0  0
   48.1139    7.8658   16.7301 H   0  0  0  0  0  0  0  0  0  0  0  0
   50.5506    9.4856   15.7748 H   0  0  0  0  0  0  0  0  0  0  0  0
   50.4970    8.3298   17.1078 H   0  0  0  0  0  0  0  0  0  0  0  0
   51.4520    7.6096   14.6660 H   0  0  0  0  0  0  0  0  0  0  0  0
   50.4222    6.4476   15.5649 H   0  0  0  0  0  0  0  0  0  0  0  0
   46.2756    9.0221   14.3596 H   0  0  0  0  0  0  0  0  0  0  0  0
   50.1500    6.5629   12.3799 H   0  0  0  0  0  0  0  0  0  0  0  0
   48.0978    6.9697   11.0342 H   0  0  0  0  0  0  0  0  0  0  0  0
   46.1753    8.1895   12.0147 H   0  0  0  0  0  0  0  0  0  0  0  0
   50.2660   10.0154   16.9699 H   0  0  0  0  0  0  0  0  0  0  0  0
   49.3462   12.2123   16.4423 H   0  0  0  0  0  0  0  0  0  0  0  0
   47.8599   11.4008   15.9902 H   0  0  0  0  0  0  0  0  0  0  0  0
   47.7986   11.1956   20.2334 H   0  0  0  0  0  0  0  0  0  0  0  0
   47.8693    8.9259   16.7003 H   0  0  0  0  0  0  0  0  0  0  0  0
   49.6610    7.4961   17.4990 H   0  0  0  0  0  0  0  0  0  0  0  0
   50.6517    7.8081   16.0709 H   0  0  0  0  0  0  0  0  0  0  0  0
   48.1264    6.0996   16.2046 H   0  0  0  0  0  0  0  0  0  0  0  0
   49.7043    5.7409   15.4284 H   0  0  0  0  0  0  0  0  0  0  0  0
   47.8744   10.5274   13.8041 H   0  0  0  0  0  0  0  0  0  0  0  0
   48.2065    5.6017   13.0449 H   0  0  0  0  0  0  0  0  0  0  0  0
   47.4185    7.1084   11.2289 H   0  0  0  0  0  0  0  0  0  0  0  0
   47.2590    9.5513   11.6097 H   0  0  0  0  0  0  0  0  0  0  0  0
  1  2  1  0
  2  3  1  0
  3  4  1  0
  4  5  1  0
  5  6  1  0
  2  7  2  0
  4  8  1  0
  3  9  1  0
  5 10  2  0
 12 11  1  0
 15 11  1  0
 12 13  1  0
 13 14  3  0
 16 15  1  0
 19 15  1  0
 16 17  1  0
 17 18  1  0
 18 19  2  0
 18 21  1  0
 20 19  1  0
 23 20  2  0
 21 22  2  0
 22 23  1  0
 25 24  1  0
 28 24  1  0
 25 26  1  0
 26 27  3  0
 29 28  1  0
 32 28  1  0
 29 30  1  0
 30 31  1  0
 31 32  2  0
 31 34  1  0
 33 32  1  0
 36 33  2  0
 34 35  2  0
 35 36  1  0
  1 37  1  0
  3 38  1  6
  4 39  1  6
  6 40  1  0
  8 41  1  0
  9 42  1  0
 11 43  1  0
 12 44  1  0
 12 45  1  0
 14 46  1  0
 15 47  1  1
 16 48  1  0
 16 49  1  0
 17 50  1  0
 17 51  1  0
 20 52  1  0
 21 53  1  0
 22 54  1  0
 23 55  1  0
 24 56  1  0
 25 57  1  0
 25 58  1  0
 27 59  1  0
 28 60  1  1
 29 61  1  0
 29 62  1  0
 30 63  1  0
 30 64  1  0
 33 65  1  0
 34 66  1  0
 35 67  1  0
 36 68  1  0
M  END
> <Uni-Dock RESULT> 
ENERGY=   -5.443  LOWER_BOUND=    4.869  UPPER_BOUND=    7.802
INTER + INTRA:          -5.443
INTER:                  -5.443
INTRA:                   0.000
UNBOUND:                 0.000

$$$$

     RDKit          3D

 68 69  0  0  0  0  0  0  0  0999 V2000
   49.0182    4.2349   18.8176 O   0  0  0  0  0  0  0  0  0  0  0  0
   48.4662    4.1529   20.0416 C   0  0  0  0  0  0  0  0  0  0  0  0
   48.2938    5.4974   20.7357 C   0  0  2  0  0  0  0  0  0  0  0  0
   49.5933    6.2992   20.7865 C   0  0  2  0  0  0  0  0  0  0  0  0
   50.6226    5.6251   21.6899 C   0  0  0  0  0  0  0  0  0  0  0  0
   51.0995    4.4663   21.1916 O   0  0  0  0  0  0  0  0  0  0  0  0
   48.0822    3.0806   20.4854 O   0  0  0  0  0  0  0  0  0  0  0  0
   49.3001    7.6211   21.2688 O   0  0  0  0  0  0  0  0  0  0  0  0
   47.7584    5.3629   22.0603 O   0  0  0  0  0  0  0  0  0  0  0  0
   51.0399    6.0456   22.7581 O   0  0  0  0  0  0  0  0  0  0  0  0
   49.0741    4.3361   19.5548 N   0  0  0  0  0  0  0  0  0  0  0  0
   47.9789    3.7606   18.7865 C   0  0  0  0  0  0  0  0  0  0  0  0
   48.5000    3.2211   17.5237 C   0  0  0  0  0  0  0  0  0  0  0  0
   48.9266    2.7809   16.4907 C   0  0  0  0  0  0  0  0  0  0  0  0
   48.6318    4.8731   20.8360 C   0  0  2  0  0  0  0  0  0  0  0  0
   47.7484    6.1370   20.7223 C   0  0  0  0  0  0  0  0  0  0  0  0
   47.9560    6.9258   22.0231 C   0  0  0  0  0  0  0  0  0  0  0  0
   49.3755    6.5773   22.3433 C   0  0  0  0  0  0  0  0  0  0  0  0
   49.7678    5.4150   21.6656 C   0  0  0  0  0  0  0  0  0  0  0  0
   51.0347    4.8818   21.8502 C   0  0  0  0  0  0  0  0  0  0  0  0
   50.2369    7.2276   23.2110 C   0  0  0  0  0  0  0  0  0  0  0  0
   51.5189    6.7029   23.3883 C   0  0  0  0  0  0  0  0  0  0  0  0
   51.9153    5.5382   22.7127 C   0  0  0  0  0  0  0  0  0  0  0  0
   48.4752    5.7231   19.2339 N   0  0  0  0  0  0  0  0  0  0  0  0
   49.0160    4.9185   18.1409 C   0  0  0  0  0  0  0  0  0  0  0  0
   48.1108    3.8146   17.7877 C   0  0  0  0  0  0  0  0  0  0  0  0
   47.3702    2.9136   17.5002 C   0  0  0  0  0  0  0  0  0  0  0  0
   48.6253    5.0824   20.5376 C   0  0  2  0  0  0  0  0  0  0  0  0
   47.4848    5.5062   21.4935 C   0  0  0  0  0  0  0  0  0  0  0  0
   48.0342    5.3232   22.9136 C   0  0  0  0  0  0  0  0  0  0  0  0
   49.4779    5.6541   22.6964 C   0  0  0  0  0  0  0  0  0  0  0  0
   49.8183    5.5411   21.3390 C   0  0  0  0  0  0  0  0  0  0  0  0
   51.1182    5.7864   20.9229 C   0  0  0  0  0  0  0  0  0  0  0  0
   50.4189    6.0005   23.6524 C   0  0  0  0  0  0  0  0  0  0  0  0
   51.7252    6.2542   23.2329 C   0  0  0  0  0  0  0  0  0  0  0  0
   52.0719    6.1504   21.8777 C   0  0  0  0  0  0  0  0  0  0  0  0
   49.0585    3.3064   18.5017 H   0  0  0  0  0  0  0  0  0  0  0  0
   47.5386    6.0550   20.1692 H   0  0  0  0  0  0  0  0  0  0  0  0
   50.0417    6.4226   19.7954 H   0  0  0  0  0  0  0  0  0  0  0  0
   51.7449    4.1724   21.8710 H   0  0  0  0  0  0  0  0  0  0  0  0
   48.9852    7.4966   22.1873 H   0  0  0  0  0  0  0  0  0  0  0  0
   47.1332    4.6117   22.0327 H   0  0  0  0  0  0  0  0  0  0  0  0
   49.5149    5.0763   19.0112 H   0  0  0  0  0  0  0  0  0  0  0  0
   47.2144    4.5131   18.5635 H   0  0  0  0  0  0  0  0  0  0  0  0
   47.5012    2.9529   19.3529 H   0  0  0  0  0  0  0  0  0  0  0  0
   49.3127    2.3879   15.5787 H   0  0  0  0  0  0  0  0  0  0  0  0
   48.1236    4.1021   21.4298 H   0  0  0  0  0  0  0  0  0  0  0  0
   48.0776    6.7594   19.8772 H   0  0  0  0  0  0  0  0  0  0  0  0
   46.6934    5.8972   20.5527 H   0  0  0  0  0  0  0  0  0  0  0  0
   47.8126    7.9985   21.8662 H   0  0  0  0  0  0  0  0  0  0  0  0
   47.2908    6.5684   22.8157 H   0  0  0  0  0  0  0  0  0  0  0  0
   51.3345    3.9739   21.3353 H   0  0  0  0  0  0  0  0  0  0  0  0
   49.9288    8.1216   23.7432 H   0  0  0  0  0  0  0  0  0  0  0  0
   52.2161    7.1966   24.0607 H   0  0  0  0  0  0  0  0  0  0  0  0
   52.9149    5.1395   22.8670 H   0  0  0  0  0  0  0  0  0  0  0  0
   47.4900    5.8941   19.0431 H   0  0  0  0  0  0  0  0  0  0  0  0
   49.1321    5.5711   17.2682 H   0  0  0  0  0  0  0  0  0  0  0  0
   50.0158    4.5374   18.3738 H   0  0  0  0  0  0  0  0  0  0  0  0
   46.7144    2.1134   17.2442 H   0  0  0  0  0  0  0  0  0  0  0  0
   48.6347    3.9862   20.4759 H   0  0  0  0  0  0  0  0  0  0  0  0
   46.5672    4.9318   21.3267 H   0  0  0  0  0  0  0  0  0  0  0  0
   47.2326    6.5673   21.3473 H   0  0  0  0  0  0  0  0  0  0  0  0
   47.9294    4.2876   23.2529 H   0  0  0  0  0  0  0  0  0  0  0  0
   47.5492    6.0027   23.6199 H   0  0  0  0  0  0  0  0  0  0  0  0
   51.3978    5.7071   19.8785 H   0  0  0  0  0  0  0  0  0  0  0  0
   50.1510    6.0780   24.7010 H   0  0  0  0  0  0  0  0  0  0  0  0
   52.4819    6.5348   23.9612 H   0  0  0  0  0  0  0  0  0  0  0  0
   53.0941    6.3528   21.5673 H   0  0  0  0  0  0  0  0  0  0  0  0
  1  2  1  0
  2  3  1  0
  3  4  1  0
  4  5  1  0
  5  6  1  0
  2  7  2  0
  4  8  1  0
  3  9  1  0
  5 10  2  0
 12 11  1  0
 15 11  1  0
 12 13  1  0
 13 14  3  0
 16 15  1  0
 19 15  1  0
 16 17  1  0
 17 18  1  0
 18 19  2  0
 18 21  1  0
 20 19  1  0
 23 20  2  0
 21 22  2  0
 22 23  1  0
 25 24  1  0
 28 24  1  0
 25 26  1  0
 26 27  3  0
 29 28  1  0
 32 28  1  0
 29 30  1  0
 30 31  1  0
 31 32  2  0
 31 34  1  0
 33 32  1  0
 36 33  2  0
 34 35  2  0
 35 36  1  0
  1 37  1  0
  3 38  1  6
  4 39  1  6
  6 40  1  0
  8 41  1  0
  9 42  1  0
 11 43  1  0
 12 44  1  0
 12 45  1  0
 14 46  1  0
 15 47  1  1
 16 48  1  0
 16 49  1  0
 17 50  1  0
 17 51  1  0
 20 52  1  0
 21 53  1  0
 22 54  1  0
 23 55  1  0
 24 56  1  0
 25 57  1  0
 25 58  1  0
 27 59  1  0
 28 60  1  1
 29 61  1  0
 29 62  1  0
 30 63  1  0
 30 64  1  0
 33 65  1  0
 34 66  1  0
 35 67  1  0
 36 68  1  0
M  END
> <Uni-Dock RESULT> 
ENERGY=   -5.275  LOWER_BOUND=    1.754  UPPER_BOUND=    2.615
INTER + INTRA:          -5.275
INTER:                  -5.275
INTRA:                   0.000
UNBOUND:                 0.000

$$$$

     RDKit          3D

 68 69  0  0  0  0  0  0  0  0999 V2000
   48.3105   13.0346   16.6849 O   0  0  0  0  0  0  0  0  0  0  0  0
   47.4690   13.2539   17.7112 C   0  0  0  0  0  0  0  0  0  0  0  0
   48.1161   13.1209   19.0834 C   0  0  2  0  0  0  0  0  0  0  0  0
   48.8409   11.7877   19.2603 C   0  0  2  0  0  0  0  0  0  0  0  0
   47.8555   10.6222   19.2791 C   0  0  0  0  0  0  0  0  0  0  0  0
   47.2672   10.3951   18.0871 O   0  0  0  0  0  0  0  0  0  0  0  0
   46.3144   13.6020   17.5115 O   0  0  0  0  0  0  0  0  0  0  0  0
   49.5853   11.8278   20.4893 O   0  0  0  0  0  0  0  0  0  0  0  0
   47.1742   13.3028   20.1507 O   0  0  0  0  0  0  0  0  0  0  0  0
   47.5933    9.9059   20.2332 O   0  0  0  0  0  0  0  0  0  0  0  0
   47.9582   12.7801   17.2915 N   0  0  0  0  0  0  0  0  0  0  0  0
   47.8586   14.0837   16.6499 C   0  0  0  0  0  0  0  0  0  0  0  0
   48.2237   13.9587   15.2327 C   0  0  0  0  0  0  0  0  0  0  0  0
   48.5232   13.8560   14.0739 C   0  0  0  0  0  0  0  0  0  0  0  0
   47.5871   12.8247   18.7006 C   0  0  2  0  0  0  0  0  0  0  0  0
   48.5874   13.5926   19.5952 C   0  0  0  0  0  0  0  0  0  0  0  0
   48.4631   12.9851   20.9998 C   0  0  0  0  0  0  0  0  0  0  0  0
   48.1188   11.5676   20.6669 C   0  0  0  0  0  0  0  0  0  0  0  0
   47.6269   11.4688   19.3583 C   0  0  0  0  0  0  0  0  0  0  0  0
   47.2022   10.2495   18.8521 C   0  0  0  0  0  0  0  0  0  0  0  0
   48.1985   10.4563   21.4894 C   0  0  0  0  0  0  0  0  0  0  0  0
   47.7862    9.2236   20.9787 C   0  0  0  0  0  0  0  0  0  0  0  0
   47.2915    9.1206   19.6692 C   0  0  0  0  0  0  0  0  0  0  0  0
   49.2051   13.3175   18.0275 N   0  0  0  0  0  0  0  0  0  0  0  0
   49.2590   13.1527   16.5768 C   0  0  0  0  0  0  0  0  0  0  0  0
   48.5070   14.2121   15.8876 C   0  0  0  0  0  0  0  0  0  0  0  0
   47.8927   15.0781   15.3261 C   0  0  0  0  0  0  0  0  0  0  0  0
   47.9312   12.8902   18.5997 C   0  0  2  0  0  0  0  0  0  0  0  0
   47.6017   13.7008   19.8758 C   0  0  0  0  0  0  0  0  0  0  0  0
   46.6595   12.8191   20.7046 C   0  0  0  0  0  0  0  0  0  0  0  0
   47.1799   11.4584   20.3602 C   0  0  0  0  0  0  0  0  0  0  0  0
   47.9263   11.4942   19.1716 C   0  0  0  0  0  0  0  0  0  0  0  0
   48.4838   10.3311   18.6624 C   0  0  0  0  0  0  0  0  0  0  0  0
   46.9713   10.2743   21.0486 C   0  0  0  0  0  0  0  0  0  0  0  0
   47.5380    9.1051   20.5401 C   0  0  0  0  0  0  0  0  0  0  0  0
   48.2910    9.1335   19.3570 C   0  0  0  0  0  0  0  0  0  0  0  0
   47.7596   13.1597   15.8822 H   0  0  0  0  0  0  0  0  0  0  0  0
   48.8323   13.9455   19.1803 H   0  0  0  0  0  0  0  0  0  0  0  0
   49.5680   11.6036   18.4628 H   0  0  0  0  0  0  0  0  0  0  0  0
   46.6850    9.6236   18.2614 H   0  0  0  0  0  0  0  0  0  0  0  0
   48.9122   11.9026   21.1961 H   0  0  0  0  0  0  0  0  0  0  0  0
   46.5353   13.9772   19.8459 H   0  0  0  0  0  0  0  0  0  0  0  0
   48.9116   12.4326   17.2030 H   0  0  0  0  0  0  0  0  0  0  0  0
   48.5256   14.8106   17.1264 H   0  0  0  0  0  0  0  0  0  0  0  0
   46.8344   14.4666   16.7251 H   0  0  0  0  0  0  0  0  0  0  0  0
   48.7850   13.7566   13.0460 H   0  0  0  0  0  0  0  0  0  0  0  0
   46.5732   13.2266   18.8265 H   0  0  0  0  0  0  0  0  0  0  0  0
   49.6162   13.4413   19.2365 H   0  0  0  0  0  0  0  0  0  0  0  0
   48.4040   14.6722   19.5982 H   0  0  0  0  0  0  0  0  0  0  0  0
   49.4013   13.0696   21.5553 H   0  0  0  0  0  0  0  0  0  0  0  0
   47.6479   13.4499   21.5637 H   0  0  0  0  0  0  0  0  0  0  0  0
   46.8087   10.1750   17.8426 H   0  0  0  0  0  0  0  0  0  0  0  0
   48.5699   10.5354   22.5059 H   0  0  0  0  0  0  0  0  0  0  0  0
   47.8425    8.3348   21.6024 H   0  0  0  0  0  0  0  0  0  0  0  0
   46.9689    8.1544   19.2895 H   0  0  0  0  0  0  0  0  0  0  0  0
   49.3687   14.2994   18.2404 H   0  0  0  0  0  0  0  0  0  0  0  0
   50.3095   13.2108   16.2705 H   0  0  0  0  0  0  0  0  0  0  0  0
   48.9036   12.1642   16.2673 H   0  0  0  0  0  0  0  0  0  0  0  0
   47.3476   15.8457   14.8264 H   0  0  0  0  0  0  0  0  0  0  0  0
   47.0924   12.9936   17.8987 H   0  0  0  0  0  0  0  0  0  0  0  0
   47.1611   14.6770   19.6463 H   0  0  0  0  0  0  0  0  0  0  0  0
   48.5147   13.8881   20.4608 H   0  0  0  0  0  0  0  0  0  0  0  0
   45.6209   12.9226   20.3745 H   0  0  0  0  0  0  0  0  0  0  0  0
   46.7405   13.0418   21.7721 H   0  0  0  0  0  0  0  0  0  0  0  0
   49.0657   10.3410   17.7477 H   0  0  0  0  0  0  0  0  0  0  0  0
   46.3864   10.2522   21.9623 H   0  0  0  0  0  0  0  0  0  0  0  0
   47.3959    8.1633   21.0641 H   0  0  0  0  0  0  0  0  0  0  0  0
   48.7270    8.2137   18.9751 H   0  0  0  0  0  0  0  0  0  0  0  0
  1  2  1  0
  2  3  1  0
  3  4  1  0
  4  5  1  0
  5  6  1  0
  2  7  2  0
  4  8  1  0
  3  9  1  0
  5 10  2  0
 12 11  1  0
 15 11  1  0
 12 13  1  0
 13 14  3  0
 16 15  1  0
 19 15  1  0
 16 17  1  0
 17 18  1  0
 18 19  2  0
 18 21  1  0
 20 19  1  0
 23 20  2  0
 21 22  2  0
 22 23  1  0
 25 24  1  0
 28 24  1  0
 25 26  1  0
 26 27  3  0
 29 28  1  0
 32 28  1  0
 29 30  1  0
 30 31  1  0
 31 32  2  0
 31 34  1  0
 33 32  1  0
 36 33  2  0
 34 35  2  0
 35 36  1  0
  1 37  1  0
  3 38  1  6
  4 39  1  6
  6 40  1  0
  8 41  1  0
  9 42  1  0
 11 43  1  0
 12 44  1  0
 12 45  1  0
 14 46  1  0
 15 47  1  1
 16 48  1  0
 16 49  1  0
 17 50  1  0
 17 51  1  0
 20 52  1  0
 21 53  1  0
 22 54  1  0
 23 55  1  0
 24 56  1  0
 25 57  1  0
 25 58  1  0
 27 59  1  0
 28 60  1  1
 29 61  1  0
 29 62  1  0
 30 63  1  0
 30 64  1  0
 33 65  1  0
 34 66  1  0
 35 67  1  0
 36 68  1  0
M  END
> <Uni-Dock RESULT> 
ENERGY=   -5.261  LOWER_BOUND=    4.940  UPPER_BOUND=    6.734
INTER + INTRA:          -5.261
INTER:                  -5.261
INTRA:                   0.000
UNBOUND:                 0.000

$$$$

     RDKit          3D

 68 69  0  0  0  0  0  0  0  0999 V2000
   45.8109    6.3405   13.0483 O   0  0  0  0  0  0  0  0  0  0  0  0
   46.2609    7.6015   12.9175 C   0  0  0  0  0  0  0  0  0  0  0  0
   47.6848    7.7001   12.3864 C   0  0  2  0  0  0  0  0  0  0  0  0
   48.6702    6.8610   13.1982 C   0  0  2  0  0  0  0  0  0  0  0  0
   48.8373    7.4179   14.6094 C   0  0  0  0  0  0  0  0  0  0  0  0
   47.7397    7.2723   15.3792 O   0  0  0  0  0  0  0  0  0  0  0  0
   45.5297    8.5544   13.1442 O   0  0  0  0  0  0  0  0  0  0  0  0
   49.9356    6.8492   12.5165 O   0  0  0  0  0  0  0  0  0  0  0  0
   48.1488    9.0563   12.3180 O   0  0  0  0  0  0  0  0  0  0  0  0
   49.8420    7.9344   15.0740 O   0  0  0  0  0  0  0  0  0  0  0  0
   46.2958    6.8725   13.2452 N   0  0  0  0  0  0  0  0  0  0  0  0
   45.1642    6.9526   12.3320 C   0  0  0  0  0  0  0  0  0  0  0  0
   44.1790    5.9219   12.6847 C   0  0  0  0  0  0  0  0  0  0  0  0
   43.3741    5.0781   12.9731 C   0  0  0  0  0  0  0  0  0  0  0  0
   47.3070    7.8851   12.9670 C   0  0  2  0  0  0  0  0  0  0  0  0
   48.0724    7.6687   11.6411 C   0  0  0  0  0  0  0  0  0  0  0  0
   49.4516    8.3165   11.8295 C   0  0  0  0  0  0  0  0  0  0  0  0
   49.6680    8.1033   13.2945 C   0  0  0  0  0  0  0  0  0  0  0  0
   48.4530    7.8504   13.9457 C   0  0  0  0  0  0  0  0  0  0  0  0
   48.4114    7.6671   15.3197 C   0  0  0  0  0  0  0  0  0  0  0  0
   50.8584    8.1745   13.9986 C   0  0  0  0  0  0  0  0  0  0  0  0
   50.8233    7.9753   15.3804 C   0  0  0  0  0  0  0  0  0  0  0  0
   49.6085    7.7233   16.0367 C   0  0  0  0  0  0  0  0  0  0  0  0
   47.1188    6.3165   12.0626 N   0  0  0  0  0  0  0  0  0  0  0  0
   46.0115    5.5207   12.5868 C   0  0  0  0  0  0  0  0  0  0  0  0
   44.7120    6.0660   12.1664 C   0  0  0  0  0  0  0  0  0  0  0  0
   43.6513    6.5124   11.8221 C   0  0  0  0  0  0  0  0  0  0  0  0
   47.3189    7.5628   12.7970 C   0  0  2  0  0  0  0  0  0  0  0  0
   47.9026    8.6583   11.8733 C   0  0  0  0  0  0  0  0  0  0  0  0
   48.6312    9.6438   12.7953 C   0  0  0  0  0  0  0  0  0  0  0  0
   49.1244    8.7139   13.8597 C   0  0  0  0  0  0  0  0  0  0  0  0
   48.3954    7.5140   13.8528 C   0  0  0  0  0  0  0  0  0  0  0  0
   48.6801    6.5193   14.7761 C   0  0  0  0  0  0  0  0  0  0  0  0
   50.1320    8.9435   14.7825 C   0  0  0  0  0  0  0  0  0  0  0  0
   50.4232    7.9400   15.7070 C   0  0  0  0  0  0  0  0  0  0  0  0
   49.7043    6.7355   15.7024 C   0  0  0  0  0  0  0  0  0  0  0  0
   44.8955    6.4385   13.3886 H   0  0  0  0  0  0  0  0  0  0  0  0
   47.6645    7.3442   11.3495 H   0  0  0  0  0  0  0  0  0  0  0  0
   48.3528    5.8165   13.2816 H   0  0  0  0  0  0  0  0  0  0  0  0
   48.0091    7.6614   16.2397 H   0  0  0  0  0  0  0  0  0  0  0  0
   50.2450    7.7779   12.5311 H   0  0  0  0  0  0  0  0  0  0  0  0
   47.3746    9.6035   12.0789 H   0  0  0  0  0  0  0  0  0  0  0  0
   46.7163    5.9470   13.1807 H   0  0  0  0  0  0  0  0  0  0  0  0
   45.4822    6.8008   11.2946 H   0  0  0  0  0  0  0  0  0  0  0  0
   44.6919    7.9394   12.3984 H   0  0  0  0  0  0  0  0  0  0  0  0
   42.6623    4.3309   13.2378 H   0  0  0  0  0  0  0  0  0  0  0  0
   46.8720    8.8926   12.9987 H   0  0  0  0  0  0  0  0  0  0  0  0
   48.2116    6.5943   11.4504 H   0  0  0  0  0  0  0  0  0  0  0  0
   47.5403    8.0817   10.7777 H   0  0  0  0  0  0  0  0  0  0  0  0
   50.2111    7.8227   11.2170 H   0  0  0  0  0  0  0  0  0  0  0  0
   49.4225    9.3873   11.6033 H   0  0  0  0  0  0  0  0  0  0  0  0
   47.4684    7.4841   15.8264 H   0  0  0  0  0  0  0  0  0  0  0  0
   51.7972    8.3806   13.4951 H   0  0  0  0  0  0  0  0  0  0  0  0
   51.7445    8.0217   15.9561 H   0  0  0  0  0  0  0  0  0  0  0  0
   49.5982    7.5768   17.1138 H   0  0  0  0  0  0  0  0  0  0  0  0
   46.9274    6.5183   11.0833 H   0  0  0  0  0  0  0  0  0  0  0  0
   46.1109    4.5038   12.1907 H   0  0  0  0  0  0  0  0  0  0  0  0
   46.0570    5.4308   13.6771 H   0  0  0  0  0  0  0  0  0  0  0  0
   42.7094    6.9076   11.5177 H   0  0  0  0  0  0  0  0  0  0  0  0
   46.3934    7.9469   13.2460 H   0  0  0  0  0  0  0  0  0  0  0  0
   47.1310    9.1482   11.2698 H   0  0  0  0  0  0  0  0  0  0  0  0
   48.6330    8.2246   11.1737 H   0  0  0  0  0  0  0  0  0  0  0  0
   47.9402   10.3773   13.2230 H   0  0  0  0  0  0  0  0  0  0  0  0
   49.4454   10.1526   12.2719 H   0  0  0  0  0  0  0  0  0  0  0  0
   48.1295    5.5854   14.7830 H   0  0  0  0  0  0  0  0  0  0  0  0
   50.6860    9.8765   14.7875 H   0  0  0  0  0  0  0  0  0  0  0  0
   51.2137    8.0912   16.4378 H   0  0  0  0  0  0  0  0  0  0  0  0
   49.9449    5.9632   16.4288 H   0  0  0  0  0  0  0  0  0  0  0  0
  1  2  1  0
  2  3  1  0
  3  4  1  0
  4  5  1  0
  5  6  1  0
  2  7  2  0
  4  8  1  0
  3  9  1  0
  5 10  2  0
 12 11  1  0
 15 11  1  0
 12 13  1  0
 13 14  3  0
 16 15  1  0
 19 15  1  0
 16 17  1  0
 17 18  1  0
 18 19  2  0
 18 21  1  0
 20 19  1  0
 23 20  2  0
 21 22  2  0
 22 23  1  0
 25 24  1  0
 28 24  1  0
 25 26  1  0
 26 27  3  0
 29 28  1  0
 32 28  1  0
 29 30  1  0
 30 31  1  0
 31 32  2  0
 31 34  1  0
 33 32  1  0
 36 33  2  0
 34 35  2  0
 35 36  1  0
  1 37  1  0
  3 38  1  6
  4 39  1  6
  6 40  1  0
  8 41  1  0
  9 42  1  0
 11 43  1  0
 12 44  1  0
 12 45  1  0
 14 46  1  0
 15 47  1  1
 16 48  1  0
 16 49  1  0
 17 50  1  0
 17 51  1  0
 20 52  1  0
 21 53  1  0
 22 54  1  0
 23 55  1  0
 24 56  1  0
 25 57  1  0
 25 58  1  0
 27 59  1  0
 28 60  1  1
 29 61  1  0
 29 62  1  0
 30 63  1  0
 30 64  1  0
 33 65  1  0
 34 66  1  0
 35 67  1  0
 36 68  1  0
M  END
> <Uni-Dock RESULT> 
ENERGY=   -5.241  LOWER_BOUND=    5.876  UPPER_BOUND=    7.754
INTER + INTRA:          -5.241
INTER:                  -5.241
INTRA:                   0.000
UNBOUND:                 0.000

$$$$

     RDKit          3D

 68 69  0  0  0  0  0  0  0  0999 V2000
   47.7230   10.3390   20.0198 O   0  0  0  0  0  0  0  0  0  0  0  0
   47.0877    9.7666   21.0582 C   0  0  0  0  0  0  0  0  0  0  0  0
   48.0150    9.0715   22.0462 C   0  0  2  0  0  0  0  0  0  0  0  0
   48.9445    8.0671   21.3670 C   0  0  2  0  0  0  0  0  0  0  0  0
   48.1619    6.8828   20.8061 C   0  0  0  0  0  0  0  0  0  0  0  0
   47.3802    7.2032   19.7550 O   0  0  0  0  0  0  0  0  0  0  0  0
   45.8788    9.8852   21.1957 O   0  0  0  0  0  0  0  0  0  0  0  0
   49.9117    7.6121   22.3280 O   0  0  0  0  0  0  0  0  0  0  0  0
   47.2962    8.4232   23.1055 O   0  0  0  0  0  0  0  0  0  0  0  0
   48.2068    5.7278   21.2011 O   0  0  0  0  0  0  0  0  0  0  0  0
   47.5431    9.7238   20.4018 N   0  0  0  0  0  0  0  0  0  0  0  0
   47.1277   11.1011   20.6288 C   0  0  0  0  0  0  0  0  0  0  0  0
   47.2081   11.8488   19.3672 C   0  0  0  0  0  0  0  0  0  0  0  0
   47.2748   12.4600   18.3352 C   0  0  0  0  0  0  0  0  0  0  0  0
   47.4668    8.9139   21.6116 C   0  0  2  0  0  0  0  0  0  0  0  0
   48.5086    9.2880   22.6912 C   0  0  0  0  0  0  0  0  0  0  0  0
   48.7639    8.0107   23.5040 C   0  0  0  0  0  0  0  0  0  0  0  0
   48.5659    6.9621   22.4552 C   0  0  0  0  0  0  0  0  0  0  0  0
   47.8352    7.4717   21.3733 C   0  0  0  0  0  0  0  0  0  0  0  0
   47.4953    6.6581   20.3029 C   0  0  0  0  0  0  0  0  0  0  0  0
   48.9716    5.6384   22.4873 C   0  0  0  0  0  0  0  0  0  0  0  0
   48.6447    4.8192   21.4045 C   0  0  0  0  0  0  0  0  0  0  0  0
   47.9118    5.3253   20.3197 C   0  0  0  0  0  0  0  0  0  0  0  0
   48.8241   10.0545   21.1986 N   0  0  0  0  0  0  0  0  0  0  0  0
   48.6021   10.7151   19.9146 C   0  0  0  0  0  0  0  0  0  0  0  0
   47.5805   11.7675   20.0215 C   0  0  0  0  0  0  0  0  0  0  0  0
   46.7459   12.6269   20.1105 C   0  0  0  0  0  0  0  0  0  0  0  0
   47.7698    9.1020   21.5359 C   0  0  2  0  0  0  0  0  0  0  0  0
   47.5963    8.9935   23.0696 C   0  0  0  0  0  0  0  0  0  0  0  0
   46.9812    7.6126   23.3284 C   0  0  0  0  0  0  0  0  0  0  0  0
   47.6097    6.8189   22.2257 C   0  0  0  0  0  0  0  0  0  0  0  0
   48.0830    7.6630   21.2086 C   0  0  0  0  0  0  0  0  0  0  0  0
   48.6853    7.1266   20.0806 C   0  0  0  0  0  0  0  0  0  0  0  0
   47.7192    5.4409   22.1324 C   0  0  0  0  0  0  0  0  0  0  0  0
   48.3314    4.9014   21.0007 C   0  0  0  0  0  0  0  0  0  0  0  0
   48.8133    5.7381   19.9832 C   0  0  0  0  0  0  0  0  0  0  0  0
   47.0070   10.7435   19.4841 H   0  0  0  0  0  0  0  0  0  0  0  0
   48.6097    9.8545   22.5314 H   0  0  0  0  0  0  0  0  0  0  0  0
   49.5111    8.5181   20.5459 H   0  0  0  0  0  0  0  0  0  0  0  0
   46.9633    6.3485   19.5097 H   0  0  0  0  0  0  0  0  0  0  0  0
   49.3945    7.1341   23.0080 H   0  0  0  0  0  0  0  0  0  0  0  0
   46.5181    8.9833   23.2973 H   0  0  0  0  0  0  0  0  0  0  0  0
   48.4979    9.7137   20.0470 H   0  0  0  0  0  0  0  0  0  0  0  0
   47.7668   11.5890   21.3730 H   0  0  0  0  0  0  0  0  0  0  0  0
   46.0966   11.1304   20.9993 H   0  0  0  0  0  0  0  0  0  0  0  0
   47.3315   12.9946   17.4154 H   0  0  0  0  0  0  0  0  0  0  0  0
   46.4534    8.9338   22.0335 H   0  0  0  0  0  0  0  0  0  0  0  0
   49.4526    9.5999   22.2205 H   0  0  0  0  0  0  0  0  0  0  0  0
   48.1765   10.1171   23.3249 H   0  0  0  0  0  0  0  0  0  0  0  0
   49.7741    7.9997   23.9227 H   0  0  0  0  0  0  0  0  0  0  0  0
   48.0238    7.8921   24.3019 H   0  0  0  0  0  0  0  0  0  0  0  0
   46.9177    7.0493   19.4706 H   0  0  0  0  0  0  0  0  0  0  0  0
   49.5285    5.2420   23.3300 H   0  0  0  0  0  0  0  0  0  0  0  0
   48.9549    3.7772   21.4029 H   0  0  0  0  0  0  0  0  0  0  0  0
   47.6602    4.6722   19.4878 H   0  0  0  0  0  0  0  0  0  0  0  0
   48.8852   10.7729   21.9173 H   0  0  0  0  0  0  0  0  0  0  0  0
   49.5479   11.1734   19.6040 H   0  0  0  0  0  0  0  0  0  0  0  0
   48.3366    9.9986   19.1303 H   0  0  0  0  0  0  0  0  0  0  0  0
   46.0054   13.3895   20.1877 H   0  0  0  0  0  0  0  0  0  0  0  0
   46.7990    9.3666   21.0965 H   0  0  0  0  0  0  0  0  0  0  0  0
   46.9825    9.8039   23.4772 H   0  0  0  0  0  0  0  0  0  0  0  0
   48.5735    9.0439   23.5733 H   0  0  0  0  0  0  0  0  0  0  0  0
   45.8930    7.6308   23.2098 H   0  0  0  0  0  0  0  0  0  0  0  0
   47.2467    7.2369   24.3204 H   0  0  0  0  0  0  0  0  0  0  0  0
   49.0594    7.7637   19.2871 H   0  0  0  0  0  0  0  0  0  0  0  0
   47.3438    4.7939   22.9184 H   0  0  0  0  0  0  0  0  0  0  0  0
   48.4367    3.8236   20.9051 H   0  0  0  0  0  0  0  0  0  0  0  0
   49.2891    5.3015   19.1085 H   0  0  0  0  0  0  0  0  0  0  0  0
  1  2  1  0
  2  3  1  0
  3  4  1  0
  4  5  1  0
  5  6  1  0
  2  7  2  0
  4  8  1  0
  3  9  1  0
  5 10  2  0
 12 11  1  0
 15 11  1  0
 12 13  1  0
 13 14  3  0
 16 15  1  0
 19 15  1  0
 16 17  1  0
 17 18  1  0
 18 19  2  0
 18 21  1  0
 20 19  1  0
 23 20  2  0
 21 22  2  0
 22 23  1  0
 25 24  1  0
 28 24  1  0
 25 26  1  0
 26 27  3  0
 29 28  1  0
 32 28  1  0
 29 30  1  0
 30 31  1  0
 31 32  2  0
 31 34  1  0
 33 32  1  0
 36 33  2  0
 34 35  2  0
 35 36  1  0
  1 37  1  0
  3 38  1  6
  4 39  1  6
  6 40  1  0
  8 41  1  0
  9 42  1  0
 11 43  1  0
 12 44  1  0
 12 45  1  0
 14 46  1  0
 15 47  1  1
 16 48  1  0
 16 49  1  0
 17 50  1  0
 17 51  1  0
 20 52  1  0
 21 53  1  0
 22 54  1  0
 23 55  1  0
 24 56  1  0
 25 57  1  0
 25 58  1  0
 27 59  1  0
 28 60  1  1
 29 61  1  0
 29 62  1  0
 30 63  1  0
 30 64  1  0
 33 65  1  0
 34 66  1  0
 35 67  1  0
 36 68  1  0
M  END
> <Uni-Dock RESULT> 
ENERGY=   -5.223  LOWER_BOUND=    2.112  UPPER_BOUND=    4.373
INTER + INTRA:          -5.223
INTER:                  -5.223
INTRA:                   0.000
UNBOUND:                 0.000

$$$$

     RDKit          3D

 68 69  0  0  0  0  0  0  0  0999 V2000
   46.5905    6.9486   12.3095 O   0  0  0  0  0  0  0  0  0  0  0  0
   47.5068    6.5789   13.2224 C   0  0  0  0  0  0  0  0  0  0  0  0
   48.0897    7.7373   14.0207 C   0  0  2  0  0  0  0  0  0  0  0  0
   48.6426    8.8442   13.1245 C   0  0  2  0  0  0  0  0  0  0  0  0
   49.8683    8.3667   12.3502 C   0  0  0  0  0  0  0  0  0  0  0  0
   49.5846    7.4439   11.4087 O   0  0  0  0  0  0  0  0  0  0  0  0
   47.7612    5.3984   13.4123 O   0  0  0  0  0  0  0  0  0  0  0  0
   48.9834    9.9740   13.9452 O   0  0  0  0  0  0  0  0  0  0  0  0
   49.1049    7.3097   14.9405 O   0  0  0  0  0  0  0  0  0  0  0  0
   51.0176    8.7539   12.4957 O   0  0  0  0  0  0  0  0  0  0  0  0
   47.2930    6.9734   12.5601 N   0  0  0  0  0  0  0  0  0  0  0  0
   46.1582    6.2220   13.0783 C   0  0  0  0  0  0  0  0  0  0  0  0
   45.1901    5.9936   11.9977 C   0  0  0  0  0  0  0  0  0  0  0  0
   44.3983    5.8079   11.1136 C   0  0  0  0  0  0  0  0  0  0  0  0
   48.3084    7.2182   13.5771 C   0  0  2  0  0  0  0  0  0  0  0  0
   47.8715    8.2055   14.6838 C   0  0  0  0  0  0  0  0  0  0  0  0
   49.1570    8.8619   15.2072 C   0  0  0  0  0  0  0  0  0  0  0  0
   49.9971    8.8686   13.9690 C   0  0  0  0  0  0  0  0  0  0  0  0
   49.5152    7.9411   13.0354 C   0  0  0  0  0  0  0  0  0  0  0  0
   50.1701    7.7464   11.8285 C   0  0  0  0  0  0  0  0  0  0  0  0
   51.1340    9.6175   13.7154 C   0  0  0  0  0  0  0  0  0  0  0  0
   51.7880    9.4359   12.4950 C   0  0  0  0  0  0  0  0  0  0  0  0
   51.3096    8.5069   11.5578 C   0  0  0  0  0  0  0  0  0  0  0  0
   46.7753    8.1787   13.3751 N   0  0  0  0  0  0  0  0  0  0  0  0
   45.9697    7.6819   12.2622 C   0  0  0  0  0  0  0  0  0  0  0  0
   45.2877    6.4266   12.6111 C   0  0  0  0  0  0  0  0  0  0  0  0
   44.7311    5.4014   12.8977 C   0  0  0  0  0  0  0  0  0  0  0  0
   48.0319    7.4519   13.5343 C   0  0  2  0  0  0  0  0  0  0  0  0
   48.4773    7.4409   15.0160 C   0  0  0  0  0  0  0  0  0  0  0  0
   49.9983    7.2445   14.9983 C   0  0  0  0  0  0  0  0  0  0  0  0
   50.3563    7.9709   13.7393 C   0  0  0  0  0  0  0  0  0  0  0  0
   49.2341    8.1136   12.9077 C   0  0  0  0  0  0  0  0  0  0  0  0
   49.3526    8.7434   11.6779 C   0  0  0  0  0  0  0  0  0  0  0  0
   51.6033    8.4400   13.3593 C   0  0  0  0  0  0  0  0  0  0  0  0
   51.7212    9.0799   12.1251 C   0  0  0  0  0  0  0  0  0  0  0  0
   50.6035    9.2328   11.2914 C   0  0  0  0  0  0  0  0  0  0  0  0
   46.3083    6.1084   11.8878 H   0  0  0  0  0  0  0  0  0  0  0  0
   47.2797    8.1366   14.6424 H   0  0  0  0  0  0  0  0  0  0  0  0
   47.9016    9.1986   12.4006 H   0  0  0  0  0  0  0  0  0  0  0  0
   50.4582    7.2543   11.0021 H   0  0  0  0  0  0  0  0  0  0  0  0
   49.7089    9.6626   14.5242 H   0  0  0  0  0  0  0  0  0  0  0  0
   48.8336    6.4279   15.2641 H   0  0  0  0  0  0  0  0  0  0  0  0
   46.9661    7.8629   12.1866 H   0  0  0  0  0  0  0  0  0  0  0  0
   45.6629    6.7647   13.8910 H   0  0  0  0  0  0  0  0  0  0  0  0
   46.4914    5.2553   13.4730 H   0  0  0  0  0  0  0  0  0  0  0  0
   43.7030    5.6423   10.3235 H   0  0  0  0  0  0  0  0  0  0  0  0
   48.6554    6.2752   14.0195 H   0  0  0  0  0  0  0  0  0  0  0  0
   47.2226    8.9884   14.2641 H   0  0  0  0  0  0  0  0  0  0  0  0
   47.3069    7.7153   15.4840 H   0  0  0  0  0  0  0  0  0  0  0  0
   48.9641    9.8685   15.5886 H   0  0  0  0  0  0  0  0  0  0  0  0
   49.6298    8.2495   15.9817 H   0  0  0  0  0  0  0  0  0  0  0  0
   49.8045    7.0183   11.1104 H   0  0  0  0  0  0  0  0  0  0  0  0
   51.5123   10.3281   14.4431 H   0  0  0  0  0  0  0  0  0  0  0  0
   52.6804   10.0145   12.2693 H   0  0  0  0  0  0  0  0  0  0  0  0
   51.8345    8.3734   10.6152 H   0  0  0  0  0  0  0  0  0  0  0  0
   46.2207    8.1026   14.2255 H   0  0  0  0  0  0  0  0  0  0  0  0
   45.2135    8.4401   12.0294 H   0  0  0  0  0  0  0  0  0  0  0  0
   46.5674    7.5559   11.3533 H   0  0  0  0  0  0  0  0  0  0  0  0
   44.2369    4.4916   13.1503 H   0  0  0  0  0  0  0  0  0  0  0  0
   47.9713    6.4130   13.1842 H   0  0  0  0  0  0  0  0  0  0  0  0
   47.9661    6.6668   15.5984 H   0  0  0  0  0  0  0  0  0  0  0  0
   48.2523    8.4062   15.4941 H   0  0  0  0  0  0  0  0  0  0  0  0
   50.2641    6.1859   14.9139 H   0  0  0  0  0  0  0  0  0  0  0  0
   50.4676    7.6822   15.8836 H   0  0  0  0  0  0  0  0  0  0  0  0
   48.4960    8.8652   11.0247 H   0  0  0  0  0  0  0  0  0  0  0  0
   52.4682    8.3191   14.0033 H   0  0  0  0  0  0  0  0  0  0  0  0
   52.6866    9.4638   11.8053 H   0  0  0  0  0  0  0  0  0  0  0  0
   50.7123    9.7352   10.3333 H   0  0  0  0  0  0  0  0  0  0  0  0
  1  2  1  0
  2  3  1  0
  3  4  1  0
  4  5  1  0
  5  6  1  0
  2  7  2  0
  4  8  1  0
  3  9  1  0
  5 10  2  0
 12 11  1  0
 15 11  1  0
 12 13  1  0
 13 14  3  0
 16 15  1  0
 19 15  1  0
 16 17  1  0
 17 18  1  0
 18 19  2  0
 18 21  1  0
 20 19  1  0
 23 20  2  0
 21 22  2  0
 22 23  1  0
 25 24  1  0
 28 24  1  0
 25 26  1  0
 26 27  3  0
 29 28  1  0
 32 28  1  0
 29 30  1  0
 30 31  1  0
 31 32  2  0
 31 34  1  0
 33 32  1  0
 36 33  2  0
 34 35  2  0
 35 36  1  0
  1 37  1  0
  3 38  1  6
  4 39  1  6
  6 40  1  0
  8 41  1  0
  9 42  1  0
 11 43  1  0
 12 44  1  0
 12 45  1  0
 14 46  1  0
 15 47  1  1
 16 48  1  0
 16 49  1  0
 17 50  1  0
 17 51  1  0
 20 52  1  0
 21 53  1  0
 22 54  1  0
 23 55  1  0
 24 56  1  0
 25 57  1  0
 25 58  1  0
 27 59  1  0
 28 60  1  1
 29 61  1  0
 29 62  1  0
 30 63  1  0
 30 64  1  0
 33 65  1  0
 34 66  1  0
 35 67  1  0
 36 68  1  0
M  END
> <Uni-Dock RESULT> 
ENERGY=   -5.101  LOWER_BOUND=    6.515  UPPER_BOUND=    8.606
INTER + INTRA:          -5.101
INTER:                  -5.101
INTRA:                   0.000
UNBOUND:                 0.000

$$$$
