
     RDKit          3D

 68 69  0  0  0  0  0  0  0  0999 V2000
   44.5259    7.7841   11.7745 O   0  0  0  0  0  0  0  0  0  0  0  0
   45.5040    6.9795   11.3210 C   0  0  0  0  0  0  0  0  0  0  0  0
   45.0041    5.7164   10.6408 C   0  0  2  0  0  0  0  0  0  0  0  0
   44.8656    4.6066   11.6835 C   0  0  2  0  0  0  0  0  0  0  0  0
   44.3640    3.3438   11.0035 C   0  0  0  0  0  0  0  0  0  0  0  0
   45.3410    2.5392   10.5476 O   0  0  0  0  0  0  0  0  0  0  0  0
   46.6818    7.2858   11.4468 O   0  0  0  0  0  0  0  0  0  0  0  0
   43.9218    4.9634   12.7044 O   0  0  0  0  0  0  0  0  0  0  0  0
   45.9490    5.3600    9.6208 O   0  0  0  0  0  0  0  0  0  0  0  0
   43.1859    3.0379   10.8801 O   0  0  0  0  0  0  0  0  0  0  0  0
   45.4392    6.6092   11.7336 N   0  0  0  0  0  0  0  0  0  0  0  0
   45.2660    7.4361   12.9199 C   0  0  0  0  0  0  0  0  0  0  0  0
   46.0772    8.6536   12.7883 C   0  0  0  0  0  0  0  0  0  0  0  0
   46.7415    9.6485   12.6805 C   0  0  0  0  0  0  0  0  0  0  0  0
   44.6448    5.3880   11.7869 C   0  0  2  0  0  0  0  0  0  0  0  0
   45.1244    4.3662   12.8437 C   0  0  0  0  0  0  0  0  0  0  0  0
   44.7007    2.9832   12.3287 C   0  0  0  0  0  0  0  0  0  0  0  0
   44.7919    3.1905   10.8497 C   0  0  0  0  0  0  0  0  0  0  0  0
   44.7678    4.5561   10.5359 C   0  0  0  0  0  0  0  0  0  0  0  0
   44.7960    4.9793    9.2154 C   0  0  0  0  0  0  0  0  0  0  0  0
   44.8475    2.2268    9.8567 C   0  0  0  0  0  0  0  0  0  0  0  0
   44.8915    2.6487    8.5263 C   0  0  0  0  0  0  0  0  0  0  0  0
   44.8660    4.0153    8.2075 C   0  0  0  0  0  0  0  0  0  0  0  0
   45.4446    6.3338   12.4394 N   0  0  0  0  0  0  0  0  0  0  0  0
   45.4123    7.7104   11.9673 C   0  0  0  0  0  0  0  0  0  0  0  0
   46.5742    8.4366   12.4970 C   0  0  0  0  0  0  0  0  0  0  0  0
   47.5253    9.0294   12.9294 C   0  0  0  0  0  0  0  0  0  0  0  0
   44.3655    5.5266   11.8858 C   0  0  2  0  0  0  0  0  0  0  0  0
   44.0219    4.3849   12.8690 C   0  0  0  0  0  0  0  0  0  0  0  0
   43.3907    3.2733   12.0237 C   0  0  0  0  0  0  0  0  0  0  0  0
   44.1363    3.4455   10.7365 C   0  0  0  0  0  0  0  0  0  0  0  0
   44.7080    4.7252   10.6539 C   0  0  0  0  0  0  0  0  0  0  0  0
   45.4169    5.0994    9.5217 C   0  0  0  0  0  0  0  0  0  0  0  0
   44.2579    2.5290    9.7046 C   0  0  0  0  0  0  0  0  0  0  0  0
   44.9808    2.9013    8.5713 C   0  0  0  0  0  0  0  0  0  0  0  0
   45.5569    4.1768    8.4808 C   0  0  0  0  0  0  0  0  0  0  0  0
   44.9945    8.5350   12.1957 H   0  0  0  0  0  0  0  0  0  0  0  0
   44.0524    5.9347   10.1443 H   0  0  0  0  0  0  0  0  0  0  0  0
   45.8176    4.3873   12.1792 H   0  0  0  0  0  0  0  0  0  0  0  0
   44.8714    1.7888   10.1269 H   0  0  0  0  0  0  0  0  0  0  0  0
   43.0287    4.7986   12.3398 H   0  0  0  0  0  0  0  0  0  0  0  0
   46.8418    5.5236    9.9871 H   0  0  0  0  0  0  0  0  0  0  0  0
   46.4237    6.3688   11.6308 H   0  0  0  0  0  0  0  0  0  0  0  0
   45.5741    6.8995   13.8240 H   0  0  0  0  0  0  0  0  0  0  0  0
   44.2130    7.7163   13.0369 H   0  0  0  0  0  0  0  0  0  0  0  0
   47.3293   10.5310   12.5760 H   0  0  0  0  0  0  0  0  0  0  0  0
   43.5811    5.6181   11.9310 H   0  0  0  0  0  0  0  0  0  0  0  0
   44.7208    4.5733   13.8404 H   0  0  0  0  0  0  0  0  0  0  0  0
   46.2209    4.3891   12.9284 H   0  0  0  0  0  0  0  0  0  0  0  0
   45.3764    2.2008   12.6852 H   0  0  0  0  0  0  0  0  0  0  0  0
   43.6700    2.7505   12.6153 H   0  0  0  0  0  0  0  0  0  0  0  0
   44.7639    6.0371    8.9715 H   0  0  0  0  0  0  0  0  0  0  0  0
   44.8558    1.1694   10.1003 H   0  0  0  0  0  0  0  0  0  0  0  0
   44.9398    1.9125    7.7277 H   0  0  0  0  0  0  0  0  0  0  0  0
   44.8946    4.3265    7.1662 H   0  0  0  0  0  0  0  0  0  0  0  0
   46.3406    5.9071   12.2089 H   0  0  0  0  0  0  0  0  0  0  0  0
   45.4241    7.7650   10.8745 H   0  0  0  0  0  0  0  0  0  0  0  0
   44.4955    8.2020   12.3130 H   0  0  0  0  0  0  0  0  0  0  0  0
   48.3682    9.5510   13.3200 H   0  0  0  0  0  0  0  0  0  0  0  0
   43.4583    6.1156   11.6972 H   0  0  0  0  0  0  0  0  0  0  0  0
   44.9352    3.9919   13.3408 H   0  0  0  0  0  0  0  0  0  0  0  0
   43.3614    4.7162   13.6776 H   0  0  0  0  0  0  0  0  0  0  0  0
   43.5511    2.2895   12.4734 H   0  0  0  0  0  0  0  0  0  0  0  0
   42.3211    3.4473   11.8680 H   0  0  0  0  0  0  0  0  0  0  0  0
   45.8603    6.0840    9.4280 H   0  0  0  0  0  0  0  0  0  0  0  0
   43.8055    1.5449    9.7723 H   0  0  0  0  0  0  0  0  0  0  0  0
   45.0960    2.1993    7.7490 H   0  0  0  0  0  0  0  0  0  0  0  0
   46.1134    4.4518    7.5880 H   0  0  0  0  0  0  0  0  0  0  0  0
  1  2  1  0
  2  3  1  0
  3  4  1  0
  4  5  1  0
  5  6  1  0
  2  7  2  0
  4  8  1  0
  3  9  1  0
  5 10  2  0
 12 11  1  0
 15 11  1  0
 12 13  1  0
 13 14  3  0
 16 15  1  0
 19 15  1  0
 16 17  1  0
 17 18  1  0
 18 19  2  0
 18 21  1  0
 20 19  1  0
 23 20  2  0
 21 22  2  0
 22 23  1  0
 25 24  1  0
 28 24  1  0
 25 26  1  0
 26 27  3  0
 29 28  1  0
 32 28  1  0
 29 30  1  0
 30 31  1  0
 31 32  2  0
 31 34  1  0
 33 32  1  0
 36 33  2  0
 34 35  2  0
 35 36  1  0
  1 37  1  0
  3 38  1  1
  4 39  1  6
  6 40  1  0
  8 41  1  0
  9 42  1  0
 11 43  1  0
 12 44  1  0
 12 45  1  0
 14 46  1  0
 15 47  1  1
 16 48  1  0
 16 49  1  0
 17 50  1  0
 17 51  1  0
 20 52  1  0
 21 53  1  0
 22 54  1  0
 23 55  1  0
 24 56  1  0
 25 57  1  0
 25 58  1  0
 27 59  1  0
 28 60  1  1
 29 61  1  0
 29 62  1  0
 30 63  1  0
 30 64  1  0
 33 65  1  0
 34 66  1  0
 35 67  1  0
 36 68  1  0
M  END
> <Uni-Dock RESULT> 
ENERGY=   -9.367  LOWER_BOUND=    0.000  UPPER_BOUND=    0.000
INTER + INTRA:          -9.367
INTER:                  -9.367
INTRA:                   0.000
UNBOUND:                 0.000

$$$$

     RDKit          3D

 68 69  0  0  0  0  0  0  0  0999 V2000
   45.0648    3.6047    7.1529 O   0  0  0  0  0  0  0  0  0  0  0  0
   45.5768    3.1009    8.2904 C   0  0  0  0  0  0  0  0  0  0  0  0
   44.8084    3.4879    9.5425 C   0  0  2  0  0  0  0  0  0  0  0  0
   45.3889    4.7854   10.1062 C   0  0  2  0  0  0  0  0  0  0  0  0
   44.6193    5.1733   11.3575 C   0  0  0  0  0  0  0  0  0  0  0  0
   45.1289    4.6684   12.4956 O   0  0  0  0  0  0  0  0  0  0  0  0
   46.5651    2.3800    8.2722 O   0  0  0  0  0  0  0  0  0  0  0  0
   45.2729    5.8624    9.1644 O   0  0  0  0  0  0  0  0  0  0  0  0
   44.9258    2.4107   10.4838 O   0  0  0  0  0  0  0  0  0  0  0  0
   43.6321    5.8958   11.3744 O   0  0  0  0  0  0  0  0  0  0  0  0
   45.7962    3.5889    8.4495 N   0  0  0  0  0  0  0  0  0  0  0  0
   46.3688    4.1295    7.2244 C   0  0  0  0  0  0  0  0  0  0  0  0
   46.8773    3.0280    6.3964 C   0  0  0  0  0  0  0  0  0  0  0  0
   47.2938    2.1268    5.7201 C   0  0  0  0  0  0  0  0  0  0  0  0
   45.2523    4.6287    9.3144 C   0  0  2  0  0  0  0  0  0  0  0  0
   46.3217    5.5450    9.9528 C   0  0  0  0  0  0  0  0  0  0  0  0
   45.7201    6.0565   11.2695 C   0  0  0  0  0  0  0  0  0  0  0  0
   44.8638    4.8938   11.6614 C   0  0  0  0  0  0  0  0  0  0  0  0
   44.6003    4.0744   10.5554 C   0  0  0  0  0  0  0  0  0  0  0  0
   43.7856    2.9588   10.6793 C   0  0  0  0  0  0  0  0  0  0  0  0
   44.3245    4.6147   12.9060 C   0  0  0  0  0  0  0  0  0  0  0  0
   43.5159    3.4839   13.0388 C   0  0  0  0  0  0  0  0  0  0  0  0
   43.2482    2.6615   11.9335 C   0  0  0  0  0  0  0  0  0  0  0  0
   46.2495    4.1957    8.4324 N   0  0  0  0  0  0  0  0  0  0  0  0
   45.8807    3.2672    7.3737 C   0  0  0  0  0  0  0  0  0  0  0  0
   47.0926    2.6434    6.8261 C   0  0  0  0  0  0  0  0  0  0  0  0
   48.0840    2.1326    6.3798 C   0  0  0  0  0  0  0  0  0  0  0  0
   45.0903    4.7928    9.0824 C   0  0  2  0  0  0  0  0  0  0  0  0
   45.4746    6.1802    9.6441 C   0  0  0  0  0  0  0  0  0  0  0  0
   44.4952    6.4597   10.7894 C   0  0  0  0  0  0  0  0  0  0  0  0
   44.2713    5.0730   11.3084 C   0  0  0  0  0  0  0  0  0  0  0  0
   44.6208    4.1131   10.3452 C   0  0  0  0  0  0  0  0  0  0  0  0
   44.4574    2.7626   10.6168 C   0  0  0  0  0  0  0  0  0  0  0  0
   43.7577    4.7084   12.5424 C   0  0  0  0  0  0  0  0  0  0  0  0
   43.6046    3.3500   12.8198 C   0  0  0  0  0  0  0  0  0  0  0  0
   43.9527    2.3841   11.8644 C   0  0  0  0  0  0  0  0  0  0  0  0
   45.6661    3.2889    6.4463 H   0  0  0  0  0  0  0  0  0  0  0  0
   43.7473    3.5883    9.2898 H   0  0  0  0  0  0  0  0  0  0  0  0
   46.4497    4.6847   10.3602 H   0  0  0  0  0  0  0  0  0  0  0  0
   44.5270    4.9850   13.2014 H   0  0  0  0  0  0  0  0  0  0  0  0
   44.3535    6.1934    9.2188 H   0  0  0  0  0  0  0  0  0  0  0  0
   45.8459    2.0816   10.4299 H   0  0  0  0  0  0  0  0  0  0  0  0
   46.5110    3.0676    8.9545 H   0  0  0  0  0  0  0  0  0  0  0  0
   47.1916    4.8189    7.4435 H   0  0  0  0  0  0  0  0  0  0  0  0
   45.6079    4.6814    6.6611 H   0  0  0  0  0  0  0  0  0  0  0  0
   47.6566    1.3222    5.1233 H   0  0  0  0  0  0  0  0  0  0  0  0
   44.5016    5.2280    8.7828 H   0  0  0  0  0  0  0  0  0  0  0  0
   46.6186    6.3662    9.2920 H   0  0  0  0  0  0  0  0  0  0  0  0
   47.2311    4.9701   10.1817 H   0  0  0  0  0  0  0  0  0  0  0  0
   46.4986    6.2716   12.0067 H   0  0  0  0  0  0  0  0  0  0  0  0
   45.1006    6.9442   11.1056 H   0  0  0  0  0  0  0  0  0  0  0  0
   43.5705    2.3312    9.8195 H   0  0  0  0  0  0  0  0  0  0  0  0
   44.5207    5.2555   13.7594 H   0  0  0  0  0  0  0  0  0  0  0  0
   43.0835    3.2400   14.0061 H   0  0  0  0  0  0  0  0  0  0  0  0
   42.6115    1.7884   12.0529 H   0  0  0  0  0  0  0  0  0  0  0  0
   46.8223    3.7211    9.1286 H   0  0  0  0  0  0  0  0  0  0  0  0
   45.2081    2.4842    7.7368 H   0  0  0  0  0  0  0  0  0  0  0  0
   45.3609    3.8035    6.5714 H   0  0  0  0  0  0  0  0  0  0  0  0
   48.9674    1.6867    5.9847 H   0  0  0  0  0  0  0  0  0  0  0  0
   44.2421    4.9121    8.3954 H   0  0  0  0  0  0  0  0  0  0  0  0
   46.4966    6.1636   10.0520 H   0  0  0  0  0  0  0  0  0  0  0  0
   45.4489    6.9618    8.8771 H   0  0  0  0  0  0  0  0  0  0  0  0
   44.9360    7.1225   11.5391 H   0  0  0  0  0  0  0  0  0  0  0  0
   43.5555    6.8815   10.4183 H   0  0  0  0  0  0  0  0  0  0  0  0
   44.7103    2.0012    9.8880 H   0  0  0  0  0  0  0  0  0  0  0  0
   43.4816    5.4567   13.2783 H   0  0  0  0  0  0  0  0  0  0  0  0
   43.2086    3.0363   13.7826 H   0  0  0  0  0  0  0  0  0  0  0  0
   43.8227    1.3296   12.0959 H   0  0  0  0  0  0  0  0  0  0  0  0
  1  2  1  0
  2  3  1  0
  3  4  1  0
  4  5  1  0
  5  6  1  0
  2  7  2  0
  4  8  1  0
  3  9  1  0
  5 10  2  0
 12 11  1  0
 15 11  1  0
 12 13  1  0
 13 14  3  0
 16 15  1  0
 19 15  1  0
 16 17  1  0
 17 18  1  0
 18 19  2  0
 18 21  1  0
 20 19  1  0
 23 20  2  0
 21 22  2  0
 22 23  1  0
 25 24  1  0
 28 24  1  0
 25 26  1  0
 26 27  3  0
 29 28  1  0
 32 28  1  0
 29 30  1  0
 30 31  1  0
 31 32  2  0
 31 34  1  0
 33 32  1  0
 36 33  2  0
 34 35  2  0
 35 36  1  0
  1 37  1  0
  3 38  1  1
  4 39  1  6
  6 40  1  0
  8 41  1  0
  9 42  1  0
 11 43  1  0
 12 44  1  0
 12 45  1  0
 14 46  1  0
 15 47  1  1
 16 48  1  0
 16 49  1  0
 17 50  1  0
 17 51  1  0
 20 52  1  0
 21 53  1  0
 22 54  1  0
 23 55  1  0
 24 56  1  0
 25 57  1  0
 25 58  1  0
 27 59  1  0
 28 60  1  1
 29 61  1  0
 29 62  1  0
 30 63  1  0
 30 64  1  0
 33 65  1  0
 34 66  1  0
 35 67  1  0
 36 68  1  0
M  END
> <Uni-Dock RESULT> 
ENERGY=   -8.414  LOWER_BOUND=    1.881  UPPER_BOUND=    4.748
INTER + INTRA:          -8.414
INTER:                  -8.414
INTRA:                   0.000
UNBOUND:                 0.000

$$$$

     RDKit          3D

 68 69  0  0  0  0  0  0  0  0999 V2000
   47.6432    3.3918   14.4667 O   0  0  0  0  0  0  0  0  0  0  0  0
   46.5084    4.0579   14.7463 C   0  0  0  0  0  0  0  0  0  0  0  0
   45.7648    4.5604   13.5204 C   0  0  2  0  0  0  0  0  0  0  0  0
   46.2555    5.9676   13.1782 C   0  0  2  0  0  0  0  0  0  0  0  0
   45.5131    6.4694   11.9513 C   0  0  0  0  0  0  0  0  0  0  0  0
   44.3769    7.1339   12.2292 O   0  0  0  0  0  0  0  0  0  0  0  0
   46.1319    4.2057   15.9009 O   0  0  0  0  0  0  0  0  0  0  0  0
   47.6593    5.9731   12.8783 O   0  0  0  0  0  0  0  0  0  0  0  0
   44.3614    4.5553   13.8217 O   0  0  0  0  0  0  0  0  0  0  0  0
   45.8918    6.3225   10.7972 O   0  0  0  0  0  0  0  0  0  0  0  0
   46.7324    4.5571   14.6360 N   0  0  0  0  0  0  0  0  0  0  0  0
   48.0526    4.4892   15.2471 C   0  0  0  0  0  0  0  0  0  0  0  0
   47.9844    3.6718   16.4656 C   0  0  0  0  0  0  0  0  0  0  0  0
   47.9279    3.0040   17.4624 C   0  0  0  0  0  0  0  0  0  0  0  0
   46.7290    5.3400   13.4063 C   0  0  2  0  0  0  0  0  0  0  0  0
   46.9550    6.8547   13.6192 C   0  0  0  0  0  0  0  0  0  0  0  0
   46.2605    7.5626   12.4471 C   0  0  0  0  0  0  0  0  0  0  0  0
   45.1235    6.6266   12.1830 C   0  0  0  0  0  0  0  0  0  0  0  0
   45.3809    5.3632   12.7322 C   0  0  0  0  0  0  0  0  0  0  0  0
   44.4782    4.3231   12.5683 C   0  0  0  0  0  0  0  0  0  0  0  0
   43.9649    6.8751   11.4664 C   0  0  0  0  0  0  0  0  0  0  0  0
   43.0460    5.8350   11.3119 C   0  0  0  0  0  0  0  0  0  0  0  0
   43.3005    4.5678   11.8589 C   0  0  0  0  0  0  0  0  0  0  0  0
   47.1869    5.1578   14.7167 N   0  0  0  0  0  0  0  0  0  0  0  0
   47.3275    3.7982   15.2174 C   0  0  0  0  0  0  0  0  0  0  0  0
   47.4290    3.8246   16.6826 C   0  0  0  0  0  0  0  0  0  0  0  0
   47.5106    3.8469   17.8808 C   0  0  0  0  0  0  0  0  0  0  0  0
   46.9961    5.2060   13.2731 C   0  0  2  0  0  0  0  0  0  0  0  0
   47.5304    6.5501   12.7291 C   0  0  0  0  0  0  0  0  0  0  0  0
   46.7767    6.8069   11.4196 C   0  0  0  0  0  0  0  0  0  0  0  0
   45.4526    6.1821   11.7338 C   0  0  0  0  0  0  0  0  0  0  0  0
   45.5647    5.2755   12.8001 C   0  0  0  0  0  0  0  0  0  0  0  0
   44.4541    4.5631   13.2282 C   0  0  0  0  0  0  0  0  0  0  0  0
   44.2475    6.3902   11.0828 C   0  0  0  0  0  0  0  0  0  0  0  0
   43.1282    5.6826   11.5211 C   0  0  0  0  0  0  0  0  0  0  0  0
   43.2305    4.7764   12.5866 C   0  0  0  0  0  0  0  0  0  0  0  0
   48.0131    3.1493   15.3414 H   0  0  0  0  0  0  0  0  0  0  0  0
   45.9257    3.8574   12.6959 H   0  0  0  0  0  0  0  0  0  0  0  0
   46.0935    6.6710   14.0022 H   0  0  0  0  0  0  0  0  0  0  0  0
   44.0080    7.3760   11.3539 H   0  0  0  0  0  0  0  0  0  0  0  0
   47.7568    5.6623   11.9554 H   0  0  0  0  0  0  0  0  0  0  0  0
   44.2649    4.8678   14.7442 H   0  0  0  0  0  0  0  0  0  0  0  0
   46.0745    4.9642   15.2987 H   0  0  0  0  0  0  0  0  0  0  0  0
   48.4186    5.4881   15.5089 H   0  0  0  0  0  0  0  0  0  0  0  0
   48.7701    4.0392   14.5516 H   0  0  0  0  0  0  0  0  0  0  0  0
   47.8714    2.4065   18.3428 H   0  0  0  0  0  0  0  0  0  0  0  0
   47.4551    4.9415   12.6858 H   0  0  0  0  0  0  0  0  0  0  0  0
   48.0167    7.1151   13.6839 H   0  0  0  0  0  0  0  0  0  0  0  0
   46.4843    7.1838   14.5574 H   0  0  0  0  0  0  0  0  0  0  0  0
   45.9230    8.5637   12.7294 H   0  0  0  0  0  0  0  0  0  0  0  0
   46.9155    7.6186   11.5716 H   0  0  0  0  0  0  0  0  0  0  0  0
   44.6836    3.3403   12.9824 H   0  0  0  0  0  0  0  0  0  0  0  0
   43.7712    7.8508   11.0328 H   0  0  0  0  0  0  0  0  0  0  0  0
   42.1264    6.0049   10.7572 H   0  0  0  0  0  0  0  0  0  0  0  0
   42.5773    3.7673   11.7239 H   0  0  0  0  0  0  0  0  0  0  0  0
   46.4051    5.6203   15.1782 H   0  0  0  0  0  0  0  0  0  0  0  0
   46.4795    3.1698   14.9288 H   0  0  0  0  0  0  0  0  0  0  0  0
   48.2338    3.3404   14.8044 H   0  0  0  0  0  0  0  0  0  0  0  0
   47.5874    3.8735   18.9432 H   0  0  0  0  0  0  0  0  0  0  0  0
   47.5114    4.3855   12.7565 H   0  0  0  0  0  0  0  0  0  0  0  0
   47.3061    7.3684   13.4299 H   0  0  0  0  0  0  0  0  0  0  0  0
   48.6165    6.5395   12.5867 H   0  0  0  0  0  0  0  0  0  0  0  0
   46.6964    7.8767   11.2081 H   0  0  0  0  0  0  0  0  0  0  0  0
   47.2491    6.2901   10.5780 H   0  0  0  0  0  0  0  0  0  0  0  0
   44.5148    3.8504   14.0426 H   0  0  0  0  0  0  0  0  0  0  0  0
   44.1708    7.0861   10.2535 H   0  0  0  0  0  0  0  0  0  0  0  0
   42.1689    5.8310   11.0311 H   0  0  0  0  0  0  0  0  0  0  0  0
   42.3486    4.2300   12.9125 H   0  0  0  0  0  0  0  0  0  0  0  0
  1  2  1  0
  2  3  1  0
  3  4  1  0
  4  5  1  0
  5  6  1  0
  2  7  2  0
  4  8  1  0
  3  9  1  0
  5 10  2  0
 12 11  1  0
 15 11  1  0
 12 13  1  0
 13 14  3  0
 16 15  1  0
 19 15  1  0
 16 17  1  0
 17 18  1  0
 18 19  2  0
 18 21  1  0
 20 19  1  0
 23 20  2  0
 21 22  2  0
 22 23  1  0
 25 24  1  0
 28 24  1  0
 25 26  1  0
 26 27  3  0
 29 28  1  0
 32 28  1  0
 29 30  1  0
 30 31  1  0
 31 32  2  0
 31 34  1  0
 33 32  1  0
 36 33  2  0
 34 35  2  0
 35 36  1  0
  1 37  1  0
  3 38  1  1
  4 39  1  6
  6 40  1  0
  8 41  1  0
  9 42  1  0
 11 43  1  0
 12 44  1  0
 12 45  1  0
 14 46  1  0
 15 47  1  1
 16 48  1  0
 16 49  1  0
 17 50  1  0
 17 51  1  0
 20 52  1  0
 21 53  1  0
 22 54  1  0
 23 55  1  0
 24 56  1  0
 25 57  1  0
 25 58  1  0
 27 59  1  0
 28 60  1  1
 29 61  1  0
 29 62  1  0
 30 63  1  0
 30 64  1  0
 33 65  1  0
 34 66  1  0
 35 67  1  0
 36 68  1  0
M  END
> <Uni-Dock RESULT> 
ENERGY=   -7.614  LOWER_BOUND=    2.564  UPPER_BOUND=    4.550
INTER + INTRA:          -7.614
INTER:                  -7.614
INTRA:                   0.000
UNBOUND:                 0.000

$$$$

     RDKit          3D

 68 69  0  0  0  0  0  0  0  0999 V2000
   43.8269   10.1636   12.2418 O   0  0  0  0  0  0  0  0  0  0  0  0
   44.3436    9.1505   11.5231 C   0  0  0  0  0  0  0  0  0  0  0  0
   45.1181    8.1360   12.3471 C   0  0  2  0  0  0  0  0  0  0  0  0
   46.5864    8.5582   12.4113 C   0  0  2  0  0  0  0  0  0  0  0  0
   47.3606    7.5445   13.2367 C   0  0  0  0  0  0  0  0  0  0  0  0
   47.8760    6.5295   12.5197 O   0  0  0  0  0  0  0  0  0  0  0  0
   44.1639    9.0782   10.3151 O   0  0  0  0  0  0  0  0  0  0  0  0
   46.7342    9.8421   13.0359 O   0  0  0  0  0  0  0  0  0  0  0  0
   44.9703    6.8528   11.7211 O   0  0  0  0  0  0  0  0  0  0  0  0
   47.5411    7.6190   14.4445 O   0  0  0  0  0  0  0  0  0  0  0  0
   44.8637    9.3514   11.5478 N   0  0  0  0  0  0  0  0  0  0  0  0
   44.6964   10.7805   11.3229 C   0  0  0  0  0  0  0  0  0  0  0  0
   43.5838   11.0002   10.3894 C   0  0  0  0  0  0  0  0  0  0  0  0
   42.6745   11.1792    9.6252 C   0  0  0  0  0  0  0  0  0  0  0  0
   45.9428    9.0589   12.4834 C   0  0  2  0  0  0  0  0  0  0  0  0
   47.3560    9.3661   11.9363 C   0  0  0  0  0  0  0  0  0  0  0  0
   48.3165    8.4173   12.6675 C   0  0  0  0  0  0  0  0  0  0  0  0
   47.4332    7.2289   12.8826 C   0  0  0  0  0  0  0  0  0  0  0  0
   46.0825    7.5860   12.7720 C   0  0  0  0  0  0  0  0  0  0  0  0
   45.0831    6.6470   12.9796 C   0  0  0  0  0  0  0  0  0  0  0  0
   47.8097    5.9340   13.1975 C   0  0  0  0  0  0  0  0  0  0  0  0
   46.8071    4.9817   13.3923 C   0  0  0  0  0  0  0  0  0  0  0  0
   45.4532    5.3354   13.2841 C   0  0  0  0  0  0  0  0  0  0  0  0
   45.4417    9.8255   11.4245 N   0  0  0  0  0  0  0  0  0  0  0  0
   44.0059   10.0551   11.3560 C   0  0  0  0  0  0  0  0  0  0  0  0
   43.6487   10.5204   10.0093 C   0  0  0  0  0  0  0  0  0  0  0  0
   43.3571   10.8995    8.9073 C   0  0  0  0  0  0  0  0  0  0  0  0
   45.8609    9.2810   12.7092 C   0  0  2  0  0  0  0  0  0  0  0  0
   47.3237    9.6935   12.9890 C   0  0  0  0  0  0  0  0  0  0  0  0
   47.8832    8.6424   13.9539 C   0  0  0  0  0  0  0  0  0  0  0  0
   47.1385    7.4248   13.5010 C   0  0  0  0  0  0  0  0  0  0  0  0
   45.9884    7.7789   12.7777 C   0  0  0  0  0  0  0  0  0  0  0  0
   45.1389    6.7942   12.2948 C   0  0  0  0  0  0  0  0  0  0  0  0
   47.4567    6.1003   13.7542 C   0  0  0  0  0  0  0  0  0  0  0  0
   46.6087    5.1101   13.2584 C   0  0  0  0  0  0  0  0  0  0  0  0
   45.4587    5.4544   12.5332 C   0  0  0  0  0  0  0  0  0  0  0  0
   43.3789   10.7347   11.5832 H   0  0  0  0  0  0  0  0  0  0  0  0
   44.6660    8.0692   13.3426 H   0  0  0  0  0  0  0  0  0  0  0  0
   47.0390    8.6237   11.4158 H   0  0  0  0  0  0  0  0  0  0  0  0
   48.3239    5.9593   13.1792 H   0  0  0  0  0  0  0  0  0  0  0  0
   46.6831    9.6985   14.0026 H   0  0  0  0  0  0  0  0  0  0  0  0
   45.0233    6.9973   10.7546 H   0  0  0  0  0  0  0  0  0  0  0  0
   45.0512    8.8898   10.6593 H   0  0  0  0  0  0  0  0  0  0  0  0
   45.6061   11.2235   10.9026 H   0  0  0  0  0  0  0  0  0  0  0  0
   44.4791   11.2907   12.2682 H   0  0  0  0  0  0  0  0  0  0  0  0
   41.8637   11.3307    8.9508 H   0  0  0  0  0  0  0  0  0  0  0  0
   45.7821    9.5723   13.4404 H   0  0  0  0  0  0  0  0  0  0  0  0
   47.6377   10.4160   12.0687 H   0  0  0  0  0  0  0  0  0  0  0  0
   47.4039    9.1527   10.8583 H   0  0  0  0  0  0  0  0  0  0  0  0
   49.1911    8.1845   12.0538 H   0  0  0  0  0  0  0  0  0  0  0  0
   48.6313    8.8338   13.6298 H   0  0  0  0  0  0  0  0  0  0  0  0
   44.0361    6.9265   12.9070 H   0  0  0  0  0  0  0  0  0  0  0  0
   48.8556    5.6609   13.2930 H   0  0  0  0  0  0  0  0  0  0  0  0
   47.0759    3.9569   13.6364 H   0  0  0  0  0  0  0  0  0  0  0  0
   44.6850    4.5830   13.4450 H   0  0  0  0  0  0  0  0  0  0  0  0
   45.7300    9.1949   10.6780 H   0  0  0  0  0  0  0  0  0  0  0  0
   43.4385    9.1475   11.5832 H   0  0  0  0  0  0  0  0  0  0  0  0
   43.7149   10.8185   12.0868 H   0  0  0  0  0  0  0  0  0  0  0  0
   43.1056   11.2401    7.9296 H   0  0  0  0  0  0  0  0  0  0  0  0
   45.2303    9.6315   13.5368 H   0  0  0  0  0  0  0  0  0  0  0  0
   47.9168    9.6706   12.0623 H   0  0  0  0  0  0  0  0  0  0  0  0
   47.4002   10.7088   13.3927 H   0  0  0  0  0  0  0  0  0  0  0  0
   48.9661    8.5367   13.8454 H   0  0  0  0  0  0  0  0  0  0  0  0
   47.6290    8.8772   14.9926 H   0  0  0  0  0  0  0  0  0  0  0  0
   44.2398    7.0401   11.7416 H   0  0  0  0  0  0  0  0  0  0  0  0
   48.3428    5.8350   14.3218 H   0  0  0  0  0  0  0  0  0  0  0  0
   46.8378    4.0625   13.4382 H   0  0  0  0  0  0  0  0  0  0  0  0
   44.8064    4.6695   12.1578 H   0  0  0  0  0  0  0  0  0  0  0  0
  1  2  1  0
  2  3  1  0
  3  4  1  0
  4  5  1  0
  5  6  1  0
  2  7  2  0
  4  8  1  0
  3  9  1  0
  5 10  2  0
 12 11  1  0
 15 11  1  0
 12 13  1  0
 13 14  3  0
 16 15  1  0
 19 15  1  0
 16 17  1  0
 17 18  1  0
 18 19  2  0
 18 21  1  0
 20 19  1  0
 23 20  2  0
 21 22  2  0
 22 23  1  0
 25 24  1  0
 28 24  1  0
 25 26  1  0
 26 27  3  0
 29 28  1  0
 32 28  1  0
 29 30  1  0
 30 31  1  0
 31 32  2  0
 31 34  1  0
 33 32  1  0
 36 33  2  0
 34 35  2  0
 35 36  1  0
  1 37  1  0
  3 38  1  1
  4 39  1  6
  6 40  1  0
  8 41  1  0
  9 42  1  0
 11 43  1  0
 12 44  1  0
 12 45  1  0
 14 46  1  0
 15 47  1  1
 16 48  1  0
 16 49  1  0
 17 50  1  0
 17 51  1  0
 20 52  1  0
 21 53  1  0
 22 54  1  0
 23 55  1  0
 24 56  1  0
 25 57  1  0
 25 58  1  0
 27 59  1  0
 28 60  1  1
 29 61  1  0
 29 62  1  0
 30 63  1  0
 30 64  1  0
 33 65  1  0
 34 66  1  0
 35 67  1  0
 36 68  1  0
M  END
> <Uni-Dock RESULT> 
ENERGY=   -7.162  LOWER_BOUND=    2.811  UPPER_BOUND=    4.843
INTER + INTRA:          -7.162
INTER:                  -7.162
INTRA:                   0.000
UNBOUND:                 0.000

$$$$

     RDKit          3D

 68 69  0  0  0  0  0  0  0  0999 V2000
   46.7642    4.7281   18.3543 O   0  0  0  0  0  0  0  0  0  0  0  0
   47.7712    4.6794   19.2450 C   0  0  0  0  0  0  0  0  0  0  0  0
   47.5535    5.5420   20.4766 C   0  0  2  0  0  0  0  0  0  0  0  0
   48.1294    6.9352   20.2212 C   0  0  2  0  0  0  0  0  0  0  0  0
   47.9103    7.7983   21.4522 C   0  0  0  0  0  0  0  0  0  0  0  0
   48.9155    7.7490   22.3449 O   0  0  0  0  0  0  0  0  0  0  0  0
   48.7505    3.9721   19.0518 O   0  0  0  0  0  0  0  0  0  0  0  0
   47.4797    7.5741   19.1121 O   0  0  0  0  0  0  0  0  0  0  0  0
   48.2043    4.9026   21.5847 O   0  0  0  0  0  0  0  0  0  0  0  0
   46.9311    8.5065   21.6433 O   0  0  0  0  0  0  0  0  0  0  0  0
   47.9665    5.1831   19.1050 N   0  0  0  0  0  0  0  0  0  0  0  0
   47.8904    5.1944   17.6507 C   0  0  0  0  0  0  0  0  0  0  0  0
   48.1527    3.8431   17.1382 C   0  0  0  0  0  0  0  0  0  0  0  0
   48.3683    2.7379   16.7197 C   0  0  0  0  0  0  0  0  0  0  0  0
   47.6965    6.4928   19.6855 C   0  0  2  0  0  0  0  0  0  0  0  0
   48.7956    7.5455   19.4122 C   0  0  0  0  0  0  0  0  0  0  0  0
   48.7372    8.5419   20.5789 C   0  0  0  0  0  0  0  0  0  0  0  0
   48.2961    7.6477   21.6945 C   0  0  0  0  0  0  0  0  0  0  0  0
   47.7100    6.4777   21.1928 C   0  0  0  0  0  0  0  0  0  0  0  0
   47.1872    5.5233   22.0526 C   0  0  0  0  0  0  0  0  0  0  0  0
   48.3738    7.8843   23.0568 C   0  0  0  0  0  0  0  0  0  0  0  0
   47.8624    6.9190   23.9267 C   0  0  0  0  0  0  0  0  0  0  0  0
   47.2732    5.7466   23.4284 C   0  0  0  0  0  0  0  0  0  0  0  0
   48.2811    5.7212   18.6742 N   0  0  0  0  0  0  0  0  0  0  0  0
   47.6357    4.4721   18.2969 C   0  0  0  0  0  0  0  0  0  0  0  0
   48.5799    3.6445   17.5345 C   0  0  0  0  0  0  0  0  0  0  0  0
   49.3530    2.9677   16.9123 C   0  0  0  0  0  0  0  0  0  0  0  0
   47.4309    6.5614   19.5072 C   0  0  2  0  0  0  0  0  0  0  0  0
   47.8176    8.0438   19.3047 C   0  0  0  0  0  0  0  0  0  0  0  0
   47.3809    8.7736   20.5796 C   0  0  0  0  0  0  0  0  0  0  0  0
   47.5916    7.6991   21.6011 C   0  0  0  0  0  0  0  0  0  0  0  0
   47.6348    6.4325   20.9969 C   0  0  0  0  0  0  0  0  0  0  0  0
   47.7909    5.2947   21.7751 C   0  0  0  0  0  0  0  0  0  0  0  0
   47.6998    7.8518   22.9739 C   0  0  0  0  0  0  0  0  0  0  0  0
   47.8686    6.7086   23.7551 C   0  0  0  0  0  0  0  0  0  0  0  0
   47.9148    5.4394   23.1600 C   0  0  0  0  0  0  0  0  0  0  0  0
   47.0510    4.1455   17.6202 H   0  0  0  0  0  0  0  0  0  0  0  0
   46.4817    5.5752   20.7006 H   0  0  0  0  0  0  0  0  0  0  0  0
   49.2016    6.9021   19.9985 H   0  0  0  0  0  0  0  0  0  0  0  0
   48.6277    8.3320   23.0784 H   0  0  0  0  0  0  0  0  0  0  0  0
   46.6318    7.9327   19.4441 H   0  0  0  0  0  0  0  0  0  0  0  0
   49.0529    4.5459   21.2521 H   0  0  0  0  0  0  0  0  0  0  0  0
   48.8923    4.8697   19.3918 H   0  0  0  0  0  0  0  0  0  0  0  0
   48.6239    5.8860   17.2219 H   0  0  0  0  0  0  0  0  0  0  0  0
   46.8944    5.5155   17.3252 H   0  0  0  0  0  0  0  0  0  0  0  0
   48.5555    1.7543   16.3558 H   0  0  0  0  0  0  0  0  0  0  0  0
   46.7165    6.8695   19.3647 H   0  0  0  0  0  0  0  0  0  0  0  0
   48.6698    8.0411   18.4438 H   0  0  0  0  0  0  0  0  0  0  0  0
   49.7876    7.0703   19.4050 H   0  0  0  0  0  0  0  0  0  0  0  0
   49.7148    8.9949   20.7657 H   0  0  0  0  0  0  0  0  0  0  0  0
   47.9889    9.3207   20.3999 H   0  0  0  0  0  0  0  0  0  0  0  0
   46.7211    4.6228   21.6638 H   0  0  0  0  0  0  0  0  0  0  0  0
   48.8185    8.7952   23.4440 H   0  0  0  0  0  0  0  0  0  0  0  0
   47.9146    7.0783   25.0009 H   0  0  0  0  0  0  0  0  0  0  0  0
   46.8743    5.0081   24.1195 H   0  0  0  0  0  0  0  0  0  0  0  0
   49.1533    5.5288   19.1644 H   0  0  0  0  0  0  0  0  0  0  0  0
   47.2943    3.9113   19.1722 H   0  0  0  0  0  0  0  0  0  0  0  0
   46.7579    4.6791   17.6739 H   0  0  0  0  0  0  0  0  0  0  0  0
   50.0418    2.3741   16.3568 H   0  0  0  0  0  0  0  0  0  0  0  0
   46.3652    6.4388   19.2731 H   0  0  0  0  0  0  0  0  0  0  0  0
   48.9076    8.1485   19.1958 H   0  0  0  0  0  0  0  0  0  0  0  0
   47.3635    8.4735   18.4052 H   0  0  0  0  0  0  0  0  0  0  0  0
   47.9983    9.6567   20.7657 H   0  0  0  0  0  0  0  0  0  0  0  0
   46.3235    9.0543   20.5378 H   0  0  0  0  0  0  0  0  0  0  0  0
   47.8181    4.3044   21.3354 H   0  0  0  0  0  0  0  0  0  0  0  0
   47.6565    8.8336   23.4342 H   0  0  0  0  0  0  0  0  0  0  0  0
   47.9614    6.8004   24.8345 H   0  0  0  0  0  0  0  0  0  0  0  0
   48.0425    4.5586   23.7846 H   0  0  0  0  0  0  0  0  0  0  0  0
  1  2  1  0
  2  3  1  0
  3  4  1  0
  4  5  1  0
  5  6  1  0
  2  7  2  0
  4  8  1  0
  3  9  1  0
  5 10  2  0
 12 11  1  0
 15 11  1  0
 12 13  1  0
 13 14  3  0
 16 15  1  0
 19 15  1  0
 16 17  1  0
 17 18  1  0
 18 19  2  0
 18 21  1  0
 20 19  1  0
 23 20  2  0
 21 22  2  0
 22 23  1  0
 25 24  1  0
 28 24  1  0
 25 26  1  0
 26 27  3  0
 29 28  1  0
 32 28  1  0
 29 30  1  0
 30 31  1  0
 31 32  2  0
 31 34  1  0
 33 32  1  0
 36 33  2  0
 34 35  2  0
 35 36  1  0
  1 37  1  0
  3 38  1  1
  4 39  1  6
  6 40  1  0
  8 41  1  0
  9 42  1  0
 11 43  1  0
 12 44  1  0
 12 45  1  0
 14 46  1  0
 15 47  1  1
 16 48  1  0
 16 49  1  0
 17 50  1  0
 17 51  1  0
 20 52  1  0
 21 53  1  0
 22 54  1  0
 23 55  1  0
 24 56  1  0
 25 57  1  0
 25 58  1  0
 27 59  1  0
 28 60  1  1
 29 61  1  0
 29 62  1  0
 30 63  1  0
 30 64  1  0
 33 65  1  0
 34 66  1  0
 35 67  1  0
 36 68  1  0
M  END
> <Uni-Dock RESULT> 
ENERGY=   -6.834  LOWER_BOUND=    8.338  UPPER_BOUND=   10.933
INTER + INTRA:          -6.834
INTER:                  -6.834
INTRA:                   0.000
UNBOUND:                 0.000

$$$$

     RDKit          3D

 68 69  0  0  0  0  0  0  0  0999 V2000
   49.4356    5.0345   18.7912 O   0  0  0  0  0  0  0  0  0  0  0  0
   48.2303    5.6233   18.8926 C   0  0  0  0  0  0  0  0  0  0  0  0
   48.2235    6.8824   19.7428 C   0  0  2  0  0  0  0  0  0  0  0  0
   47.9253    6.5056   21.1944 C   0  0  2  0  0  0  0  0  0  0  0  0
   47.9201    7.7646   22.0450 C   0  0  0  0  0  0  0  0  0  0  0  0
   46.7158    8.3558   22.1455 O   0  0  0  0  0  0  0  0  0  0  0  0
   47.2535    5.1642   18.3166 O   0  0  0  0  0  0  0  0  0  0  0  0
   48.9255    5.6208   21.7208 O   0  0  0  0  0  0  0  0  0  0  0  0
   47.2224    7.7660   19.2162 O   0  0  0  0  0  0  0  0  0  0  0  0
   48.8973    8.2216   22.6220 O   0  0  0  0  0  0  0  0  0  0  0  0
   48.1475    5.4446   19.4148 N   0  0  0  0  0  0  0  0  0  0  0  0
   48.6094    4.0637   19.3878 C   0  0  0  0  0  0  0  0  0  0  0  0
   48.3174    3.4776   18.0729 C   0  0  0  0  0  0  0  0  0  0  0  0
   48.0775    2.9986   16.9978 C   0  0  0  0  0  0  0  0  0  0  0  0
   48.4231    6.0976   20.6887 C   0  0  2  0  0  0  0  0  0  0  0  0
   47.5854    5.5584   21.8712 C   0  0  0  0  0  0  0  0  0  0  0  0
   47.4614    6.7147   22.8737 C   0  0  0  0  0  0  0  0  0  0  0  0
   47.4673    7.8926   21.9512 C   0  0  0  0  0  0  0  0  0  0  0  0
   48.0064    7.5462   20.7048 C   0  0  0  0  0  0  0  0  0  0  0  0
   48.1505    8.4985   19.7068 C   0  0  0  0  0  0  0  0  0  0  0  0
   47.0611    9.1885   22.2223 C   0  0  0  0  0  0  0  0  0  0  0  0
   47.1902   10.1472   21.2152 C   0  0  0  0  0  0  0  0  0  0  0  0
   47.7311    9.8050   19.9661 C   0  0  0  0  0  0  0  0  0  0  0  0
   48.0329    4.9544   19.9811 N   0  0  0  0  0  0  0  0  0  0  0  0
   48.5850    4.7424   18.6510 C   0  0  0  0  0  0  0  0  0  0  0  0
   47.7778    3.7422   17.9400 C   0  0  0  0  0  0  0  0  0  0  0  0
   47.1163    2.9252   17.3587 C   0  0  0  0  0  0  0  0  0  0  0  0
   48.7332    5.9978   20.7183 C   0  0  2  0  0  0  0  0  0  0  0  0
   48.6135    5.7239   22.2344 C   0  0  0  0  0  0  0  0  0  0  0  0
   48.7867    7.0810   22.9251 C   0  0  0  0  0  0  0  0  0  0  0  0
   48.1716    7.9914   21.9077 C   0  0  0  0  0  0  0  0  0  0  0  0
   48.1245    7.3767   20.6462 C   0  0  0  0  0  0  0  0  0  0  0  0
   47.6180    8.0662   19.5542 C   0  0  0  0  0  0  0  0  0  0  0  0
   47.7224    9.2879   22.0999 C   0  0  0  0  0  0  0  0  0  0  0  0
   47.2023    9.9767   21.0041 C   0  0  0  0  0  0  0  0  0  0  0  0
   47.1496    9.3700   19.7408 C   0  0  0  0  0  0  0  0  0  0  0  0
   49.2807    4.2409   18.2372 H   0  0  0  0  0  0  0  0  0  0  0  0
   49.1914    7.3847   19.6393 H   0  0  0  0  0  0  0  0  0  0  0  0
   46.9567    6.0045   21.2982 H   0  0  0  0  0  0  0  0  0  0  0  0
   46.8719    9.1489   22.6998 H   0  0  0  0  0  0  0  0  0  0  0  0
   49.6938    6.1728   21.9712 H   0  0  0  0  0  0  0  0  0  0  0  0
   46.4539    7.2132   18.9677 H   0  0  0  0  0  0  0  0  0  0  0  0
   47.1458    5.4688   19.2314 H   0  0  0  0  0  0  0  0  0  0  0  0
   48.1145    3.4662   20.1613 H   0  0  0  0  0  0  0  0  0  0  0  0
   49.6894    4.0211   19.5689 H   0  0  0  0  0  0  0  0  0  0  0  0
   47.8662    2.5817   16.0404 H   0  0  0  0  0  0  0  0  0  0  0  0
   49.4940    6.0562   20.9270 H   0  0  0  0  0  0  0  0  0  0  0  0
   48.0290    4.6669   22.3270 H   0  0  0  0  0  0  0  0  0  0  0  0
   46.5776    5.2790   21.5304 H   0  0  0  0  0  0  0  0  0  0  0  0
   46.5379    6.6413   23.4548 H   0  0  0  0  0  0  0  0  0  0  0  0
   48.3262    6.7547   23.5438 H   0  0  0  0  0  0  0  0  0  0  0  0
   48.5805    8.2333   18.7454 H   0  0  0  0  0  0  0  0  0  0  0  0
   46.6533    9.4580   23.1911 H   0  0  0  0  0  0  0  0  0  0  0  0
   46.8749   11.1711   21.4008 H   0  0  0  0  0  0  0  0  0  0  0  0
   47.8303   10.5651   19.1952 H   0  0  0  0  0  0  0  0  0  0  0  0
   47.0441    5.1909   19.9146 H   0  0  0  0  0  0  0  0  0  0  0  0
   48.6038    5.6677   18.0672 H   0  0  0  0  0  0  0  0  0  0  0  0
   49.6165    4.3797   18.7287 H   0  0  0  0  0  0  0  0  0  0  0  0
   46.5286    2.1963   16.8501 H   0  0  0  0  0  0  0  0  0  0  0  0
   49.7970    6.0545   20.4522 H   0  0  0  0  0  0  0  0  0  0  0  0
   47.6156    5.3299   22.4794 H   0  0  0  0  0  0  0  0  0  0  0  0
   49.3435    4.9855   22.5832 H   0  0  0  0  0  0  0  0  0  0  0  0
   48.2640    7.1102   23.8852 H   0  0  0  0  0  0  0  0  0  0  0  0
   49.8444    7.3275   23.0636 H   0  0  0  0  0  0  0  0  0  0  0  0
   47.5787    7.6189   18.5676 H   0  0  0  0  0  0  0  0  0  0  0  0
   47.7704    9.7592   23.0762 H   0  0  0  0  0  0  0  0  0  0  0  0
   46.8380   10.9936   21.1283 H   0  0  0  0  0  0  0  0  0  0  0  0
   46.7449    9.9233   18.8966 H   0  0  0  0  0  0  0  0  0  0  0  0
  1  2  1  0
  2  3  1  0
  3  4  1  0
  4  5  1  0
  5  6  1  0
  2  7  2  0
  4  8  1  0
  3  9  1  0
  5 10  2  0
 12 11  1  0
 15 11  1  0
 12 13  1  0
 13 14  3  0
 16 15  1  0
 19 15  1  0
 16 17  1  0
 17 18  1  0
 18 19  2  0
 18 21  1  0
 20 19  1  0
 23 20  2  0
 21 22  2  0
 22 23  1  0
 25 24  1  0
 28 24  1  0
 25 26  1  0
 26 27  3  0
 29 28  1  0
 32 28  1  0
 29 30  1  0
 30 31  1  0
 31 32  2  0
 31 34  1  0
 33 32  1  0
 36 33  2  0
 34 35  2  0
 35 36  1  0
  1 37  1  0
  3 38  1  1
  4 39  1  6
  6 40  1  0
  8 41  1  0
  9 42  1  0
 11 43  1  0
 12 44  1  0
 12 45  1  0
 14 46  1  0
 15 47  1  1
 16 48  1  0
 16 49  1  0
 17 50  1  0
 17 51  1  0
 20 52  1  0
 21 53  1  0
 22 54  1  0
 23 55  1  0
 24 56  1  0
 25 57  1  0
 25 58  1  0
 27 59  1  0
 28 60  1  1
 29 61  1  0
 29 62  1  0
 30 63  1  0
 30 64  1  0
 33 65  1  0
 34 66  1  0
 35 67  1  0
 36 68  1  0
M  END
> <Uni-Dock RESULT> 
ENERGY=   -6.746  LOWER_BOUND=    8.246  UPPER_BOUND=   10.925
INTER + INTRA:          -6.746
INTER:                  -6.746
INTRA:                   0.000
UNBOUND:                 0.000

$$$$

     RDKit          3D

 68 69  0  0  0  0  0  0  0  0999 V2000
   44.1556    4.7599   13.4472 O   0  0  0  0  0  0  0  0  0  0  0  0
   45.2682    4.8571   12.6973 C   0  0  0  0  0  0  0  0  0  0  0  0
   46.1785    6.0107   13.0829 C   0  0  2  0  0  0  0  0  0  0  0  0
   45.7844    7.2505   12.2793 C   0  0  2  0  0  0  0  0  0  0  0  0
   46.6937    8.4047   12.6662 C   0  0  0  0  0  0  0  0  0  0  0  0
   47.8079    8.5019   11.9185 O   0  0  0  0  0  0  0  0  0  0  0  0
   45.4999    4.0526   11.8052 O   0  0  0  0  0  0  0  0  0  0  0  0
   44.4313    7.6429   12.5537 O   0  0  0  0  0  0  0  0  0  0  0  0
   47.5312    5.6176   12.8072 O   0  0  0  0  0  0  0  0  0  0  0  0
   46.4599    9.2096   13.5574 O   0  0  0  0  0  0  0  0  0  0  0  0
   45.0775    5.2945   12.4078 N   0  0  0  0  0  0  0  0  0  0  0  0
   43.6888    4.9522   12.1334 C   0  0  0  0  0  0  0  0  0  0  0  0
   43.5732    3.5005   11.9422 C   0  0  0  0  0  0  0  0  0  0  0  0
   43.4794    2.3133   11.7850 C   0  0  0  0  0  0  0  0  0  0  0  0
   45.2643    6.7234   12.6282 C   0  0  2  0  0  0  0  0  0  0  0  0
   45.0659    7.5906   11.3634 C   0  0  0  0  0  0  0  0  0  0  0  0
   45.9279    8.8455   11.5622 C   0  0  0  0  0  0  0  0  0  0  0  0
   47.0560    8.2901   12.3731 C   0  0  0  0  0  0  0  0  0  0  0  0
   46.6871    7.0798   12.9759 C   0  0  0  0  0  0  0  0  0  0  0  0
   47.5666    6.4091   13.8127 C   0  0  0  0  0  0  0  0  0  0  0  0
   48.3042    8.8490   12.5906 C   0  0  0  0  0  0  0  0  0  0  0  0
   49.1986    8.1694   13.4203 C   0  0  0  0  0  0  0  0  0  0  0  0
   48.8327    6.9579   14.0272 C   0  0  0  0  0  0  0  0  0  0  0  0
   44.6376    5.6845   11.9298 N   0  0  0  0  0  0  0  0  0  0  0  0
   44.3874    4.4330   12.6300 C   0  0  0  0  0  0  0  0  0  0  0  0
   44.1015    3.3744   11.6526 C   0  0  0  0  0  0  0  0  0  0  0  0
   43.8692    2.5089   10.8526 C   0  0  0  0  0  0  0  0  0  0  0  0
   45.0118    6.7656   12.8319 C   0  0  2  0  0  0  0  0  0  0  0  0
   44.5980    8.1188   12.2110 C   0  0  0  0  0  0  0  0  0  0  0  0
   45.5205    9.1714   12.8355 C   0  0  0  0  0  0  0  0  0  0  0  0
   46.7714    8.3695   13.0215 C   0  0  0  0  0  0  0  0  0  0  0  0
   46.4932    6.9934   13.0078 C   0  0  0  0  0  0  0  0  0  0  0  0
   47.5150    6.0745   13.1970 C   0  0  0  0  0  0  0  0  0  0  0  0
   48.0560    8.8477   13.2235 C   0  0  0  0  0  0  0  0  0  0  0  0
   49.0852    7.9233   13.4019 C   0  0  0  0  0  0  0  0  0  0  0  0
   48.8169    6.5468   13.3879 C   0  0  0  0  0  0  0  0  0  0  0  0
   43.6693    3.9943   13.0756 H   0  0  0  0  0  0  0  0  0  0  0  0
   46.0993    6.1786   14.1625 H   0  0  0  0  0  0  0  0  0  0  0  0
   45.8649    7.0832   11.1997 H   0  0  0  0  0  0  0  0  0  0  0  0
   48.2931    9.2678   12.2908 H   0  0  0  0  0  0  0  0  0  0  0  0
   44.4410    8.1349   13.3997 H   0  0  0  0  0  0  0  0  0  0  0  0
   47.5205    5.1272   11.9603 H   0  0  0  0  0  0  0  0  0  0  0  0
   45.6596    4.9930   11.6281 H   0  0  0  0  0  0  0  0  0  0  0  0
   43.3274    5.4596   11.2321 H   0  0  0  0  0  0  0  0  0  0  0  0
   43.0503    5.2569   12.9703 H   0  0  0  0  0  0  0  0  0  0  0  0
   43.4027    1.2590   11.6516 H   0  0  0  0  0  0  0  0  0  0  0  0
   44.6222    7.0817   13.4434 H   0  0  0  0  0  0  0  0  0  0  0  0
   44.0143    7.8398   11.1868 H   0  0  0  0  0  0  0  0  0  0  0  0
   45.4248    7.0552   10.4721 H   0  0  0  0  0  0  0  0  0  0  0  0
   46.2614    9.2559   10.6051 H   0  0  0  0  0  0  0  0  0  0  0  0
   45.3917    9.6100   12.1338 H   0  0  0  0  0  0  0  0  0  0  0  0
   47.2762    5.4781   14.2905 H   0  0  0  0  0  0  0  0  0  0  0  0
   48.5852    9.7913   12.1316 H   0  0  0  0  0  0  0  0  0  0  0  0
   50.1865    8.5845   13.6041 H   0  0  0  0  0  0  0  0  0  0  0  0
   49.5389    6.4449   14.6754 H   0  0  0  0  0  0  0  0  0  0  0  0
   45.3700    5.5541   11.2337 H   0  0  0  0  0  0  0  0  0  0  0  0
   45.2428    4.1328   13.2427 H   0  0  0  0  0  0  0  0  0  0  0  0
   43.5255    4.5451   13.2979 H   0  0  0  0  0  0  0  0  0  0  0  0
   43.6590    1.7466   10.1384 H   0  0  0  0  0  0  0  0  0  0  0  0
   44.5381    6.6693   13.8177 H   0  0  0  0  0  0  0  0  0  0  0  0
   44.7598    8.1114   11.1225 H   0  0  0  0  0  0  0  0  0  0  0  0
   43.5391    8.3462   12.3754 H   0  0  0  0  0  0  0  0  0  0  0  0
   45.6641   10.0242   12.1663 H   0  0  0  0  0  0  0  0  0  0  0  0
   45.1411    9.5116   13.8045 H   0  0  0  0  0  0  0  0  0  0  0  0
   47.3266    5.0071   13.2004 H   0  0  0  0  0  0  0  0  0  0  0  0
   48.2615    9.9131   13.2416 H   0  0  0  0  0  0  0  0  0  0  0  0
   50.1035    8.2715   13.5571 H   0  0  0  0  0  0  0  0  0  0  0  0
   49.6307    5.8403   13.5330 H   0  0  0  0  0  0  0  0  0  0  0  0
  1  2  1  0
  2  3  1  0
  3  4  1  0
  4  5  1  0
  5  6  1  0
  2  7  2  0
  4  8  1  0
  3  9  1  0
  5 10  2  0
 12 11  1  0
 15 11  1  0
 12 13  1  0
 13 14  3  0
 16 15  1  0
 19 15  1  0
 16 17  1  0
 17 18  1  0
 18 19  2  0
 18 21  1  0
 20 19  1  0
 23 20  2  0
 21 22  2  0
 22 23  1  0
 25 24  1  0
 28 24  1  0
 25 26  1  0
 26 27  3  0
 29 28  1  0
 32 28  1  0
 29 30  1  0
 30 31  1  0
 31 32  2  0
 31 34  1  0
 33 32  1  0
 36 33  2  0
 34 35  2  0
 35 36  1  0
  1 37  1  0
  3 38  1  1
  4 39  1  6
  6 40  1  0
  8 41  1  0
  9 42  1  0
 11 43  1  0
 12 44  1  0
 12 45  1  0
 14 46  1  0
 15 47  1  1
 16 48  1  0
 16 49  1  0
 17 50  1  0
 17 51  1  0
 20 52  1  0
 21 53  1  0
 22 54  1  0
 23 55  1  0
 24 56  1  0
 25 57  1  0
 25 58  1  0
 27 59  1  0
 28 60  1  1
 29 61  1  0
 29 62  1  0
 30 63  1  0
 30 64  1  0
 33 65  1  0
 34 66  1  0
 35 67  1  0
 36 68  1  0
M  END
> <Uni-Dock RESULT> 
ENERGY=   -6.589  LOWER_BOUND=    1.689  UPPER_BOUND=    5.380
INTER + INTRA:          -6.589
INTER:                  -6.589
INTRA:                   0.000
UNBOUND:                 0.000

$$$$

     RDKit          3D

 68 69  0  0  0  0  0  0  0  0999 V2000
   55.9500    2.8562    8.2848 O   0  0  0  0  0  0  0  0  0  0  0  0
   55.4226    3.9054    8.9410 C   0  0  0  0  0  0  0  0  0  0  0  0
   54.8602    4.9866    8.0338 C   0  0  2  0  0  0  0  0  0  0  0  0
   55.9593    6.0037    7.7247 C   0  0  2  0  0  0  0  0  0  0  0  0
   55.3973    7.0840    6.8162 C   0  0  0  0  0  0  0  0  0  0  0  0
   54.8676    8.1330    7.4710 O   0  0  0  0  0  0  0  0  0  0  0  0
   55.3986    3.9374   10.1638 O   0  0  0  0  0  0  0  0  0  0  0  0
   57.0655    5.3883    7.0478 O   0  0  0  0  0  0  0  0  0  0  0  0
   53.7548    5.6018    8.7121 O   0  0  0  0  0  0  0  0  0  0  0  0
   55.4236    7.0516    5.5935 O   0  0  0  0  0  0  0  0  0  0  0  0
   55.8557    4.2390    8.8280 N   0  0  0  0  0  0  0  0  0  0  0  0
   57.0168    3.3847    9.0355 C   0  0  0  0  0  0  0  0  0  0  0  0
   56.7397    2.4421   10.1273 C   0  0  0  0  0  0  0  0  0  0  0  0
   56.5129    1.6721   11.0210 C   0  0  0  0  0  0  0  0  0  0  0  0
   56.0532    5.1907    7.7415 C   0  0  2  0  0  0  0  0  0  0  0  0
   57.0914    6.2949    8.0477 C   0  0  0  0  0  0  0  0  0  0  0  0
   56.6894    7.5107    7.2007 C   0  0  0  0  0  0  0  0  0  0  0  0
   55.2021    7.3518    7.1632 C   0  0  0  0  0  0  0  0  0  0  0  0
   54.8339    6.0365    7.4769 C   0  0  0  0  0  0  0  0  0  0  0  0
   53.5017    5.6510    7.4582 C   0  0  0  0  0  0  0  0  0  0  0  0
   54.2524    8.3029    6.8299 C   0  0  0  0  0  0  0  0  0  0  0  0
   52.9085    7.9232    6.8246 C   0  0  0  0  0  0  0  0  0  0  0  0
   52.5355    6.6066    7.1366 C   0  0  0  0  0  0  0  0  0  0  0  0
   56.5675    4.4980    8.8441 N   0  0  0  0  0  0  0  0  0  0  0  0
   56.0426    3.1714    9.1336 C   0  0  0  0  0  0  0  0  0  0  0  0
   56.4030    2.7915   10.5060 C   0  0  0  0  0  0  0  0  0  0  0  0
   56.6968    2.4822   11.6289 C   0  0  0  0  0  0  0  0  0  0  0  0
   56.1775    4.9789    7.5253 C   0  0  2  0  0  0  0  0  0  0  0  0
   57.2425    5.9702    7.0046 C   0  0  0  0  0  0  0  0  0  0  0  0
   56.5247    6.8710    5.9936 C   0  0  0  0  0  0  0  0  0  0  0  0
   55.1540    6.9257    6.5941 C   0  0  0  0  0  0  0  0  0  0  0  0
   54.9504    5.8562    7.4808 C   0  0  0  0  0  0  0  0  0  0  0  0
   53.7290    5.7052    8.1209 C   0  0  0  0  0  0  0  0  0  0  0  0
   54.1560    7.8502    6.3319 C   0  0  0  0  0  0  0  0  0  0  0  0
   52.9319    7.7049    6.9846 C   0  0  0  0  0  0  0  0  0  0  0  0
   52.7202    6.6408    7.8733 C   0  0  0  0  0  0  0  0  0  0  0  0
   56.2813    2.2610    8.9895 H   0  0  0  0  0  0  0  0  0  0  0  0
   54.4674    4.5174    7.1253 H   0  0  0  0  0  0  0  0  0  0  0  0
   56.3513    6.4740    8.6332 H   0  0  0  0  0  0  0  0  0  0  0  0
   54.5369    8.7275    6.7654 H   0  0  0  0  0  0  0  0  0  0  0  0
   56.8135    5.3020    6.1061 H   0  0  0  0  0  0  0  0  0  0  0  0
   54.0085    5.6892    9.6533 H   0  0  0  0  0  0  0  0  0  0  0  0
   55.6510    4.7446    9.6883 H   0  0  0  0  0  0  0  0  0  0  0  0
   57.9020    3.9767    9.2927 H   0  0  0  0  0  0  0  0  0  0  0  0
   57.2417    2.8217    8.1225 H   0  0  0  0  0  0  0  0  0  0  0  0
   56.3031    0.9889   11.8111 H   0  0  0  0  0  0  0  0  0  0  0  0
   56.3085    4.6725    6.8080 H   0  0  0  0  0  0  0  0  0  0  0  0
   58.1179    5.9737    7.8420 H   0  0  0  0  0  0  0  0  0  0  0  0
   57.0484    6.5768    9.1101 H   0  0  0  0  0  0  0  0  0  0  0  0
   56.9997    8.4465    7.6739 H   0  0  0  0  0  0  0  0  0  0  0  0
   57.1025    7.4448    6.1889 H   0  0  0  0  0  0  0  0  0  0  0  0
   53.2172    4.6285    7.6883 H   0  0  0  0  0  0  0  0  0  0  0  0
   54.5393    9.3184    6.5771 H   0  0  0  0  0  0  0  0  0  0  0  0
   52.1426    8.6518    6.5705 H   0  0  0  0  0  0  0  0  0  0  0  0
   51.4852    6.3261    7.1217 H   0  0  0  0  0  0  0  0  0  0  0  0
   56.2543    5.1592    9.5531 H   0  0  0  0  0  0  0  0  0  0  0  0
   54.9544    3.1332    9.0258 H   0  0  0  0  0  0  0  0  0  0  0  0
   56.4696    2.4410    8.4366 H   0  0  0  0  0  0  0  0  0  0  0  0
   56.9648    2.2115   12.6240 H   0  0  0  0  0  0  0  0  0  0  0  0
   56.0688    4.1629    6.7988 H   0  0  0  0  0  0  0  0  0  0  0  0
   57.6229    6.5968    7.8255 H   0  0  0  0  0  0  0  0  0  0  0  0
   58.1065    5.4603    6.5648 H   0  0  0  0  0  0  0  0  0  0  0  0
   56.9955    7.8560    5.9315 H   0  0  0  0  0  0  0  0  0  0  0  0
   56.4856    6.4081    5.0023 H   0  0  0  0  0  0  0  0  0  0  0  0
   53.5421    4.8837    8.8027 H   0  0  0  0  0  0  0  0  0  0  0  0
   54.3181    8.6691    5.6384 H   0  0  0  0  0  0  0  0  0  0  0  0
   52.1333    8.4195    6.8009 H   0  0  0  0  0  0  0  0  0  0  0  0
   51.7582    6.5403    8.3702 H   0  0  0  0  0  0  0  0  0  0  0  0
  1  2  1  0
  2  3  1  0
  3  4  1  0
  4  5  1  0
  5  6  1  0
  2  7  2  0
  4  8  1  0
  3  9  1  0
  5 10  2  0
 12 11  1  0
 15 11  1  0
 12 13  1  0
 13 14  3  0
 16 15  1  0
 19 15  1  0
 16 17  1  0
 17 18  1  0
 18 19  2  0
 18 21  1  0
 20 19  1  0
 23 20  2  0
 21 22  2  0
 22 23  1  0
 25 24  1  0
 28 24  1  0
 25 26  1  0
 26 27  3  0
 29 28  1  0
 32 28  1  0
 29 30  1  0
 30 31  1  0
 31 32  2  0
 31 34  1  0
 33 32  1  0
 36 33  2  0
 34 35  2  0
 35 36  1  0
  1 37  1  0
  3 38  1  1
  4 39  1  6
  6 40  1  0
  8 41  1  0
  9 42  1  0
 11 43  1  0
 12 44  1  0
 12 45  1  0
 14 46  1  0
 15 47  1  1
 16 48  1  0
 16 49  1  0
 17 50  1  0
 17 51  1  0
 20 52  1  0
 21 53  1  0
 22 54  1  0
 23 55  1  0
 24 56  1  0
 25 57  1  0
 25 58  1  0
 27 59  1  0
 28 60  1  1
 29 61  1  0
 29 62  1  0
 30 63  1  0
 30 64  1  0
 33 65  1  0
 34 66  1  0
 35 67  1  0
 36 68  1  0
M  END
> <Uni-Dock RESULT> 
ENERGY=   -6.540  LOWER_BOUND=   10.097  UPPER_BOUND=   11.626
INTER + INTRA:          -6.540
INTER:                  -6.540
INTRA:                   0.000
UNBOUND:                 0.000

$$$$

     RDKit          3D

 68 69  0  0  0  0  0  0  0  0999 V2000
   41.8534    9.6506   10.8935 O   0  0  0  0  0  0  0  0  0  0  0  0
   41.7550   10.6515   10.0000 C   0  0  0  0  0  0  0  0  0  0  0  0
   43.0601   10.9892    9.2993 C   0  0  2  0  0  0  0  0  0  0  0  0
   43.7969   12.0623   10.1015 C   0  0  2  0  0  0  0  0  0  0  0  0
   45.1027   12.3988    9.4016 C   0  0  0  0  0  0  0  0  0  0  0  0
   45.0055   13.3981    8.5061 O   0  0  0  0  0  0  0  0  0  0  0  0
   40.6838   11.2017    9.7846 O   0  0  0  0  0  0  0  0  0  0  0  0
   44.1104   11.6025   11.4247 O   0  0  0  0  0  0  0  0  0  0  0  0
   42.7452   11.4497    7.9767 O   0  0  0  0  0  0  0  0  0  0  0  0
   46.1738   11.8490    9.6193 O   0  0  0  0  0  0  0  0  0  0  0  0
   42.0066   11.0215   10.3337 N   0  0  0  0  0  0  0  0  0  0  0  0
   41.4247   10.7620   11.6433 C   0  0  0  0  0  0  0  0  0  0  0  0
   40.0231   10.3535   11.4817 C   0  0  0  0  0  0  0  0  0  0  0  0
   38.8766   10.0205   11.3489 C   0  0  0  0  0  0  0  0  0  0  0  0
   43.4080   11.4145   10.4166 C   0  0  2  0  0  0  0  0  0  0  0  0
   43.6387   12.8088   11.0441 C   0  0  0  0  0  0  0  0  0  0  0  0
   44.9515   13.3372   10.4485 C   0  0  0  0  0  0  0  0  0  0  0  0
   44.9184   12.7129    9.0891 C   0  0  0  0  0  0  0  0  0  0  0  0
   44.0372   11.6236    9.0628 C   0  0  0  0  0  0  0  0  0  0  0  0
   43.8827   10.8660    7.9113 C   0  0  0  0  0  0  0  0  0  0  0  0
   45.6558   13.0667    7.9716 C   0  0  0  0  0  0  0  0  0  0  0  0
   45.4920   12.3162    6.8054 C   0  0  0  0  0  0  0  0  0  0  0  0
   44.6117   11.2235    6.7752 C   0  0  0  0  0  0  0  0  0  0  0  0
   42.1082   11.4736   10.9331 N   0  0  0  0  0  0  0  0  0  0  0  0
   41.2440   10.3143   10.7651 C   0  0  0  0  0  0  0  0  0  0  0  0
   39.8488   10.7051   11.0073 C   0  0  0  0  0  0  0  0  0  0  0  0
   38.7080   11.0256   11.2041 C   0  0  0  0  0  0  0  0  0  0  0  0
   43.5022   11.1819   10.6264 C   0  0  2  0  0  0  0  0  0  0  0  0
   44.4154   12.1304   11.4354 C   0  0  0  0  0  0  0  0  0  0  0  0
   45.7304   12.2216   10.6536 C   0  0  0  0  0  0  0  0  0  0  0  0
   45.2284   12.0915    9.2488 C   0  0  0  0  0  0  0  0  0  0  0  0
   43.9504   11.5106    9.2234 C   0  0  0  0  0  0  0  0  0  0  0  0
   43.3180   11.2719    8.0120 C   0  0  0  0  0  0  0  0  0  0  0  0
   45.8906   12.4384    8.0823 C   0  0  0  0  0  0  0  0  0  0  0  0
   45.2495   12.2092    6.8649 C   0  0  0  0  0  0  0  0  0  0  0  0
   43.9723   11.6311    6.8300 C   0  0  0  0  0  0  0  0  0  0  0  0
   40.9525    9.5608   11.2690 H   0  0  0  0  0  0  0  0  0  0  0  0
   43.6532   10.0742    9.1954 H   0  0  0  0  0  0  0  0  0  0  0  0
   43.2043   12.9779   10.2043 H   0  0  0  0  0  0  0  0  0  0  0  0
   45.9068   13.4872    8.1316 H   0  0  0  0  0  0  0  0  0  0  0  0
   44.9084   11.0406   11.3516 H   0  0  0  0  0  0  0  0  0  0  0  0
   41.9482   12.0129    8.0511 H   0  0  0  0  0  0  0  0  0  0  0  0
   41.4758   11.7558    9.8682 H   0  0  0  0  0  0  0  0  0  0  0  0
   41.4643   11.6546   12.2772 H   0  0  0  0  0  0  0  0  0  0  0  0
   41.9759    9.9629   12.1519 H   0  0  0  0  0  0  0  0  0  0  0  0
   37.8618    9.7211   11.2235 H   0  0  0  0  0  0  0  0  0  0  0  0
   43.9980   10.6540   10.9445 H   0  0  0  0  0  0  0  0  0  0  0  0
   43.6693   12.7761   12.1383 H   0  0  0  0  0  0  0  0  0  0  0  0
   42.8248   13.4938   10.7645 H   0  0  0  0  0  0  0  0  0  0  0  0
   44.9597   14.4299   10.4084 H   0  0  0  0  0  0  0  0  0  0  0  0
   45.8180   12.9741   11.0106 H   0  0  0  0  0  0  0  0  0  0  0  0
   43.2098   10.0137    7.8946 H   0  0  0  0  0  0  0  0  0  0  0  0
   46.3456   13.9041    7.9960 H   0  0  0  0  0  0  0  0  0  0  0  0
   46.0559   12.5756    5.9128 H   0  0  0  0  0  0  0  0  0  0  0  0
   44.5008   10.6459    5.8608 H   0  0  0  0  0  0  0  0  0  0  0  0
   41.7837   12.2387   10.3439 H   0  0  0  0  0  0  0  0  0  0  0  0
   41.3271    9.8884    9.7606 H   0  0  0  0  0  0  0  0  0  0  0  0
   41.5255    9.5324   11.4800 H   0  0  0  0  0  0  0  0  0  0  0  0
   37.6986   11.3151   11.3847 H   0  0  0  0  0  0  0  0  0  0  0  0
   43.7731   10.1442   10.8620 H   0  0  0  0  0  0  0  0  0  0  0  0
   43.9725   13.1361   11.4963 H   0  0  0  0  0  0  0  0  0  0  0  0
   44.5679   11.7852   12.4637 H   0  0  0  0  0  0  0  0  0  0  0  0
   46.2361   13.1746   10.8322 H   0  0  0  0  0  0  0  0  0  0  0  0
   46.3984   11.3887   10.8957 H   0  0  0  0  0  0  0  0  0  0  0  0
   42.3358   10.8162    7.9633 H   0  0  0  0  0  0  0  0  0  0  0  0
   46.8820   12.8789    8.1100 H   0  0  0  0  0  0  0  0  0  0  0  0
   45.7446   12.4769    5.9346 H   0  0  0  0  0  0  0  0  0  0  0  0
   43.4891   11.4555    5.8717 H   0  0  0  0  0  0  0  0  0  0  0  0
  1  2  1  0
  2  3  1  0
  3  4  1  0
  4  5  1  0
  5  6  1  0
  2  7  2  0
  4  8  1  0
  3  9  1  0
  5 10  2  0
 12 11  1  0
 15 11  1  0
 12 13  1  0
 13 14  3  0
 16 15  1  0
 19 15  1  0
 16 17  1  0
 17 18  1  0
 18 19  2  0
 18 21  1  0
 20 19  1  0
 23 20  2  0
 21 22  2  0
 22 23  1  0
 25 24  1  0
 28 24  1  0
 25 26  1  0
 26 27  3  0
 29 28  1  0
 32 28  1  0
 29 30  1  0
 30 31  1  0
 31 32  2  0
 31 34  1  0
 33 32  1  0
 36 33  2  0
 34 35  2  0
 35 36  1  0
  1 37  1  0
  3 38  1  1
  4 39  1  6
  6 40  1  0
  8 41  1  0
  9 42  1  0
 11 43  1  0
 12 44  1  0
 12 45  1  0
 14 46  1  0
 15 47  1  1
 16 48  1  0
 16 49  1  0
 17 50  1  0
 17 51  1  0
 20 52  1  0
 21 53  1  0
 22 54  1  0
 23 55  1  0
 24 56  1  0
 25 57  1  0
 25 58  1  0
 27 59  1  0
 28 60  1  1
 29 61  1  0
 29 62  1  0
 30 63  1  0
 30 64  1  0
 33 65  1  0
 34 66  1  0
 35 67  1  0
 36 68  1  0
M  END
> <Uni-Dock RESULT> 
ENERGY=   -6.436  LOWER_BOUND=    6.464  UPPER_BOUND=    7.888
INTER + INTRA:          -6.436
INTER:                  -6.436
INTRA:                   0.000
UNBOUND:                 0.000

$$$$
