
     RDKit          3D

 68 69  0  0  0  0  0  0  0  0999 V2000
   47.8542    7.3780   13.2073 O   0  0  0  0  0  0  0  0  0  0  0  0
   46.9168    7.9830   12.4559 C   0  0  0  0  0  0  0  0  0  0  0  0
   45.4929    7.5385   12.7633 C   0  0  2  0  0  0  0  0  0  0  0  0
   45.3296    6.0206   12.7042 C   0  0  2  0  0  0  0  0  0  0  0  0
   45.5040    5.5019   11.2793 C   0  0  0  0  0  0  0  0  0  0  0  0
   46.7677    5.6048   10.8196 O   0  0  0  0  0  0  0  0  0  0  0  0
   47.2208    8.8615   11.6621 O   0  0  0  0  0  0  0  0  0  0  0  0
   44.0249    5.6782   13.2006 O   0  0  0  0  0  0  0  0  0  0  0  0
   44.5290    8.1609   11.9016 O   0  0  0  0  0  0  0  0  0  0  0  0
   44.6383    5.0071   10.5737 O   0  0  0  0  0  0  0  0  0  0  0  0
   44.2238    6.0764   11.9409 N   0  0  0  0  0  0  0  0  0  0  0  0
   43.7882    4.7307   11.5767 C   0  0  0  0  0  0  0  0  0  0  0  0
   43.9750    4.4598   10.1447 C   0  0  0  0  0  0  0  0  0  0  0  0
   44.1268    4.2392    8.9737 C   0  0  0  0  0  0  0  0  0  0  0  0
   45.6730    6.2555   11.9004 C   0  0  2  0  0  0  0  0  0  0  0  0
   46.4148    5.4487   12.9906 C   0  0  0  0  0  0  0  0  0  0  0  0
   47.7151    6.2084   13.2810 C   0  0  0  0  0  0  0  0  0  0  0  0
   47.2827    7.6190   13.0328 C   0  0  0  0  0  0  0  0  0  0  0  0
   46.1145    7.6553   12.2575 C   0  0  0  0  0  0  0  0  0  0  0  0
   45.5693    8.8702   11.8667 C   0  0  0  0  0  0  0  0  0  0  0  0
   47.9178    8.7823   13.4359 C   0  0  0  0  0  0  0  0  0  0  0  0
   47.3609   10.0053   13.0596 C   0  0  0  0  0  0  0  0  0  0  0  0
   46.1952   10.0493   12.2803 C   0  0  0  0  0  0  0  0  0  0  0  0
   44.7792    5.9430   11.0219 N   0  0  0  0  0  0  0  0  0  0  0  0
   44.2824    4.6562   11.4868 C   0  0  0  0  0  0  0  0  0  0  0  0
   44.4687    3.6501   10.4327 C   0  0  0  0  0  0  0  0  0  0  0  0
   44.6226    2.8276    9.5708 C   0  0  0  0  0  0  0  0  0  0  0  0
   44.7052    6.9754   12.0472 C   0  0  2  0  0  0  0  0  0  0  0  0
   44.5659    8.3591   11.3735 C   0  0  0  0  0  0  0  0  0  0  0  0
   45.1066    9.3780   12.3826 C   0  0  0  0  0  0  0  0  0  0  0  0
   46.1752    8.5686   13.0497 C   0  0  0  0  0  0  0  0  0  0  0  0
   45.9622    7.1948   12.8527 C   0  0  0  0  0  0  0  0  0  0  0  0
   46.8253    6.2681   13.4187 C   0  0  0  0  0  0  0  0  0  0  0  0
   47.2376    9.0364   13.8061 C   0  0  0  0  0  0  0  0  0  0  0  0
   48.1122    8.1047   14.3652 C   0  0  0  0  0  0  0  0  0  0  0  0
   47.9081    6.7307   14.1723 C   0  0  0  0  0  0  0  0  0  0  0  0
   48.7031    7.7650   12.9027 H   0  0  0  0  0  0  0  0  0  0  0  0
   45.2578    7.8955   13.7730 H   0  0  0  0  0  0  0  0  0  0  0  0
   46.0511    5.5021   13.3439 H   0  0  0  0  0  0  0  0  0  0  0  0
   46.7147    5.2259    9.9152 H   0  0  0  0  0  0  0  0  0  0  0  0
   43.3949    6.0744   12.5647 H   0  0  0  0  0  0  0  0  0  0  0  0
   44.8563    9.0652   11.7255 H   0  0  0  0  0  0  0  0  0  0  0  0
   43.7917    6.7350   11.2969 H   0  0  0  0  0  0  0  0  0  0  0  0
   42.7204    4.6513   11.8116 H   0  0  0  0  0  0  0  0  0  0  0  0
   44.2852    3.9689   12.1864 H   0  0  0  0  0  0  0  0  0  0  0  0
   44.2616    4.0443    7.9346 H   0  0  0  0  0  0  0  0  0  0  0  0
   46.0846    6.0256   10.9093 H   0  0  0  0  0  0  0  0  0  0  0  0
   46.6065    4.4132   12.6902 H   0  0  0  0  0  0  0  0  0  0  0  0
   45.8151    5.4123   13.9122 H   0  0  0  0  0  0  0  0  0  0  0  0
   48.0502    6.0472   14.3093 H   0  0  0  0  0  0  0  0  0  0  0  0
   48.5061    5.9265   12.5786 H   0  0  0  0  0  0  0  0  0  0  0  0
   44.6765    8.9150   11.2526 H   0  0  0  0  0  0  0  0  0  0  0  0
   48.8257    8.7485   14.0293 H   0  0  0  0  0  0  0  0  0  0  0  0
   47.8366   10.9330   13.3680 H   0  0  0  0  0  0  0  0  0  0  0  0
   45.7784   11.0108   11.9910 H   0  0  0  0  0  0  0  0  0  0  0  0
   45.7422    5.8501   10.7024 H   0  0  0  0  0  0  0  0  0  0  0  0
   43.2149    4.7319   11.7240 H   0  0  0  0  0  0  0  0  0  0  0  0
   44.7990    4.3249   12.3927 H   0  0  0  0  0  0  0  0  0  0  0  0
   44.7574    2.1039    8.8006 H   0  0  0  0  0  0  0  0  0  0  0  0
   43.8567    6.8269   12.7283 H   0  0  0  0  0  0  0  0  0  0  0  0
   43.5339    8.5766   11.0778 H   0  0  0  0  0  0  0  0  0  0  0  0
   45.1790    8.4093   10.4609 H   0  0  0  0  0  0  0  0  0  0  0  0
   44.3405    9.6662   13.1097 H   0  0  0  0  0  0  0  0  0  0  0  0
   45.5033   10.2651   11.8812 H   0  0  0  0  0  0  0  0  0  0  0  0
   46.6787    5.2019   13.2904 H   0  0  0  0  0  0  0  0  0  0  0  0
   47.3905   10.0997   13.9611 H   0  0  0  0  0  0  0  0  0  0  0  0
   48.9570    8.4451   14.9589 H   0  0  0  0  0  0  0  0  0  0  0  0
   48.5975    6.0182   14.6191 H   0  0  0  0  0  0  0  0  0  0  0  0
  1  2  1  0
  2  3  1  0
  3  4  1  0
  4  5  1  0
  5  6  1  0
  2  7  2  0
  4  8  1  0
  3  9  1  0
  5 10  2  0
 12 11  1  0
 15 11  1  0
 12 13  1  0
 13 14  3  0
 16 15  1  0
 19 15  1  0
 16 17  1  0
 17 18  1  0
 18 19  2  0
 18 21  1  0
 20 19  1  0
 23 20  2  0
 21 22  2  0
 22 23  1  0
 25 24  1  0
 28 24  1  0
 25 26  1  0
 26 27  3  0
 29 28  1  0
 32 28  1  0
 29 30  1  0
 30 31  1  0
 31 32  2  0
 31 34  1  0
 33 32  1  0
 36 33  2  0
 34 35  2  0
 35 36  1  0
  1 37  1  0
  3 38  1  6
  4 39  1  1
  6 40  1  0
  8 41  1  0
  9 42  1  0
 11 43  1  0
 12 44  1  0
 12 45  1  0
 14 46  1  0
 15 47  1  1
 16 48  1  0
 16 49  1  0
 17 50  1  0
 17 51  1  0
 20 52  1  0
 21 53  1  0
 22 54  1  0
 23 55  1  0
 24 56  1  0
 25 57  1  0
 25 58  1  0
 27 59  1  0
 28 60  1  6
 29 61  1  0
 29 62  1  0
 30 63  1  0
 30 64  1  0
 33 65  1  0
 34 66  1  0
 35 67  1  0
 36 68  1  0
M  END
> <Uni-Dock RESULT> 
ENERGY=   -7.052  LOWER_BOUND=    0.000  UPPER_BOUND=    0.000
INTER + INTRA:          -7.052
INTER:                  -7.052
INTRA:                   0.000
UNBOUND:                 0.000

$$$$

     RDKit          3D

 68 69  0  0  0  0  0  0  0  0999 V2000
   45.3778    4.0542    9.9252 O   0  0  0  0  0  0  0  0  0  0  0  0
   44.9640    4.1215   11.2033 C   0  0  0  0  0  0  0  0  0  0  0  0
   44.1209    5.3499   11.5190 C   0  0  2  0  0  0  0  0  0  0  0  0
   44.8091    6.6511   11.1092 C   0  0  2  0  0  0  0  0  0  0  0  0
   46.0485    6.9117   11.9611 C   0  0  0  0  0  0  0  0  0  0  0  0
   47.0559    6.0468   11.7249 O   0  0  0  0  0  0  0  0  0  0  0  0
   45.2030    3.2151   11.9880 O   0  0  0  0  0  0  0  0  0  0  0  0
   43.8726    7.7320   11.2522 O   0  0  0  0  0  0  0  0  0  0  0  0
   43.7500    5.4161   12.9036 O   0  0  0  0  0  0  0  0  0  0  0  0
   46.1955    7.8089   12.7770 O   0  0  0  0  0  0  0  0  0  0  0  0
   44.5713    7.2560   12.2866 N   0  0  0  0  0  0  0  0  0  0  0  0
   45.1942    8.5767   12.3153 C   0  0  0  0  0  0  0  0  0  0  0  0
   46.3229    8.6331   13.2545 C   0  0  0  0  0  0  0  0  0  0  0  0
   47.2448    8.6791   14.0232 C   0  0  0  0  0  0  0  0  0  0  0  0
   45.3974    6.2308   11.6537 C   0  0  2  0  0  0  0  0  0  0  0  0
   45.5829    6.4531   10.1352 C   0  0  0  0  0  0  0  0  0  0  0  0
   45.8265    5.0686    9.5222 C   0  0  0  0  0  0  0  0  0  0  0  0
   45.0146    4.2055   10.4355 C   0  0  0  0  0  0  0  0  0  0  0  0
   44.7556    4.8633   11.6467 C   0  0  0  0  0  0  0  0  0  0  0  0
   44.0589    4.2196   12.6597 C   0  0  0  0  0  0  0  0  0  0  0  0
   44.5806    2.9091   10.2110 C   0  0  0  0  0  0  0  0  0  0  0  0
   43.8638    2.2665   11.2214 C   0  0  0  0  0  0  0  0  0  0  0  0
   43.6050    2.9167   12.4373 C   0  0  0  0  0  0  0  0  0  0  0  0
   45.5430    6.9950   12.6847 N   0  0  0  0  0  0  0  0  0  0  0  0
   45.5899    8.3322   12.1114 C   0  0  0  0  0  0  0  0  0  0  0  0
   46.8503    8.9837   12.4921 C   0  0  0  0  0  0  0  0  0  0  0  0
   47.8819    9.5153   12.8025 C   0  0  0  0  0  0  0  0  0  0  0  0
   44.3562    6.2535   12.2797 C   0  0  2  0  0  0  0  0  0  0  0  0
   43.9989    5.2200   13.3716 C   0  0  0  0  0  0  0  0  0  0  0  0
   43.2062    4.1146   12.6657 C   0  0  0  0  0  0  0  0  0  0  0  0
   43.8536    4.1269   11.3155 C   0  0  0  0  0  0  0  0  0  0  0  0
   44.5245    5.3397   11.0907 C   0  0  0  0  0  0  0  0  0  0  0  0
   45.1660    5.5670    9.8820 C   0  0  0  0  0  0  0  0  0  0  0  0
   43.8096    3.1332   10.3512 C   0  0  0  0  0  0  0  0  0  0  0  0
   44.4648    3.3571    9.1403 C   0  0  0  0  0  0  0  0  0  0  0  0
   45.1388    4.5647    8.9077 C   0  0  0  0  0  0  0  0  0  0  0  0
   45.8945    3.2212    9.8760 H   0  0  0  0  0  0  0  0  0  0  0  0
   43.1794    5.2415   10.9677 H   0  0  0  0  0  0  0  0  0  0  0  0
   45.1160    6.6431   10.0583 H   0  0  0  0  0  0  0  0  0  0  0  0
   47.7668    6.3513   12.3302 H   0  0  0  0  0  0  0  0  0  0  0  0
   43.6800    7.7813   12.2107 H   0  0  0  0  0  0  0  0  0  0  0  0
   43.6112    4.4944   13.1987 H   0  0  0  0  0  0  0  0  0  0  0  0
   44.3753    6.9765   13.2451 H   0  0  0  0  0  0  0  0  0  0  0  0
   44.4336    9.2967   12.6387 H   0  0  0  0  0  0  0  0  0  0  0  0
   45.5024    8.8973   11.3147 H   0  0  0  0  0  0  0  0  0  0  0  0
   48.0625    8.7192   14.7055 H   0  0  0  0  0  0  0  0  0  0  0  0
   46.3729    6.1317   12.1467 H   0  0  0  0  0  0  0  0  0  0  0  0
   46.3982    7.1481    9.9085 H   0  0  0  0  0  0  0  0  0  0  0  0
   44.6664    6.8757    9.6971 H   0  0  0  0  0  0  0  0  0  0  0  0
   45.4805    5.0245    8.4858 H   0  0  0  0  0  0  0  0  0  0  0  0
   46.8835    4.7889    9.5784 H   0  0  0  0  0  0  0  0  0  0  0  0
   43.8657    4.7082   13.6085 H   0  0  0  0  0  0  0  0  0  0  0  0
   44.7903    2.4020    9.2749 H   0  0  0  0  0  0  0  0  0  0  0  0
   43.5069    1.2511   11.0683 H   0  0  0  0  0  0  0  0  0  0  0  0
   43.0503    2.3989   13.2159 H   0  0  0  0  0  0  0  0  0  0  0  0
   46.3767    6.4727   12.4196 H   0  0  0  0  0  0  0  0  0  0  0  0
   44.7511    8.9291   12.4878 H   0  0  0  0  0  0  0  0  0  0  0  0
   45.5147    8.3087   11.0201 H   0  0  0  0  0  0  0  0  0  0  0  0
   48.7964    9.9831   13.0853 H   0  0  0  0  0  0  0  0  0  0  0  0
   43.4903    6.9088   12.1165 H   0  0  0  0  0  0  0  0  0  0  0  0
   43.4390    5.6663   14.2006 H   0  0  0  0  0  0  0  0  0  0  0  0
   44.9113    4.7786   13.8008 H   0  0  0  0  0  0  0  0  0  0  0  0
   42.1463    4.3749   12.5797 H   0  0  0  0  0  0  0  0  0  0  0  0
   43.3184    3.1541   13.1762 H   0  0  0  0  0  0  0  0  0  0  0  0
   45.6831    6.4976    9.6786 H   0  0  0  0  0  0  0  0  0  0  0  0
   43.2814    2.2018   10.5293 H   0  0  0  0  0  0  0  0  0  0  0  0
   44.4502    2.5916    8.3684 H   0  0  0  0  0  0  0  0  0  0  0  0
   45.6406    4.7241    7.9562 H   0  0  0  0  0  0  0  0  0  0  0  0
  1  2  1  0
  2  3  1  0
  3  4  1  0
  4  5  1  0
  5  6  1  0
  2  7  2  0
  4  8  1  0
  3  9  1  0
  5 10  2  0
 12 11  1  0
 15 11  1  0
 12 13  1  0
 13 14  3  0
 16 15  1  0
 19 15  1  0
 16 17  1  0
 17 18  1  0
 18 19  2  0
 18 21  1  0
 20 19  1  0
 23 20  2  0
 21 22  2  0
 22 23  1  0
 25 24  1  0
 28 24  1  0
 25 26  1  0
 26 27  3  0
 29 28  1  0
 32 28  1  0
 29 30  1  0
 30 31  1  0
 31 32  2  0
 31 34  1  0
 33 32  1  0
 36 33  2  0
 34 35  2  0
 35 36  1  0
  1 37  1  0
  3 38  1  6
  4 39  1  1
  6 40  1  0
  8 41  1  0
  9 42  1  0
 11 43  1  0
 12 44  1  0
 12 45  1  0
 14 46  1  0
 15 47  1  1
 16 48  1  0
 16 49  1  0
 17 50  1  0
 17 51  1  0
 20 52  1  0
 21 53  1  0
 22 54  1  0
 23 55  1  0
 24 56  1  0
 25 57  1  0
 25 58  1  0
 27 59  1  0
 28 60  1  6
 29 61  1  0
 29 62  1  0
 30 63  1  0
 30 64  1  0
 33 65  1  0
 34 66  1  0
 35 67  1  0
 36 68  1  0
M  END
> <Uni-Dock RESULT> 
ENERGY=   -6.742  LOWER_BOUND=    1.184  UPPER_BOUND=    4.998
INTER + INTRA:          -6.742
INTER:                  -6.742
INTRA:                   0.000
UNBOUND:                 0.000

$$$$

     RDKit          3D

 68 69  0  0  0  0  0  0  0  0999 V2000
   43.2074    4.0282   11.8801 O   0  0  0  0  0  0  0  0  0  0  0  0
   43.8904    4.4587   10.8042 C   0  0  0  0  0  0  0  0  0  0  0  0
   45.1599    5.2291   11.1422 C   0  0  2  0  0  0  0  0  0  0  0  0
   44.9022    6.3827   12.1102 C   0  0  2  0  0  0  0  0  0  0  0  0
   44.0558    7.4723   11.4573 C   0  0  0  0  0  0  0  0  0  0  0  0
   42.7826    7.0959   11.2206 O   0  0  0  0  0  0  0  0  0  0  0  0
   43.5272    4.1677    9.6738 O   0  0  0  0  0  0  0  0  0  0  0  0
   46.1665    6.9219   12.5308 O   0  0  0  0  0  0  0  0  0  0  0  0
   45.8271    5.7221    9.9714 O   0  0  0  0  0  0  0  0  0  0  0  0
   44.4191    8.6030   11.1715 O   0  0  0  0  0  0  0  0  0  0  0  0
   45.5924    7.2743   11.3771 N   0  0  0  0  0  0  0  0  0  0  0  0
   45.4980    8.6047   11.9722 C   0  0  0  0  0  0  0  0  0  0  0  0
   44.6996    9.5219   11.1474 C   0  0  0  0  0  0  0  0  0  0  0  0
   44.0479   10.2716   10.4721 C   0  0  0  0  0  0  0  0  0  0  0  0
   44.3397    6.5237   11.4153 C   0  0  2  0  0  0  0  0  0  0  0  0
   43.9132    6.1276   12.8474 C   0  0  0  0  0  0  0  0  0  0  0  0
   43.0678    4.8553   12.7103 C   0  0  0  0  0  0  0  0  0  0  0  0
   43.7039    4.2176   11.5157 C   0  0  0  0  0  0  0  0  0  0  0  0
   44.4395    5.1573   10.7790 C   0  0  0  0  0  0  0  0  0  0  0  0
   45.0704    4.7862    9.5999 C   0  0  0  0  0  0  0  0  0  0  0  0
   43.5918    2.9012   11.0987 C   0  0  0  0  0  0  0  0  0  0  0  0
   44.2406    2.5215    9.9230 C   0  0  0  0  0  0  0  0  0  0  0  0
   44.9745    3.4572    9.1785 C   0  0  0  0  0  0  0  0  0  0  0  0
   44.7050    7.6396   10.8771 N   0  0  0  0  0  0  0  0  0  0  0  0
   45.0069    8.4855   12.0226 C   0  0  0  0  0  0  0  0  0  0  0  0
   44.1749    9.6951   11.9701 C   0  0  0  0  0  0  0  0  0  0  0  0
   43.4932   10.6833   11.9274 C   0  0  0  0  0  0  0  0  0  0  0  0
   45.4330    6.3779   10.9054 C   0  0  2  0  0  0  0  0  0  0  0  0
   45.6352    5.8691    9.4604 C   0  0  0  0  0  0  0  0  0  0  0  0
   45.8100    4.3502    9.5665 C   0  0  0  0  0  0  0  0  0  0  0  0
   44.9267    4.0498   10.7377 C   0  0  0  0  0  0  0  0  0  0  0  0
   44.6945    5.2048   11.5017 C   0  0  0  0  0  0  0  0  0  0  0  0
   43.9237    5.1350   12.6529 C   0  0  0  0  0  0  0  0  0  0  0  0
   44.4028    2.8207   11.1043 C   0  0  0  0  0  0  0  0  0  0  0  0
   43.6179    2.7530   12.2554 C   0  0  0  0  0  0  0  0  0  0  0  0
   43.3794    3.9018   13.0236 C   0  0  0  0  0  0  0  0  0  0  0  0
   42.4330    3.5537   11.5080 H   0  0  0  0  0  0  0  0  0  0  0  0
   45.8556    4.5144   11.5975 H   0  0  0  0  0  0  0  0  0  0  0  0
   44.3876    6.0530   13.0186 H   0  0  0  0  0  0  0  0  0  0  0  0
   42.3777    7.8952   10.8187 H   0  0  0  0  0  0  0  0  0  0  0  0
   46.5712    7.2927   11.7203 H   0  0  0  0  0  0  0  0  0  0  0  0
   45.6937    5.0518    9.2722 H   0  0  0  0  0  0  0  0  0  0  0  0
   45.8843    7.3800   10.4081 H   0  0  0  0  0  0  0  0  0  0  0  0
   46.5151    9.0049   12.0563 H   0  0  0  0  0  0  0  0  0  0  0  0
   45.1093    8.5605   12.9950 H   0  0  0  0  0  0  0  0  0  0  0  0
   43.4696   10.9363    9.8724 H   0  0  0  0  0  0  0  0  0  0  0  0
   43.5270    7.0611   10.9101 H   0  0  0  0  0  0  0  0  0  0  0  0
   43.3667    6.9264   13.3596 H   0  0  0  0  0  0  0  0  0  0  0  0
   44.7984    5.8977   13.4589 H   0  0  0  0  0  0  0  0  0  0  0  0
   43.1374    4.2315   13.6057 H   0  0  0  0  0  0  0  0  0  0  0  0
   42.0206    5.0943   12.4984 H   0  0  0  0  0  0  0  0  0  0  0  0
   45.6284    5.5048    9.0097 H   0  0  0  0  0  0  0  0  0  0  0  0
   43.0150    2.1800   11.6685 H   0  0  0  0  0  0  0  0  0  0  0  0
   44.1733    1.4931    9.5769 H   0  0  0  0  0  0  0  0  0  0  0  0
   45.4686    3.1455    8.2616 H   0  0  0  0  0  0  0  0  0  0  0  0
   43.7042    7.4533   10.8354 H   0  0  0  0  0  0  0  0  0  0  0  0
   46.0634    8.7773   12.0028 H   0  0  0  0  0  0  0  0  0  0  0  0
   44.8253    7.9672   12.9689 H   0  0  0  0  0  0  0  0  0  0  0  0
   42.8892   11.5598   11.8813 H   0  0  0  0  0  0  0  0  0  0  0  0
   46.4152    6.4736   11.3871 H   0  0  0  0  0  0  0  0  0  0  0  0
   46.4852    6.3501    8.9644 H   0  0  0  0  0  0  0  0  0  0  0  0
   44.7452    6.0783    8.8477 H   0  0  0  0  0  0  0  0  0  0  0  0
   46.8464    4.0817    9.7953 H   0  0  0  0  0  0  0  0  0  0  0  0
   45.4824    3.8456    8.6534 H   0  0  0  0  0  0  0  0  0  0  0  0
   43.7367    6.0090   13.2660 H   0  0  0  0  0  0  0  0  0  0  0  0
   44.5941    1.9307   10.5133 H   0  0  0  0  0  0  0  0  0  0  0  0
   43.1904    1.8018   12.5627 H   0  0  0  0  0  0  0  0  0  0  0  0
   42.7687    3.8299   13.9205 H   0  0  0  0  0  0  0  0  0  0  0  0
  1  2  1  0
  2  3  1  0
  3  4  1  0
  4  5  1  0
  5  6  1  0
  2  7  2  0
  4  8  1  0
  3  9  1  0
  5 10  2  0
 12 11  1  0
 15 11  1  0
 12 13  1  0
 13 14  3  0
 16 15  1  0
 19 15  1  0
 16 17  1  0
 17 18  1  0
 18 19  2  0
 18 21  1  0
 20 19  1  0
 23 20  2  0
 21 22  2  0
 22 23  1  0
 25 24  1  0
 28 24  1  0
 25 26  1  0
 26 27  3  0
 29 28  1  0
 32 28  1  0
 29 30  1  0
 30 31  1  0
 31 32  2  0
 31 34  1  0
 33 32  1  0
 36 33  2  0
 34 35  2  0
 35 36  1  0
  1 37  1  0
  3 38  1  6
  4 39  1  1
  6 40  1  0
  8 41  1  0
  9 42  1  0
 11 43  1  0
 12 44  1  0
 12 45  1  0
 14 46  1  0
 15 47  1  1
 16 48  1  0
 16 49  1  0
 17 50  1  0
 17 51  1  0
 20 52  1  0
 21 53  1  0
 22 54  1  0
 23 55  1  0
 24 56  1  0
 25 57  1  0
 25 58  1  0
 27 59  1  0
 28 60  1  6
 29 61  1  0
 29 62  1  0
 30 63  1  0
 30 64  1  0
 33 65  1  0
 34 66  1  0
 35 67  1  0
 36 68  1  0
M  END
> <Uni-Dock RESULT> 
ENERGY=   -6.679  LOWER_BOUND=    1.793  UPPER_BOUND=    4.963
INTER + INTRA:          -6.679
INTER:                  -6.679
INTRA:                   0.000
UNBOUND:                 0.000

$$$$

     RDKit          3D

 68 69  0  0  0  0  0  0  0  0999 V2000
   48.1905    6.5743   23.2995 O   0  0  0  0  0  0  0  0  0  0  0  0
   48.3347    7.4624   22.2996 C   0  0  0  0  0  0  0  0  0  0  0  0
   47.4108    7.2174   21.1139 C   0  0  2  0  0  0  0  0  0  0  0  0
   47.5115    5.7892   20.5808 C   0  0  2  0  0  0  0  0  0  0  0  0
   48.8787    5.5293   19.9537 C   0  0  0  0  0  0  0  0  0  0  0  0
   49.8856    5.5004   20.8503 O   0  0  0  0  0  0  0  0  0  0  0  0
   49.0980    8.4109   22.4091 O   0  0  0  0  0  0  0  0  0  0  0  0
   46.4729    5.5865   19.6081 O   0  0  0  0  0  0  0  0  0  0  0  0
   47.6365    8.1479   20.0450 O   0  0  0  0  0  0  0  0  0  0  0  0
   49.1115    5.3332   18.7708 O   0  0  0  0  0  0  0  0  0  0  0  0
   47.6306    6.1773   19.2987 N   0  0  0  0  0  0  0  0  0  0  0  0
   47.8488    5.0202   18.4347 C   0  0  0  0  0  0  0  0  0  0  0  0
   49.2071    4.9991   17.8747 C   0  0  0  0  0  0  0  0  0  0  0  0
   50.3173    4.9829   17.4163 C   0  0  0  0  0  0  0  0  0  0  0  0
   48.3574    6.1106   20.5641 C   0  0  2  0  0  0  0  0  0  0  0  0
   47.8406    4.9964   21.5027 C   0  0  0  0  0  0  0  0  0  0  0  0
   48.1579    5.4534   22.9319 C   0  0  0  0  0  0  0  0  0  0  0  0
   48.0429    6.9381   22.7887 C   0  0  0  0  0  0  0  0  0  0  0  0
   48.1436    7.3204   21.4431 C   0  0  0  0  0  0  0  0  0  0  0  0
   48.1140    8.6625   21.0909 C   0  0  0  0  0  0  0  0  0  0  0  0
   47.9036    7.8775   23.7974 C   0  0  0  0  0  0  0  0  0  0  0  0
   47.8550    9.2266   23.4438 C   0  0  0  0  0  0  0  0  0  0  0  0
   47.9598    9.6166   22.1002 C   0  0  0  0  0  0  0  0  0  0  0  0
   48.7112    6.1285   19.3221 N   0  0  0  0  0  0  0  0  0  0  0  0
   48.1743    4.8808   18.7987 C   0  0  0  0  0  0  0  0  0  0  0  0
   49.2664    4.0772   18.2336 C   0  0  0  0  0  0  0  0  0  0  0  0
   50.1603    3.4198   17.7730 C   0  0  0  0  0  0  0  0  0  0  0  0
   47.6966    6.9440   19.9763 C   0  0  2  0  0  0  0  0  0  0  0  0
   48.0965    8.4337   19.8832 C   0  0  0  0  0  0  0  0  0  0  0  0
   47.3969    9.1342   21.0530 C   0  0  0  0  0  0  0  0  0  0  0  0
   47.4073    8.0421   22.0775 C   0  0  0  0  0  0  0  0  0  0  0  0
   47.5912    6.7880   21.4736 C   0  0  0  0  0  0  0  0  0  0  0  0
   47.5992    5.6368   22.2475 C   0  0  0  0  0  0  0  0  0  0  0  0
   47.2286    8.1688   23.4455 C   0  0  0  0  0  0  0  0  0  0  0  0
   47.2485    7.0123   24.2250 C   0  0  0  0  0  0  0  0  0  0  0  0
   47.4333    5.7556   23.6306 C   0  0  0  0  0  0  0  0  0  0  0  0
   48.8363    6.8615   23.9805 H   0  0  0  0  0  0  0  0  0  0  0  0
   46.3886    7.4104   21.4602 H   0  0  0  0  0  0  0  0  0  0  0  0
   47.3516    5.0429   21.3658 H   0  0  0  0  0  0  0  0  0  0  0  0
   50.6778    5.3153   20.3002 H   0  0  0  0  0  0  0  0  0  0  0  0
   46.6844    6.1983   18.8738 H   0  0  0  0  0  0  0  0  0  0  0  0
   47.8723    8.9997   20.4629 H   0  0  0  0  0  0  0  0  0  0  0  0
   47.9234    7.0105   18.7934 H   0  0  0  0  0  0  0  0  0  0  0  0
   47.1307    5.0811   17.6087 H   0  0  0  0  0  0  0  0  0  0  0  0
   47.6263    4.0827   18.9550 H   0  0  0  0  0  0  0  0  0  0  0  0
   51.3024    4.9693   17.0098 H   0  0  0  0  0  0  0  0  0  0  0  0
   49.4388    6.0068   20.4081 H   0  0  0  0  0  0  0  0  0  0  0  0
   48.2830    4.0198   21.2797 H   0  0  0  0  0  0  0  0  0  0  0  0
   46.7504    4.8882   21.4017 H   0  0  0  0  0  0  0  0  0  0  0  0
   47.4417    5.0445   23.6499 H   0  0  0  0  0  0  0  0  0  0  0  0
   49.1779    5.1794   23.2200 H   0  0  0  0  0  0  0  0  0  0  0  0
   48.2082    8.9753   20.0567 H   0  0  0  0  0  0  0  0  0  0  0  0
   47.8337    7.5767   24.8377 H   0  0  0  0  0  0  0  0  0  0  0  0
   47.7403    9.9835   24.2158 H   0  0  0  0  0  0  0  0  0  0  0  0
   47.9261   10.6725   21.8432 H   0  0  0  0  0  0  0  0  0  0  0  0
   49.4664    5.9351   19.9781 H   0  0  0  0  0  0  0  0  0  0  0  0
   47.4411    5.0913   18.0115 H   0  0  0  0  0  0  0  0  0  0  0  0
   47.6673    4.2999   19.5751 H   0  0  0  0  0  0  0  0  0  0  0  0
   50.9566    2.8438   17.3618 H   0  0  0  0  0  0  0  0  0  0  0  0
   46.7037    6.8157   19.5254 H   0  0  0  0  0  0  0  0  0  0  0  0
   47.8315    8.8766   18.9170 H   0  0  0  0  0  0  0  0  0  0  0  0
   49.1842    8.5513   20.0031 H   0  0  0  0  0  0  0  0  0  0  0  0
   46.3670    9.4052   20.7991 H   0  0  0  0  0  0  0  0  0  0  0  0
   47.9507   10.0194   21.3776 H   0  0  0  0  0  0  0  0  0  0  0  0
   47.7298    4.6556   21.8061 H   0  0  0  0  0  0  0  0  0  0  0  0
   47.0782    9.1411   23.9038 H   0  0  0  0  0  0  0  0  0  0  0  0
   47.1159    7.0840   25.3017 H   0  0  0  0  0  0  0  0  0  0  0  0
   47.4419    4.8640   24.2530 H   0  0  0  0  0  0  0  0  0  0  0  0
  1  2  1  0
  2  3  1  0
  3  4  1  0
  4  5  1  0
  5  6  1  0
  2  7  2  0
  4  8  1  0
  3  9  1  0
  5 10  2  0
 12 11  1  0
 15 11  1  0
 12 13  1  0
 13 14  3  0
 16 15  1  0
 19 15  1  0
 16 17  1  0
 17 18  1  0
 18 19  2  0
 18 21  1  0
 20 19  1  0
 23 20  2  0
 21 22  2  0
 22 23  1  0
 25 24  1  0
 28 24  1  0
 25 26  1  0
 26 27  3  0
 29 28  1  0
 32 28  1  0
 29 30  1  0
 30 31  1  0
 31 32  2  0
 31 34  1  0
 33 32  1  0
 36 33  2  0
 34 35  2  0
 35 36  1  0
  1 37  1  0
  3 38  1  6
  4 39  1  1
  6 40  1  0
  8 41  1  0
  9 42  1  0
 11 43  1  0
 12 44  1  0
 12 45  1  0
 14 46  1  0
 15 47  1  1
 16 48  1  0
 16 49  1  0
 17 50  1  0
 17 51  1  0
 20 52  1  0
 21 53  1  0
 22 54  1  0
 23 55  1  0
 24 56  1  0
 25 57  1  0
 25 58  1  0
 27 59  1  0
 28 60  1  6
 29 61  1  0
 29 62  1  0
 30 63  1  0
 30 64  1  0
 33 65  1  0
 34 66  1  0
 35 67  1  0
 36 68  1  0
M  END
> <Uni-Dock RESULT> 
ENERGY=   -6.186  LOWER_BOUND=    7.444  UPPER_BOUND=    9.332
INTER + INTRA:          -6.186
INTER:                  -6.186
INTRA:                   0.000
UNBOUND:                 0.000

$$$$

     RDKit          3D

 68 69  0  0  0  0  0  0  0  0999 V2000
   48.3511    7.4004   19.7214 O   0  0  0  0  0  0  0  0  0  0  0  0
   48.3583    7.9704   20.9398 C   0  0  0  0  0  0  0  0  0  0  0  0
   47.1477    8.8507   21.2205 C   0  0  2  0  0  0  0  0  0  0  0  0
   46.9290    9.9052   20.1368 C   0  0  2  0  0  0  0  0  0  0  0  0
   48.0546   10.9361   20.1349 C   0  0  0  0  0  0  0  0  0  0  0  0
   49.2387   10.4398   19.7224 O   0  0  0  0  0  0  0  0  0  0  0  0
   49.2410    7.7147   21.7460 O   0  0  0  0  0  0  0  0  0  0  0  0
   45.6659   10.5502   20.3703 O   0  0  0  0  0  0  0  0  0  0  0  0
   47.2217    9.4871   22.5044 O   0  0  0  0  0  0  0  0  0  0  0  0
   47.9621   12.1155   20.4392 O   0  0  0  0  0  0  0  0  0  0  0  0
   46.7782   10.9114   21.0163 N   0  0  0  0  0  0  0  0  0  0  0  0
   46.6261   12.1829   20.3139 C   0  0  0  0  0  0  0  0  0  0  0  0
   47.7906   13.0590   20.5021 C   0  0  0  0  0  0  0  0  0  0  0  0
   48.7422   13.7754   20.6572 C   0  0  0  0  0  0  0  0  0  0  0  0
   47.7790   10.0286   20.4222 C   0  0  2  0  0  0  0  0  0  0  0  0
   47.3695    9.4977   19.0293 C   0  0  0  0  0  0  0  0  0  0  0  0
   48.0847    8.1526   18.8519 C   0  0  0  0  0  0  0  0  0  0  0  0
   48.1306    7.6654   20.2658 C   0  0  0  0  0  0  0  0  0  0  0  0
   47.9459    8.7246   21.1663 C   0  0  0  0  0  0  0  0  0  0  0  0
   48.0039    8.5003   22.5346 C   0  0  0  0  0  0  0  0  0  0  0  0
   48.3661    6.3741   20.7088 C   0  0  0  0  0  0  0  0  0  0  0  0
   48.4066    6.1430   22.0845 C   0  0  0  0  0  0  0  0  0  0  0  0
   48.2271    7.1985   22.9912 C   0  0  0  0  0  0  0  0  0  0  0  0
   47.8158   11.2096   20.9438 N   0  0  0  0  0  0  0  0  0  0  0  0
   47.0103   12.0082   20.0315 C   0  0  0  0  0  0  0  0  0  0  0  0
   47.8168   13.1213   19.5133 C   0  0  0  0  0  0  0  0  0  0  0  0
   48.4774   14.0304   19.0887 C   0  0  0  0  0  0  0  0  0  0  0  0
   47.1072   10.0351   21.4347 C   0  0  2  0  0  0  0  0  0  0  0  0
   47.6607    9.6448   22.8237 C   0  0  0  0  0  0  0  0  0  0  0  0
   47.3666    8.1502   22.9923 C   0  0  0  0  0  0  0  0  0  0  0  0
   47.4876    7.6814   21.5753 C   0  0  0  0  0  0  0  0  0  0  0  0
   47.3540    8.7531   20.6780 C   0  0  0  0  0  0  0  0  0  0  0  0
   47.4035    8.5265   19.3104 C   0  0  0  0  0  0  0  0  0  0  0  0
   47.6687    6.3818   21.1306 C   0  0  0  0  0  0  0  0  0  0  0  0
   47.7303    6.1558   19.7555 C   0  0  0  0  0  0  0  0  0  0  0  0
   47.5995    7.2204   18.8520 C   0  0  0  0  0  0  0  0  0  0  0  0
   49.1761    6.8695   19.6917 H   0  0  0  0  0  0  0  0  0  0  0  0
   46.2757    8.1879   21.2712 H   0  0  0  0  0  0  0  0  0  0  0  0
   46.8721    9.4641   19.1364 H   0  0  0  0  0  0  0  0  0  0  0  0
   49.8406   11.2145   19.7667 H   0  0  0  0  0  0  0  0  0  0  0  0
   45.7675   11.0139   21.2264 H   0  0  0  0  0  0  0  0  0  0  0  0
   47.6609    8.8524   23.1046 H   0  0  0  0  0  0  0  0  0  0  0  0
   47.0428   11.1100   21.9785 H   0  0  0  0  0  0  0  0  0  0  0  0
   45.7409   12.6848   20.7217 H   0  0  0  0  0  0  0  0  0  0  0  0
   46.4193   12.0315   19.2493 H   0  0  0  0  0  0  0  0  0  0  0  0
   49.5869   14.4105   20.7953 H   0  0  0  0  0  0  0  0  0  0  0  0
   48.7661   10.5059   20.3734 H   0  0  0  0  0  0  0  0  0  0  0  0
   47.6137   10.1981   18.2238 H   0  0  0  0  0  0  0  0  0  0  0  0
   46.2834    9.3265   18.9909 H   0  0  0  0  0  0  0  0  0  0  0  0
   47.5205    7.4840   18.1960 H   0  0  0  0  0  0  0  0  0  0  0  0
   49.1002    8.2897   18.4664 H   0  0  0  0  0  0  0  0  0  0  0  0
   47.8806    9.3116   23.2438 H   0  0  0  0  0  0  0  0  0  0  0  0
   48.5159    5.5595   20.0077 H   0  0  0  0  0  0  0  0  0  0  0  0
   48.5838    5.1377   22.4582 H   0  0  0  0  0  0  0  0  0  0  0  0
   48.2679    7.0016   24.0596 H   0  0  0  0  0  0  0  0  0  0  0  0
   48.6776   10.9189   20.4846 H   0  0  0  0  0  0  0  0  0  0  0  0
   46.1395   12.4135   20.5598 H   0  0  0  0  0  0  0  0  0  0  0  0
   46.6392   11.4137   19.1912 H   0  0  0  0  0  0  0  0  0  0  0  0
   49.0670   14.8374   18.7196 H   0  0  0  0  0  0  0  0  0  0  0  0
   46.0259   10.2058   21.5203 H   0  0  0  0  0  0  0  0  0  0  0  0
   47.2257   10.2459   23.6295 H   0  0  0  0  0  0  0  0  0  0  0  0
   48.7503    9.7951   22.8629 H   0  0  0  0  0  0  0  0  0  0  0  0
   46.3498    7.9815   23.3613 H   0  0  0  0  0  0  0  0  0  0  0  0
   48.0928    7.6725   23.6558 H   0  0  0  0  0  0  0  0  0  0  0  0
   47.2937    9.3340   18.5958 H   0  0  0  0  0  0  0  0  0  0  0  0
   47.7624    5.5575   21.8304 H   0  0  0  0  0  0  0  0  0  0  0  0
   47.8769    5.1462   19.3799 H   0  0  0  0  0  0  0  0  0  0  0  0
   47.6457    7.0255   17.7832 H   0  0  0  0  0  0  0  0  0  0  0  0
  1  2  1  0
  2  3  1  0
  3  4  1  0
  4  5  1  0
  5  6  1  0
  2  7  2  0
  4  8  1  0
  3  9  1  0
  5 10  2  0
 12 11  1  0
 15 11  1  0
 12 13  1  0
 13 14  3  0
 16 15  1  0
 19 15  1  0
 16 17  1  0
 17 18  1  0
 18 19  2  0
 18 21  1  0
 20 19  1  0
 23 20  2  0
 21 22  2  0
 22 23  1  0
 25 24  1  0
 28 24  1  0
 25 26  1  0
 26 27  3  0
 29 28  1  0
 32 28  1  0
 29 30  1  0
 30 31  1  0
 31 32  2  0
 31 34  1  0
 33 32  1  0
 36 33  2  0
 34 35  2  0
 35 36  1  0
  1 37  1  0
  3 38  1  6
  4 39  1  1
  6 40  1  0
  8 41  1  0
  9 42  1  0
 11 43  1  0
 12 44  1  0
 12 45  1  0
 14 46  1  0
 15 47  1  1
 16 48  1  0
 16 49  1  0
 17 50  1  0
 17 51  1  0
 20 52  1  0
 21 53  1  0
 22 54  1  0
 23 55  1  0
 24 56  1  0
 25 57  1  0
 25 58  1  0
 27 59  1  0
 28 60  1  6
 29 61  1  0
 29 62  1  0
 30 63  1  0
 30 64  1  0
 33 65  1  0
 34 66  1  0
 35 67  1  0
 36 68  1  0
M  END
> <Uni-Dock RESULT> 
ENERGY=   -6.045  LOWER_BOUND=    7.747  UPPER_BOUND=   10.161
INTER + INTRA:          -6.045
INTER:                  -6.045
INTRA:                   0.000
UNBOUND:                 0.000

$$$$

     RDKit          3D

 68 69  0  0  0  0  0  0  0  0999 V2000
   47.1909   12.5520   20.5025 O   0  0  0  0  0  0  0  0  0  0  0  0
   47.2330   11.6485   19.5069 C   0  0  0  0  0  0  0  0  0  0  0  0
   48.5046   11.7050   18.6707 C   0  0  2  0  0  0  0  0  0  0  0  0
   48.7886   13.1071   18.1343 C   0  0  2  0  0  0  0  0  0  0  0  0
   47.7382   13.5296   17.1106 C   0  0  0  0  0  0  0  0  0  0  0  0
   46.5190   13.7423   17.6464 O   0  0  0  0  0  0  0  0  0  0  0  0
   46.3407   10.8241   19.3707 O   0  0  0  0  0  0  0  0  0  0  0  0
   50.0956   13.1153   17.5363 O   0  0  0  0  0  0  0  0  0  0  0  0
   48.4852   10.7680   17.5841 O   0  0  0  0  0  0  0  0  0  0  0  0
   47.9157   13.7023   15.9145 O   0  0  0  0  0  0  0  0  0  0  0  0
   49.0164   12.6814   16.8791 N   0  0  0  0  0  0  0  0  0  0  0  0
   49.2521   13.8170   15.9914 C   0  0  0  0  0  0  0  0  0  0  0  0
   48.1535   14.0051   15.0339 C   0  0  0  0  0  0  0  0  0  0  0  0
   47.2557   14.1578   14.2506 C   0  0  0  0  0  0  0  0  0  0  0  0
   47.9515   12.9087   17.8530 C   0  0  2  0  0  0  0  0  0  0  0  0
   48.3122   13.9801   18.9074 C   0  0  0  0  0  0  0  0  0  0  0  0
   47.5029   13.6389   20.1647 C   0  0  0  0  0  0  0  0  0  0  0  0
   47.4336   12.1478   20.0633 C   0  0  0  0  0  0  0  0  0  0  0  0
   47.6991   11.7224   18.7535 C   0  0  0  0  0  0  0  0  0  0  0  0
   47.6358   10.3750   18.4271 C   0  0  0  0  0  0  0  0  0  0  0  0
   47.1114   11.2455   21.0639 C   0  0  0  0  0  0  0  0  0  0  0  0
   47.0652    9.8884   20.7420 C   0  0  0  0  0  0  0  0  0  0  0  0
   47.3252    9.4560   19.4329 C   0  0  0  0  0  0  0  0  0  0  0  0
   48.0018   12.8843   16.5626 N   0  0  0  0  0  0  0  0  0  0  0  0
   48.8544   14.0177   16.2352 C   0  0  0  0  0  0  0  0  0  0  0  0
   48.1242   14.9416   15.3570 C   0  0  0  0  0  0  0  0  0  0  0  0
   47.5259   15.6974   14.6401 C   0  0  0  0  0  0  0  0  0  0  0  0
   48.6298   11.9638   17.5012 C   0  0  2  0  0  0  0  0  0  0  0  0
   48.0608   10.5433   17.2859 C   0  0  0  0  0  0  0  0  0  0  0  0
   48.2504    9.8050   18.6154 C   0  0  0  0  0  0  0  0  0  0  0  0
   48.0860   10.9333   19.5861 C   0  0  0  0  0  0  0  0  0  0  0  0
   48.2878   12.1718   18.9562 C   0  0  0  0  0  0  0  0  0  0  0  0
   48.2122   13.3467   19.6897 C   0  0  0  0  0  0  0  0  0  0  0  0
   47.8108   10.8454   20.9410 C   0  0  0  0  0  0  0  0  0  0  0  0
   47.7230   12.0276   21.6761 C   0  0  0  0  0  0  0  0  0  0  0  0
   47.9214   13.2692   21.0549 C   0  0  0  0  0  0  0  0  0  0  0  0
   46.3305   12.3911   20.9464 H   0  0  0  0  0  0  0  0  0  0  0  0
   49.3282   11.3848   19.3197 H   0  0  0  0  0  0  0  0  0  0  0  0
   48.8068   13.8584   18.9306 H   0  0  0  0  0  0  0  0  0  0  0  0
   45.9735   14.0126   16.8759 H   0  0  0  0  0  0  0  0  0  0  0  0
   50.0333   12.5068   16.7721 H   0  0  0  0  0  0  0  0  0  0  0  0
   48.0070    9.9784   17.9062 H   0  0  0  0  0  0  0  0  0  0  0  0
   48.7737   11.8760   16.3067 H   0  0  0  0  0  0  0  0  0  0  0  0
   50.1734   13.6167   15.4320 H   0  0  0  0  0  0  0  0  0  0  0  0
   49.4397   14.7362   16.5561 H   0  0  0  0  0  0  0  0  0  0  0  0
   46.4589   14.2926   13.5559 H   0  0  0  0  0  0  0  0  0  0  0  0
   47.0001   13.1578   17.3660 H   0  0  0  0  0  0  0  0  0  0  0  0
   48.1117   14.9983   18.5579 H   0  0  0  0  0  0  0  0  0  0  0  0
   49.3832   13.9275   19.1533 H   0  0  0  0  0  0  0  0  0  0  0  0
   48.0138   13.9744   21.0714 H   0  0  0  0  0  0  0  0  0  0  0  0
   46.4967   14.0679   20.1188 H   0  0  0  0  0  0  0  0  0  0  0  0
   47.8212   10.0317   17.4151 H   0  0  0  0  0  0  0  0  0  0  0  0
   46.8994   11.5807   22.0740 H   0  0  0  0  0  0  0  0  0  0  0  0
   46.8206    9.1591   21.5103 H   0  0  0  0  0  0  0  0  0  0  0  0
   47.2788    8.3954   19.1984 H   0  0  0  0  0  0  0  0  0  0  0  0
   47.1182   13.2130   16.9491 H   0  0  0  0  0  0  0  0  0  0  0  0
   49.7555   13.6693   15.7172 H   0  0  0  0  0  0  0  0  0  0  0  0
   49.1765   14.5557   17.1319 H   0  0  0  0  0  0  0  0  0  0  0  0
   46.9917   16.3613   14.0006 H   0  0  0  0  0  0  0  0  0  0  0  0
   49.7211   11.9289   17.3843 H   0  0  0  0  0  0  0  0  0  0  0  0
   48.5431   10.0234   16.4510 H   0  0  0  0  0  0  0  0  0  0  0  0
   46.9848   10.5871   17.0587 H   0  0  0  0  0  0  0  0  0  0  0  0
   49.2556    9.3790   18.6968 H   0  0  0  0  0  0  0  0  0  0  0  0
   47.4976    9.0232   18.7492 H   0  0  0  0  0  0  0  0  0  0  0  0
   48.3730   14.3153   19.2306 H   0  0  0  0  0  0  0  0  0  0  0  0
   47.6647    9.8837   21.4225 H   0  0  0  0  0  0  0  0  0  0  0  0
   47.5030   11.9872   22.7401 H   0  0  0  0  0  0  0  0  0  0  0  0
   47.8536   14.1806   21.6442 H   0  0  0  0  0  0  0  0  0  0  0  0
  1  2  1  0
  2  3  1  0
  3  4  1  0
  4  5  1  0
  5  6  1  0
  2  7  2  0
  4  8  1  0
  3  9  1  0
  5 10  2  0
 12 11  1  0
 15 11  1  0
 12 13  1  0
 13 14  3  0
 16 15  1  0
 19 15  1  0
 16 17  1  0
 17 18  1  0
 18 19  2  0
 18 21  1  0
 20 19  1  0
 23 20  2  0
 21 22  2  0
 22 23  1  0
 25 24  1  0
 28 24  1  0
 25 26  1  0
 26 27  3  0
 29 28  1  0
 32 28  1  0
 29 30  1  0
 30 31  1  0
 31 32  2  0
 31 34  1  0
 33 32  1  0
 36 33  2  0
 34 35  2  0
 35 36  1  0
  1 37  1  0
  3 38  1  6
  4 39  1  1
  6 40  1  0
  8 41  1  0
  9 42  1  0
 11 43  1  0
 12 44  1  0
 12 45  1  0
 14 46  1  0
 15 47  1  1
 16 48  1  0
 16 49  1  0
 17 50  1  0
 17 51  1  0
 20 52  1  0
 21 53  1  0
 22 54  1  0
 23 55  1  0
 24 56  1  0
 25 57  1  0
 25 58  1  0
 27 59  1  0
 28 60  1  6
 29 61  1  0
 29 62  1  0
 30 63  1  0
 30 64  1  0
 33 65  1  0
 34 66  1  0
 35 67  1  0
 36 68  1  0
M  END
> <Uni-Dock RESULT> 
ENERGY=   -5.544  LOWER_BOUND=    7.320  UPPER_BOUND=    9.407
INTER + INTRA:          -5.544
INTER:                  -5.544
INTRA:                   0.000
UNBOUND:                 0.000

$$$$

     RDKit          3D

 68 69  0  0  0  0  0  0  0  0999 V2000
   48.2432    4.2466   17.2757 O   0  0  0  0  0  0  0  0  0  0  0  0
   49.3348    4.7066   17.9130 C   0  0  0  0  0  0  0  0  0  0  0  0
   49.1462    4.8909   19.4130 C   0  0  2  0  0  0  0  0  0  0  0  0
   47.9284    5.7510   19.7468 C   0  0  2  0  0  0  0  0  0  0  0  0
   48.1301    7.1937   19.2911 C   0  0  0  0  0  0  0  0  0  0  0  0
   48.1402    7.3385   17.9503 O   0  0  0  0  0  0  0  0  0  0  0  0
   50.3864    4.8750   17.3130 O   0  0  0  0  0  0  0  0  0  0  0  0
   47.7078    5.7054   21.1664 O   0  0  0  0  0  0  0  0  0  0  0  0
   50.3115    5.4388   20.0462 O   0  0  0  0  0  0  0  0  0  0  0  0
   48.2523    8.1738   20.0098 O   0  0  0  0  0  0  0  0  0  0  0  0
   48.6005    6.5306   20.6123 N   0  0  0  0  0  0  0  0  0  0  0  0
   47.7383    7.5993   21.1102 C   0  0  0  0  0  0  0  0  0  0  0  0
   48.1502    8.9178   20.6095 C   0  0  0  0  0  0  0  0  0  0  0  0
   48.4881    9.9957   20.2009 C   0  0  0  0  0  0  0  0  0  0  0  0
   48.4310    6.2551   19.1878 C   0  0  2  0  0  0  0  0  0  0  0  0
   47.0526    5.6435   18.8479 C   0  0  0  0  0  0  0  0  0  0  0  0
   47.2510    4.8108   17.5753 C   0  0  0  0  0  0  0  0  0  0  0  0
   48.6649    4.3544   17.7508 C   0  0  0  0  0  0  0  0  0  0  0  0
   49.3409    5.1635   18.6756 C   0  0  0  0  0  0  0  0  0  0  0  0
   50.6839    4.9453   18.9488 C   0  0  0  0  0  0  0  0  0  0  0  0
   49.3072    3.3174   17.0939 C   0  0  0  0  0  0  0  0  0  0  0  0
   50.6529    3.0846   17.3808 C   0  0  0  0  0  0  0  0  0  0  0  0
   51.3368    3.8928   18.3014 C   0  0  0  0  0  0  0  0  0  0  0  0
   48.7967    7.2907   19.8676 N   0  0  0  0  0  0  0  0  0  0  0  0
   47.6022    7.6396   20.6226 C   0  0  0  0  0  0  0  0  0  0  0  0
   47.2114    9.0205   20.3092 C   0  0  0  0  0  0  0  0  0  0  0  0
   46.8915   10.1493   20.0512 C   0  0  0  0  0  0  0  0  0  0  0  0
   49.1973    5.9036   20.0628 C   0  0  2  0  0  0  0  0  0  0  0  0
   50.7231    5.7755   19.8545 C   0  0  0  0  0  0  0  0  0  0  0  0
   50.9756    4.3170   19.4571 C   0  0  0  0  0  0  0  0  0  0  0  0
   49.7205    4.0142   18.6986 C   0  0  0  0  0  0  0  0  0  0  0  0
   48.7023    4.9233   19.0278 C   0  0  0  0  0  0  0  0  0  0  0  0
   47.4446    4.7972   18.4565 C   0  0  0  0  0  0  0  0  0  0  0  0
   49.5049    2.9759   17.8071 C   0  0  0  0  0  0  0  0  0  0  0  0
   48.2437    2.8564   17.2236 C   0  0  0  0  0  0  0  0  0  0  0  0
   47.2212    3.7608   17.5452 C   0  0  0  0  0  0  0  0  0  0  0  0
   48.5170    4.1758   16.3358 H   0  0  0  0  0  0  0  0  0  0  0  0
   49.0205    3.8908   19.8443 H   0  0  0  0  0  0  0  0  0  0  0  0
   47.0142    5.3726   19.2782 H   0  0  0  0  0  0  0  0  0  0  0  0
   48.2646    8.3045   17.8245 H   0  0  0  0  0  0  0  0  0  0  0  0
   48.4952    6.1302   21.5635 H   0  0  0  0  0  0  0  0  0  0  0  0
   51.0841    5.0700   19.5739 H   0  0  0  0  0  0  0  0  0  0  0  0
   49.5674    6.7968   20.7842 H   0  0  0  0  0  0  0  0  0  0  0  0
   47.8097    7.6023   22.2041 H   0  0  0  0  0  0  0  0  0  0  0  0
   46.6853    7.4058   20.8805 H   0  0  0  0  0  0  0  0  0  0  0  0
   48.7884   10.9517   19.8380 H   0  0  0  0  0  0  0  0  0  0  0  0
   48.6138    7.1474   18.5754 H   0  0  0  0  0  0  0  0  0  0  0  0
   46.2750    6.4039   18.7200 H   0  0  0  0  0  0  0  0  0  0  0  0
   46.7218    4.9757   19.6574 H   0  0  0  0  0  0  0  0  0  0  0  0
   46.5439    3.9780   17.5290 H   0  0  0  0  0  0  0  0  0  0  0  0
   47.1626    5.4301   16.6768 H   0  0  0  0  0  0  0  0  0  0  0  0
   51.2254    5.5730   19.6481 H   0  0  0  0  0  0  0  0  0  0  0  0
   48.7815    2.6992   16.3736 H   0  0  0  0  0  0  0  0  0  0  0  0
   51.1787    2.2734   16.8834 H   0  0  0  0  0  0  0  0  0  0  0  0
   52.3867    3.7010   18.5085 H   0  0  0  0  0  0  0  0  0  0  0  0
   48.6447    7.4637   18.8751 H   0  0  0  0  0  0  0  0  0  0  0  0
   47.8037    7.5604   21.6972 H   0  0  0  0  0  0  0  0  0  0  0  0
   46.7672    6.9707   20.3932 H   0  0  0  0  0  0  0  0  0  0  0  0
   46.6158   11.1526   19.8219 H   0  0  0  0  0  0  0  0  0  0  0  0
   48.9452    5.5337   21.0656 H   0  0  0  0  0  0  0  0  0  0  0  0
   51.2911    6.0664   20.7449 H   0  0  0  0  0  0  0  0  0  0  0  0
   51.0581    6.4265   19.0328 H   0  0  0  0  0  0  0  0  0  0  0  0
   51.0516    3.6700   20.3370 H   0  0  0  0  0  0  0  0  0  0  0  0
   51.8728    4.2208   18.8395 H   0  0  0  0  0  0  0  0  0  0  0  0
   46.6383    5.4792   18.7001 H   0  0  0  0  0  0  0  0  0  0  0  0
   50.2946    2.2720   17.5644 H   0  0  0  0  0  0  0  0  0  0  0  0
   48.0493    2.0536   16.5165 H   0  0  0  0  0  0  0  0  0  0  0  0
   46.2427    3.6501   17.0840 H   0  0  0  0  0  0  0  0  0  0  0  0
  1  2  1  0
  2  3  1  0
  3  4  1  0
  4  5  1  0
  5  6  1  0
  2  7  2  0
  4  8  1  0
  3  9  1  0
  5 10  2  0
 12 11  1  0
 15 11  1  0
 12 13  1  0
 13 14  3  0
 16 15  1  0
 19 15  1  0
 16 17  1  0
 17 18  1  0
 18 19  2  0
 18 21  1  0
 20 19  1  0
 23 20  2  0
 21 22  2  0
 22 23  1  0
 25 24  1  0
 28 24  1  0
 25 26  1  0
 26 27  3  0
 29 28  1  0
 32 28  1  0
 29 30  1  0
 30 31  1  0
 31 32  2  0
 31 34  1  0
 33 32  1  0
 36 33  2  0
 34 35  2  0
 35 36  1  0
  1 37  1  0
  3 38  1  6
  4 39  1  1
  6 40  1  0
  8 41  1  0
  9 42  1  0
 11 43  1  0
 12 44  1  0
 12 45  1  0
 14 46  1  0
 15 47  1  1
 16 48  1  0
 16 49  1  0
 17 50  1  0
 17 51  1  0
 20 52  1  0
 21 53  1  0
 22 54  1  0
 23 55  1  0
 24 56  1  0
 25 57  1  0
 25 58  1  0
 27 59  1  0
 28 60  1  6
 29 61  1  0
 29 62  1  0
 30 63  1  0
 30 64  1  0
 33 65  1  0
 34 66  1  0
 35 67  1  0
 36 68  1  0
M  END
> <Uni-Dock RESULT> 
ENERGY=   -5.505  LOWER_BOUND=    6.654  UPPER_BOUND=    8.832
INTER + INTRA:          -5.505
INTER:                  -5.505
INTRA:                   0.000
UNBOUND:                 0.000

$$$$

     RDKit          3D

 68 69  0  0  0  0  0  0  0  0999 V2000
   48.4129   10.1115   18.6950 O   0  0  0  0  0  0  0  0  0  0  0  0
   48.2665   11.1856   19.4914 C   0  0  0  0  0  0  0  0  0  0  0  0
   47.4128   12.2934   18.8886 C   0  0  2  0  0  0  0  0  0  0  0  0
   47.8981   12.7158   17.5029 C   0  0  2  0  0  0  0  0  0  0  0  0
   49.2618   13.3972   17.5798 C   0  0  0  0  0  0  0  0  0  0  0  0
   50.2637   12.5601   17.9175 O   0  0  0  0  0  0  0  0  0  0  0  0
   48.7318   11.1957   20.6217 O   0  0  0  0  0  0  0  0  0  0  0  0
   46.9292   13.6085   16.9281 O   0  0  0  0  0  0  0  0  0  0  0  0
   47.3301   13.4441   19.7419 O   0  0  0  0  0  0  0  0  0  0  0  0
   49.5026   14.5721   17.3482 O   0  0  0  0  0  0  0  0  0  0  0  0
   47.8606   14.0295   17.7884 N   0  0  0  0  0  0  0  0  0  0  0  0
   48.3709   14.8096   16.6641 C   0  0  0  0  0  0  0  0  0  0  0  0
   49.6604   15.4426   16.9729 C   0  0  0  0  0  0  0  0  0  0  0  0
   50.7141   15.9609   17.2262 C   0  0  0  0  0  0  0  0  0  0  0  0
   48.6167   12.8063   18.0456 C   0  0  2  0  0  0  0  0  0  0  0  0
   48.4684   11.7540   16.9230 C   0  0  0  0  0  0  0  0  0  0  0  0
   48.6885   10.3861   17.5809 C   0  0  0  0  0  0  0  0  0  0  0  0
   48.1516   10.6404   18.9540 C   0  0  0  0  0  0  0  0  0  0  0  0
   48.0962   12.0158   19.2229 C   0  0  0  0  0  0  0  0  0  0  0  0
   47.6750   12.4715   20.4642 C   0  0  0  0  0  0  0  0  0  0  0  0
   47.7836    9.7035   19.9058 C   0  0  0  0  0  0  0  0  0  0  0  0
   47.3421   10.1601   21.1484 C   0  0  0  0  0  0  0  0  0  0  0  0
   47.2884   11.5343   21.4261 C   0  0  0  0  0  0  0  0  0  0  0  0
   48.9107   14.0640   18.0469 N   0  0  0  0  0  0  0  0  0  0  0  0
   48.7341   14.4548   16.6559 C   0  0  0  0  0  0  0  0  0  0  0  0
   49.9909   15.0154   16.1419 C   0  0  0  0  0  0  0  0  0  0  0  0
   51.0194   15.4724   15.7218 C   0  0  0  0  0  0  0  0  0  0  0  0
   47.7278   13.4200   18.6021 C   0  0  2  0  0  0  0  0  0  0  0  0
   47.6844   13.6542   20.1290 C   0  0  0  0  0  0  0  0  0  0  0  0
   46.8525   12.5059   20.7104 C   0  0  0  0  0  0  0  0  0  0  0  0
   47.2059   11.3999   19.7648 C   0  0  0  0  0  0  0  0  0  0  0  0
   47.7193   11.9115   18.5621 C   0  0  0  0  0  0  0  0  0  0  0  0
   48.0791   11.0500   17.5362 C   0  0  0  0  0  0  0  0  0  0  0  0
   47.0426   10.0384   19.9623 C   0  0  0  0  0  0  0  0  0  0  0  0
   47.4156    9.1716   18.9351 C   0  0  0  0  0  0  0  0  0  0  0  0
   47.9308    9.6736   17.7312 C   0  0  0  0  0  0  0  0  0  0  0  0
   48.9721    9.4935   19.2135 H   0  0  0  0  0  0  0  0  0  0  0  0
   46.3895   11.9058   18.8185 H   0  0  0  0  0  0  0  0  0  0  0  0
   47.9823   11.8661   16.8177 H   0  0  0  0  0  0  0  0  0  0  0  0
   51.0577   13.1380   17.9118 H   0  0  0  0  0  0  0  0  0  0  0  0
   46.9344   14.4001   17.5039 H   0  0  0  0  0  0  0  0  0  0  0  0
   47.3274   13.1095   20.6606 H   0  0  0  0  0  0  0  0  0  0  0  0
   47.8881   14.6154   18.6198 H   0  0  0  0  0  0  0  0  0  0  0  0
   47.6389   15.5955   16.4445 H   0  0  0  0  0  0  0  0  0  0  0  0
   48.4409   14.2044   15.7542 H   0  0  0  0  0  0  0  0  0  0  0  0
   51.6488   16.4205   17.4517 H   0  0  0  0  0  0  0  0  0  0  0  0
   49.6774   13.0150   18.2351 H   0  0  0  0  0  0  0  0  0  0  0  0
   49.1628   11.9233   16.0934 H   0  0  0  0  0  0  0  0  0  0  0  0
   47.4513   11.7837   16.5047 H   0  0  0  0  0  0  0  0  0  0  0  0
   48.1416    9.5982   17.0559 H   0  0  0  0  0  0  0  0  0  0  0  0
   49.7531   10.1358   17.6318 H   0  0  0  0  0  0  0  0  0  0  0  0
   47.6431   13.5310   20.6938 H   0  0  0  0  0  0  0  0  0  0  0  0
   47.8356    8.6403   19.6951 H   0  0  0  0  0  0  0  0  0  0  0  0
   47.0419    9.4456   21.9108 H   0  0  0  0  0  0  0  0  0  0  0  0
   46.9478   11.8723   22.4016 H   0  0  0  0  0  0  0  0  0  0  0  0
   49.7105   13.4388   18.1345 H   0  0  0  0  0  0  0  0  0  0  0  0
   47.9464   15.2132   16.5785 H   0  0  0  0  0  0  0  0  0  0  0  0
   48.4384   13.6070   16.0306 H   0  0  0  0  0  0  0  0  0  0  0  0
   51.9330   15.8811   15.3566 H   0  0  0  0  0  0  0  0  0  0  0  0
   46.7983   13.8018   18.1594 H   0  0  0  0  0  0  0  0  0  0  0  0
   47.2735   14.6359   20.3884 H   0  0  0  0  0  0  0  0  0  0  0  0
   48.6971   13.6063   20.5573 H   0  0  0  0  0  0  0  0  0  0  0  0
   45.7805   12.7215   20.6571 H   0  0  0  0  0  0  0  0  0  0  0  0
   47.1420   12.2850   21.7415 H   0  0  0  0  0  0  0  0  0  0  0  0
   48.4689   11.4185   16.5944 H   0  0  0  0  0  0  0  0  0  0  0  0
   46.6369    9.6512   20.8915 H   0  0  0  0  0  0  0  0  0  0  0  0
   47.3028    8.0982   19.0661 H   0  0  0  0  0  0  0  0  0  0  0  0
   48.2125    8.9836   16.9393 H   0  0  0  0  0  0  0  0  0  0  0  0
  1  2  1  0
  2  3  1  0
  3  4  1  0
  4  5  1  0
  5  6  1  0
  2  7  2  0
  4  8  1  0
  3  9  1  0
  5 10  2  0
 12 11  1  0
 15 11  1  0
 12 13  1  0
 13 14  3  0
 16 15  1  0
 19 15  1  0
 16 17  1  0
 17 18  1  0
 18 19  2  0
 18 21  1  0
 20 19  1  0
 23 20  2  0
 21 22  2  0
 22 23  1  0
 25 24  1  0
 28 24  1  0
 25 26  1  0
 26 27  3  0
 29 28  1  0
 32 28  1  0
 29 30  1  0
 30 31  1  0
 31 32  2  0
 31 34  1  0
 33 32  1  0
 36 33  2  0
 34 35  2  0
 35 36  1  0
  1 37  1  0
  3 38  1  6
  4 39  1  1
  6 40  1  0
  8 41  1  0
  9 42  1  0
 11 43  1  0
 12 44  1  0
 12 45  1  0
 14 46  1  0
 15 47  1  1
 16 48  1  0
 16 49  1  0
 17 50  1  0
 17 51  1  0
 20 52  1  0
 21 53  1  0
 22 54  1  0
 23 55  1  0
 24 56  1  0
 25 57  1  0
 25 58  1  0
 27 59  1  0
 28 60  1  6
 29 61  1  0
 29 62  1  0
 30 63  1  0
 30 64  1  0
 33 65  1  0
 34 66  1  0
 35 67  1  0
 36 68  1  0
M  END
> <Uni-Dock RESULT> 
ENERGY=   -5.498  LOWER_BOUND=    7.459  UPPER_BOUND=    9.754
INTER + INTRA:          -5.498
INTER:                  -5.498
INTRA:                   0.000
UNBOUND:                 0.000

$$$$

     RDKit          3D

 68 69  0  0  0  0  0  0  0  0999 V2000
   44.6590   12.4579    7.5345 O   0  0  0  0  0  0  0  0  0  0  0  0
   44.8189   12.7578    8.8360 C   0  0  0  0  0  0  0  0  0  0  0  0
   44.7791   11.5487    9.7610 C   0  0  2  0  0  0  0  0  0  0  0  0
   43.5260   10.6987    9.5570 C   0  0  2  0  0  0  0  0  0  0  0  0
   42.2718   11.4511    9.9937 C   0  0  0  0  0  0  0  0  0  0  0  0
   41.9630   12.4926    9.1946 O   0  0  0  0  0  0  0  0  0  0  0  0
   45.0496   13.9046    9.1910 O   0  0  0  0  0  0  0  0  0  0  0  0
   43.6650    9.4846   10.3138 O   0  0  0  0  0  0  0  0  0  0  0  0
   44.8929   11.9155   11.1437 O   0  0  0  0  0  0  0  0  0  0  0  0
   41.5549   11.1806   10.9450 O   0  0  0  0  0  0  0  0  0  0  0  0
   43.2492   10.6255   10.8711 N   0  0  0  0  0  0  0  0  0  0  0  0
   41.9902    9.9175   11.0873 C   0  0  0  0  0  0  0  0  0  0  0  0
   40.9324   10.8118   11.5775 C   0  0  0  0  0  0  0  0  0  0  0  0
   40.0682   11.5431   11.9794 C   0  0  0  0  0  0  0  0  0  0  0  0
   43.2228   11.5343    9.7276 C   0  0  2  0  0  0  0  0  0  0  0  0
   43.1122   10.8003    8.3716 C   0  0  0  0  0  0  0  0  0  0  0  0
   43.7630   11.7178    7.3291 C   0  0  0  0  0  0  0  0  0  0  0  0
   44.8144   12.3881    8.1559 C   0  0  0  0  0  0  0  0  0  0  0  0
   44.5212   12.2786    9.5230 C   0  0  0  0  0  0  0  0  0  0  0  0
   45.3435   12.8776   10.4670 C   0  0  0  0  0  0  0  0  0  0  0  0
   45.9267   13.0831    7.7096 C   0  0  0  0  0  0  0  0  0  0  0  0
   46.7649   13.6706    8.6581 C   0  0  0  0  0  0  0  0  0  0  0  0
   46.4755   13.5690   10.0271 C   0  0  0  0  0  0  0  0  0  0  0  0
   42.5585   11.4575   10.8326 N   0  0  0  0  0  0  0  0  0  0  0  0
   41.8273   10.2057   10.7022 C   0  0  0  0  0  0  0  0  0  0  0  0
   40.3867   10.4654   10.8262 C   0  0  0  0  0  0  0  0  0  0  0  0
   39.2088   10.6788   10.9261 C   0  0  0  0  0  0  0  0  0  0  0  0
   43.9925   11.2915   10.6360 C   0  0  2  0  0  0  0  0  0  0  0  0
   44.7488   12.3850   11.4235 C   0  0  0  0  0  0  0  0  0  0  0  0
   46.0994   12.5566   10.7197 C   0  0  0  0  0  0  0  0  0  0  0  0
   45.7113   12.2753    9.3010 C   0  0  0  0  0  0  0  0  0  0  0  0
   44.5020   11.5643    9.2420 C   0  0  0  0  0  0  0  0  0  0  0  0
   43.9818   11.1755    8.0163 C   0  0  0  0  0  0  0  0  0  0  0  0
   46.4150   12.6053    8.1541 C   0  0  0  0  0  0  0  0  0  0  0  0
   45.8857   12.2246    6.9210 C   0  0  0  0  0  0  0  0  0  0  0  0
   44.6775   11.5157    6.8525 C   0  0  0  0  0  0  0  0  0  0  0  0
   44.7128   13.3224    7.0729 H   0  0  0  0  0  0  0  0  0  0  0  0
   45.6707   10.9494    9.5420 H   0  0  0  0  0  0  0  0  0  0  0  0
   43.3950   10.3999    8.5119 H   0  0  0  0  0  0  0  0  0  0  0  0
   41.1432   12.8549    9.5960 H   0  0  0  0  0  0  0  0  0  0  0  0
   43.6892    9.7663   11.2509 H   0  0  0  0  0  0  0  0  0  0  0  0
   45.4950   12.6850   11.1786 H   0  0  0  0  0  0  0  0  0  0  0  0
   43.4621   11.1583   11.7113 H   0  0  0  0  0  0  0  0  0  0  0  0
   42.1695    9.1417   11.8407 H   0  0  0  0  0  0  0  0  0  0  0  0
   41.6669    9.3880   10.1850 H   0  0  0  0  0  0  0  0  0  0  0  0
   39.3021   12.1924   12.3360 H   0  0  0  0  0  0  0  0  0  0  0  0
   42.4271   12.2844    9.8214 H   0  0  0  0  0  0  0  0  0  0  0  0
   42.0777   10.5552    8.1092 H   0  0  0  0  0  0  0  0  0  0  0  0
   43.6707    9.8530    8.4043 H   0  0  0  0  0  0  0  0  0  0  0  0
   44.1846   11.1433    6.4997 H   0  0  0  0  0  0  0  0  0  0  0  0
   43.0508   12.4581    6.9507 H   0  0  0  0  0  0  0  0  0  0  0  0
   45.1211   12.8170   11.5268 H   0  0  0  0  0  0  0  0  0  0  0  0
   46.1446   13.1712    6.6502 H   0  0  0  0  0  0  0  0  0  0  0  0
   47.6476   14.2165    8.3344 H   0  0  0  0  0  0  0  0  0  0  0  0
   47.1362   14.0380   10.7520 H   0  0  0  0  0  0  0  0  0  0  0  0
   42.2013   12.1409   10.1667 H   0  0  0  0  0  0  0  0  0  0  0  0
   42.1343    9.5102   11.4920 H   0  0  0  0  0  0  0  0  0  0  0  0
   42.0219    9.7202    9.7411 H   0  0  0  0  0  0  0  0  0  0  0  0
   38.1656   10.8738   11.0204 H   0  0  0  0  0  0  0  0  0  0  0  0
   44.3479   10.3070   10.9681 H   0  0  0  0  0  0  0  0  0  0  0  0
   44.8632   12.1316   12.4830 H   0  0  0  0  0  0  0  0  0  0  0  0
   44.2053   13.3409   11.3786 H   0  0  0  0  0  0  0  0  0  0  0  0
   46.8282   11.8169   11.0665 H   0  0  0  0  0  0  0  0  0  0  0  0
   46.4944   13.5673   10.8542 H   0  0  0  0  0  0  0  0  0  0  0  0
   43.0553   10.6178    7.9427 H   0  0  0  0  0  0  0  0  0  0  0  0
   47.3536   13.1474    8.2084 H   0  0  0  0  0  0  0  0  0  0  0  0
   46.4151   12.4755    6.0051 H   0  0  0  0  0  0  0  0  0  0  0  0
   44.2817   11.2232    5.8828 H   0  0  0  0  0  0  0  0  0  0  0  0
  1  2  1  0
  2  3  1  0
  3  4  1  0
  4  5  1  0
  5  6  1  0
  2  7  2  0
  4  8  1  0
  3  9  1  0
  5 10  2  0
 12 11  1  0
 15 11  1  0
 12 13  1  0
 13 14  3  0
 16 15  1  0
 19 15  1  0
 16 17  1  0
 17 18  1  0
 18 19  2  0
 18 21  1  0
 20 19  1  0
 23 20  2  0
 21 22  2  0
 22 23  1  0
 25 24  1  0
 28 24  1  0
 25 26  1  0
 26 27  3  0
 29 28  1  0
 32 28  1  0
 29 30  1  0
 30 31  1  0
 31 32  2  0
 31 34  1  0
 33 32  1  0
 36 33  2  0
 34 35  2  0
 35 36  1  0
  1 37  1  0
  3 38  1  6
  4 39  1  1
  6 40  1  0
  8 41  1  0
  9 42  1  0
 11 43  1  0
 12 44  1  0
 12 45  1  0
 14 46  1  0
 15 47  1  1
 16 48  1  0
 16 49  1  0
 17 50  1  0
 17 51  1  0
 20 52  1  0
 21 53  1  0
 22 54  1  0
 23 55  1  0
 24 56  1  0
 25 57  1  0
 25 58  1  0
 27 59  1  0
 28 60  1  6
 29 61  1  0
 29 62  1  0
 30 63  1  0
 30 64  1  0
 33 65  1  0
 34 66  1  0
 35 67  1  0
 36 68  1  0
M  END
> <Uni-Dock RESULT> 
ENERGY=   -5.439  LOWER_BOUND=    5.184  UPPER_BOUND=    6.661
INTER + INTRA:          -5.439
INTER:                  -5.439
INTRA:                   0.000
UNBOUND:                 0.000

$$$$
