
     RDKit          3D

 68 69  0  0  0  0  0  0  0  0999 V2000
   46.4069   11.0260   19.7238 O   0  0  0  0  0  0  0  0  0  0  0  0
   47.5791   11.6437   19.9520 C   0  0  0  0  0  0  0  0  0  0  0  0
   47.7482   12.9541   19.1938 C   0  0  2  0  0  0  0  0  0  0  0  0
   47.4431   12.8073   17.7038 C   0  0  2  0  0  0  0  0  0  0  0  0
   48.3910   11.7872   17.0751 C   0  0  0  0  0  0  0  0  0  0  0  0
   49.3231   12.3440   16.2715 O   0  0  0  0  0  0  0  0  0  0  0  0
   48.3803   11.1955   20.7590 O   0  0  0  0  0  0  0  0  0  0  0  0
   47.5238   14.0932   17.0741 O   0  0  0  0  0  0  0  0  0  0  0  0
   49.0661   13.5010   19.3630 O   0  0  0  0  0  0  0  0  0  0  0  0
   48.3768   10.5801   17.2602 O   0  0  0  0  0  0  0  0  0  0  0  0
   48.5926   13.6171   17.4065 N   0  0  0  0  0  0  0  0  0  0  0  0
   48.0416   13.6109   16.0549 C   0  0  0  0  0  0  0  0  0  0  0  0
   49.0751   14.0442   15.1054 C   0  0  0  0  0  0  0  0  0  0  0  0
   49.9208   14.3986   14.3292 C   0  0  0  0  0  0  0  0  0  0  0  0
   47.6088   13.1909   18.3963 C   0  0  2  0  0  0  0  0  0  0  0  0
   47.8706   13.8674   19.7627 C   0  0  0  0  0  0  0  0  0  0  0  0
   47.2315   12.9524   20.8146 C   0  0  0  0  0  0  0  0  0  0  0  0
   47.4469   11.6126   20.1824 C   0  0  0  0  0  0  0  0  0  0  0  0
   47.6893   11.7419   18.8053 C   0  0  0  0  0  0  0  0  0  0  0  0
   47.9050   10.6146   18.0272 C   0  0  0  0  0  0  0  0  0  0  0  0
   47.4021   10.3718   20.7971 C   0  0  0  0  0  0  0  0  0  0  0  0
   47.6229    9.2381   20.0146 C   0  0  0  0  0  0  0  0  0  0  0  0
   47.8759    9.3588   18.6402 C   0  0  0  0  0  0  0  0  0  0  0  0
   47.6873   13.3424   17.2527 N   0  0  0  0  0  0  0  0  0  0  0  0
   48.1221   14.6080   16.6726 C   0  0  0  0  0  0  0  0  0  0  0  0
   47.5676   14.7414   15.3190 C   0  0  0  0  0  0  0  0  0  0  0  0
   47.1131   14.8497   14.2123 C   0  0  0  0  0  0  0  0  0  0  0  0
   48.1654   13.1820   18.6247 C   0  0  2  0  0  0  0  0  0  0  0  0
   49.6138   12.6461   18.6881 C   0  0  0  0  0  0  0  0  0  0  0  0
   49.5241   11.1143   18.6221 C   0  0  0  0  0  0  0  0  0  0  0  0
   48.2158   10.8803   19.3097 C   0  0  0  0  0  0  0  0  0  0  0  0
   47.4416   12.0481   19.3085 C   0  0  0  0  0  0  0  0  0  0  0  0
   46.1716   12.0593   19.8662 C   0  0  0  0  0  0  0  0  0  0  0  0
   47.7354    9.7024   19.8556 C   0  0  0  0  0  0  0  0  0  0  0  0
   46.4601    9.7087   20.4248 C   0  0  0  0  0  0  0  0  0  0  0  0
   45.6841   10.8786   20.4311 C   0  0  0  0  0  0  0  0  0  0  0  0
   46.4567   10.1981   20.2492 H   0  0  0  0  0  0  0  0  0  0  0  0
   47.0639   13.6832   19.6426 H   0  0  0  0  0  0  0  0  0  0  0  0
   46.4235   12.4456   17.5339 H   0  0  0  0  0  0  0  0  0  0  0  0
   49.8563   11.5865   15.9519 H   0  0  0  0  0  0  0  0  0  0  0  0
   48.4686   14.3418   17.1374 H   0  0  0  0  0  0  0  0  0  0  0  0
   49.3358   13.2914   20.2794 H   0  0  0  0  0  0  0  0  0  0  0  0
   48.9028   14.5640   17.6141 H   0  0  0  0  0  0  0  0  0  0  0  0
   47.1865   14.2942   15.9888 H   0  0  0  0  0  0  0  0  0  0  0  0
   47.6915   12.6131   15.7734 H   0  0  0  0  0  0  0  0  0  0  0  0
   50.6775   14.7075   13.6457 H   0  0  0  0  0  0  0  0  0  0  0  0
   46.5807   13.4242   18.0875 H   0  0  0  0  0  0  0  0  0  0  0  0
   47.4739   14.8875   19.8051 H   0  0  0  0  0  0  0  0  0  0  0  0
   48.9512   13.9321   19.9604 H   0  0  0  0  0  0  0  0  0  0  0  0
   46.1607   13.1532   20.9225 H   0  0  0  0  0  0  0  0  0  0  0  0
   47.7326   13.0459   21.7821 H   0  0  0  0  0  0  0  0  0  0  0  0
   48.1044   10.6940   16.9645 H   0  0  0  0  0  0  0  0  0  0  0  0
   47.2066   10.2789   21.8603 H   0  0  0  0  0  0  0  0  0  0  0  0
   47.6017    8.2524   20.4726 H   0  0  0  0  0  0  0  0  0  0  0  0
   48.0510    8.4657   18.0452 H   0  0  0  0  0  0  0  0  0  0  0  0
   46.6685   13.3234   17.2535 H   0  0  0  0  0  0  0  0  0  0  0  0
   49.2148   14.6564   16.6172 H   0  0  0  0  0  0  0  0  0  0  0  0
   47.7793   15.4503   17.2849 H   0  0  0  0  0  0  0  0  0  0  0  0
   46.7107   14.9358   13.2295 H   0  0  0  0  0  0  0  0  0  0  0  0
   48.0590   14.1012   19.2131 H   0  0  0  0  0  0  0  0  0  0  0  0
   50.0531   12.9353   19.6541 H   0  0  0  0  0  0  0  0  0  0  0  0
   50.2748   13.0510   17.9153 H   0  0  0  0  0  0  0  0  0  0  0  0
   49.4785   10.7596   17.5875 H   0  0  0  0  0  0  0  0  0  0  0  0
   50.3615   10.6439   19.1451 H   0  0  0  0  0  0  0  0  0  0  0  0
   45.5662   12.9596   19.8636 H   0  0  0  0  0  0  0  0  0  0  0  0
   48.3299    8.7948   19.8412 H   0  0  0  0  0  0  0  0  0  0  0  0
   46.0608    8.7968   20.8620 H   0  0  0  0  0  0  0  0  0  0  0  0
   44.6914   10.8615   20.8745 H   0  0  0  0  0  0  0  0  0  0  0  0
  1  2  1  0
  2  3  1  0
  3  4  1  0
  4  5  1  0
  5  6  1  0
  2  7  2  0
  4  8  1  0
  3  9  1  0
  5 10  2  0
 12 11  1  0
 15 11  1  0
 12 13  1  0
 13 14  3  0
 16 15  1  0
 19 15  1  0
 16 17  1  0
 17 18  1  0
 18 19  2  0
 18 21  1  0
 20 19  1  0
 23 20  2  0
 21 22  2  0
 22 23  1  0
 25 24  1  0
 28 24  1  0
 25 26  1  0
 26 27  3  0
 29 28  1  0
 32 28  1  0
 29 30  1  0
 30 31  1  0
 31 32  2  0
 31 34  1  0
 33 32  1  0
 36 33  2  0
 34 35  2  0
 35 36  1  0
  1 37  1  0
  3 38  1  1
  4 39  1  1
  6 40  1  0
  8 41  1  0
  9 42  1  0
 11 43  1  0
 12 44  1  0
 12 45  1  0
 14 46  1  0
 15 47  1  1
 16 48  1  0
 16 49  1  0
 17 50  1  0
 17 51  1  0
 20 52  1  0
 21 53  1  0
 22 54  1  0
 23 55  1  0
 24 56  1  0
 25 57  1  0
 25 58  1  0
 27 59  1  0
 28 60  1  6
 29 61  1  0
 29 62  1  0
 30 63  1  0
 30 64  1  0
 33 65  1  0
 34 66  1  0
 35 67  1  0
 36 68  1  0
M  END
> <Uni-Dock RESULT> 
ENERGY=   -5.454  LOWER_BOUND=    0.000  UPPER_BOUND=    0.000
INTER + INTRA:          -5.454
INTER:                  -5.454
INTRA:                   0.000
UNBOUND:                 0.000

$$$$

     RDKit          3D

 68 69  0  0  0  0  0  0  0  0999 V2000
   43.2723   11.4676    8.0035 O   0  0  0  0  0  0  0  0  0  0  0  0
   43.4351   11.9977    9.2283 C   0  0  0  0  0  0  0  0  0  0  0  0
   42.6583   11.2788   10.3239 C   0  0  2  0  0  0  0  0  0  0  0  0
   41.1872   11.0826    9.9607 C   0  0  2  0  0  0  0  0  0  0  0  0
   40.5193   12.4386    9.7381 C   0  0  0  0  0  0  0  0  0  0  0  0
   39.6644   12.7848   10.7250 O   0  0  0  0  0  0  0  0  0  0  0  0
   44.2037   12.9298    9.4138 O   0  0  0  0  0  0  0  0  0  0  0  0
   40.5435   10.3149   10.9868 O   0  0  0  0  0  0  0  0  0  0  0  0
   42.7552   11.9646   11.5828 O   0  0  0  0  0  0  0  0  0  0  0  0
   40.7149   13.1930    8.7978 O   0  0  0  0  0  0  0  0  0  0  0  0
   40.8247   11.4560   11.3003 N   0  0  0  0  0  0  0  0  0  0  0  0
   39.5032   10.9852   10.8974 C   0  0  0  0  0  0  0  0  0  0  0  0
   38.4983   11.4827   11.8462 C   0  0  0  0  0  0  0  0  0  0  0  0
   37.6770   11.8899   12.6225 C   0  0  0  0  0  0  0  0  0  0  0  0
   41.8670   10.9940   10.3897 C   0  0  2  0  0  0  0  0  0  0  0  0
   43.2126   10.8193   11.1329 C   0  0  0  0  0  0  0  0  0  0  0  0
   44.3034   10.9346   10.0609 C   0  0  0  0  0  0  0  0  0  0  0  0
   43.6722   11.9225    9.1300 C   0  0  0  0  0  0  0  0  0  0  0  0
   42.2835   11.9819    9.3294 C   0  0  0  0  0  0  0  0  0  0  0  0
   41.5047   12.8313    8.5582 C   0  0  0  0  0  0  0  0  0  0  0  0
   44.2987   12.6892    8.1608 C   0  0  0  0  0  0  0  0  0  0  0  0
   43.5154   13.5465    7.3877 C   0  0  0  0  0  0  0  0  0  0  0  0
   42.1289   13.6196    7.5872 C   0  0  0  0  0  0  0  0  0  0  0  0
   40.7197   10.9203   10.5125 N   0  0  0  0  0  0  0  0  0  0  0  0
   40.1076   10.4421   11.7471 C   0  0  0  0  0  0  0  0  0  0  0  0
   38.7831    9.8806   11.4504 C   0  0  0  0  0  0  0  0  0  0  0  0
   37.7003    9.4212   11.2065 C   0  0  0  0  0  0  0  0  0  0  0  0
   42.0667   11.4400   10.7409 C   0  0  2  0  0  0  0  0  0  0  0  0
   42.0603   12.9043   11.2358 C   0  0  0  0  0  0  0  0  0  0  0  0
   42.0118   13.7955    9.9859 C   0  0  0  0  0  0  0  0  0  0  0  0
   42.7673   12.9501    9.0095 C   0  0  0  0  0  0  0  0  0  0  0  0
   42.7961   11.6143    9.4315 C   0  0  0  0  0  0  0  0  0  0  0  0
   43.4181   10.6400    8.6646 C   0  0  0  0  0  0  0  0  0  0  0  0
   43.3469   13.3364    7.8131 C   0  0  0  0  0  0  0  0  0  0  0  0
   43.9806   12.3615    7.0396 C   0  0  0  0  0  0  0  0  0  0  0  0
   44.0170   11.0233    7.4625 C   0  0  0  0  0  0  0  0  0  0  0  0
   43.8014   12.0451    7.4112 H   0  0  0  0  0  0  0  0  0  0  0  0
   43.1355   10.3044   10.4787 H   0  0  0  0  0  0  0  0  0  0  0  0
   41.0728   10.5121    9.0329 H   0  0  0  0  0  0  0  0  0  0  0  0
   39.3242   13.6642   10.4583 H   0  0  0  0  0  0  0  0  0  0  0  0
   40.5563   10.8948   11.7755 H   0  0  0  0  0  0  0  0  0  0  0  0
   43.6584   12.3376   11.6246 H   0  0  0  0  0  0  0  0  0  0  0  0
   41.0082   11.1088   12.2393 H   0  0  0  0  0  0  0  0  0  0  0  0
   39.4753    9.8890   10.8894 H   0  0  0  0  0  0  0  0  0  0  0  0
   39.2483   11.3309    9.8909 H   0  0  0  0  0  0  0  0  0  0  0  0
   36.9530   12.2598   13.3112 H   0  0  0  0  0  0  0  0  0  0  0  0
   41.6095   10.0380    9.9139 H   0  0  0  0  0  0  0  0  0  0  0  0
   43.2668    9.8713   11.6787 H   0  0  0  0  0  0  0  0  0  0  0  0
   43.3541   11.6249   11.8691 H   0  0  0  0  0  0  0  0  0  0  0  0
   44.4643    9.9803    9.5492 H   0  0  0  0  0  0  0  0  0  0  0  0
   45.2431   11.2986   10.4856 H   0  0  0  0  0  0  0  0  0  0  0  0
   40.4325   12.8995    8.7040 H   0  0  0  0  0  0  0  0  0  0  0  0
   45.3713   12.6326    8.0071 H   0  0  0  0  0  0  0  0  0  0  0  0
   43.9820   14.1657    6.6256 H   0  0  0  0  0  0  0  0  0  0  0  0
   41.5331   14.2965    6.9796 H   0  0  0  0  0  0  0  0  0  0  0  0
   40.7729   10.1408    9.8584 H   0  0  0  0  0  0  0  0  0  0  0  0
   39.9959   11.2586   12.4683 H   0  0  0  0  0  0  0  0  0  0  0  0
   40.7296    9.6674   12.2105 H   0  0  0  0  0  0  0  0  0  0  0  0
   36.7387    9.0204   10.9829 H   0  0  0  0  0  0  0  0  0  0  0  0
   42.6522   10.7997   11.4116 H   0  0  0  0  0  0  0  0  0  0  0  0
   43.0001   13.0971   11.7738 H   0  0  0  0  0  0  0  0  0  0  0  0
   41.2513   13.1364   11.9356 H   0  0  0  0  0  0  0  0  0  0  0  0
   40.9838   13.9472    9.6415 H   0  0  0  0  0  0  0  0  0  0  0  0
   42.4950   14.7598   10.1660 H   0  0  0  0  0  0  0  0  0  0  0  0
   43.4390    9.6036    8.9846 H   0  0  0  0  0  0  0  0  0  0  0  0
   43.3096   14.3684    7.4800 H   0  0  0  0  0  0  0  0  0  0  0  0
   44.4454   12.6398    6.0969 H   0  0  0  0  0  0  0  0  0  0  0  0
   44.5108   10.2783    6.8433 H   0  0  0  0  0  0  0  0  0  0  0  0
  1  2  1  0
  2  3  1  0
  3  4  1  0
  4  5  1  0
  5  6  1  0
  2  7  2  0
  4  8  1  0
  3  9  1  0
  5 10  2  0
 12 11  1  0
 15 11  1  0
 12 13  1  0
 13 14  3  0
 16 15  1  0
 19 15  1  0
 16 17  1  0
 17 18  1  0
 18 19  2  0
 18 21  1  0
 20 19  1  0
 23 20  2  0
 21 22  2  0
 22 23  1  0
 25 24  1  0
 28 24  1  0
 25 26  1  0
 26 27  3  0
 29 28  1  0
 32 28  1  0
 29 30  1  0
 30 31  1  0
 31 32  2  0
 31 34  1  0
 33 32  1  0
 36 33  2  0
 34 35  2  0
 35 36  1  0
  1 37  1  0
  3 38  1  1
  4 39  1  1
  6 40  1  0
  8 41  1  0
  9 42  1  0
 11 43  1  0
 12 44  1  0
 12 45  1  0
 14 46  1  0
 15 47  1  1
 16 48  1  0
 16 49  1  0
 17 50  1  0
 17 51  1  0
 20 52  1  0
 21 53  1  0
 22 54  1  0
 23 55  1  0
 24 56  1  0
 25 57  1  0
 25 58  1  0
 27 59  1  0
 28 60  1  6
 29 61  1  0
 29 62  1  0
 30 63  1  0
 30 64  1  0
 33 65  1  0
 34 66  1  0
 35 67  1  0
 36 68  1  0
M  END
> <Uni-Dock RESULT> 
ENERGY=   -5.272  LOWER_BOUND=    9.131  UPPER_BOUND=   11.453
INTER + INTRA:          -5.272
INTER:                  -5.272
INTRA:                   0.000
UNBOUND:                 0.000

$$$$

     RDKit          3D

 68 69  0  0  0  0  0  0  0  0999 V2000
   49.0839   12.4232   20.6549 O   0  0  0  0  0  0  0  0  0  0  0  0
   48.0194   11.8526   21.2455 C   0  0  0  0  0  0  0  0  0  0  0  0
   48.1963   10.3694   21.5445 C   0  0  2  0  0  0  0  0  0  0  0  0
   48.6819    9.5846   20.3267 C   0  0  2  0  0  0  0  0  0  0  0  0
   47.6688    9.7063   19.1895 C   0  0  0  0  0  0  0  0  0  0  0  0
   46.9759    8.5691   18.9634 O   0  0  0  0  0  0  0  0  0  0  0  0
   47.0436   12.5173   21.5621 O   0  0  0  0  0  0  0  0  0  0  0  0
   48.9220    8.2223   20.7051 O   0  0  0  0  0  0  0  0  0  0  0  0
   46.9858    9.7791   22.0452 O   0  0  0  0  0  0  0  0  0  0  0  0
   47.4420   10.7090   18.5303 O   0  0  0  0  0  0  0  0  0  0  0  0
   47.7492    8.5400   20.6497 N   0  0  0  0  0  0  0  0  0  0  0  0
   48.4792    7.7981   19.6265 C   0  0  0  0  0  0  0  0  0  0  0  0
   47.6867    6.6336   19.2102 C   0  0  0  0  0  0  0  0  0  0  0  0
   47.0380    5.6815   18.8701 C   0  0  0  0  0  0  0  0  0  0  0  0
   48.4888    9.7139   21.1014 C   0  0  2  0  0  0  0  0  0  0  0  0
   48.1570   10.0427   22.5762 C   0  0  0  0  0  0  0  0  0  0  0  0
   48.4655   11.5344   22.7545 C   0  0  0  0  0  0  0  0  0  0  0  0
   48.1094   12.0541   21.3965 C   0  0  0  0  0  0  0  0  0  0  0  0
   48.0947   11.0159   20.4511 C   0  0  0  0  0  0  0  0  0  0  0  0
   47.7970   11.2865   19.1241 C   0  0  0  0  0  0  0  0  0  0  0  0
   47.8445   13.3657   21.0370 C   0  0  0  0  0  0  0  0  0  0  0  0
   47.5413   13.6368   19.7025 C   0  0  0  0  0  0  0  0  0  0  0  0
   47.5144   12.6043   18.7535 C   0  0  0  0  0  0  0  0  0  0  0  0
   48.6040    8.8477   20.3442 N   0  0  0  0  0  0  0  0  0  0  0  0
   48.4886    7.4513   20.7498 C   0  0  0  0  0  0  0  0  0  0  0  0
   49.2471    6.6072   19.8173 C   0  0  0  0  0  0  0  0  0  0  0  0
   49.8683    5.9179   19.0543 C   0  0  0  0  0  0  0  0  0  0  0  0
   47.9125    9.7408   21.2720 C   0  0  2  0  0  0  0  0  0  0  0  0
   46.3982    9.8419   20.9789 C   0  0  0  0  0  0  0  0  0  0  0  0
   46.2235   10.9365   19.9159 C   0  0  0  0  0  0  0  0  0  0  0  0
   47.3567   11.8493   20.2648 C   0  0  0  0  0  0  0  0  0  0  0  0
   48.3176   11.1739   21.0287 C   0  0  0  0  0  0  0  0  0  0  0  0
   49.4757   11.8155   21.4427 C   0  0  0  0  0  0  0  0  0  0  0  0
   47.5370   13.1700   19.8912 C   0  0  0  0  0  0  0  0  0  0  0  0
   48.6977   13.8238   20.3104 C   0  0  0  0  0  0  0  0  0  0  0  0
   49.6596   13.1521   21.0814 C   0  0  0  0  0  0  0  0  0  0  0  0
   48.8130   13.3545   20.5022 H   0  0  0  0  0  0  0  0  0  0  0  0
   48.9270   10.2836   22.3568 H   0  0  0  0  0  0  0  0  0  0  0  0
   49.6349    9.9713   19.9506 H   0  0  0  0  0  0  0  0  0  0  0  0
   46.3685    8.7934   18.2278 H   0  0  0  0  0  0  0  0  0  0  0  0
   48.0371    7.8663   20.9258 H   0  0  0  0  0  0  0  0  0  0  0  0
   46.5540   10.4617   22.5968 H   0  0  0  0  0  0  0  0  0  0  0  0
   47.5852    7.9128   21.4344 H   0  0  0  0  0  0  0  0  0  0  0  0
   49.4423    7.4525   20.0207 H   0  0  0  0  0  0  0  0  0  0  0  0
   48.6838    8.4239   18.7523 H   0  0  0  0  0  0  0  0  0  0  0  0
   46.4546    4.8424   18.5685 H   0  0  0  0  0  0  0  0  0  0  0  0
   49.5756    9.5793   21.0144 H   0  0  0  0  0  0  0  0  0  0  0  0
   48.7179    9.4169   23.2787 H   0  0  0  0  0  0  0  0  0  0  0  0
   47.0880    9.8765   22.7774 H   0  0  0  0  0  0  0  0  0  0  0  0
   49.5280   11.7020   22.9581 H   0  0  0  0  0  0  0  0  0  0  0  0
   47.8548   11.9762   23.5468 H   0  0  0  0  0  0  0  0  0  0  0  0
   47.7701   10.4973   18.3811 H   0  0  0  0  0  0  0  0  0  0  0  0
   47.8651   14.1640   21.7714 H   0  0  0  0  0  0  0  0  0  0  0  0
   47.3213   14.6559   19.3942 H   0  0  0  0  0  0  0  0  0  0  0  0
   47.2713   12.8315   17.7183 H   0  0  0  0  0  0  0  0  0  0  0  0
   49.5924    9.0946   20.3228 H   0  0  0  0  0  0  0  0  0  0  0  0
   47.4414    7.1310   20.7504 H   0  0  0  0  0  0  0  0  0  0  0  0
   48.8834    7.3106   21.7628 H   0  0  0  0  0  0  0  0  0  0  0  0
   50.4169    5.3128   18.3702 H   0  0  0  0  0  0  0  0  0  0  0  0
   48.0942    9.4746   22.3202 H   0  0  0  0  0  0  0  0  0  0  0  0
   45.8826   10.1540   21.8989 H   0  0  0  0  0  0  0  0  0  0  0  0
   45.9378    8.8971   20.6729 H   0  0  0  0  0  0  0  0  0  0  0  0
   46.3541   10.5379   18.9047 H   0  0  0  0  0  0  0  0  0  0  0  0
   45.2496   11.4258   20.0050 H   0  0  0  0  0  0  0  0  0  0  0  0
   50.2250   11.2956   22.0303 H   0  0  0  0  0  0  0  0  0  0  0  0
   46.7994   13.6868   19.2859 H   0  0  0  0  0  0  0  0  0  0  0  0
   48.8618   14.8619   20.0320 H   0  0  0  0  0  0  0  0  0  0  0  0
   50.5591   13.6772   21.3934 H   0  0  0  0  0  0  0  0  0  0  0  0
  1  2  1  0
  2  3  1  0
  3  4  1  0
  4  5  1  0
  5  6  1  0
  2  7  2  0
  4  8  1  0
  3  9  1  0
  5 10  2  0
 12 11  1  0
 15 11  1  0
 12 13  1  0
 13 14  3  0
 16 15  1  0
 19 15  1  0
 16 17  1  0
 17 18  1  0
 18 19  2  0
 18 21  1  0
 20 19  1  0
 23 20  2  0
 21 22  2  0
 22 23  1  0
 25 24  1  0
 28 24  1  0
 25 26  1  0
 26 27  3  0
 29 28  1  0
 32 28  1  0
 29 30  1  0
 30 31  1  0
 31 32  2  0
 31 34  1  0
 33 32  1  0
 36 33  2  0
 34 35  2  0
 35 36  1  0
  1 37  1  0
  3 38  1  1
  4 39  1  1
  6 40  1  0
  8 41  1  0
  9 42  1  0
 11 43  1  0
 12 44  1  0
 12 45  1  0
 14 46  1  0
 15 47  1  1
 16 48  1  0
 16 49  1  0
 17 50  1  0
 17 51  1  0
 20 52  1  0
 21 53  1  0
 22 54  1  0
 23 55  1  0
 24 56  1  0
 25 57  1  0
 25 58  1  0
 27 59  1  0
 28 60  1  6
 29 61  1  0
 29 62  1  0
 30 63  1  0
 30 64  1  0
 33 65  1  0
 34 66  1  0
 35 67  1  0
 36 68  1  0
M  END
> <Uni-Dock RESULT> 
ENERGY=   -5.217  LOWER_BOUND=    2.507  UPPER_BOUND=    5.136
INTER + INTRA:          -5.217
INTER:                  -5.217
INTRA:                   0.000
UNBOUND:                 0.000

$$$$

     RDKit          3D

 68 69  0  0  0  0  0  0  0  0999 V2000
   45.6745    5.7361   11.5645 O   0  0  0  0  0  0  0  0  0  0  0  0
   45.7018    6.6733   12.5281 C   0  0  0  0  0  0  0  0  0  0  0  0
   46.6990    7.7965   12.2736 C   0  0  2  0  0  0  0  0  0  0  0  0
   48.0912    7.2706   11.9276 C   0  0  2  0  0  0  0  0  0  0  0  0
   48.6326    6.4284   13.0817 C   0  0  0  0  0  0  0  0  0  0  0  0
   49.6280    7.0322   13.7666 O   0  0  0  0  0  0  0  0  0  0  0  0
   44.9274    6.6277   13.4727 O   0  0  0  0  0  0  0  0  0  0  0  0
   48.9481    8.3740   11.6035 O   0  0  0  0  0  0  0  0  0  0  0  0
   46.7882    8.6930   13.3929 O   0  0  0  0  0  0  0  0  0  0  0  0
   48.2320    5.3251   13.4189 O   0  0  0  0  0  0  0  0  0  0  0  0
   48.6636    8.2745   12.7819 N   0  0  0  0  0  0  0  0  0  0  0  0
   49.9171    7.8451   12.1698 C   0  0  0  0  0  0  0  0  0  0  0  0
   51.0447    8.3292   12.9772 C   0  0  0  0  0  0  0  0  0  0  0  0
   51.9664    8.7252   13.6380 C   0  0  0  0  0  0  0  0  0  0  0  0
   47.5040    7.8185   12.0227 C   0  0  2  0  0  0  0  0  0  0  0  0
   46.3230    8.8068   12.1706 C   0  0  0  0  0  0  0  0  0  0  0  0
   45.0550    7.9934   11.8827 C   0  0  0  0  0  0  0  0  0  0  0  0
   45.4556    6.6568   12.4249 C   0  0  0  0  0  0  0  0  0  0  0  0
   46.8522    6.5583   12.5329 C   0  0  0  0  0  0  0  0  0  0  0  0
   47.4336    5.3919   13.0063 C   0  0  0  0  0  0  0  0  0  0  0  0
   44.6257    5.6022   12.7697 C   0  0  0  0  0  0  0  0  0  0  0  0
   45.2110    4.4302   13.2497 C   0  0  0  0  0  0  0  0  0  0  0  0
   46.6046    4.3269   13.3703 C   0  0  0  0  0  0  0  0  0  0  0  0
   48.6573    7.7460   11.9824 N   0  0  0  0  0  0  0  0  0  0  0  0
   49.5038    8.9336   12.0063 C   0  0  0  0  0  0  0  0  0  0  0  0
   50.7841    8.6344   11.3514 C   0  0  0  0  0  0  0  0  0  0  0  0
   51.8306    8.3887   10.8151 C   0  0  0  0  0  0  0  0  0  0  0  0
   47.3451    8.0034   12.5728 C   0  0  2  0  0  0  0  0  0  0  0  0
   47.3573    7.8919   14.1144 C   0  0  0  0  0  0  0  0  0  0  0  0
   47.1342    6.4109   14.4545 C   0  0  0  0  0  0  0  0  0  0  0  0
   46.2661    5.9885   13.3112 C   0  0  0  0  0  0  0  0  0  0  0  0
   46.3869    6.8856   12.2418 C   0  0  0  0  0  0  0  0  0  0  0  0
   45.6944    6.6776   11.0580 C   0  0  0  0  0  0  0  0  0  0  0  0
   45.4634    4.8646   13.2168 C   0  0  0  0  0  0  0  0  0  0  0  0
   44.7582    4.6530   12.0301 C   0  0  0  0  0  0  0  0  0  0  0  0
   44.8719    5.5532   10.9588 C   0  0  0  0  0  0  0  0  0  0  0  0
   45.0177    5.0771   11.8782 H   0  0  0  0  0  0  0  0  0  0  0  0
   46.3117    8.3965   11.4422 H   0  0  0  0  0  0  0  0  0  0  0  0
   48.0713    6.6268   11.0419 H   0  0  0  0  0  0  0  0  0  0  0  0
   49.8661    6.3924   14.4696 H   0  0  0  0  0  0  0  0  0  0  0  0
   49.0427    8.8695   12.4425 H   0  0  0  0  0  0  0  0  0  0  0  0
   45.8874    8.7554   13.7685 H   0  0  0  0  0  0  0  0  0  0  0  0
   48.6687    9.2914   12.8263 H   0  0  0  0  0  0  0  0  0  0  0  0
   50.0042    8.2510   11.1548 H   0  0  0  0  0  0  0  0  0  0  0  0
   49.9703    6.7546   12.0968 H   0  0  0  0  0  0  0  0  0  0  0  0
   52.7791    9.0742   14.2322 H   0  0  0  0  0  0  0  0  0  0  0  0
   47.7262    7.7047   10.9529 H   0  0  0  0  0  0  0  0  0  0  0  0
   46.4192    9.6729   11.5070 H   0  0  0  0  0  0  0  0  0  0  0  0
   46.2693    9.1925   13.1999 H   0  0  0  0  0  0  0  0  0  0  0  0
   44.8596    7.9237   10.8078 H   0  0  0  0  0  0  0  0  0  0  0  0
   44.1865    8.4127   12.3981 H   0  0  0  0  0  0  0  0  0  0  0  0
   48.5092    5.2999   13.1071 H   0  0  0  0  0  0  0  0  0  0  0  0
   43.5478    5.6827   12.6765 H   0  0  0  0  0  0  0  0  0  0  0  0
   44.5831    3.5900   13.5354 H   0  0  0  0  0  0  0  0  0  0  0  0
   47.0448    3.4084   13.7508 H   0  0  0  0  0  0  0  0  0  0  0  0
   48.5327    7.4607   11.0122 H   0  0  0  0  0  0  0  0  0  0  0  0
   49.6956    9.2547   13.0355 H   0  0  0  0  0  0  0  0  0  0  0  0
   49.0177    9.7637   11.4806 H   0  0  0  0  0  0  0  0  0  0  0  0
   52.7583    8.1615   10.3429 H   0  0  0  0  0  0  0  0  0  0  0  0
   46.9241    8.9633   12.2504 H   0  0  0  0  0  0  0  0  0  0  0  0
   46.5183    8.4792   14.5156 H   0  0  0  0  0  0  0  0  0  0  0  0
   48.2632    8.2877   14.5843 H   0  0  0  0  0  0  0  0  0  0  0  0
   48.0750    5.8512   14.4444 H   0  0  0  0  0  0  0  0  0  0  0  0
   46.6375    6.2953   15.4219 H   0  0  0  0  0  0  0  0  0  0  0  0
   45.7883    7.3667   10.2253 H   0  0  0  0  0  0  0  0  0  0  0  0
   45.3837    4.1623   14.0401 H   0  0  0  0  0  0  0  0  0  0  0  0
   44.1193    3.7788   11.9317 H   0  0  0  0  0  0  0  0  0  0  0  0
   44.3186    5.3677   10.0413 H   0  0  0  0  0  0  0  0  0  0  0  0
  1  2  1  0
  2  3  1  0
  3  4  1  0
  4  5  1  0
  5  6  1  0
  2  7  2  0
  4  8  1  0
  3  9  1  0
  5 10  2  0
 12 11  1  0
 15 11  1  0
 12 13  1  0
 13 14  3  0
 16 15  1  0
 19 15  1  0
 16 17  1  0
 17 18  1  0
 18 19  2  0
 18 21  1  0
 20 19  1  0
 23 20  2  0
 21 22  2  0
 22 23  1  0
 25 24  1  0
 28 24  1  0
 25 26  1  0
 26 27  3  0
 29 28  1  0
 32 28  1  0
 29 30  1  0
 30 31  1  0
 31 32  2  0
 31 34  1  0
 33 32  1  0
 36 33  2  0
 34 35  2  0
 35 36  1  0
  1 37  1  0
  3 38  1  1
  4 39  1  1
  6 40  1  0
  8 41  1  0
  9 42  1  0
 11 43  1  0
 12 44  1  0
 12 45  1  0
 14 46  1  0
 15 47  1  1
 16 48  1  0
 16 49  1  0
 17 50  1  0
 17 51  1  0
 20 52  1  0
 21 53  1  0
 22 54  1  0
 23 55  1  0
 24 56  1  0
 25 57  1  0
 25 58  1  0
 27 59  1  0
 28 60  1  6
 29 61  1  0
 29 62  1  0
 30 63  1  0
 30 64  1  0
 33 65  1  0
 34 66  1  0
 35 67  1  0
 36 68  1  0
M  END
> <Uni-Dock RESULT> 
ENERGY=   -5.213  LOWER_BOUND=    6.810  UPPER_BOUND=    8.304
INTER + INTRA:          -5.213
INTER:                  -5.213
INTRA:                   0.000
UNBOUND:                 0.000

$$$$

     RDKit          3D

 68 69  0  0  0  0  0  0  0  0999 V2000
   44.6956    4.2260   10.5497 O   0  0  0  0  0  0  0  0  0  0  0  0
   44.2735    5.1029   11.4772 C   0  0  0  0  0  0  0  0  0  0  0  0
   45.1064    6.3762   11.5522 C   0  0  2  0  0  0  0  0  0  0  0  0
   46.6030    6.0867   11.6572 C   0  0  2  0  0  0  0  0  0  0  0  0
   46.8902    5.2748   12.9194 C   0  0  0  0  0  0  0  0  0  0  0  0
   47.5152    5.9844   13.8839 O   0  0  0  0  0  0  0  0  0  0  0  0
   43.2635    4.8896   12.1317 O   0  0  0  0  0  0  0  0  0  0  0  0
   47.3290    7.3229   11.6222 O   0  0  0  0  0  0  0  0  0  0  0  0
   44.7010    7.2140   12.6469 O   0  0  0  0  0  0  0  0  0  0  0  0
   46.5879    4.1070   13.1097 O   0  0  0  0  0  0  0  0  0  0  0  0
   46.7150    7.1178   12.6520 N   0  0  0  0  0  0  0  0  0  0  0  0
   48.1480    6.9169   12.4612 C   0  0  0  0  0  0  0  0  0  0  0  0
   48.8785    7.5216   13.5830 C   0  0  0  0  0  0  0  0  0  0  0  0
   49.4753    8.0162   14.5007 C   0  0  0  0  0  0  0  0  0  0  0  0
   45.9351    6.5334   11.5660 C   0  0  2  0  0  0  0  0  0  0  0  0
   44.6234    7.3221   11.3409 C   0  0  0  0  0  0  0  0  0  0  0  0
   43.6540    6.3429   10.6672 C   0  0  0  0  0  0  0  0  0  0  0  0
   44.0771    5.0550   11.3021 C   0  0  0  0  0  0  0  0  0  0  0  0
   45.3691    5.1633   11.8413 C   0  0  0  0  0  0  0  0  0  0  0  0
   45.9558    4.0744   12.4682 C   0  0  0  0  0  0  0  0  0  0  0  0
   43.3622    3.8698   11.3654 C   0  0  0  0  0  0  0  0  0  0  0  0
   43.9513    2.7756   11.9996 C   0  0  0  0  0  0  0  0  0  0  0  0
   45.2374    2.8781   12.5500 C   0  0  0  0  0  0  0  0  0  0  0  0
   47.0405    6.6386   11.8884 N   0  0  0  0  0  0  0  0  0  0  0  0
   47.6360    7.9375   12.1810 C   0  0  0  0  0  0  0  0  0  0  0  0
   49.0864    7.8715   11.9586 C   0  0  0  0  0  0  0  0  0  0  0  0
   50.2724    7.8164   11.7757 C   0  0  0  0  0  0  0  0  0  0  0  0
   45.5868    6.6621   12.0395 C   0  0  2  0  0  0  0  0  0  0  0  0
   45.1408    6.4703   13.5070 C   0  0  0  0  0  0  0  0  0  0  0  0
   45.0648    4.9564   13.7541 C   0  0  0  0  0  0  0  0  0  0  0  0
   44.6712    4.4701   12.3948 C   0  0  0  0  0  0  0  0  0  0  0  0
   44.9701    5.4317   11.4206 C   0  0  0  0  0  0  0  0  0  0  0  0
   44.7192    5.1856   10.0787 C   0  0  0  0  0  0  0  0  0  0  0  0
   44.1283    3.2444   12.0493 C   0  0  0  0  0  0  0  0  0  0  0  0
   43.8670    2.9930   10.7006 C   0  0  0  0  0  0  0  0  0  0  0  0
   44.1592    3.9567    9.7224 C   0  0  0  0  0  0  0  0  0  0  0  0
   44.0889    3.4592   10.6393 H   0  0  0  0  0  0  0  0  0  0  0  0
   44.9032    6.9548   10.6439 H   0  0  0  0  0  0  0  0  0  0  0  0
   46.9609    5.4962   10.8072 H   0  0  0  0  0  0  0  0  0  0  0  0
   47.6245    5.3509   14.6234 H   0  0  0  0  0  0  0  0  0  0  0  0
   47.0794    7.7809   12.4507 H   0  0  0  0  0  0  0  0  0  0  0  0
   43.7305    7.1188   12.7219 H   0  0  0  0  0  0  0  0  0  0  0  0
   46.5427    8.1198   12.6999 H   0  0  0  0  0  0  0  0  0  0  0  0
   48.4774    7.3856   11.5262 H   0  0  0  0  0  0  0  0  0  0  0  0
   48.3956    5.8525   12.4040 H   0  0  0  0  0  0  0  0  0  0  0  0
   49.9980    8.4515   15.3208 H   0  0  0  0  0  0  0  0  0  0  0  0
   46.4915    6.5126   10.6191 H   0  0  0  0  0  0  0  0  0  0  0  0
   44.7789    8.2274   10.7443 H   0  0  0  0  0  0  0  0  0  0  0  0
   44.1936    7.6388   12.3032 H   0  0  0  0  0  0  0  0  0  0  0  0
   43.8133    6.3027    9.5849 H   0  0  0  0  0  0  0  0  0  0  0  0
   42.6133    6.5974   10.8866 H   0  0  0  0  0  0  0  0  0  0  0  0
   46.9479    4.1409   12.9003 H   0  0  0  0  0  0  0  0  0  0  0  0
   42.3673    3.7911   10.9398 H   0  0  0  0  0  0  0  0  0  0  0  0
   43.4095    1.8359   12.0710 H   0  0  0  0  0  0  0  0  0  0  0  0
   45.6804    2.0176   13.0454 H   0  0  0  0  0  0  0  0  0  0  0  0
   47.2687    6.3906   10.9268 H   0  0  0  0  0  0  0  0  0  0  0  0
   47.4469    8.2278   13.2199 H   0  0  0  0  0  0  0  0  0  0  0  0
   47.2089    8.7118   11.5329 H   0  0  0  0  0  0  0  0  0  0  0  0
   51.3243    7.7581   11.6167 H   0  0  0  0  0  0  0  0  0  0  0  0
   45.1372    7.5632   11.6055 H   0  0  0  0  0  0  0  0  0  0  0  0
   44.1361    6.9013   13.6278 H   0  0  0  0  0  0  0  0  0  0  0  0
   45.7817    6.9727   14.2385 H   0  0  0  0  0  0  0  0  0  0  0  0
   46.0399    4.5469   14.0367 H   0  0  0  0  0  0  0  0  0  0  0  0
   44.3194    4.7148   14.5169 H   0  0  0  0  0  0  0  0  0  0  0  0
   44.9532    5.9251    9.3201 H   0  0  0  0  0  0  0  0  0  0  0  0
   43.9125    2.4946   12.8033 H   0  0  0  0  0  0  0  0  0  0  0  0
   43.4387    2.0388   10.4036 H   0  0  0  0  0  0  0  0  0  0  0  0
   43.9532    3.7396    8.6771 H   0  0  0  0  0  0  0  0  0  0  0  0
  1  2  1  0
  2  3  1  0
  3  4  1  0
  4  5  1  0
  5  6  1  0
  2  7  2  0
  4  8  1  0
  3  9  1  0
  5 10  2  0
 12 11  1  0
 15 11  1  0
 12 13  1  0
 13 14  3  0
 16 15  1  0
 19 15  1  0
 16 17  1  0
 17 18  1  0
 18 19  2  0
 18 21  1  0
 20 19  1  0
 23 20  2  0
 21 22  2  0
 22 23  1  0
 25 24  1  0
 28 24  1  0
 25 26  1  0
 26 27  3  0
 29 28  1  0
 32 28  1  0
 29 30  1  0
 30 31  1  0
 31 32  2  0
 31 34  1  0
 33 32  1  0
 36 33  2  0
 34 35  2  0
 35 36  1  0
  1 37  1  0
  3 38  1  1
  4 39  1  1
  6 40  1  0
  8 41  1  0
  9 42  1  0
 11 43  1  0
 12 44  1  0
 12 45  1  0
 14 46  1  0
 15 47  1  1
 16 48  1  0
 16 49  1  0
 17 50  1  0
 17 51  1  0
 20 52  1  0
 21 53  1  0
 22 54  1  0
 23 55  1  0
 24 56  1  0
 25 57  1  0
 25 58  1  0
 27 59  1  0
 28 60  1  6
 29 61  1  0
 29 62  1  0
 30 63  1  0
 30 64  1  0
 33 65  1  0
 34 66  1  0
 35 67  1  0
 36 68  1  0
M  END
> <Uni-Dock RESULT> 
ENERGY=   -5.147  LOWER_BOUND=    8.271  UPPER_BOUND=    9.865
INTER + INTRA:          -5.147
INTER:                  -5.147
INTRA:                   0.000
UNBOUND:                 0.000

$$$$

     RDKit          3D

 68 69  0  0  0  0  0  0  0  0999 V2000
   48.0372   12.7720   20.1421 O   0  0  0  0  0  0  0  0  0  0  0  0
   47.3364   11.8207   19.5007 C   0  0  0  0  0  0  0  0  0  0  0  0
   46.8449   10.6967   20.4038 C   0  0  2  0  0  0  0  0  0  0  0  0
   47.9612   10.1177   21.2716 C   0  0  2  0  0  0  0  0  0  0  0  0
   49.0670    9.5454   20.3861 C   0  0  0  0  0  0  0  0  0  0  0  0
   49.1110    8.1953   20.3868 O   0  0  0  0  0  0  0  0  0  0  0  0
   47.0781   11.9238   18.3104 O   0  0  0  0  0  0  0  0  0  0  0  0
   47.4098    9.1393   22.1634 O   0  0  0  0  0  0  0  0  0  0  0  0
   46.2249    9.6414   19.6510 O   0  0  0  0  0  0  0  0  0  0  0  0
   49.8480   10.1883   19.7018 O   0  0  0  0  0  0  0  0  0  0  0  0
   47.4655    8.7969   20.9976 N   0  0  0  0  0  0  0  0  0  0  0  0
   48.4040    8.4064   22.0450 C   0  0  0  0  0  0  0  0  0  0  0  0
   48.6289    6.9563   21.9820 C   0  0  0  0  0  0  0  0  0  0  0  0
   48.8125    5.7702   21.9298 C   0  0  0  0  0  0  0  0  0  0  0  0
   47.2049   10.2326   21.0092 C   0  0  2  0  0  0  0  0  0  0  0  0
   45.7775   10.5394   20.4976 C   0  0  0  0  0  0  0  0  0  0  0  0
   45.8153   11.9852   19.9870 C   0  0  0  0  0  0  0  0  0  0  0  0
   47.2175   12.0581   19.4681 C   0  0  0  0  0  0  0  0  0  0  0  0
   48.0117   11.0439   20.0271 C   0  0  0  0  0  0  0  0  0  0  0  0
   49.3515   10.9402   19.6853 C   0  0  0  0  0  0  0  0  0  0  0  0
   47.7424   12.9834   18.5804 C   0  0  0  0  0  0  0  0  0  0  0  0
   49.0896   12.8764   18.2338 C   0  0  0  0  0  0  0  0  0  0  0  0
   49.8876   11.8601   18.7796 C   0  0  0  0  0  0  0  0  0  0  0  0
   47.8408    9.4562   21.5835 N   0  0  0  0  0  0  0  0  0  0  0  0
   47.2450    8.2696   22.1873 C   0  0  0  0  0  0  0  0  0  0  0  0
   48.0808    7.8194   23.3081 C   0  0  0  0  0  0  0  0  0  0  0  0
   48.7648    7.4526   24.2250 C   0  0  0  0  0  0  0  0  0  0  0  0
   47.0188    9.9816   20.4949 C   0  0  2  0  0  0  0  0  0  0  0  0
   47.2679    9.2479   19.1575 C   0  0  0  0  0  0  0  0  0  0  0  0
   48.4630    9.9408   18.4864 C   0  0  0  0  0  0  0  0  0  0  0  0
   48.2828   11.3442   18.9735 C   0  0  0  0  0  0  0  0  0  0  0  0
   47.4694   11.3705   20.1140 C   0  0  0  0  0  0  0  0  0  0  0  0
   47.1888   12.5659   20.7593 C   0  0  0  0  0  0  0  0  0  0  0  0
   48.8391   12.5045   18.4629 C   0  0  0  0  0  0  0  0  0  0  0  0
   48.5550   13.7122   19.1041 C   0  0  0  0  0  0  0  0  0  0  0  0
   47.7351   13.7432   20.2433 C   0  0  0  0  0  0  0  0  0  0  0  0
   48.3054   13.4003   19.4368 H   0  0  0  0  0  0  0  0  0  0  0  0
   46.0554   11.1102   21.0417 H   0  0  0  0  0  0  0  0  0  0  0  0
   48.4207   10.8850   21.9037 H   0  0  0  0  0  0  0  0  0  0  0  0
   49.8477    7.9731   19.7802 H   0  0  0  0  0  0  0  0  0  0  0  0
   47.1109    8.4122   21.5800 H   0  0  0  0  0  0  0  0  0  0  0  0
   45.7562   10.0715   18.9082 H   0  0  0  0  0  0  0  0  0  0  0  0
   46.5973    8.2876   21.1489 H   0  0  0  0  0  0  0  0  0  0  0  0
   48.0015    8.6630   23.0323 H   0  0  0  0  0  0  0  0  0  0  0  0
   49.3620    8.9233   21.9327 H   0  0  0  0  0  0  0  0  0  0  0  0
   48.9757    4.7188   21.8738 H   0  0  0  0  0  0  0  0  0  0  0  0
   47.3120   10.6664   22.0127 H   0  0  0  0  0  0  0  0  0  0  0  0
   45.0172   10.3935   21.2723 H   0  0  0  0  0  0  0  0  0  0  0  0
   45.5170    9.8755   19.6596 H   0  0  0  0  0  0  0  0  0  0  0  0
   45.6749   12.7017   20.8027 H   0  0  0  0  0  0  0  0  0  0  0  0
   45.0689   12.1518   19.2054 H   0  0  0  0  0  0  0  0  0  0  0  0
   49.9787   10.1578   20.0977 H   0  0  0  0  0  0  0  0  0  0  0  0
   47.1247   13.7691   18.1583 H   0  0  0  0  0  0  0  0  0  0  0  0
   49.5255   13.5840   17.5331 H   0  0  0  0  0  0  0  0  0  0  0  0
   50.9345   11.7873   18.4954 H   0  0  0  0  0  0  0  0  0  0  0  0
   47.9313   10.1712   22.3038 H   0  0  0  0  0  0  0  0  0  0  0  0
   47.1628    7.4593   21.4551 H   0  0  0  0  0  0  0  0  0  0  0  0
   46.2372    8.4907   22.5578 H   0  0  0  0  0  0  0  0  0  0  0  0
   49.3796    7.1303   25.0333 H   0  0  0  0  0  0  0  0  0  0  0  0
   45.9514    9.9916   20.7462 H   0  0  0  0  0  0  0  0  0  0  0  0
   46.3809    9.3710   18.5189 H   0  0  0  0  0  0  0  0  0  0  0  0
   47.4256    8.1697   19.2615 H   0  0  0  0  0  0  0  0  0  0  0  0
   49.4145    9.5339   18.8434 H   0  0  0  0  0  0  0  0  0  0  0  0
   48.4061    9.8656   17.3970 H   0  0  0  0  0  0  0  0  0  0  0  0
   46.5634   12.5910   21.6455 H   0  0  0  0  0  0  0  0  0  0  0  0
   49.4819   12.4803   17.5891 H   0  0  0  0  0  0  0  0  0  0  0  0
   48.9779   14.6379   18.7214 H   0  0  0  0  0  0  0  0  0  0  0  0
   47.5302   14.6930   20.7311 H   0  0  0  0  0  0  0  0  0  0  0  0
  1  2  1  0
  2  3  1  0
  3  4  1  0
  4  5  1  0
  5  6  1  0
  2  7  2  0
  4  8  1  0
  3  9  1  0
  5 10  2  0
 12 11  1  0
 15 11  1  0
 12 13  1  0
 13 14  3  0
 16 15  1  0
 19 15  1  0
 16 17  1  0
 17 18  1  0
 18 19  2  0
 18 21  1  0
 20 19  1  0
 23 20  2  0
 21 22  2  0
 22 23  1  0
 25 24  1  0
 28 24  1  0
 25 26  1  0
 26 27  3  0
 29 28  1  0
 32 28  1  0
 29 30  1  0
 30 31  1  0
 31 32  2  0
 31 34  1  0
 33 32  1  0
 36 33  2  0
 34 35  2  0
 35 36  1  0
  1 37  1  0
  3 38  1  1
  4 39  1  1
  6 40  1  0
  8 41  1  0
  9 42  1  0
 11 43  1  0
 12 44  1  0
 12 45  1  0
 14 46  1  0
 15 47  1  1
 16 48  1  0
 16 49  1  0
 17 50  1  0
 17 51  1  0
 20 52  1  0
 21 53  1  0
 22 54  1  0
 23 55  1  0
 24 56  1  0
 25 57  1  0
 25 58  1  0
 27 59  1  0
 28 60  1  6
 29 61  1  0
 29 62  1  0
 30 63  1  0
 30 64  1  0
 33 65  1  0
 34 66  1  0
 35 67  1  0
 36 68  1  0
M  END
> <Uni-Dock RESULT> 
ENERGY=   -4.993  LOWER_BOUND=    2.278  UPPER_BOUND=    5.398
INTER + INTRA:          -4.993
INTER:                  -4.993
INTRA:                   0.000
UNBOUND:                 0.000

$$$$

     RDKit          3D

 68 69  0  0  0  0  0  0  0  0999 V2000
   48.4607    4.8369   16.2698 O   0  0  0  0  0  0  0  0  0  0  0  0
   48.6340    5.2462   17.5386 C   0  0  0  0  0  0  0  0  0  0  0  0
   49.9832    5.9034   17.8001 C   0  0  2  0  0  0  0  0  0  0  0  0
   51.1501    5.0578   17.2922 C   0  0  2  0  0  0  0  0  0  0  0  0
   51.1561    3.7011   17.9950 C   0  0  0  0  0  0  0  0  0  0  0  0
   52.1586    3.5640   18.8898 O   0  0  0  0  0  0  0  0  0  0  0  0
   47.7353    5.1453   18.3610 O   0  0  0  0  0  0  0  0  0  0  0  0
   52.3754    5.7789   17.4795 O   0  0  0  0  0  0  0  0  0  0  0  0
   50.1721    6.1952   19.1943 O   0  0  0  0  0  0  0  0  0  0  0  0
   50.3494    2.7994   17.8286 O   0  0  0  0  0  0  0  0  0  0  0  0
   51.8687    5.3550   18.5008 N   0  0  0  0  0  0  0  0  0  0  0  0
   52.9880    4.7454   17.7894 C   0  0  0  0  0  0  0  0  0  0  0  0
   54.0497    4.4100   18.7475 C   0  0  0  0  0  0  0  0  0  0  0  0
   54.9176    4.1359   19.5314 C   0  0  0  0  0  0  0  0  0  0  0  0
   50.7784    5.7079   17.5976 C   0  0  2  0  0  0  0  0  0  0  0  0
   49.9998    6.9364   18.1246 C   0  0  0  0  0  0  0  0  0  0  0  0
   48.6033    6.8508   17.4963 C   0  0  0  0  0  0  0  0  0  0  0  0
   48.4196    5.3664   17.4333 C   0  0  0  0  0  0  0  0  0  0  0  0
   49.6554    4.7050   17.5171 C   0  0  0  0  0  0  0  0  0  0  0  0
   49.7091    3.3203   17.4669 C   0  0  0  0  0  0  0  0  0  0  0  0
   47.2321    4.6680   17.2859 C   0  0  0  0  0  0  0  0  0  0  0  0
   47.2862    3.2747   17.2393 C   0  0  0  0  0  0  0  0  0  0  0  0
   48.5154    2.6055   17.3325 C   0  0  0  0  0  0  0  0  0  0  0  0
   51.8250    5.2185   17.5531 N   0  0  0  0  0  0  0  0  0  0  0  0
   53.0075    5.8815   18.0912 C   0  0  0  0  0  0  0  0  0  0  0  0
   54.2036    5.3874   17.3964 C   0  0  0  0  0  0  0  0  0  0  0  0
   55.1811    4.9829   16.8271 C   0  0  0  0  0  0  0  0  0  0  0  0
   50.5968    5.7144   18.1712 C   0  0  2  0  0  0  0  0  0  0  0  0
   50.2948    5.0276   19.5226 C   0  0  0  0  0  0  0  0  0  0  0  0
   49.5225    3.7390   19.2033 C   0  0  0  0  0  0  0  0  0  0  0  0
   48.7812    4.1546   17.9717 C   0  0  0  0  0  0  0  0  0  0  0  0
   49.3898    5.2702   17.3818 C   0  0  0  0  0  0  0  0  0  0  0  0
   48.8910    5.8137   16.2071 C   0  0  0  0  0  0  0  0  0  0  0  0
   47.6734    3.5551   17.3973 C   0  0  0  0  0  0  0  0  0  0  0  0
   47.1621    4.1016   16.2182 C   0  0  0  0  0  0  0  0  0  0  0  0
   47.7656    5.2233   15.6278 C   0  0  0  0  0  0  0  0  0  0  0  0
   47.5735    4.4162   16.2641 H   0  0  0  0  0  0  0  0  0  0  0  0
   49.9791    6.8740   17.2911 H   0  0  0  0  0  0  0  0  0  0  0  0
   51.0699    4.8625   16.2176 H   0  0  0  0  0  0  0  0  0  0  0  0
   52.0343    2.6664   19.2626 H   0  0  0  0  0  0  0  0  0  0  0  0
   52.4823    5.8386   18.4508 H   0  0  0  0  0  0  0  0  0  0  0  0
   49.2951    6.4509   19.5435 H   0  0  0  0  0  0  0  0  0  0  0  0
   52.2128    6.1906   18.9691 H   0  0  0  0  0  0  0  0  0  0  0  0
   53.3880    5.4403   17.0415 H   0  0  0  0  0  0  0  0  0  0  0  0
   52.6776    3.8363   17.2652 H   0  0  0  0  0  0  0  0  0  0  0  0
   55.6807    3.8896   20.2331 H   0  0  0  0  0  0  0  0  0  0  0  0
   51.1354    5.9351   16.5839 H   0  0  0  0  0  0  0  0  0  0  0  0
   50.5027    7.8805   17.8892 H   0  0  0  0  0  0  0  0  0  0  0  0
   49.8982    6.8883   19.2193 H   0  0  0  0  0  0  0  0  0  0  0  0
   48.5909    7.2777   16.4883 H   0  0  0  0  0  0  0  0  0  0  0  0
   47.8530    7.3407   18.1232 H   0  0  0  0  0  0  0  0  0  0  0  0
   50.6522    2.7905   17.5406 H   0  0  0  0  0  0  0  0  0  0  0  0
   46.2815    5.1860   17.2141 H   0  0  0  0  0  0  0  0  0  0  0  0
   46.3689    2.7012   17.1325 H   0  0  0  0  0  0  0  0  0  0  0  0
   48.5400    1.5189   17.2996 H   0  0  0  0  0  0  0  0  0  0  0  0
   51.7857    5.3970   16.5507 H   0  0  0  0  0  0  0  0  0  0  0  0
   53.1106    5.6847   19.1635 H   0  0  0  0  0  0  0  0  0  0  0  0
   52.9363    6.9669   17.9543 H   0  0  0  0  0  0  0  0  0  0  0  0
   56.0437    4.6152   16.3213 H   0  0  0  0  0  0  0  0  0  0  0  0
   50.5936    6.8061   18.2746 H   0  0  0  0  0  0  0  0  0  0  0  0
   49.6496    5.6909   20.1171 H   0  0  0  0  0  0  0  0  0  0  0  0
   51.1821    4.8322   20.1331 H   0  0  0  0  0  0  0  0  0  0  0  0
   50.2012    2.9105   18.9769 H   0  0  0  0  0  0  0  0  0  0  0  0
   48.8520    3.4638   20.0222 H   0  0  0  0  0  0  0  0  0  0  0  0
   49.3615    6.6745   15.7438 H   0  0  0  0  0  0  0  0  0  0  0  0
   47.2130    2.6814   17.8468 H   0  0  0  0  0  0  0  0  0  0  0  0
   46.2915    3.6504   15.7485 H   0  0  0  0  0  0  0  0  0  0  0  0
   47.3555    5.6305   14.7068 H   0  0  0  0  0  0  0  0  0  0  0  0
  1  2  1  0
  2  3  1  0
  3  4  1  0
  4  5  1  0
  5  6  1  0
  2  7  2  0
  4  8  1  0
  3  9  1  0
  5 10  2  0
 12 11  1  0
 15 11  1  0
 12 13  1  0
 13 14  3  0
 16 15  1  0
 19 15  1  0
 16 17  1  0
 17 18  1  0
 18 19  2  0
 18 21  1  0
 20 19  1  0
 23 20  2  0
 21 22  2  0
 22 23  1  0
 25 24  1  0
 28 24  1  0
 25 26  1  0
 26 27  3  0
 29 28  1  0
 32 28  1  0
 29 30  1  0
 30 31  1  0
 31 32  2  0
 31 34  1  0
 33 32  1  0
 36 33  2  0
 34 35  2  0
 35 36  1  0
  1 37  1  0
  3 38  1  1
  4 39  1  1
  6 40  1  0
  8 41  1  0
  9 42  1  0
 11 43  1  0
 12 44  1  0
 12 45  1  0
 14 46  1  0
 15 47  1  1
 16 48  1  0
 16 49  1  0
 17 50  1  0
 17 51  1  0
 20 52  1  0
 21 53  1  0
 22 54  1  0
 23 55  1  0
 24 56  1  0
 25 57  1  0
 25 58  1  0
 27 59  1  0
 28 60  1  6
 29 61  1  0
 29 62  1  0
 30 63  1  0
 30 64  1  0
 33 65  1  0
 34 66  1  0
 35 67  1  0
 36 68  1  0
M  END
> <Uni-Dock RESULT> 
ENERGY=   -4.902  LOWER_BOUND=    6.376  UPPER_BOUND=    8.458
INTER + INTRA:          -4.902
INTER:                  -4.902
INTRA:                   0.000
UNBOUND:                 0.000

$$$$

     RDKit          3D

 68 69  0  0  0  0  0  0  0  0999 V2000
   47.6870   11.8902   18.1723 O   0  0  0  0  0  0  0  0  0  0  0  0
   48.6515   11.5487   19.0444 C   0  0  0  0  0  0  0  0  0  0  0  0
   49.1153   10.1028   18.9222 C   0  0  2  0  0  0  0  0  0  0  0  0
   47.9487    9.1160   18.9221 C   0  0  2  0  0  0  0  0  0  0  0  0
   47.1623    9.2376   20.2264 C   0  0  0  0  0  0  0  0  0  0  0  0
   47.3371    8.1883   21.0589 O   0  0  0  0  0  0  0  0  0  0  0  0
   49.1358   12.3756   19.8031 O   0  0  0  0  0  0  0  0  0  0  0  0
   48.4490    7.7899   18.7038 O   0  0  0  0  0  0  0  0  0  0  0  0
   50.0421    9.7512   19.9623 O   0  0  0  0  0  0  0  0  0  0  0  0
   46.4507   10.1743   20.5547 O   0  0  0  0  0  0  0  0  0  0  0  0
   48.6972    8.2578   19.7987 N   0  0  0  0  0  0  0  0  0  0  0  0
   47.6338    7.3031   19.5024 C   0  0  0  0  0  0  0  0  0  0  0  0
   47.6638    6.2176   20.4916 C   0  0  0  0  0  0  0  0  0  0  0  0
   47.6888    5.3302   21.3009 C   0  0  0  0  0  0  0  0  0  0  0  0
   48.7148    9.3641   18.8475 C   0  0  2  0  0  0  0  0  0  0  0  0
   50.1496    9.9127   18.6639 C   0  0  0  0  0  0  0  0  0  0  0  0
   49.9885   11.3579   18.1763 C   0  0  0  0  0  0  0  0  0  0  0  0
   48.7348   11.7527   18.8927 C   0  0  0  0  0  0  0  0  0  0  0  0
   48.0143   10.6193   19.3028 C   0  0  0  0  0  0  0  0  0  0  0  0
   46.8117   10.7649   19.9777 C   0  0  0  0  0  0  0  0  0  0  0  0
   48.2676   13.0347   19.1332 C   0  0  0  0  0  0  0  0  0  0  0  0
   47.0596   13.1808   19.8157 C   0  0  0  0  0  0  0  0  0  0  0  0
   46.3385   12.0542   20.2378 C   0  0  0  0  0  0  0  0  0  0  0  0
   48.1053    8.4047   19.0593 N   0  0  0  0  0  0  0  0  0  0  0  0
   48.7430    7.0976   19.1713 C   0  0  0  0  0  0  0  0  0  0  0  0
   47.7725    6.0494   18.8290 C   0  0  0  0  0  0  0  0  0  0  0  0
   46.9782    5.1931   18.5483 C   0  0  0  0  0  0  0  0  0  0  0  0
   49.0435    9.4911   19.3352 C   0  0  2  0  0  0  0  0  0  0  0  0
   49.2045    9.7645   20.8480 C   0  0  0  0  0  0  0  0  0  0  0  0
   48.0829   10.7353   21.2460 C   0  0  0  0  0  0  0  0  0  0  0  0
   47.9275   11.5180   19.9801 C   0  0  0  0  0  0  0  0  0  0  0  0
   48.4660   10.8140   18.8950 C   0  0  0  0  0  0  0  0  0  0  0  0
   48.4074   11.3346   17.6106 C   0  0  0  0  0  0  0  0  0  0  0  0
   47.3125   12.7456   19.8039 C   0  0  0  0  0  0  0  0  0  0  0  0
   47.2561   13.2784   18.5142 C   0  0  0  0  0  0  0  0  0  0  0  0
   47.8004   12.5788   17.4255 C   0  0  0  0  0  0  0  0  0  0  0  0
   47.4766   12.8246   18.3888 H   0  0  0  0  0  0  0  0  0  0  0  0
   49.6747   10.0162   17.9837 H   0  0  0  0  0  0  0  0  0  0  0  0
   47.2484    9.3184   18.1048 H   0  0  0  0  0  0  0  0  0  0  0  0
   46.7911    8.4034   21.8436 H   0  0  0  0  0  0  0  0  0  0  0  0
   48.9778    7.5894   19.5029 H   0  0  0  0  0  0  0  0  0  0  0  0
   50.5819   10.5490   20.1316 H   0  0  0  0  0  0  0  0  0  0  0  0
   49.5841    7.7596   19.7646 H   0  0  0  0  0  0  0  0  0  0  0  0
   47.7714    6.8779   18.5010 H   0  0  0  0  0  0  0  0  0  0  0  0
   46.6508    7.7834   19.5267 H   0  0  0  0  0  0  0  0  0  0  0  0
   47.7127    4.5497   22.0258 H   0  0  0  0  0  0  0  0  0  0  0  0
   48.3293    9.0707   17.8615 H   0  0  0  0  0  0  0  0  0  0  0  0
   50.7421    9.3054   17.9712 H   0  0  0  0  0  0  0  0  0  0  0  0
   50.6850    9.9218   19.6253 H   0  0  0  0  0  0  0  0  0  0  0  0
   49.8358   11.4002   17.0931 H   0  0  0  0  0  0  0  0  0  0  0  0
   50.8466   11.9730   18.4611 H   0  0  0  0  0  0  0  0  0  0  0  0
   46.2459    9.9026   20.3119 H   0  0  0  0  0  0  0  0  0  0  0  0
   48.8259   13.9059   18.8067 H   0  0  0  0  0  0  0  0  0  0  0  0
   46.6737   14.1754   20.0251 H   0  0  0  0  0  0  0  0  0  0  0  0
   45.4011   12.1852   20.7730 H   0  0  0  0  0  0  0  0  0  0  0  0
   47.7504    8.5079   18.1098 H   0  0  0  0  0  0  0  0  0  0  0  0
   49.1076    6.9279   20.1898 H   0  0  0  0  0  0  0  0  0  0  0  0
   49.6004    7.0279   18.4917 H   0  0  0  0  0  0  0  0  0  0  0  0
   46.2664    4.4391   18.3033 H   0  0  0  0  0  0  0  0  0  0  0  0
   50.0176    9.3319   18.8575 H   0  0  0  0  0  0  0  0  0  0  0  0
   50.1749   10.2547   21.0148 H   0  0  0  0  0  0  0  0  0  0  0  0
   49.2042    8.8625   21.4680 H   0  0  0  0  0  0  0  0  0  0  0  0
   47.1556   10.2023   21.4795 H   0  0  0  0  0  0  0  0  0  0  0  0
   48.3804   11.3619   22.0913 H   0  0  0  0  0  0  0  0  0  0  0  0
   48.8187   10.7913   16.7664 H   0  0  0  0  0  0  0  0  0  0  0  0
   46.8816   13.2820   20.6430 H   0  0  0  0  0  0  0  0  0  0  0  0
   46.7803   14.2421   18.3498 H   0  0  0  0  0  0  0  0  0  0  0  0
   47.7417   13.0083   16.4284 H   0  0  0  0  0  0  0  0  0  0  0  0
  1  2  1  0
  2  3  1  0
  3  4  1  0
  4  5  1  0
  5  6  1  0
  2  7  2  0
  4  8  1  0
  3  9  1  0
  5 10  2  0
 12 11  1  0
 15 11  1  0
 12 13  1  0
 13 14  3  0
 16 15  1  0
 19 15  1  0
 16 17  1  0
 17 18  1  0
 18 19  2  0
 18 21  1  0
 20 19  1  0
 23 20  2  0
 21 22  2  0
 22 23  1  0
 25 24  1  0
 28 24  1  0
 25 26  1  0
 26 27  3  0
 29 28  1  0
 32 28  1  0
 29 30  1  0
 30 31  1  0
 31 32  2  0
 31 34  1  0
 33 32  1  0
 36 33  2  0
 34 35  2  0
 35 36  1  0
  1 37  1  0
  3 38  1  1
  4 39  1  1
  6 40  1  0
  8 41  1  0
  9 42  1  0
 11 43  1  0
 12 44  1  0
 12 45  1  0
 14 46  1  0
 15 47  1  1
 16 48  1  0
 16 49  1  0
 17 50  1  0
 17 51  1  0
 20 52  1  0
 21 53  1  0
 22 54  1  0
 23 55  1  0
 24 56  1  0
 25 57  1  0
 25 58  1  0
 27 59  1  0
 28 60  1  6
 29 61  1  0
 29 62  1  0
 30 63  1  0
 30 64  1  0
 33 65  1  0
 34 66  1  0
 35 67  1  0
 36 68  1  0
M  END
> <Uni-Dock RESULT> 
ENERGY=   -4.846  LOWER_BOUND=    2.206  UPPER_BOUND=    5.201
INTER + INTRA:          -4.846
INTER:                  -4.846
INTRA:                   0.000
UNBOUND:                 0.000

$$$$

     RDKit          3D

 68 69  0  0  0  0  0  0  0  0999 V2000
   47.9074    9.5403   20.1537 O   0  0  0  0  0  0  0  0  0  0  0  0
   47.4975   10.7017   20.6929 C   0  0  0  0  0  0  0  0  0  0  0  0
   46.9983   11.7174   19.6732 C   0  0  2  0  0  0  0  0  0  0  0  0
   47.9844   11.9203   18.5238 C   0  0  2  0  0  0  0  0  0  0  0  0
   49.3189   12.4306   19.0651 C   0  0  0  0  0  0  0  0  0  0  0  0
   49.5558   13.7282   18.7741 O   0  0  0  0  0  0  0  0  0  0  0  0
   47.4767   10.8606   21.9047 O   0  0  0  0  0  0  0  0  0  0  0  0
   47.4086   12.8080   17.5558 O   0  0  0  0  0  0  0  0  0  0  0  0
   46.7045   12.9845   20.2837 O   0  0  0  0  0  0  0  0  0  0  0  0
   50.1227   11.7887   19.7234 O   0  0  0  0  0  0  0  0  0  0  0  0
   47.7509   13.3365   18.5965 N   0  0  0  0  0  0  0  0  0  0  0  0
   48.5008   13.3574   17.3445 C   0  0  0  0  0  0  0  0  0  0  0  0
   48.9404   14.7303   17.0626 C   0  0  0  0  0  0  0  0  0  0  0  0
   49.2996   15.8533   16.8326 C   0  0  0  0  0  0  0  0  0  0  0  0
   47.2895   11.9932   18.9311 C   0  0  2  0  0  0  0  0  0  0  0  0
   45.9684   12.0466   19.7343 C   0  0  0  0  0  0  0  0  0  0  0  0
   45.9014   10.7323   20.5221 C   0  0  0  0  0  0  0  0  0  0  0  0
   47.3549   10.4995   20.7945 C   0  0  0  0  0  0  0  0  0  0  0  0
   48.1551   11.2368   19.9068 C   0  0  0  0  0  0  0  0  0  0  0  0
   49.5372   11.1546   19.9827 C   0  0  0  0  0  0  0  0  0  0  0  0
   47.9119    9.6672   21.7519 C   0  0  0  0  0  0  0  0  0  0  0  0
   49.3025    9.5878   21.8304 C   0  0  0  0  0  0  0  0  0  0  0  0
   50.1094   10.3287   20.9544 C   0  0  0  0  0  0  0  0  0  0  0  0
   47.8991   12.5265   18.1059 N   0  0  0  0  0  0  0  0  0  0  0  0
   47.3693   13.6749   17.3792 C   0  0  0  0  0  0  0  0  0  0  0  0
   48.0134   13.7591   16.0617 C   0  0  0  0  0  0  0  0  0  0  0  0
   48.5403   13.8265   14.9843 C   0  0  0  0  0  0  0  0  0  0  0  0
   47.2509   12.3612   19.4056 C   0  0  2  0  0  0  0  0  0  0  0  0
   47.8721   13.2636   20.4961 C   0  0  0  0  0  0  0  0  0  0  0  0
   49.0669   12.4957   21.0806 C   0  0  0  0  0  0  0  0  0  0  0  0
   48.5905   11.0845   20.9370 C   0  0  0  0  0  0  0  0  0  0  0  0
   47.5653   11.0039   19.9854 C   0  0  0  0  0  0  0  0  0  0  0  0
   46.9891    9.7839   19.6631 C   0  0  0  0  0  0  0  0  0  0  0  0
   49.0666    9.9522   21.5753 C   0  0  0  0  0  0  0  0  0  0  0  0
   48.4861    8.7216   21.2603 C   0  0  0  0  0  0  0  0  0  0  0  0
   47.4543    8.6379   20.3120 C   0  0  0  0  0  0  0  0  0  0  0  0
   48.2211    9.0094   20.9178 H   0  0  0  0  0  0  0  0  0  0  0  0
   46.0436   11.3474   19.2822 H   0  0  0  0  0  0  0  0  0  0  0  0
   48.1891   10.9824   17.9968 H   0  0  0  0  0  0  0  0  0  0  0  0
   50.4255   13.9173   19.1841 H   0  0  0  0  0  0  0  0  0  0  0  0
   47.3435   13.6693   18.0167 H   0  0  0  0  0  0  0  0  0  0  0  0
   46.3411   12.7858   21.1698 H   0  0  0  0  0  0  0  0  0  0  0  0
   46.9527   13.9597   18.4942 H   0  0  0  0  0  0  0  0  0  0  0  0
   47.8718   13.0067   16.5176 H   0  0  0  0  0  0  0  0  0  0  0  0
   49.3769   12.7036   17.3954 H   0  0  0  0  0  0  0  0  0  0  0  0
   49.6205   16.8505   16.6381 H   0  0  0  0  0  0  0  0  0  0  0  0
   47.1249   11.3757   18.0376 H   0  0  0  0  0  0  0  0  0  0  0  0
   45.0944   12.1880   19.0895 H   0  0  0  0  0  0  0  0  0  0  0  0
   45.9837   12.8851   20.4468 H   0  0  0  0  0  0  0  0  0  0  0  0
   45.4950    9.9198   19.9113 H   0  0  0  0  0  0  0  0  0  0  0  0
   45.3152   10.8457   21.4382 H   0  0  0  0  0  0  0  0  0  0  0  0
   50.1725   11.7241   19.3135 H   0  0  0  0  0  0  0  0  0  0  0  0
   47.2873    9.0946   22.4296 H   0  0  0  0  0  0  0  0  0  0  0  0
   49.7664    8.9489   22.5777 H   0  0  0  0  0  0  0  0  0  0  0  0
   51.1918   10.2595   21.0318 H   0  0  0  0  0  0  0  0  0  0  0  0
   47.7360   11.6904   17.5468 H   0  0  0  0  0  0  0  0  0  0  0  0
   47.5567   14.6037   17.9283 H   0  0  0  0  0  0  0  0  0  0  0  0
   46.2859   13.5781   17.2430 H   0  0  0  0  0  0  0  0  0  0  0  0
   49.0161   13.8828   14.0327 H   0  0  0  0  0  0  0  0  0  0  0  0
   46.1646   12.5007   19.3503 H   0  0  0  0  0  0  0  0  0  0  0  0
   47.1266   13.4191   21.2897 H   0  0  0  0  0  0  0  0  0  0  0  0
   48.1587   14.2592   20.1429 H   0  0  0  0  0  0  0  0  0  0  0  0
   49.9735   12.6530   20.4875 H   0  0  0  0  0  0  0  0  0  0  0  0
   49.2461   12.7726   22.1232 H   0  0  0  0  0  0  0  0  0  0  0  0
   46.1983    9.7156   18.9235 H   0  0  0  0  0  0  0  0  0  0  0  0
   49.8716   10.0143   22.3001 H   0  0  0  0  0  0  0  0  0  0  0  0
   48.8407    7.8177   21.7494 H   0  0  0  0  0  0  0  0  0  0  0  0
   47.0191    7.6697   20.0768 H   0  0  0  0  0  0  0  0  0  0  0  0
  1  2  1  0
  2  3  1  0
  3  4  1  0
  4  5  1  0
  5  6  1  0
  2  7  2  0
  4  8  1  0
  3  9  1  0
  5 10  2  0
 12 11  1  0
 15 11  1  0
 12 13  1  0
 13 14  3  0
 16 15  1  0
 19 15  1  0
 16 17  1  0
 17 18  1  0
 18 19  2  0
 18 21  1  0
 20 19  1  0
 23 20  2  0
 21 22  2  0
 22 23  1  0
 25 24  1  0
 28 24  1  0
 25 26  1  0
 26 27  3  0
 29 28  1  0
 32 28  1  0
 29 30  1  0
 30 31  1  0
 31 32  2  0
 31 34  1  0
 33 32  1  0
 36 33  2  0
 34 35  2  0
 35 36  1  0
  1 37  1  0
  3 38  1  1
  4 39  1  1
  6 40  1  0
  8 41  1  0
  9 42  1  0
 11 43  1  0
 12 44  1  0
 12 45  1  0
 14 46  1  0
 15 47  1  1
 16 48  1  0
 16 49  1  0
 17 50  1  0
 17 51  1  0
 20 52  1  0
 21 53  1  0
 22 54  1  0
 23 55  1  0
 24 56  1  0
 25 57  1  0
 25 58  1  0
 27 59  1  0
 28 60  1  6
 29 61  1  0
 29 62  1  0
 30 63  1  0
 30 64  1  0
 33 65  1  0
 34 66  1  0
 35 67  1  0
 36 68  1  0
M  END
> <Uni-Dock RESULT> 
ENERGY=   -4.820  LOWER_BOUND=    1.262  UPPER_BOUND=    2.120
INTER + INTRA:          -4.820
INTER:                  -4.820
INTRA:                   0.000
UNBOUND:                 0.000

$$$$
