
     RDKit          3D

 68 69  0  0  0  0  0  0  0  0999 V2000
   44.4309    7.5899   11.6019 O   0  0  0  0  0  0  0  0  0  0  0  0
   45.1809    6.4620   11.5743 C   0  0  0  0  0  0  0  0  0  0  0  0
   44.3655    5.2444   11.1536 C   0  0  2  0  0  0  0  0  0  0  0  0
   45.3124    4.1628   10.6260 C   0  0  2  0  0  0  0  0  0  0  0  0
   44.4745    2.9723   10.1836 C   0  0  0  0  0  0  0  0  0  0  0  0
   44.4310    2.8246    8.8396 O   0  0  0  0  0  0  0  0  0  0  0  0
   46.3619    6.4878   11.8871 O   0  0  0  0  0  0  0  0  0  0  0  0
   46.2322    3.7321   11.6387 O   0  0  0  0  0  0  0  0  0  0  0  0
   43.4264    5.6430   10.1482 O   0  0  0  0  0  0  0  0  0  0  0  0
   43.8813    2.1806   10.9044 O   0  0  0  0  0  0  0  0  0  0  0  0
   45.0794    6.3864   11.4321 N   0  0  0  0  0  0  0  0  0  0  0  0
   44.4709    7.3003   12.3888 C   0  0  0  0  0  0  0  0  0  0  0  0
   45.4332    8.3558   12.7318 C   0  0  0  0  0  0  0  0  0  0  0  0
   46.2217    9.2191   13.0088 C   0  0  0  0  0  0  0  0  0  0  0  0
   44.1684    5.3282   11.0139 C   0  0  2  0  0  0  0  0  0  0  0  0
   43.8232    4.3074   12.1228 C   0  0  0  0  0  0  0  0  0  0  0  0
   43.4896    2.9904   11.4070 C   0  0  0  0  0  0  0  0  0  0  0  0
   44.3826    3.0833   10.2099 C   0  0  0  0  0  0  0  0  0  0  0  0
   44.7763    4.4095    9.9848 C   0  0  0  0  0  0  0  0  0  0  0  0
   45.5721    4.7367    8.8971 C   0  0  0  0  0  0  0  0  0  0  0  0
   44.7762    2.0636    9.3595 C   0  0  0  0  0  0  0  0  0  0  0  0
   45.5907    2.3861    8.2720 C   0  0  0  0  0  0  0  0  0  0  0  0
   45.9866    3.7131    8.0425 C   0  0  0  0  0  0  0  0  0  0  0  0
   45.1430    6.4468   11.1707 N   0  0  0  0  0  0  0  0  0  0  0  0
   44.7731    7.4680   12.1414 C   0  0  0  0  0  0  0  0  0  0  0  0
   45.8417    8.4723   12.2235 C   0  0  0  0  0  0  0  0  0  0  0  0
   46.7165    9.2927   12.2927 C   0  0  0  0  0  0  0  0  0  0  0  0
   44.1151    5.4238   11.0190 C   0  0  2  0  0  0  0  0  0  0  0  0
   43.9279    4.5270   12.2646 C   0  0  0  0  0  0  0  0  0  0  0  0
   43.4052    3.1782   11.7502 C   0  0  0  0  0  0  0  0  0  0  0  0
   44.0667    3.1089   10.4100 C   0  0  0  0  0  0  0  0  0  0  0  0
   44.4768    4.3817    9.9912 C   0  0  0  0  0  0  0  0  0  0  0  0
   45.0729    4.5609    8.7519 C   0  0  0  0  0  0  0  0  0  0  0  0
   44.2469    1.9962    9.6054 C   0  0  0  0  0  0  0  0  0  0  0  0
   44.8624    2.1693    8.3637 C   0  0  0  0  0  0  0  0  0  0  0  0
   45.2725    3.4428    7.9394 C   0  0  0  0  0  0  0  0  0  0  0  0
   45.0535    8.2938   11.8897 H   0  0  0  0  0  0  0  0  0  0  0  0
   43.8146    4.8952   12.0334 H   0  0  0  0  0  0  0  0  0  0  0  0
   45.8973    4.5180    9.7694 H   0  0  0  0  0  0  0  0  0  0  0  0
   43.8617    2.0362    8.7155 H   0  0  0  0  0  0  0  0  0  0  0  0
   46.8410    4.4800   11.8073 H   0  0  0  0  0  0  0  0  0  0  0  0
   43.0018    6.4583   10.4854 H   0  0  0  0  0  0  0  0  0  0  0  0
   45.9116    5.9713   11.8483 H   0  0  0  0  0  0  0  0  0  0  0  0
   43.5703    7.7587   11.9626 H   0  0  0  0  0  0  0  0  0  0  0  0
   44.1803    6.7715   13.3034 H   0  0  0  0  0  0  0  0  0  0  0  0
   46.9223    9.9869   13.2444 H   0  0  0  0  0  0  0  0  0  0  0  0
   43.2502    5.7502   10.5852 H   0  0  0  0  0  0  0  0  0  0  0  0
   43.0010    4.6470   12.7617 H   0  0  0  0  0  0  0  0  0  0  0  0
   44.6929    4.1418   12.7758 H   0  0  0  0  0  0  0  0  0  0  0  0
   43.7185    2.1260   12.0362 H   0  0  0  0  0  0  0  0  0  0  0  0
   42.4412    2.9610   11.0932 H   0  0  0  0  0  0  0  0  0  0  0  0
   45.8652    5.7664    8.7153 H   0  0  0  0  0  0  0  0  0  0  0  0
   44.4622    1.0385    9.5267 H   0  0  0  0  0  0  0  0  0  0  0  0
   45.9159    1.6040    7.5906 H   0  0  0  0  0  0  0  0  0  0  0  0
   46.6168    3.9469    7.1881 H   0  0  0  0  0  0  0  0  0  0  0  0
   46.0161    6.0080   11.4595 H   0  0  0  0  0  0  0  0  0  0  0  0
   44.6199    7.0326   13.1353 H   0  0  0  0  0  0  0  0  0  0  0  0
   43.8399    7.9575   11.8399 H   0  0  0  0  0  0  0  0  0  0  0  0
   47.4934   10.0201   12.3459 H   0  0  0  0  0  0  0  0  0  0  0  0
   43.1583    5.8697   10.7169 H   0  0  0  0  0  0  0  0  0  0  0  0
   44.8934    4.3631   12.7655 H   0  0  0  0  0  0  0  0  0  0  0  0
   43.2547    4.9730   13.0044 H   0  0  0  0  0  0  0  0  0  0  0  0
   43.7022    2.3569   12.4085 H   0  0  0  0  0  0  0  0  0  0  0  0
   42.3170    3.1923   11.6327 H   0  0  0  0  0  0  0  0  0  0  0  0
   45.3780    5.5495    8.4220 H   0  0  0  0  0  0  0  0  0  0  0  0
   43.9205    1.0124    9.9268 H   0  0  0  0  0  0  0  0  0  0  0  0
   45.0222    1.3104    7.7167 H   0  0  0  0  0  0  0  0  0  0  0  0
   45.7452    3.5607    6.9676 H   0  0  0  0  0  0  0  0  0  0  0  0
  1  2  1  0
  2  3  1  0
  3  4  1  0
  4  5  1  0
  5  6  1  0
  2  7  2  0
  4  8  1  0
  3  9  1  0
  5 10  2  0
 12 11  1  0
 15 11  1  0
 12 13  1  0
 13 14  3  0
 16 15  1  0
 19 15  1  0
 16 17  1  0
 17 18  1  0
 18 19  2  0
 18 21  1  0
 20 19  1  0
 23 20  2  0
 21 22  2  0
 22 23  1  0
 25 24  1  0
 28 24  1  0
 25 26  1  0
 26 27  3  0
 29 28  1  0
 32 28  1  0
 29 30  1  0
 30 31  1  0
 31 32  2  0
 31 34  1  0
 33 32  1  0
 36 33  2  0
 34 35  2  0
 35 36  1  0
  1 37  1  0
  3 38  1  1
  4 39  1  6
  6 40  1  0
  8 41  1  0
  9 42  1  0
 11 43  1  0
 12 44  1  0
 12 45  1  0
 14 46  1  0
 15 47  1  1
 16 48  1  0
 16 49  1  0
 17 50  1  0
 17 51  1  0
 20 52  1  0
 21 53  1  0
 22 54  1  0
 23 55  1  0
 24 56  1  0
 25 57  1  0
 25 58  1  0
 27 59  1  0
 28 60  1  1
 29 61  1  0
 29 62  1  0
 30 63  1  0
 30 64  1  0
 33 65  1  0
 34 66  1  0
 35 67  1  0
 36 68  1  0
M  END
> <Uni-Dock RESULT> 
ENERGY=   -9.686  LOWER_BOUND=    0.000  UPPER_BOUND=    0.000
INTER + INTRA:          -9.686
INTER:                  -9.686
INTRA:                   0.000
UNBOUND:                 0.000

$$$$

     RDKit          3D

 68 69  0  0  0  0  0  0  0  0999 V2000
   44.3019    4.7182   10.9801 O   0  0  0  0  0  0  0  0  0  0  0  0
   45.3517    5.5633   10.8418 C   0  0  0  0  0  0  0  0  0  0  0  0
   45.3554    6.6489   11.9122 C   0  0  2  0  0  0  0  0  0  0  0  0
   46.7721    7.2129   12.0517 C   0  0  2  0  0  0  0  0  0  0  0  0
   46.7571    8.2703   13.1457 C   0  0  0  0  0  0  0  0  0  0  0  0
   47.3878    7.8740   14.2750 O   0  0  0  0  0  0  0  0  0  0  0  0
   46.1496    5.4258    9.9266 O   0  0  0  0  0  0  0  0  0  0  0  0
   47.2188    7.8162   10.8295 O   0  0  0  0  0  0  0  0  0  0  0  0
   44.9023    6.0813   13.1467 O   0  0  0  0  0  0  0  0  0  0  0  0
   46.2584    9.3863   13.0846 O   0  0  0  0  0  0  0  0  0  0  0  0
   45.3636    5.5946   11.0292 N   0  0  0  0  0  0  0  0  0  0  0  0
   44.0890    5.2835   10.3971 C   0  0  0  0  0  0  0  0  0  0  0  0
   44.3011    4.2819    9.3437 C   0  0  0  0  0  0  0  0  0  0  0  0
   44.4773    3.4610    8.4842 C   0  0  0  0  0  0  0  0  0  0  0  0
   45.2279    6.5582   12.1144 C   0  0  2  0  0  0  0  0  0  0  0  0
   44.8410    7.9839   11.6579 C   0  0  0  0  0  0  0  0  0  0  0  0
   45.4040    8.9428   12.7171 C   0  0  0  0  0  0  0  0  0  0  0  0
   46.6286    8.2001   13.1507 C   0  0  0  0  0  0  0  0  0  0  0  0
   46.5366    6.8448   12.8056 C   0  0  0  0  0  0  0  0  0  0  0  0
   47.5432    5.9562   13.1526 C   0  0  0  0  0  0  0  0  0  0  0  0
   47.7229    8.6920   13.8424 C   0  0  0  0  0  0  0  0  0  0  0  0
   48.7463    7.8038   14.1798 C   0  0  0  0  0  0  0  0  0  0  0  0
   48.6578    6.4456   13.8369 C   0  0  0  0  0  0  0  0  0  0  0  0
   45.5099    5.4233   11.1881 N   0  0  0  0  0  0  0  0  0  0  0  0
   44.3796    4.9734   10.3869 C   0  0  0  0  0  0  0  0  0  0  0  0
   44.8150    3.8917    9.4938 C   0  0  0  0  0  0  0  0  0  0  0  0
   45.1713    3.0085    8.7615 C   0  0  0  0  0  0  0  0  0  0  0  0
   45.1460    6.4856   12.1182 C   0  0  2  0  0  0  0  0  0  0  0  0
   44.7763    7.8231   11.4360 C   0  0  0  0  0  0  0  0  0  0  0  0
   45.1083    8.9293   12.4477 C   0  0  0  0  0  0  0  0  0  0  0  0
   46.2741    8.3213   13.1618 C   0  0  0  0  0  0  0  0  0  0  0  0
   46.3036    6.9330   12.9743 C   0  0  0  0  0  0  0  0  0  0  0  0
   47.2753    6.1565   13.5876 C   0  0  0  0  0  0  0  0  0  0  0  0
   47.2118    8.9579   13.9577 C   0  0  0  0  0  0  0  0  0  0  0  0
   48.2026    8.1820   14.5635 C   0  0  0  0  0  0  0  0  0  0  0  0
   48.2343    6.7908   14.3801 C   0  0  0  0  0  0  0  0  0  0  0  0
   44.4011    4.0778   10.2412 H   0  0  0  0  0  0  0  0  0  0  0  0
   44.6483    7.4245   11.5991 H   0  0  0  0  0  0  0  0  0  0  0  0
   47.4937    6.4344   12.3260 H   0  0  0  0  0  0  0  0  0  0  0  0
   47.2898    8.6445   14.8730 H   0  0  0  0  0  0  0  0  0  0  0  0
   47.3440    7.0915   10.1833 H   0  0  0  0  0  0  0  0  0  0  0  0
   44.0942    5.5733   12.9282 H   0  0  0  0  0  0  0  0  0  0  0  0
   46.0040    5.9633   10.3277 H   0  0  0  0  0  0  0  0  0  0  0  0
   43.3815    4.8860   11.1349 H   0  0  0  0  0  0  0  0  0  0  0  0
   43.6446    6.1807    9.9521 H   0  0  0  0  0  0  0  0  0  0  0  0
   44.6383    2.7267    7.7287 H   0  0  0  0  0  0  0  0  0  0  0  0
   44.5214    6.1959   12.8723 H   0  0  0  0  0  0  0  0  0  0  0  0
   43.7597    8.1025   11.5303 H   0  0  0  0  0  0  0  0  0  0  0  0
   45.3082    8.2166   10.6896 H   0  0  0  0  0  0  0  0  0  0  0  0
   45.6357    9.9206   12.2862 H   0  0  0  0  0  0  0  0  0  0  0  0
   44.7145    9.0562   13.5598 H   0  0  0  0  0  0  0  0  0  0  0  0
   47.4649    4.9036   12.8973 H   0  0  0  0  0  0  0  0  0  0  0  0
   47.7893    9.7389   14.1200 H   0  0  0  0  0  0  0  0  0  0  0  0
   49.6176    8.1647   14.7206 H   0  0  0  0  0  0  0  0  0  0  0  0
   49.4616    5.7673   14.1119 H   0  0  0  0  0  0  0  0  0  0  0  0
   46.2500    5.7539   10.5707 H   0  0  0  0  0  0  0  0  0  0  0  0
   43.9738    5.7910    9.7804 H   0  0  0  0  0  0  0  0  0  0  0  0
   43.5773    4.6046   11.0363 H   0  0  0  0  0  0  0  0  0  0  0  0
   45.4918    2.2221    8.1179 H   0  0  0  0  0  0  0  0  0  0  0  0
   44.3417    6.1603   12.7913 H   0  0  0  0  0  0  0  0  0  0  0  0
   45.3889    7.9740   10.5349 H   0  0  0  0  0  0  0  0  0  0  0  0
   43.7282    7.8566   11.1203 H   0  0  0  0  0  0  0  0  0  0  0  0
   45.3651    9.8663   11.9456 H   0  0  0  0  0  0  0  0  0  0  0  0
   44.2811    9.0903   13.1461 H   0  0  0  0  0  0  0  0  0  0  0  0
   47.2895    5.0791   13.4531 H   0  0  0  0  0  0  0  0  0  0  0  0
   47.1825   10.0320   14.1098 H   0  0  0  0  0  0  0  0  0  0  0  0
   48.9549    8.6588   15.1869 H   0  0  0  0  0  0  0  0  0  0  0  0
   49.0093    6.2011   14.8634 H   0  0  0  0  0  0  0  0  0  0  0  0
  1  2  1  0
  2  3  1  0
  3  4  1  0
  4  5  1  0
  5  6  1  0
  2  7  2  0
  4  8  1  0
  3  9  1  0
  5 10  2  0
 12 11  1  0
 15 11  1  0
 12 13  1  0
 13 14  3  0
 16 15  1  0
 19 15  1  0
 16 17  1  0
 17 18  1  0
 18 19  2  0
 18 21  1  0
 20 19  1  0
 23 20  2  0
 21 22  2  0
 22 23  1  0
 25 24  1  0
 28 24  1  0
 25 26  1  0
 26 27  3  0
 29 28  1  0
 32 28  1  0
 29 30  1  0
 30 31  1  0
 31 32  2  0
 31 34  1  0
 33 32  1  0
 36 33  2  0
 34 35  2  0
 35 36  1  0
  1 37  1  0
  3 38  1  1
  4 39  1  6
  6 40  1  0
  8 41  1  0
  9 42  1  0
 11 43  1  0
 12 44  1  0
 12 45  1  0
 14 46  1  0
 15 47  1  1
 16 48  1  0
 16 49  1  0
 17 50  1  0
 17 51  1  0
 20 52  1  0
 21 53  1  0
 22 54  1  0
 23 55  1  0
 24 56  1  0
 25 57  1  0
 25 58  1  0
 27 59  1  0
 28 60  1  1
 29 61  1  0
 29 62  1  0
 30 63  1  0
 30 64  1  0
 33 65  1  0
 34 66  1  0
 35 67  1  0
 36 68  1  0
M  END
> <Uni-Dock RESULT> 
ENERGY=   -8.021  LOWER_BOUND=    1.819  UPPER_BOUND=    5.575
INTER + INTRA:          -8.021
INTER:                  -8.021
INTRA:                   0.000
UNBOUND:                 0.000

$$$$

     RDKit          3D

 68 69  0  0  0  0  0  0  0  0999 V2000
   44.6879    9.1962   12.7060 O   0  0  0  0  0  0  0  0  0  0  0  0
   45.0581    8.1989   11.8670 C   0  0  0  0  0  0  0  0  0  0  0  0
   45.3000    6.8892   12.6089 C   0  0  2  0  0  0  0  0  0  0  0  0
   45.1793    5.7233   11.6235 C   0  0  2  0  0  0  0  0  0  0  0  0
   45.3927    4.4276   12.3920 C   0  0  0  0  0  0  0  0  0  0  0  0
   44.2576    3.7075   12.5432 O   0  0  0  0  0  0  0  0  0  0  0  0
   45.1875    8.4042   10.6694 O   0  0  0  0  0  0  0  0  0  0  0  0
   46.1621    5.8128   10.5827 O   0  0  0  0  0  0  0  0  0  0  0  0
   44.3398    6.7732   13.6654 O   0  0  0  0  0  0  0  0  0  0  0  0
   46.4479    4.0067   12.8476 O   0  0  0  0  0  0  0  0  0  0  0  0
   44.9752    8.0651   11.9740 N   0  0  0  0  0  0  0  0  0  0  0  0
   45.5121    9.2802   12.5707 C   0  0  0  0  0  0  0  0  0  0  0  0
   45.2528   10.4161   11.6760 C   0  0  0  0  0  0  0  0  0  0  0  0
   45.0374   11.3436   10.9432 C   0  0  0  0  0  0  0  0  0  0  0  0
   45.1623    6.8960   12.8242 C   0  0  2  0  0  0  0  0  0  0  0  0
   46.6340    6.4479   12.9791 C   0  0  0  0  0  0  0  0  0  0  0  0
   46.5971    4.9388   13.2609 C   0  0  0  0  0  0  0  0  0  0  0  0
   45.3795    4.5353   12.4904 C   0  0  0  0  0  0  0  0  0  0  0  0
   44.5626    5.6450   12.2343 C   0  0  0  0  0  0  0  0  0  0  0  0
   43.3540    5.4961   11.5707 C   0  0  0  0  0  0  0  0  0  0  0  0
   45.0087    3.2630   12.0884 C   0  0  0  0  0  0  0  0  0  0  0  0
   43.7999    3.1107   11.4057 C   0  0  0  0  0  0  0  0  0  0  0  0
   42.9785    4.2193   11.1479 C   0  0  0  0  0  0  0  0  0  0  0  0
   44.7076    8.0080   11.9396 N   0  0  0  0  0  0  0  0  0  0  0  0
   45.1829    9.3349   12.3075 C   0  0  0  0  0  0  0  0  0  0  0  0
   44.6993   10.3152   11.3264 C   0  0  0  0  0  0  0  0  0  0  0  0
   44.3058   11.1169   10.5229 C   0  0  0  0  0  0  0  0  0  0  0  0
   45.1321    6.9821   12.8849 C   0  0  2  0  0  0  0  0  0  0  0  0
   46.6544    6.7112   12.8815 C   0  0  0  0  0  0  0  0  0  0  0  0
   46.8340    5.2539   13.3300 C   0  0  0  0  0  0  0  0  0  0  0  0
   45.5852    4.6333   12.7881 C   0  0  0  0  0  0  0  0  0  0  0  0
   44.6157    5.6112   12.5285 C   0  0  0  0  0  0  0  0  0  0  0  0
   43.3584    5.2555   12.0638 C   0  0  0  0  0  0  0  0  0  0  0  0
   45.3204    3.2890   12.5857 C   0  0  0  0  0  0  0  0  0  0  0  0
   44.0613    2.9275   12.1014 C   0  0  0  0  0  0  0  0  0  0  0  0
   43.0866    3.9038   11.8424 C   0  0  0  0  0  0  0  0  0  0  0  0
   44.5702    9.9787   12.1231 H   0  0  0  0  0  0  0  0  0  0  0  0
   46.3029    6.9371   13.0464 H   0  0  0  0  0  0  0  0  0  0  0  0
   44.1905    5.6922   11.1508 H   0  0  0  0  0  0  0  0  0  0  0  0
   44.5518    2.9224   13.0513 H   0  0  0  0  0  0  0  0  0  0  0  0
   45.9203    6.5824   10.0280 H   0  0  0  0  0  0  0  0  0  0  0  0
   44.3423    7.6369   14.1267 H   0  0  0  0  0  0  0  0  0  0  0  0
   45.4274    7.9054   11.0751 H   0  0  0  0  0  0  0  0  0  0  0  0
   45.0404    9.4719   13.5421 H   0  0  0  0  0  0  0  0  0  0  0  0
   46.5924    9.1919   12.7313 H   0  0  0  0  0  0  0  0  0  0  0  0
   44.8362   12.1638   10.2931 H   0  0  0  0  0  0  0  0  0  0  0  0
   44.7060    7.0532   13.8102 H   0  0  0  0  0  0  0  0  0  0  0  0
   47.1579    6.9998   13.7668 H   0  0  0  0  0  0  0  0  0  0  0  0
   47.1869    6.6171   12.0433 H   0  0  0  0  0  0  0  0  0  0  0  0
   47.5043    4.4444   12.9028 H   0  0  0  0  0  0  0  0  0  0  0  0
   46.4528    4.7350   14.3268 H   0  0  0  0  0  0  0  0  0  0  0  0
   42.7149    6.3542   11.3849 H   0  0  0  0  0  0  0  0  0  0  0  0
   45.6351    2.4018   12.2966 H   0  0  0  0  0  0  0  0  0  0  0  0
   43.4866    2.1231   11.0768 H   0  0  0  0  0  0  0  0  0  0  0  0
   42.0385    4.0817   10.6195 H   0  0  0  0  0  0  0  0  0  0  0  0
   45.0511    7.7730   11.0095 H   0  0  0  0  0  0  0  0  0  0  0  0
   46.2779    9.3705   12.3326 H   0  0  0  0  0  0  0  0  0  0  0  0
   44.8134    9.6076   13.3027 H   0  0  0  0  0  0  0  0  0  0  0  0
   43.9496   11.8243    9.8100 H   0  0  0  0  0  0  0  0  0  0  0  0
   44.7836    7.2145   13.8999 H   0  0  0  0  0  0  0  0  0  0  0  0
   47.0591    6.8194   11.8643 H   0  0  0  0  0  0  0  0  0  0  0  0
   47.2054    7.4085   13.5214 H   0  0  0  0  0  0  0  0  0  0  0  0
   47.7406    4.8137   12.9054 H   0  0  0  0  0  0  0  0  0  0  0  0
   46.8515    5.1734   14.4215 H   0  0  0  0  0  0  0  0  0  0  0  0
   42.6029    6.0125   11.8760 H   0  0  0  0  0  0  0  0  0  0  0  0
   46.0688    2.5317   12.7958 H   0  0  0  0  0  0  0  0  0  0  0  0
   43.8312    1.8795   11.9269 H   0  0  0  0  0  0  0  0  0  0  0  0
   42.1097    3.6046   11.4709 H   0  0  0  0  0  0  0  0  0  0  0  0
  1  2  1  0
  2  3  1  0
  3  4  1  0
  4  5  1  0
  5  6  1  0
  2  7  2  0
  4  8  1  0
  3  9  1  0
  5 10  2  0
 12 11  1  0
 15 11  1  0
 12 13  1  0
 13 14  3  0
 16 15  1  0
 19 15  1  0
 16 17  1  0
 17 18  1  0
 18 19  2  0
 18 21  1  0
 20 19  1  0
 23 20  2  0
 21 22  2  0
 22 23  1  0
 25 24  1  0
 28 24  1  0
 25 26  1  0
 26 27  3  0
 29 28  1  0
 32 28  1  0
 29 30  1  0
 30 31  1  0
 31 32  2  0
 31 34  1  0
 33 32  1  0
 36 33  2  0
 34 35  2  0
 35 36  1  0
  1 37  1  0
  3 38  1  1
  4 39  1  6
  6 40  1  0
  8 41  1  0
  9 42  1  0
 11 43  1  0
 12 44  1  0
 12 45  1  0
 14 46  1  0
 15 47  1  1
 16 48  1  0
 16 49  1  0
 17 50  1  0
 17 51  1  0
 20 52  1  0
 21 53  1  0
 22 54  1  0
 23 55  1  0
 24 56  1  0
 25 57  1  0
 25 58  1  0
 27 59  1  0
 28 60  1  1
 29 61  1  0
 29 62  1  0
 30 63  1  0
 30 64  1  0
 33 65  1  0
 34 66  1  0
 35 67  1  0
 36 68  1  0
M  END
> <Uni-Dock RESULT> 
ENERGY=   -7.553  LOWER_BOUND=    2.050  UPPER_BOUND=    3.121
INTER + INTRA:          -7.553
INTER:                  -7.553
INTRA:                   0.000
UNBOUND:                 0.000

$$$$

     RDKit          3D

 68 69  0  0  0  0  0  0  0  0999 V2000
   47.1249    4.1971   17.8529 O   0  0  0  0  0  0  0  0  0  0  0  0
   48.0848    4.8047   18.5909 C   0  0  0  0  0  0  0  0  0  0  0  0
   47.5428    6.0098   19.3514 C   0  0  2  0  0  0  0  0  0  0  0  0
   48.4661    6.3147   20.5344 C   0  0  2  0  0  0  0  0  0  0  0  0
   47.8884    7.4991   21.2951 C   0  0  0  0  0  0  0  0  0  0  0  0
   47.3633    7.1547   22.4933 O   0  0  0  0  0  0  0  0  0  0  0  0
   49.2358    4.3946   18.5804 O   0  0  0  0  0  0  0  0  0  0  0  0
   49.7899    6.6473   20.0939 O   0  0  0  0  0  0  0  0  0  0  0  0
   46.2139    5.7148   19.7970 O   0  0  0  0  0  0  0  0  0  0  0  0
   47.8714    8.6686   20.9346 O   0  0  0  0  0  0  0  0  0  0  0  0
   47.9609    4.8592   18.7248 N   0  0  0  0  0  0  0  0  0  0  0  0
   47.5494    4.7048   17.3364 C   0  0  0  0  0  0  0  0  0  0  0  0
   48.2347    3.5437   16.7531 C   0  0  0  0  0  0  0  0  0  0  0  0
   48.7950    2.5922   16.2793 C   0  0  0  0  0  0  0  0  0  0  0  0
   47.2919    5.9736   19.3846 C   0  0  2  0  0  0  0  0  0  0  0  0
   47.7084    7.3681   18.8625 C   0  0  0  0  0  0  0  0  0  0  0  0
   47.5005    8.3444   20.0295 C   0  0  0  0  0  0  0  0  0  0  0  0
   47.7873    7.4554   21.1985 C   0  0  0  0  0  0  0  0  0  0  0  0
   47.6757    6.1060   20.8364 C   0  0  0  0  0  0  0  0  0  0  0  0
   47.8552    5.1035   21.7776 C   0  0  0  0  0  0  0  0  0  0  0  0
   48.0815    7.8275   22.4996 C   0  0  0  0  0  0  0  0  0  0  0  0
   48.2788    6.8208   23.4472 C   0  0  0  0  0  0  0  0  0  0  0  0
   48.1672    5.4683   23.0889 C   0  0  0  0  0  0  0  0  0  0  0  0
   47.8972    4.6876   18.9310 N   0  0  0  0  0  0  0  0  0  0  0  0
   47.6706    4.3479   17.5328 C   0  0  0  0  0  0  0  0  0  0  0  0
   48.3608    3.0899   17.2188 C   0  0  0  0  0  0  0  0  0  0  0  0
   48.9270    2.0622   16.9611 C   0  0  0  0  0  0  0  0  0  0  0  0
   47.2207    5.9187   19.3220 C   0  0  2  0  0  0  0  0  0  0  0  0
   47.7949    7.1926   18.6600 C   0  0  0  0  0  0  0  0  0  0  0  0
   47.5092    8.3484   19.6293 C   0  0  0  0  0  0  0  0  0  0  0  0
   47.5819    7.6407   20.9455 C   0  0  0  0  0  0  0  0  0  0  0  0
   47.4234    6.2587   20.7768 C   0  0  0  0  0  0  0  0  0  0  0  0
   47.4094    5.4089   21.8727 C   0  0  0  0  0  0  0  0  0  0  0  0
   47.7328    8.1971   22.2048 C   0  0  0  0  0  0  0  0  0  0  0  0
   47.7366    7.3433   23.3101 C   0  0  0  0  0  0  0  0  0  0  0  0
   47.5757    5.9587   23.1456 C   0  0  0  0  0  0  0  0  0  0  0  0
   47.5882    3.4523   17.4095 H   0  0  0  0  0  0  0  0  0  0  0  0
   47.5025    6.8516   18.6520 H   0  0  0  0  0  0  0  0  0  0  0  0
   48.5436    5.4619   21.2191 H   0  0  0  0  0  0  0  0  0  0  0  0
   47.0344    8.0060   22.8511 H   0  0  0  0  0  0  0  0  0  0  0  0
   50.1821    5.8288   19.7271 H   0  0  0  0  0  0  0  0  0  0  0  0
   45.7477    5.3402   19.0217 H   0  0  0  0  0  0  0  0  0  0  0  0
   48.9692    5.0006   18.7614 H   0  0  0  0  0  0  0  0  0  0  0  0
   46.4651    4.5529   17.2719 H   0  0  0  0  0  0  0  0  0  0  0  0
   47.8008    5.5976   16.7531 H   0  0  0  0  0  0  0  0  0  0  0  0
   49.2885    1.7424   15.8670 H   0  0  0  0  0  0  0  0  0  0  0  0
   46.2014    5.8585   19.3358 H   0  0  0  0  0  0  0  0  0  0  0  0
   47.1443    7.6664   17.9724 H   0  0  0  0  0  0  0  0  0  0  0  0
   48.7733    7.3720   18.5867 H   0  0  0  0  0  0  0  0  0  0  0  0
   48.1884    9.1921   19.9671 H   0  0  0  0  0  0  0  0  0  0  0  0
   46.4663    8.7008   20.0724 H   0  0  0  0  0  0  0  0  0  0  0  0
   47.7548    4.0585   21.4995 H   0  0  0  0  0  0  0  0  0  0  0  0
   48.1566    8.8722   22.7831 H   0  0  0  0  0  0  0  0  0  0  0  0
   48.5134    7.0857   24.4751 H   0  0  0  0  0  0  0  0  0  0  0  0
   48.3191    4.6978   23.8406 H   0  0  0  0  0  0  0  0  0  0  0  0
   48.8980    4.7852   19.0961 H   0  0  0  0  0  0  0  0  0  0  0  0
   48.0477    5.1334   16.8682 H   0  0  0  0  0  0  0  0  0  0  0  0
   46.5981    4.2291   17.3404 H   0  0  0  0  0  0  0  0  0  0  0  0
   49.4269    1.1476   16.7397 H   0  0  0  0  0  0  0  0  0  0  0  0
   46.1393    5.8459   19.1459 H   0  0  0  0  0  0  0  0  0  0  0  0
   48.8836    7.0994   18.5337 H   0  0  0  0  0  0  0  0  0  0  0  0
   47.3715    7.3757   17.6668 H   0  0  0  0  0  0  0  0  0  0  0  0
   48.2562    9.1418   19.5369 H   0  0  0  0  0  0  0  0  0  0  0  0
   46.5051    8.7565   19.4762 H   0  0  0  0  0  0  0  0  0  0  0  0
   47.2726    4.3396   21.7426 H   0  0  0  0  0  0  0  0  0  0  0  0
   47.8462    9.2685   22.3351 H   0  0  0  0  0  0  0  0  0  0  0  0
   47.8611    7.7546   24.3087 H   0  0  0  0  0  0  0  0  0  0  0  0
   47.5756    5.3090   24.0172 H   0  0  0  0  0  0  0  0  0  0  0  0
  1  2  1  0
  2  3  1  0
  3  4  1  0
  4  5  1  0
  5  6  1  0
  2  7  2  0
  4  8  1  0
  3  9  1  0
  5 10  2  0
 12 11  1  0
 15 11  1  0
 12 13  1  0
 13 14  3  0
 16 15  1  0
 19 15  1  0
 16 17  1  0
 17 18  1  0
 18 19  2  0
 18 21  1  0
 20 19  1  0
 23 20  2  0
 21 22  2  0
 22 23  1  0
 25 24  1  0
 28 24  1  0
 25 26  1  0
 26 27  3  0
 29 28  1  0
 32 28  1  0
 29 30  1  0
 30 31  1  0
 31 32  2  0
 31 34  1  0
 33 32  1  0
 36 33  2  0
 34 35  2  0
 35 36  1  0
  1 37  1  0
  3 38  1  1
  4 39  1  6
  6 40  1  0
  8 41  1  0
  9 42  1  0
 11 43  1  0
 12 44  1  0
 12 45  1  0
 14 46  1  0
 15 47  1  1
 16 48  1  0
 16 49  1  0
 17 50  1  0
 17 51  1  0
 20 52  1  0
 21 53  1  0
 22 54  1  0
 23 55  1  0
 24 56  1  0
 25 57  1  0
 25 58  1  0
 27 59  1  0
 28 60  1  1
 29 61  1  0
 29 62  1  0
 30 63  1  0
 30 64  1  0
 33 65  1  0
 34 66  1  0
 35 67  1  0
 36 68  1  0
M  END
> <Uni-Dock RESULT> 
ENERGY=   -7.517  LOWER_BOUND=    8.318  UPPER_BOUND=   11.051
INTER + INTRA:          -7.517
INTER:                  -7.517
INTRA:                   0.000
UNBOUND:                 0.000

$$$$

     RDKit          3D

 68 69  0  0  0  0  0  0  0  0999 V2000
   48.2326    7.5209   18.7790 O   0  0  0  0  0  0  0  0  0  0  0  0
   48.3808    6.2539   19.2353 C   0  0  0  0  0  0  0  0  0  0  0  0
   48.4595    5.2428   18.0970 C   0  0  2  0  0  0  0  0  0  0  0  0
   49.1449    3.9698   18.6015 C   0  0  2  0  0  0  0  0  0  0  0  0
   49.2402    2.9898   17.4415 C   0  0  0  0  0  0  0  0  0  0  0  0
   50.5023    2.8360   16.9795 O   0  0  0  0  0  0  0  0  0  0  0  0
   48.4144    6.0203   20.4343 O   0  0  0  0  0  0  0  0  0  0  0  0
   48.4000    3.3596   19.6645 O   0  0  0  0  0  0  0  0  0  0  0  0
   49.1896    5.8261   17.0114 O   0  0  0  0  0  0  0  0  0  0  0  0
   48.3224    2.3608   16.9314 O   0  0  0  0  0  0  0  0  0  0  0  0
   48.4825    6.2008   19.0834 N   0  0  0  0  0  0  0  0  0  0  0  0
   47.4682    7.2412   18.9844 C   0  0  0  0  0  0  0  0  0  0  0  0
   47.4923    8.0604   20.2035 C   0  0  0  0  0  0  0  0  0  0  0  0
   47.5158    8.7301   21.2008 C   0  0  0  0  0  0  0  0  0  0  0  0
   48.5445    5.3663   17.8899 C   0  0  2  0  0  0  0  0  0  0  0  0
   47.3069    4.4644   17.6762 C   0  0  0  0  0  0  0  0  0  0  0  0
   47.7952    3.2447   16.8811 C   0  0  0  0  0  0  0  0  0  0  0  0
   49.1980    3.1189   17.3866 C   0  0  0  0  0  0  0  0  0  0  0  0
   49.6275    4.3205   17.9663 C   0  0  0  0  0  0  0  0  0  0  0  0
   50.9167    4.4462   18.4617 C   0  0  0  0  0  0  0  0  0  0  0  0
   50.0420    2.0248   17.2936 C   0  0  0  0  0  0  0  0  0  0  0  0
   51.3360    2.1419   17.8056 C   0  0  0  0  0  0  0  0  0  0  0  0
   51.7703    3.3437   18.3863 C   0  0  0  0  0  0  0  0  0  0  0  0
   48.7552    6.2417   19.0794 N   0  0  0  0  0  0  0  0  0  0  0  0
   47.8027    7.3336   19.2297 C   0  0  0  0  0  0  0  0  0  0  0  0
   48.1022    8.0755   20.4615 C   0  0  0  0  0  0  0  0  0  0  0  0
   48.3454    8.6812   21.4701 C   0  0  0  0  0  0  0  0  0  0  0  0
   48.5322    5.4715   17.8616 C   0  0  2  0  0  0  0  0  0  0  0  0
   47.2178    4.6572   17.8611 C   0  0  0  0  0  0  0  0  0  0  0  0
   47.4579    3.4515   16.9413 C   0  0  0  0  0  0  0  0  0  0  0  0
   48.9200    3.2171   17.1551 C   0  0  0  0  0  0  0  0  0  0  0  0
   49.5353    4.3603   17.6827 C   0  0  0  0  0  0  0  0  0  0  0  0
   50.9020    4.3841   17.9167 C   0  0  0  0  0  0  0  0  0  0  0  0
   49.6532    2.0807   16.8567 C   0  0  0  0  0  0  0  0  0  0  0  0
   51.0272    2.0942   17.1069 C   0  0  0  0  0  0  0  0  0  0  0  0
   51.6478    3.2380   17.6330 C   0  0  0  0  0  0  0  0  0  0  0  0
   48.1867    8.0724   19.5912 H   0  0  0  0  0  0  0  0  0  0  0  0
   47.4361    5.0379   17.7651 H   0  0  0  0  0  0  0  0  0  0  0  0
   50.1562    4.1733   18.9730 H   0  0  0  0  0  0  0  0  0  0  0  0
   50.3999    2.1927   16.2469 H   0  0  0  0  0  0  0  0  0  0  0  0
   48.4678    3.9553   20.4384 H   0  0  0  0  0  0  0  0  0  0  0  0
   48.8118    6.7203   16.8835 H   0  0  0  0  0  0  0  0  0  0  0  0
   48.2850    5.6167   19.8945 H   0  0  0  0  0  0  0  0  0  0  0  0
   47.6596    7.8826   18.1156 H   0  0  0  0  0  0  0  0  0  0  0  0
   46.4704    6.8037   18.8681 H   0  0  0  0  0  0  0  0  0  0  0  0
   47.5468    9.3257   22.0840 H   0  0  0  0  0  0  0  0  0  0  0  0
   48.7305    5.9762   16.9963 H   0  0  0  0  0  0  0  0  0  0  0  0
   46.4919    4.9879   17.1652 H   0  0  0  0  0  0  0  0  0  0  0  0
   46.9129    4.1186   18.6433 H   0  0  0  0  0  0  0  0  0  0  0  0
   47.1896    2.3602   17.0968 H   0  0  0  0  0  0  0  0  0  0  0  0
   47.7994    3.4452   15.8049 H   0  0  0  0  0  0  0  0  0  0  0  0
   51.2534    5.3819   18.8980 H   0  0  0  0  0  0  0  0  0  0  0  0
   49.7139    1.0981   16.8345 H   0  0  0  0  0  0  0  0  0  0  0  0
   52.0178    1.2972   17.7477 H   0  0  0  0  0  0  0  0  0  0  0  0
   52.7827    3.4187   18.7754 H   0  0  0  0  0  0  0  0  0  0  0  0
   48.6891    5.6236   19.8868 H   0  0  0  0  0  0  0  0  0  0  0  0
   46.7748    6.9578   19.2845 H   0  0  0  0  0  0  0  0  0  0  0  0
   47.8681    8.0144   18.3733 H   0  0  0  0  0  0  0  0  0  0  0  0
   48.5691    9.2178   22.3631 H   0  0  0  0  0  0  0  0  0  0  0  0
   48.5881    6.1151   16.9737 H   0  0  0  0  0  0  0  0  0  0  0  0
   46.9962    4.2894   18.8738 H   0  0  0  0  0  0  0  0  0  0  0  0
   46.3563    5.2527   17.5408 H   0  0  0  0  0  0  0  0  0  0  0  0
   46.8470    2.5943   17.2381 H   0  0  0  0  0  0  0  0  0  0  0  0
   47.2665    3.7062   15.8941 H   0  0  0  0  0  0  0  0  0  0  0  0
   51.3806    5.2749   18.3124 H   0  0  0  0  0  0  0  0  0  0  0  0
   49.1772    1.1991   16.4396 H   0  0  0  0  0  0  0  0  0  0  0  0
   51.6237    1.2120   16.8885 H   0  0  0  0  0  0  0  0  0  0  0  0
   52.7192    3.2334   17.8166 H   0  0  0  0  0  0  0  0  0  0  0  0
  1  2  1  0
  2  3  1  0
  3  4  1  0
  4  5  1  0
  5  6  1  0
  2  7  2  0
  4  8  1  0
  3  9  1  0
  5 10  2  0
 12 11  1  0
 15 11  1  0
 12 13  1  0
 13 14  3  0
 16 15  1  0
 19 15  1  0
 16 17  1  0
 17 18  1  0
 18 19  2  0
 18 21  1  0
 20 19  1  0
 23 20  2  0
 21 22  2  0
 22 23  1  0
 25 24  1  0
 28 24  1  0
 25 26  1  0
 26 27  3  0
 29 28  1  0
 32 28  1  0
 29 30  1  0
 30 31  1  0
 31 32  2  0
 31 34  1  0
 33 32  1  0
 36 33  2  0
 34 35  2  0
 35 36  1  0
  1 37  1  0
  3 38  1  1
  4 39  1  6
  6 40  1  0
  8 41  1  0
  9 42  1  0
 11 43  1  0
 12 44  1  0
 12 45  1  0
 14 46  1  0
 15 47  1  1
 16 48  1  0
 16 49  1  0
 17 50  1  0
 17 51  1  0
 20 52  1  0
 21 53  1  0
 22 54  1  0
 23 55  1  0
 24 56  1  0
 25 57  1  0
 25 58  1  0
 27 59  1  0
 28 60  1  1
 29 61  1  0
 29 62  1  0
 30 63  1  0
 30 64  1  0
 33 65  1  0
 34 66  1  0
 35 67  1  0
 36 68  1  0
M  END
> <Uni-Dock RESULT> 
ENERGY=   -7.353  LOWER_BOUND=    7.670  UPPER_BOUND=    8.878
INTER + INTRA:          -7.353
INTER:                  -7.353
INTRA:                   0.000
UNBOUND:                 0.000

$$$$

     RDKit          3D

 68 69  0  0  0  0  0  0  0  0999 V2000
   41.1736    9.7651   10.7937 O   0  0  0  0  0  0  0  0  0  0  0  0
   41.5446   10.9513   10.2546 C   0  0  0  0  0  0  0  0  0  0  0  0
   43.0592   11.0730   10.1301 C   0  0  2  0  0  0  0  0  0  0  0  0
   43.3937   12.1259    9.0698 C   0  0  2  0  0  0  0  0  0  0  0  0
   44.9077   12.2064    8.9412 C   0  0  0  0  0  0  0  0  0  0  0  0
   45.3704   11.6801    7.7841 O   0  0  0  0  0  0  0  0  0  0  0  0
   40.7088   11.7892    9.9503 O   0  0  0  0  0  0  0  0  0  0  0  0
   42.8898   13.4176    9.4365 O   0  0  0  0  0  0  0  0  0  0  0  0
   43.5972    9.7940    9.7749 O   0  0  0  0  0  0  0  0  0  0  0  0
   45.6908   12.6893    9.7484 O   0  0  0  0  0  0  0  0  0  0  0  0
   41.6987   10.8764   10.1717 N   0  0  0  0  0  0  0  0  0  0  0  0
   41.1719   10.3300   11.4146 C   0  0  0  0  0  0  0  0  0  0  0  0
   39.7039   10.3698   11.3788 C   0  0  0  0  0  0  0  0  0  0  0  0
   38.5033   10.4015   11.3459 C   0  0  0  0  0  0  0  0  0  0  0  0
   43.1547   10.8362   10.1171 C   0  0  2  0  0  0  0  0  0  0  0  0
   43.8576   11.7930   11.1076 C   0  0  0  0  0  0  0  0  0  0  0  0
   45.2152   12.1412   10.4800 C   0  0  0  0  0  0  0  0  0  0  0  0
   44.8768   12.0892    9.0234 C   0  0  0  0  0  0  0  0  0  0  0  0
   43.7030   11.3531    8.8114 C   0  0  0  0  0  0  0  0  0  0  0  0
   43.2256   11.1363    7.5275 C   0  0  0  0  0  0  0  0  0  0  0  0
   45.5909   12.6223    7.9633 C   0  0  0  0  0  0  0  0  0  0  0  0
   45.1051   12.4200    6.6698 C   0  0  0  0  0  0  0  0  0  0  0  0
   43.9305   11.6829    6.4531 C   0  0  0  0  0  0  0  0  0  0  0  0
   41.6775   10.7589    9.9231 N   0  0  0  0  0  0  0  0  0  0  0  0
   40.9183   10.2927   11.0756 C   0  0  0  0  0  0  0  0  0  0  0  0
   39.4848   10.3146   10.7562 C   0  0  0  0  0  0  0  0  0  0  0  0
   38.3122   10.3346   10.4961 C   0  0  0  0  0  0  0  0  0  0  0  0
   43.1162   10.7431   10.1601 C   0  0  2  0  0  0  0  0  0  0  0  0
   43.5951   11.7747   11.2077 C   0  0  0  0  0  0  0  0  0  0  0  0
   45.0460   12.1188   10.8420 C   0  0  0  0  0  0  0  0  0  0  0  0
   45.0074   11.9697    9.3538 C   0  0  0  0  0  0  0  0  0  0  0  0
   43.9099   11.1928    8.9597 C   0  0  0  0  0  0  0  0  0  0  0  0
   43.7040   10.8851    7.6232 C   0  0  0  0  0  0  0  0  0  0  0  0
   45.9131   12.4552    8.4253 C   0  0  0  0  0  0  0  0  0  0  0  0
   45.7002   12.1622    7.0764 C   0  0  0  0  0  0  0  0  0  0  0  0
   44.6034   11.3824    6.6777 C   0  0  0  0  0  0  0  0  0  0  0  0
   40.1924    9.8062   10.8302 H   0  0  0  0  0  0  0  0  0  0  0  0
   43.4498   11.3604   11.1122 H   0  0  0  0  0  0  0  0  0  0  0  0
   42.9718   11.8653    8.0919 H   0  0  0  0  0  0  0  0  0  0  0  0
   46.3410   11.7997    7.8515 H   0  0  0  0  0  0  0  0  0  0  0  0
   41.9135   13.3684    9.3828 H   0  0  0  0  0  0  0  0  0  0  0  0
   43.1784    9.1487   10.3806 H   0  0  0  0  0  0  0  0  0  0  0  0
   41.3829   11.8396   10.0690 H   0  0  0  0  0  0  0  0  0  0  0  0
   41.5010    9.2923   11.5478 H   0  0  0  0  0  0  0  0  0  0  0  0
   41.5237   10.9092   12.2756 H   0  0  0  0  0  0  0  0  0  0  0  0
   37.4385   10.4246   11.3076 H   0  0  0  0  0  0  0  0  0  0  0  0
   43.5224    9.8108   10.2520 H   0  0  0  0  0  0  0  0  0  0  0  0
   43.9670   11.3547   12.1053 H   0  0  0  0  0  0  0  0  0  0  0  0
   43.2763   12.7197   11.2237 H   0  0  0  0  0  0  0  0  0  0  0  0
   45.5588   13.1297   10.7969 H   0  0  0  0  0  0  0  0  0  0  0  0
   45.9707   11.3856   10.7181 H   0  0  0  0  0  0  0  0  0  0  0  0
   42.3238   10.5541    7.3631 H   0  0  0  0  0  0  0  0  0  0  0  0
   46.5060   13.1823    8.1260 H   0  0  0  0  0  0  0  0  0  0  0  0
   45.6453   12.8300    5.8201 H   0  0  0  0  0  0  0  0  0  0  0  0
   43.5694   11.5309    5.4390 H   0  0  0  0  0  0  0  0  0  0  0  0
   41.3845   11.7060    9.6875 H   0  0  0  0  0  0  0  0  0  0  0  0
   41.0955   10.9288   11.9501 H   0  0  0  0  0  0  0  0  0  0  0  0
   41.2146    9.2701   11.3363 H   0  0  0  0  0  0  0  0  0  0  0  0
   37.2737   10.3495   10.2580 H   0  0  0  0  0  0  0  0  0  0  0  0
   43.4597    9.7347   10.4262 H   0  0  0  0  0  0  0  0  0  0  0  0
   42.9892   12.6907   11.1459 H   0  0  0  0  0  0  0  0  0  0  0  0
   43.5078   11.4013   12.2335 H   0  0  0  0  0  0  0  0  0  0  0  0
   45.3077   13.1330   11.1562 H   0  0  0  0  0  0  0  0  0  0  0  0
   45.7465   11.3976   11.2746 H   0  0  0  0  0  0  0  0  0  0  0  0
   42.8612   10.2714    7.3198 H   0  0  0  0  0  0  0  0  0  0  0  0
   46.7680   13.0491    8.7324 H   0  0  0  0  0  0  0  0  0  0  0  0
   46.3925   12.5380    6.3272 H   0  0  0  0  0  0  0  0  0  0  0  0
   44.4555   11.1592    5.6241 H   0  0  0  0  0  0  0  0  0  0  0  0
  1  2  1  0
  2  3  1  0
  3  4  1  0
  4  5  1  0
  5  6  1  0
  2  7  2  0
  4  8  1  0
  3  9  1  0
  5 10  2  0
 12 11  1  0
 15 11  1  0
 12 13  1  0
 13 14  3  0
 16 15  1  0
 19 15  1  0
 16 17  1  0
 17 18  1  0
 18 19  2  0
 18 21  1  0
 20 19  1  0
 23 20  2  0
 21 22  2  0
 22 23  1  0
 25 24  1  0
 28 24  1  0
 25 26  1  0
 26 27  3  0
 29 28  1  0
 32 28  1  0
 29 30  1  0
 30 31  1  0
 31 32  2  0
 31 34  1  0
 33 32  1  0
 36 33  2  0
 34 35  2  0
 35 36  1  0
  1 37  1  0
  3 38  1  1
  4 39  1  6
  6 40  1  0
  8 41  1  0
  9 42  1  0
 11 43  1  0
 12 44  1  0
 12 45  1  0
 14 46  1  0
 15 47  1  1
 16 48  1  0
 16 49  1  0
 17 50  1  0
 17 51  1  0
 20 52  1  0
 21 53  1  0
 22 54  1  0
 23 55  1  0
 24 56  1  0
 25 57  1  0
 25 58  1  0
 27 59  1  0
 28 60  1  1
 29 61  1  0
 29 62  1  0
 30 63  1  0
 30 64  1  0
 33 65  1  0
 34 66  1  0
 35 67  1  0
 36 68  1  0
M  END
> <Uni-Dock RESULT> 
ENERGY=   -7.325  LOWER_BOUND=    6.485  UPPER_BOUND=    7.871
INTER + INTRA:          -7.325
INTER:                  -7.325
INTRA:                   0.000
UNBOUND:                 0.000

$$$$

     RDKit          3D

 68 69  0  0  0  0  0  0  0  0999 V2000
   47.1303    6.5765   20.1988 O   0  0  0  0  0  0  0  0  0  0  0  0
   47.9923    7.6214   20.2184 C   0  0  0  0  0  0  0  0  0  0  0  0
   47.7159    8.6106   19.0917 C   0  0  2  0  0  0  0  0  0  0  0  0
   48.3137    9.9716   19.4593 C   0  0  2  0  0  0  0  0  0  0  0  0
   47.9980   10.9483   18.3361 C   0  0  0  0  0  0  0  0  0  0  0  0
   47.0704   11.8707   18.6805 O   0  0  0  0  0  0  0  0  0  0  0  0
   48.8796    7.6852   21.0561 O   0  0  0  0  0  0  0  0  0  0  0  0
   49.7368    9.8929   19.6196 O   0  0  0  0  0  0  0  0  0  0  0  0
   46.3000    8.7046   18.8972 O   0  0  0  0  0  0  0  0  0  0  0  0
   48.4943   10.9696   17.2175 O   0  0  0  0  0  0  0  0  0  0  0  0
   47.8630    7.7418   20.1476 N   0  0  0  0  0  0  0  0  0  0  0  0
   47.8330    6.3244   19.8150 C   0  0  0  0  0  0  0  0  0  0  0  0
   48.2029    5.5395   21.0003 C   0  0  0  0  0  0  0  0  0  0  0  0
   48.5036    4.9000   21.9721 C   0  0  0  0  0  0  0  0  0  0  0  0
   47.4698    8.5867   19.0268 C   0  0  2  0  0  0  0  0  0  0  0  0
   48.4776    8.6020   17.8542 C   0  0  0  0  0  0  0  0  0  0  0  0
   48.3048    9.9586   17.1557 C   0  0  0  0  0  0  0  0  0  0  0  0
   47.9197   10.8268   18.3120 C   0  0  0  0  0  0  0  0  0  0  0  0
   47.4494   10.0518   19.3810 C   0  0  0  0  0  0  0  0  0  0  0  0
   46.9930   10.6533   20.5443 C   0  0  0  0  0  0  0  0  0  0  0  0
   47.9458   12.2095   18.3849 C   0  0  0  0  0  0  0  0  0  0  0  0
   47.5020   12.8188   19.5605 C   0  0  0  0  0  0  0  0  0  0  0  0
   47.0296   12.0464   20.6331 C   0  0  0  0  0  0  0  0  0  0  0  0
   47.6878    7.8705   20.3173 N   0  0  0  0  0  0  0  0  0  0  0  0
   47.7608    6.4188   20.2230 C   0  0  0  0  0  0  0  0  0  0  0  0
   48.0251    5.8566   21.5541 C   0  0  0  0  0  0  0  0  0  0  0  0
   48.2435    5.3966   22.6421 C   0  0  0  0  0  0  0  0  0  0  0  0
   47.4046    8.4988   19.0323 C   0  0  2  0  0  0  0  0  0  0  0  0
   48.5505    8.3735   18.0017 C   0  0  0  0  0  0  0  0  0  0  0  0
   48.4268    9.5872   17.0697 C   0  0  0  0  0  0  0  0  0  0  0  0
   47.8725   10.6118   18.0086 C   0  0  0  0  0  0  0  0  0  0  0  0
   47.2944    9.9993   19.1286 C   0  0  0  0  0  0  0  0  0  0  0  0
   46.6750   10.7590   20.1097 C   0  0  0  0  0  0  0  0  0  0  0  0
   47.8470   11.9874   17.8500 C   0  0  0  0  0  0  0  0  0  0  0  0
   47.2395   12.7576   18.8442 C   0  0  0  0  0  0  0  0  0  0  0  0
   46.6571   12.1480   19.9663 C   0  0  0  0  0  0  0  0  0  0  0  0
   47.4083    6.0125   20.9542 H   0  0  0  0  0  0  0  0  0  0  0  0
   48.1721    8.2097   18.1802 H   0  0  0  0  0  0  0  0  0  0  0  0
   47.8910   10.3617   20.3928 H   0  0  0  0  0  0  0  0  0  0  0  0
   46.9740   12.4111   17.8683 H   0  0  0  0  0  0  0  0  0  0  0  0
   49.9038    9.3653   20.4271 H   0  0  0  0  0  0  0  0  0  0  0  0
   45.9710    7.7828   18.8683 H   0  0  0  0  0  0  0  0  0  0  0  0
   48.8028    7.9953   20.4487 H   0  0  0  0  0  0  0  0  0  0  0  0
   46.8296    6.0283   19.4857 H   0  0  0  0  0  0  0  0  0  0  0  0
   48.5349    6.0987   19.0044 H   0  0  0  0  0  0  0  0  0  0  0  0
   48.7629    4.3377   22.8395 H   0  0  0  0  0  0  0  0  0  0  0  0
   46.4692    8.3156   18.6657 H   0  0  0  0  0  0  0  0  0  0  0  0
   48.3294    7.7637   17.1652 H   0  0  0  0  0  0  0  0  0  0  0  0
   49.5079    8.5307   18.2331 H   0  0  0  0  0  0  0  0  0  0  0  0
   49.2337   10.2820   16.6781 H   0  0  0  0  0  0  0  0  0  0  0  0
   47.4938    9.9289   16.4209 H   0  0  0  0  0  0  0  0  0  0  0  0
   46.6157   10.0529   21.3667 H   0  0  0  0  0  0  0  0  0  0  0  0
   48.2989   12.8105   17.5533 H   0  0  0  0  0  0  0  0  0  0  0  0
   47.5144   13.9025   19.6447 H   0  0  0  0  0  0  0  0  0  0  0  0
   46.6833   12.5375   21.5390 H   0  0  0  0  0  0  0  0  0  0  0  0
   48.5693    8.2292   20.6815 H   0  0  0  0  0  0  0  0  0  0  0  0
   48.5603    6.1058   19.5420 H   0  0  0  0  0  0  0  0  0  0  0  0
   46.8156    6.0155   19.8419 H   0  0  0  0  0  0  0  0  0  0  0  0
   48.4320    4.9940   23.6105 H   0  0  0  0  0  0  0  0  0  0  0  0
   46.4630    8.1234   18.6102 H   0  0  0  0  0  0  0  0  0  0  0  0
   49.5259    8.4161   18.5085 H   0  0  0  0  0  0  0  0  0  0  0  0
   48.5167    7.4277   17.4507 H   0  0  0  0  0  0  0  0  0  0  0  0
   49.3980    9.8760   16.6582 H   0  0  0  0  0  0  0  0  0  0  0  0
   47.7162    9.3954   16.2595 H   0  0  0  0  0  0  0  0  0  0  0  0
   46.2150   10.2830   20.9705 H   0  0  0  0  0  0  0  0  0  0  0  0
   48.2869   12.4601   16.9778 H   0  0  0  0  0  0  0  0  0  0  0  0
   47.2131   13.8401   18.7469 H   0  0  0  0  0  0  0  0  0  0  0  0
   46.1835   12.7621   20.7282 H   0  0  0  0  0  0  0  0  0  0  0  0
  1  2  1  0
  2  3  1  0
  3  4  1  0
  4  5  1  0
  5  6  1  0
  2  7  2  0
  4  8  1  0
  3  9  1  0
  5 10  2  0
 12 11  1  0
 15 11  1  0
 12 13  1  0
 13 14  3  0
 16 15  1  0
 19 15  1  0
 16 17  1  0
 17 18  1  0
 18 19  2  0
 18 21  1  0
 20 19  1  0
 23 20  2  0
 21 22  2  0
 22 23  1  0
 25 24  1  0
 28 24  1  0
 25 26  1  0
 26 27  3  0
 29 28  1  0
 32 28  1  0
 29 30  1  0
 30 31  1  0
 31 32  2  0
 31 34  1  0
 33 32  1  0
 36 33  2  0
 34 35  2  0
 35 36  1  0
  1 37  1  0
  3 38  1  1
  4 39  1  6
  6 40  1  0
  8 41  1  0
  9 42  1  0
 11 43  1  0
 12 44  1  0
 12 45  1  0
 14 46  1  0
 15 47  1  1
 16 48  1  0
 16 49  1  0
 17 50  1  0
 17 51  1  0
 20 52  1  0
 21 53  1  0
 22 54  1  0
 23 55  1  0
 24 56  1  0
 25 57  1  0
 25 58  1  0
 27 59  1  0
 28 60  1  1
 29 61  1  0
 29 62  1  0
 30 63  1  0
 30 64  1  0
 33 65  1  0
 34 66  1  0
 35 67  1  0
 36 68  1  0
M  END
> <Uni-Dock RESULT> 
ENERGY=   -6.948  LOWER_BOUND=    9.246  UPPER_BOUND=   11.225
INTER + INTRA:          -6.948
INTER:                  -6.948
INTRA:                   0.000
UNBOUND:                 0.000

$$$$

     RDKit          3D

 68 69  0  0  0  0  0  0  0  0999 V2000
   46.7176    8.6746   21.2325 O   0  0  0  0  0  0  0  0  0  0  0  0
   47.6511    8.2155   20.3647 C   0  0  0  0  0  0  0  0  0  0  0  0
   47.9994    6.7536   20.6216 C   0  0  2  0  0  0  0  0  0  0  0  0
   48.6045    6.1499   19.3511 C   0  0  2  0  0  0  0  0  0  0  0  0
   48.9139    4.6849   19.6218 C   0  0  0  0  0  0  0  0  0  0  0  0
   48.0798    3.8385   18.9753 O   0  0  0  0  0  0  0  0  0  0  0  0
   48.1326    8.9513   19.5161 O   0  0  0  0  0  0  0  0  0  0  0  0
   49.8173    6.8192   18.9790 O   0  0  0  0  0  0  0  0  0  0  0  0
   46.8090    6.0567   21.0075 O   0  0  0  0  0  0  0  0  0  0  0  0
   49.8093    4.2394   20.3273 O   0  0  0  0  0  0  0  0  0  0  0  0
   47.5807    8.0387   20.3674 N   0  0  0  0  0  0  0  0  0  0  0  0
   47.4669    8.9125   21.5269 C   0  0  0  0  0  0  0  0  0  0  0  0
   47.2116   10.2870   21.0759 C   0  0  0  0  0  0  0  0  0  0  0  0
   47.0006   11.4099   20.7042 C   0  0  0  0  0  0  0  0  0  0  0  0
   47.7986    6.6457   20.7374 C   0  0  2  0  0  0  0  0  0  0  0  0
   49.1775    6.3631   21.3772 C   0  0  0  0  0  0  0  0  0  0  0  0
   49.5065    4.8968   21.0608 C   0  0  0  0  0  0  0  0  0  0  0  0
   48.8338    4.7344   19.7341 C   0  0  0  0  0  0  0  0  0  0  0  0
   47.8655    5.7294   19.5422 C   0  0  0  0  0  0  0  0  0  0  0  0
   47.0844    5.7453   18.3964 C   0  0  0  0  0  0  0  0  0  0  0  0
   49.0415    3.7433   18.7894 C   0  0  0  0  0  0  0  0  0  0  0  0
   48.2681    3.7648   17.6268 C   0  0  0  0  0  0  0  0  0  0  0  0
   47.2968    4.7590   17.4310 C   0  0  0  0  0  0  0  0  0  0  0  0
   47.3747    7.9703   20.1973 N   0  0  0  0  0  0  0  0  0  0  0  0
   47.2546    9.0380   21.1808 C   0  0  0  0  0  0  0  0  0  0  0  0
   46.8802   10.2858   20.5023 C   0  0  0  0  0  0  0  0  0  0  0  0
   46.5763   11.3071   19.9474 C   0  0  0  0  0  0  0  0  0  0  0  0
   47.7238    6.6909   20.8035 C   0  0  2  0  0  0  0  0  0  0  0  0
   49.1499    6.6425   21.3992 C   0  0  0  0  0  0  0  0  0  0  0  0
   49.5938    5.1741   21.3360 C   0  0  0  0  0  0  0  0  0  0  0  0
   48.8781    4.7130   20.1057 C   0  0  0  0  0  0  0  0  0  0  0  0
   47.8170    5.5740   19.7952 C   0  0  0  0  0  0  0  0  0  0  0  0
   46.9848    5.3114   18.7173 C   0  0  0  0  0  0  0  0  0  0  0  0
   49.1297    3.5818   19.3473 C   0  0  0  0  0  0  0  0  0  0  0  0
   48.3047    3.3227   18.2505 C   0  0  0  0  0  0  0  0  0  0  0  0
   47.2393    4.1812   17.9375 C   0  0  0  0  0  0  0  0  0  0  0  0
   46.5834    9.6141   20.9769 H   0  0  0  0  0  0  0  0  0  0  0  0
   48.7115    6.7244   21.4532 H   0  0  0  0  0  0  0  0  0  0  0  0
   47.9124    6.2116   18.5030 H   0  0  0  0  0  0  0  0  0  0  0  0
   48.3973    2.9524   19.2491 H   0  0  0  0  0  0  0  0  0  0  0  0
   49.5675    7.7191   18.6855 H   0  0  0  0  0  0  0  0  0  0  0  0
   46.3807    6.6138   21.6894 H   0  0  0  0  0  0  0  0  0  0  0  0
   48.3512    8.3576   19.7821 H   0  0  0  0  0  0  0  0  0  0  0  0
   46.6434    8.5868   22.1738 H   0  0  0  0  0  0  0  0  0  0  0  0
   48.3885    8.8967   22.1194 H   0  0  0  0  0  0  0  0  0  0  0  0
   46.8053   12.4025   20.3688 H   0  0  0  0  0  0  0  0  0  0  0  0
   46.9940    6.2849   21.3912 H   0  0  0  0  0  0  0  0  0  0  0  0
   49.1871    6.5627   22.4541 H   0  0  0  0  0  0  0  0  0  0  0  0
   49.9492    7.0022   20.9231 H   0  0  0  0  0  0  0  0  0  0  0  0
   50.5863    4.7334   21.0076 H   0  0  0  0  0  0  0  0  0  0  0  0
   49.0588    4.2197   21.7953 H   0  0  0  0  0  0  0  0  0  0  0  0
   46.3247    6.5083   18.2548 H   0  0  0  0  0  0  0  0  0  0  0  0
   49.7829    2.9660   18.9426 H   0  0  0  0  0  0  0  0  0  0  0  0
   48.4129    2.9998   16.8681 H   0  0  0  0  0  0  0  0  0  0  0  0
   46.7003    4.7575   16.5222 H   0  0  0  0  0  0  0  0  0  0  0  0
   48.0837    8.2231   19.5105 H   0  0  0  0  0  0  0  0  0  0  0  0
   48.1998    9.1946   21.7127 H   0  0  0  0  0  0  0  0  0  0  0  0
   46.4877    8.7861   21.9223 H   0  0  0  0  0  0  0  0  0  0  0  0
   46.3016   12.2087   19.4506 H   0  0  0  0  0  0  0  0  0  0  0  0
   46.9807    6.3970   21.5565 H   0  0  0  0  0  0  0  0  0  0  0  0
   49.8388    7.2456   20.7895 H   0  0  0  0  0  0  0  0  0  0  0  0
   49.1918    7.0405   22.4185 H   0  0  0  0  0  0  0  0  0  0  0  0
   50.6805    5.0884   21.2470 H   0  0  0  0  0  0  0  0  0  0  0  0
   49.2418    4.6146   22.2084 H   0  0  0  0  0  0  0  0  0  0  0  0
   46.1543    5.9713   18.4854 H   0  0  0  0  0  0  0  0  0  0  0  0
   49.9460    2.9106   19.5941 H   0  0  0  0  0  0  0  0  0  0  0  0
   48.4860    2.4452   17.6348 H   0  0  0  0  0  0  0  0  0  0  0  0
   46.6035    3.9618   17.0834 H   0  0  0  0  0  0  0  0  0  0  0  0
  1  2  1  0
  2  3  1  0
  3  4  1  0
  4  5  1  0
  5  6  1  0
  2  7  2  0
  4  8  1  0
  3  9  1  0
  5 10  2  0
 12 11  1  0
 15 11  1  0
 12 13  1  0
 13 14  3  0
 16 15  1  0
 19 15  1  0
 16 17  1  0
 17 18  1  0
 18 19  2  0
 18 21  1  0
 20 19  1  0
 23 20  2  0
 21 22  2  0
 22 23  1  0
 25 24  1  0
 28 24  1  0
 25 26  1  0
 26 27  3  0
 29 28  1  0
 32 28  1  0
 29 30  1  0
 30 31  1  0
 31 32  2  0
 31 34  1  0
 33 32  1  0
 36 33  2  0
 34 35  2  0
 35 36  1  0
  1 37  1  0
  3 38  1  1
  4 39  1  6
  6 40  1  0
  8 41  1  0
  9 42  1  0
 11 43  1  0
 12 44  1  0
 12 45  1  0
 14 46  1  0
 15 47  1  1
 16 48  1  0
 16 49  1  0
 17 50  1  0
 17 51  1  0
 20 52  1  0
 21 53  1  0
 22 54  1  0
 23 55  1  0
 24 56  1  0
 25 57  1  0
 25 58  1  0
 27 59  1  0
 28 60  1  1
 29 61  1  0
 29 62  1  0
 30 63  1  0
 30 64  1  0
 33 65  1  0
 34 66  1  0
 35 67  1  0
 36 68  1  0
M  END
> <Uni-Dock RESULT> 
ENERGY=   -6.839  LOWER_BOUND=    8.256  UPPER_BOUND=   10.066
INTER + INTRA:          -6.839
INTER:                  -6.839
INTRA:                   0.000
UNBOUND:                 0.000

$$$$

     RDKit          3D

 68 69  0  0  0  0  0  0  0  0999 V2000
   46.6483   12.1928   18.7059 O   0  0  0  0  0  0  0  0  0  0  0  0
   47.6935   11.3964   19.0355 C   0  0  0  0  0  0  0  0  0  0  0  0
   47.3298   10.4022   20.1325 C   0  0  2  0  0  0  0  0  0  0  0  0
   48.3068    9.2239   20.0875 C   0  0  2  0  0  0  0  0  0  0  0  0
   47.9049    8.2318   21.1689 C   0  0  0  0  0  0  0  0  0  0  0  0
   47.3608    7.0973   20.6720 O   0  0  0  0  0  0  0  0  0  0  0  0
   48.7797   11.5326   18.4926 O   0  0  0  0  0  0  0  0  0  0  0  0
   49.6547    9.6512   20.3276 O   0  0  0  0  0  0  0  0  0  0  0  0
   45.9819    9.9627   19.9287 O   0  0  0  0  0  0  0  0  0  0  0  0
   48.0363    8.3672   22.3782 O   0  0  0  0  0  0  0  0  0  0  0  0
   47.5804   11.2496   19.0787 N   0  0  0  0  0  0  0  0  0  0  0  0
   47.1268   12.6234   19.2446 C   0  0  0  0  0  0  0  0  0  0  0  0
   47.6416   13.4417   18.1386 C   0  0  0  0  0  0  0  0  0  0  0  0
   48.0623   14.1080   17.2315 C   0  0  0  0  0  0  0  0  0  0  0  0
   47.0770   10.3656   20.1227 C   0  0  2  0  0  0  0  0  0  0  0  0
   47.6648   10.6362   21.5270 C   0  0  0  0  0  0  0  0  0  0  0  0
   47.6093    9.3000   22.2817 C   0  0  0  0  0  0  0  0  0  0  0  0
   47.7972    8.3304   21.1576 C   0  0  0  0  0  0  0  0  0  0  0  0
   47.5014    8.9324   19.9269 C   0  0  0  0  0  0  0  0  0  0  0  0
   47.5637    8.2030   18.7490 C   0  0  0  0  0  0  0  0  0  0  0  0
   48.1618    6.9967   21.2350 C   0  0  0  0  0  0  0  0  0  0  0  0
   48.2413    6.2625   20.0497 C   0  0  0  0  0  0  0  0  0  0  0  0
   47.9452    6.8613   18.8152 C   0  0  0  0  0  0  0  0  0  0  0  0
   47.4983   11.0764   18.8805 N   0  0  0  0  0  0  0  0  0  0  0  0
   47.2033   12.5024   18.8445 C   0  0  0  0  0  0  0  0  0  0  0  0
   47.7150   13.0745   17.5922 C   0  0  0  0  0  0  0  0  0  0  0  0
   48.1354   13.5432   16.5690 C   0  0  0  0  0  0  0  0  0  0  0  0
   46.9980   10.4342   20.0902 C   0  0  2  0  0  0  0  0  0  0  0  0
   47.7236   10.8714   21.3837 C   0  0  0  0  0  0  0  0  0  0  0  0
   47.6111    9.6924   22.3607 C   0  0  0  0  0  0  0  0  0  0  0  0
   47.6135    8.5354   21.4120 C   0  0  0  0  0  0  0  0  0  0  0  0
   47.2705    8.9516   20.1188 C   0  0  0  0  0  0  0  0  0  0  0  0
   47.1641    8.0336   19.0848 C   0  0  0  0  0  0  0  0  0  0  0  0
   47.8598    7.2022   21.6951 C   0  0  0  0  0  0  0  0  0  0  0  0
   47.7706    6.2765   20.6531 C   0  0  0  0  0  0  0  0  0  0  0  0
   47.4250    6.6889   19.3567 C   0  0  0  0  0  0  0  0  0  0  0  0
   47.0008   12.7866   18.0065 H   0  0  0  0  0  0  0  0  0  0  0  0
   47.3885   10.9303   21.0903 H   0  0  0  0  0  0  0  0  0  0  0  0
   48.2832    8.7140   19.1172 H   0  0  0  0  0  0  0  0  0  0  0  0
   47.1541    6.5734   21.4744 H   0  0  0  0  0  0  0  0  0  0  0  0
   49.9284   10.1806   19.5509 H   0  0  0  0  0  0  0  0  0  0  0  0
   45.4561   10.7735   19.7705 H   0  0  0  0  0  0  0  0  0  0  0  0
   48.5991   11.2306   19.0818 H   0  0  0  0  0  0  0  0  0  0  0  0
   46.0310   12.6685   19.2462 H   0  0  0  0  0  0  0  0  0  0  0  0
   47.4835   13.0404   20.1930 H   0  0  0  0  0  0  0  0  0  0  0  0
   48.4313   14.6922   16.4202 H   0  0  0  0  0  0  0  0  0  0  0  0
   45.9801   10.3881   20.1580 H   0  0  0  0  0  0  0  0  0  0  0  0
   47.1290   11.4302   22.0581 H   0  0  0  0  0  0  0  0  0  0  0  0
   48.7157   10.9520   21.4485 H   0  0  0  0  0  0  0  0  0  0  0  0
   48.4021    9.2330   23.0318 H   0  0  0  0  0  0  0  0  0  0  0  0
   46.6324    9.1470   22.7514 H   0  0  0  0  0  0  0  0  0  0  0  0
   47.3208    8.6662   17.7974 H   0  0  0  0  0  0  0  0  0  0  0  0
   48.3796    6.5270   22.1886 H   0  0  0  0  0  0  0  0  0  0  0  0
   48.5277    5.2143   20.0823 H   0  0  0  0  0  0  0  0  0  0  0  0
   48.0075    6.2735   17.9029 H   0  0  0  0  0  0  0  0  0  0  0  0
   48.5061   10.9392   18.8175 H   0  0  0  0  0  0  0  0  0  0  0  0
   47.6688   13.0245   19.6879 H   0  0  0  0  0  0  0  0  0  0  0  0
   46.1212   12.6673   18.9011 H   0  0  0  0  0  0  0  0  0  0  0  0
   48.5057   13.9524   15.6576 H   0  0  0  0  0  0  0  0  0  0  0  0
   45.9134   10.5742   20.1897 H   0  0  0  0  0  0  0  0  0  0  0  0
   48.7879   11.0596   21.1793 H   0  0  0  0  0  0  0  0  0  0  0  0
   47.3101   11.7941   21.8045 H   0  0  0  0  0  0  0  0  0  0  0  0
   48.4548    9.6675   23.0561 H   0  0  0  0  0  0  0  0  0  0  0  0
   46.6673    9.7236   22.9142 H   0  0  0  0  0  0  0  0  0  0  0  0
   46.8846    8.3546   18.0858 H   0  0  0  0  0  0  0  0  0  0  0  0
   48.1163    6.8796   22.6990 H   0  0  0  0  0  0  0  0  0  0  0  0
   47.9667    5.2251   20.8477 H   0  0  0  0  0  0  0  0  0  0  0  0
   47.3547    5.9544   18.5584 H   0  0  0  0  0  0  0  0  0  0  0  0
  1  2  1  0
  2  3  1  0
  3  4  1  0
  4  5  1  0
  5  6  1  0
  2  7  2  0
  4  8  1  0
  3  9  1  0
  5 10  2  0
 12 11  1  0
 15 11  1  0
 12 13  1  0
 13 14  3  0
 16 15  1  0
 19 15  1  0
 16 17  1  0
 17 18  1  0
 18 19  2  0
 18 21  1  0
 20 19  1  0
 23 20  2  0
 21 22  2  0
 22 23  1  0
 25 24  1  0
 28 24  1  0
 25 26  1  0
 26 27  3  0
 29 28  1  0
 32 28  1  0
 29 30  1  0
 30 31  1  0
 31 32  2  0
 31 34  1  0
 33 32  1  0
 36 33  2  0
 34 35  2  0
 35 36  1  0
  1 37  1  0
  3 38  1  1
  4 39  1  6
  6 40  1  0
  8 41  1  0
  9 42  1  0
 11 43  1  0
 12 44  1  0
 12 45  1  0
 14 46  1  0
 15 47  1  1
 16 48  1  0
 16 49  1  0
 17 50  1  0
 17 51  1  0
 20 52  1  0
 21 53  1  0
 22 54  1  0
 23 55  1  0
 24 56  1  0
 25 57  1  0
 25 58  1  0
 27 59  1  0
 28 60  1  1
 29 61  1  0
 29 62  1  0
 30 63  1  0
 30 64  1  0
 33 65  1  0
 34 66  1  0
 35 67  1  0
 36 68  1  0
M  END
> <Uni-Dock RESULT> 
ENERGY=   -6.701  LOWER_BOUND=    9.545  UPPER_BOUND=   11.079
INTER + INTRA:          -6.701
INTER:                  -6.701
INTRA:                   0.000
UNBOUND:                 0.000

$$$$
