
     RDKit          3D

 68 69  0  0  0  0  0  0  0  0999 V2000
   45.7005    6.5378   12.5367 O   0  0  0  0  0  0  0  0  0  0  0  0
   44.8949    6.5013   11.4609 C   0  0  0  0  0  0  0  0  0  0  0  0
   43.7575    5.4939   11.5711 C   0  0  2  0  0  0  0  0  0  0  0  0
   44.2472    4.1068   11.9844 C   0  0  2  0  0  0  0  0  0  0  0  0
   45.2354    3.5724   10.9488 C   0  0  0  0  0  0  0  0  0  0  0  0
   44.7336    2.5711   10.1940 O   0  0  0  0  0  0  0  0  0  0  0  0
   45.0544    7.2754   10.5284 O   0  0  0  0  0  0  0  0  0  0  0  0
   43.1192    3.2401   12.1657 O   0  0  0  0  0  0  0  0  0  0  0  0
   43.0129    5.3956   10.3462 O   0  0  0  0  0  0  0  0  0  0  0  0
   46.3692    3.9830   10.7552 O   0  0  0  0  0  0  0  0  0  0  0  0
   44.1873    6.4362   12.2861 N   0  0  0  0  0  0  0  0  0  0  0  0
   45.5842    6.4015   12.7031 C   0  0  0  0  0  0  0  0  0  0  0  0
   46.0122    7.7664   13.0478 C   0  0  0  0  0  0  0  0  0  0  0  0
   46.3619    8.8805   13.3295 C   0  0  0  0  0  0  0  0  0  0  0  0
   43.6316    5.1655   11.8328 C   0  0  2  0  0  0  0  0  0  0  0  0
   43.6397    4.0046   12.8528 C   0  0  0  0  0  0  0  0  0  0  0  0
   43.5344    2.7162   12.0209 C   0  0  0  0  0  0  0  0  0  0  0  0
   44.2391    3.1217   10.7624 C   0  0  0  0  0  0  0  0  0  0  0  0
   44.2968    4.5181   10.6479 C   0  0  0  0  0  0  0  0  0  0  0  0
   44.8419    5.1146    9.5211 C   0  0  0  0  0  0  0  0  0  0  0  0
   44.7390    2.2999    9.7661 C   0  0  0  0  0  0  0  0  0  0  0  0
   45.3119    2.8964    8.6408 C   0  0  0  0  0  0  0  0  0  0  0  0
   45.3615    4.2938    8.5180 C   0  0  0  0  0  0  0  0  0  0  0  0
   45.4817    5.4779   12.8439 N   0  0  0  0  0  0  0  0  0  0  0  0
   46.4094    6.4763   12.3221 C   0  0  0  0  0  0  0  0  0  0  0  0
   45.9071    7.8445   12.5038 C   0  0  0  0  0  0  0  0  0  0  0  0
   45.4989    8.9646   12.6519 C   0  0  0  0  0  0  0  0  0  0  0  0
   44.2367    5.3607   12.0786 C   0  0  2  0  0  0  0  0  0  0  0  0
   43.2413    4.4698   12.8613 C   0  0  0  0  0  0  0  0  0  0  0  0
   43.5359    3.0163   12.4644 C   0  0  0  0  0  0  0  0  0  0  0  0
   43.9983    3.2032   11.0532 C   0  0  0  0  0  0  0  0  0  0  0  0
   44.3848    4.5322   10.8265 C   0  0  0  0  0  0  0  0  0  0  0  0
   44.8348    4.9333    9.5777 C   0  0  0  0  0  0  0  0  0  0  0  0
   44.0852    2.2489   10.0536 C   0  0  0  0  0  0  0  0  0  0  0  0
   44.5464    2.6469    8.7974 C   0  0  0  0  0  0  0  0  0  0  0  0
   44.9143    3.9802    8.5597 C   0  0  0  0  0  0  0  0  0  0  0  0
   46.3883    7.2005   12.3090 H   0  0  0  0  0  0  0  0  0  0  0  0
   43.0523    5.8762   12.3179 H   0  0  0  0  0  0  0  0  0  0  0  0
   44.7719    4.1332   12.9453 H   0  0  0  0  0  0  0  0  0  0  0  0
   45.4603    2.3383    9.5794 H   0  0  0  0  0  0  0  0  0  0  0  0
   42.7363    3.1403   11.2703 H   0  0  0  0  0  0  0  0  0  0  0  0
   42.9912    6.2955    9.9638 H   0  0  0  0  0  0  0  0  0  0  0  0
   43.6306    6.7848   13.0638 H   0  0  0  0  0  0  0  0  0  0  0  0
   46.2341    6.0221   11.9083 H   0  0  0  0  0  0  0  0  0  0  0  0
   45.7212    5.7661   13.5835 H   0  0  0  0  0  0  0  0  0  0  0  0
   46.6689    9.8714   13.5722 H   0  0  0  0  0  0  0  0  0  0  0  0
   42.5900    5.3544   11.5396 H   0  0  0  0  0  0  0  0  0  0  0  0
   44.5808    3.9652   13.4146 H   0  0  0  0  0  0  0  0  0  0  0  0
   42.8319    4.0908   13.5868 H   0  0  0  0  0  0  0  0  0  0  0  0
   42.4901    2.4681   11.8049 H   0  0  0  0  0  0  0  0  0  0  0  0
   44.0239    1.8766   12.5222 H   0  0  0  0  0  0  0  0  0  0  0  0
   44.8646    6.1959    9.4224 H   0  0  0  0  0  0  0  0  0  0  0  0
   44.6847    1.2192    9.8496 H   0  0  0  0  0  0  0  0  0  0  0  0
   45.7145    2.2737    7.8457 H   0  0  0  0  0  0  0  0  0  0  0  0
   45.8009    4.7414    7.6299 H   0  0  0  0  0  0  0  0  0  0  0  0
   45.9478    4.5721   12.8422 H   0  0  0  0  0  0  0  0  0  0  0  0
   47.3484    6.3819   12.8803 H   0  0  0  0  0  0  0  0  0  0  0  0
   46.6635    6.2890   11.2745 H   0  0  0  0  0  0  0  0  0  0  0  0
   45.1330    9.9555   12.7904 H   0  0  0  0  0  0  0  0  0  0  0  0
   43.7644    6.3285   11.8790 H   0  0  0  0  0  0  0  0  0  0  0  0
   42.2178    4.7242   12.5482 H   0  0  0  0  0  0  0  0  0  0  0  0
   43.2803    4.6198   13.9461 H   0  0  0  0  0  0  0  0  0  0  0  0
   44.3372    2.5868   13.0740 H   0  0  0  0  0  0  0  0  0  0  0  0
   42.6378    2.3960   12.5319 H   0  0  0  0  0  0  0  0  0  0  0  0
   45.1177    5.9640    9.3885 H   0  0  0  0  0  0  0  0  0  0  0  0
   43.7963    1.2186   10.2348 H   0  0  0  0  0  0  0  0  0  0  0  0
   44.6178    1.9184    7.9933 H   0  0  0  0  0  0  0  0  0  0  0  0
   45.2652    4.2727    7.5728 H   0  0  0  0  0  0  0  0  0  0  0  0
  1  2  1  0
  2  3  1  0
  3  4  1  0
  4  5  1  0
  5  6  1  0
  2  7  2  0
  4  8  1  0
  3  9  1  0
  5 10  2  0
 12 11  1  0
 15 11  1  0
 12 13  1  0
 13 14  3  0
 16 15  1  0
 19 15  1  0
 16 17  1  0
 17 18  1  0
 18 19  2  0
 18 21  1  0
 20 19  1  0
 23 20  2  0
 21 22  2  0
 22 23  1  0
 25 24  1  0
 28 24  1  0
 25 26  1  0
 26 27  3  0
 29 28  1  0
 32 28  1  0
 29 30  1  0
 30 31  1  0
 31 32  2  0
 31 34  1  0
 33 32  1  0
 36 33  2  0
 34 35  2  0
 35 36  1  0
  1 37  1  0
  3 38  1  1
  4 39  1  6
  6 40  1  0
  8 41  1  0
  9 42  1  0
 11 43  1  0
 12 44  1  0
 12 45  1  0
 14 46  1  0
 15 47  1  1
 16 48  1  0
 16 49  1  0
 17 50  1  0
 17 51  1  0
 20 52  1  0
 21 53  1  0
 22 54  1  0
 23 55  1  0
 24 56  1  0
 25 57  1  0
 25 58  1  0
 27 59  1  0
 28 60  1  1
 29 61  1  0
 29 62  1  0
 30 63  1  0
 30 64  1  0
 33 65  1  0
 34 66  1  0
 35 67  1  0
 36 68  1  0
M  END
> <Uni-Dock RESULT> 
ENERGY=   -8.889  LOWER_BOUND=    0.000  UPPER_BOUND=    0.000
INTER + INTRA:          -8.889
INTER:                  -8.889
INTRA:                   0.000
UNBOUND:                 0.000

$$$$

     RDKit          3D

 68 69  0  0  0  0  0  0  0  0999 V2000
   45.3269    5.3620    9.9523 O   0  0  0  0  0  0  0  0  0  0  0  0
   45.2751    5.1410   11.2775 C   0  0  0  0  0  0  0  0  0  0  0  0
   44.7038    6.3038   12.0787 C   0  0  2  0  0  0  0  0  0  0  0  0
   45.3722    7.6333   11.7315 C   0  0  2  0  0  0  0  0  0  0  0  0
   46.8684    7.5593   12.0322 C   0  0  0  0  0  0  0  0  0  0  0  0
   47.2356    8.2821   13.1125 O   0  0  0  0  0  0  0  0  0  0  0  0
   45.6012    4.0614   11.7489 O   0  0  0  0  0  0  0  0  0  0  0  0
   44.7202    8.6927   12.4450 O   0  0  0  0  0  0  0  0  0  0  0  0
   44.7991    6.0730   13.4937 O   0  0  0  0  0  0  0  0  0  0  0  0
   47.6970    6.9101   11.4130 O   0  0  0  0  0  0  0  0  0  0  0  0
   44.3230    5.6331   11.0843 N   0  0  0  0  0  0  0  0  0  0  0  0
   45.2001    5.5687    9.9212 C   0  0  0  0  0  0  0  0  0  0  0  0
   44.8564    4.3759    9.1312 C   0  0  0  0  0  0  0  0  0  0  0  0
   44.5761    3.4022    8.4860 C   0  0  0  0  0  0  0  0  0  0  0  0
   44.5899    6.7228   12.0173 C   0  0  2  0  0  0  0  0  0  0  0  0
   44.4887    8.1572   11.4514 C   0  0  0  0  0  0  0  0  0  0  0  0
   45.3070    9.0419   12.4058 C   0  0  0  0  0  0  0  0  0  0  0  0
   46.3581    8.0796   12.8685 C   0  0  0  0  0  0  0  0  0  0  0  0
   45.9548    6.7543   12.6512 C   0  0  0  0  0  0  0  0  0  0  0  0
   46.7446    5.6953   13.0724 C   0  0  0  0  0  0  0  0  0  0  0  0
   47.5604    8.3697   13.4914 C   0  0  0  0  0  0  0  0  0  0  0  0
   48.3710    7.3063   13.8946 C   0  0  0  0  0  0  0  0  0  0  0  0
   47.9654    5.9784   13.6883 C   0  0  0  0  0  0  0  0  0  0  0  0
   45.3832    6.4810   10.0538 N   0  0  0  0  0  0  0  0  0  0  0  0
   46.0091    5.2113    9.6988 C   0  0  0  0  0  0  0  0  0  0  0  0
   45.0290    4.1219    9.5990 C   0  0  0  0  0  0  0  0  0  0  0  0
   44.2294    3.2292    9.5160 C   0  0  0  0  0  0  0  0  0  0  0  0
   44.8596    6.5274   11.4224 C   0  0  2  0  0  0  0  0  0  0  0  0
   44.0069    7.8079   11.5968 C   0  0  0  0  0  0  0  0  0  0  0  0
   44.9689    8.9326   12.0051 C   0  0  0  0  0  0  0  0  0  0  0  0
   45.9912    8.1563   12.7751 C   0  0  0  0  0  0  0  0  0  0  0  0
   45.9250    6.7918   12.4573 C   0  0  0  0  0  0  0  0  0  0  0  0
   46.7756    5.8828   13.0683 C   0  0  0  0  0  0  0  0  0  0  0  0
   46.9239    8.6400   13.6770 C   0  0  0  0  0  0  0  0  0  0  0  0
   47.7881    7.7290   14.2874 C   0  0  0  0  0  0  0  0  0  0  0  0
   47.7117    6.3598   13.9887 C   0  0  0  0  0  0  0  0  0  0  0  0
   45.7364    4.5502    9.5814 H   0  0  0  0  0  0  0  0  0  0  0  0
   43.6317    6.3587   11.8579 H   0  0  0  0  0  0  0  0  0  0  0  0
   45.2699    7.8712   10.6674 H   0  0  0  0  0  0  0  0  0  0  0  0
   48.2015    8.1361   13.1895 H   0  0  0  0  0  0  0  0  0  0  0  0
   44.9249    8.5205   13.3867 H   0  0  0  0  0  0  0  0  0  0  0  0
   44.6537    5.1152   13.6271 H   0  0  0  0  0  0  0  0  0  0  0  0
   43.3620    5.7035   10.7559 H   0  0  0  0  0  0  0  0  0  0  0  0
   46.2532    5.5033   10.2120 H   0  0  0  0  0  0  0  0  0  0  0  0
   45.0801    6.4494    9.2828 H   0  0  0  0  0  0  0  0  0  0  0  0
   44.3277    2.5341    7.9206 H   0  0  0  0  0  0  0  0  0  0  0  0
   43.8675    6.6288   12.8394 H   0  0  0  0  0  0  0  0  0  0  0  0
   44.9396    8.2325   10.4545 H   0  0  0  0  0  0  0  0  0  0  0  0
   43.4513    8.4956   11.3602 H   0  0  0  0  0  0  0  0  0  0  0  0
   44.7012    9.3753   13.2547 H   0  0  0  0  0  0  0  0  0  0  0  0
   45.7306    9.9051   11.8848 H   0  0  0  0  0  0  0  0  0  0  0  0
   46.4205    4.6693   12.9253 H   0  0  0  0  0  0  0  0  0  0  0  0
   47.8677    9.3952   13.6694 H   0  0  0  0  0  0  0  0  0  0  0  0
   49.3213    7.5069   14.3830 H   0  0  0  0  0  0  0  0  0  0  0  0
   48.6036    5.1626   14.0188 H   0  0  0  0  0  0  0  0  0  0  0  0
   46.0738    7.2222    9.9474 H   0  0  0  0  0  0  0  0  0  0  0  0
   46.4803    5.3358    8.7165 H   0  0  0  0  0  0  0  0  0  0  0  0
   46.8174    4.9482   10.3876 H   0  0  0  0  0  0  0  0  0  0  0  0
   43.5144    2.4432    9.4397 H   0  0  0  0  0  0  0  0  0  0  0  0
   44.2462    5.6562   11.6757 H   0  0  0  0  0  0  0  0  0  0  0  0
   43.2851    7.6436   12.4105 H   0  0  0  0  0  0  0  0  0  0  0  0
   43.4197    8.0662   10.7084 H   0  0  0  0  0  0  0  0  0  0  0  0
   45.4286    9.4062   11.1319 H   0  0  0  0  0  0  0  0  0  0  0  0
   44.4644    9.6839   12.6189 H   0  0  0  0  0  0  0  0  0  0  0  0
   46.7181    4.8227   12.8425 H   0  0  0  0  0  0  0  0  0  0  0  0
   46.9806    9.6979   13.9125 H   0  0  0  0  0  0  0  0  0  0  0  0
   48.5252    8.0821   15.0044 H   0  0  0  0  0  0  0  0  0  0  0  0
   48.3890    5.6647   14.4791 H   0  0  0  0  0  0  0  0  0  0  0  0
  1  2  1  0
  2  3  1  0
  3  4  1  0
  4  5  1  0
  5  6  1  0
  2  7  2  0
  4  8  1  0
  3  9  1  0
  5 10  2  0
 12 11  1  0
 15 11  1  0
 12 13  1  0
 13 14  3  0
 16 15  1  0
 19 15  1  0
 16 17  1  0
 17 18  1  0
 18 19  2  0
 18 21  1  0
 20 19  1  0
 23 20  2  0
 21 22  2  0
 22 23  1  0
 25 24  1  0
 28 24  1  0
 25 26  1  0
 26 27  3  0
 29 28  1  0
 32 28  1  0
 29 30  1  0
 30 31  1  0
 31 32  2  0
 31 34  1  0
 33 32  1  0
 36 33  2  0
 34 35  2  0
 35 36  1  0
  1 37  1  0
  3 38  1  1
  4 39  1  6
  6 40  1  0
  8 41  1  0
  9 42  1  0
 11 43  1  0
 12 44  1  0
 12 45  1  0
 14 46  1  0
 15 47  1  1
 16 48  1  0
 16 49  1  0
 17 50  1  0
 17 51  1  0
 20 52  1  0
 21 53  1  0
 22 54  1  0
 23 55  1  0
 24 56  1  0
 25 57  1  0
 25 58  1  0
 27 59  1  0
 28 60  1  1
 29 61  1  0
 29 62  1  0
 30 63  1  0
 30 64  1  0
 33 65  1  0
 34 66  1  0
 35 67  1  0
 36 68  1  0
M  END
> <Uni-Dock RESULT> 
ENERGY=   -7.151  LOWER_BOUND=    1.542  UPPER_BOUND=    5.013
INTER + INTRA:          -7.151
INTER:                  -7.151
INTRA:                   0.000
UNBOUND:                 0.000

$$$$

     RDKit          3D

 68 69  0  0  0  0  0  0  0  0999 V2000
   47.9254    6.6947   19.0667 O   0  0  0  0  0  0  0  0  0  0  0  0
   48.8410    6.6294   18.0843 C   0  0  0  0  0  0  0  0  0  0  0  0
   48.5475    5.5678   17.0319 C   0  0  2  0  0  0  0  0  0  0  0  0
   48.2522    4.2020   17.6502 C   0  0  2  0  0  0  0  0  0  0  0  0
   49.4564    3.7249   18.4607 C   0  0  0  0  0  0  0  0  0  0  0  0
   50.1270    2.7075   17.8781 O   0  0  0  0  0  0  0  0  0  0  0  0
   49.7734    7.4185   18.0391 O   0  0  0  0  0  0  0  0  0  0  0  0
   47.8880    3.2807   16.6134 O   0  0  0  0  0  0  0  0  0  0  0  0
   49.6217    5.4449   16.0856 O   0  0  0  0  0  0  0  0  0  0  0  0
   49.8417    4.1910   19.5217 O   0  0  0  0  0  0  0  0  0  0  0  0
   47.9041    6.5231   17.5393 N   0  0  0  0  0  0  0  0  0  0  0  0
   47.7434    6.5515   18.9883 C   0  0  0  0  0  0  0  0  0  0  0  0
   47.4567    7.9322   19.4085 C   0  0  0  0  0  0  0  0  0  0  0  0
   47.2225    9.0592   19.7519 C   0  0  0  0  0  0  0  0  0  0  0  0
   48.2733    5.2313   16.9699 C   0  0  2  0  0  0  0  0  0  0  0  0
   47.2914    4.0631   17.2131 C   0  0  0  0  0  0  0  0  0  0  0  0
   48.1135    2.7786   17.0194 C   0  0  0  0  0  0  0  0  0  0  0  0
   49.4702    3.2287   17.4687 C   0  0  0  0  0  0  0  0  0  0  0  0
   49.5688    4.6272   17.4413 C   0  0  0  0  0  0  0  0  0  0  0  0
   50.7642    5.2592   17.7485 C   0  0  0  0  0  0  0  0  0  0  0  0
   50.5537    2.4407   17.8193 C   0  0  0  0  0  0  0  0  0  0  0  0
   51.7525    3.0741   18.1540 C   0  0  0  0  0  0  0  0  0  0  0  0
   51.8578    4.4733   18.1173 C   0  0  0  0  0  0  0  0  0  0  0  0
   47.6026    5.6228   18.9548 N   0  0  0  0  0  0  0  0  0  0  0  0
   48.2639    6.6692   19.7278 C   0  0  0  0  0  0  0  0  0  0  0  0
   47.9718    8.0101   19.2044 C   0  0  0  0  0  0  0  0  0  0  0  0
   47.7340    9.1080   18.7787 C   0  0  0  0  0  0  0  0  0  0  0  0
   48.1358    5.4531   17.5997 C   0  0  2  0  0  0  0  0  0  0  0  0
   47.2039    4.5085   16.8018 C   0  0  0  0  0  0  0  0  0  0  0  0
   47.6722    3.0744   17.0865 C   0  0  0  0  0  0  0  0  0  0  0  0
   49.1398    3.2959   17.2802 C   0  0  0  0  0  0  0  0  0  0  0  0
   49.4085    4.6440   17.5591 C   0  0  0  0  0  0  0  0  0  0  0  0
   50.7104    5.0773   17.7599 C   0  0  0  0  0  0  0  0  0  0  0  0
   50.1553    2.3559   17.2304 C   0  0  0  0  0  0  0  0  0  0  0  0
   51.4665    2.7868   17.4410 C   0  0  0  0  0  0  0  0  0  0  0  0
   51.7427    4.1383   17.6995 C   0  0  0  0  0  0  0  0  0  0  0  0
   48.2604    7.3917   19.6718 H   0  0  0  0  0  0  0  0  0  0  0  0
   47.6805    5.9091   16.4549 H   0  0  0  0  0  0  0  0  0  0  0  0
   47.3998    4.2449   18.3364 H   0  0  0  0  0  0  0  0  0  0  0  0
   50.8653    2.5153   18.4931 H   0  0  0  0  0  0  0  0  0  0  0  0
   48.7024    3.1707   16.0815 H   0  0  0  0  0  0  0  0  0  0  0  0
   49.9783    6.3462   15.9549 H   0  0  0  0  0  0  0  0  0  0  0  0
   47.0338    6.8376   17.1153 H   0  0  0  0  0  0  0  0  0  0  0  0
   48.6477    6.2109   19.5023 H   0  0  0  0  0  0  0  0  0  0  0  0
   46.9126    5.9155   19.3093 H   0  0  0  0  0  0  0  0  0  0  0  0
   47.0212   10.0614   20.0519 H   0  0  0  0  0  0  0  0  0  0  0  0
   48.3729    5.3728   15.8851 H   0  0  0  0  0  0  0  0  0  0  0  0
   46.9070    4.0637   18.2402 H   0  0  0  0  0  0  0  0  0  0  0  0
   46.4238    4.1038   16.5463 H   0  0  0  0  0  0  0  0  0  0  0  0
   48.1443    2.4827   15.9658 H   0  0  0  0  0  0  0  0  0  0  0  0
   47.7221    1.9589   17.6283 H   0  0  0  0  0  0  0  0  0  0  0  0
   50.8465    6.3412   17.7039 H   0  0  0  0  0  0  0  0  0  0  0  0
   50.4807    1.3580   17.8299 H   0  0  0  0  0  0  0  0  0  0  0  0
   52.6173    2.4786   18.4360 H   0  0  0  0  0  0  0  0  0  0  0  0
   52.8021    4.9494   18.3700 H   0  0  0  0  0  0  0  0  0  0  0  0
   47.7031    4.7405   19.4538 H   0  0  0  0  0  0  0  0  0  0  0  0
   47.8836    6.6149   20.7549 H   0  0  0  0  0  0  0  0  0  0  0  0
   49.3431    6.5037   19.7988 H   0  0  0  0  0  0  0  0  0  0  0  0
   47.5152   10.0789   18.3987 H   0  0  0  0  0  0  0  0  0  0  0  0
   48.2312    6.3989   17.0558 H   0  0  0  0  0  0  0  0  0  0  0  0
   47.3252    4.7165   15.7284 H   0  0  0  0  0  0  0  0  0  0  0  0
   46.1410    4.6505   17.0272 H   0  0  0  0  0  0  0  0  0  0  0  0
   47.2227    2.6783   18.0026 H   0  0  0  0  0  0  0  0  0  0  0  0
   47.4566    2.4113   16.2441 H   0  0  0  0  0  0  0  0  0  0  0  0
   50.9289    6.1220   17.9572 H   0  0  0  0  0  0  0  0  0  0  0  0
   49.9434    1.3113   17.0257 H   0  0  0  0  0  0  0  0  0  0  0  0
   52.2829    2.0698   17.4006 H   0  0  0  0  0  0  0  0  0  0  0  0
   52.7710    4.4561   17.8545 H   0  0  0  0  0  0  0  0  0  0  0  0
  1  2  1  0
  2  3  1  0
  3  4  1  0
  4  5  1  0
  5  6  1  0
  2  7  2  0
  4  8  1  0
  3  9  1  0
  5 10  2  0
 12 11  1  0
 15 11  1  0
 12 13  1  0
 13 14  3  0
 16 15  1  0
 19 15  1  0
 16 17  1  0
 17 18  1  0
 18 19  2  0
 18 21  1  0
 20 19  1  0
 23 20  2  0
 21 22  2  0
 22 23  1  0
 25 24  1  0
 28 24  1  0
 25 26  1  0
 26 27  3  0
 29 28  1  0
 32 28  1  0
 29 30  1  0
 30 31  1  0
 31 32  2  0
 31 34  1  0
 33 32  1  0
 36 33  2  0
 34 35  2  0
 35 36  1  0
  1 37  1  0
  3 38  1  1
  4 39  1  6
  6 40  1  0
  8 41  1  0
  9 42  1  0
 11 43  1  0
 12 44  1  0
 12 45  1  0
 14 46  1  0
 15 47  1  1
 16 48  1  0
 16 49  1  0
 17 50  1  0
 17 51  1  0
 20 52  1  0
 21 53  1  0
 22 54  1  0
 23 55  1  0
 24 56  1  0
 25 57  1  0
 25 58  1  0
 27 59  1  0
 28 60  1  1
 29 61  1  0
 29 62  1  0
 30 63  1  0
 30 64  1  0
 33 65  1  0
 34 66  1  0
 35 67  1  0
 36 68  1  0
M  END
> <Uni-Dock RESULT> 
ENERGY=   -6.756  LOWER_BOUND=    6.653  UPPER_BOUND=    8.256
INTER + INTRA:          -6.756
INTER:                  -6.756
INTRA:                   0.000
UNBOUND:                 0.000

$$$$

     RDKit          3D

 68 69  0  0  0  0  0  0  0  0999 V2000
   49.7126    5.0304   18.9859 O   0  0  0  0  0  0  0  0  0  0  0  0
   48.5662    4.7703   19.6384 C   0  0  0  0  0  0  0  0  0  0  0  0
   47.5756    5.9276   19.6381 C   0  0  2  0  0  0  0  0  0  0  0  0
   48.2168    7.2421   20.0803 C   0  0  2  0  0  0  0  0  0  0  0  0
   48.7621    7.1046   21.5010 C   0  0  0  0  0  0  0  0  0  0  0  0
   48.0400    7.7796   22.4214 O   0  0  0  0  0  0  0  0  0  0  0  0
   48.3492    3.6655   20.1141 O   0  0  0  0  0  0  0  0  0  0  0  0
   47.2580    8.3017   19.9602 O   0  0  0  0  0  0  0  0  0  0  0  0
   46.4318    5.6496   20.4621 O   0  0  0  0  0  0  0  0  0  0  0  0
   49.7327    6.4453   21.8400 O   0  0  0  0  0  0  0  0  0  0  0  0
   48.2175    5.3024   18.7544 N   0  0  0  0  0  0  0  0  0  0  0  0
   49.6697    5.2425   18.8720 C   0  0  0  0  0  0  0  0  0  0  0  0
   50.1623    4.0881   18.1042 C   0  0  0  0  0  0  0  0  0  0  0  0
   50.5649    3.1458   17.4772 C   0  0  0  0  0  0  0  0  0  0  0  0
   47.5638    6.3521   19.5289 C   0  0  2  0  0  0  0  0  0  0  0  0
   47.9780    7.8062   19.2095 C   0  0  0  0  0  0  0  0  0  0  0  0
   47.6021    8.6305   20.4514 C   0  0  0  0  0  0  0  0  0  0  0  0
   47.7790    7.6168   21.5404 C   0  0  0  0  0  0  0  0  0  0  0  0
   47.7565    6.3143   21.0212 C   0  0  0  0  0  0  0  0  0  0  0  0
   47.8296    5.2148   21.8629 C   0  0  0  0  0  0  0  0  0  0  0  0
   47.8925    7.8435   22.9018 C   0  0  0  0  0  0  0  0  0  0  0  0
   47.9920    6.7393   23.7512 C   0  0  0  0  0  0  0  0  0  0  0  0
   47.9589    5.4341   23.2358 C   0  0  0  0  0  0  0  0  0  0  0  0
   49.6490    6.1430   19.1406 N   0  0  0  0  0  0  0  0  0  0  0  0
   50.2923    4.8631   19.4199 C   0  0  0  0  0  0  0  0  0  0  0  0
   49.8608    3.8136   18.4873 C   0  0  0  0  0  0  0  0  0  0  0  0
   49.5102    2.9535   17.7254 C   0  0  0  0  0  0  0  0  0  0  0  0
   48.2120    6.1657   19.4303 C   0  0  2  0  0  0  0  0  0  0  0  0
   47.6003    7.4702   18.8636 C   0  0  0  0  0  0  0  0  0  0  0  0
   47.7610    8.5460   19.9470 C   0  0  0  0  0  0  0  0  0  0  0  0
   47.6615    7.7096   21.1843 C   0  0  0  0  0  0  0  0  0  0  0  0
   47.9043    6.3589   20.8945 C   0  0  0  0  0  0  0  0  0  0  0  0
   47.8484    5.4011   21.8957 C   0  0  0  0  0  0  0  0  0  0  0  0
   47.3937    8.1308   22.4760 C   0  0  0  0  0  0  0  0  0  0  0  0
   47.3456    7.1705   23.4883 C   0  0  0  0  0  0  0  0  0  0  0  0
   47.5669    5.8150   23.1997 C   0  0  0  0  0  0  0  0  0  0  0  0
   50.2505    4.2163   19.0957 H   0  0  0  0  0  0  0  0  0  0  0  0
   47.1892    6.0282   18.6174 H   0  0  0  0  0  0  0  0  0  0  0  0
   49.0601    7.5166   19.4378 H   0  0  0  0  0  0  0  0  0  0  0  0
   48.4917    7.5964   23.2713 H   0  0  0  0  0  0  0  0  0  0  0  0
   46.5724    8.0930   20.6270 H   0  0  0  0  0  0  0  0  0  0  0  0
   46.2480    4.6939   20.3652 H   0  0  0  0  0  0  0  0  0  0  0  0
   47.9814    5.4178   17.7710 H   0  0  0  0  0  0  0  0  0  0  0  0
   49.9868    5.1300   19.9135 H   0  0  0  0  0  0  0  0  0  0  0  0
   50.1392    6.1465   18.4719 H   0  0  0  0  0  0  0  0  0  0  0  0
   50.9162    2.3053   16.9249 H   0  0  0  0  0  0  0  0  0  0  0  0
   46.4835    6.2588   19.3526 H   0  0  0  0  0  0  0  0  0  0  0  0
   49.0611    7.8961   19.0624 H   0  0  0  0  0  0  0  0  0  0  0  0
   47.4988    8.1847   18.3006 H   0  0  0  0  0  0  0  0  0  0  0  0
   46.5586    8.9590   20.4081 H   0  0  0  0  0  0  0  0  0  0  0  0
   48.2627    9.4936   20.5723 H   0  0  0  0  0  0  0  0  0  0  0  0
   47.7881    4.2063   21.4622 H   0  0  0  0  0  0  0  0  0  0  0  0
   47.8990    8.8511   23.3048 H   0  0  0  0  0  0  0  0  0  0  0  0
   48.0852    6.8901   24.8238 H   0  0  0  0  0  0  0  0  0  0  0  0
   48.0261    4.5858   23.9125 H   0  0  0  0  0  0  0  0  0  0  0  0
   50.1027    6.8616   19.7022 H   0  0  0  0  0  0  0  0  0  0  0  0
   51.3735    5.0010   19.3000 H   0  0  0  0  0  0  0  0  0  0  0  0
   50.1435    4.5495   20.4574 H   0  0  0  0  0  0  0  0  0  0  0  0
   49.1982    2.1967   17.0436 H   0  0  0  0  0  0  0  0  0  0  0  0
   47.6764    5.3099   19.0060 H   0  0  0  0  0  0  0  0  0  0  0  0
   46.5280    7.3069   18.6800 H   0  0  0  0  0  0  0  0  0  0  0  0
   48.0358    7.7772   17.9061 H   0  0  0  0  0  0  0  0  0  0  0  0
   48.7415    9.0296   19.8921 H   0  0  0  0  0  0  0  0  0  0  0  0
   46.9674    9.2957   19.8837 H   0  0  0  0  0  0  0  0  0  0  0  0
   48.0159    4.3513   21.6767 H   0  0  0  0  0  0  0  0  0  0  0  0
   47.2176    9.1781   22.6995 H   0  0  0  0  0  0  0  0  0  0  0  0
   47.1306    7.4741   24.5099 H   0  0  0  0  0  0  0  0  0  0  0  0
   47.5189    5.0808   24.0004 H   0  0  0  0  0  0  0  0  0  0  0  0
  1  2  1  0
  2  3  1  0
  3  4  1  0
  4  5  1  0
  5  6  1  0
  2  7  2  0
  4  8  1  0
  3  9  1  0
  5 10  2  0
 12 11  1  0
 15 11  1  0
 12 13  1  0
 13 14  3  0
 16 15  1  0
 19 15  1  0
 16 17  1  0
 17 18  1  0
 18 19  2  0
 18 21  1  0
 20 19  1  0
 23 20  2  0
 21 22  2  0
 22 23  1  0
 25 24  1  0
 28 24  1  0
 25 26  1  0
 26 27  3  0
 29 28  1  0
 32 28  1  0
 29 30  1  0
 30 31  1  0
 31 32  2  0
 31 34  1  0
 33 32  1  0
 36 33  2  0
 34 35  2  0
 35 36  1  0
  1 37  1  0
  3 38  1  1
  4 39  1  6
  6 40  1  0
  8 41  1  0
  9 42  1  0
 11 43  1  0
 12 44  1  0
 12 45  1  0
 14 46  1  0
 15 47  1  1
 16 48  1  0
 16 49  1  0
 17 50  1  0
 17 51  1  0
 20 52  1  0
 21 53  1  0
 22 54  1  0
 23 55  1  0
 24 56  1  0
 25 57  1  0
 25 58  1  0
 27 59  1  0
 28 60  1  1
 29 61  1  0
 29 62  1  0
 30 63  1  0
 30 64  1  0
 33 65  1  0
 34 66  1  0
 35 67  1  0
 36 68  1  0
M  END
> <Uni-Dock RESULT> 
ENERGY=   -6.704  LOWER_BOUND=    8.538  UPPER_BOUND=   10.977
INTER + INTRA:          -6.704
INTER:                  -6.704
INTRA:                   0.000
UNBOUND:                 0.000

$$$$

     RDKit          3D

 68 69  0  0  0  0  0  0  0  0999 V2000
   48.6591    7.2587   19.5687 O   0  0  0  0  0  0  0  0  0  0  0  0
   48.1465    6.0473   19.8472 C   0  0  0  0  0  0  0  0  0  0  0  0
   49.1944    4.9560   20.0252 C   0  0  2  0  0  0  0  0  0  0  0  0
   50.1962    4.9180   18.8721 C   0  0  2  0  0  0  0  0  0  0  0  0
   49.4679    4.6453   17.5569 C   0  0  0  0  0  0  0  0  0  0  0  0
   49.6879    3.4056   17.0680 O   0  0  0  0  0  0  0  0  0  0  0  0
   46.9443    5.8935   20.0053 O   0  0  0  0  0  0  0  0  0  0  0  0
   51.2066    3.9401   19.1535 O   0  0  0  0  0  0  0  0  0  0  0  0
   48.5927    3.6607   20.1821 O   0  0  0  0  0  0  0  0  0  0  0  0
   48.7269    5.4182   16.9695 O   0  0  0  0  0  0  0  0  0  0  0  0
   49.0039    6.0988   20.5167 N   0  0  0  0  0  0  0  0  0  0  0  0
   48.8995    7.2314   19.6042 C   0  0  0  0  0  0  0  0  0  0  0  0
   48.1807    8.3228   20.2804 C   0  0  0  0  0  0  0  0  0  0  0  0
   47.5941    9.2141   20.8322 C   0  0  0  0  0  0  0  0  0  0  0  0
   49.6251    4.8989   19.9658 C   0  0  2  0  0  0  0  0  0  0  0  0
   51.0770    5.0440   19.4569 C   0  0  0  0  0  0  0  0  0  0  0  0
   51.2954    3.8789   18.4781 C   0  0  0  0  0  0  0  0  0  0  0  0
   49.9150    3.6989   17.9243 C   0  0  0  0  0  0  0  0  0  0  0  0
   48.9567    4.2772   18.7690 C   0  0  0  0  0  0  0  0  0  0  0  0
   47.6037    4.1646   18.4872 C   0  0  0  0  0  0  0  0  0  0  0  0
   49.5416    3.0164   16.7786 C   0  0  0  0  0  0  0  0  0  0  0  0
   48.1811    2.9223   16.4774 C   0  0  0  0  0  0  0  0  0  0  0  0
   47.2187    3.4907   17.3264 C   0  0  0  0  0  0  0  0  0  0  0  0
   49.6004    6.8499   19.1078 N   0  0  0  0  0  0  0  0  0  0  0  0
   48.3231    7.5420   18.9694 C   0  0  0  0  0  0  0  0  0  0  0  0
   47.7695    7.9436   20.2692 C   0  0  0  0  0  0  0  0  0  0  0  0
   47.3147    8.2739   21.3310 C   0  0  0  0  0  0  0  0  0  0  0  0
   49.4981    5.5238   19.7247 C   0  0  2  0  0  0  0  0  0  0  0  0
   50.9199    5.0028   20.0476 C   0  0  0  0  0  0  0  0  0  0  0  0
   51.4333    4.2952   18.7856 C   0  0  0  0  0  0  0  0  0  0  0  0
   50.1504    3.7684   18.2226 C   0  0  0  0  0  0  0  0  0  0  0  0
   49.0508    4.4531   18.7606 C   0  0  0  0  0  0  0  0  0  0  0  0
   47.7583    4.1164   18.3878 C   0  0  0  0  0  0  0  0  0  0  0  0
   49.9827    2.7648   17.2834 C   0  0  0  0  0  0  0  0  0  0  0  0
   48.6833    2.4292   16.8986 C   0  0  0  0  0  0  0  0  0  0  0  0
   47.5788    3.0969   17.4500 C   0  0  0  0  0  0  0  0  0  0  0  0
   47.8754    7.8393   19.4555 H   0  0  0  0  0  0  0  0  0  0  0  0
   49.7193    5.1560   20.9664 H   0  0  0  0  0  0  0  0  0  0  0  0
   50.7176    5.8743   18.7582 H   0  0  0  0  0  0  0  0  0  0  0  0
   49.1607    3.3694   16.2429 H   0  0  0  0  0  0  0  0  0  0  0  0
   50.7344    3.0828   19.1350 H   0  0  0  0  0  0  0  0  0  0  0  0
   47.7689    3.7992   20.6906 H   0  0  0  0  0  0  0  0  0  0  0  0
   49.5263    6.3975   21.3377 H   0  0  0  0  0  0  0  0  0  0  0  0
   48.3549    6.9672   18.6923 H   0  0  0  0  0  0  0  0  0  0  0  0
   49.8877    7.6002   19.3125 H   0  0  0  0  0  0  0  0  0  0  0  0
   47.0679    9.9993   21.3238 H   0  0  0  0  0  0  0  0  0  0  0  0
   49.6157    4.1375   20.7574 H   0  0  0  0  0  0  0  0  0  0  0  0
   51.2207    5.9794   18.9026 H   0  0  0  0  0  0  0  0  0  0  0  0
   51.8059    5.0407   20.2740 H   0  0  0  0  0  0  0  0  0  0  0  0
   51.6114    2.9726   19.0049 H   0  0  0  0  0  0  0  0  0  0  0  0
   52.0252    4.1381   17.7060 H   0  0  0  0  0  0  0  0  0  0  0  0
   46.8611    4.5922   19.1544 H   0  0  0  0  0  0  0  0  0  0  0  0
   50.2825    2.5594   16.1305 H   0  0  0  0  0  0  0  0  0  0  0  0
   47.8617    2.3946   15.5821 H   0  0  0  0  0  0  0  0  0  0  0  0
   46.1632    3.3982   17.0826 H   0  0  0  0  0  0  0  0  0  0  0  0
   50.0122    6.7440   18.1821 H   0  0  0  0  0  0  0  0  0  0  0  0
   48.4986    8.4496   18.3796 H   0  0  0  0  0  0  0  0  0  0  0  0
   47.5983    6.9512   18.4015 H   0  0  0  0  0  0  0  0  0  0  0  0
   46.9195    8.5677   22.2756 H   0  0  0  0  0  0  0  0  0  0  0  0
   48.9039    5.5245   20.6447 H   0  0  0  0  0  0  0  0  0  0  0  0
   50.8504    4.2690   20.8642 H   0  0  0  0  0  0  0  0  0  0  0  0
   51.6047    5.7861   20.3917 H   0  0  0  0  0  0  0  0  0  0  0  0
   51.8942    5.0010   18.0873 H   0  0  0  0  0  0  0  0  0  0  0  0
   52.1389    3.4982   19.0359 H   0  0  0  0  0  0  0  0  0  0  0  0
   46.9011    4.6281   18.8137 H   0  0  0  0  0  0  0  0  0  0  0  0
   50.8358    2.2444   16.8600 H   0  0  0  0  0  0  0  0  0  0  0  0
   48.5240    1.6401   16.1678 H   0  0  0  0  0  0  0  0  0  0  0  0
   46.5740    2.8171   17.1427 H   0  0  0  0  0  0  0  0  0  0  0  0
  1  2  1  0
  2  3  1  0
  3  4  1  0
  4  5  1  0
  5  6  1  0
  2  7  2  0
  4  8  1  0
  3  9  1  0
  5 10  2  0
 12 11  1  0
 15 11  1  0
 12 13  1  0
 13 14  3  0
 16 15  1  0
 19 15  1  0
 16 17  1  0
 17 18  1  0
 18 19  2  0
 18 21  1  0
 20 19  1  0
 23 20  2  0
 21 22  2  0
 22 23  1  0
 25 24  1  0
 28 24  1  0
 25 26  1  0
 26 27  3  0
 29 28  1  0
 32 28  1  0
 29 30  1  0
 30 31  1  0
 31 32  2  0
 31 34  1  0
 33 32  1  0
 36 33  2  0
 34 35  2  0
 35 36  1  0
  1 37  1  0
  3 38  1  1
  4 39  1  6
  6 40  1  0
  8 41  1  0
  9 42  1  0
 11 43  1  0
 12 44  1  0
 12 45  1  0
 14 46  1  0
 15 47  1  1
 16 48  1  0
 16 49  1  0
 17 50  1  0
 17 51  1  0
 20 52  1  0
 21 53  1  0
 22 54  1  0
 23 55  1  0
 24 56  1  0
 25 57  1  0
 25 58  1  0
 27 59  1  0
 28 60  1  1
 29 61  1  0
 29 62  1  0
 30 63  1  0
 30 64  1  0
 33 65  1  0
 34 66  1  0
 35 67  1  0
 36 68  1  0
M  END
> <Uni-Dock RESULT> 
ENERGY=   -6.513  LOWER_BOUND=    7.402  UPPER_BOUND=    9.086
INTER + INTRA:          -6.513
INTER:                  -6.513
INTRA:                   0.000
UNBOUND:                 0.000

$$$$

     RDKit          3D

 68 69  0  0  0  0  0  0  0  0999 V2000
   48.5344   13.2673   17.9697 O   0  0  0  0  0  0  0  0  0  0  0  0
   47.4313   13.0185   18.6969 C   0  0  0  0  0  0  0  0  0  0  0  0
   47.5510   13.4172   20.1623 C   0  0  2  0  0  0  0  0  0  0  0  0
   48.8191   12.8665   20.8130 C   0  0  2  0  0  0  0  0  0  0  0  0
   48.8166   11.3398   20.7510 C   0  0  0  0  0  0  0  0  0  0  0  0
   48.6029   10.7538   21.9490 O   0  0  0  0  0  0  0  0  0  0  0  0
   46.4187   12.5767   18.1739 O   0  0  0  0  0  0  0  0  0  0  0  0
   48.9169   13.3616   22.1553 O   0  0  0  0  0  0  0  0  0  0  0  0
   46.4031   13.0050   20.9217 O   0  0  0  0  0  0  0  0  0  0  0  0
   48.9614   10.6588   19.7477 O   0  0  0  0  0  0  0  0  0  0  0  0
   47.7366   13.9983   19.0615 N   0  0  0  0  0  0  0  0  0  0  0  0
   48.6748   13.4015   18.1182 C   0  0  0  0  0  0  0  0  0  0  0  0
   48.3664   13.8915   16.7655 C   0  0  0  0  0  0  0  0  0  0  0  0
   48.1150   14.2915   15.6611 C   0  0  0  0  0  0  0  0  0  0  0  0
   47.8596   13.5493   20.4444 C   0  0  2  0  0  0  0  0  0  0  0  0
   49.2200   13.7993   21.1336 C   0  0  0  0  0  0  0  0  0  0  0  0
   49.2850   12.8045   22.3038 C   0  0  0  0  0  0  0  0  0  0  0  0
   48.4854   11.6600   21.7601 C   0  0  0  0  0  0  0  0  0  0  0  0
   47.6686   12.0783   20.6998 C   0  0  0  0  0  0  0  0  0  0  0  0
   46.7870   11.1960   20.0940 C   0  0  0  0  0  0  0  0  0  0  0  0
   48.4495   10.3544   22.2203 C   0  0  0  0  0  0  0  0  0  0  0  0
   47.5813    9.4558   21.5963 C   0  0  0  0  0  0  0  0  0  0  0  0
   46.7545    9.8738   20.5418 C   0  0  0  0  0  0  0  0  0  0  0  0
   49.2326   13.2094   18.8499 N   0  0  0  0  0  0  0  0  0  0  0  0
   48.7319   12.6562   17.5956 C   0  0  0  0  0  0  0  0  0  0  0  0
   47.8909   13.6146   16.8667 C   0  0  0  0  0  0  0  0  0  0  0  0
   47.2031   14.3968   16.2680 C   0  0  0  0  0  0  0  0  0  0  0  0
   48.1977   13.4155   19.8677 C   0  0  2  0  0  0  0  0  0  0  0  0
   48.7946   14.2303   21.0412 C   0  0  0  0  0  0  0  0  0  0  0  0
   49.4369   13.2214   22.0039 C   0  0  0  0  0  0  0  0  0  0  0  0
   48.5398   12.0398   21.8052 C   0  0  0  0  0  0  0  0  0  0  0  0
   47.8269   12.1511   20.6024 C   0  0  0  0  0  0  0  0  0  0  0  0
   46.9228   11.1700   20.2244 C   0  0  0  0  0  0  0  0  0  0  0  0
   48.3895   10.9382   22.6305 C   0  0  0  0  0  0  0  0  0  0  0  0
   47.4869    9.9439   22.2488 C   0  0  0  0  0  0  0  0  0  0  0  0
   46.7555   10.0608   21.0567 C   0  0  0  0  0  0  0  0  0  0  0  0
   48.3184   12.9365   17.0707 H   0  0  0  0  0  0  0  0  0  0  0  0
   47.5578   14.5124   20.2046 H   0  0  0  0  0  0  0  0  0  0  0  0
   49.7208   13.2075   20.2934 H   0  0  0  0  0  0  0  0  0  0  0  0
   48.6179    9.7927   21.7590 H   0  0  0  0  0  0  0  0  0  0  0  0
   48.1650   12.9492   22.6275 H   0  0  0  0  0  0  0  0  0  0  0  0
   45.6314   13.1001   20.3284 H   0  0  0  0  0  0  0  0  0  0  0  0
   47.8501   15.0093   19.0281 H   0  0  0  0  0  0  0  0  0  0  0  0
   48.6077   12.3090   18.1174 H   0  0  0  0  0  0  0  0  0  0  0  0
   49.7072   13.6762   18.3557 H   0  0  0  0  0  0  0  0  0  0  0  0
   47.8840   14.6443   14.6827 H   0  0  0  0  0  0  0  0  0  0  0  0
   47.0837   14.0685   21.0231 H   0  0  0  0  0  0  0  0  0  0  0  0
   50.0602   13.5833   20.4625 H   0  0  0  0  0  0  0  0  0  0  0  0
   49.3334   14.8367   21.4651 H   0  0  0  0  0  0  0  0  0  0  0  0
   48.8010   13.2117   23.1975 H   0  0  0  0  0  0  0  0  0  0  0  0
   50.3170   12.5229   22.5310 H   0  0  0  0  0  0  0  0  0  0  0  0
   46.1376   11.5266   19.2888 H   0  0  0  0  0  0  0  0  0  0  0  0
   49.0736   10.0333   23.0480 H   0  0  0  0  0  0  0  0  0  0  0  0
   47.5363    8.4242   21.9365 H   0  0  0  0  0  0  0  0  0  0  0  0
   46.0764    9.1637   20.0749 H   0  0  0  0  0  0  0  0  0  0  0  0
   49.9332   12.5731   19.2265 H   0  0  0  0  0  0  0  0  0  0  0  0
   49.5987   12.4180   16.9676 H   0  0  0  0  0  0  0  0  0  0  0  0
   48.2040   11.7103   17.7489 H   0  0  0  0  0  0  0  0  0  0  0  0
   46.5979   15.0969   15.7403 H   0  0  0  0  0  0  0  0  0  0  0  0
   47.3177   13.9418   19.4828 H   0  0  0  0  0  0  0  0  0  0  0  0
   47.9770   14.7497   21.5627 H   0  0  0  0  0  0  0  0  0  0  0  0
   49.5001   15.0052   20.7209 H   0  0  0  0  0  0  0  0  0  0  0  0
   50.4612   12.9763   21.7060 H   0  0  0  0  0  0  0  0  0  0  0  0
   49.4221   13.5896   23.0335 H   0  0  0  0  0  0  0  0  0  0  0  0
   46.3529   11.2576   19.3048 H   0  0  0  0  0  0  0  0  0  0  0  0
   48.9509   10.8490   23.5551 H   0  0  0  0  0  0  0  0  0  0  0  0
   47.3453    9.0718   22.8825 H   0  0  0  0  0  0  0  0  0  0  0  0
   46.0523    9.2791   20.7793 H   0  0  0  0  0  0  0  0  0  0  0  0
  1  2  1  0
  2  3  1  0
  3  4  1  0
  4  5  1  0
  5  6  1  0
  2  7  2  0
  4  8  1  0
  3  9  1  0
  5 10  2  0
 12 11  1  0
 15 11  1  0
 12 13  1  0
 13 14  3  0
 16 15  1  0
 19 15  1  0
 16 17  1  0
 17 18  1  0
 18 19  2  0
 18 21  1  0
 20 19  1  0
 23 20  2  0
 21 22  2  0
 22 23  1  0
 25 24  1  0
 28 24  1  0
 25 26  1  0
 26 27  3  0
 29 28  1  0
 32 28  1  0
 29 30  1  0
 30 31  1  0
 31 32  2  0
 31 34  1  0
 33 32  1  0
 36 33  2  0
 34 35  2  0
 35 36  1  0
  1 37  1  0
  3 38  1  1
  4 39  1  6
  6 40  1  0
  8 41  1  0
  9 42  1  0
 11 43  1  0
 12 44  1  0
 12 45  1  0
 14 46  1  0
 15 47  1  1
 16 48  1  0
 16 49  1  0
 17 50  1  0
 17 51  1  0
 20 52  1  0
 21 53  1  0
 22 54  1  0
 23 55  1  0
 24 56  1  0
 25 57  1  0
 25 58  1  0
 27 59  1  0
 28 60  1  1
 29 61  1  0
 29 62  1  0
 30 63  1  0
 30 64  1  0
 33 65  1  0
 34 66  1  0
 35 67  1  0
 36 68  1  0
M  END
> <Uni-Dock RESULT> 
ENERGY=   -6.310  LOWER_BOUND=   10.878  UPPER_BOUND=   12.551
INTER + INTRA:          -6.310
INTER:                  -6.310
INTRA:                   0.000
UNBOUND:                 0.000

$$$$

     RDKit          3D

 68 69  0  0  0  0  0  0  0  0999 V2000
   47.7184    5.9677   21.2821 O   0  0  0  0  0  0  0  0  0  0  0  0
   48.5151    5.0564   20.6969 C   0  0  0  0  0  0  0  0  0  0  0  0
   49.3577    5.6106   19.5552 C   0  0  2  0  0  0  0  0  0  0  0  0
   48.5231    6.3954   18.5442 C   0  0  2  0  0  0  0  0  0  0  0  0
   47.4580    5.4880   17.9305 C   0  0  0  0  0  0  0  0  0  0  0  0
   47.7090    5.1581   16.6450 O   0  0  0  0  0  0  0  0  0  0  0  0
   48.5798    3.9118   21.1209 O   0  0  0  0  0  0  0  0  0  0  0  0
   49.3904    6.9698   17.5571 O   0  0  0  0  0  0  0  0  0  0  0  0
   50.0835    4.5726   18.8767 O   0  0  0  0  0  0  0  0  0  0  0  0
   46.4700    5.0494   18.4989 O   0  0  0  0  0  0  0  0  0  0  0  0
   49.1625    5.9301   20.7567 N   0  0  0  0  0  0  0  0  0  0  0  0
   47.7923    6.1809   21.1879 C   0  0  0  0  0  0  0  0  0  0  0  0
   47.7148    6.0156   22.6479 C   0  0  0  0  0  0  0  0  0  0  0  0
   47.6512    5.8810   23.8399 C   0  0  0  0  0  0  0  0  0  0  0  0
   49.3900    5.9768   19.3162 C   0  0  2  0  0  0  0  0  0  0  0  0
   49.0632    7.3108   18.6079 C   0  0  0  0  0  0  0  0  0  0  0  0
   48.8600    6.9583   17.1254 C   0  0  0  0  0  0  0  0  0  0  0  0
   48.3123    5.5675   17.2274 C   0  0  0  0  0  0  0  0  0  0  0  0
   48.6124    5.0008   18.4745 C   0  0  0  0  0  0  0  0  0  0  0  0
   48.2641    3.6891   18.7588 C   0  0  0  0  0  0  0  0  0  0  0  0
   47.6458    4.8434   16.2531 C   0  0  0  0  0  0  0  0  0  0  0  0
   47.2706    3.5301   16.5444 C   0  0  0  0  0  0  0  0  0  0  0  0
   47.5790    2.9562   17.7877 C   0  0  0  0  0  0  0  0  0  0  0  0
   47.6544    6.6240   20.3705 N   0  0  0  0  0  0  0  0  0  0  0  0
   47.0226    5.7087   21.3155 C   0  0  0  0  0  0  0  0  0  0  0  0
   47.8498    5.4906   22.5094 C   0  0  0  0  0  0  0  0  0  0  0  0
   48.5240    5.3110   23.4873 C   0  0  0  0  0  0  0  0  0  0  0  0
   48.8479    6.0785   19.7169 C   0  0  2  0  0  0  0  0  0  0  0  0
   49.5659    7.2114   18.9434 C   0  0  0  0  0  0  0  0  0  0  0  0
   48.9234    7.2777   17.5506 C   0  0  0  0  0  0  0  0  0  0  0  0
   48.5586    5.8406   17.3456 C   0  0  0  0  0  0  0  0  0  0  0  0
   48.5264    5.1545   18.5685 C   0  0  0  0  0  0  0  0  0  0  0  0
   48.2237    3.8019   18.6112 C   0  0  0  0  0  0  0  0  0  0  0  0
   48.2582    5.2013   16.1546 C   0  0  0  0  0  0  0  0  0  0  0  0
   47.9440    3.8416   16.1946 C   0  0  0  0  0  0  0  0  0  0  0  0
   47.9311    3.1457   17.4134 C   0  0  0  0  0  0  0  0  0  0  0  0
   47.2264    5.4639   21.9664 H   0  0  0  0  0  0  0  0  0  0  0  0
   50.1179    6.2652   19.9966 H   0  0  0  0  0  0  0  0  0  0  0  0
   47.9984    7.2326   19.0165 H   0  0  0  0  0  0  0  0  0  0  0  0
   46.9625    4.5769   16.3899 H   0  0  0  0  0  0  0  0  0  0  0  0
   49.7579    6.2026   17.0727 H   0  0  0  0  0  0  0  0  0  0  0  0
   50.3416    3.9239   19.5616 H   0  0  0  0  0  0  0  0  0  0  0  0
   49.7696    6.6085   21.2120 H   0  0  0  0  0  0  0  0  0  0  0  0
   47.0875    5.4863   20.7201 H   0  0  0  0  0  0  0  0  0  0  0  0
   47.4771    7.1994   20.9406 H   0  0  0  0  0  0  0  0  0  0  0  0
   47.5988    5.7542   24.8964 H   0  0  0  0  0  0  0  0  0  0  0  0
   50.4525    5.7535   19.1493 H   0  0  0  0  0  0  0  0  0  0  0  0
   48.1290    7.7489   18.9797 H   0  0  0  0  0  0  0  0  0  0  0  0
   49.8480    8.0606   18.7515 H   0  0  0  0  0  0  0  0  0  0  0  0
   49.8127    6.9497   16.5859 H   0  0  0  0  0  0  0  0  0  0  0  0
   48.1618    7.6484   16.6434 H   0  0  0  0  0  0  0  0  0  0  0  0
   48.5180    3.2433   19.7160 H   0  0  0  0  0  0  0  0  0  0  0  0
   47.4231    5.2782   15.2840 H   0  0  0  0  0  0  0  0  0  0  0  0
   46.7435    2.9411   15.7978 H   0  0  0  0  0  0  0  0  0  0  0  0
   47.2893    1.9286   17.9935 H   0  0  0  0  0  0  0  0  0  0  0  0
   46.9746    6.8653   19.6513 H   0  0  0  0  0  0  0  0  0  0  0  0
   46.0765    6.1616   21.6355 H   0  0  0  0  0  0  0  0  0  0  0  0
   46.7555    4.7575   20.8457 H   0  0  0  0  0  0  0  0  0  0  0  0
   49.1251    5.1597   24.3538 H   0  0  0  0  0  0  0  0  0  0  0  0
   49.5544    5.6286   20.4226 H   0  0  0  0  0  0  0  0  0  0  0  0
   50.6279    6.9462   18.8336 H   0  0  0  0  0  0  0  0  0  0  0  0
   49.5391    8.1779   19.4592 H   0  0  0  0  0  0  0  0  0  0  0  0
   48.0246    7.9025   17.5510 H   0  0  0  0  0  0  0  0  0  0  0  0
   49.6336    7.6401   16.8021 H   0  0  0  0  0  0  0  0  0  0  0  0
   48.2154    3.2591   19.5511 H   0  0  0  0  0  0  0  0  0  0  0  0
   48.2725    5.7372   15.2110 H   0  0  0  0  0  0  0  0  0  0  0  0
   47.7108    3.3145   15.2726 H   0  0  0  0  0  0  0  0  0  0  0  0
   47.6904    2.0854   17.4238 H   0  0  0  0  0  0  0  0  0  0  0  0
  1  2  1  0
  2  3  1  0
  3  4  1  0
  4  5  1  0
  5  6  1  0
  2  7  2  0
  4  8  1  0
  3  9  1  0
  5 10  2  0
 12 11  1  0
 15 11  1  0
 12 13  1  0
 13 14  3  0
 16 15  1  0
 19 15  1  0
 16 17  1  0
 17 18  1  0
 18 19  2  0
 18 21  1  0
 20 19  1  0
 23 20  2  0
 21 22  2  0
 22 23  1  0
 25 24  1  0
 28 24  1  0
 25 26  1  0
 26 27  3  0
 29 28  1  0
 32 28  1  0
 29 30  1  0
 30 31  1  0
 31 32  2  0
 31 34  1  0
 33 32  1  0
 36 33  2  0
 34 35  2  0
 35 36  1  0
  1 37  1  0
  3 38  1  1
  4 39  1  6
  6 40  1  0
  8 41  1  0
  9 42  1  0
 11 43  1  0
 12 44  1  0
 12 45  1  0
 14 46  1  0
 15 47  1  1
 16 48  1  0
 16 49  1  0
 17 50  1  0
 17 51  1  0
 20 52  1  0
 21 53  1  0
 22 54  1  0
 23 55  1  0
 24 56  1  0
 25 57  1  0
 25 58  1  0
 27 59  1  0
 28 60  1  1
 29 61  1  0
 29 62  1  0
 30 63  1  0
 30 64  1  0
 33 65  1  0
 34 66  1  0
 35 67  1  0
 36 68  1  0
M  END
> <Uni-Dock RESULT> 
ENERGY=   -6.277  LOWER_BOUND=    7.278  UPPER_BOUND=    9.188
INTER + INTRA:          -6.277
INTER:                  -6.277
INTRA:                   0.000
UNBOUND:                 0.000

$$$$

     RDKit          3D

 68 69  0  0  0  0  0  0  0  0999 V2000
   48.4001    3.9118   17.6255 O   0  0  0  0  0  0  0  0  0  0  0  0
   48.1766    5.1300   18.1487 C   0  0  0  0  0  0  0  0  0  0  0  0
   49.4084    5.7725   18.7736 C   0  0  2  0  0  0  0  0  0  0  0  0
   50.1208    4.8369   19.7492 C   0  0  2  0  0  0  0  0  0  0  0  0
   49.1763    4.4520   20.8869 C   0  0  0  0  0  0  0  0  0  0  0  0
   49.4907    5.0319   22.0655 O   0  0  0  0  0  0  0  0  0  0  0  0
   47.0838    5.6680   18.0472 O   0  0  0  0  0  0  0  0  0  0  0  0
   51.3202    5.4663   20.2201 O   0  0  0  0  0  0  0  0  0  0  0  0
   49.0868    7.0053   19.4379 O   0  0  0  0  0  0  0  0  0  0  0  0
   48.2027    3.7201   20.7992 O   0  0  0  0  0  0  0  0  0  0  0  0
   49.1395    5.2591   17.6565 N   0  0  0  0  0  0  0  0  0  0  0  0
   48.6434    3.8881   17.6311 C   0  0  0  0  0  0  0  0  0  0  0  0
   47.9171    3.6680   16.3705 C   0  0  0  0  0  0  0  0  0  0  0  0
   47.3242    3.4878   15.3414 C   0  0  0  0  0  0  0  0  0  0  0  0
   49.8184    5.6625   18.8834 C   0  0  2  0  0  0  0  0  0  0  0  0
   51.0746    4.8528   19.2763 C   0  0  0  0  0  0  0  0  0  0  0  0
   51.2660    5.0832   20.7841 C   0  0  0  0  0  0  0  0  0  0  0  0
   49.8486    5.2627   21.2353 C   0  0  0  0  0  0  0  0  0  0  0  0
   49.0173    5.5949   20.1559 C   0  0  0  0  0  0  0  0  0  0  0  0
   47.6751    5.8793   20.3568 C   0  0  0  0  0  0  0  0  0  0  0  0
   49.3525    5.1911   22.5262 C   0  0  0  0  0  0  0  0  0  0  0  0
   47.9957    5.4519   22.7297 C   0  0  0  0  0  0  0  0  0  0  0  0
   47.1630    5.7954   21.6531 C   0  0  0  0  0  0  0  0  0  0  0  0
   49.2713    3.6866   18.3008 N   0  0  0  0  0  0  0  0  0  0  0  0
   47.8961    3.4308   17.8844 C   0  0  0  0  0  0  0  0  0  0  0  0
   47.5845    4.0586   16.5937 C   0  0  0  0  0  0  0  0  0  0  0  0
   47.3272    4.5706   15.5378 C   0  0  0  0  0  0  0  0  0  0  0  0
   49.5364    5.0823   18.6632 C   0  0  2  0  0  0  0  0  0  0  0  0
   51.0619    5.2806   18.8381 C   0  0  0  0  0  0  0  0  0  0  0  0
   51.3955    4.9167   20.2918 C   0  0  0  0  0  0  0  0  0  0  0  0
   50.1289    5.3251   20.9769 C   0  0  0  0  0  0  0  0  0  0  0  0
   49.0759    5.4320   20.0566 C   0  0  0  0  0  0  0  0  0  0  0  0
   47.8098    5.8139   20.4739 C   0  0  0  0  0  0  0  0  0  0  0  0
   49.9309    5.5630   22.3266 C   0  0  0  0  0  0  0  0  0  0  0  0
   48.6554    5.9388   22.7519 C   0  0  0  0  0  0  0  0  0  0  0  0
   47.6034    6.0677   21.8318 C   0  0  0  0  0  0  0  0  0  0  0  0
   47.5235    3.6204   17.2926 H   0  0  0  0  0  0  0  0  0  0  0  0
   50.0870    6.0433   17.9566 H   0  0  0  0  0  0  0  0  0  0  0  0
   50.4328    3.9069   19.2623 H   0  0  0  0  0  0  0  0  0  0  0  0
   48.8077    4.7080   22.6890 H   0  0  0  0  0  0  0  0  0  0  0  0
   51.0091    6.2290   20.7491 H   0  0  0  0  0  0  0  0  0  0  0  0
   48.3850    7.4303   18.9055 H   0  0  0  0  0  0  0  0  0  0  0  0
   49.7722    5.3842   16.8690 H   0  0  0  0  0  0  0  0  0  0  0  0
   47.9634    3.6886   18.4652 H   0  0  0  0  0  0  0  0  0  0  0  0
   49.4644    3.1665   17.6847 H   0  0  0  0  0  0  0  0  0  0  0  0
   46.7941    3.3350   14.4300 H   0  0  0  0  0  0  0  0  0  0  0  0
   50.1151    6.7128   18.7584 H   0  0  0  0  0  0  0  0  0  0  0  0
   50.9299    3.7773   19.1169 H   0  0  0  0  0  0  0  0  0  0  0  0
   51.9563    5.1466   18.6973 H   0  0  0  0  0  0  0  0  0  0  0  0
   51.8410    5.9950   20.9758 H   0  0  0  0  0  0  0  0  0  0  0  0
   51.7511    4.2264   21.2601 H   0  0  0  0  0  0  0  0  0  0  0  0
   47.0373    6.1599   19.5239 H   0  0  0  0  0  0  0  0  0  0  0  0
   49.9979    4.9446   23.3631 H   0  0  0  0  0  0  0  0  0  0  0  0
   47.5805    5.3993   23.7332 H   0  0  0  0  0  0  0  0  0  0  0  0
   46.1114    6.0063   21.8313 H   0  0  0  0  0  0  0  0  0  0  0  0
   49.4793    3.0991   19.1065 H   0  0  0  0  0  0  0  0  0  0  0  0
   47.7788    2.3463   17.7721 H   0  0  0  0  0  0  0  0  0  0  0  0
   47.1752    3.7324   18.6501 H   0  0  0  0  0  0  0  0  0  0  0  0
   47.1072    5.0234   14.5990 H   0  0  0  0  0  0  0  0  0  0  0  0
   49.1699    5.7952   17.9169 H   0  0  0  0  0  0  0  0  0  0  0  0
   51.3016    6.3414   18.6724 H   0  0  0  0  0  0  0  0  0  0  0  0
   51.6619    4.7110   18.1196 H   0  0  0  0  0  0  0  0  0  0  0  0
   51.5626    3.8413   20.4097 H   0  0  0  0  0  0  0  0  0  0  0  0
   52.2646    5.4744   20.6518 H   0  0  0  0  0  0  0  0  0  0  0  0
   46.9940    5.9176   19.7655 H   0  0  0  0  0  0  0  0  0  0  0  0
   50.7448    5.4684   23.0383 H   0  0  0  0  0  0  0  0  0  0  0  0
   48.4750    6.1379   23.8055 H   0  0  0  0  0  0  0  0  0  0  0  0
   46.6183    6.3678   22.1811 H   0  0  0  0  0  0  0  0  0  0  0  0
  1  2  1  0
  2  3  1  0
  3  4  1  0
  4  5  1  0
  5  6  1  0
  2  7  2  0
  4  8  1  0
  3  9  1  0
  5 10  2  0
 12 11  1  0
 15 11  1  0
 12 13  1  0
 13 14  3  0
 16 15  1  0
 19 15  1  0
 16 17  1  0
 17 18  1  0
 18 19  2  0
 18 21  1  0
 20 19  1  0
 23 20  2  0
 21 22  2  0
 22 23  1  0
 25 24  1  0
 28 24  1  0
 25 26  1  0
 26 27  3  0
 29 28  1  0
 32 28  1  0
 29 30  1  0
 30 31  1  0
 31 32  2  0
 31 34  1  0
 33 32  1  0
 36 33  2  0
 34 35  2  0
 35 36  1  0
  1 37  1  0
  3 38  1  1
  4 39  1  6
  6 40  1  0
  8 41  1  0
  9 42  1  0
 11 43  1  0
 12 44  1  0
 12 45  1  0
 14 46  1  0
 15 47  1  1
 16 48  1  0
 16 49  1  0
 17 50  1  0
 17 51  1  0
 20 52  1  0
 21 53  1  0
 22 54  1  0
 23 55  1  0
 24 56  1  0
 25 57  1  0
 25 58  1  0
 27 59  1  0
 28 60  1  1
 29 61  1  0
 29 62  1  0
 30 63  1  0
 30 64  1  0
 33 65  1  0
 34 66  1  0
 35 67  1  0
 36 68  1  0
M  END
> <Uni-Dock RESULT> 
ENERGY=   -6.045  LOWER_BOUND=    8.043  UPPER_BOUND=   10.378
INTER + INTRA:          -6.045
INTER:                  -6.045
INTRA:                   0.000
UNBOUND:                 0.000

$$$$

     RDKit          3D

 68 69  0  0  0  0  0  0  0  0999 V2000
   48.7892   10.5548   17.6441 O   0  0  0  0  0  0  0  0  0  0  0  0
   47.7899   10.1375   18.4408 C   0  0  0  0  0  0  0  0  0  0  0  0
   47.0527   11.2641   19.1536 C   0  0  2  0  0  0  0  0  0  0  0  0
   48.0056   12.2254   19.8625 C   0  0  2  0  0  0  0  0  0  0  0  0
   48.8201   11.4724   20.9133 C   0  0  0  0  0  0  0  0  0  0  0  0
   48.4576   11.7607   22.1821 O   0  0  0  0  0  0  0  0  0  0  0  0
   47.4867    8.9550   18.5037 O   0  0  0  0  0  0  0  0  0  0  0  0
   47.2543   13.3103   20.4237 O   0  0  0  0  0  0  0  0  0  0  0  0
   46.0910   10.7595   20.0943 O   0  0  0  0  0  0  0  0  0  0  0  0
   49.7047   10.6596   20.6935 O   0  0  0  0  0  0  0  0  0  0  0  0
   47.3557   11.0120   17.9583 N   0  0  0  0  0  0  0  0  0  0  0  0
   48.7614   10.7976   17.6356 C   0  0  0  0  0  0  0  0  0  0  0  0
   48.8507   10.0289   16.3841 C   0  0  0  0  0  0  0  0  0  0  0  0
   48.9239    9.4015   15.3624 C   0  0  0  0  0  0  0  0  0  0  0  0
   47.0946   11.6953   19.2209 C   0  0  2  0  0  0  0  0  0  0  0  0
   47.6854   13.1151   19.3732 C   0  0  0  0  0  0  0  0  0  0  0  0
   47.7535   13.3796   20.8860 C   0  0  0  0  0  0  0  0  0  0  0  0
   47.9811   11.9965   21.4152 C   0  0  0  0  0  0  0  0  0  0  0  0
   47.6058   11.0304   20.4707 C   0  0  0  0  0  0  0  0  0  0  0  0
   47.6630    9.6795   20.7781 C   0  0  0  0  0  0  0  0  0  0  0  0
   48.4355   11.6317   22.6715 C   0  0  0  0  0  0  0  0  0  0  0  0
   48.5188   10.2714   22.9765 C   0  0  0  0  0  0  0  0  0  0  0  0
   48.1337    9.3020   22.0373 C   0  0  0  0  0  0  0  0  0  0  0  0
   48.9661   11.5056   18.2188 N   0  0  0  0  0  0  0  0  0  0  0  0
   49.4107   10.1793   17.8027 C   0  0  0  0  0  0  0  0  0  0  0  0
   48.5975    9.6448   16.7026 C   0  0  0  0  0  0  0  0  0  0  0  0
   47.9345    9.2055   15.8023 C   0  0  0  0  0  0  0  0  0  0  0  0
   47.6592   11.5171   18.8830 C   0  0  2  0  0  0  0  0  0  0  0  0
   47.1850   12.9819   19.0459 C   0  0  0  0  0  0  0  0  0  0  0  0
   47.7776   13.4989   20.3645 C   0  0  0  0  0  0  0  0  0  0  0  0
   47.8060   12.2368   21.1686 C   0  0  0  0  0  0  0  0  0  0  0  0
   47.7270   11.1118   20.3346 C   0  0  0  0  0  0  0  0  0  0  0  0
   47.7223    9.8336   20.8722 C   0  0  0  0  0  0  0  0  0  0  0  0
   47.9152   12.1065   22.5428 C   0  0  0  0  0  0  0  0  0  0  0  0
   47.9200   10.8209   23.0871 C   0  0  0  0  0  0  0  0  0  0  0  0
   47.8198    9.6926   22.2584 C   0  0  0  0  0  0  0  0  0  0  0  0
   49.1801    9.7293   17.2837 H   0  0  0  0  0  0  0  0  0  0  0  0
   46.4731   11.8063   18.3977 H   0  0  0  0  0  0  0  0  0  0  0  0
   48.7196   12.6750   19.1643 H   0  0  0  0  0  0  0  0  0  0  0  0
   49.0466   11.2089   22.7377 H   0  0  0  0  0  0  0  0  0  0  0  0
   46.7087   12.8984   21.1244 H   0  0  0  0  0  0  0  0  0  0  0  0
   45.7189    9.9462   19.6986 H   0  0  0  0  0  0  0  0  0  0  0  0
   46.9310   11.5407   17.1993 H   0  0  0  0  0  0  0  0  0  0  0  0
   49.2772   10.2413   18.4245 H   0  0  0  0  0  0  0  0  0  0  0  0
   49.2866   11.7471   17.4933 H   0  0  0  0  0  0  0  0  0  0  0  0
   48.9834    8.8395   14.4592 H   0  0  0  0  0  0  0  0  0  0  0  0
   46.0039   11.7664   19.3305 H   0  0  0  0  0  0  0  0  0  0  0  0
   48.7060   13.1743   18.9759 H   0  0  0  0  0  0  0  0  0  0  0  0
   47.0926   13.8705   18.8470 H   0  0  0  0  0  0  0  0  0  0  0  0
   46.8048   13.7758   21.2623 H   0  0  0  0  0  0  0  0  0  0  0  0
   48.5707   14.0624   21.1351 H   0  0  0  0  0  0  0  0  0  0  0  0
   47.3495    8.9327   20.0546 H   0  0  0  0  0  0  0  0  0  0  0  0
   48.7157   12.3795   23.4064 H   0  0  0  0  0  0  0  0  0  0  0  0
   48.8754    9.9584   23.9548 H   0  0  0  0  0  0  0  0  0  0  0  0
   48.1943    8.2476   22.2955 H   0  0  0  0  0  0  0  0  0  0  0  0
   49.6572   11.8913   18.8602 H   0  0  0  0  0  0  0  0  0  0  0  0
   50.4443   10.2709   17.4482 H   0  0  0  0  0  0  0  0  0  0  0  0
   49.4428    9.4779   18.6418 H   0  0  0  0  0  0  0  0  0  0  0  0
   47.3452    8.8239   15.0010 H   0  0  0  0  0  0  0  0  0  0  0  0
   46.8952   10.9566   18.3339 H   0  0  0  0  0  0  0  0  0  0  0  0
   46.0875   12.9919   19.1203 H   0  0  0  0  0  0  0  0  0  0  0  0
   47.4442   13.6223   18.1952 H   0  0  0  0  0  0  0  0  0  0  0  0
   48.7924   13.8852   20.2260 H   0  0  0  0  0  0  0  0  0  0  0  0
   47.1404   14.2664   20.8127 H   0  0  0  0  0  0  0  0  0  0  0  0
   47.6421    8.9583   20.2354 H   0  0  0  0  0  0  0  0  0  0  0  0
   47.9878   12.9784   23.1851 H   0  0  0  0  0  0  0  0  0  0  0  0
   47.9979   10.6913   24.1639 H   0  0  0  0  0  0  0  0  0  0  0  0
   47.8187    8.6995   22.7013 H   0  0  0  0  0  0  0  0  0  0  0  0
  1  2  1  0
  2  3  1  0
  3  4  1  0
  4  5  1  0
  5  6  1  0
  2  7  2  0
  4  8  1  0
  3  9  1  0
  5 10  2  0
 12 11  1  0
 15 11  1  0
 12 13  1  0
 13 14  3  0
 16 15  1  0
 19 15  1  0
 16 17  1  0
 17 18  1  0
 18 19  2  0
 18 21  1  0
 20 19  1  0
 23 20  2  0
 21 22  2  0
 22 23  1  0
 25 24  1  0
 28 24  1  0
 25 26  1  0
 26 27  3  0
 29 28  1  0
 32 28  1  0
 29 30  1  0
 30 31  1  0
 31 32  2  0
 31 34  1  0
 33 32  1  0
 36 33  2  0
 34 35  2  0
 35 36  1  0
  1 37  1  0
  3 38  1  1
  4 39  1  6
  6 40  1  0
  8 41  1  0
  9 42  1  0
 11 43  1  0
 12 44  1  0
 12 45  1  0
 14 46  1  0
 15 47  1  1
 16 48  1  0
 16 49  1  0
 17 50  1  0
 17 51  1  0
 20 52  1  0
 21 53  1  0
 22 54  1  0
 23 55  1  0
 24 56  1  0
 25 57  1  0
 25 58  1  0
 27 59  1  0
 28 60  1  1
 29 61  1  0
 29 62  1  0
 30 63  1  0
 30 64  1  0
 33 65  1  0
 34 66  1  0
 35 67  1  0
 36 68  1  0
M  END
> <Uni-Dock RESULT> 
ENERGY=   -6.004  LOWER_BOUND=    7.904  UPPER_BOUND=   11.874
INTER + INTRA:          -6.004
INTER:                  -6.004
INTRA:                   0.000
UNBOUND:                 0.000

$$$$
