
     RDKit          3D

 68 69  0  0  0  0  0  0  0  0999 V2000
   48.7718    4.2083   17.1636 O   0  0  0  0  0  0  0  0  0  0  0  0
   49.1083    3.7727   18.3907 C   0  0  0  0  0  0  0  0  0  0  0  0
   48.5002    4.5855   19.5261 C   0  0  2  0  0  0  0  0  0  0  0  0
   48.7824    6.0807   19.3904 C   0  0  2  0  0  0  0  0  0  0  0  0
   50.2681    6.3816   19.5699 C   0  0  0  0  0  0  0  0  0  0  0  0
   51.0375    5.9148   18.5654 O   0  0  0  0  0  0  0  0  0  0  0  0
   49.7823    2.7631   18.5341 O   0  0  0  0  0  0  0  0  0  0  0  0
   48.0104    6.7863   20.3763 O   0  0  0  0  0  0  0  0  0  0  0  0
   48.9311    4.1286   20.8164 O   0  0  0  0  0  0  0  0  0  0  0  0
   50.7794    7.0008   20.4901 O   0  0  0  0  0  0  0  0  0  0  0  0
   50.6132    5.4716   20.1926 N   0  0  0  0  0  0  0  0  0  0  0  0
   51.0449    6.5425   21.0844 C   0  0  0  0  0  0  0  0  0  0  0  0
   52.2513    6.1194   21.8084 C   0  0  0  0  0  0  0  0  0  0  0  0
   53.2385    5.7736   22.3991 C   0  0  0  0  0  0  0  0  0  0  0  0
   49.4925    5.8789   19.3515 C   0  0  2  0  0  0  0  0  0  0  0  0
   48.1785    6.0666   20.1428 C   0  0  0  0  0  0  0  0  0  0  0  0
   47.0379    5.8216   19.1470 C   0  0  0  0  0  0  0  0  0  0  0  0
   47.6643    4.8101   18.2394 C   0  0  0  0  0  0  0  0  0  0  0  0
   49.0616    4.8259   18.3601 C   0  0  0  0  0  0  0  0  0  0  0  0
   49.8437    3.9940   17.5713 C   0  0  0  0  0  0  0  0  0  0  0  0
   47.0270    3.9687   17.3422 C   0  0  0  0  0  0  0  0  0  0  0  0
   47.8108    3.1198   16.5592 C   0  0  0  0  0  0  0  0  0  0  0  0
   49.2089    3.1320   16.6730 C   0  0  0  0  0  0  0  0  0  0  0  0
   49.1210    5.2108   21.0945 N   0  0  0  0  0  0  0  0  0  0  0  0
   49.9321    5.8846   22.1051 C   0  0  0  0  0  0  0  0  0  0  0  0
   51.2168    5.2058   22.3234 C   0  0  0  0  0  0  0  0  0  0  0  0
   52.2666    4.6505   22.5026 C   0  0  0  0  0  0  0  0  0  0  0  0
   49.6416    5.3469   19.7364 C   0  0  2  0  0  0  0  0  0  0  0  0
   49.5650    6.7944   19.1991 C   0  0  0  0  0  0  0  0  0  0  0  0
   49.4693    6.6846   17.6724 C   0  0  0  0  0  0  0  0  0  0  0  0
   48.7234    5.3960   17.5256 C   0  0  0  0  0  0  0  0  0  0  0  0
   48.8062    4.6332   18.6996 C   0  0  0  0  0  0  0  0  0  0  0  0
   48.2245    3.3747   18.7610 C   0  0  0  0  0  0  0  0  0  0  0  0
   48.0583    4.9265   16.4048 C   0  0  0  0  0  0  0  0  0  0  0  0
   47.4568    3.6688   16.4706 C   0  0  0  0  0  0  0  0  0  0  0  0
   47.5396    2.8981   17.6400 C   0  0  0  0  0  0  0  0  0  0  0  0
   49.2264    3.5923   16.5495 H   0  0  0  0  0  0  0  0  0  0  0  0
   47.4182    4.4109   19.4996 H   0  0  0  0  0  0  0  0  0  0  0  0
   48.4734    6.4724   18.4159 H   0  0  0  0  0  0  0  0  0  0  0  0
   51.9431    6.1971   18.8196 H   0  0  0  0  0  0  0  0  0  0  0  0
   48.3567    6.4836   21.2400 H   0  0  0  0  0  0  0  0  0  0  0  0
   49.0236    3.1575   20.7506 H   0  0  0  0  0  0  0  0  0  0  0  0
   51.3982    5.2196   19.5962 H   0  0  0  0  0  0  0  0  0  0  0  0
   51.2693    7.4525   20.5158 H   0  0  0  0  0  0  0  0  0  0  0  0
   50.2601    6.7819   21.8101 H   0  0  0  0  0  0  0  0  0  0  0  0
   54.1106    5.4590   22.9240 H   0  0  0  0  0  0  0  0  0  0  0  0
   49.7325    6.7893   18.7861 H   0  0  0  0  0  0  0  0  0  0  0  0
   48.1073    7.0539   20.6112 H   0  0  0  0  0  0  0  0  0  0  0  0
   48.1091    5.3207   20.9485 H   0  0  0  0  0  0  0  0  0  0  0  0
   46.7952    6.7316   18.5886 H   0  0  0  0  0  0  0  0  0  0  0  0
   46.1451    5.4389   19.6491 H   0  0  0  0  0  0  0  0  0  0  0  0
   50.9258    4.0030   17.6434 H   0  0  0  0  0  0  0  0  0  0  0  0
   45.9460    3.9649   17.2478 H   0  0  0  0  0  0  0  0  0  0  0  0
   47.3350    2.4450   15.8520 H   0  0  0  0  0  0  0  0  0  0  0  0
   49.8040    2.4663   16.0527 H   0  0  0  0  0  0  0  0  0  0  0  0
   49.0739    4.2226   21.3323 H   0  0  0  0  0  0  0  0  0  0  0  0
   49.3676    5.8764   23.0448 H   0  0  0  0  0  0  0  0  0  0  0  0
   50.0854    6.9404   21.8586 H   0  0  0  0  0  0  0  0  0  0  0  0
   53.1981    4.1575   22.6608 H   0  0  0  0  0  0  0  0  0  0  0  0
   50.6661    4.9625   19.6524 H   0  0  0  0  0  0  0  0  0  0  0  0
   48.6586    7.2927   19.5737 H   0  0  0  0  0  0  0  0  0  0  0  0
   50.4199    7.4040   19.5100 H   0  0  0  0  0  0  0  0  0  0  0  0
   50.4612    6.6013   17.2165 H   0  0  0  0  0  0  0  0  0  0  0  0
   48.9289    7.5335   17.2446 H   0  0  0  0  0  0  0  0  0  0  0  0
   48.2941    2.7655   19.6554 H   0  0  0  0  0  0  0  0  0  0  0  0
   48.0033    5.5180   15.4968 H   0  0  0  0  0  0  0  0  0  0  0  0
   46.9233    3.2792   15.6071 H   0  0  0  0  0  0  0  0  0  0  0  0
   47.0695    1.9183   17.6715 H   0  0  0  0  0  0  0  0  0  0  0  0
  1  2  1  0
  2  3  1  0
  3  4  1  0
  4  5  1  0
  5  6  1  0
  2  7  2  0
  4  8  1  0
  3  9  1  0
  5 10  2  0
 12 11  1  0
 15 11  1  0
 12 13  1  0
 13 14  3  0
 16 15  1  0
 19 15  1  0
 16 17  1  0
 17 18  1  0
 18 19  2  0
 18 21  1  0
 20 19  1  0
 23 20  2  0
 21 22  2  0
 22 23  1  0
 25 24  1  0
 28 24  1  0
 25 26  1  0
 26 27  3  0
 29 28  1  0
 32 28  1  0
 29 30  1  0
 30 31  1  0
 31 32  2  0
 31 34  1  0
 33 32  1  0
 36 33  2  0
 34 35  2  0
 35 36  1  0
  1 37  1  0
  3 38  1  6
  4 39  1  1
  6 40  1  0
  8 41  1  0
  9 42  1  0
 11 43  1  0
 12 44  1  0
 12 45  1  0
 14 46  1  0
 15 47  1  1
 16 48  1  0
 16 49  1  0
 17 50  1  0
 17 51  1  0
 20 52  1  0
 21 53  1  0
 22 54  1  0
 23 55  1  0
 24 56  1  0
 25 57  1  0
 25 58  1  0
 27 59  1  0
 28 60  1  1
 29 61  1  0
 29 62  1  0
 30 63  1  0
 30 64  1  0
 33 65  1  0
 34 66  1  0
 35 67  1  0
 36 68  1  0
M  END
> <Uni-Dock RESULT> 
ENERGY=   -5.345  LOWER_BOUND=    0.000  UPPER_BOUND=    0.000
INTER + INTRA:          -5.345
INTER:                  -5.345
INTRA:                   0.000
UNBOUND:                 0.000

$$$$

     RDKit          3D

 68 69  0  0  0  0  0  0  0  0999 V2000
   48.1078   11.5067   19.6370 O   0  0  0  0  0  0  0  0  0  0  0  0
   47.3516   10.4567   20.0035 C   0  0  0  0  0  0  0  0  0  0  0  0
   47.3445   10.1903   21.5029 C   0  0  2  0  0  0  0  0  0  0  0  0
   48.7532   10.0659   22.0809 C   0  0  2  0  0  0  0  0  0  0  0  0
   49.4567    8.8159   21.5587 C   0  0  0  0  0  0  0  0  0  0  0  0
   49.7562    8.8753   20.2450 O   0  0  0  0  0  0  0  0  0  0  0  0
   46.6852    9.8469   19.1800 O   0  0  0  0  0  0  0  0  0  0  0  0
   48.6605   10.0210   23.5145 O   0  0  0  0  0  0  0  0  0  0  0  0
   46.5776    9.0273   21.8474 O   0  0  0  0  0  0  0  0  0  0  0  0
   49.7734    7.8329   22.2106 O   0  0  0  0  0  0  0  0  0  0  0  0
   48.5577    8.1482   21.2741 N   0  0  0  0  0  0  0  0  0  0  0  0
   49.2364    7.2454   22.1976 C   0  0  0  0  0  0  0  0  0  0  0  0
   49.0080    5.8557   21.7793 C   0  0  0  0  0  0  0  0  0  0  0  0
   48.8222    4.7196   21.4361 C   0  0  0  0  0  0  0  0  0  0  0  0
   48.8519    9.5481   21.5625 C   0  0  2  0  0  0  0  0  0  0  0  0
   48.2144   10.0416   22.8809 C   0  0  0  0  0  0  0  0  0  0  0  0
   48.0197   11.5549   22.7246 C   0  0  0  0  0  0  0  0  0  0  0  0
   47.7720   11.6598   21.2525 C   0  0  0  0  0  0  0  0  0  0  0  0
   48.2298   10.5146   20.5846 C   0  0  0  0  0  0  0  0  0  0  0  0
   48.1384   10.4243   19.2028 C   0  0  0  0  0  0  0  0  0  0  0  0
   47.2150   12.7236   20.5618 C   0  0  0  0  0  0  0  0  0  0  0  0
   47.1074   12.6283   19.1736 C   0  0  0  0  0  0  0  0  0  0  0  0
   47.5655   11.4869   18.4988 C   0  0  0  0  0  0  0  0  0  0  0  0
   47.4354    8.7054   22.5144 N   0  0  0  0  0  0  0  0  0  0  0  0
   47.8664    7.4352   23.0924 C   0  0  0  0  0  0  0  0  0  0  0  0
   47.6621    6.3114   22.1681 C   0  0  0  0  0  0  0  0  0  0  0  0
   47.4943    5.3925   21.4131 C   0  0  0  0  0  0  0  0  0  0  0  0
   48.2990    9.1845   21.4380 C   0  0  2  0  0  0  0  0  0  0  0  0
   49.7077    9.5932   21.9260 C   0  0  0  0  0  0  0  0  0  0  0  0
   50.2171   10.6513   20.9397 C   0  0  0  0  0  0  0  0  0  0  0  0
   48.9348   11.3128   20.5440 C   0  0  0  0  0  0  0  0  0  0  0  0
   47.8368   10.4901   20.8345 C   0  0  0  0  0  0  0  0  0  0  0  0
   46.5512   10.8919   20.5000 C   0  0  0  0  0  0  0  0  0  0  0  0
   48.7724   12.5431   19.9284 C   0  0  0  0  0  0  0  0  0  0  0  0
   47.4787   12.9571   19.6077 C   0  0  0  0  0  0  0  0  0  0  0  0
   46.3760   12.1374   19.8911 C   0  0  0  0  0  0  0  0  0  0  0  0
   48.0085   11.5544   18.6618 H   0  0  0  0  0  0  0  0  0  0  0  0
   46.8261   11.0335   21.9743 H   0  0  0  0  0  0  0  0  0  0  0  0
   49.3773   10.9318   21.8373 H   0  0  0  0  0  0  0  0  0  0  0  0
   50.2076    8.0202   20.0736 H   0  0  0  0  0  0  0  0  0  0  0  0
   48.1702    9.1983   23.7155 H   0  0  0  0  0  0  0  0  0  0  0  0
   45.8244    8.9969   21.2247 H   0  0  0  0  0  0  0  0  0  0  0  0
   48.8728    7.9329   20.3308 H   0  0  0  0  0  0  0  0  0  0  0  0
   50.3145    7.4432   22.2096 H   0  0  0  0  0  0  0  0  0  0  0  0
   48.8569    7.3772   23.2167 H   0  0  0  0  0  0  0  0  0  0  0  0
   48.6491    3.7139   21.1300 H   0  0  0  0  0  0  0  0  0  0  0  0
   49.9345    9.7318   21.5683 H   0  0  0  0  0  0  0  0  0  0  0  0
   48.8211    9.7960   23.7589 H   0  0  0  0  0  0  0  0  0  0  0  0
   47.2299    9.5728   23.0269 H   0  0  0  0  0  0  0  0  0  0  0  0
   48.9281   12.1028   22.9950 H   0  0  0  0  0  0  0  0  0  0  0  0
   47.1740   11.9119   23.3188 H   0  0  0  0  0  0  0  0  0  0  0  0
   48.4991    9.5512   18.6701 H   0  0  0  0  0  0  0  0  0  0  0  0
   46.8682   13.6103   21.0825 H   0  0  0  0  0  0  0  0  0  0  0  0
   46.6681   13.4465   18.6085 H   0  0  0  0  0  0  0  0  0  0  0  0
   47.4768   11.4311   17.4166 H   0  0  0  0  0  0  0  0  0  0  0  0
   46.4921    8.5856   22.1522 H   0  0  0  0  0  0  0  0  0  0  0  0
   47.2687    7.2600   23.9944 H   0  0  0  0  0  0  0  0  0  0  0  0
   48.9075    7.4797   23.4287 H   0  0  0  0  0  0  0  0  0  0  0  0
   47.3455    4.5777   20.7424 H   0  0  0  0  0  0  0  0  0  0  0  0
   48.3748    8.4553   20.6213 H   0  0  0  0  0  0  0  0  0  0  0  0
   49.6481   10.0450   22.9273 H   0  0  0  0  0  0  0  0  0  0  0  0
   50.3916    8.7410   21.9971 H   0  0  0  0  0  0  0  0  0  0  0  0
   50.6883   10.1878   20.0670 H   0  0  0  0  0  0  0  0  0  0  0  0
   50.9146   11.3423   21.4211 H   0  0  0  0  0  0  0  0  0  0  0  0
   45.6935   10.2600   20.7025 H   0  0  0  0  0  0  0  0  0  0  0  0
   49.6262   13.1725   19.6996 H   0  0  0  0  0  0  0  0  0  0  0  0
   47.3228   13.9210   19.1296 H   0  0  0  0  0  0  0  0  0  0  0  0
   45.3758   12.4738   19.6294 H   0  0  0  0  0  0  0  0  0  0  0  0
  1  2  1  0
  2  3  1  0
  3  4  1  0
  4  5  1  0
  5  6  1  0
  2  7  2  0
  4  8  1  0
  3  9  1  0
  5 10  2  0
 12 11  1  0
 15 11  1  0
 12 13  1  0
 13 14  3  0
 16 15  1  0
 19 15  1  0
 16 17  1  0
 17 18  1  0
 18 19  2  0
 18 21  1  0
 20 19  1  0
 23 20  2  0
 21 22  2  0
 22 23  1  0
 25 24  1  0
 28 24  1  0
 25 26  1  0
 26 27  3  0
 29 28  1  0
 32 28  1  0
 29 30  1  0
 30 31  1  0
 31 32  2  0
 31 34  1  0
 33 32  1  0
 36 33  2  0
 34 35  2  0
 35 36  1  0
  1 37  1  0
  3 38  1  6
  4 39  1  1
  6 40  1  0
  8 41  1  0
  9 42  1  0
 11 43  1  0
 12 44  1  0
 12 45  1  0
 14 46  1  0
 15 47  1  1
 16 48  1  0
 16 49  1  0
 17 50  1  0
 17 51  1  0
 20 52  1  0
 21 53  1  0
 22 54  1  0
 23 55  1  0
 24 56  1  0
 25 57  1  0
 25 58  1  0
 27 59  1  0
 28 60  1  1
 29 61  1  0
 29 62  1  0
 30 63  1  0
 30 64  1  0
 33 65  1  0
 34 66  1  0
 35 67  1  0
 36 68  1  0
M  END
> <Uni-Dock RESULT> 
ENERGY=   -5.027  LOWER_BOUND=    4.266  UPPER_BOUND=    6.191
INTER + INTRA:          -5.027
INTER:                  -5.027
INTRA:                   0.000
UNBOUND:                 0.000

$$$$

     RDKit          3D

 68 69  0  0  0  0  0  0  0  0999 V2000
   47.8573    6.4453   22.2015 O   0  0  0  0  0  0  0  0  0  0  0  0
   48.3728    5.4126   21.5111 C   0  0  0  0  0  0  0  0  0  0  0  0
   49.5016    5.8003   20.5652 C   0  0  2  0  0  0  0  0  0  0  0  0
   49.1088    6.9354   19.6211 C   0  0  2  0  0  0  0  0  0  0  0  0
   48.0333    6.4873   18.6350 C   0  0  0  0  0  0  0  0  0  0  0  0
   46.8378    6.2504   19.2126 O   0  0  0  0  0  0  0  0  0  0  0  0
   47.9899    4.2698   21.7144 O   0  0  0  0  0  0  0  0  0  0  0  0
   50.2809    7.3716   18.9129 O   0  0  0  0  0  0  0  0  0  0  0  0
   49.9829    4.6839   19.8028 O   0  0  0  0  0  0  0  0  0  0  0  0
   48.1608    6.3596   17.4271 O   0  0  0  0  0  0  0  0  0  0  0  0
   48.1980    5.3438   18.6193 N   0  0  0  0  0  0  0  0  0  0  0  0
   48.3443    5.6208   17.1943 C   0  0  0  0  0  0  0  0  0  0  0  0
   47.8656    4.4674   16.4203 C   0  0  0  0  0  0  0  0  0  0  0  0
   47.4727    3.5247   15.7879 C   0  0  0  0  0  0  0  0  0  0  0  0
   48.5383    6.5020   19.4392 C   0  0  2  0  0  0  0  0  0  0  0  0
   50.0472    6.8347   19.4206 C   0  0  0  0  0  0  0  0  0  0  0  0
   50.3462    7.5511   20.7435 C   0  0  0  0  0  0  0  0  0  0  0  0
   49.3546    6.8959   21.6528 C   0  0  0  0  0  0  0  0  0  0  0  0
   48.3291    6.2834   20.9176 C   0  0  0  0  0  0  0  0  0  0  0  0
   47.2776    5.6545   21.5693 C   0  0  0  0  0  0  0  0  0  0  0  0
   49.3532    6.8880   23.0380 C   0  0  0  0  0  0  0  0  0  0  0  0
   48.3050    6.2422   23.6955 C   0  0  0  0  0  0  0  0  0  0  0  0
   47.2748    5.6296   22.9666 C   0  0  0  0  0  0  0  0  0  0  0  0
   49.9414    5.3430   18.8818 N   0  0  0  0  0  0  0  0  0  0  0  0
   49.8856    5.0959   17.4434 C   0  0  0  0  0  0  0  0  0  0  0  0
   49.0492    3.9331   17.1157 C   0  0  0  0  0  0  0  0  0  0  0  0
   48.3663    2.9821   16.8479 C   0  0  0  0  0  0  0  0  0  0  0  0
   48.6888    5.8457   19.4408 C   0  0  2  0  0  0  0  0  0  0  0  0
   48.3340    7.2689   18.9527 C   0  0  0  0  0  0  0  0  0  0  0  0
   47.4769    7.9031   20.0550 C   0  0  0  0  0  0  0  0  0  0  0  0
   48.0485    7.2482   21.2727 C   0  0  0  0  0  0  0  0  0  0  0  0
   48.7500    6.0827   20.9316 C   0  0  0  0  0  0  0  0  0  0  0  0
   49.3188    5.2916   21.9199 C   0  0  0  0  0  0  0  0  0  0  0  0
   47.9098    7.6476   22.5919 C   0  0  0  0  0  0  0  0  0  0  0  0
   48.4967    6.8633   23.5860 C   0  0  0  0  0  0  0  0  0  0  0  0
   49.1959    5.6935   23.2526 C   0  0  0  0  0  0  0  0  0  0  0  0
   47.1582    6.0439   22.7613 H   0  0  0  0  0  0  0  0  0  0  0  0
   50.3464    6.1155   21.1888 H   0  0  0  0  0  0  0  0  0  0  0  0
   48.7296    7.8090   20.1612 H   0  0  0  0  0  0  0  0  0  0  0  0
   46.2654    5.9913   18.4578 H   0  0  0  0  0  0  0  0  0  0  0  0
   50.5575    6.6031   18.3739 H   0  0  0  0  0  0  0  0  0  0  0  0
   49.9265    3.9028   20.3882 H   0  0  0  0  0  0  0  0  0  0  0  0
   47.2286    5.0890   18.7951 H   0  0  0  0  0  0  0  0  0  0  0  0
   47.7650    6.5073   16.9112 H   0  0  0  0  0  0  0  0  0  0  0  0
   49.3937    5.8077   16.9421 H   0  0  0  0  0  0  0  0  0  0  0  0
   47.1281    2.6833   15.2326 H   0  0  0  0  0  0  0  0  0  0  0  0
   47.9486    7.3810   19.1465 H   0  0  0  0  0  0  0  0  0  0  0  0
   50.3336    7.4399   18.5541 H   0  0  0  0  0  0  0  0  0  0  0  0
   50.6408    5.9094   19.3790 H   0  0  0  0  0  0  0  0  0  0  0  0
   50.1404    8.6239   20.6700 H   0  0  0  0  0  0  0  0  0  0  0  0
   51.3794    7.3870   21.0615 H   0  0  0  0  0  0  0  0  0  0  0  0
   46.4705    5.1870   21.0159 H   0  0  0  0  0  0  0  0  0  0  0  0
   50.1454    7.3690   23.6024 H   0  0  0  0  0  0  0  0  0  0  0  0
   48.2837    6.2159   24.7821 H   0  0  0  0  0  0  0  0  0  0  0  0
   46.4643    5.1339   23.4953 H   0  0  0  0  0  0  0  0  0  0  0  0
   50.1825    4.4697   19.3449 H   0  0  0  0  0  0  0  0  0  0  0  0
   50.9078    4.9000   17.0994 H   0  0  0  0  0  0  0  0  0  0  0  0
   49.5518    5.9835   16.8960 H   0  0  0  0  0  0  0  0  0  0  0  0
   47.7599    2.1383   16.6109 H   0  0  0  0  0  0  0  0  0  0  0  0
   47.8540    5.1586   19.2526 H   0  0  0  0  0  0  0  0  0  0  0  0
   49.2480    7.8684   18.8287 H   0  0  0  0  0  0  0  0  0  0  0  0
   47.8173    7.2656   17.9872 H   0  0  0  0  0  0  0  0  0  0  0  0
   46.4214    7.6352   19.9420 H   0  0  0  0  0  0  0  0  0  0  0  0
   47.5892    8.9907   20.0714 H   0  0  0  0  0  0  0  0  0  0  0  0
   49.8496    4.3786   21.6738 H   0  0  0  0  0  0  0  0  0  0  0  0
   47.3600    8.5466   22.8506 H   0  0  0  0  0  0  0  0  0  0  0  0
   48.4081    7.1574   24.6289 H   0  0  0  0  0  0  0  0  0  0  0  0
   49.6422    5.0919   24.0406 H   0  0  0  0  0  0  0  0  0  0  0  0
  1  2  1  0
  2  3  1  0
  3  4  1  0
  4  5  1  0
  5  6  1  0
  2  7  2  0
  4  8  1  0
  3  9  1  0
  5 10  2  0
 12 11  1  0
 15 11  1  0
 12 13  1  0
 13 14  3  0
 16 15  1  0
 19 15  1  0
 16 17  1  0
 17 18  1  0
 18 19  2  0
 18 21  1  0
 20 19  1  0
 23 20  2  0
 21 22  2  0
 22 23  1  0
 25 24  1  0
 28 24  1  0
 25 26  1  0
 26 27  3  0
 29 28  1  0
 32 28  1  0
 29 30  1  0
 30 31  1  0
 31 32  2  0
 31 34  1  0
 33 32  1  0
 36 33  2  0
 34 35  2  0
 35 36  1  0
  1 37  1  0
  3 38  1  6
  4 39  1  1
  6 40  1  0
  8 41  1  0
  9 42  1  0
 11 43  1  0
 12 44  1  0
 12 45  1  0
 14 46  1  0
 15 47  1  1
 16 48  1  0
 16 49  1  0
 17 50  1  0
 17 51  1  0
 20 52  1  0
 21 53  1  0
 22 54  1  0
 23 55  1  0
 24 56  1  0
 25 57  1  0
 25 58  1  0
 27 59  1  0
 28 60  1  1
 29 61  1  0
 29 62  1  0
 30 63  1  0
 30 64  1  0
 33 65  1  0
 34 66  1  0
 35 67  1  0
 36 68  1  0
M  END
> <Uni-Dock RESULT> 
ENERGY=   -4.828  LOWER_BOUND=    1.594  UPPER_BOUND=    4.794
INTER + INTRA:          -4.828
INTER:                  -4.828
INTRA:                   0.000
UNBOUND:                 0.000

$$$$

     RDKit          3D

 68 69  0  0  0  0  0  0  0  0999 V2000
   48.8277    8.1486   23.0436 O   0  0  0  0  0  0  0  0  0  0  0  0
   48.6064    8.0393   21.7215 C   0  0  0  0  0  0  0  0  0  0  0  0
   48.0518    6.6866   21.2949 C   0  0  2  0  0  0  0  0  0  0  0  0
   48.9040    5.5217   21.7952 C   0  0  2  0  0  0  0  0  0  0  0  0
   50.2736    5.5091   21.1214 C   0  0  0  0  0  0  0  0  0  0  0  0
   51.0633    6.5396   21.4867 O   0  0  0  0  0  0  0  0  0  0  0  0
   48.7770    8.9935   20.9769 O   0  0  0  0  0  0  0  0  0  0  0  0
   48.2077    4.2932   21.5272 O   0  0  0  0  0  0  0  0  0  0  0  0
   47.8874    6.5878   19.8727 O   0  0  0  0  0  0  0  0  0  0  0  0
   50.6930    4.6690   20.3404 O   0  0  0  0  0  0  0  0  0  0  0  0
   50.0546    6.0862   20.1448 N   0  0  0  0  0  0  0  0  0  0  0  0
   50.5826    4.8520   19.5735 C   0  0  0  0  0  0  0  0  0  0  0  0
   51.2763    5.1537   18.3140 C   0  0  0  0  0  0  0  0  0  0  0  0
   51.8446    5.4010   17.2850 C   0  0  0  0  0  0  0  0  0  0  0  0
   49.4640    5.8705   21.4616 C   0  0  2  0  0  0  0  0  0  0  0  0
   48.1509    5.0574   21.4104 C   0  0  0  0  0  0  0  0  0  0  0  0
   47.3408    5.4701   22.6458 C   0  0  0  0  0  0  0  0  0  0  0  0
   47.7710    6.8944   22.8057 C   0  0  0  0  0  0  0  0  0  0  0  0
   48.9720    7.1349   22.1223 C   0  0  0  0  0  0  0  0  0  0  0  0
   49.5729    8.3846   22.1776 C   0  0  0  0  0  0  0  0  0  0  0  0
   47.1503    7.8878   23.5453 C   0  0  0  0  0  0  0  0  0  0  0  0
   47.7444    9.1499   23.5891 C   0  0  0  0  0  0  0  0  0  0  0  0
   48.9469    9.3968   22.9100 C   0  0  0  0  0  0  0  0  0  0  0  0
   48.3833    5.5700   19.9239 N   0  0  0  0  0  0  0  0  0  0  0  0
   49.0611    4.7079   18.9592 C   0  0  0  0  0  0  0  0  0  0  0  0
   49.8726    5.4778   18.0065 C   0  0  0  0  0  0  0  0  0  0  0  0
   50.5352    6.1072   17.2271 C   0  0  0  0  0  0  0  0  0  0  0  0
   49.2835    6.1867   20.8952 C   0  0  2  0  0  0  0  0  0  0  0  0
   49.9175    5.1667   21.8685 C   0  0  0  0  0  0  0  0  0  0  0  0
   50.2308    5.9359   23.1576 C   0  0  0  0  0  0  0  0  0  0  0  0
   49.1297    6.9489   23.1598 C   0  0  0  0  0  0  0  0  0  0  0  0
   48.5768    7.0898   21.8786 C   0  0  0  0  0  0  0  0  0  0  0  0
   47.5717    8.0182   21.6466 C   0  0  0  0  0  0  0  0  0  0  0  0
   48.6892    7.7173   24.2249 C   0  0  0  0  0  0  0  0  0  0  0  0
   47.6659    8.6387   23.9978 C   0  0  0  0  0  0  0  0  0  0  0  0
   47.1112    8.7885   22.7179 C   0  0  0  0  0  0  0  0  0  0  0  0
   49.1716    9.0601   23.1621 H   0  0  0  0  0  0  0  0  0  0  0  0
   47.0412    6.6099   21.7129 H   0  0  0  0  0  0  0  0  0  0  0  0
   49.0604    5.5597   22.8782 H   0  0  0  0  0  0  0  0  0  0  0  0
   51.8939    6.3806   20.9875 H   0  0  0  0  0  0  0  0  0  0  0  0
   48.1497    4.2372   20.5520 H   0  0  0  0  0  0  0  0  0  0  0  0
   47.6208    7.4755   19.5616 H   0  0  0  0  0  0  0  0  0  0  0  0
   50.8217    6.7490   20.2323 H   0  0  0  0  0  0  0  0  0  0  0  0
   51.2873    4.3761   20.2653 H   0  0  0  0  0  0  0  0  0  0  0  0
   49.7737    4.1413   19.3728 H   0  0  0  0  0  0  0  0  0  0  0  0
   52.3423    5.6259   16.3703 H   0  0  0  0  0  0  0  0  0  0  0  0
   50.1817    5.3963   22.1443 H   0  0  0  0  0  0  0  0  0  0  0  0
   48.3264    3.9769   21.3789 H   0  0  0  0  0  0  0  0  0  0  0  0
   47.5763    5.3179   20.5091 H   0  0  0  0  0  0  0  0  0  0  0  0
   47.6316    4.8864   23.5252 H   0  0  0  0  0  0  0  0  0  0  0  0
   46.2661    5.3738   22.4687 H   0  0  0  0  0  0  0  0  0  0  0  0
   50.5078    8.5834   21.6652 H   0  0  0  0  0  0  0  0  0  0  0  0
   46.2246    7.6950   24.0777 H   0  0  0  0  0  0  0  0  0  0  0  0
   47.2742    9.9487   24.1571 H   0  0  0  0  0  0  0  0  0  0  0  0
   49.3974   10.3851   22.9579 H   0  0  0  0  0  0  0  0  0  0  0  0
   47.9001    6.3032   19.4099 H   0  0  0  0  0  0  0  0  0  0  0  0
   48.2910    4.1619   18.4021 H   0  0  0  0  0  0  0  0  0  0  0  0
   49.6658    3.9438   19.4587 H   0  0  0  0  0  0  0  0  0  0  0  0
   51.1232    6.6662   16.5362 H   0  0  0  0  0  0  0  0  0  0  0  0
   50.0641    6.7831   20.4058 H   0  0  0  0  0  0  0  0  0  0  0  0
   49.2003    4.3658   22.1019 H   0  0  0  0  0  0  0  0  0  0  0  0
   50.8107    4.6884   21.4531 H   0  0  0  0  0  0  0  0  0  0  0  0
   51.2033    6.4349   23.0969 H   0  0  0  0  0  0  0  0  0  0  0  0
   50.1989    5.2794   24.0315 H   0  0  0  0  0  0  0  0  0  0  0  0
   47.1456    8.1513   20.6583 H   0  0  0  0  0  0  0  0  0  0  0  0
   49.1255    7.6090   25.2125 H   0  0  0  0  0  0  0  0  0  0  0  0
   47.2974    9.2500   24.8178 H   0  0  0  0  0  0  0  0  0  0  0  0
   46.3183    9.5150   22.5581 H   0  0  0  0  0  0  0  0  0  0  0  0
  1  2  1  0
  2  3  1  0
  3  4  1  0
  4  5  1  0
  5  6  1  0
  2  7  2  0
  4  8  1  0
  3  9  1  0
  5 10  2  0
 12 11  1  0
 15 11  1  0
 12 13  1  0
 13 14  3  0
 16 15  1  0
 19 15  1  0
 16 17  1  0
 17 18  1  0
 18 19  2  0
 18 21  1  0
 20 19  1  0
 23 20  2  0
 21 22  2  0
 22 23  1  0
 25 24  1  0
 28 24  1  0
 25 26  1  0
 26 27  3  0
 29 28  1  0
 32 28  1  0
 29 30  1  0
 30 31  1  0
 31 32  2  0
 31 34  1  0
 33 32  1  0
 36 33  2  0
 34 35  2  0
 35 36  1  0
  1 37  1  0
  3 38  1  6
  4 39  1  1
  6 40  1  0
  8 41  1  0
  9 42  1  0
 11 43  1  0
 12 44  1  0
 12 45  1  0
 14 46  1  0
 15 47  1  1
 16 48  1  0
 16 49  1  0
 17 50  1  0
 17 51  1  0
 20 52  1  0
 21 53  1  0
 22 54  1  0
 23 55  1  0
 24 56  1  0
 25 57  1  0
 25 58  1  0
 27 59  1  0
 28 60  1  1
 29 61  1  0
 29 62  1  0
 30 63  1  0
 30 64  1  0
 33 65  1  0
 34 66  1  0
 35 67  1  0
 36 68  1  0
M  END
> <Uni-Dock RESULT> 
ENERGY=   -4.781  LOWER_BOUND=    2.220  UPPER_BOUND=    5.128
INTER + INTRA:          -4.781
INTER:                  -4.781
INTRA:                   0.000
UNBOUND:                 0.000

$$$$

     RDKit          3D

 68 69  0  0  0  0  0  0  0  0999 V2000
   49.0816    8.8565   15.0290 O   0  0  0  0  0  0  0  0  0  0  0  0
   48.5831    7.6168   14.8760 C   0  0  0  0  0  0  0  0  0  0  0  0
   48.6513    7.0925   13.4478 C   0  0  2  0  0  0  0  0  0  0  0  0
   48.0200    8.0534   12.4419 C   0  0  2  0  0  0  0  0  0  0  0  0
   46.5115    8.1591   12.6497 C   0  0  0  0  0  0  0  0  0  0  0  0
   46.1678    8.7769   13.7983 O   0  0  0  0  0  0  0  0  0  0  0  0
   48.1916    6.9757   15.8403 O   0  0  0  0  0  0  0  0  0  0  0  0
   48.3064    7.5837   11.1141 O   0  0  0  0  0  0  0  0  0  0  0  0
   48.0551    5.7940   13.3138 O   0  0  0  0  0  0  0  0  0  0  0  0
   45.6423    7.7709   11.8846 O   0  0  0  0  0  0  0  0  0  0  0  0
   46.2814    7.1569   13.1765 N   0  0  0  0  0  0  0  0  0  0  0  0
   45.3719    7.0389   12.0419 C   0  0  0  0  0  0  0  0  0  0  0  0
   44.1840    6.2740   12.4448 C   0  0  0  0  0  0  0  0  0  0  0  0
   43.2122    5.6499   12.7752 C   0  0  0  0  0  0  0  0  0  0  0  0
   47.4226    8.0150   12.8756 C   0  0  2  0  0  0  0  0  0  0  0  0
   48.4009    7.3866   11.8577 C   0  0  0  0  0  0  0  0  0  0  0  0
   49.7741    8.0089   12.1402 C   0  0  0  0  0  0  0  0  0  0  0  0
   49.6861    8.2349   13.6169 C   0  0  0  0  0  0  0  0  0  0  0  0
   48.3510    8.2255   14.0466 C   0  0  0  0  0  0  0  0  0  0  0  0
   48.0406    8.4622   15.3783 C   0  0  0  0  0  0  0  0  0  0  0  0
   50.7267    8.4731   14.4998 C   0  0  0  0  0  0  0  0  0  0  0  0
   50.4179    8.6955   15.8426 C   0  0  0  0  0  0  0  0  0  0  0  0
   49.0846    8.6899   16.2789 C   0  0  0  0  0  0  0  0  0  0  0  0
   47.5189    6.1768   12.3916 N   0  0  0  0  0  0  0  0  0  0  0  0
   46.3337    5.7616   11.6459 C   0  0  0  0  0  0  0  0  0  0  0  0
   45.2660    5.2782   12.5322 C   0  0  0  0  0  0  0  0  0  0  0  0
   44.3936    4.8822   13.2565 C   0  0  0  0  0  0  0  0  0  0  0  0
   47.3320    7.4087   13.1542 C   0  0  2  0  0  0  0  0  0  0  0  0
   47.1465    8.6550   12.2586 C   0  0  0  0  0  0  0  0  0  0  0  0
   47.6411    9.8536   13.0774 C   0  0  0  0  0  0  0  0  0  0  0  0
   48.7182    9.2145   13.8959 C   0  0  0  0  0  0  0  0  0  0  0  0
   48.5571    7.8219   13.9356 C   0  0  0  0  0  0  0  0  0  0  0  0
   49.4219    7.0367   14.6849 C   0  0  0  0  0  0  0  0  0  0  0  0
   49.7398    9.8433   14.5888 C   0  0  0  0  0  0  0  0  0  0  0  0
   50.6217    9.0538   15.3282 C   0  0  0  0  0  0  0  0  0  0  0  0
   50.4639    7.6606   15.3763 C   0  0  0  0  0  0  0  0  0  0  0  0
   48.9751    9.0494   15.9854 H   0  0  0  0  0  0  0  0  0  0  0  0
   49.7123    6.9539   13.2091 H   0  0  0  0  0  0  0  0  0  0  0  0
   48.4424    9.0610   12.5124 H   0  0  0  0  0  0  0  0  0  0  0  0
   45.1861    8.7764   13.7744 H   0  0  0  0  0  0  0  0  0  0  0  0
   47.8527    6.7197   11.0427 H   0  0  0  0  0  0  0  0  0  0  0  0
   48.2462    5.3136   14.1436 H   0  0  0  0  0  0  0  0  0  0  0  0
   45.7650    7.5569   13.9568 H   0  0  0  0  0  0  0  0  0  0  0  0
   45.0584    8.0296   11.6928 H   0  0  0  0  0  0  0  0  0  0  0  0
   45.8597    6.5247   11.2067 H   0  0  0  0  0  0  0  0  0  0  0  0
   42.3554    5.0908   13.0726 H   0  0  0  0  0  0  0  0  0  0  0  0
   47.0937    9.0042   12.5303 H   0  0  0  0  0  0  0  0  0  0  0  0
   48.0865    7.5435   10.8205 H   0  0  0  0  0  0  0  0  0  0  0  0
   48.4675    6.2998   12.0144 H   0  0  0  0  0  0  0  0  0  0  0  0
   49.8930    8.9638   11.6180 H   0  0  0  0  0  0  0  0  0  0  0  0
   50.5846    7.3274   11.8676 H   0  0  0  0  0  0  0  0  0  0  0  0
   47.0129    8.4707   15.7244 H   0  0  0  0  0  0  0  0  0  0  0  0
   51.7576    8.4859   14.1613 H   0  0  0  0  0  0  0  0  0  0  0  0
   51.2164    8.8784   16.5572 H   0  0  0  0  0  0  0  0  0  0  0  0
   48.8622    8.8684   17.3281 H   0  0  0  0  0  0  0  0  0  0  0  0
   47.7699    5.4270   13.0321 H   0  0  0  0  0  0  0  0  0  0  0  0
   46.6301    4.9452   10.9772 H   0  0  0  0  0  0  0  0  0  0  0  0
   45.9678    6.5623   10.9948 H   0  0  0  0  0  0  0  0  0  0  0  0
   43.6198    4.5313   13.8998 H   0  0  0  0  0  0  0  0  0  0  0  0
   46.5020    7.3244   13.8672 H   0  0  0  0  0  0  0  0  0  0  0  0
   47.7643    8.5687   11.3525 H   0  0  0  0  0  0  0  0  0  0  0  0
   46.1101    8.7865   11.9306 H   0  0  0  0  0  0  0  0  0  0  0  0
   46.8522   10.2432   13.7289 H   0  0  0  0  0  0  0  0  0  0  0  0
   48.0215   10.6489   12.4305 H   0  0  0  0  0  0  0  0  0  0  0  0
   49.3005    5.9605   14.7396 H   0  0  0  0  0  0  0  0  0  0  0  0
   49.8555   10.9218   14.5602 H   0  0  0  0  0  0  0  0  0  0  0  0
   51.4359    9.5214   15.8763 H   0  0  0  0  0  0  0  0  0  0  0  0
   51.1572    7.0617   15.9617 H   0  0  0  0  0  0  0  0  0  0  0  0
  1  2  1  0
  2  3  1  0
  3  4  1  0
  4  5  1  0
  5  6  1  0
  2  7  2  0
  4  8  1  0
  3  9  1  0
  5 10  2  0
 12 11  1  0
 15 11  1  0
 12 13  1  0
 13 14  3  0
 16 15  1  0
 19 15  1  0
 16 17  1  0
 17 18  1  0
 18 19  2  0
 18 21  1  0
 20 19  1  0
 23 20  2  0
 21 22  2  0
 22 23  1  0
 25 24  1  0
 28 24  1  0
 25 26  1  0
 26 27  3  0
 29 28  1  0
 32 28  1  0
 29 30  1  0
 30 31  1  0
 31 32  2  0
 31 34  1  0
 33 32  1  0
 36 33  2  0
 34 35  2  0
 35 36  1  0
  1 37  1  0
  3 38  1  6
  4 39  1  1
  6 40  1  0
  8 41  1  0
  9 42  1  0
 11 43  1  0
 12 44  1  0
 12 45  1  0
 14 46  1  0
 15 47  1  1
 16 48  1  0
 16 49  1  0
 17 50  1  0
 17 51  1  0
 20 52  1  0
 21 53  1  0
 22 54  1  0
 23 55  1  0
 24 56  1  0
 25 57  1  0
 25 58  1  0
 27 59  1  0
 28 60  1  1
 29 61  1  0
 29 62  1  0
 30 63  1  0
 30 64  1  0
 33 65  1  0
 34 66  1  0
 35 67  1  0
 36 68  1  0
M  END
> <Uni-Dock RESULT> 
ENERGY=   -4.755  LOWER_BOUND=    5.289  UPPER_BOUND=    7.975
INTER + INTRA:          -4.755
INTER:                  -4.755
INTRA:                   0.000
UNBOUND:                 0.000

$$$$

     RDKit          3D

 68 69  0  0  0  0  0  0  0  0999 V2000
   48.0913    4.0541   18.4262 O   0  0  0  0  0  0  0  0  0  0  0  0
   48.2137    5.3243   18.0017 C   0  0  0  0  0  0  0  0  0  0  0  0
   49.3540    6.0909   18.6586 C   0  0  2  0  0  0  0  0  0  0  0  0
   49.2912    6.0377   20.1841 C   0  0  2  0  0  0  0  0  0  0  0  0
   48.0770    6.7958   20.7143 C   0  0  0  0  0  0  0  0  0  0  0  0
   46.9015    6.2041   20.4193 O   0  0  0  0  0  0  0  0  0  0  0  0
   47.4995    5.7583   17.1098 O   0  0  0  0  0  0  0  0  0  0  0  0
   50.5007    6.6044   20.7148 O   0  0  0  0  0  0  0  0  0  0  0  0
   49.4136    7.4579   18.2259 O   0  0  0  0  0  0  0  0  0  0  0  0
   48.0914    7.8258   21.3704 O   0  0  0  0  0  0  0  0  0  0  0  0
   47.8690    7.5313   19.8479 N   0  0  0  0  0  0  0  0  0  0  0  0
   48.0178    8.4899   20.9377 C   0  0  0  0  0  0  0  0  0  0  0  0
   47.1563    9.6532   20.6868 C   0  0  0  0  0  0  0  0  0  0  0  0
   46.4505   10.6034   20.4819 C   0  0  0  0  0  0  0  0  0  0  0  0
   48.6035    6.2963   20.1018 C   0  0  2  0  0  0  0  0  0  0  0  0
   50.1366    6.4804   20.0419 C   0  0  0  0  0  0  0  0  0  0  0  0
   50.7192    5.1150   19.6557 C   0  0  0  0  0  0  0  0  0  0  0  0
   49.6219    4.5698   18.7966 C   0  0  0  0  0  0  0  0  0  0  0  0
   48.4166    5.2466   19.0338 C   0  0  0  0  0  0  0  0  0  0  0  0
   47.2569    4.8677   18.3723 C   0  0  0  0  0  0  0  0  0  0  0  0
   49.6935    3.5162   17.9000 C   0  0  0  0  0  0  0  0  0  0  0  0
   48.5320    3.1439   17.2217 C   0  0  0  0  0  0  0  0  0  0  0  0
   47.3225    3.8148   17.4558 C   0  0  0  0  0  0  0  0  0  0  0  0
   49.5334    7.7573   19.3124 N   0  0  0  0  0  0  0  0  0  0  0  0
   49.3239    8.9899   20.0673 C   0  0  0  0  0  0  0  0  0  0  0  0
   48.1450    9.7305   19.5975 C   0  0  0  0  0  0  0  0  0  0  0  0
   47.1819   10.3365   19.2129 C   0  0  0  0  0  0  0  0  0  0  0  0
   48.5377    6.7239   19.5859 C   0  0  2  0  0  0  0  0  0  0  0  0
   48.6271    6.1597   21.0223 C   0  0  0  0  0  0  0  0  0  0  0  0
   48.0771    4.7295   20.9602 C   0  0  0  0  0  0  0  0  0  0  0  0
   48.4767    4.3304   19.5748 C   0  0  0  0  0  0  0  0  0  0  0  0
   48.7520    5.4587   18.7887 C   0  0  0  0  0  0  0  0  0  0  0  0
   49.0931    5.3156   17.4511 C   0  0  0  0  0  0  0  0  0  0  0  0
   48.5440    3.0504   19.0493 C   0  0  0  0  0  0  0  0  0  0  0  0
   48.9048    2.9032   17.7092 C   0  0  0  0  0  0  0  0  0  0  0  0
   49.1770    4.0275   16.9155 C   0  0  0  0  0  0  0  0  0  0  0  0
   47.3325    3.6955   17.9174 H   0  0  0  0  0  0  0  0  0  0  0  0
   50.2878    5.6327   18.3122 H   0  0  0  0  0  0  0  0  0  0  0  0
   49.2390    5.0107   20.5596 H   0  0  0  0  0  0  0  0  0  0  0  0
   46.2363    6.7955   20.8342 H   0  0  0  0  0  0  0  0  0  0  0  0
   50.4892    7.5428   20.4375 H   0  0  0  0  0  0  0  0  0  0  0  0
   49.1441    7.4637   17.2861 H   0  0  0  0  0  0  0  0  0  0  0  0
   46.8800    7.3124   19.7507 H   0  0  0  0  0  0  0  0  0  0  0  0
   47.7355    8.0349   21.8942 H   0  0  0  0  0  0  0  0  0  0  0  0
   49.0569    8.8272   21.0171 H   0  0  0  0  0  0  0  0  0  0  0  0
   45.8269   11.4461   20.2919 H   0  0  0  0  0  0  0  0  0  0  0  0
   48.3085    5.8505   21.0611 H   0  0  0  0  0  0  0  0  0  0  0  0
   50.5527    6.8505   20.9848 H   0  0  0  0  0  0  0  0  0  0  0  0
   50.4025    7.2101   19.2627 H   0  0  0  0  0  0  0  0  0  0  0  0
   50.8610    4.4798   20.5361 H   0  0  0  0  0  0  0  0  0  0  0  0
   51.6625    5.2226   19.1134 H   0  0  0  0  0  0  0  0  0  0  0  0
   46.3143    5.3725   18.5535 H   0  0  0  0  0  0  0  0  0  0  0  0
   50.6270    2.9914   17.7249 H   0  0  0  0  0  0  0  0  0  0  0  0
   48.5626    2.3244   16.5079 H   0  0  0  0  0  0  0  0  0  0  0  0
   46.4266    3.5091   16.9209 H   0  0  0  0  0  0  0  0  0  0  0  0
   49.5096    7.9843   18.3208 H   0  0  0  0  0  0  0  0  0  0  0  0
   50.2107    9.6194   19.9298 H   0  0  0  0  0  0  0  0  0  0  0  0
   49.2598    8.7961   21.1431 H   0  0  0  0  0  0  0  0  0  0  0  0
   46.3270   10.8734   18.8714 H   0  0  0  0  0  0  0  0  0  0  0  0
   47.5190    7.0742   19.3763 H   0  0  0  0  0  0  0  0  0  0  0  0
   49.6760    6.1195   21.3515 H   0  0  0  0  0  0  0  0  0  0  0  0
   48.0844    6.7728   21.7494 H   0  0  0  0  0  0  0  0  0  0  0  0
   46.9867    4.7179   21.0573 H   0  0  0  0  0  0  0  0  0  0  0  0
   48.5297    4.0945   21.7269 H   0  0  0  0  0  0  0  0  0  0  0  0
   49.2924    6.1787   16.8256 H   0  0  0  0  0  0  0  0  0  0  0  0
   48.3231    2.1813   19.6604 H   0  0  0  0  0  0  0  0  0  0  0  0
   48.9710    1.9093   17.2735 H   0  0  0  0  0  0  0  0  0  0  0  0
   49.4514    3.8942   15.8720 H   0  0  0  0  0  0  0  0  0  0  0  0
  1  2  1  0
  2  3  1  0
  3  4  1  0
  4  5  1  0
  5  6  1  0
  2  7  2  0
  4  8  1  0
  3  9  1  0
  5 10  2  0
 12 11  1  0
 15 11  1  0
 12 13  1  0
 13 14  3  0
 16 15  1  0
 19 15  1  0
 16 17  1  0
 17 18  1  0
 18 19  2  0
 18 21  1  0
 20 19  1  0
 23 20  2  0
 21 22  2  0
 22 23  1  0
 25 24  1  0
 28 24  1  0
 25 26  1  0
 26 27  3  0
 29 28  1  0
 32 28  1  0
 29 30  1  0
 30 31  1  0
 31 32  2  0
 31 34  1  0
 33 32  1  0
 36 33  2  0
 34 35  2  0
 35 36  1  0
  1 37  1  0
  3 38  1  6
  4 39  1  1
  6 40  1  0
  8 41  1  0
  9 42  1  0
 11 43  1  0
 12 44  1  0
 12 45  1  0
 14 46  1  0
 15 47  1  1
 16 48  1  0
 16 49  1  0
 17 50  1  0
 17 51  1  0
 20 52  1  0
 21 53  1  0
 22 54  1  0
 23 55  1  0
 24 56  1  0
 25 57  1  0
 25 58  1  0
 27 59  1  0
 28 60  1  1
 29 61  1  0
 29 62  1  0
 30 63  1  0
 30 64  1  0
 33 65  1  0
 34 66  1  0
 35 67  1  0
 36 68  1  0
M  END
> <Uni-Dock RESULT> 
ENERGY=   -4.741  LOWER_BOUND=    1.855  UPPER_BOUND=    3.562
INTER + INTRA:          -4.741
INTER:                  -4.741
INTRA:                   0.000
UNBOUND:                 0.000

$$$$

     RDKit          3D

 68 69  0  0  0  0  0  0  0  0999 V2000
   47.9572    9.2512   20.9066 O   0  0  0  0  0  0  0  0  0  0  0  0
   48.8825   10.0145   20.2984 C   0  0  0  0  0  0  0  0  0  0  0  0
   48.8289   11.4851   20.6904 C   0  0  2  0  0  0  0  0  0  0  0  0
   47.4357   12.0864   20.5138 C   0  0  2  0  0  0  0  0  0  0  0  0
   47.0462   12.1557   19.0395 C   0  0  0  0  0  0  0  0  0  0  0  0
   46.8427   10.9462   18.4785 O   0  0  0  0  0  0  0  0  0  0  0  0
   49.7213    9.5151   19.5627 O   0  0  0  0  0  0  0  0  0  0  0  0
   47.4252   13.4020   21.0923 O   0  0  0  0  0  0  0  0  0  0  0  0
   49.7896   12.2761   19.9756 O   0  0  0  0  0  0  0  0  0  0  0  0
   46.8890   13.1682   18.3749 O   0  0  0  0  0  0  0  0  0  0  0  0
   48.0823   12.1648   18.5282 N   0  0  0  0  0  0  0  0  0  0  0  0
   47.5346   13.3958   17.9686 C   0  0  0  0  0  0  0  0  0  0  0  0
   48.0750   13.6018   16.6180 C   0  0  0  0  0  0  0  0  0  0  0  0
   48.5159   13.7690   15.5132 C   0  0  0  0  0  0  0  0  0  0  0  0
   47.4856   11.8381   19.8192 C   0  0  2  0  0  0  0  0  0  0  0  0
   47.9049   12.8116   20.9437 C   0  0  0  0  0  0  0  0  0  0  0  0
   47.7961   12.0253   22.2562 C   0  0  0  0  0  0  0  0  0  0  0  0
   48.1293   10.6433   21.7888 C   0  0  0  0  0  0  0  0  0  0  0  0
   47.9691   10.5318   20.3999 C   0  0  0  0  0  0  0  0  0  0  0  0
   48.1830    9.3171   19.7639 C   0  0  0  0  0  0  0  0  0  0  0  0
   48.5074    9.5571   22.5611 C   0  0  0  0  0  0  0  0  0  0  0  0
   48.7386    8.3384   21.9215 C   0  0  0  0  0  0  0  0  0  0  0  0
   48.5779    8.2191   20.5330 C   0  0  0  0  0  0  0  0  0  0  0  0
   48.9675   13.0319   19.7823 N   0  0  0  0  0  0  0  0  0  0  0  0
   48.7634   14.1012   18.8086 C   0  0  0  0  0  0  0  0  0  0  0  0
   49.2646   13.7367   17.4763 C   0  0  0  0  0  0  0  0  0  0  0  0
   49.6750   13.4393   16.3875 C   0  0  0  0  0  0  0  0  0  0  0  0
   48.1093   11.8695   19.5674 C   0  0  2  0  0  0  0  0  0  0  0  0
   46.6134   12.1635   19.8236 C   0  0  0  0  0  0  0  0  0  0  0  0
   45.9749   10.8310   20.2344 C   0  0  0  0  0  0  0  0  0  0  0  0
   47.1205   10.1695   20.9331 C   0  0  0  0  0  0  0  0  0  0  0  0
   48.3385   10.7616   20.5685 C   0  0  0  0  0  0  0  0  0  0  0  0
   49.5360   10.2654   21.0644 C   0  0  0  0  0  0  0  0  0  0  0  0
   47.0736    9.0878   21.7973 C   0  0  0  0  0  0  0  0  0  0  0  0
   48.2754    8.5988   22.3115 C   0  0  0  0  0  0  0  0  0  0  0  0
   49.4979    9.1831   21.9475 C   0  0  0  0  0  0  0  0  0  0  0  0
   48.1193    8.3460   20.5637 H   0  0  0  0  0  0  0  0  0  0  0  0
   49.1253   11.5455   21.7441 H   0  0  0  0  0  0  0  0  0  0  0  0
   46.6676   11.5101   21.0396 H   0  0  0  0  0  0  0  0  0  0  0  0
   46.5910   11.1613   17.5540 H   0  0  0  0  0  0  0  0  0  0  0  0
   48.0571   13.9239   20.5575 H   0  0  0  0  0  0  0  0  0  0  0  0
   50.5785   11.7116   19.8537 H   0  0  0  0  0  0  0  0  0  0  0  0
   47.8916   11.4074   17.8760 H   0  0  0  0  0  0  0  0  0  0  0  0
   46.4411   13.3421   17.9124 H   0  0  0  0  0  0  0  0  0  0  0  0
   47.7994   14.2561   18.5928 H   0  0  0  0  0  0  0  0  0  0  0  0
   48.9148   13.9147   14.5361 H   0  0  0  0  0  0  0  0  0  0  0  0
   46.3911   11.7849   19.7471 H   0  0  0  0  0  0  0  0  0  0  0  0
   47.2960   13.7216   20.9607 H   0  0  0  0  0  0  0  0  0  0  0  0
   48.9505   13.1248   20.8062 H   0  0  0  0  0  0  0  0  0  0  0  0
   46.7765   12.0543   22.6538 H   0  0  0  0  0  0  0  0  0  0  0  0
   48.5022   12.3970   23.0037 H   0  0  0  0  0  0  0  0  0  0  0  0
   48.0514    9.2110   18.6927 H   0  0  0  0  0  0  0  0  0  0  0  0
   48.6236    9.6468   23.6362 H   0  0  0  0  0  0  0  0  0  0  0  0
   49.0426    7.4721   22.5037 H   0  0  0  0  0  0  0  0  0  0  0  0
   48.7591    7.2611   20.0518 H   0  0  0  0  0  0  0  0  0  0  0  0
   49.9403   12.7378   19.7317 H   0  0  0  0  0  0  0  0  0  0  0  0
   49.3133   14.9816   19.1608 H   0  0  0  0  0  0  0  0  0  0  0  0
   47.7127   14.4056   18.7606 H   0  0  0  0  0  0  0  0  0  0  0  0
   50.0391   13.1745   15.4215 H   0  0  0  0  0  0  0  0  0  0  0  0
   48.2478   11.4403   18.5668 H   0  0  0  0  0  0  0  0  0  0  0  0
   46.5018   12.8777   20.6527 H   0  0  0  0  0  0  0  0  0  0  0  0
   46.1157   12.6012   18.9519 H   0  0  0  0  0  0  0  0  0  0  0  0
   45.6774   10.2455   19.3585 H   0  0  0  0  0  0  0  0  0  0  0  0
   45.1154   10.9867   20.8923 H   0  0  0  0  0  0  0  0  0  0  0  0
   50.4870   10.7012   20.7788 H   0  0  0  0  0  0  0  0  0  0  0  0
   46.1289    8.6291   22.0705 H   0  0  0  0  0  0  0  0  0  0  0  0
   48.2663    7.7547   22.9965 H   0  0  0  0  0  0  0  0  0  0  0  0
   50.4248    8.7857   22.3538 H   0  0  0  0  0  0  0  0  0  0  0  0
  1  2  1  0
  2  3  1  0
  3  4  1  0
  4  5  1  0
  5  6  1  0
  2  7  2  0
  4  8  1  0
  3  9  1  0
  5 10  2  0
 12 11  1  0
 15 11  1  0
 12 13  1  0
 13 14  3  0
 16 15  1  0
 19 15  1  0
 16 17  1  0
 17 18  1  0
 18 19  2  0
 18 21  1  0
 20 19  1  0
 23 20  2  0
 21 22  2  0
 22 23  1  0
 25 24  1  0
 28 24  1  0
 25 26  1  0
 26 27  3  0
 29 28  1  0
 32 28  1  0
 29 30  1  0
 30 31  1  0
 31 32  2  0
 31 34  1  0
 33 32  1  0
 36 33  2  0
 34 35  2  0
 35 36  1  0
  1 37  1  0
  3 38  1  6
  4 39  1  1
  6 40  1  0
  8 41  1  0
  9 42  1  0
 11 43  1  0
 12 44  1  0
 12 45  1  0
 14 46  1  0
 15 47  1  1
 16 48  1  0
 16 49  1  0
 17 50  1  0
 17 51  1  0
 20 52  1  0
 21 53  1  0
 22 54  1  0
 23 55  1  0
 24 56  1  0
 25 57  1  0
 25 58  1  0
 27 59  1  0
 28 60  1  1
 29 61  1  0
 29 62  1  0
 30 63  1  0
 30 64  1  0
 33 65  1  0
 34 66  1  0
 35 67  1  0
 36 68  1  0
M  END
> <Uni-Dock RESULT> 
ENERGY=   -4.568  LOWER_BOUND=    5.410  UPPER_BOUND=    7.509
INTER + INTRA:          -4.568
INTER:                  -4.568
INTRA:                   0.000
UNBOUND:                 0.000

$$$$

     RDKit          3D

 68 69  0  0  0  0  0  0  0  0999 V2000
   48.0307    7.9271   13.5669 O   0  0  0  0  0  0  0  0  0  0  0  0
   48.1448    9.2672   13.5611 C   0  0  0  0  0  0  0  0  0  0  0  0
   49.4654    9.7800   14.1201 C   0  0  2  0  0  0  0  0  0  0  0  0
   49.7682    9.2207   15.5092 C   0  0  2  0  0  0  0  0  0  0  0  0
   48.7798    9.7490   16.5455 C   0  0  0  0  0  0  0  0  0  0  0  0
   47.5258    9.2803   16.3821 O   0  0  0  0  0  0  0  0  0  0  0  0
   47.2722    9.9680   13.0696 O   0  0  0  0  0  0  0  0  0  0  0  0
   51.1100    9.5877   15.8708 O   0  0  0  0  0  0  0  0  0  0  0  0
   49.5242   11.2134   14.1541 O   0  0  0  0  0  0  0  0  0  0  0  0
   49.0313   10.5014   17.4741 O   0  0  0  0  0  0  0  0  0  0  0  0
   48.4264   10.7296   16.0470 N   0  0  0  0  0  0  0  0  0  0  0  0
   48.9070   11.2712   17.3137 C   0  0  0  0  0  0  0  0  0  0  0  0
   48.1027   12.4447   17.6803 C   0  0  0  0  0  0  0  0  0  0  0  0
   47.4438   13.4033   17.9805 C   0  0  0  0  0  0  0  0  0  0  0  0
   49.1030    9.4865   15.6920 C   0  0  2  0  0  0  0  0  0  0  0  0
   50.5860    9.6922   15.3093 C   0  0  0  0  0  0  0  0  0  0  0  0
   50.9512    8.5383   14.3670 C   0  0  0  0  0  0  0  0  0  0  0  0
   49.6405    8.3020   13.6846 C   0  0  0  0  0  0  0  0  0  0  0  0
   48.5838    8.8515   14.4253 C   0  0  0  0  0  0  0  0  0  0  0  0
   47.2732    8.7056   13.9928 C   0  0  0  0  0  0  0  0  0  0  0  0
   49.4125    7.6082   12.5075 C   0  0  0  0  0  0  0  0  0  0  0  0
   48.0966    7.4741   12.0622 C   0  0  0  0  0  0  0  0  0  0  0  0
   47.0345    8.0190   12.7992 C   0  0  0  0  0  0  0  0  0  0  0  0
   49.9251   11.1344   15.2113 N   0  0  0  0  0  0  0  0  0  0  0  0
   49.9993   12.0431   16.3522 C   0  0  0  0  0  0  0  0  0  0  0  0
   48.8027   12.8886   16.4625 C   0  0  0  0  0  0  0  0  0  0  0  0
   47.8250   13.5805   16.5522 C   0  0  0  0  0  0  0  0  0  0  0  0
   48.9480   10.0611   15.3772 C   0  0  2  0  0  0  0  0  0  0  0  0
   49.3372    9.0510   16.4807 C   0  0  0  0  0  0  0  0  0  0  0  0
   48.6799    7.7190   16.0992 C   0  0  0  0  0  0  0  0  0  0  0  0
   48.7017    7.8078   14.6059 C   0  0  0  0  0  0  0  0  0  0  0  0
   48.8656    9.1358   14.1858 C   0  0  0  0  0  0  0  0  0  0  0  0
   48.8622    9.4495   12.8339 C   0  0  0  0  0  0  0  0  0  0  0  0
   48.5415    6.7768   13.6947 C   0  0  0  0  0  0  0  0  0  0  0  0
   48.5561    7.0876   12.3342 C   0  0  0  0  0  0  0  0  0  0  0  0
   48.7149    8.4144   11.9067 C   0  0  0  0  0  0  0  0  0  0  0  0
   47.1463    7.7528   13.1788 H   0  0  0  0  0  0  0  0  0  0  0  0
   50.2499    9.4709   13.4195 H   0  0  0  0  0  0  0  0  0  0  0  0
   49.7290    8.1269   15.5314 H   0  0  0  0  0  0  0  0  0  0  0  0
   47.0279    9.6942   17.1204 H   0  0  0  0  0  0  0  0  0  0  0  0
   51.1043   10.5647   15.9255 H   0  0  0  0  0  0  0  0  0  0  0  0
   49.0373   11.5300   13.3675 H   0  0  0  0  0  0  0  0  0  0  0  0
   47.4293   10.5478   16.1376 H   0  0  0  0  0  0  0  0  0  0  0  0
   48.8294   10.5211   18.1093 H   0  0  0  0  0  0  0  0  0  0  0  0
   49.9574   11.5710   17.2327 H   0  0  0  0  0  0  0  0  0  0  0  0
   46.8597   14.2561   18.2384 H   0  0  0  0  0  0  0  0  0  0  0  0
   49.0145    8.7441   16.4964 H   0  0  0  0  0  0  0  0  0  0  0  0
   51.2444    9.7301   16.1836 H   0  0  0  0  0  0  0  0  0  0  0  0
   50.7117   10.6419   14.7686 H   0  0  0  0  0  0  0  0  0  0  0  0
   51.2517    7.6471   14.9275 H   0  0  0  0  0  0  0  0  0  0  0  0
   51.7414    8.8280   13.6690 H   0  0  0  0  0  0  0  0  0  0  0  0
   46.4439    9.1136   14.5602 H   0  0  0  0  0  0  0  0  0  0  0  0
   50.2329    7.1792   11.9415 H   0  0  0  0  0  0  0  0  0  0  0  0
   47.8910    6.9398   11.1381 H   0  0  0  0  0  0  0  0  0  0  0  0
   46.0154    7.9020   12.4391 H   0  0  0  0  0  0  0  0  0  0  0  0
   49.6805   11.6788   14.3872 H   0  0  0  0  0  0  0  0  0  0  0  0
   50.8726   12.6895   16.2068 H   0  0  0  0  0  0  0  0  0  0  0  0
   50.1817   11.5012   17.2861 H   0  0  0  0  0  0  0  0  0  0  0  0
   46.9570   14.1937   16.6313 H   0  0  0  0  0  0  0  0  0  0  0  0
   47.9389   10.4531   15.5575 H   0  0  0  0  0  0  0  0  0  0  0  0
   50.4282    8.9116   16.5024 H   0  0  0  0  0  0  0  0  0  0  0  0
   49.0347    9.3823   17.4796 H   0  0  0  0  0  0  0  0  0  0  0  0
   47.6475    7.6671   16.4598 H   0  0  0  0  0  0  0  0  0  0  0  0
   49.2535    6.8684   16.4776 H   0  0  0  0  0  0  0  0  0  0  0  0
   48.9707   10.4733   12.4935 H   0  0  0  0  0  0  0  0  0  0  0  0
   48.4080    5.7520   14.0255 H   0  0  0  0  0  0  0  0  0  0  0  0
   48.4386    6.2964   11.5979 H   0  0  0  0  0  0  0  0  0  0  0  0
   48.7185    8.6388   10.8429 H   0  0  0  0  0  0  0  0  0  0  0  0
  1  2  1  0
  2  3  1  0
  3  4  1  0
  4  5  1  0
  5  6  1  0
  2  7  2  0
  4  8  1  0
  3  9  1  0
  5 10  2  0
 12 11  1  0
 15 11  1  0
 12 13  1  0
 13 14  3  0
 16 15  1  0
 19 15  1  0
 16 17  1  0
 17 18  1  0
 18 19  2  0
 18 21  1  0
 20 19  1  0
 23 20  2  0
 21 22  2  0
 22 23  1  0
 25 24  1  0
 28 24  1  0
 25 26  1  0
 26 27  3  0
 29 28  1  0
 32 28  1  0
 29 30  1  0
 30 31  1  0
 31 32  2  0
 31 34  1  0
 33 32  1  0
 36 33  2  0
 34 35  2  0
 35 36  1  0
  1 37  1  0
  3 38  1  6
  4 39  1  1
  6 40  1  0
  8 41  1  0
  9 42  1  0
 11 43  1  0
 12 44  1  0
 12 45  1  0
 14 46  1  0
 15 47  1  1
 16 48  1  0
 16 49  1  0
 17 50  1  0
 17 51  1  0
 20 52  1  0
 21 53  1  0
 22 54  1  0
 23 55  1  0
 24 56  1  0
 25 57  1  0
 25 58  1  0
 27 59  1  0
 28 60  1  1
 29 61  1  0
 29 62  1  0
 30 63  1  0
 30 64  1  0
 33 65  1  0
 34 66  1  0
 35 67  1  0
 36 68  1  0
M  END
> <Uni-Dock RESULT> 
ENERGY=   -4.553  LOWER_BOUND=    5.168  UPPER_BOUND=    6.981
INTER + INTRA:          -4.553
INTER:                  -4.553
INTRA:                   0.000
UNBOUND:                 0.000

$$$$

     RDKit          3D

 68 69  0  0  0  0  0  0  0  0999 V2000
   48.4802    8.8614   20.8724 O   0  0  0  0  0  0  0  0  0  0  0  0
   48.7249   10.0822   21.3810 C   0  0  0  0  0  0  0  0  0  0  0  0
   47.6105   11.0910   21.1365 C   0  0  2  0  0  0  0  0  0  0  0  0
   47.2258   11.1904   19.6613 C   0  0  2  0  0  0  0  0  0  0  0  0
   48.3591   11.7907   18.8336 C   0  0  0  0  0  0  0  0  0  0  0  0
   49.4368   10.9862   18.7320 O   0  0  0  0  0  0  0  0  0  0  0  0
   49.7316   10.2958   22.0405 O   0  0  0  0  0  0  0  0  0  0  0  0
   46.0445   12.0012   19.5472 O   0  0  0  0  0  0  0  0  0  0  0  0
   47.9346   12.3954   21.6392 O   0  0  0  0  0  0  0  0  0  0  0  0
   48.3529   12.8729   18.2674 O   0  0  0  0  0  0  0  0  0  0  0  0
   48.9394   12.3859   19.6361 N   0  0  0  0  0  0  0  0  0  0  0  0
   48.6701   13.4661   18.6931 C   0  0  0  0  0  0  0  0  0  0  0  0
   49.7703   14.4388   18.7365 C   0  0  0  0  0  0  0  0  0  0  0  0
   50.6708   15.2331   18.7712 C   0  0  0  0  0  0  0  0  0  0  0  0
   47.9443   11.3223   19.5480 C   0  0  2  0  0  0  0  0  0  0  0  0
   46.5547   11.7483   20.0730 C   0  0  0  0  0  0  0  0  0  0  0  0
   45.8599   10.4640   20.5424 C   0  0  0  0  0  0  0  0  0  0  0  0
   47.0331    9.6578   21.0042 C   0  0  0  0  0  0  0  0  0  0  0  0
   48.2262   10.1489   20.4541 C   0  0  0  0  0  0  0  0  0  0  0  0
   49.4331    9.5166   20.7177 C   0  0  0  0  0  0  0  0  0  0  0  0
   47.0224    8.5412   21.8240 C   0  0  0  0  0  0  0  0  0  0  0  0
   48.2371    7.9133   22.1035 C   0  0  0  0  0  0  0  0  0  0  0  0
   49.4339    8.3975   21.5547 C   0  0  0  0  0  0  0  0  0  0  0  0
   47.5695   12.8240   20.6556 N   0  0  0  0  0  0  0  0  0  0  0  0
   47.7838   14.0786   19.9392 C   0  0  0  0  0  0  0  0  0  0  0  0
   49.1650   14.5614   20.0739 C   0  0  0  0  0  0  0  0  0  0  0  0
   50.2938   14.9567   20.1848 C   0  0  0  0  0  0  0  0  0  0  0  0
   48.2333   11.6762   20.0426 C   0  0  2  0  0  0  0  0  0  0  0  0
   47.6347   11.2899   18.6707 C   0  0  0  0  0  0  0  0  0  0  0  0
   47.9003    9.7904   18.4896 C   0  0  0  0  0  0  0  0  0  0  0  0
   47.8434    9.3176   19.9079 C   0  0  0  0  0  0  0  0  0  0  0  0
   48.0204   10.3860   20.7991 C   0  0  0  0  0  0  0  0  0  0  0  0
   48.0531   10.1596   22.1679 C   0  0  0  0  0  0  0  0  0  0  0  0
   47.6886    8.0176   20.3607 C   0  0  0  0  0  0  0  0  0  0  0  0
   47.7028    7.7902   21.7376 C   0  0  0  0  0  0  0  0  0  0  0  0
   47.8841    8.8533   22.6349 C   0  0  0  0  0  0  0  0  0  0  0  0
   49.2708    8.3312   21.1115 H   0  0  0  0  0  0  0  0  0  0  0  0
   46.7449   10.7582   21.7212 H   0  0  0  0  0  0  0  0  0  0  0  0
   46.9748   10.2145   19.2334 H   0  0  0  0  0  0  0  0  0  0  0  0
   50.0554   11.5010   18.1693 H   0  0  0  0  0  0  0  0  0  0  0  0
   46.3108   12.8901   19.8577 H   0  0  0  0  0  0  0  0  0  0  0  0
   48.4563   12.2570   22.4545 H   0  0  0  0  0  0  0  0  0  0  0  0
   49.8556   11.9985   19.4216 H   0  0  0  0  0  0  0  0  0  0  0  0
   48.5779   13.0751   17.6731 H   0  0  0  0  0  0  0  0  0  0  0  0
   47.7342   13.9760   18.9457 H   0  0  0  0  0  0  0  0  0  0  0  0
   51.4697   15.9369   18.8107 H   0  0  0  0  0  0  0  0  0  0  0  0
   47.8650   10.9386   18.5221 H   0  0  0  0  0  0  0  0  0  0  0  0
   45.9651   12.2797   19.3185 H   0  0  0  0  0  0  0  0  0  0  0  0
   46.6636   12.4248   20.9336 H   0  0  0  0  0  0  0  0  0  0  0  0
   45.3567    9.9578   19.7123 H   0  0  0  0  0  0  0  0  0  0  0  0
   45.1475   10.6668   21.3468 H   0  0  0  0  0  0  0  0  0  0  0  0
   50.3627    9.8761   20.2902 H   0  0  0  0  0  0  0  0  0  0  0  0
   46.0959    8.1612   22.2419 H   0  0  0  0  0  0  0  0  0  0  0  0
   48.2570    7.0390   22.7493 H   0  0  0  0  0  0  0  0  0  0  0  0
   50.3706    7.8938   21.7804 H   0  0  0  0  0  0  0  0  0  0  0  0
   47.9165   12.9375   21.6054 H   0  0  0  0  0  0  0  0  0  0  0  0
   47.1077   14.8270   20.3686 H   0  0  0  0  0  0  0  0  0  0  0  0
   47.5017   13.9922   18.8847 H   0  0  0  0  0  0  0  0  0  0  0  0
   51.2956   15.3066   20.2833 H   0  0  0  0  0  0  0  0  0  0  0  0
   49.3165   11.8301   19.9566 H   0  0  0  0  0  0  0  0  0  0  0  0
   46.5475   11.4577   18.6683 H   0  0  0  0  0  0  0  0  0  0  0  0
   48.0536   11.8793   17.8483 H   0  0  0  0  0  0  0  0  0  0  0  0
   48.8956    9.6104   18.0707 H   0  0  0  0  0  0  0  0  0  0  0  0
   47.1374    9.3235   17.8605 H   0  0  0  0  0  0  0  0  0  0  0  0
   48.2060   10.9724   22.8693 H   0  0  0  0  0  0  0  0  0  0  0  0
   47.5590    7.1939   19.6663 H   0  0  0  0  0  0  0  0  0  0  0  0
   47.5773    6.7802   22.1197 H   0  0  0  0  0  0  0  0  0  0  0  0
   47.8977    8.6569   23.7041 H   0  0  0  0  0  0  0  0  0  0  0  0
  1  2  1  0
  2  3  1  0
  3  4  1  0
  4  5  1  0
  5  6  1  0
  2  7  2  0
  4  8  1  0
  3  9  1  0
  5 10  2  0
 12 11  1  0
 15 11  1  0
 12 13  1  0
 13 14  3  0
 16 15  1  0
 19 15  1  0
 16 17  1  0
 17 18  1  0
 18 19  2  0
 18 21  1  0
 20 19  1  0
 23 20  2  0
 21 22  2  0
 22 23  1  0
 25 24  1  0
 28 24  1  0
 25 26  1  0
 26 27  3  0
 29 28  1  0
 32 28  1  0
 29 30  1  0
 30 31  1  0
 31 32  2  0
 31 34  1  0
 33 32  1  0
 36 33  2  0
 34 35  2  0
 35 36  1  0
  1 37  1  0
  3 38  1  6
  4 39  1  1
  6 40  1  0
  8 41  1  0
  9 42  1  0
 11 43  1  0
 12 44  1  0
 12 45  1  0
 14 46  1  0
 15 47  1  1
 16 48  1  0
 16 49  1  0
 17 50  1  0
 17 51  1  0
 20 52  1  0
 21 53  1  0
 22 54  1  0
 23 55  1  0
 24 56  1  0
 25 57  1  0
 25 58  1  0
 27 59  1  0
 28 60  1  1
 29 61  1  0
 29 62  1  0
 30 63  1  0
 30 64  1  0
 33 65  1  0
 34 66  1  0
 35 67  1  0
 36 68  1  0
M  END
> <Uni-Dock RESULT> 
ENERGY=   -4.474  LOWER_BOUND=    5.256  UPPER_BOUND=    6.995
INTER + INTRA:          -4.474
INTER:                  -4.474
INTRA:                   0.000
UNBOUND:                 0.000

$$$$
