
     RDKit          3D

132133  0  0  0  0  0  0  0  0999 V2000
   47.8615    8.4610   13.0739 O   0  0  0  0  0  0  0  0  0  0  0  0
   49.5120    9.7420   14.6635 N   0  0  0  0  0  0  0  0  0  0  0  0
   49.3424    8.9286   13.4422 C   0  0  1  0  0  0  0  0  0  0  0  0
   48.4390    9.1718   15.2967 C   0  0  0  0  0  0  0  0  0  0  0  0
   48.2833    8.0910   14.2023 C   0  0  1  0  0  0  0  0  0  0  0  0
   49.5527   11.1968   14.5100 C   0  0  2  0  0  0  0  0  0  0  0  0
   48.7547   10.1444   12.1910 S   0  0  0  0  0  0  0  0  0  0  0  0
   49.6982   11.5154   13.0095 C   0  0  0  0  0  0  0  0  0  0  0  0
   46.9272    7.9807   13.5999 N   0  0  0  0  0  0  0  0  0  0  0  0
   50.6595   11.7880   15.3730 C   0  0  0  0  0  0  0  0  0  0  0  0
   46.7158    7.2077   12.4750 C   0  0  0  0  0  0  0  0  0  0  0  0
   47.8038    9.5371   16.2590 O   0  0  0  0  0  0  0  0  0  0  0  0
   51.6954   11.2465   15.7263 O   0  0  0  0  0  0  0  0  0  0  0  0
   47.6115    6.5232   11.9847 O   0  0  0  0  0  0  0  0  0  0  0  0
   45.3214    7.3262   11.8837 C   0  0  0  0  0  0  0  0  0  0  0  0
   50.4231   13.0755   15.7064 O   0  0  0  0  0  0  0  0  0  0  0  0
   49.0382   12.8449   12.6391 C   0  0  0  0  0  0  0  0  0  0  0  0
   51.1406   11.4781   12.4878 C   0  0  0  0  0  0  0  0  0  0  0  0
   44.6730    5.9989   11.5819 C   0  0  0  0  0  0  0  0  0  0  0  0
   43.7976    5.4045   12.5017 C   0  0  0  0  0  0  0  0  0  0  0  0
   44.9394    5.3375   10.3750 C   0  0  0  0  0  0  0  0  0  0  0  0
   43.1865    4.1827   12.2101 C   0  0  0  0  0  0  0  0  0  0  0  0
   44.3251    4.1185   10.0845 C   0  0  0  0  0  0  0  0  0  0  0  0
   43.4458    3.5427   10.9997 C   0  0  0  0  0  0  0  0  0  0  0  0
   45.8135    8.0542   12.6282 N   0  0  0  0  0  0  0  0  0  0  0  0
   48.3416    9.3043   13.6242 N   0  0  0  0  0  0  0  0  0  0  0  0
   49.9624   11.1672   13.9702 C   0  0  0  0  0  0  0  0  0  0  0  0
   45.8193    5.7130   11.9144 C   0  0  0  0  0  0  0  0  0  0  0  0
   46.3978    7.0936   11.6950 C   0  0  0  0  0  0  0  0  0  0  0  0
   49.7440    9.6895   13.7508 C   0  0  0  0  0  0  0  0  0  0  0  0
   46.2017    9.4359   12.3221 C   0  0  0  0  0  0  0  0  0  0  0  0
   47.7167    9.7591   12.3795 C   0  0  0  0  0  0  0  0  0  0  0  0
   50.5210   11.9612   12.9574 C   0  0  0  0  0  0  0  0  0  0  0  0
   49.6034   11.7726   15.1834 C   0  0  0  0  0  0  0  0  0  0  0  0
   46.1535    4.9811   13.0635 C   0  0  0  0  0  0  0  0  0  0  0  0
   44.9365    5.1486   10.9818 C   0  0  0  0  0  0  0  0  0  0  0  0
   50.7214   13.3282   13.1565 C   0  0  0  0  0  0  0  0  0  0  0  0
   45.6260    3.7067   13.2719 C   0  0  0  0  0  0  0  0  0  0  0  0
   44.4067    3.8738   11.1960 C   0  0  0  0  0  0  0  0  0  0  0  0
   49.8039   13.1397   15.3817 C   0  0  0  0  0  0  0  0  0  0  0  0
   50.3613   13.9175   14.3677 C   0  0  0  0  0  0  0  0  0  0  0  0
   44.7541    3.1525   12.3369 C   0  0  0  0  0  0  0  0  0  0  0  0
   49.9964   10.3146   12.1004 N   0  0  0  0  0  0  0  0  0  0  0  0
   48.6177   10.0221   11.6774 C   0  0  1  0  0  0  0  0  0  0  0  0
   50.2334    9.0472   12.5443 C   0  0  0  0  0  0  0  0  0  0  0  0
   48.9473    8.5139   11.8714 C   0  0  1  0  0  0  0  0  0  0  0  0
   50.2092   11.4823   12.9475 C   0  0  2  0  0  0  0  0  0  0  0  0
   47.5499   10.8273   12.9397 S   0  0  0  0  0  0  0  0  0  0  0  0
   48.9505   11.6380   13.8402 C   0  0  0  0  0  0  0  0  0  0  0  0
   48.0450    7.7109   12.7420 N   0  0  0  0  0  0  0  0  0  0  0  0
   50.5340   12.7124   12.0915 C   0  0  0  0  0  0  0  0  0  0  0  0
   46.7513    7.4354   12.3474 C   0  0  0  0  0  0  0  0  0  0  0  0
   51.0768    8.6078   13.2910 O   0  0  0  0  0  0  0  0  0  0  0  0
   50.8899   13.8010   12.5206 O   0  0  0  0  0  0  0  0  0  0  0  0
   46.3197    7.7874   11.2537 O   0  0  0  0  0  0  0  0  0  0  0  0
   45.9216    6.7176   13.3965 C   0  0  0  0  0  0  0  0  0  0  0  0
   50.3832   12.5440   10.7630 O   0  0  0  0  0  0  0  0  0  0  0  0
   48.5308   13.0798   14.1494 C   0  0  0  0  0  0  0  0  0  0  0  0
   49.1252   10.8924   15.1753 C   0  0  0  0  0  0  0  0  0  0  0  0
   45.1502    5.5441   12.8482 C   0  0  0  0  0  0  0  0  0  0  0  0
   45.7201    4.2633   12.8237 C   0  0  0  0  0  0  0  0  0  0  0  0
   43.8570    5.7229   12.3390 C   0  0  0  0  0  0  0  0  0  0  0  0
   45.0024    3.1788   12.3144 C   0  0  0  0  0  0  0  0  0  0  0  0
   43.1425    4.6364   11.8308 C   0  0  0  0  0  0  0  0  0  0  0  0
   43.7126    3.3647   11.8210 C   0  0  0  0  0  0  0  0  0  0  0  0
   47.8587    8.4568   13.0728 O   0  0  0  0  0  0  0  0  0  0  0  0
   47.8690    8.4722   13.0769 O   0  0  0  0  0  0  0  0  0  0  0  0
   47.8680    8.4705   13.0765 O   0  0  0  0  0  0  0  0  0  0  0  0
   46.9777    8.2167   12.7605 H   0  0  0  0  0  0  0  0  0  0  0  0
   47.8421    9.4297   13.0960 H   0  0  0  0  0  0  0  0  0  0  0  0
   50.2561    8.3907   13.1683 H   0  0  0  0  0  0  0  0  0  0  0  0
   48.6430    7.1125   14.5419 H   0  0  0  0  0  0  0  0  0  0  0  0
   48.6032   11.5960   14.8962 H   0  0  0  0  0  0  0  0  0  0  0  0
   46.1923    8.6113   13.9118 H   0  0  0  0  0  0  0  0  0  0  0  0
   44.6698    7.9024   12.5524 H   0  0  0  0  0  0  0  0  0  0  0  0
   45.4019    7.9193   10.9633 H   0  0  0  0  0  0  0  0  0  0  0  0
   51.1884   13.3194   16.2700 H   0  0  0  0  0  0  0  0  0  0  0  0
   47.9912   12.8811   12.9595 H   0  0  0  0  0  0  0  0  0  0  0  0
   49.5534   13.6816   13.1230 H   0  0  0  0  0  0  0  0  0  0  0  0
   49.0690   13.0279   11.5586 H   0  0  0  0  0  0  0  0  0  0  0  0
   51.7258   12.3074   12.9032 H   0  0  0  0  0  0  0  0  0  0  0  0
   51.6560   10.5474   12.7507 H   0  0  0  0  0  0  0  0  0  0  0  0
   51.1760   11.5841   11.3963 H   0  0  0  0  0  0  0  0  0  0  0  0
   43.5813    5.8887   13.4517 H   0  0  0  0  0  0  0  0  0  0  0  0
   45.6320    5.7677    9.6539 H   0  0  0  0  0  0  0  0  0  0  0  0
   42.5047    3.7309   12.9260 H   0  0  0  0  0  0  0  0  0  0  0  0
   44.5369    3.6154    9.1452 H   0  0  0  0  0  0  0  0  0  0  0  0
   42.9712    2.5912   10.7738 H   0  0  0  0  0  0  0  0  0  0  0  0
   44.7998    7.9736   12.5854 H   0  0  0  0  0  0  0  0  0  0  0  0
   47.8012    9.6354   14.4202 H   0  0  0  0  0  0  0  0  0  0  0  0
   47.4860    7.0323   11.8208 H   0  0  0  0  0  0  0  0  0  0  0  0
   46.2105    7.4016   10.6584 H   0  0  0  0  0  0  0  0  0  0  0  0
   50.1739    9.1539   14.6070 H   0  0  0  0  0  0  0  0  0  0  0  0
   50.3145    9.3380   12.8804 H   0  0  0  0  0  0  0  0  0  0  0  0
   45.6940   10.0801   13.0514 H   0  0  0  0  0  0  0  0  0  0  0  0
   45.8112    9.7224   11.3377 H   0  0  0  0  0  0  0  0  0  0  0  0
   47.8196   10.8441   12.2684 H   0  0  0  0  0  0  0  0  0  0  0  0
   48.2235    9.2943   11.5266 H   0  0  0  0  0  0  0  0  0  0  0  0
   50.8075   11.5155   12.0067 H   0  0  0  0  0  0  0  0  0  0  0  0
   49.1719   11.1754   15.9836 H   0  0  0  0  0  0  0  0  0  0  0  0
   46.8263    5.4153   13.7995 H   0  0  0  0  0  0  0  0  0  0  0  0
   44.6529    5.6977   10.0864 H   0  0  0  0  0  0  0  0  0  0  0  0
   51.1574   13.9315   12.3657 H   0  0  0  0  0  0  0  0  0  0  0  0
   45.8926    3.1502   14.1658 H   0  0  0  0  0  0  0  0  0  0  0  0
   43.7252    3.4416   10.4656 H   0  0  0  0  0  0  0  0  0  0  0  0
   49.5247   13.5972   16.3272 H   0  0  0  0  0  0  0  0  0  0  0  0
   50.5188   14.9818   14.5222 H   0  0  0  0  0  0  0  0  0  0  0  0
   44.3427    2.1603   12.4984 H   0  0  0  0  0  0  0  0  0  0  0  0
   48.4156   10.3259   10.6461 H   0  0  0  0  0  0  0  0  0  0  0  0
   49.1666    7.9780   10.9387 H   0  0  0  0  0  0  0  0  0  0  0  0
   51.1041   11.2986   13.5562 H   0  0  0  0  0  0  0  0  0  0  0  0
   48.3403    7.4784   13.6850 H   0  0  0  0  0  0  0  0  0  0  0  0
   46.5589    6.3743   14.2187 H   0  0  0  0  0  0  0  0  0  0  0  0
   45.2347    7.4521   13.8346 H   0  0  0  0  0  0  0  0  0  0  0  0
   50.6245   13.4115   10.3727 H   0  0  0  0  0  0  0  0  0  0  0  0
   48.2906   13.6463   13.2419 H   0  0  0  0  0  0  0  0  0  0  0  0
   49.3317   13.6131   14.6770 H   0  0  0  0  0  0  0  0  0  0  0  0
   47.6448   13.1122   14.7962 H   0  0  0  0  0  0  0  0  0  0  0  0
   49.3571    9.8332   15.0408 H   0  0  0  0  0  0  0  0  0  0  0  0
   49.9423   11.3343   15.7581 H   0  0  0  0  0  0  0  0  0  0  0  0
   48.2210   10.9497   15.7936 H   0  0  0  0  0  0  0  0  0  0  0  0
   46.7247    4.0968   13.2043 H   0  0  0  0  0  0  0  0  0  0  0  0
   43.4026    6.7118   12.3301 H   0  0  0  0  0  0  0  0  0  0  0  0
   45.4507    2.1880   12.2982 H   0  0  0  0  0  0  0  0  0  0  0  0
   42.1403    4.7855   11.4374 H   0  0  0  0  0  0  0  0  0  0  0  0
   43.1527    2.5214   11.4254 H   0  0  0  0  0  0  0  0  0  0  0  0
   46.9716    8.2251   12.7586 H   0  0  0  0  0  0  0  0  0  0  0  0
   47.8513    9.4256   13.0991 H   0  0  0  0  0  0  0  0  0  0  0  0
   46.9941    8.1958   12.7655 H   0  0  0  0  0  0  0  0  0  0  0  0
   47.8184    9.4396   13.0881 H   0  0  0  0  0  0  0  0  0  0  0  0
   47.8218    9.4384   13.0892 H   0  0  0  0  0  0  0  0  0  0  0  0
   46.9917    8.1987   12.7648 H   0  0  0  0  0  0  0  0  0  0  0  0
  3  2  1  0
  4  2  1  0
  5  3  1  0
  6  2  1  0
  3  7  1  0
  8  6  1  0
  5  9  1  0
  6 10  1  0
 11  9  1  0
 12  4  2  0
 13 10  2  0
 14 11  2  0
 15 11  1  0
 16 10  1  0
 17  8  1  0
 18  8  1  0
 19 15  1  0
 20 19  2  0
 21 19  1  0
 22 20  1  0
 23 21  2  0
 24 23  1  0
  7  8  1  0
  4  5  1  0
 24 22  2  0
 26 32  1  0
 27 30  1  0
 28 29  1  0
 29 25  1  0
 30 26  1  0
 31 25  1  0
 32 31  1  0
 33 27  2  0
 34 27  1  0
 35 28  2  0
 36 28  1  0
 37 33  1  0
 38 35  1  0
 39 36  2  0
 40 34  2  0
 41 37  2  0
 42 39  1  0
 42 38  2  0
 40 41  1  0
 44 43  1  0
 45 43  1  0
 46 44  1  0
 47 43  1  0
 44 48  1  0
 49 47  1  0
 46 50  1  0
 47 51  1  0
 52 50  1  0
 53 45  2  0
 54 51  2  0
 55 52  2  0
 56 52  1  0
 57 51  1  0
 58 49  1  0
 59 49  1  0
 60 56  1  0
 61 60  2  0
 62 60  1  0
 63 61  1  0
 64 62  2  0
 65 64  1  0
 48 49  1  0
 45 46  1  0
 65 63  2  0
  1 69  1  0
  1 70  1  0
  3 71  1  6
  5 72  1  1
  6 73  1  1
  9 74  1  0
 15 75  1  0
 15 76  1  0
 16 77  1  0
 17 78  1  0
 17 79  1  0
 17 80  1  0
 18 81  1  0
 18 82  1  0
 18 83  1  0
 20 84  1  0
 21 85  1  0
 22 86  1  0
 23 87  1  0
 24 88  1  0
 25 89  1  0
 26 90  1  0
 29 91  1  0
 29 92  1  0
 30 93  1  0
 30 94  1  0
 31 95  1  0
 31 96  1  0
 32 97  1  0
 32 98  1  0
 33 99  1  0
 34100  1  0
 35101  1  0
 36102  1  0
 37103  1  0
 38104  1  0
 39105  1  0
 40106  1  0
 41107  1  0
 42108  1  0
 44109  1  6
 46110  1  6
 47111  1  1
 50112  1  0
 56113  1  0
 56114  1  0
 57115  1  0
 58116  1  0
 58117  1  0
 58118  1  0
 59119  1  0
 59120  1  0
 59121  1  0
 61122  1  0
 62123  1  0
 63124  1  0
 64125  1  0
 65126  1  0
 66127  1  0
 66128  1  0
 67129  1  0
 67130  1  0
 68131  1  0
 68132  1  0
M  END
> <Uni-Dock RESULT> 
ENERGY=   -8.492  LOWER_BOUND=    0.000  UPPER_BOUND=    0.000
INTER + INTRA:          -8.492
INTER:                  -8.492
INTRA:                   0.000
UNBOUND:                 0.000

$$$$

     RDKit          3D

132133  0  0  0  0  0  0  0  0999 V2000
   48.1412    8.4285   12.4211 O   0  0  0  0  0  0  0  0  0  0  0  0
   50.3739    9.6730   11.8223 N   0  0  0  0  0  0  0  0  0  0  0  0
   48.9002    9.7334   11.9028 C   0  0  1  0  0  0  0  0  0  0  0  0
   50.3921    8.3240   11.5830 C   0  0  0  0  0  0  0  0  0  0  0  0
   48.8582    8.2693   11.3971 C   0  0  1  0  0  0  0  0  0  0  0  0
   51.1377   10.2019   12.9530 C   0  0  2  0  0  0  0  0  0  0  0  0
   48.5770   10.0461   13.6880 S   0  0  0  0  0  0  0  0  0  0  0  0
   50.1685   10.9824   13.8615 C   0  0  0  0  0  0  0  0  0  0  0  0
   48.1468    7.2682   12.2371 N   0  0  0  0  0  0  0  0  0  0  0  0
   52.3134   11.0315   12.4539 C   0  0  0  0  0  0  0  0  0  0  0  0
   46.7681    7.2683   12.3190 C   0  0  0  0  0  0  0  0  0  0  0  0
   51.2898    7.5180   11.6701 O   0  0  0  0  0  0  0  0  0  0  0  0
   52.3945   11.6483   11.4032 O   0  0  0  0  0  0  0  0  0  0  0  0
   46.0815    8.0321   11.6435 O   0  0  0  0  0  0  0  0  0  0  0  0
   46.1989    6.2979   13.3400 C   0  0  0  0  0  0  0  0  0  0  0  0
   53.3242   11.0860   13.3484 O   0  0  0  0  0  0  0  0  0  0  0  0
   50.5977   10.9386   15.3293 C   0  0  0  0  0  0  0  0  0  0  0  0
   49.9173   12.4324   13.4275 C   0  0  0  0  0  0  0  0  0  0  0  0
   45.0775    5.4421   12.8079 C   0  0  0  0  0  0  0  0  0  0  0  0
   45.3313    4.1532   12.3183 C   0  0  0  0  0  0  0  0  0  0  0  0
   43.7619    5.9261   12.7928 C   0  0  0  0  0  0  0  0  0  0  0  0
   44.2864    3.3580   11.8418 C   0  0  0  0  0  0  0  0  0  0  0  0
   42.7191    5.1285   12.3192 C   0  0  0  0  0  0  0  0  0  0  0  0
   42.9801    3.8434   11.8474 C   0  0  0  0  0  0  0  0  0  0  0  0
   47.2867    6.6723   13.2834 N   0  0  0  0  0  0  0  0  0  0  0  0
   49.1444    8.8990   12.5508 N   0  0  0  0  0  0  0  0  0  0  0  0
   50.7469   10.7535   13.0089 C   0  0  0  0  0  0  0  0  0  0  0  0
   45.3106    6.2403   11.9052 C   0  0  0  0  0  0  0  0  0  0  0  0
   46.0456    7.2441   12.7661 C   0  0  0  0  0  0  0  0  0  0  0  0
   49.6535   10.1999   12.1272 C   0  0  0  0  0  0  0  0  0  0  0  0
   47.9301    7.5414   14.2755 C   0  0  0  0  0  0  0  0  0  0  0  0
   48.3616    8.9484   13.7883 C   0  0  0  0  0  0  0  0  0  0  0  0
   50.5006   11.8585   13.8375 C   0  0  0  0  0  0  0  0  0  0  0  0
   52.0219   10.1692   13.0222 C   0  0  0  0  0  0  0  0  0  0  0  0
   45.8142    5.8879   10.6443 C   0  0  0  0  0  0  0  0  0  0  0  0
   44.1246    5.6415   12.3552 C   0  0  0  0  0  0  0  0  0  0  0  0
   51.5089   12.3706   14.6559 C   0  0  0  0  0  0  0  0  0  0  0  0
   45.1411    4.9649    9.8436 C   0  0  0  0  0  0  0  0  0  0  0  0
   43.4557    4.7141   11.5526 C   0  0  0  0  0  0  0  0  0  0  0  0
   53.0296   10.6817   13.8410 C   0  0  0  0  0  0  0  0  0  0  0  0
   52.7724   11.7812   14.6588 C   0  0  0  0  0  0  0  0  0  0  0  0
   43.9608    4.3797   10.2974 C   0  0  0  0  0  0  0  0  0  0  0  0
   48.7650   11.2219   13.2867 N   0  0  0  0  0  0  0  0  0  0  0  0
   48.0818   10.0796   13.9142 C   0  0  1  0  0  0  0  0  0  0  0  0
   48.3779   10.8853   12.0233 C   0  0  0  0  0  0  0  0  0  0  0  0
   47.3642    9.8450   12.5537 C   0  0  1  0  0  0  0  0  0  0  0  0
   50.1641   11.4446   13.6325 C   0  0  2  0  0  0  0  0  0  0  0  0
   49.4268    8.9141   14.3770 S   0  0  0  0  0  0  0  0  0  0  0  0
   50.8017   10.0537   13.8863 C   0  0  0  0  0  0  0  0  0  0  0  0
   47.4498    8.4881   11.9468 N   0  0  0  0  0  0  0  0  0  0  0  0
   50.2754   12.4166   14.8132 C   0  0  0  0  0  0  0  0  0  0  0  0
   46.8099    7.4151   12.5337 C   0  0  0  0  0  0  0  0  0  0  0  0
   48.8059   11.2175   10.9423 O   0  0  0  0  0  0  0  0  0  0  0  0
   51.3158   12.8966   15.2410 O   0  0  0  0  0  0  0  0  0  0  0  0
   46.1080    7.5474   13.5319 O   0  0  0  0  0  0  0  0  0  0  0  0
   47.0966    6.0812   11.8681 C   0  0  0  0  0  0  0  0  0  0  0  0
   49.1096   12.7268   15.4139 O   0  0  0  0  0  0  0  0  0  0  0  0
   51.8637   10.0024   14.9909 C   0  0  0  0  0  0  0  0  0  0  0  0
   51.4232    9.4880   12.5968 C   0  0  0  0  0  0  0  0  0  0  0  0
   45.8587    5.2551   11.6278 C   0  0  0  0  0  0  0  0  0  0  0  0
   45.1369    5.3809   10.4323 C   0  0  0  0  0  0  0  0  0  0  0  0
   45.4034    4.3612   12.6063 C   0  0  0  0  0  0  0  0  0  0  0  0
   43.9903    4.6141   10.2137 C   0  0  0  0  0  0  0  0  0  0  0  0
   44.2568    3.5962   12.3841 C   0  0  0  0  0  0  0  0  0  0  0  0
   43.5520    3.7195   11.1880 C   0  0  0  0  0  0  0  0  0  0  0  0
   48.1375    8.4252   12.4198 O   0  0  0  0  0  0  0  0  0  0  0  0
   48.1513    8.4374   12.4244 O   0  0  0  0  0  0  0  0  0  0  0  0
   48.1498    8.4362   12.4238 O   0  0  0  0  0  0  0  0  0  0  0  0
   47.6356    7.6950   12.8022 H   0  0  0  0  0  0  0  0  0  0  0  0
   48.7417    8.6938   13.1340 H   0  0  0  0  0  0  0  0  0  0  0  0
   48.4747   10.4768   11.2203 H   0  0  0  0  0  0  0  0  0  0  0  0
   48.5792    8.1659   10.3417 H   0  0  0  0  0  0  0  0  0  0  0  0
   51.5632    9.3439   13.4940 H   0  0  0  0  0  0  0  0  0  0  0  0
   48.6808    6.6957   12.8869 H   0  0  0  0  0  0  0  0  0  0  0  0
   46.9911    5.6498   13.7353 H   0  0  0  0  0  0  0  0  0  0  0  0
   45.8438    6.8882   14.1949 H   0  0  0  0  0  0  0  0  0  0  0  0
   54.0114   11.6224   12.8980 H   0  0  0  0  0  0  0  0  0  0  0  0
   50.7396    9.9104   15.6798 H   0  0  0  0  0  0  0  0  0  0  0  0
   51.5490   11.4626   15.4708 H   0  0  0  0  0  0  0  0  0  0  0  0
   49.8623   11.4217   15.9833 H   0  0  0  0  0  0  0  0  0  0  0  0
   50.8191   13.0412   13.5652 H   0  0  0  0  0  0  0  0  0  0  0  0
   49.6264   12.5087   12.3737 H   0  0  0  0  0  0  0  0  0  0  0  0
   49.1273   12.9006   14.0281 H   0  0  0  0  0  0  0  0  0  0  0  0
   46.3440    3.7556   12.3064 H   0  0  0  0  0  0  0  0  0  0  0  0
   43.5421    6.9314   13.1473 H   0  0  0  0  0  0  0  0  0  0  0  0
   44.4904    2.3577   11.4690 H   0  0  0  0  0  0  0  0  0  0  0  0
   41.7029    5.5125   12.3139 H   0  0  0  0  0  0  0  0  0  0  0  0
   42.1674    3.2248   11.4752 H   0  0  0  0  0  0  0  0  0  0  0  0
   47.0765    5.7732   13.7117 H   0  0  0  0  0  0  0  0  0  0  0  0
   49.9025    8.2279   12.6511 H   0  0  0  0  0  0  0  0  0  0  0  0
   46.2446    8.1354   12.1579 H   0  0  0  0  0  0  0  0  0  0  0  0
   45.3928    7.5568   13.5911 H   0  0  0  0  0  0  0  0  0  0  0  0
   50.0573   10.0993   11.1115 H   0  0  0  0  0  0  0  0  0  0  0  0
   48.8283   10.9190   12.0347 H   0  0  0  0  0  0  0  0  0  0  0  0
   48.8292    7.0177   14.6247 H   0  0  0  0  0  0  0  0  0  0  0  0
   47.2798    7.6496   15.1524 H   0  0  0  0  0  0  0  0  0  0  0  0
   48.9430    9.4054   14.5965 H   0  0  0  0  0  0  0  0  0  0  0  0
   47.4736    9.5710   13.6329 H   0  0  0  0  0  0  0  0  0  0  0  0
   49.5195   12.3295   13.8459 H   0  0  0  0  0  0  0  0  0  0  0  0
   52.2359    9.3138   12.3853 H   0  0  0  0  0  0  0  0  0  0  0  0
   46.7403    6.3361   10.2918 H   0  0  0  0  0  0  0  0  0  0  0  0
   43.7166    5.8894   13.3329 H   0  0  0  0  0  0  0  0  0  0  0  0
   51.3066   13.2282   15.2907 H   0  0  0  0  0  0  0  0  0  0  0  0
   45.5414    4.7004    8.8692 H   0  0  0  0  0  0  0  0  0  0  0  0
   42.5341    4.2568   11.9077 H   0  0  0  0  0  0  0  0  0  0  0  0
   54.0147   10.2225   13.8406 H   0  0  0  0  0  0  0  0  0  0  0  0
   53.5572   12.1814   15.2955 H   0  0  0  0  0  0  0  0  0  0  0  0
   43.4362    3.6606    9.6748 H   0  0  0  0  0  0  0  0  0  0  0  0
   47.4288   10.3760   14.7403 H   0  0  0  0  0  0  0  0  0  0  0  0
   46.3342   10.2233   12.5175 H   0  0  0  0  0  0  0  0  0  0  0  0
   50.6446   11.9499   12.7846 H   0  0  0  0  0  0  0  0  0  0  0  0
   48.0882    8.3278   11.1739 H   0  0  0  0  0  0  0  0  0  0  0  0
   47.6160    6.2331   10.9157 H   0  0  0  0  0  0  0  0  0  0  0  0
   47.7986    5.5352   12.5102 H   0  0  0  0  0  0  0  0  0  0  0  0
   49.3574   13.3439   16.1356 H   0  0  0  0  0  0  0  0  0  0  0  0
   51.4621   10.2982   15.9673 H   0  0  0  0  0  0  0  0  0  0  0  0
   52.7019   10.6703   14.7555 H   0  0  0  0  0  0  0  0  0  0  0  0
   52.2803    8.9934   15.1035 H   0  0  0  0  0  0  0  0  0  0  0  0
   50.7063    9.4241   11.7748 H   0  0  0  0  0  0  0  0  0  0  0  0
   52.2517   10.1222   12.2592 H   0  0  0  0  0  0  0  0  0  0  0  0
   51.8302    8.4810   12.7502 H   0  0  0  0  0  0  0  0  0  0  0  0
   45.4623    6.0724    9.6592 H   0  0  0  0  0  0  0  0  0  0  0  0
   45.9369    4.2618   13.5496 H   0  0  0  0  0  0  0  0  0  0  0  0
   43.4351    4.7169    9.2841 H   0  0  0  0  0  0  0  0  0  0  0  0
   43.9112    2.9063   13.1495 H   0  0  0  0  0  0  0  0  0  0  0  0
   42.6606    3.1215   11.0186 H   0  0  0  0  0  0  0  0  0  0  0  0
   47.6384    7.6928   12.8122 H   0  0  0  0  0  0  0  0  0  0  0  0
   48.7428    8.6995   13.1252 H   0  0  0  0  0  0  0  0  0  0  0  0
   47.6290    7.7013   12.7768 H   0  0  0  0  0  0  0  0  0  0  0  0
   48.7385    8.6788   13.1561 H   0  0  0  0  0  0  0  0  0  0  0  0
   48.7391    8.6810   13.1531 H   0  0  0  0  0  0  0  0  0  0  0  0
   47.6299    7.7003   12.7803 H   0  0  0  0  0  0  0  0  0  0  0  0
  3  2  1  0
  4  2  1  0
  5  3  1  0
  6  2  1  0
  3  7  1  0
  8  6  1  0
  5  9  1  0
  6 10  1  0
 11  9  1  0
 12  4  2  0
 13 10  2  0
 14 11  2  0
 15 11  1  0
 16 10  1  0
 17  8  1  0
 18  8  1  0
 19 15  1  0
 20 19  2  0
 21 19  1  0
 22 20  1  0
 23 21  2  0
 24 23  1  0
  7  8  1  0
  4  5  1  0
 24 22  2  0
 26 32  1  0
 27 30  1  0
 28 29  1  0
 29 25  1  0
 30 26  1  0
 31 25  1  0
 32 31  1  0
 33 27  2  0
 34 27  1  0
 35 28  2  0
 36 28  1  0
 37 33  1  0
 38 35  1  0
 39 36  2  0
 40 34  2  0
 41 37  2  0
 42 39  1  0
 42 38  2  0
 40 41  1  0
 44 43  1  0
 45 43  1  0
 46 44  1  0
 47 43  1  0
 44 48  1  0
 49 47  1  0
 46 50  1  0
 47 51  1  0
 52 50  1  0
 53 45  2  0
 54 51  2  0
 55 52  2  0
 56 52  1  0
 57 51  1  0
 58 49  1  0
 59 49  1  0
 60 56  1  0
 61 60  2  0
 62 60  1  0
 63 61  1  0
 64 62  2  0
 65 64  1  0
 48 49  1  0
 45 46  1  0
 65 63  2  0
  1 69  1  0
  1 70  1  0
  3 71  1  6
  5 72  1  1
  6 73  1  1
  9 74  1  0
 15 75  1  0
 15 76  1  0
 16 77  1  0
 17 78  1  0
 17 79  1  0
 17 80  1  0
 18 81  1  0
 18 82  1  0
 18 83  1  0
 20 84  1  0
 21 85  1  0
 22 86  1  0
 23 87  1  0
 24 88  1  0
 25 89  1  0
 26 90  1  0
 29 91  1  0
 29 92  1  0
 30 93  1  0
 30 94  1  0
 31 95  1  0
 31 96  1  0
 32 97  1  0
 32 98  1  0
 33 99  1  0
 34100  1  0
 35101  1  0
 36102  1  0
 37103  1  0
 38104  1  0
 39105  1  0
 40106  1  0
 41107  1  0
 42108  1  0
 44109  1  6
 46110  1  6
 47111  1  1
 50112  1  0
 56113  1  0
 56114  1  0
 57115  1  0
 58116  1  0
 58117  1  0
 58118  1  0
 59119  1  0
 59120  1  0
 59121  1  0
 61122  1  0
 62123  1  0
 63124  1  0
 64125  1  0
 65126  1  0
 66127  1  0
 66128  1  0
 67129  1  0
 67130  1  0
 68131  1  0
 68132  1  0
M  END
> <Uni-Dock RESULT> 
ENERGY=   -7.770  LOWER_BOUND=    1.200  UPPER_BOUND=    2.598
INTER + INTRA:          -7.770
INTER:                  -7.770
INTRA:                   0.000
UNBOUND:                 0.000

$$$$

     RDKit          3D

132133  0  0  0  0  0  0  0  0999 V2000
   48.2475    8.6812   13.1543 O   0  0  0  0  0  0  0  0  0  0  0  0
   49.6874   10.8734   13.0393 N   0  0  0  0  0  0  0  0  0  0  0  0
   48.7552   10.0382   13.8238 C   0  0  1  0  0  0  0  0  0  0  0  0
   49.1794   10.4619   11.8351 C   0  0  0  0  0  0  0  0  0  0  0  0
   47.9939    9.7335   12.5090 C   0  0  1  0  0  0  0  0  0  0  0  0
   51.1196   10.7155   13.2949 C   0  0  2  0  0  0  0  0  0  0  0  0
   49.8375    8.7249   14.5260 S   0  0  0  0  0  0  0  0  0  0  0  0
   51.2870    9.8807   14.5791 C   0  0  0  0  0  0  0  0  0  0  0  0
   47.8188    8.3062   12.1268 N   0  0  0  0  0  0  0  0  0  0  0  0
   51.7984   12.0775   13.3556 C   0  0  0  0  0  0  0  0  0  0  0  0
   46.9363    7.4953   12.8133 C   0  0  0  0  0  0  0  0  0  0  0  0
   49.6368   10.5358   10.7178 O   0  0  0  0  0  0  0  0  0  0  0  0
   51.2989   13.1424   13.6832 O   0  0  0  0  0  0  0  0  0  0  0  0
   46.2095    7.9380   13.7004 O   0  0  0  0  0  0  0  0  0  0  0  0
   46.9897    6.0299   12.4160 C   0  0  0  0  0  0  0  0  0  0  0  0
   53.1119   12.0146   13.0466 O   0  0  0  0  0  0  0  0  0  0  0  0
   52.5702    9.0481   14.5585 C   0  0  0  0  0  0  0  0  0  0  0  0
   51.2030   10.6900   15.8798 C   0  0  0  0  0  0  0  0  0  0  0  0
   45.6365    5.4220   12.1470 C   0  0  0  0  0  0  0  0  0  0  0  0
   45.1339    5.3441   10.8405 C   0  0  0  0  0  0  0  0  0  0  0  0
   44.8587    4.9273   13.2031 C   0  0  0  0  0  0  0  0  0  0  0  0
   43.8868    4.7648   10.5947 C   0  0  0  0  0  0  0  0  0  0  0  0
   43.6144    4.3460   12.9547 C   0  0  0  0  0  0  0  0  0  0  0  0
   43.1299    4.2610   11.6508 C   0  0  0  0  0  0  0  0  0  0  0  0
   47.7905    6.8283   12.1972 N   0  0  0  0  0  0  0  0  0  0  0  0
   49.1434    9.3426   13.0881 N   0  0  0  0  0  0  0  0  0  0  0  0
   51.0377   10.7044   13.9682 C   0  0  0  0  0  0  0  0  0  0  0  0
   45.3896    6.5439   12.5789 C   0  0  0  0  0  0  0  0  0  0  0  0
   46.7435    6.7713   13.2147 C   0  0  0  0  0  0  0  0  0  0  0  0
   49.5447   10.4940   13.8909 C   0  0  0  0  0  0  0  0  0  0  0  0
   49.1361    6.8529   12.7822 C   0  0  0  0  0  0  0  0  0  0  0  0
   49.4691    8.0538   13.7042 C   0  0  0  0  0  0  0  0  0  0  0  0
   51.7283   10.4637   15.1653 C   0  0  0  0  0  0  0  0  0  0  0  0
   51.7601   11.1342   12.8454 C   0  0  0  0  0  0  0  0  0  0  0  0
   44.7777    7.5640   11.8355 C   0  0  0  0  0  0  0  0  0  0  0  0
   44.7314    5.3126   12.7139 C   0  0  0  0  0  0  0  0  0  0  0  0
   53.1092   10.6547   15.2388 C   0  0  0  0  0  0  0  0  0  0  0  0
   43.5285    7.3629   11.2481 C   0  0  0  0  0  0  0  0  0  0  0  0
   43.4825    5.1132   12.1205 C   0  0  0  0  0  0  0  0  0  0  0  0
   53.1409   11.3248   12.9195 C   0  0  0  0  0  0  0  0  0  0  0  0
   53.8154   11.0834   14.1157 C   0  0  0  0  0  0  0  0  0  0  0  0
   42.8803    6.1379   11.3925 C   0  0  0  0  0  0  0  0  0  0  0  0
   50.0023    9.6301   15.3818 N   0  0  0  0  0  0  0  0  0  0  0  0
   49.6638    8.3079   14.8318 C   0  0  1  0  0  0  0  0  0  0  0  0
   48.7867   10.1729   15.0868 C   0  0  0  0  0  0  0  0  0  0  0  0
   48.1839    8.7843   14.7708 C   0  0  1  0  0  0  0  0  0  0  0  0
   51.2497   10.2447   14.9427 C   0  0  2  0  0  0  0  0  0  0  0  0
   50.5873    8.2000   13.2451 S   0  0  0  0  0  0  0  0  0  0  0  0
   51.4893    9.8009   13.4760 C   0  0  0  0  0  0  0  0  0  0  0  0
   47.4687    8.6685   13.4701 N   0  0  0  0  0  0  0  0  0  0  0  0
   52.3892    9.8894   15.9054 C   0  0  0  0  0  0  0  0  0  0  0  0
   47.1502    7.4293   12.9521 C   0  0  0  0  0  0  0  0  0  0  0  0
   48.4273   11.3238   14.9959 O   0  0  0  0  0  0  0  0  0  0  0  0
   53.5166   10.3626   15.8751 O   0  0  0  0  0  0  0  0  0  0  0  0
   47.3894    6.3919   13.5629 O   0  0  0  0  0  0  0  0  0  0  0  0
   46.5379    7.4752   11.5638 C   0  0  0  0  0  0  0  0  0  0  0  0
   52.0881    8.9607   16.8343 O   0  0  0  0  0  0  0  0  0  0  0  0
   52.9532    9.5695   13.0836 C   0  0  0  0  0  0  0  0  0  0  0  0
   50.8818   10.8121   12.4874 C   0  0  0  0  0  0  0  0  0  0  0  0
   45.3126    6.6085   11.4223 C   0  0  0  0  0  0  0  0  0  0  0  0
   44.0378    7.1231   11.6983 C   0  0  0  0  0  0  0  0  0  0  0  0
   45.4347    5.2692   11.0284 C   0  0  0  0  0  0  0  0  0  0  0  0
   42.9052    6.3167   11.5664 C   0  0  0  0  0  0  0  0  0  0  0  0
   44.3001    4.4662   10.8975 C   0  0  0  0  0  0  0  0  0  0  0  0
   43.0359    4.9894   11.1630 C   0  0  0  0  0  0  0  0  0  0  0  0
   48.2432    8.6786   13.1531 O   0  0  0  0  0  0  0  0  0  0  0  0
   48.2590    8.6882   13.1576 O   0  0  0  0  0  0  0  0  0  0  0  0
   48.2573    8.6873   13.1571 O   0  0  0  0  0  0  0  0  0  0  0  0
   47.9698    7.8112   12.8304 H   0  0  0  0  0  0  0  0  0  0  0  0
   49.2135    8.6166   13.1988 H   0  0  0  0  0  0  0  0  0  0  0  0
   48.1959   10.6194   14.5646 H   0  0  0  0  0  0  0  0  0  0  0  0
   47.0557   10.2890   12.3935 H   0  0  0  0  0  0  0  0  0  0  0  0
   51.5519   10.1849   12.4338 H   0  0  0  0  0  0  0  0  0  0  0  0
   48.4747    7.8825   11.4747 H   0  0  0  0  0  0  0  0  0  0  0  0
   47.6276    5.8957   11.5334 H   0  0  0  0  0  0  0  0  0  0  0  0
   47.4881    5.4851   13.2285 H   0  0  0  0  0  0  0  0  0  0  0  0
   53.4138   12.9466   13.1018 H   0  0  0  0  0  0  0  0  0  0  0  0
   52.6344    8.4240   13.6604 H   0  0  0  0  0  0  0  0  0  0  0  0
   53.4531    9.6963   14.5653 H   0  0  0  0  0  0  0  0  0  0  0  0
   52.6442    8.3920   15.4337 H   0  0  0  0  0  0  0  0  0  0  0  0
   52.0719   11.3511   15.9832 H   0  0  0  0  0  0  0  0  0  0  0  0
   50.3053   11.3168   15.9247 H   0  0  0  0  0  0  0  0  0  0  0  0
   51.1994   10.0357   16.7607 H   0  0  0  0  0  0  0  0  0  0  0  0
   45.7099    5.7307   10.0024 H   0  0  0  0  0  0  0  0  0  0  0  0
   45.2171    4.9956   14.2285 H   0  0  0  0  0  0  0  0  0  0  0  0
   43.5064    4.7031    9.5785 H   0  0  0  0  0  0  0  0  0  0  0  0
   43.0206    3.9637   13.7802 H   0  0  0  0  0  0  0  0  0  0  0  0
   42.1587    3.8116   11.4592 H   0  0  0  0  0  0  0  0  0  0  0  0
   47.7022    6.0132   11.5939 H   0  0  0  0  0  0  0  0  0  0  0  0
   49.5505    9.3901   12.1568 H   0  0  0  0  0  0  0  0  0  0  0  0
   46.6992    7.7052   13.7888 H   0  0  0  0  0  0  0  0  0  0  0  0
   46.9455    5.9634   13.9297 H   0  0  0  0  0  0  0  0  0  0  0  0
   49.0990   11.3951   13.4503 H   0  0  0  0  0  0  0  0  0  0  0  0
   49.1099   10.4253   14.8973 H   0  0  0  0  0  0  0  0  0  0  0  0
   49.8481    6.8645   11.9471 H   0  0  0  0  0  0  0  0  0  0  0  0
   49.3212    5.9196   13.3284 H   0  0  0  0  0  0  0  0  0  0  0  0
   50.5378    7.9949   13.9374 H   0  0  0  0  0  0  0  0  0  0  0  0
   48.9231    7.9535   14.6488 H   0  0  0  0  0  0  0  0  0  0  0  0
   51.1908   10.1291   16.0505 H   0  0  0  0  0  0  0  0  0  0  0  0
   51.2444   11.3301   11.9079 H   0  0  0  0  0  0  0  0  0  0  0  0
   45.2859    8.5178   11.7133 H   0  0  0  0  0  0  0  0  0  0  0  0
   45.1871    4.5010   13.2772 H   0  0  0  0  0  0  0  0  0  0  0  0
   53.6320   10.4677   16.1721 H   0  0  0  0  0  0  0  0  0  0  0  0
   43.0653    8.1607   10.6748 H   0  0  0  0  0  0  0  0  0  0  0  0
   42.9768    4.1560   12.2330 H   0  0  0  0  0  0  0  0  0  0  0  0
   53.6898   11.6610   12.0437 H   0  0  0  0  0  0  0  0  0  0  0  0
   54.8904   11.2330   14.1742 H   0  0  0  0  0  0  0  0  0  0  0  0
   41.9077    5.9804   10.9352 H   0  0  0  0  0  0  0  0  0  0  0  0
   49.8620    7.4921   15.5330 H   0  0  0  0  0  0  0  0  0  0  0  0
   47.5581    8.4142   15.5934 H   0  0  0  0  0  0  0  0  0  0  0  0
   51.1312   11.3339   15.0108 H   0  0  0  0  0  0  0  0  0  0  0  0
   47.3328    9.4982   12.9010 H   0  0  0  0  0  0  0  0  0  0  0  0
   46.2810    8.5051   11.2932 H   0  0  0  0  0  0  0  0  0  0  0  0
   47.3100    7.1604   10.8511 H   0  0  0  0  0  0  0  0  0  0  0  0
   52.9131    8.8517   17.3546 H   0  0  0  0  0  0  0  0  0  0  0  0
   53.4251    8.7833   13.6847 H   0  0  0  0  0  0  0  0  0  0  0  0
   53.5396   10.4883   13.2111 H   0  0  0  0  0  0  0  0  0  0  0  0
   53.0469    9.2736   12.0310 H   0  0  0  0  0  0  0  0  0  0  0  0
   49.8153   10.9795   12.6558 H   0  0  0  0  0  0  0  0  0  0  0  0
   51.3829   11.7835   12.5749 H   0  0  0  0  0  0  0  0  0  0  0  0
   50.9972   10.4826   11.4475 H   0  0  0  0  0  0  0  0  0  0  0  0
   43.9140    8.1560   12.0137 H   0  0  0  0  0  0  0  0  0  0  0  0
   46.4160    4.8434   10.8280 H   0  0  0  0  0  0  0  0  0  0  0  0
   41.9194    6.7223   11.7824 H   0  0  0  0  0  0  0  0  0  0  0  0
   44.4053    3.4284   10.5923 H   0  0  0  0  0  0  0  0  0  0  0  0
   42.1552    4.3613   11.0590 H   0  0  0  0  0  0  0  0  0  0  0  0
   47.9779    7.8047   12.8287 H   0  0  0  0  0  0  0  0  0  0  0  0
   49.2097    8.6260   13.2018 H   0  0  0  0  0  0  0  0  0  0  0  0
   47.9495    7.8285   12.8351 H   0  0  0  0  0  0  0  0  0  0  0  0
   49.2224    8.5924   13.1909 H   0  0  0  0  0  0  0  0  0  0  0  0
   49.2213    8.5959   13.1921 H   0  0  0  0  0  0  0  0  0  0  0  0
   47.9523    7.8260   12.8344 H   0  0  0  0  0  0  0  0  0  0  0  0
  3  2  1  0
  4  2  1  0
  5  3  1  0
  6  2  1  0
  3  7  1  0
  8  6  1  0
  5  9  1  0
  6 10  1  0
 11  9  1  0
 12  4  2  0
 13 10  2  0
 14 11  2  0
 15 11  1  0
 16 10  1  0
 17  8  1  0
 18  8  1  0
 19 15  1  0
 20 19  2  0
 21 19  1  0
 22 20  1  0
 23 21  2  0
 24 23  1  0
  7  8  1  0
  4  5  1  0
 24 22  2  0
 26 32  1  0
 27 30  1  0
 28 29  1  0
 29 25  1  0
 30 26  1  0
 31 25  1  0
 32 31  1  0
 33 27  2  0
 34 27  1  0
 35 28  2  0
 36 28  1  0
 37 33  1  0
 38 35  1  0
 39 36  2  0
 40 34  2  0
 41 37  2  0
 42 39  1  0
 42 38  2  0
 40 41  1  0
 44 43  1  0
 45 43  1  0
 46 44  1  0
 47 43  1  0
 44 48  1  0
 49 47  1  0
 46 50  1  0
 47 51  1  0
 52 50  1  0
 53 45  2  0
 54 51  2  0
 55 52  2  0
 56 52  1  0
 57 51  1  0
 58 49  1  0
 59 49  1  0
 60 56  1  0
 61 60  2  0
 62 60  1  0
 63 61  1  0
 64 62  2  0
 65 64  1  0
 48 49  1  0
 45 46  1  0
 65 63  2  0
  1 69  1  0
  1 70  1  0
  3 71  1  6
  5 72  1  1
  6 73  1  1
  9 74  1  0
 15 75  1  0
 15 76  1  0
 16 77  1  0
 17 78  1  0
 17 79  1  0
 17 80  1  0
 18 81  1  0
 18 82  1  0
 18 83  1  0
 20 84  1  0
 21 85  1  0
 22 86  1  0
 23 87  1  0
 24 88  1  0
 25 89  1  0
 26 90  1  0
 29 91  1  0
 29 92  1  0
 30 93  1  0
 30 94  1  0
 31 95  1  0
 31 96  1  0
 32 97  1  0
 32 98  1  0
 33 99  1  0
 34100  1  0
 35101  1  0
 36102  1  0
 37103  1  0
 38104  1  0
 39105  1  0
 40106  1  0
 41107  1  0
 42108  1  0
 44109  1  6
 46110  1  6
 47111  1  1
 50112  1  0
 56113  1  0
 56114  1  0
 57115  1  0
 58116  1  0
 58117  1  0
 58118  1  0
 59119  1  0
 59120  1  0
 59121  1  0
 61122  1  0
 62123  1  0
 63124  1  0
 64125  1  0
 65126  1  0
 66127  1  0
 66128  1  0
 67129  1  0
 67130  1  0
 68131  1  0
 68132  1  0
M  END
> <Uni-Dock RESULT> 
ENERGY=   -7.565  LOWER_BOUND=    1.499  UPPER_BOUND=    3.119
INTER + INTRA:          -7.565
INTER:                  -7.565
INTRA:                   0.000
UNBOUND:                 0.000

$$$$

     RDKit          3D

132133  0  0  0  0  0  0  0  0999 V2000
   48.4411    9.2132   18.6375 O   0  0  0  0  0  0  0  0  0  0  0  0
   48.0084   11.6933   17.8935 N   0  0  0  0  0  0  0  0  0  0  0  0
   47.5765   10.5518   18.7256 C   0  0  1  0  0  0  0  0  0  0  0  0
   48.5455   10.8924   16.9202 C   0  0  0  0  0  0  0  0  0  0  0  0
   47.9469    9.6133   17.5495 C   0  0  1  0  0  0  0  0  0  0  0  0
   48.8542   12.7093   18.5212 C   0  0  2  0  0  0  0  0  0  0  0  0
   48.7103   10.6192   20.1743 S   0  0  0  0  0  0  0  0  0  0  0  0
   48.8471   12.4641   20.0423 C   0  0  0  0  0  0  0  0  0  0  0  0
   48.9172    8.5179   17.8188 N   0  0  0  0  0  0  0  0  0  0  0  0
   48.3891   14.1035   18.1222 C   0  0  0  0  0  0  0  0  0  0  0  0
   48.5484    7.4172   18.5672 C   0  0  0  0  0  0  0  0  0  0  0  0
   49.3258   11.1444   16.0310 O   0  0  0  0  0  0  0  0  0  0  0  0
   47.2604   14.4490   17.8098 O   0  0  0  0  0  0  0  0  0  0  0  0
   47.3949    7.2629   18.9629 O   0  0  0  0  0  0  0  0  0  0  0  0
   49.6892    6.4686   18.8942 C   0  0  0  0  0  0  0  0  0  0  0  0
   49.3800   15.0188   18.1925 O   0  0  0  0  0  0  0  0  0  0  0  0
   50.1581   12.9000   20.6994 C   0  0  0  0  0  0  0  0  0  0  0  0
   47.6540   13.0839   20.7814 C   0  0  0  0  0  0  0  0  0  0  0  0
   49.3754    5.0201   18.6170 C   0  0  0  0  0  0  0  0  0  0  0  0
   49.7580    4.4239   17.4071 C   0  0  0  0  0  0  0  0  0  0  0  0
   48.6922    4.2481   19.5668 C   0  0  0  0  0  0  0  0  0  0  0  0
   49.4797    3.0772   17.1620 C   0  0  0  0  0  0  0  0  0  0  0  0
   48.4181    2.9019   19.3210 C   0  0  0  0  0  0  0  0  0  0  0  0
   48.8149    2.3151   18.1208 C   0  0  0  0  0  0  0  0  0  0  0  0
   49.7867    7.5587   18.5356 N   0  0  0  0  0  0  0  0  0  0  0  0
   48.6071   10.3070   18.4943 N   0  0  0  0  0  0  0  0  0  0  0  0
   48.4812   12.7255   19.0875 C   0  0  0  0  0  0  0  0  0  0  0  0
   48.3139    5.6067   18.4283 C   0  0  0  0  0  0  0  0  0  0  0  0
   48.6856    6.8583   19.1927 C   0  0  0  0  0  0  0  0  0  0  0  0
   47.7405   11.4502   18.7645 C   0  0  0  0  0  0  0  0  0  0  0  0
   50.3045    8.6677   19.3452 C   0  0  0  0  0  0  0  0  0  0  0  0
   49.3069    9.8061   19.6800 C   0  0  0  0  0  0  0  0  0  0  0  0
   48.4653   13.2462   20.3901 C   0  0  0  0  0  0  0  0  0  0  0  0
   49.2038   13.4056   18.0962 C   0  0  0  0  0  0  0  0  0  0  0  0
   47.6696    5.7025   17.1860 C   0  0  0  0  0  0  0  0  0  0  0  0
   48.6142    4.3365   18.9423 C   0  0  0  0  0  0  0  0  0  0  0  0
   49.1516   14.4236   20.6922 C   0  0  0  0  0  0  0  0  0  0  0  0
   47.3217    4.5531   16.4762 C   0  0  0  0  0  0  0  0  0  0  0  0
   48.2684    3.1877   18.2265 C   0  0  0  0  0  0  0  0  0  0  0  0
   49.8900   14.5828   18.3991 C   0  0  0  0  0  0  0  0  0  0  0  0
   49.8652   15.0907   19.6973 C   0  0  0  0  0  0  0  0  0  0  0  0
   47.6195    3.2958   16.9977 C   0  0  0  0  0  0  0  0  0  0  0  0
   47.8271   11.4325   20.5451 N   0  0  0  0  0  0  0  0  0  0  0  0
   48.7146   10.2594   20.5842 C   0  0  1  0  0  0  0  0  0  0  0  0
   46.8927   10.8221   19.7617 C   0  0  0  0  0  0  0  0  0  0  0  0
   47.5458    9.4360   19.9703 C   0  0  1  0  0  0  0  0  0  0  0  0
   48.4193   12.7152   20.1840 C   0  0  2  0  0  0  0  0  0  0  0  0
   50.1222   10.6883   19.4813 S   0  0  0  0  0  0  0  0  0  0  0  0
   49.5607   12.4263   19.1744 C   0  0  0  0  0  0  0  0  0  0  0  0
   47.8197    8.6552   18.7325 N   0  0  0  0  0  0  0  0  0  0  0  0
   48.8632   13.4726   21.4412 C   0  0  0  0  0  0  0  0  0  0  0  0
   48.6519    7.5545   18.7667 C   0  0  0  0  0  0  0  0  0  0  0  0
   46.0009   11.2757   19.0828 O   0  0  0  0  0  0  0  0  0  0  0  0
   49.2700   14.6257   21.4677 O   0  0  0  0  0  0  0  0  0  0  0  0
   49.1449    7.1485   19.8149 O   0  0  0  0  0  0  0  0  0  0  0  0
   48.9306    6.9441   17.4050 C   0  0  0  0  0  0  0  0  0  0  0  0
   48.8034   12.7674   22.5879 O   0  0  0  0  0  0  0  0  0  0  0  0
   50.7893   13.3370   19.2837 C   0  0  0  0  0  0  0  0  0  0  0  0
   49.0448   12.4886   17.7256 C   0  0  0  0  0  0  0  0  0  0  0  0
   48.7936    5.4430   17.3838 C   0  0  0  0  0  0  0  0  0  0  0  0
   47.5609    4.8423   17.0916 C   0  0  0  0  0  0  0  0  0  0  0  0
   49.8959    4.6276   17.6734 C   0  0  0  0  0  0  0  0  0  0  0  0
   47.4380    3.4512   17.0734 C   0  0  0  0  0  0  0  0  0  0  0  0
   49.7692    3.2373   17.6541 C   0  0  0  0  0  0  0  0  0  0  0  0
   48.5427    2.6487   17.3514 C   0  0  0  0  0  0  0  0  0  0  0  0
   48.4407    9.2081   18.6366 O   0  0  0  0  0  0  0  0  0  0  0  0
   48.4421    9.2267   18.6398 O   0  0  0  0  0  0  0  0  0  0  0  0
   48.4418    9.2248   18.6395 O   0  0  0  0  0  0  0  0  0  0  0  0
   48.9729    8.4044   18.6831 H   0  0  0  0  0  0  0  0  0  0  0  0
   49.0481    9.9089   18.9317 H   0  0  0  0  0  0  0  0  0  0  0  0
   46.5103   10.5946   18.9724 H   0  0  0  0  0  0  0  0  0  0  0  0
   47.0856    9.2440   16.9804 H   0  0  0  0  0  0  0  0  0  0  0  0
   49.8704   12.5876   18.1181 H   0  0  0  0  0  0  0  0  0  0  0  0
   49.9006    8.6606   17.6005 H   0  0  0  0  0  0  0  0  0  0  0  0
   50.5941    6.7537   18.3431 H   0  0  0  0  0  0  0  0  0  0  0  0
   49.9342    6.6000   19.9564 H   0  0  0  0  0  0  0  0  0  0  0  0
   48.9560   15.8515   17.8931 H   0  0  0  0  0  0  0  0  0  0  0  0
   51.0263   12.4349   20.2199 H   0  0  0  0  0  0  0  0  0  0  0  0
   50.2886   13.9847   20.6221 H   0  0  0  0  0  0  0  0  0  0  0  0
   50.1832   12.6467   21.7658 H   0  0  0  0  0  0  0  0  0  0  0  0
   47.7207   14.1786   20.7782 H   0  0  0  0  0  0  0  0  0  0  0  0
   46.6943   12.8113   20.3281 H   0  0  0  0  0  0  0  0  0  0  0  0
   47.6278   12.7737   21.8336 H   0  0  0  0  0  0  0  0  0  0  0  0
   50.2788    5.0016   16.6463 H   0  0  0  0  0  0  0  0  0  0  0  0
   48.3654    4.6934   20.5047 H   0  0  0  0  0  0  0  0  0  0  0  0
   49.7845    2.6207   16.2239 H   0  0  0  0  0  0  0  0  0  0  0  0
   47.8899    2.3120   20.0648 H   0  0  0  0  0  0  0  0  0  0  0  0
   48.5972    1.2675   17.9290 H   0  0  0  0  0  0  0  0  0  0  0  0
   50.5366    6.8932   18.3602 H   0  0  0  0  0  0  0  0  0  0  0  0
   49.2820   10.5276   17.7655 H   0  0  0  0  0  0  0  0  0  0  0  0
   47.7950    7.4958   19.2586 H   0  0  0  0  0  0  0  0  0  0  0  0
   48.9617    6.5844   20.2190 H   0  0  0  0  0  0  0  0  0  0  0  0
   47.1232   11.6340   17.8757 H   0  0  0  0  0  0  0  0  0  0  0  0
   47.0252   11.2046   19.5611 H   0  0  0  0  0  0  0  0  0  0  0  0
   51.1404    9.1084   18.7871 H   0  0  0  0  0  0  0  0  0  0  0  0
   50.7313    8.2793   20.2782 H   0  0  0  0  0  0  0  0  0  0  0  0
   49.8806   10.6074   20.1586 H   0  0  0  0  0  0  0  0  0  0  0  0
   48.5738    9.4481   20.4114 H   0  0  0  0  0  0  0  0  0  0  0  0
   47.9125   12.7370   21.1773 H   0  0  0  0  0  0  0  0  0  0  0  0
   49.2270   13.0216   17.0788 H   0  0  0  0  0  0  0  0  0  0  0  0
   47.4446    6.6828   16.7723 H   0  0  0  0  0  0  0  0  0  0  0  0
   49.1217    4.2331   19.8991 H   0  0  0  0  0  0  0  0  0  0  0  0
   49.1293   14.8181   21.7038 H   0  0  0  0  0  0  0  0  0  0  0  0
   46.8232    4.6407   15.5152 H   0  0  0  0  0  0  0  0  0  0  0  0
   48.5017    2.2058   18.6341 H   0  0  0  0  0  0  0  0  0  0  0  0
   50.4441   15.1028   17.6220 H   0  0  0  0  0  0  0  0  0  0  0  0
   50.3983   16.0080   19.9332 H   0  0  0  0  0  0  0  0  0  0  0  0
   47.3492    2.4003   16.4456 H   0  0  0  0  0  0  0  0  0  0  0  0
   49.0002    9.9758   21.6014 H   0  0  0  0  0  0  0  0  0  0  0  0
   46.9920    8.8293   20.6987 H   0  0  0  0  0  0  0  0  0  0  0  0
   47.6348   13.3318   19.7263 H   0  0  0  0  0  0  0  0  0  0  0  0
   47.4986    9.0116   17.8378 H   0  0  0  0  0  0  0  0  0  0  0  0
   48.2647    7.3750   16.6495 H   0  0  0  0  0  0  0  0  0  0  0  0
   49.9466    7.2369   17.1130 H   0  0  0  0  0  0  0  0  0  0  0  0
   49.1190   13.3884   23.2793 H   0  0  0  0  0  0  0  0  0  0  0  0
   51.2723   13.2670   20.2655 H   0  0  0  0  0  0  0  0  0  0  0  0
   50.5114   14.3858   19.1194 H   0  0  0  0  0  0  0  0  0  0  0  0
   51.5467   13.0849   18.5306 H   0  0  0  0  0  0  0  0  0  0  0  0
   48.2081   11.8095   17.5453 H   0  0  0  0  0  0  0  0  0  0  0  0
   48.7018   13.5015   17.4831 H   0  0  0  0  0  0  0  0  0  0  0  0
   49.8302   12.2331   17.0037 H   0  0  0  0  0  0  0  0  0  0  0  0
   46.6870    5.4502   16.8713 H   0  0  0  0  0  0  0  0  0  0  0  0
   50.8574    5.0726   17.9221 H   0  0  0  0  0  0  0  0  0  0  0  0
   46.4787    2.9919   16.8462 H   0  0  0  0  0  0  0  0  0  0  0  0
   50.6298    2.6134   17.8810 H   0  0  0  0  0  0  0  0  0  0  0  0
   48.4486    1.5662   17.3365 H   0  0  0  0  0  0  0  0  0  0  0  0
   48.9827    8.4062   18.6864 H   0  0  0  0  0  0  0  0  0  0  0  0
   49.0385    9.9125   18.9292 H   0  0  0  0  0  0  0  0  0  0  0  0
   48.9475    8.4007   18.6746 H   0  0  0  0  0  0  0  0  0  0  0  0
   49.0725    9.8993   18.9379 H   0  0  0  0  0  0  0  0  0  0  0  0
   49.0691    9.9008   18.9371 H   0  0  0  0  0  0  0  0  0  0  0  0
   48.9510    8.4012   18.6758 H   0  0  0  0  0  0  0  0  0  0  0  0
  3  2  1  0
  4  2  1  0
  5  3  1  0
  6  2  1  0
  3  7  1  0
  8  6  1  0
  5  9  1  0
  6 10  1  0
 11  9  1  0
 12  4  2  0
 13 10  2  0
 14 11  2  0
 15 11  1  0
 16 10  1  0
 17  8  1  0
 18  8  1  0
 19 15  1  0
 20 19  2  0
 21 19  1  0
 22 20  1  0
 23 21  2  0
 24 23  1  0
  7  8  1  0
  4  5  1  0
 24 22  2  0
 26 32  1  0
 27 30  1  0
 28 29  1  0
 29 25  1  0
 30 26  1  0
 31 25  1  0
 32 31  1  0
 33 27  2  0
 34 27  1  0
 35 28  2  0
 36 28  1  0
 37 33  1  0
 38 35  1  0
 39 36  2  0
 40 34  2  0
 41 37  2  0
 42 39  1  0
 42 38  2  0
 40 41  1  0
 44 43  1  0
 45 43  1  0
 46 44  1  0
 47 43  1  0
 44 48  1  0
 49 47  1  0
 46 50  1  0
 47 51  1  0
 52 50  1  0
 53 45  2  0
 54 51  2  0
 55 52  2  0
 56 52  1  0
 57 51  1  0
 58 49  1  0
 59 49  1  0
 60 56  1  0
 61 60  2  0
 62 60  1  0
 63 61  1  0
 64 62  2  0
 65 64  1  0
 48 49  1  0
 45 46  1  0
 65 63  2  0
  1 69  1  0
  1 70  1  0
  3 71  1  6
  5 72  1  1
  6 73  1  1
  9 74  1  0
 15 75  1  0
 15 76  1  0
 16 77  1  0
 17 78  1  0
 17 79  1  0
 17 80  1  0
 18 81  1  0
 18 82  1  0
 18 83  1  0
 20 84  1  0
 21 85  1  0
 22 86  1  0
 23 87  1  0
 24 88  1  0
 25 89  1  0
 26 90  1  0
 29 91  1  0
 29 92  1  0
 30 93  1  0
 30 94  1  0
 31 95  1  0
 31 96  1  0
 32 97  1  0
 32 98  1  0
 33 99  1  0
 34100  1  0
 35101  1  0
 36102  1  0
 37103  1  0
 38104  1  0
 39105  1  0
 40106  1  0
 41107  1  0
 42108  1  0
 44109  1  6
 46110  1  6
 47111  1  1
 50112  1  0
 56113  1  0
 56114  1  0
 57115  1  0
 58116  1  0
 58117  1  0
 58118  1  0
 59119  1  0
 59120  1  0
 59121  1  0
 61122  1  0
 62123  1  0
 63124  1  0
 64125  1  0
 65126  1  0
 66127  1  0
 66128  1  0
 67129  1  0
 67130  1  0
 68131  1  0
 68132  1  0
M  END
> <Uni-Dock RESULT> 
ENERGY=   -6.881  LOWER_BOUND=    4.854  UPPER_BOUND=    6.954
INTER + INTRA:          -6.881
INTER:                  -6.881
INTRA:                   0.000
UNBOUND:                 0.000

$$$$

     RDKit          3D

132133  0  0  0  0  0  0  0  0999 V2000
   49.3926    7.8206   15.8801 O   0  0  0  0  0  0  0  0  0  0  0  0
   50.6948    8.0720   13.6145 N   0  0  0  0  0  0  0  0  0  0  0  0
   49.5225    7.5142   14.3191 C   0  0  1  0  0  0  0  0  0  0  0  0
   51.4921    8.0317   14.7280 C   0  0  0  0  0  0  0  0  0  0  0  0
   50.4455    7.2237   15.5293 C   0  0  1  0  0  0  0  0  0  0  0  0
   50.5228    9.3443   12.9123 C   0  0  2  0  0  0  0  0  0  0  0  0
   48.3657    8.9420   14.4312 S   0  0  0  0  0  0  0  0  0  0  0  0
   49.0149    9.6541   12.8465 C   0  0  0  0  0  0  0  0  0  0  0  0
   50.0616    7.8014   16.8456 N   0  0  0  0  0  0  0  0  0  0  0  0
   51.1981    9.2901   11.5483 C   0  0  0  0  0  0  0  0  0  0  0  0
   48.9906    7.2926   17.5539 C   0  0  0  0  0  0  0  0  0  0  0  0
   52.5376    8.5889   14.9719 O   0  0  0  0  0  0  0  0  0  0  0  0
   51.3919    8.3045   10.8540 O   0  0  0  0  0  0  0  0  0  0  0  0
   48.3741    6.3015   17.1682 O   0  0  0  0  0  0  0  0  0  0  0  0
   48.6213    8.0891   18.7938 C   0  0  0  0  0  0  0  0  0  0  0  0
   51.5517   10.5135   11.0976 O   0  0  0  0  0  0  0  0  0  0  0  0
   48.7383   11.1587   12.8435 C   0  0  0  0  0  0  0  0  0  0  0  0
   48.2764    8.9787   11.6835 C   0  0  0  0  0  0  0  0  0  0  0  0
   48.4365    7.2436   20.0283 C   0  0  0  0  0  0  0  0  0  0  0  0
   49.4865    7.0708   20.9411 C   0  0  0  0  0  0  0  0  0  0  0  0
   47.2093    6.6144   20.2798 C   0  0  0  0  0  0  0  0  0  0  0  0
   49.3049    6.3000   22.0918 C   0  0  0  0  0  0  0  0  0  0  0  0
   47.0293    5.8475   21.4319 C   0  0  0  0  0  0  0  0  0  0  0  0
   48.0752    5.6932   22.3399 C   0  0  0  0  0  0  0  0  0  0  0  0
   49.2734    8.4514   17.9163 N   0  0  0  0  0  0  0  0  0  0  0  0
   49.8537    8.3025   14.9859 N   0  0  0  0  0  0  0  0  0  0  0  0
   49.9264    9.1612   12.6461 C   0  0  0  0  0  0  0  0  0  0  0  0
   48.5902    6.4327   19.1199 C   0  0  0  0  0  0  0  0  0  0  0  0
   48.2704    7.3919   17.9944 C   0  0  0  0  0  0  0  0  0  0  0  0
   49.7577    7.9762   13.5663 C   0  0  0  0  0  0  0  0  0  0  0  0
   48.8975    9.5064   16.9680 C   0  0  0  0  0  0  0  0  0  0  0  0
   48.7165    9.0770   15.4895 C   0  0  0  0  0  0  0  0  0  0  0  0
   48.8316    9.6643   11.9274 C   0  0  0  0  0  0  0  0  0  0  0  0
   51.1746    9.7840   12.5007 C   0  0  0  0  0  0  0  0  0  0  0  0
   49.6806    5.5568   19.0137 C   0  0  0  0  0  0  0  0  0  0  0  0
   47.8110    6.4100   20.2862 C   0  0  0  0  0  0  0  0  0  0  0  0
   48.9840   10.7616   11.0781 C   0  0  0  0  0  0  0  0  0  0  0  0
   49.9806    4.6679   20.0461 C   0  0  0  0  0  0  0  0  0  0  0  0
   48.1171    5.5216   21.3200 C   0  0  0  0  0  0  0  0  0  0  0  0
   51.3262   10.8814   11.6514 C   0  0  0  0  0  0  0  0  0  0  0  0
   50.2306   11.3710   10.9416 C   0  0  0  0  0  0  0  0  0  0  0  0
   49.1973    4.6493   21.1983 C   0  0  0  0  0  0  0  0  0  0  0  0
   48.0822    8.5155   13.2837 N   0  0  0  0  0  0  0  0  0  0  0  0
   47.8807    8.9318   14.6806 C   0  0  1  0  0  0  0  0  0  0  0  0
   48.4963    7.2592   13.6148 C   0  0  0  0  0  0  0  0  0  0  0  0
   48.0359    7.4361   15.0804 C   0  0  1  0  0  0  0  0  0  0  0  0
   48.8747    9.3893   12.4265 C   0  0  2  0  0  0  0  0  0  0  0  0
   49.2853   10.0598   15.0502 S   0  0  0  0  0  0  0  0  0  0  0  0
   49.9501   10.0587   13.3216 C   0  0  0  0  0  0  0  0  0  0  0  0
   49.0435    7.0953   16.1223 N   0  0  0  0  0  0  0  0  0  0  0  0
   47.9669   10.3762   11.6827 C   0  0  0  0  0  0  0  0  0  0  0  0
   48.8568    7.4848   17.4333 C   0  0  0  0  0  0  0  0  0  0  0  0
   49.1075    6.4282   12.9841 O   0  0  0  0  0  0  0  0  0  0  0  0
   48.3251   11.1403   10.7975 O   0  0  0  0  0  0  0  0  0  0  0  0
   47.8398    8.0683   17.7962 O   0  0  0  0  0  0  0  0  0  0  0  0
   50.0287    7.1735   18.3466 C   0  0  0  0  0  0  0  0  0  0  0  0
   46.6795   10.3847   12.0808 O   0  0  0  0  0  0  0  0  0  0  0  0
   50.3066   11.5055   12.9606 C   0  0  0  0  0  0  0  0  0  0  0  0
   51.2492    9.2334   13.3342 C   0  0  0  0  0  0  0  0  0  0  0  0
   49.6179    6.5371   19.6500 C   0  0  0  0  0  0  0  0  0  0  0  0
   49.5178    5.1432   19.7640 C   0  0  0  0  0  0  0  0  0  0  0  0
   49.3135    7.3340   20.7617 C   0  0  0  0  0  0  0  0  0  0  0  0
   49.1364    4.5575   20.9732 C   0  0  0  0  0  0  0  0  0  0  0  0
   48.9327    6.7449   21.9688 C   0  0  0  0  0  0  0  0  0  0  0  0
   48.8469    5.3580   22.0764 C   0  0  0  0  0  0  0  0  0  0  0  0
   49.3920    7.8183   15.8847 O   0  0  0  0  0  0  0  0  0  0  0  0
   49.3942    7.8267   15.8678 O   0  0  0  0  0  0  0  0  0  0  0  0
   49.3940    7.8257   15.8695 O   0  0  0  0  0  0  0  0  0  0  0  0
   49.2222    8.0401   16.8084 H   0  0  0  0  0  0  0  0  0  0  0  0
   49.4080    8.6815   15.4354 H   0  0  0  0  0  0  0  0  0  0  0  0
   49.1156    6.6297   13.8178 H   0  0  0  0  0  0  0  0  0  0  0  0
   50.7349    6.1710   15.6317 H   0  0  0  0  0  0  0  0  0  0  0  0
   51.0475   10.1161   13.4945 H   0  0  0  0  0  0  0  0  0  0  0  0
   50.4774    8.6813   17.1423 H   0  0  0  0  0  0  0  0  0  0  0  0
   49.3773    8.8589   18.9934 H   0  0  0  0  0  0  0  0  0  0  0  0
   47.6938    8.6336   18.5728 H   0  0  0  0  0  0  0  0  0  0  0  0
   51.9875   10.3329   10.2372 H   0  0  0  0  0  0  0  0  0  0  0  0
   49.2166   11.6607   13.6916 H   0  0  0  0  0  0  0  0  0  0  0  0
   49.1284   11.6228   11.9313 H   0  0  0  0  0  0  0  0  0  0  0  0
   47.6643   11.3755   12.8825 H   0  0  0  0  0  0  0  0  0  0  0  0
   48.5880    9.4079   10.7236 H   0  0  0  0  0  0  0  0  0  0  0  0
   48.4653    7.9002   11.6387 H   0  0  0  0  0  0  0  0  0  0  0  0
   47.1916    9.1264   11.7564 H   0  0  0  0  0  0  0  0  0  0  0  0
   50.4538    7.5371   20.7661 H   0  0  0  0  0  0  0  0  0  0  0  0
   46.3855    6.7154   19.5756 H   0  0  0  0  0  0  0  0  0  0  0  0
   50.1221    6.1753   22.7975 H   0  0  0  0  0  0  0  0  0  0  0  0
   46.0735    5.3659   21.6181 H   0  0  0  0  0  0  0  0  0  0  0  0
   47.9348    5.0923   23.2348 H   0  0  0  0  0  0  0  0  0  0  0  0
   49.3890    8.8585   18.8420 H   0  0  0  0  0  0  0  0  0  0  0  0
   50.7206    8.7960   15.1869 H   0  0  0  0  0  0  0  0  0  0  0  0
   48.2267    6.8195   17.0594 H   0  0  0  0  0  0  0  0  0  0  0  0
   47.2724    7.8182   18.1577 H   0  0  0  0  0  0  0  0  0  0  0  0
   50.5421    7.2471   13.3252 H   0  0  0  0  0  0  0  0  0  0  0  0
   48.8130    7.4555   13.3593 H   0  0  0  0  0  0  0  0  0  0  0  0
   49.6904   10.2645   17.0018 H   0  0  0  0  0  0  0  0  0  0  0  0
   47.9828   10.0057   17.3108 H   0  0  0  0  0  0  0  0  0  0  0  0
   48.5802    9.9917   14.9023 H   0  0  0  0  0  0  0  0  0  0  0  0
   47.7999    8.4852   15.3891 H   0  0  0  0  0  0  0  0  0  0  0  0
   47.8523    9.1991   12.0233 H   0  0  0  0  0  0  0  0  0  0  0  0
   52.0378    9.4084   13.0458 H   0  0  0  0  0  0  0  0  0  0  0  0
   50.2993    5.5760   18.1194 H   0  0  0  0  0  0  0  0  0  0  0  0
   46.9651    7.0848   20.3991 H   0  0  0  0  0  0  0  0  0  0  0  0
   48.1294   11.1400   10.5250 H   0  0  0  0  0  0  0  0  0  0  0  0
   50.8277    3.9948   19.9516 H   0  0  0  0  0  0  0  0  0  0  0  0
   47.5053    5.5078   22.2201 H   0  0  0  0  0  0  0  0  0  0  0  0
   52.2991   11.3540   11.5444 H   0  0  0  0  0  0  0  0  0  0  0  0
   50.3485   12.2246   10.2792 H   0  0  0  0  0  0  0  0  0  0  0  0
   49.4303    3.9577   22.0029 H   0  0  0  0  0  0  0  0  0  0  0  0
   46.8903    9.3610   14.8580 H   0  0  0  0  0  0  0  0  0  0  0  0
   47.0858    6.9216   15.2748 H   0  0  0  0  0  0  0  0  0  0  0  0
   49.3393    8.7684   11.6495 H   0  0  0  0  0  0  0  0  0  0  0  0
   49.9317    6.6908   15.8426 H   0  0  0  0  0  0  0  0  0  0  0  0
   50.7455    6.5189   17.8390 H   0  0  0  0  0  0  0  0  0  0  0  0
   50.5607    8.1142   18.5345 H   0  0  0  0  0  0  0  0  0  0  0  0
   46.2481   11.0611   11.5154 H   0  0  0  0  0  0  0  0  0  0  0  0
   49.4418   12.1760   13.0293 H   0  0  0  0  0  0  0  0  0  0  0  0
   50.6985   11.5655   11.9374 H   0  0  0  0  0  0  0  0  0  0  0  0
   51.0825   11.9076   13.6245 H   0  0  0  0  0  0  0  0  0  0  0  0
   51.0906    8.2004   13.6528 H   0  0  0  0  0  0  0  0  0  0  0  0
   51.6941    9.2018   12.3324 H   0  0  0  0  0  0  0  0  0  0  0  0
   51.9995    9.6678   14.0063 H   0  0  0  0  0  0  0  0  0  0  0  0
   49.7398    4.5008   18.9156 H   0  0  0  0  0  0  0  0  0  0  0  0
   49.3655    8.4187   20.6901 H   0  0  0  0  0  0  0  0  0  0  0  0
   49.0605    3.4756   21.0545 H   0  0  0  0  0  0  0  0  0  0  0  0
   48.6978    7.3716   22.8252 H   0  0  0  0  0  0  0  0  0  0  0  0
   48.5511    4.9034   23.0181 H   0  0  0  0  0  0  0  0  0  0  0  0
   49.2212    8.0505   16.8100 H   0  0  0  0  0  0  0  0  0  0  0  0
   49.4097    8.6734   15.4289 H   0  0  0  0  0  0  0  0  0  0  0  0
   49.2249    8.0137   16.8034 H   0  0  0  0  0  0  0  0  0  0  0  0
   49.4038    8.7018   15.4525 H   0  0  0  0  0  0  0  0  0  0  0  0
   49.4044    8.6991   15.4499 H   0  0  0  0  0  0  0  0  0  0  0  0
   49.2245    8.0174   16.8042 H   0  0  0  0  0  0  0  0  0  0  0  0
  3  2  1  0
  4  2  1  0
  5  3  1  0
  6  2  1  0
  3  7  1  0
  8  6  1  0
  5  9  1  0
  6 10  1  0
 11  9  1  0
 12  4  2  0
 13 10  2  0
 14 11  2  0
 15 11  1  0
 16 10  1  0
 17  8  1  0
 18  8  1  0
 19 15  1  0
 20 19  2  0
 21 19  1  0
 22 20  1  0
 23 21  2  0
 24 23  1  0
  7  8  1  0
  4  5  1  0
 24 22  2  0
 26 32  1  0
 27 30  1  0
 28 29  1  0
 29 25  1  0
 30 26  1  0
 31 25  1  0
 32 31  1  0
 33 27  2  0
 34 27  1  0
 35 28  2  0
 36 28  1  0
 37 33  1  0
 38 35  1  0
 39 36  2  0
 40 34  2  0
 41 37  2  0
 42 39  1  0
 42 38  2  0
 40 41  1  0
 44 43  1  0
 45 43  1  0
 46 44  1  0
 47 43  1  0
 44 48  1  0
 49 47  1  0
 46 50  1  0
 47 51  1  0
 52 50  1  0
 53 45  2  0
 54 51  2  0
 55 52  2  0
 56 52  1  0
 57 51  1  0
 58 49  1  0
 59 49  1  0
 60 56  1  0
 61 60  2  0
 62 60  1  0
 63 61  1  0
 64 62  2  0
 65 64  1  0
 48 49  1  0
 45 46  1  0
 65 63  2  0
  1 69  1  0
  1 70  1  0
  3 71  1  6
  5 72  1  1
  6 73  1  1
  9 74  1  0
 15 75  1  0
 15 76  1  0
 16 77  1  0
 17 78  1  0
 17 79  1  0
 17 80  1  0
 18 81  1  0
 18 82  1  0
 18 83  1  0
 20 84  1  0
 21 85  1  0
 22 86  1  0
 23 87  1  0
 24 88  1  0
 25 89  1  0
 26 90  1  0
 29 91  1  0
 29 92  1  0
 30 93  1  0
 30 94  1  0
 31 95  1  0
 31 96  1  0
 32 97  1  0
 32 98  1  0
 33 99  1  0
 34100  1  0
 35101  1  0
 36102  1  0
 37103  1  0
 38104  1  0
 39105  1  0
 40106  1  0
 41107  1  0
 42108  1  0
 44109  1  6
 46110  1  6
 47111  1  1
 50112  1  0
 56113  1  0
 56114  1  0
 57115  1  0
 58116  1  0
 58117  1  0
 58118  1  0
 59119  1  0
 59120  1  0
 59121  1  0
 61122  1  0
 62123  1  0
 63124  1  0
 64125  1  0
 65126  1  0
 66127  1  0
 66128  1  0
 67129  1  0
 67130  1  0
 68131  1  0
 68132  1  0
M  END
> <Uni-Dock RESULT> 
ENERGY=   -6.453  LOWER_BOUND=    3.800  UPPER_BOUND=    6.244
INTER + INTRA:          -6.453
INTER:                  -6.453
INTRA:                   0.000
UNBOUND:                 0.000

$$$$

     RDKit          3D

132133  0  0  0  0  0  0  0  0999 V2000
   49.2456    8.8330   15.9963 O   0  0  0  0  0  0  0  0  0  0  0  0
   50.2940    7.9032   13.7763 N   0  0  0  0  0  0  0  0  0  0  0  0
   49.0671    8.2615   14.5168 C   0  0  1  0  0  0  0  0  0  0  0  0
   50.9903    7.5838   14.9123 C   0  0  0  0  0  0  0  0  0  0  0  0
   49.7255    7.6852   15.7957 C   0  0  1  0  0  0  0  0  0  0  0  0
   50.8505    8.9007   12.8616 C   0  0  2  0  0  0  0  0  0  0  0  0
   48.9721   10.0912   14.3369 S   0  0  0  0  0  0  0  0  0  0  0  0
   49.8068   10.0200   12.6822 C   0  0  0  0  0  0  0  0  0  0  0  0
   49.8404    8.5816   16.9777 N   0  0  0  0  0  0  0  0  0  0  0  0
   51.2738    8.2415   11.5556 C   0  0  0  0  0  0  0  0  0  0  0  0
   48.7243    8.9199   17.7176 C   0  0  0  0  0  0  0  0  0  0  0  0
   52.1779    7.4527   15.1006 O   0  0  0  0  0  0  0  0  0  0  0  0
   50.8087    7.2333   11.0475 O   0  0  0  0  0  0  0  0  0  0  0  0
   47.6211    8.4321   17.4810 O   0  0  0  0  0  0  0  0  0  0  0  0
   48.9737    9.9691   18.7877 C   0  0  0  0  0  0  0  0  0  0  0  0
   52.2438    8.9326   10.9183 O   0  0  0  0  0  0  0  0  0  0  0  0
   50.4612   11.3761   12.4120 C   0  0  0  0  0  0  0  0  0  0  0  0
   48.7371    9.7288   11.6216 C   0  0  0  0  0  0  0  0  0  0  0  0
   48.4134    9.6056   20.1394 C   0  0  0  0  0  0  0  0  0  0  0  0
   49.2233    9.0003   21.1106 C   0  0  0  0  0  0  0  0  0  0  0  0
   47.0700    9.8660   20.4436 C   0  0  0  0  0  0  0  0  0  0  0  0
   48.7037    8.6807   22.3672 C   0  0  0  0  0  0  0  0  0  0  0  0
   46.5539    9.5487   21.7009 C   0  0  0  0  0  0  0  0  0  0  0  0
   47.3710    8.9599   22.6641 C   0  0  0  0  0  0  0  0  0  0  0  0
   49.6540    9.7326   17.8889 N   0  0  0  0  0  0  0  0  0  0  0  0
   49.8400    8.8009   15.0529 N   0  0  0  0  0  0  0  0  0  0  0  0
   50.2431    9.0619   12.6061 C   0  0  0  0  0  0  0  0  0  0  0  0
   48.0034    8.7249   19.3892 C   0  0  0  0  0  0  0  0  0  0  0  0
   48.2292    9.4920   18.1048 C   0  0  0  0  0  0  0  0  0  0  0  0
   49.4767    8.3687   13.7067 C   0  0  0  0  0  0  0  0  0  0  0  0
   49.9022   10.6373   16.7605 C   0  0  0  0  0  0  0  0  0  0  0  0
   49.4058   10.1637   15.3704 C   0  0  0  0  0  0  0  0  0  0  0  0
   49.6029    9.9871   11.7680 C   0  0  0  0  0  0  0  0  0  0  0  0
   51.6070    8.8012   12.4083 C   0  0  0  0  0  0  0  0  0  0  0  0
   48.3673    7.3732   19.4783 C   0  0  0  0  0  0  0  0  0  0  0  0
   47.4380    9.3520   20.5094 C   0  0  0  0  0  0  0  0  0  0  0  0
   50.3098   10.6317   10.7515 C   0  0  0  0  0  0  0  0  0  0  0  0
   48.1603    6.6585   20.6583 C   0  0  0  0  0  0  0  0  0  0  0  0
   47.2363    8.6343   21.6909 C   0  0  0  0  0  0  0  0  0  0  0  0
   52.3133    9.4464   11.3917 C   0  0  0  0  0  0  0  0  0  0  0  0
   51.6650   10.3626   10.5646 C   0  0  0  0  0  0  0  0  0  0  0  0
   47.5929    7.2889   21.7638 C   0  0  0  0  0  0  0  0  0  0  0  0
   48.4168    9.7334   13.2680 N   0  0  0  0  0  0  0  0  0  0  0  0
   48.5905   10.4076   14.5643 C   0  0  1  0  0  0  0  0  0  0  0  0
   48.0407    8.5468   13.8246 C   0  0  0  0  0  0  0  0  0  0  0  0
   47.8698    9.1938   15.2186 C   0  0  1  0  0  0  0  0  0  0  0  0
   49.5107    9.8241   12.3080 C   0  0  2  0  0  0  0  0  0  0  0  0
   50.4103   10.5395   14.7940 S   0  0  0  0  0  0  0  0  0  0  0  0
   50.8316    9.8698   13.1196 C   0  0  0  0  0  0  0  0  0  0  0  0
   48.5560    8.5010   16.3437 N   0  0  0  0  0  0  0  0  0  0  0  0
   49.3023   11.0195   11.3705 C   0  0  0  0  0  0  0  0  0  0  0  0
   48.7202    9.1314   17.5607 C   0  0  0  0  0  0  0  0  0  0  0  0
   48.0078    7.4268   13.3700 O   0  0  0  0  0  0  0  0  0  0  0  0
   49.9789   11.2732   10.3837 O   0  0  0  0  0  0  0  0  0  0  0  0
   48.2623   10.2494   17.7770 O   0  0  0  0  0  0  0  0  0  0  0  0
   49.5480    8.3449   18.5609 C   0  0  0  0  0  0  0  0  0  0  0  0
   48.2924   11.8453   11.7082 O   0  0  0  0  0  0  0  0  0  0  0  0
   51.9405   10.7510   12.5328 C   0  0  0  0  0  0  0  0  0  0  0  0
   51.4018    8.4551   13.3257 C   0  0  0  0  0  0  0  0  0  0  0  0
   48.9314    8.2910   19.9355 C   0  0  0  0  0  0  0  0  0  0  0  0
   48.0444    7.2615   20.2807 C   0  0  0  0  0  0  0  0  0  0  0  0
   49.2250    9.2817   20.8821 C   0  0  0  0  0  0  0  0  0  0  0  0
   47.4750    7.2154   21.5552 C   0  0  0  0  0  0  0  0  0  0  0  0
   48.6539    9.2323   22.1552 C   0  0  0  0  0  0  0  0  0  0  0  0
   47.7821    8.1988   22.4933 C   0  0  0  0  0  0  0  0  0  0  0  0
   49.2440    8.8323   16.0012 O   0  0  0  0  0  0  0  0  0  0  0  0
   49.2497    8.8349   15.9832 O   0  0  0  0  0  0  0  0  0  0  0  0
   49.2490    8.8345   15.9851 O   0  0  0  0  0  0  0  0  0  0  0  0
   49.2981    9.2571   16.8660 H   0  0  0  0  0  0  0  0  0  0  0  0
   49.7308    9.4356   15.4127 H   0  0  0  0  0  0  0  0  0  0  0  0
   48.1879    7.7167   14.1569 H   0  0  0  0  0  0  0  0  0  0  0  0
   49.3520    6.6965   16.0873 H   0  0  0  0  0  0  0  0  0  0  0  0
   51.7647    9.2999   13.3251 H   0  0  0  0  0  0  0  0  0  0  0  0
   50.7105    9.0843   17.1372 H   0  0  0  0  0  0  0  0  0  0  0  0
   50.0482   10.1693   18.8844 H   0  0  0  0  0  0  0  0  0  0  0  0
   48.5263   10.9093   18.4395 H   0  0  0  0  0  0  0  0  0  0  0  0
   52.4333    8.3948   10.1198 H   0  0  0  0  0  0  0  0  0  0  0  0
   51.1982   11.6313   13.1813 H   0  0  0  0  0  0  0  0  0  0  0  0
   50.9866   11.3685   11.4510 H   0  0  0  0  0  0  0  0  0  0  0  0
   49.7214   12.1841   12.3694 H   0  0  0  0  0  0  0  0  0  0  0  0
   49.1754    9.7318   10.6163 H   0  0  0  0  0  0  0  0  0  0  0  0
   48.2572    8.7546   11.7686 H   0  0  0  0  0  0  0  0  0  0  0  0
   47.9503   10.4937   11.6238 H   0  0  0  0  0  0  0  0  0  0  0  0
   50.2665    8.7752   20.8987 H   0  0  0  0  0  0  0  0  0  0  0  0
   46.4151   10.3153   19.6993 H   0  0  0  0  0  0  0  0  0  0  0  0
   49.3394    8.2167   23.1168 H   0  0  0  0  0  0  0  0  0  0  0  0
   45.5119    9.7569   21.9270 H   0  0  0  0  0  0  0  0  0  0  0  0
   46.9667    8.7097   23.6416 H   0  0  0  0  0  0  0  0  0  0  0  0
   50.0473   10.1376   18.7359 H   0  0  0  0  0  0  0  0  0  0  0  0
   50.8430    8.7169   15.2025 H   0  0  0  0  0  0  0  0  0  0  0  0
   47.7969    8.9122   17.2798 H   0  0  0  0  0  0  0  0  0  0  0  0
   47.6814   10.4419   18.1521 H   0  0  0  0  0  0  0  0  0  0  0  0
   49.6696    7.2912   13.6255 H   0  0  0  0  0  0  0  0  0  0  0  0
   48.3944    8.4757   13.5526 H   0  0  0  0  0  0  0  0  0  0  0  0
   50.9885   10.7799   16.6973 H   0  0  0  0  0  0  0  0  0  0  0  0
   49.4765   11.6253   16.9755 H   0  0  0  0  0  0  0  0  0  0  0  0
   49.7901   10.8749   14.6310 H   0  0  0  0  0  0  0  0  0  0  0  0
   48.3120   10.2150   15.3344 H   0  0  0  0  0  0  0  0  0  0  0  0
   48.5454   10.2072   11.9013 H   0  0  0  0  0  0  0  0  0  0  0  0
   52.1227    8.0851   13.0443 H   0  0  0  0  0  0  0  0  0  0  0  0
   48.8191    6.8813   18.6199 H   0  0  0  0  0  0  0  0  0  0  0  0
   47.1550   10.4018   20.4711 H   0  0  0  0  0  0  0  0  0  0  0  0
   49.8021   11.3436   10.1075 H   0  0  0  0  0  0  0  0  0  0  0  0
   48.4465    5.6122   20.7145 H   0  0  0  0  0  0  0  0  0  0  0  0
   46.7937    9.1274   22.5543 H   0  0  0  0  0  0  0  0  0  0  0  0
   53.3692    9.2341   11.2459 H   0  0  0  0  0  0  0  0  0  0  0  0
   52.2143   10.8642    9.7721 H   0  0  0  0  0  0  0  0  0  0  0  0
   47.4317    6.7333   22.6830 H   0  0  0  0  0  0  0  0  0  0  0  0
   48.0516   11.3576   14.6253 H   0  0  0  0  0  0  0  0  0  0  0  0
   46.8137    9.3738   15.4585 H   0  0  0  0  0  0  0  0  0  0  0  0
   49.4720    8.9333   11.6676 H   0  0  0  0  0  0  0  0  0  0  0  0
   49.0197    7.6140   16.1736 H   0  0  0  0  0  0  0  0  0  0  0  0
   49.7118    7.3230   18.2018 H   0  0  0  0  0  0  0  0  0  0  0  0
   50.5402    8.8101   18.6078 H   0  0  0  0  0  0  0  0  0  0  0  0
   48.3002   12.5438   11.0188 H   0  0  0  0  0  0  0  0  0  0  0  0
   51.6368   11.8014   12.4508 H   0  0  0  0  0  0  0  0  0  0  0  0
   52.2240   10.4036   11.5312 H   0  0  0  0  0  0  0  0  0  0  0  0
   52.8475   10.7227   13.1499 H   0  0  0  0  0  0  0  0  0  0  0  0
   50.6919    7.7794   13.8085 H   0  0  0  0  0  0  0  0  0  0  0  0
   51.6762    8.0073   12.3629 H   0  0  0  0  0  0  0  0  0  0  0  0
   52.3076    8.4686   13.9443 H   0  0  0  0  0  0  0  0  0  0  0  0
   47.7922    6.4843   19.5638 H   0  0  0  0  0  0  0  0  0  0  0  0
   49.8955   10.1008   20.6293 H   0  0  0  0  0  0  0  0  0  0  0  0
   46.7875    6.4141   21.8161 H   0  0  0  0  0  0  0  0  0  0  0  0
   48.8872   10.0059   22.8822 H   0  0  0  0  0  0  0  0  0  0  0  0
   47.3405    8.1635   23.4857 H   0  0  0  0  0  0  0  0  0  0  0  0
   49.3035    9.2662   16.8658 H   0  0  0  0  0  0  0  0  0  0  0  0
   49.7270    9.4271   15.4077 H   0  0  0  0  0  0  0  0  0  0  0  0
   49.2845    9.2338   16.8656 H   0  0  0  0  0  0  0  0  0  0  0  0
   49.7404    9.4570   15.4259 H   0  0  0  0  0  0  0  0  0  0  0  0
   49.7391    9.4541   15.4238 H   0  0  0  0  0  0  0  0  0  0  0  0
   49.2864    9.2371   16.8657 H   0  0  0  0  0  0  0  0  0  0  0  0
  3  2  1  0
  4  2  1  0
  5  3  1  0
  6  2  1  0
  3  7  1  0
  8  6  1  0
  5  9  1  0
  6 10  1  0
 11  9  1  0
 12  4  2  0
 13 10  2  0
 14 11  2  0
 15 11  1  0
 16 10  1  0
 17  8  1  0
 18  8  1  0
 19 15  1  0
 20 19  2  0
 21 19  1  0
 22 20  1  0
 23 21  2  0
 24 23  1  0
  7  8  1  0
  4  5  1  0
 24 22  2  0
 26 32  1  0
 27 30  1  0
 28 29  1  0
 29 25  1  0
 30 26  1  0
 31 25  1  0
 32 31  1  0
 33 27  2  0
 34 27  1  0
 35 28  2  0
 36 28  1  0
 37 33  1  0
 38 35  1  0
 39 36  2  0
 40 34  2  0
 41 37  2  0
 42 39  1  0
 42 38  2  0
 40 41  1  0
 44 43  1  0
 45 43  1  0
 46 44  1  0
 47 43  1  0
 44 48  1  0
 49 47  1  0
 46 50  1  0
 47 51  1  0
 52 50  1  0
 53 45  2  0
 54 51  2  0
 55 52  2  0
 56 52  1  0
 57 51  1  0
 58 49  1  0
 59 49  1  0
 60 56  1  0
 61 60  2  0
 62 60  1  0
 63 61  1  0
 64 62  2  0
 65 64  1  0
 48 49  1  0
 45 46  1  0
 65 63  2  0
  1 69  1  0
  1 70  1  0
  3 71  1  6
  5 72  1  1
  6 73  1  1
  9 74  1  0
 15 75  1  0
 15 76  1  0
 16 77  1  0
 17 78  1  0
 17 79  1  0
 17 80  1  0
 18 81  1  0
 18 82  1  0
 18 83  1  0
 20 84  1  0
 21 85  1  0
 22 86  1  0
 23 87  1  0
 24 88  1  0
 25 89  1  0
 26 90  1  0
 29 91  1  0
 29 92  1  0
 30 93  1  0
 30 94  1  0
 31 95  1  0
 31 96  1  0
 32 97  1  0
 32 98  1  0
 33 99  1  0
 34100  1  0
 35101  1  0
 36102  1  0
 37103  1  0
 38104  1  0
 39105  1  0
 40106  1  0
 41107  1  0
 42108  1  0
 44109  1  6
 46110  1  6
 47111  1  1
 50112  1  0
 56113  1  0
 56114  1  0
 57115  1  0
 58116  1  0
 58117  1  0
 58118  1  0
 59119  1  0
 59120  1  0
 59121  1  0
 61122  1  0
 62123  1  0
 63124  1  0
 64125  1  0
 65126  1  0
 66127  1  0
 66128  1  0
 67129  1  0
 67130  1  0
 68131  1  0
 68132  1  0
M  END
> <Uni-Dock RESULT> 
ENERGY=   -6.430  LOWER_BOUND=    3.505  UPPER_BOUND=    6.634
INTER + INTRA:          -6.430
INTER:                  -6.430
INTRA:                   0.000
UNBOUND:                 0.000

$$$$

     RDKit          3D

132133  0  0  0  0  0  0  0  0999 V2000
   48.6683   10.6840   17.8244 O   0  0  0  0  0  0  0  0  0  0  0  0
   48.7343   12.9125   19.2105 N   0  0  0  0  0  0  0  0  0  0  0  0
   47.9573   11.7235   18.8048 C   0  0  1  0  0  0  0  0  0  0  0  0
   49.4580   12.9437   18.0475 C   0  0  0  0  0  0  0  0  0  0  0  0
   48.5708   11.8624   17.3887 C   0  0  1  0  0  0  0  0  0  0  0  0
   49.4475   12.8542   20.4871 C   0  0  2  0  0  0  0  0  0  0  0  0
   48.5985   10.3924   19.9032 S   0  0  0  0  0  0  0  0  0  0  0  0
   48.9542   11.6123   21.2542 C   0  0  0  0  0  0  0  0  0  0  0  0
   49.2978   10.6894   16.8325 N   0  0  0  0  0  0  0  0  0  0  0  0
   49.2686   14.1590   21.2518 C   0  0  0  0  0  0  0  0  0  0  0  0
   48.6102    9.5674   16.4130 C   0  0  0  0  0  0  0  0  0  0  0  0
   50.4927   13.5081   17.7755 O   0  0  0  0  0  0  0  0  0  0  0  0
   48.3289   14.9359   21.1858 O   0  0  0  0  0  0  0  0  0  0  0  0
   47.3816    9.5289   16.4051 O   0  0  0  0  0  0  0  0  0  0  0  0
   49.4960    8.3953   16.0263 C   0  0  0  0  0  0  0  0  0  0  0  0
   50.2784   14.3931   22.1180 O   0  0  0  0  0  0  0  0  0  0  0  0
   50.0406   11.0284   22.1591 C   0  0  0  0  0  0  0  0  0  0  0  0
   47.6618   11.8289   22.0522 C   0  0  0  0  0  0  0  0  0  0  0  0
   49.1369    7.7715   14.7014 C   0  0  0  0  0  0  0  0  0  0  0  0
   49.8066    8.1473   13.5285 C   0  0  0  0  0  0  0  0  0  0  0  0
   48.1233    6.8063   14.6236 C   0  0  0  0  0  0  0  0  0  0  0  0
   49.4816    7.5543   12.3063 C   0  0  0  0  0  0  0  0  0  0  0  0
   47.8025    6.2128   13.4018 C   0  0  0  0  0  0  0  0  0  0  0  0
   48.4838    6.5835   12.2439 C   0  0  0  0  0  0  0  0  0  0  0  0
   49.8072    9.3120   16.6501 N   0  0  0  0  0  0  0  0  0  0  0  0
   48.9793   11.4285   18.5947 N   0  0  0  0  0  0  0  0  0  0  0  0
   48.9238   12.5697   20.8109 C   0  0  0  0  0  0  0  0  0  0  0  0
   48.2476    8.5922   14.9064 C   0  0  0  0  0  0  0  0  0  0  0  0
   48.4938    8.7257   16.3933 C   0  0  0  0  0  0  0  0  0  0  0  0
   48.1915   12.2147   19.5393 C   0  0  0  0  0  0  0  0  0  0  0  0
   50.1638    9.2796   18.0732 C   0  0  0  0  0  0  0  0  0  0  0  0
   49.2318   10.0554   19.0391 C   0  0  0  0  0  0  0  0  0  0  0  0
   48.5657   11.9709   22.0280 C   0  0  0  0  0  0  0  0  0  0  0  0
   49.9780   13.4948   20.7968 C   0  0  0  0  0  0  0  0  0  0  0  0
   48.0241    9.7333   14.1219 C   0  0  0  0  0  0  0  0  0  0  0  0
   48.2480    7.3324   14.2896 C   0  0  0  0  0  0  0  0  0  0  0  0
   49.2429   12.2951   23.2048 C   0  0  0  0  0  0  0  0  0  0  0  0
   47.7942    9.6183   12.7508 C   0  0  0  0  0  0  0  0  0  0  0  0
   48.0218    7.2214   12.9154 C   0  0  0  0  0  0  0  0  0  0  0  0
   50.6549   13.8183   21.9739 C   0  0  0  0  0  0  0  0  0  0  0  0
   50.2883   13.2172   23.1773 C   0  0  0  0  0  0  0  0  0  0  0  0
   47.7911    8.3620   12.1483 C   0  0  0  0  0  0  0  0  0  0  0  0
   47.7311   10.9030   20.6555 N   0  0  0  0  0  0  0  0  0  0  0  0
   48.4417    9.8703   19.8849 C   0  0  1  0  0  0  0  0  0  0  0  0
   47.0221   11.3554   19.5820 C   0  0  0  0  0  0  0  0  0  0  0  0
   47.4378   10.1363   18.7263 C   0  0  1  0  0  0  0  0  0  0  0  0
   48.5312   11.7965   21.4849 C   0  0  2  0  0  0  0  0  0  0  0  0
   50.1535   10.5134   19.6896 S   0  0  0  0  0  0  0  0  0  0  0  0
   49.8900   11.9980   20.7649 C   0  0  0  0  0  0  0  0  0  0  0  0
   47.9944   10.4477   17.3810 N   0  0  0  0  0  0  0  0  0  0  0  0
   48.6464   11.2434   22.9105 C   0  0  0  0  0  0  0  0  0  0  0  0
   48.6615    9.4807   16.6563 C   0  0  0  0  0  0  0  0  0  0  0  0
   46.4291   12.3927   19.3970 O   0  0  0  0  0  0  0  0  0  0  0  0
   49.1400   11.8325   23.8619 O   0  0  0  0  0  0  0  0  0  0  0  0
   48.7693    8.3274   17.0624 O   0  0  0  0  0  0  0  0  0  0  0  0
   49.2775    9.9871   15.3646 C   0  0  0  0  0  0  0  0  0  0  0  0
   48.1704    9.9945   23.0824 O   0  0  0  0  0  0  0  0  0  0  0  0
   51.1126   12.1309   21.6804 C   0  0  0  0  0  0  0  0  0  0  0  0
   49.8475   13.2277   19.8402 C   0  0  0  0  0  0  0  0  0  0  0  0
   49.0028    9.0942   14.1814 C   0  0  0  0  0  0  0  0  0  0  0  0
   47.8630    9.2895   13.3886 C   0  0  0  0  0  0  0  0  0  0  0  0
   49.8769    8.0445   13.8689 C   0  0  0  0  0  0  0  0  0  0  0  0
   47.6119    8.4599   12.2935 C   0  0  0  0  0  0  0  0  0  0  0  0
   49.6226    7.2172   12.7734 C   0  0  0  0  0  0  0  0  0  0  0  0
   48.4931    7.4259   11.9840 C   0  0  0  0  0  0  0  0  0  0  0  0
   48.6676   10.6815   17.8198 O   0  0  0  0  0  0  0  0  0  0  0  0
   48.6699   10.6906   17.8364 O   0  0  0  0  0  0  0  0  0  0  0  0
   48.6696   10.6897   17.8346 O   0  0  0  0  0  0  0  0  0  0  0  0
   49.0767    9.9824   17.2952 H   0  0  0  0  0  0  0  0  0  0  0  0
   49.2242   10.7329   18.6166 H   0  0  0  0  0  0  0  0  0  0  0  0
   46.8766   11.8902   18.8652 H   0  0  0  0  0  0  0  0  0  0  0  0
   47.8903   12.2921   16.6440 H   0  0  0  0  0  0  0  0  0  0  0  0
   50.5204   12.7643   20.2618 H   0  0  0  0  0  0  0  0  0  0  0  0
   50.3102   10.6440   16.9226 H   0  0  0  0  0  0  0  0  0  0  0  0
   50.5494    8.7015   16.0072 H   0  0  0  0  0  0  0  0  0  0  0  0
   49.4189    7.6453   16.8243 H   0  0  0  0  0  0  0  0  0  0  0  0
   50.0516   15.2595   22.5189 H   0  0  0  0  0  0  0  0  0  0  0  0
   50.9620   10.8201   21.6042 H   0  0  0  0  0  0  0  0  0  0  0  0
   50.2972   11.7305   22.9596 H   0  0  0  0  0  0  0  0  0  0  0  0
   49.7151   10.0974   22.6379 H   0  0  0  0  0  0  0  0  0  0  0  0
   47.8364   12.5032   22.8993 H   0  0  0  0  0  0  0  0  0  0  0  0
   46.8627   12.2659   21.4429 H   0  0  0  0  0  0  0  0  0  0  0  0
   47.2863   10.8873   22.4723 H   0  0  0  0  0  0  0  0  0  0  0  0
   50.5893    8.9025   13.5564 H   0  0  0  0  0  0  0  0  0  0  0  0
   47.5738    6.5132   15.5162 H   0  0  0  0  0  0  0  0  0  0  0  0
   50.0091    7.8470   11.4022 H   0  0  0  0  0  0  0  0  0  0  0  0
   47.0168    5.4642   13.3530 H   0  0  0  0  0  0  0  0  0  0  0  0
   48.2301    6.1233   11.2923 H   0  0  0  0  0  0  0  0  0  0  0  0
   50.5039    8.7945   16.1182 H   0  0  0  0  0  0  0  0  0  0  0  0
   49.8623   11.8895   18.3868 H   0  0  0  0  0  0  0  0  0  0  0  0
   47.6944    9.3457   16.8179 H   0  0  0  0  0  0  0  0  0  0  0  0
   48.4162    7.7359   16.8610 H   0  0  0  0  0  0  0  0  0  0  0  0
   47.8951   13.1504   19.0478 H   0  0  0  0  0  0  0  0  0  0  0  0
   47.2471   11.7015   19.7657 H   0  0  0  0  0  0  0  0  0  0  0  0
   51.1697    9.7097   18.1611 H   0  0  0  0  0  0  0  0  0  0  0  0
   50.2457    8.2396   18.4124 H   0  0  0  0  0  0  0  0  0  0  0  0
   49.7108   10.0490   20.0243 H   0  0  0  0  0  0  0  0  0  0  0  0
   48.2791    9.5231   19.1360 H   0  0  0  0  0  0  0  0  0  0  0  0
   47.7516   11.2496   22.0655 H   0  0  0  0  0  0  0  0  0  0  0  0
   50.2702   13.9736   19.8649 H   0  0  0  0  0  0  0  0  0  0  0  0
   48.0354   10.7158   14.5881 H   0  0  0  0  0  0  0  0  0  0  0  0
   48.4278    6.4315   14.8724 H   0  0  0  0  0  0  0  0  0  0  0  0
   48.9544   11.8268   24.1413 H   0  0  0  0  0  0  0  0  0  0  0  0
   47.6224   10.5096   12.1543 H   0  0  0  0  0  0  0  0  0  0  0  0
   48.0201    6.2399   12.4451 H   0  0  0  0  0  0  0  0  0  0  0  0
   51.4682   14.5389   21.9512 H   0  0  0  0  0  0  0  0  0  0  0  0
   50.8143   13.4699   24.0943 H   0  0  0  0  0  0  0  0  0  0  0  0
   47.6124    8.2715   11.0807 H   0  0  0  0  0  0  0  0  0  0  0  0
   48.3749    8.8781   20.3406 H   0  0  0  0  0  0  0  0  0  0  0  0
   46.6307    9.3957   18.6517 H   0  0  0  0  0  0  0  0  0  0  0  0
   47.9891   12.7466   21.5771 H   0  0  0  0  0  0  0  0  0  0  0  0
   47.9979   11.4088   17.0539 H   0  0  0  0  0  0  0  0  0  0  0  0
   48.9195   10.9979   15.1410 H   0  0  0  0  0  0  0  0  0  0  0  0
   50.3583   10.0797   15.5276 H   0  0  0  0  0  0  0  0  0  0  0  0
   48.3220    9.7983   24.0320 H   0  0  0  0  0  0  0  0  0  0  0  0
   51.2651   11.2403   22.3017 H   0  0  0  0  0  0  0  0  0  0  0  0
   51.0050   12.9938   22.3498 H   0  0  0  0  0  0  0  0  0  0  0  0
   52.0335   12.2859   21.1040 H   0  0  0  0  0  0  0  0  0  0  0  0
   49.0410   13.1759   19.1048 H   0  0  0  0  0  0  0  0  0  0  0  0
   49.6982   14.1433   20.4249 H   0  0  0  0  0  0  0  0  0  0  0  0
   50.7850   13.3501   19.2840 H   0  0  0  0  0  0  0  0  0  0  0  0
   47.1633   10.0908   13.6126 H   0  0  0  0  0  0  0  0  0  0  0  0
   50.7573    7.8624   14.4823 H   0  0  0  0  0  0  0  0  0  0  0  0
   46.7256    8.6169   11.6829 H   0  0  0  0  0  0  0  0  0  0  0  0
   50.3062    6.4052   12.5396 H   0  0  0  0  0  0  0  0  0  0  0  0
   48.2993    6.7804   11.1315 H   0  0  0  0  0  0  0  0  0  0  0  0
   49.0852    9.9782   17.2999 H   0  0  0  0  0  0  0  0  0  0  0  0
   49.2162   10.7398   18.6167 H   0  0  0  0  0  0  0  0  0  0  0  0
   49.0548    9.9937   17.2840 H   0  0  0  0  0  0  0  0  0  0  0  0
   49.2444   10.7152   18.6160 H   0  0  0  0  0  0  0  0  0  0  0  0
   49.2417   10.7177   18.6163 H   0  0  0  0  0  0  0  0  0  0  0  0
   49.0579    9.9921   17.2855 H   0  0  0  0  0  0  0  0  0  0  0  0
  3  2  1  0
  4  2  1  0
  5  3  1  0
  6  2  1  0
  3  7  1  0
  8  6  1  0
  5  9  1  0
  6 10  1  0
 11  9  1  0
 12  4  2  0
 13 10  2  0
 14 11  2  0
 15 11  1  0
 16 10  1  0
 17  8  1  0
 18  8  1  0
 19 15  1  0
 20 19  2  0
 21 19  1  0
 22 20  1  0
 23 21  2  0
 24 23  1  0
  7  8  1  0
  4  5  1  0
 24 22  2  0
 26 32  1  0
 27 30  1  0
 28 29  1  0
 29 25  1  0
 30 26  1  0
 31 25  1  0
 32 31  1  0
 33 27  2  0
 34 27  1  0
 35 28  2  0
 36 28  1  0
 37 33  1  0
 38 35  1  0
 39 36  2  0
 40 34  2  0
 41 37  2  0
 42 39  1  0
 42 38  2  0
 40 41  1  0
 44 43  1  0
 45 43  1  0
 46 44  1  0
 47 43  1  0
 44 48  1  0
 49 47  1  0
 46 50  1  0
 47 51  1  0
 52 50  1  0
 53 45  2  0
 54 51  2  0
 55 52  2  0
 56 52  1  0
 57 51  1  0
 58 49  1  0
 59 49  1  0
 60 56  1  0
 61 60  2  0
 62 60  1  0
 63 61  1  0
 64 62  2  0
 65 64  1  0
 48 49  1  0
 45 46  1  0
 65 63  2  0
  1 69  1  0
  1 70  1  0
  3 71  1  6
  5 72  1  1
  6 73  1  1
  9 74  1  0
 15 75  1  0
 15 76  1  0
 16 77  1  0
 17 78  1  0
 17 79  1  0
 17 80  1  0
 18 81  1  0
 18 82  1  0
 18 83  1  0
 20 84  1  0
 21 85  1  0
 22 86  1  0
 23 87  1  0
 24 88  1  0
 25 89  1  0
 26 90  1  0
 29 91  1  0
 29 92  1  0
 30 93  1  0
 30 94  1  0
 31 95  1  0
 31 96  1  0
 32 97  1  0
 32 98  1  0
 33 99  1  0
 34100  1  0
 35101  1  0
 36102  1  0
 37103  1  0
 38104  1  0
 39105  1  0
 40106  1  0
 41107  1  0
 42108  1  0
 44109  1  6
 46110  1  6
 47111  1  1
 50112  1  0
 56113  1  0
 56114  1  0
 57115  1  0
 58116  1  0
 58117  1  0
 58118  1  0
 59119  1  0
 59120  1  0
 59121  1  0
 61122  1  0
 62123  1  0
 63124  1  0
 64125  1  0
 65126  1  0
 66127  1  0
 66128  1  0
 67129  1  0
 67130  1  0
 68131  1  0
 68132  1  0
M  END
> <Uni-Dock RESULT> 
ENERGY=   -6.418  LOWER_BOUND=    4.344  UPPER_BOUND=    6.944
INTER + INTRA:          -6.418
INTER:                  -6.418
INTRA:                   0.000
UNBOUND:                 0.000

$$$$

     RDKit          3D

132133  0  0  0  0  0  0  0  0999 V2000
   49.6681    8.5705   20.0139 O   0  0  0  0  0  0  0  0  0  0  0  0
   50.9590    9.9646   21.8256 N   0  0  0  0  0  0  0  0  0  0  0  0
   50.7662    9.6653   20.3920 C   0  0  1  0  0  0  0  0  0  0  0  0
   50.6002    8.7044   22.2259 C   0  0  0  0  0  0  0  0  0  0  0  0
   50.5918    8.1737   20.7738 C   0  0  1  0  0  0  0  0  0  0  0  0
   50.2443   11.1145   22.3811 C   0  0  2  0  0  0  0  0  0  0  0  0
   49.2630   10.6303   19.9470 S   0  0  0  0  0  0  0  0  0  0  0  0
   49.6646   11.9291   21.2087 C   0  0  0  0  0  0  0  0  0  0  0  0
   49.3388    7.4935   20.3481 N   0  0  0  0  0  0  0  0  0  0  0  0
   51.1636   11.9181   23.2912 C   0  0  0  0  0  0  0  0  0  0  0  0
   49.1283    7.1678   19.0225 C   0  0  0  0  0  0  0  0  0  0  0  0
   50.2670    8.2846   23.3103 O   0  0  0  0  0  0  0  0  0  0  0  0
   52.3794   12.0103   23.2248 O   0  0  0  0  0  0  0  0  0  0  0  0
   49.9934    7.3493   18.1682 O   0  0  0  0  0  0  0  0  0  0  0  0
   47.7399    6.6304   18.7199 C   0  0  0  0  0  0  0  0  0  0  0  0
   50.4832   12.6213   24.2225 O   0  0  0  0  0  0  0  0  0  0  0  0
   48.3692   12.6459   21.5938 C   0  0  0  0  0  0  0  0  0  0  0  0
   50.6487   12.9206   20.5744 C   0  0  0  0  0  0  0  0  0  0  0  0
   47.7417    5.3674   17.8965 C   0  0  0  0  0  0  0  0  0  0  0  0
   47.6568    4.1111   18.5129 C   0  0  0  0  0  0  0  0  0  0  0  0
   47.8313    5.4320   16.4990 C   0  0  0  0  0  0  0  0  0  0  0  0
   47.6420    2.9447   17.7446 C   0  0  0  0  0  0  0  0  0  0  0  0
   47.8130    4.2653   15.7333 C   0  0  0  0  0  0  0  0  0  0  0  0
   47.7144    3.0221   16.3551 C   0  0  0  0  0  0  0  0  0  0  0  0
   48.0585    7.2130   19.6610 N   0  0  0  0  0  0  0  0  0  0  0  0
   49.8519    9.2951   20.8420 N   0  0  0  0  0  0  0  0  0  0  0  0
   50.3907   11.5109   21.8505 C   0  0  0  0  0  0  0  0  0  0  0  0
   48.9169    5.7203   17.9215 C   0  0  0  0  0  0  0  0  0  0  0  0
   48.6444    7.1531   18.3239 C   0  0  0  0  0  0  0  0  0  0  0  0
   50.8384   10.3623   20.9789 C   0  0  0  0  0  0  0  0  0  0  0  0
   47.6016    8.5632   20.0096 C   0  0  0  0  0  0  0  0  0  0  0  0
   48.6828    9.6735   20.0440 C   0  0  0  0  0  0  0  0  0  0  0  0
   50.0931   12.7592   21.2836 C   0  0  0  0  0  0  0  0  0  0  0  0
   50.2558   11.3485   23.2371 C   0  0  0  0  0  0  0  0  0  0  0  0
   49.9499    4.9977   18.5367 C   0  0  0  0  0  0  0  0  0  0  0  0
   48.1391    5.0911   16.9382 C   0  0  0  0  0  0  0  0  0  0  0  0
   49.6761   13.8221   22.0867 C   0  0  0  0  0  0  0  0  0  0  0  0
   50.2087    3.6770   18.1696 C   0  0  0  0  0  0  0  0  0  0  0  0
   48.3983    3.7668   16.5764 C   0  0  0  0  0  0  0  0  0  0  0  0
   49.8386   12.4118   24.0395 C   0  0  0  0  0  0  0  0  0  0  0  0
   49.5473   13.6478   23.4640 C   0  0  0  0  0  0  0  0  0  0  0  0
   49.4339    3.0625   17.1879 C   0  0  0  0  0  0  0  0  0  0  0  0
   50.1442   11.5156   19.8099 N   0  0  0  0  0  0  0  0  0  0  0  0
   49.0248   10.6283   19.4563 C   0  0  1  0  0  0  0  0  0  0  0  0
   51.0978   10.5719   19.5659 C   0  0  0  0  0  0  0  0  0  0  0  0
   50.0763    9.6432   18.8692 C   0  0  1  0  0  0  0  0  0  0  0  0
   50.0673   12.2253   21.0815 C   0  0  2  0  0  0  0  0  0  0  0  0
   48.2448   10.1809   21.0604 S   0  0  0  0  0  0  0  0  0  0  0  0
   49.3088   11.3071   22.0750 C   0  0  0  0  0  0  0  0  0  0  0  0
   50.0512    8.2330   19.3463 N   0  0  0  0  0  0  0  0  0  0  0  0
   49.4319   13.6070   20.8856 C   0  0  0  0  0  0  0  0  0  0  0  0
   49.0022    7.3989   19.0159 C   0  0  0  0  0  0  0  0  0  0  0  0
   52.2537   10.4970   19.9127 O   0  0  0  0  0  0  0  0  0  0  0  0
   49.3555   14.4798   21.7390 O   0  0  0  0  0  0  0  0  0  0  0  0
   48.0918    7.7652   18.2787 O   0  0  0  0  0  0  0  0  0  0  0  0
   49.0595    6.0356   19.6812 C   0  0  0  0  0  0  0  0  0  0  0  0
   48.9087   13.8309   19.6641 O   0  0  0  0  0  0  0  0  0  0  0  0
   48.3994   12.0247   23.0794 C   0  0  0  0  0  0  0  0  0  0  0  0
   50.2881   10.4195   22.8638 C   0  0  0  0  0  0  0  0  0  0  0  0
   48.8001    4.8952   18.7299 C   0  0  0  0  0  0  0  0  0  0  0  0
   49.8568    4.2912   18.0338 C   0  0  0  0  0  0  0  0  0  0  0  0
   47.4939    4.4349   18.5164 C   0  0  0  0  0  0  0  0  0  0  0  0
   49.6122    3.2353   17.1531 C   0  0  0  0  0  0  0  0  0  0  0  0
   47.2533    3.3790   17.6353 C   0  0  0  0  0  0  0  0  0  0  0  0
   48.3111    2.7771   16.9562 C   0  0  0  0  0  0  0  0  0  0  0  0
   49.6675    8.5661   20.0113 O   0  0  0  0  0  0  0  0  0  0  0  0
   49.6699    8.5823   20.0210 O   0  0  0  0  0  0  0  0  0  0  0  0
   49.6698    8.5806   20.0200 O   0  0  0  0  0  0  0  0  0  0  0  0
   48.9622    7.9737   19.7232 H   0  0  0  0  0  0  0  0  0  0  0  0
   49.2001    9.2680   20.4974 H   0  0  0  0  0  0  0  0  0  0  0  0
   51.6548    9.8946   19.7942 H   0  0  0  0  0  0  0  0  0  0  0  0
   51.4685    7.5500   20.5629 H   0  0  0  0  0  0  0  0  0  0  0  0
   49.4340   10.7247   23.0146 H   0  0  0  0  0  0  0  0  0  0  0  0
   48.5633    7.4253   21.0032 H   0  0  0  0  0  0  0  0  0  0  0  0
   47.1866    6.4536   19.6508 H   0  0  0  0  0  0  0  0  0  0  0  0
   47.1882    7.4190   18.1915 H   0  0  0  0  0  0  0  0  0  0  0  0
   51.1852   13.0660   24.7443 H   0  0  0  0  0  0  0  0  0  0  0  0
   47.6293   11.9521   22.0078 H   0  0  0  0  0  0  0  0  0  0  0  0
   48.5600   13.4081   22.3570 H   0  0  0  0  0  0  0  0  0  0  0  0
   47.9145   13.1547   20.7357 H   0  0  0  0  0  0  0  0  0  0  0  0
   50.8742   13.7410   21.2664 H   0  0  0  0  0  0  0  0  0  0  0  0
   51.5996   12.4490   20.3018 H   0  0  0  0  0  0  0  0  0  0  0  0
   50.2303   13.3788   19.6694 H   0  0  0  0  0  0  0  0  0  0  0  0
   47.5982    4.0295   19.5963 H   0  0  0  0  0  0  0  0  0  0  0  0
   47.9199    6.3942   15.9979 H   0  0  0  0  0  0  0  0  0  0  0  0
   47.5704    1.9747   18.2296 H   0  0  0  0  0  0  0  0  0  0  0  0
   47.8808    4.3269   14.6507 H   0  0  0  0  0  0  0  0  0  0  0  0
   47.7044    2.1140   15.7576 H   0  0  0  0  0  0  0  0  0  0  0  0
   47.2689    6.5718   19.6989 H   0  0  0  0  0  0  0  0  0  0  0  0
   49.5504    8.9605   21.7544 H   0  0  0  0  0  0  0  0  0  0  0  0
   49.5913    7.7058   18.2822 H   0  0  0  0  0  0  0  0  0  0  0  0
   47.9715    7.6116   17.5880 H   0  0  0  0  0  0  0  0  0  0  0  0
   51.7485    9.9374   21.4215 H   0  0  0  0  0  0  0  0  0  0  0  0
   51.1466   10.7239   19.9885 H   0  0  0  0  0  0  0  0  0  0  0  0
   47.1534    8.5013   21.0096 H   0  0  0  0  0  0  0  0  0  0  0  0
   46.7950    8.8693   19.3319 H   0  0  0  0  0  0  0  0  0  0  0  0
   48.2092   10.5726   20.4530 H   0  0  0  0  0  0  0  0  0  0  0  0
   49.0002    9.9082   19.0219 H   0  0  0  0  0  0  0  0  0  0  0  0
   50.1892   12.9108   20.2101 H   0  0  0  0  0  0  0  0  0  0  0  0
   50.4845   10.3902   23.6982 H   0  0  0  0  0  0  0  0  0  0  0  0
   50.5499    5.4719   19.3099 H   0  0  0  0  0  0  0  0  0  0  0  0
   47.3256    5.6249   16.4514 H   0  0  0  0  0  0  0  0  0  0  0  0
   49.4515   14.7844   21.6362 H   0  0  0  0  0  0  0  0  0  0  0  0
   51.0115    3.1282   18.6536 H   0  0  0  0  0  0  0  0  0  0  0  0
   47.7924    3.2871   15.8100 H   0  0  0  0  0  0  0  0  0  0  0  0
   49.7407   12.2750   25.1132 H   0  0  0  0  0  0  0  0  0  0  0  0
   49.2237   14.4764   24.0886 H   0  0  0  0  0  0  0  0  0  0  0  0
   49.6346    2.0341   16.9017 H   0  0  0  0  0  0  0  0  0  0  0  0
   48.3440   11.0733   18.7248 H   0  0  0  0  0  0  0  0  0  0  0  0
   50.1682    9.6826   17.7758 H   0  0  0  0  0  0  0  0  0  0  0  0
   51.0928   12.4151   21.4242 H   0  0  0  0  0  0  0  0  0  0  0  0
   50.7409    7.9244   20.0243 H   0  0  0  0  0  0  0  0  0  0  0  0
   50.0320    5.8859   20.1627 H   0  0  0  0  0  0  0  0  0  0  0  0
   48.3190    6.0310   20.4904 H   0  0  0  0  0  0  0  0  0  0  0  0
   48.5479   14.7424   19.7105 H   0  0  0  0  0  0  0  0  0  0  0  0
   47.6081   12.6009   22.5854 H   0  0  0  0  0  0  0  0  0  0  0  0
   48.9793   12.7160   23.7038 H   0  0  0  0  0  0  0  0  0  0  0  0
   47.9088   11.3153   23.7580 H   0  0  0  0  0  0  0  0  0  0  0  0
   50.9285    9.8169   22.2153 H   0  0  0  0  0  0  0  0  0  0  0  0
   50.9444   11.0346   23.4910 H   0  0  0  0  0  0  0  0  0  0  0  0
   49.7608    9.7271   23.5315 H   0  0  0  0  0  0  0  0  0  0  0  0
   50.8792    4.6332   18.1736 H   0  0  0  0  0  0  0  0  0  0  0  0
   46.6564    4.9019   19.0312 H   0  0  0  0  0  0  0  0  0  0  0  0
   50.4365    2.7715   16.6161 H   0  0  0  0  0  0  0  0  0  0  0  0
   46.2365    3.0297   17.4758 H   0  0  0  0  0  0  0  0  0  0  0  0
   48.1197    1.9547   16.2719 H   0  0  0  0  0  0  0  0  0  0  0  0
   48.9526    7.9769   19.7263 H   0  0  0  0  0  0  0  0  0  0  0  0
   49.2106    9.2694   20.4970 H   0  0  0  0  0  0  0  0  0  0  0  0
   48.9871    7.9662   19.7158 H   0  0  0  0  0  0  0  0  0  0  0  0
   49.1735    9.2640   20.4978 H   0  0  0  0  0  0  0  0  0  0  0  0
   49.1772    9.2647   20.4979 H   0  0  0  0  0  0  0  0  0  0  0  0
   48.9836    7.9672   19.7168 H   0  0  0  0  0  0  0  0  0  0  0  0
  3  2  1  0
  4  2  1  0
  5  3  1  0
  6  2  1  0
  3  7  1  0
  8  6  1  0
  5  9  1  0
  6 10  1  0
 11  9  1  0
 12  4  2  0
 13 10  2  0
 14 11  2  0
 15 11  1  0
 16 10  1  0
 17  8  1  0
 18  8  1  0
 19 15  1  0
 20 19  2  0
 21 19  1  0
 22 20  1  0
 23 21  2  0
 24 23  1  0
  7  8  1  0
  4  5  1  0
 24 22  2  0
 26 32  1  0
 27 30  1  0
 28 29  1  0
 29 25  1  0
 30 26  1  0
 31 25  1  0
 32 31  1  0
 33 27  2  0
 34 27  1  0
 35 28  2  0
 36 28  1  0
 37 33  1  0
 38 35  1  0
 39 36  2  0
 40 34  2  0
 41 37  2  0
 42 39  1  0
 42 38  2  0
 40 41  1  0
 44 43  1  0
 45 43  1  0
 46 44  1  0
 47 43  1  0
 44 48  1  0
 49 47  1  0
 46 50  1  0
 47 51  1  0
 52 50  1  0
 53 45  2  0
 54 51  2  0
 55 52  2  0
 56 52  1  0
 57 51  1  0
 58 49  1  0
 59 49  1  0
 60 56  1  0
 61 60  2  0
 62 60  1  0
 63 61  1  0
 64 62  2  0
 65 64  1  0
 48 49  1  0
 45 46  1  0
 65 63  2  0
  1 69  1  0
  1 70  1  0
  3 71  1  6
  5 72  1  1
  6 73  1  1
  9 74  1  0
 15 75  1  0
 15 76  1  0
 16 77  1  0
 17 78  1  0
 17 79  1  0
 17 80  1  0
 18 81  1  0
 18 82  1  0
 18 83  1  0
 20 84  1  0
 21 85  1  0
 22 86  1  0
 23 87  1  0
 24 88  1  0
 25 89  1  0
 26 90  1  0
 29 91  1  0
 29 92  1  0
 30 93  1  0
 30 94  1  0
 31 95  1  0
 31 96  1  0
 32 97  1  0
 32 98  1  0
 33 99  1  0
 34100  1  0
 35101  1  0
 36102  1  0
 37103  1  0
 38104  1  0
 39105  1  0
 40106  1  0
 41107  1  0
 42108  1  0
 44109  1  6
 46110  1  6
 47111  1  1
 50112  1  0
 56113  1  0
 56114  1  0
 57115  1  0
 58116  1  0
 58117  1  0
 58118  1  0
 59119  1  0
 59120  1  0
 59121  1  0
 61122  1  0
 62123  1  0
 63124  1  0
 64125  1  0
 65126  1  0
 66127  1  0
 66128  1  0
 67129  1  0
 67130  1  0
 68131  1  0
 68132  1  0
M  END
> <Uni-Dock RESULT> 
ENERGY=   -6.403  LOWER_BOUND=    5.756  UPPER_BOUND=    7.565
INTER + INTRA:          -6.403
INTER:                  -6.403
INTRA:                   0.000
UNBOUND:                 0.000

$$$$

     RDKit          3D

132133  0  0  0  0  0  0  0  0999 V2000
   49.0544    7.9054   18.4624 O   0  0  0  0  0  0  0  0  0  0  0  0
   49.7427    8.6919   20.8707 N   0  0  0  0  0  0  0  0  0  0  0  0
   48.6547    8.4929   19.8916 C   0  0  1  0  0  0  0  0  0  0  0  0
   50.6870    8.9221   19.9049 C   0  0  0  0  0  0  0  0  0  0  0  0
   49.6226    8.9829   18.7852 C   0  0  1  0  0  0  0  0  0  0  0  0
   49.9764    7.6306   21.8508 C   0  0  2  0  0  0  0  0  0  0  0  0
   48.2997    6.6898   19.9999 S   0  0  0  0  0  0  0  0  0  0  0  0
   48.7876    6.6524   21.7889 C   0  0  0  0  0  0  0  0  0  0  0  0
   49.8605    8.0808   17.6260 N   0  0  0  0  0  0  0  0  0  0  0  0
   50.2072    8.2291   23.2321 C   0  0  0  0  0  0  0  0  0  0  0  0
   48.8825    7.8876   16.6701 C   0  0  0  0  0  0  0  0  0  0  0  0
   51.8951    8.9020   19.9602 O   0  0  0  0  0  0  0  0  0  0  0  0
   49.7781    9.2874   23.6643 O   0  0  0  0  0  0  0  0  0  0  0  0
   47.8233    8.5109   16.6955 O   0  0  0  0  0  0  0  0  0  0  0  0
   49.2098    6.8168   15.6433 C   0  0  0  0  0  0  0  0  0  0  0  0
   50.9364    7.4198   24.0308 O   0  0  0  0  0  0  0  0  0  0  0  0
   49.2013    5.2239   22.1475 C   0  0  0  0  0  0  0  0  0  0  0  0
   47.5712    7.0753   22.6229 C   0  0  0  0  0  0  0  0  0  0  0  0
   48.9816    7.2503   14.2174 C   0  0  0  0  0  0  0  0  0  0  0  0
   50.0386    7.7494   13.4433 C   0  0  0  0  0  0  0  0  0  0  0  0
   47.7049    7.1625   13.6452 C   0  0  0  0  0  0  0  0  0  0  0  0
   49.8254    8.1340   12.1174 C   0  0  0  0  0  0  0  0  0  0  0  0
   47.4951    7.5443   12.3192 C   0  0  0  0  0  0  0  0  0  0  0  0
   48.5554    8.0262   11.5540 C   0  0  0  0  0  0  0  0  0  0  0  0
   49.7198    6.9640   16.6655 N   0  0  0  0  0  0  0  0  0  0  0  0
   49.4467    7.8607   19.5057 N   0  0  0  0  0  0  0  0  0  0  0  0
   49.3149    7.5473   21.9759 C   0  0  0  0  0  0  0  0  0  0  0  0
   48.5417    8.1747   14.8943 C   0  0  0  0  0  0  0  0  0  0  0  0
   48.4082    7.3834   16.1769 C   0  0  0  0  0  0  0  0  0  0  0  0
   48.8768    8.3336   20.7638 C   0  0  0  0  0  0  0  0  0  0  0  0
   49.6224    6.0335   17.7961 C   0  0  0  0  0  0  0  0  0  0  0  0
   48.9196    6.5643   19.0718 C   0  0  0  0  0  0  0  0  0  0  0  0
   48.4099    6.7096   22.6448 C   0  0  0  0  0  0  0  0  0  0  0  0
   50.6329    7.6329   22.4480 C   0  0  0  0  0  0  0  0  0  0  0  0
   49.0805    9.4696   14.9156 C   0  0  0  0  0  0  0  0  0  0  0  0
   48.1393    7.6258   13.6677 C   0  0  0  0  0  0  0  0  0  0  0  0
   48.8131    5.9792   23.7640 C   0  0  0  0  0  0  0  0  0  0  0  0
   49.2047   10.2064   13.7376 C   0  0  0  0  0  0  0  0  0  0  0  0
   48.2694    8.3649   12.4893 C   0  0  0  0  0  0  0  0  0  0  0  0
   51.0353    6.9020   23.5671 C   0  0  0  0  0  0  0  0  0  0  0  0
   50.1258    6.0742   24.2239 C   0  0  0  0  0  0  0  0  0  0  0  0
   48.7972    9.6544   12.5249 C   0  0  0  0  0  0  0  0  0  0  0  0
   47.5898    7.1135   20.9462 N   0  0  0  0  0  0  0  0  0  0  0  0
   47.9354    6.4245   19.6927 C   0  0  1  0  0  0  0  0  0  0  0  0
   47.4829    8.3390   20.3578 C   0  0  0  0  0  0  0  0  0  0  0  0
   47.5166    7.7207   18.9409 C   0  0  1  0  0  0  0  0  0  0  0  0
   48.4490    6.8837   22.1019 C   0  0  2  0  0  0  0  0  0  0  0  0
   49.7336    6.0635   19.8262 S   0  0  0  0  0  0  0  0  0  0  0  0
   49.8899    6.6721   21.5683 C   0  0  0  0  0  0  0  0  0  0  0  0
   48.4951    8.3226   17.9937 N   0  0  0  0  0  0  0  0  0  0  0  0
   47.9103    5.7229   22.9468 C   0  0  0  0  0  0  0  0  0  0  0  0
   48.8209    7.6781   16.8174 C   0  0  0  0  0  0  0  0  0  0  0  0
   47.4985    9.4534   20.8266 O   0  0  0  0  0  0  0  0  0  0  0  0
   48.3383    5.3843   24.0413 O   0  0  0  0  0  0  0  0  0  0  0  0
   48.2808    6.6274   16.4844 O   0  0  0  0  0  0  0  0  0  0  0  0
   49.9235    8.3549   16.0232 C   0  0  0  0  0  0  0  0  0  0  0  0
   46.8943    5.0322   22.3930 O   0  0  0  0  0  0  0  0  0  0  0  0
   50.7406    5.6567   22.3402 C   0  0  0  0  0  0  0  0  0  0  0  0
   50.6605    8.0035   21.5178 C   0  0  0  0  0  0  0  0  0  0  0  0
   49.6069    8.4883   14.5553 C   0  0  0  0  0  0  0  0  0  0  0  0
   48.9416    9.6224   14.0683 C   0  0  0  0  0  0  0  0  0  0  0  0
   49.9595    7.4697   13.6599 C   0  0  0  0  0  0  0  0  0  0  0  0
   48.6498    9.7420   12.7077 C   0  0  0  0  0  0  0  0  0  0  0  0
   49.6662    7.5928   12.3005 C   0  0  0  0  0  0  0  0  0  0  0  0
   49.0148    8.7289   11.8234 C   0  0  0  0  0  0  0  0  0  0  0  0
   49.0539    7.9064   18.4573 O   0  0  0  0  0  0  0  0  0  0  0  0
   49.0555    7.9030   18.4760 O   0  0  0  0  0  0  0  0  0  0  0  0
   49.0552    7.9035   18.4740 O   0  0  0  0  0  0  0  0  0  0  0  0
   49.2275    7.4793   17.6095 H   0  0  0  0  0  0  0  0  0  0  0  0
   49.3341    7.2454   19.1145 H   0  0  0  0  0  0  0  0  0  0  0  0
   47.7955    9.1442   20.0838 H   0  0  0  0  0  0  0  0  0  0  0  0
   49.4406   10.0114   18.4516 H   0  0  0  0  0  0  0  0  0  0  0  0
   50.9084    7.1195   21.5679 H   0  0  0  0  0  0  0  0  0  0  0  0
   50.6758    7.4721   17.6294 H   0  0  0  0  0  0  0  0  0  0  0  0
   50.2486    6.4823   15.7569 H   0  0  0  0  0  0  0  0  0  0  0  0
   48.5887    5.9404   15.8703 H   0  0  0  0  0  0  0  0  0  0  0  0
   51.0269    7.9282   24.8652 H   0  0  0  0  0  0  0  0  0  0  0  0
   50.0403    4.8784   21.5336 H   0  0  0  0  0  0  0  0  0  0  0  0
   49.5200    5.1635   23.1936 H   0  0  0  0  0  0  0  0  0  0  0  0
   48.3738    4.5160   22.0204 H   0  0  0  0  0  0  0  0  0  0  0  0
   47.7949    7.0153   23.6948 H   0  0  0  0  0  0  0  0  0  0  0  0
   47.2550    8.1026   22.4095 H   0  0  0  0  0  0  0  0  0  0  0  0
   46.7123    6.4162   22.4438 H   0  0  0  0  0  0  0  0  0  0  0  0
   51.0376    7.8402   13.8644 H   0  0  0  0  0  0  0  0  0  0  0  0
   46.8635    6.7987   14.2320 H   0  0  0  0  0  0  0  0  0  0  0  0
   50.6511    8.5148   11.5220 H   0  0  0  0  0  0  0  0  0  0  0  0
   46.5020    7.4702   11.8849 H   0  0  0  0  0  0  0  0  0  0  0  0
   48.3896    8.3270   10.5226 H   0  0  0  0  0  0  0  0  0  0  0  0
   50.2218    6.5136   15.9031 H   0  0  0  0  0  0  0  0  0  0  0  0
   50.4617    7.8171   19.5609 H   0  0  0  0  0  0  0  0  0  0  0  0
   47.8944    8.0122   16.9147 H   0  0  0  0  0  0  0  0  0  0  0  0
   47.7678    6.5106   15.9962 H   0  0  0  0  0  0  0  0  0  0  0  0
   49.1814    9.3779   20.9106 H   0  0  0  0  0  0  0  0  0  0  0  0
   47.7809    8.3643   20.6966 H   0  0  0  0  0  0  0  0  0  0  0  0
   50.6478    5.7544   18.0703 H   0  0  0  0  0  0  0  0  0  0  0  0
   49.1296    5.1077   17.4743 H   0  0  0  0  0  0  0  0  0  0  0  0
   49.0567    5.8092   19.8535 H   0  0  0  0  0  0  0  0  0  0  0  0
   47.8431    6.6520   18.8880 H   0  0  0  0  0  0  0  0  0  0  0  0
   47.3818    6.6253   22.2980 H   0  0  0  0  0  0  0  0  0  0  0  0
   51.3504    8.2788   21.9467 H   0  0  0  0  0  0  0  0  0  0  0  0
   49.4082    9.8991   15.8596 H   0  0  0  0  0  0  0  0  0  0  0  0
   47.7267    6.6203   13.6208 H   0  0  0  0  0  0  0  0  0  0  0  0
   48.1023    5.3364   24.2749 H   0  0  0  0  0  0  0  0  0  0  0  0
   49.6237   11.2081   13.7675 H   0  0  0  0  0  0  0  0  0  0  0  0
   47.9515    7.9331   11.5422 H   0  0  0  0  0  0  0  0  0  0  0  0
   52.0585    6.9787   23.9257 H   0  0  0  0  0  0  0  0  0  0  0  0
   50.4385    5.5060   25.0961 H   0  0  0  0  0  0  0  0  0  0  0  0
   48.8938   10.2273   11.6071 H   0  0  0  0  0  0  0  0  0  0  0  0
   47.3062    5.5505   19.5003 H   0  0  0  0  0  0  0  0  0  0  0  0
   46.5161    7.6763   18.4910 H   0  0  0  0  0  0  0  0  0  0  0  0
   48.3931    7.7713   22.7454 H   0  0  0  0  0  0  0  0  0  0  0  0
   49.0214    9.1435   18.2764 H   0  0  0  0  0  0  0  0  0  0  0  0
   50.1371    9.3473   16.4349 H   0  0  0  0  0  0  0  0  0  0  0  0
   50.8395    7.7677   16.1622 H   0  0  0  0  0  0  0  0  0  0  0  0
   46.6771    4.3374   23.0511 H   0  0  0  0  0  0  0  0  0  0  0  0
   50.2989    4.6531   22.3319 H   0  0  0  0  0  0  0  0  0  0  0  0
   50.8580    5.9640   23.3871 H   0  0  0  0  0  0  0  0  0  0  0  0
   51.7494    5.5708   21.9168 H   0  0  0  0  0  0  0  0  0  0  0  0
   50.1512    8.7643   20.9216 H   0  0  0  0  0  0  0  0  0  0  0  0
   50.7893    8.4116   22.5274 H   0  0  0  0  0  0  0  0  0  0  0  0
   51.6632    7.8762   21.0915 H   0  0  0  0  0  0  0  0  0  0  0  0
   48.6488   10.4243   14.7413 H   0  0  0  0  0  0  0  0  0  0  0  0
   50.4589    6.5719   14.0190 H   0  0  0  0  0  0  0  0  0  0  0  0
   48.1333   10.6243   12.3368 H   0  0  0  0  0  0  0  0  0  0  0  0
   49.9430    6.7970   11.6140 H   0  0  0  0  0  0  0  0  0  0  0  0
   48.7892    8.8213   10.7644 H   0  0  0  0  0  0  0  0  0  0  0  0
   49.2315    7.4696   17.6106 H   0  0  0  0  0  0  0  0  0  0  0  0
   49.3304    7.2543   19.1188 H   0  0  0  0  0  0  0  0  0  0  0  0
   49.2171    7.5042   17.6078 H   0  0  0  0  0  0  0  0  0  0  0  0
   49.3434    7.2230   19.1029 H   0  0  0  0  0  0  0  0  0  0  0  0
   49.3422    7.2261   19.1047 H   0  0  0  0  0  0  0  0  0  0  0  0
   49.2185    7.5007   17.6079 H   0  0  0  0  0  0  0  0  0  0  0  0
  3  2  1  0
  4  2  1  0
  5  3  1  0
  6  2  1  0
  3  7  1  0
  8  6  1  0
  5  9  1  0
  6 10  1  0
 11  9  1  0
 12  4  2  0
 13 10  2  0
 14 11  2  0
 15 11  1  0
 16 10  1  0
 17  8  1  0
 18  8  1  0
 19 15  1  0
 20 19  2  0
 21 19  1  0
 22 20  1  0
 23 21  2  0
 24 23  1  0
  7  8  1  0
  4  5  1  0
 24 22  2  0
 26 32  1  0
 27 30  1  0
 28 29  1  0
 29 25  1  0
 30 26  1  0
 31 25  1  0
 32 31  1  0
 33 27  2  0
 34 27  1  0
 35 28  2  0
 36 28  1  0
 37 33  1  0
 38 35  1  0
 39 36  2  0
 40 34  2  0
 41 37  2  0
 42 39  1  0
 42 38  2  0
 40 41  1  0
 44 43  1  0
 45 43  1  0
 46 44  1  0
 47 43  1  0
 44 48  1  0
 49 47  1  0
 46 50  1  0
 47 51  1  0
 52 50  1  0
 53 45  2  0
 54 51  2  0
 55 52  2  0
 56 52  1  0
 57 51  1  0
 58 49  1  0
 59 49  1  0
 60 56  1  0
 61 60  2  0
 62 60  1  0
 63 61  1  0
 64 62  2  0
 65 64  1  0
 48 49  1  0
 45 46  1  0
 65 63  2  0
  1 69  1  0
  1 70  1  0
  3 71  1  6
  5 72  1  1
  6 73  1  1
  9 74  1  0
 15 75  1  0
 15 76  1  0
 16 77  1  0
 17 78  1  0
 17 79  1  0
 17 80  1  0
 18 81  1  0
 18 82  1  0
 18 83  1  0
 20 84  1  0
 21 85  1  0
 22 86  1  0
 23 87  1  0
 24 88  1  0
 25 89  1  0
 26 90  1  0
 29 91  1  0
 29 92  1  0
 30 93  1  0
 30 94  1  0
 31 95  1  0
 31 96  1  0
 32 97  1  0
 32 98  1  0
 33 99  1  0
 34100  1  0
 35101  1  0
 36102  1  0
 37103  1  0
 38104  1  0
 39105  1  0
 40106  1  0
 41107  1  0
 42108  1  0
 44109  1  6
 46110  1  6
 47111  1  1
 50112  1  0
 56113  1  0
 56114  1  0
 57115  1  0
 58116  1  0
 58117  1  0
 58118  1  0
 59119  1  0
 59120  1  0
 59121  1  0
 61122  1  0
 62123  1  0
 63124  1  0
 64125  1  0
 65126  1  0
 66127  1  0
 66128  1  0
 67129  1  0
 67130  1  0
 68131  1  0
 68132  1  0
M  END
> <Uni-Dock RESULT> 
ENERGY=   -6.289  LOWER_BOUND=    5.267  UPPER_BOUND=    8.018
INTER + INTRA:          -6.289
INTER:                  -6.289
INTRA:                   0.000
UNBOUND:                 0.000

$$$$
