
     RDKit          3D

132133  0  0  0  0  0  0  0  0999 V2000
   47.9631    8.0898   13.2552 O   0  0  0  0  0  0  0  0  0  0  0  0
   49.6522    9.4578   14.6794 N   0  0  0  0  0  0  0  0  0  0  0  0
   49.5103    8.4192   13.6398 C   0  0  1  0  0  0  0  0  0  0  0  0
   48.4411    9.1773   15.2524 C   0  0  0  0  0  0  0  0  0  0  0  0
   48.2530    7.9111   14.3880 C   0  0  1  0  0  0  0  0  0  0  0  0
   49.9301   10.8297   14.2459 C   0  0  2  0  0  0  0  0  0  0  0  0
   49.2746    9.3910   12.0953 S   0  0  0  0  0  0  0  0  0  0  0  0
   50.3223   10.7751   12.7552 C   0  0  0  0  0  0  0  0  0  0  0  0
   46.9846    7.8334   13.6131 N   0  0  0  0  0  0  0  0  0  0  0  0
   50.9679   11.5408   15.1097 C   0  0  0  0  0  0  0  0  0  0  0  0
   46.8152    6.8639   12.6460 C   0  0  0  0  0  0  0  0  0  0  0  0
   47.7609    9.8141   16.0250 O   0  0  0  0  0  0  0  0  0  0  0  0
   51.3253   12.7008   14.9695 O   0  0  0  0  0  0  0  0  0  0  0  0
   47.6437    5.9723   12.4747 O   0  0  0  0  0  0  0  0  0  0  0  0
   45.5633    7.0311   11.8028 C   0  0  0  0  0  0  0  0  0  0  0  0
   51.5224   10.7792   16.0745 O   0  0  0  0  0  0  0  0  0  0  0  0
   51.7938   10.4209   12.5010 C   0  0  0  0  0  0  0  0  0  0  0  0
   49.9500   12.0585   12.0093 C   0  0  0  0  0  0  0  0  0  0  0  0
   44.7616    5.7638   11.6516 C   0  0  0  0  0  0  0  0  0  0  0  0
   43.7498    5.4453   12.5681 C   0  0  0  0  0  0  0  0  0  0  0  0
   45.0247    4.8802   10.5955 C   0  0  0  0  0  0  0  0  0  0  0  0
   43.0031    4.2755   12.4173 C   0  0  0  0  0  0  0  0  0  0  0  0
   44.2771    3.7115   10.4468 C   0  0  0  0  0  0  0  0  0  0  0  0
   43.2643    3.4109   11.3558 C   0  0  0  0  0  0  0  0  0  0  0  0
   48.4719    9.1632   12.7396 N   0  0  0  0  0  0  0  0  0  0  0  0
   47.4326    6.1577   13.2563 N   0  0  0  0  0  0  0  0  0  0  0  0
   45.3332    5.8712   12.0446 C   0  0  0  0  0  0  0  0  0  0  0  0
   49.9484   11.0839   13.3083 C   0  0  0  0  0  0  0  0  0  0  0  0
   48.5391   10.5530   13.1931 C   0  0  0  0  0  0  0  0  0  0  0  0
   46.6297    6.6456   12.1381 C   0  0  0  0  0  0  0  0  0  0  0  0
   48.8694    8.2079   13.7789 C   0  0  0  0  0  0  0  0  0  0  0  0
   48.7768    6.7408   13.2993 C   0  0  0  0  0  0  0  0  0  0  0  0
   44.1181    6.4566   12.4280 C   0  0  0  0  0  0  0  0  0  0  0  0
   45.3317    4.5443   11.5893 C   0  0  0  0  0  0  0  0  0  0  0  0
   50.6883   11.3942   12.1569 C   0  0  0  0  0  0  0  0  0  0  0  0
   50.5450   11.2620   14.5649 C   0  0  0  0  0  0  0  0  0  0  0  0
   42.9263    5.7333   12.3456 C   0  0  0  0  0  0  0  0  0  0  0  0
   51.9945   11.8748   12.2619 C   0  0  0  0  0  0  0  0  0  0  0  0
   51.8515   11.7429   14.6674 C   0  0  0  0  0  0  0  0  0  0  0  0
   44.1396    3.8227   11.5074 C   0  0  0  0  0  0  0  0  0  0  0  0
   42.9367    4.4181   11.8842 C   0  0  0  0  0  0  0  0  0  0  0  0
   52.5755   12.0484   13.5167 C   0  0  0  0  0  0  0  0  0  0  0  0
   50.4500    9.6291   12.2856 N   0  0  0  0  0  0  0  0  0  0  0  0
   49.0797    9.4511   11.7800 C   0  0  1  0  0  0  0  0  0  0  0  0
   50.5468    8.3497   12.7510 C   0  0  0  0  0  0  0  0  0  0  0  0
   49.2676    7.9235   11.9950 C   0  0  1  0  0  0  0  0  0  0  0  0
   50.7109   10.7864   13.1345 C   0  0  2  0  0  0  0  0  0  0  0  0
   48.0103   10.3534   12.9739 S   0  0  0  0  0  0  0  0  0  0  0  0
   49.4209   11.0577   13.9503 C   0  0  0  0  0  0  0  0  0  0  0  0
   48.2429    7.2057   12.7991 N   0  0  0  0  0  0  0  0  0  0  0  0
   51.1849   11.9757   12.2931 C   0  0  0  0  0  0  0  0  0  0  0  0
   46.9754    6.9976   12.2952 C   0  0  0  0  0  0  0  0  0  0  0  0
   51.3002    7.8501   13.5540 O   0  0  0  0  0  0  0  0  0  0  0  0
   51.6217   13.0292   12.7354 O   0  0  0  0  0  0  0  0  0  0  0  0
   46.6683    7.3499   11.1599 O   0  0  0  0  0  0  0  0  0  0  0  0
   46.0097    6.3518   13.2741 C   0  0  0  0  0  0  0  0  0  0  0  0
   51.0768   11.8146   10.9578 O   0  0  0  0  0  0  0  0  0  0  0  0
   49.4571   10.3185   15.2993 C   0  0  0  0  0  0  0  0  0  0  0  0
   49.1068   12.5342   14.2205 C   0  0  0  0  0  0  0  0  0  0  0  0
   45.2301    5.2080   12.6782 C   0  0  0  0  0  0  0  0  0  0  0  0
   45.7122    3.8945   12.7613 C   0  0  0  0  0  0  0  0  0  0  0  0
   44.0189    5.4463   12.0129 C   0  0  0  0  0  0  0  0  0  0  0  0
   44.9866    2.8391   12.2054 C   0  0  0  0  0  0  0  0  0  0  0  0
   43.2953    4.3894   11.4582 C   0  0  0  0  0  0  0  0  0  0  0  0
   43.7779    3.0863   11.5578 C   0  0  0  0  0  0  0  0  0  0  0  0
   47.9685    8.0953   13.2560 O   0  0  0  0  0  0  0  0  0  0  0  0
   47.9721    8.0992   13.2564 O   0  0  0  0  0  0  0  0  0  0  0  0
   47.9659    8.0927   13.2557 O   0  0  0  0  0  0  0  0  0  0  0  0
   48.3168    8.8904   12.8389 H   0  0  0  0  0  0  0  0  0  0  0  0
   47.2564    7.8068   12.6555 H   0  0  0  0  0  0  0  0  0  0  0  0
   50.3561    7.7251   13.6225 H   0  0  0  0  0  0  0  0  0  0  0  0
   48.4154    6.9955   14.9700 H   0  0  0  0  0  0  0  0  0  0  0  0
   49.0015   11.4057   14.3719 H   0  0  0  0  0  0  0  0  0  0  0  0
   46.3143    8.5919   13.6776 H   0  0  0  0  0  0  0  0  0  0  0  0
   45.8758    7.4000   10.8182 H   0  0  0  0  0  0  0  0  0  0  0  0
   44.9203    7.8134   12.2239 H   0  0  0  0  0  0  0  0  0  0  0  0
   52.1260   11.3842   16.5530 H   0  0  0  0  0  0  0  0  0  0  0  0
   51.9873   10.2482   11.4353 H   0  0  0  0  0  0  0  0  0  0  0  0
   52.4539   11.2377   12.8125 H   0  0  0  0  0  0  0  0  0  0  0  0
   52.1077    9.5252   13.0485 H   0  0  0  0  0  0  0  0  0  0  0  0
   48.8950   12.3230   12.1519 H   0  0  0  0  0  0  0  0  0  0  0  0
   50.5488   12.9043   12.3642 H   0  0  0  0  0  0  0  0  0  0  0  0
   50.1291   11.9667   10.9311 H   0  0  0  0  0  0  0  0  0  0  0  0
   43.5323    6.1062   13.4037 H   0  0  0  0  0  0  0  0  0  0  0  0
   45.8205    5.0957    9.8842 H   0  0  0  0  0  0  0  0  0  0  0  0
   42.2169    4.0368   13.1291 H   0  0  0  0  0  0  0  0  0  0  0  0
   44.4880    3.0340    9.6232 H   0  0  0  0  0  0  0  0  0  0  0  0
   42.6829    2.5003   11.2391 H   0  0  0  0  0  0  0  0  0  0  0  0
   49.0758    9.0474   11.9265 H   0  0  0  0  0  0  0  0  0  0  0  0
   46.9348    6.3677   14.1198 H   0  0  0  0  0  0  0  0  0  0  0  0
   47.9957   10.6777   14.1382 H   0  0  0  0  0  0  0  0  0  0  0  0
   47.9993   11.1762   12.4688 H   0  0  0  0  0  0  0  0  0  0  0  0
   46.3963    7.7087   12.2536 H   0  0  0  0  0  0  0  0  0  0  0  0
   47.1668    6.5314   11.1875 H   0  0  0  0  0  0  0  0  0  0  0  0
   49.9092    8.3897   14.0743 H   0  0  0  0  0  0  0  0  0  0  0  0
   48.2472    8.3361   14.6736 H   0  0  0  0  0  0  0  0  0  0  0  0
   49.3501    6.1349   14.0127 H   0  0  0  0  0  0  0  0  0  0  0  0
   49.2851    6.6141   12.3352 H   0  0  0  0  0  0  0  0  0  0  0  0
   44.0941    7.4807   12.7932 H   0  0  0  0  0  0  0  0  0  0  0  0
   46.2684    4.0687   11.3054 H   0  0  0  0  0  0  0  0  0  0  0  0
   50.2466   11.2670   11.1706 H   0  0  0  0  0  0  0  0  0  0  0  0
   49.9941   11.0253   15.4722 H   0  0  0  0  0  0  0  0  0  0  0  0
   41.9891    6.1963   12.6434 H   0  0  0  0  0  0  0  0  0  0  0  0
   52.5592   12.1144   11.3644 H   0  0  0  0  0  0  0  0  0  0  0  0
   52.3052   11.8783   15.6456 H   0  0  0  0  0  0  0  0  0  0  0  0
   44.1514    2.7953   11.1537 H   0  0  0  0  0  0  0  0  0  0  0  0
   42.0095    3.8553   11.8220 H   0  0  0  0  0  0  0  0  0  0  0  0
   53.5931   12.4225   13.5976 H   0  0  0  0  0  0  0  0  0  0  0  0
   48.9649    9.7625   10.7375 H   0  0  0  0  0  0  0  0  0  0  0  0
   49.5044    7.3677   11.0792 H   0  0  0  0  0  0  0  0  0  0  0  0
   51.5504   10.5359   13.7958 H   0  0  0  0  0  0  0  0  0  0  0  0
   48.4334    6.9899   13.7728 H   0  0  0  0  0  0  0  0  0  0  0  0
   46.5441    5.9985   14.1639 H   0  0  0  0  0  0  0  0  0  0  0  0
   45.3241    7.1336   13.6271 H   0  0  0  0  0  0  0  0  0  0  0  0
   51.4254   12.6493   10.5791 H   0  0  0  0  0  0  0  0  0  0  0  0
   50.2901   10.6822   15.9130 H   0  0  0  0  0  0  0  0  0  0  0  0
   48.5375   10.4817   15.8752 H   0  0  0  0  0  0  0  0  0  0  0  0
   49.5843    9.2372   15.1866 H   0  0  0  0  0  0  0  0  0  0  0  0
   49.9149   13.0055   14.7917 H   0  0  0  0  0  0  0  0  0  0  0  0
   48.1904   12.6497   14.8134 H   0  0  0  0  0  0  0  0  0  0  0  0
   48.9659   13.1074   13.2964 H   0  0  0  0  0  0  0  0  0  0  0  0
   46.6556    3.6814   13.2589 H   0  0  0  0  0  0  0  0  0  0  0  0
   43.6373    6.4609   11.9145 H   0  0  0  0  0  0  0  0  0  0  0  0
   45.3662    1.8231   12.2745 H   0  0  0  0  0  0  0  0  0  0  0  0
   42.3585    4.5857   10.9429 H   0  0  0  0  0  0  0  0  0  0  0  0
   43.2156    2.2643   11.1231 H   0  0  0  0  0  0  0  0  0  0  0  0
   48.3097    8.8939   12.8260 H   0  0  0  0  0  0  0  0  0  0  0  0
   47.2582    7.7979   12.6675 H   0  0  0  0  0  0  0  0  0  0  0  0
   48.3046    8.8961   12.8171 H   0  0  0  0  0  0  0  0  0  0  0  0
   47.2596    7.7917   12.6760 H   0  0  0  0  0  0  0  0  0  0  0  0
   47.2573    7.8023   12.6615 H   0  0  0  0  0  0  0  0  0  0  0  0
   48.3131    8.8922   12.8323 H   0  0  0  0  0  0  0  0  0  0  0  0
  3  2  1  0
  4  2  1  0
  5  3  1  0
  6  2  1  0
  3  7  1  0
  8  6  1  0
  5  9  1  0
  6 10  1  0
 11  9  1  0
 12  4  2  0
 13 10  2  0
 14 11  2  0
 15 11  1  0
 16 10  1  0
 17  8  1  0
 18  8  1  0
 19 15  1  0
 20 19  2  0
 21 19  1  0
 22 20  1  0
 23 21  2  0
 24 23  1  0
  7  8  1  0
  4  5  1  0
 24 22  2  0
 26 32  1  0
 27 30  1  0
 28 29  1  0
 29 25  1  0
 30 26  1  0
 31 25  1  0
 32 31  1  0
 33 27  2  0
 34 27  1  0
 35 28  2  0
 36 28  1  0
 37 33  1  0
 38 35  1  0
 39 36  2  0
 40 34  2  0
 41 37  2  0
 42 39  1  0
 42 38  2  0
 40 41  1  0
 44 43  1  0
 45 43  1  0
 46 44  1  0
 47 43  1  0
 44 48  1  0
 49 47  1  0
 46 50  1  0
 47 51  1  0
 52 50  1  0
 53 45  2  0
 54 51  2  0
 55 52  2  0
 56 52  1  0
 57 51  1  0
 58 49  1  0
 59 49  1  0
 60 56  1  0
 61 60  2  0
 62 60  1  0
 63 61  1  0
 64 62  2  0
 65 64  1  0
 48 49  1  0
 45 46  1  0
 65 63  2  0
  1 69  1  0
  1 70  1  0
  3 71  1  6
  5 72  1  6
  6 73  1  1
  9 74  1  0
 15 75  1  0
 15 76  1  0
 16 77  1  0
 17 78  1  0
 17 79  1  0
 17 80  1  0
 18 81  1  0
 18 82  1  0
 18 83  1  0
 20 84  1  0
 21 85  1  0
 22 86  1  0
 23 87  1  0
 24 88  1  0
 25 89  1  0
 26 90  1  0
 29 91  1  0
 29 92  1  0
 30 93  1  0
 30 94  1  0
 31 95  1  0
 31 96  1  0
 32 97  1  0
 32 98  1  0
 33 99  1  0
 34100  1  0
 35101  1  0
 36102  1  0
 37103  1  0
 38104  1  0
 39105  1  0
 40106  1  0
 41107  1  0
 42108  1  0
 44109  1  1
 46110  1  6
 47111  1  6
 50112  1  0
 56113  1  0
 56114  1  0
 57115  1  0
 58116  1  0
 58117  1  0
 58118  1  0
 59119  1  0
 59120  1  0
 59121  1  0
 61122  1  0
 62123  1  0
 63124  1  0
 64125  1  0
 65126  1  0
 66127  1  0
 66128  1  0
 67129  1  0
 67130  1  0
 68131  1  0
 68132  1  0
M  END
> <Uni-Dock RESULT> 
ENERGY=   -8.844  LOWER_BOUND=    0.000  UPPER_BOUND=    0.000
INTER + INTRA:          -8.844
INTER:                  -8.844
INTRA:                   0.000
UNBOUND:                 0.000

$$$$

     RDKit          3D

132133  0  0  0  0  0  0  0  0999 V2000
   47.7246    8.7643   12.5119 O   0  0  0  0  0  0  0  0  0  0  0  0
   48.6530   11.1756   12.7897 N   0  0  0  0  0  0  0  0  0  0  0  0
   48.2735    9.9373   13.4985 C   0  0  1  0  0  0  0  0  0  0  0  0
   47.7750   10.9630   11.7613 C   0  0  0  0  0  0  0  0  0  0  0  0
   47.1095    9.7746   12.4897 C   0  0  1  0  0  0  0  0  0  0  0  0
   50.0702   11.3825   12.4801 C   0  0  2  0  0  0  0  0  0  0  0  0
   49.7548    8.8633   13.3038 S   0  0  0  0  0  0  0  0  0  0  0  0
   50.8776   10.3423   13.2832 C   0  0  0  0  0  0  0  0  0  0  0  0
   47.0426    8.4977   11.7276 N   0  0  0  0  0  0  0  0  0  0  0  0
   50.5404   12.8148   12.7173 C   0  0  0  0  0  0  0  0  0  0  0  0
   46.6756    7.3265   12.3580 C   0  0  0  0  0  0  0  0  0  0  0  0
   47.7085   11.4568   10.6581 O   0  0  0  0  0  0  0  0  0  0  0  0
   51.6646   13.2343   12.4863 O   0  0  0  0  0  0  0  0  0  0  0  0
   46.2832    7.3167   13.5228 O   0  0  0  0  0  0  0  0  0  0  0  0
   46.8471    6.0779   11.5107 C   0  0  0  0  0  0  0  0  0  0  0  0
   49.6125   13.6372   13.2472 O   0  0  0  0  0  0  0  0  0  0  0  0
   51.1597   10.7460   14.7368 C   0  0  0  0  0  0  0  0  0  0  0  0
   52.1791    9.9490   12.5807 C   0  0  0  0  0  0  0  0  0  0  0  0
   45.6439    5.1701   11.5200 C   0  0  0  0  0  0  0  0  0  0  0  0
   44.6265    5.3233   10.5680 C   0  0  0  0  0  0  0  0  0  0  0  0
   45.5219    4.1647   12.4893 C   0  0  0  0  0  0  0  0  0  0  0  0
   43.5195    4.4730   10.5745 C   0  0  0  0  0  0  0  0  0  0  0  0
   44.4144    3.3159   12.4938 C   0  0  0  0  0  0  0  0  0  0  0  0
   43.4150    3.4681   11.5345 C   0  0  0  0  0  0  0  0  0  0  0  0
   49.0086    8.9252   12.5618 N   0  0  0  0  0  0  0  0  0  0  0  0
   45.9862    7.9079   13.0206 N   0  0  0  0  0  0  0  0  0  0  0  0
   45.7117    5.8036   11.8147 C   0  0  0  0  0  0  0  0  0  0  0  0
   50.7443   10.7058   12.6577 C   0  0  0  0  0  0  0  0  0  0  0  0
   49.9402    9.7577   11.7998 C   0  0  0  0  0  0  0  0  0  0  0  0
   46.6909    6.7540   12.4682 C   0  0  0  0  0  0  0  0  0  0  0  0
   47.8383    9.6715   13.0350 C   0  0  0  0  0  0  0  0  0  0  0  0
   46.8486    8.7814   13.8219 C   0  0  0  0  0  0  0  0  0  0  0  0
   45.6325    5.7023   10.4184 C   0  0  0  0  0  0  0  0  0  0  0  0
   44.8521    5.0212   12.6003 C   0  0  0  0  0  0  0  0  0  0  0  0
   51.7881   10.2253   13.4633 C   0  0  0  0  0  0  0  0  0  0  0  0
   50.4526   12.0774   12.6742 C   0  0  0  0  0  0  0  0  0  0  0  0
   44.7212    4.8279    9.8223 C   0  0  0  0  0  0  0  0  0  0  0  0
   52.5249   11.0991   14.2645 C   0  0  0  0  0  0  0  0  0  0  0  0
   51.1908   12.9493   13.4763 C   0  0  0  0  0  0  0  0  0  0  0  0
   43.9419    4.1476   12.0028 C   0  0  0  0  0  0  0  0  0  0  0  0
   43.8779    4.0501   10.6136 C   0  0  0  0  0  0  0  0  0  0  0  0
   52.2257   12.4603   14.2710 C   0  0  0  0  0  0  0  0  0  0  0  0
   50.2119    9.6676   14.0904 N   0  0  0  0  0  0  0  0  0  0  0  0
   49.8998    8.5294   13.2116 C   0  0  1  0  0  0  0  0  0  0  0  0
   48.9681    9.6987   14.6516 C   0  0  0  0  0  0  0  0  0  0  0  0
   48.6042    8.3242   14.0449 C   0  0  1  0  0  0  0  0  0  0  0  0
   50.8182   10.8454   13.4794 C   0  0  2  0  0  0  0  0  0  0  0  0
   49.7248    9.2583   11.5320 S   0  0  0  0  0  0  0  0  0  0  0  0
   50.2472   10.9628   12.0429 C   0  0  0  0  0  0  0  0  0  0  0  0
   47.3121    8.2560   13.3116 N   0  0  0  0  0  0  0  0  0  0  0  0
   52.3464   10.7594   13.5439 C   0  0  0  0  0  0  0  0  0  0  0  0
   47.0058    7.1603   12.5310 C   0  0  0  0  0  0  0  0  0  0  0  0
   48.3939   10.5677   15.2657 O   0  0  0  0  0  0  0  0  0  0  0  0
   53.1212   11.6597   13.2516 O   0  0  0  0  0  0  0  0  0  0  0  0
   47.7585    6.1933   12.4552 O   0  0  0  0  0  0  0  0  0  0  0  0
   45.7044    7.2858   11.7573 C   0  0  0  0  0  0  0  0  0  0  0  0
   52.8388    9.5680   13.9425 O   0  0  0  0  0  0  0  0  0  0  0  0
   48.9914   11.8516   12.0207 C   0  0  0  0  0  0  0  0  0  0  0  0
   51.2242   11.4860   10.9829 C   0  0  0  0  0  0  0  0  0  0  0  0
   44.8275    6.0645   11.8603 C   0  0  0  0  0  0  0  0  0  0  0  0
   43.8607    5.9620   12.8699 C   0  0  0  0  0  0  0  0  0  0  0  0
   44.9819    5.0028   10.9572 C   0  0  0  0  0  0  0  0  0  0  0  0
   43.0526    4.8271   12.9618 C   0  0  0  0  0  0  0  0  0  0  0  0
   44.1727    3.8694   11.0511 C   0  0  0  0  0  0  0  0  0  0  0  0
   43.2064    3.7838   12.0510 C   0  0  0  0  0  0  0  0  0  0  0  0
   47.7303    8.7694   12.5133 O   0  0  0  0  0  0  0  0  0  0  0  0
   47.7344    8.7726   12.5143 O   0  0  0  0  0  0  0  0  0  0  0  0
   47.7276    8.7670   12.5127 O   0  0  0  0  0  0  0  0  0  0  0  0
   48.6901    8.8458   12.5377 H   0  0  0  0  0  0  0  0  0  0  0  0
   47.5743    7.8419   12.2556 H   0  0  0  0  0  0  0  0  0  0  0  0
   47.9719   10.1225   14.5339 H   0  0  0  0  0  0  0  0  0  0  0  0
   46.1252   10.0453   12.8912 H   0  0  0  0  0  0  0  0  0  0  0  0
   50.1967   11.2088   11.4013 H   0  0  0  0  0  0  0  0  0  0  0  0
   47.4267    8.4567   10.7897 H   0  0  0  0  0  0  0  0  0  0  0  0
   47.7272    5.5423   11.8873 H   0  0  0  0  0  0  0  0  0  0  0  0
   47.0835    6.3483   10.4746 H   0  0  0  0  0  0  0  0  0  0  0  0
   50.0539   14.5100   13.2991 H   0  0  0  0  0  0  0  0  0  0  0  0
   51.6015    9.9186   15.3051 H   0  0  0  0  0  0  0  0  0  0  0  0
   51.8733   11.5758   14.7826 H   0  0  0  0  0  0  0  0  0  0  0  0
   50.2545   11.0690   15.2630 H   0  0  0  0  0  0  0  0  0  0  0  0
   52.0050    9.6306   11.5455 H   0  0  0  0  0  0  0  0  0  0  0  0
   52.8765   10.7932   12.5489 H   0  0  0  0  0  0  0  0  0  0  0  0
   52.6887    9.1293   13.1016 H   0  0  0  0  0  0  0  0  0  0  0  0
   44.6890    6.1026    9.8121 H   0  0  0  0  0  0  0  0  0  0  0  0
   46.2889    4.0410   13.2522 H   0  0  0  0  0  0  0  0  0  0  0  0
   42.7361    4.5945    9.8305 H   0  0  0  0  0  0  0  0  0  0  0  0
   44.3305    2.5381   13.2488 H   0  0  0  0  0  0  0  0  0  0  0  0
   42.5528    2.8066   11.5392 H   0  0  0  0  0  0  0  0  0  0  0  0
   49.4971    8.5221   13.3606 H   0  0  0  0  0  0  0  0  0  0  0  0
   45.5820    8.4330   12.2471 H   0  0  0  0  0  0  0  0  0  0  0  0
   49.4125   10.3007   11.0057 H   0  0  0  0  0  0  0  0  0  0  0  0
   50.6415    9.0956   11.2759 H   0  0  0  0  0  0  0  0  0  0  0  0
   47.4311    7.0628   11.7232 H   0  0  0  0  0  0  0  0  0  0  0  0
   47.2280    6.2068   13.2537 H   0  0  0  0  0  0  0  0  0  0  0  0
   48.1567   10.4777   13.7061 H   0  0  0  0  0  0  0  0  0  0  0  0
   47.3143   10.1360   12.1902 H   0  0  0  0  0  0  0  0  0  0  0  0
   46.1770    9.4563   14.3681 H   0  0  0  0  0  0  0  0  0  0  0  0
   47.3734    8.2051   14.5941 H   0  0  0  0  0  0  0  0  0  0  0  0
   46.2815    6.3051    9.7874 H   0  0  0  0  0  0  0  0  0  0  0  0
   44.8876    5.1012   13.6849 H   0  0  0  0  0  0  0  0  0  0  0  0
   52.0355    9.1657   13.4659 H   0  0  0  0  0  0  0  0  0  0  0  0
   49.6461   12.4741   12.0619 H   0  0  0  0  0  0  0  0  0  0  0  0
   44.6686    4.7551    8.7390 H   0  0  0  0  0  0  0  0  0  0  0  0
   53.3331   10.7181   14.8837 H   0  0  0  0  0  0  0  0  0  0  0  0
   50.9578   14.0108   13.4821 H   0  0  0  0  0  0  0  0  0  0  0  0
   43.2808    3.5473   12.6220 H   0  0  0  0  0  0  0  0  0  0  0  0
   43.1679    3.3713   10.1493 H   0  0  0  0  0  0  0  0  0  0  0  0
   52.7998   13.1401   14.8956 H   0  0  0  0  0  0  0  0  0  0  0  0
   50.6318    7.7197   13.2846 H   0  0  0  0  0  0  0  0  0  0  0  0
   48.6727    7.5216   14.7898 H   0  0  0  0  0  0  0  0  0  0  0  0
   50.5430   11.7180   14.0857 H   0  0  0  0  0  0  0  0  0  0  0  0
   46.7150    9.0764   13.2748 H   0  0  0  0  0  0  0  0  0  0  0  0
   45.1405    8.1635   12.0945 H   0  0  0  0  0  0  0  0  0  0  0  0
   45.9610    7.4798   10.7073 H   0  0  0  0  0  0  0  0  0  0  0  0
   53.8120    9.6882   13.9360 H   0  0  0  0  0  0  0  0  0  0  0  0
   49.2391   12.8723   12.3365 H   0  0  0  0  0  0  0  0  0  0  0  0
   48.5626   11.9213   11.0131 H   0  0  0  0  0  0  0  0  0  0  0  0
   48.2029   11.4876   12.6867 H   0  0  0  0  0  0  0  0  0  0  0  0
   51.5731   12.4930   11.2390 H   0  0  0  0  0  0  0  0  0  0  0  0
   50.7491   11.5564    9.9961 H   0  0  0  0  0  0  0  0  0  0  0  0
   52.1038   10.8409   10.8707 H   0  0  0  0  0  0  0  0  0  0  0  0
   43.7281    6.7636   13.5930 H   0  0  0  0  0  0  0  0  0  0  0  0
   45.7427    5.0497   10.1803 H   0  0  0  0  0  0  0  0  0  0  0  0
   42.3045    4.7550   13.7467 H   0  0  0  0  0  0  0  0  0  0  0  0
   44.3023    3.0514   10.3470 H   0  0  0  0  0  0  0  0  0  0  0  0
   42.5787    2.8999   12.1254 H   0  0  0  0  0  0  0  0  0  0  0  0
   48.6971    8.8329   12.5342 H   0  0  0  0  0  0  0  0  0  0  0  0
   47.5616    7.8499   12.2578 H   0  0  0  0  0  0  0  0  0  0  0  0
   48.7018    8.8238   12.5316 H   0  0  0  0  0  0  0  0  0  0  0  0
   47.5528    7.8556   12.2594 H   0  0  0  0  0  0  0  0  0  0  0  0
   47.5678    7.8458   12.2567 H   0  0  0  0  0  0  0  0  0  0  0  0
   48.6936    8.8392   12.5359 H   0  0  0  0  0  0  0  0  0  0  0  0
  3  2  1  0
  4  2  1  0
  5  3  1  0
  6  2  1  0
  3  7  1  0
  8  6  1  0
  5  9  1  0
  6 10  1  0
 11  9  1  0
 12  4  2  0
 13 10  2  0
 14 11  2  0
 15 11  1  0
 16 10  1  0
 17  8  1  0
 18  8  1  0
 19 15  1  0
 20 19  2  0
 21 19  1  0
 22 20  1  0
 23 21  2  0
 24 23  1  0
  7  8  1  0
  4  5  1  0
 24 22  2  0
 26 32  1  0
 27 30  1  0
 28 29  1  0
 29 25  1  0
 30 26  1  0
 31 25  1  0
 32 31  1  0
 33 27  2  0
 34 27  1  0
 35 28  2  0
 36 28  1  0
 37 33  1  0
 38 35  1  0
 39 36  2  0
 40 34  2  0
 41 37  2  0
 42 39  1  0
 42 38  2  0
 40 41  1  0
 44 43  1  0
 45 43  1  0
 46 44  1  0
 47 43  1  0
 44 48  1  0
 49 47  1  0
 46 50  1  0
 47 51  1  0
 52 50  1  0
 53 45  2  0
 54 51  2  0
 55 52  2  0
 56 52  1  0
 57 51  1  0
 58 49  1  0
 59 49  1  0
 60 56  1  0
 61 60  2  0
 62 60  1  0
 63 61  1  0
 64 62  2  0
 65 64  1  0
 48 49  1  0
 45 46  1  0
 65 63  2  0
  1 69  1  0
  1 70  1  0
  3 71  1  6
  5 72  1  6
  6 73  1  1
  9 74  1  0
 15 75  1  0
 15 76  1  0
 16 77  1  0
 17 78  1  0
 17 79  1  0
 17 80  1  0
 18 81  1  0
 18 82  1  0
 18 83  1  0
 20 84  1  0
 21 85  1  0
 22 86  1  0
 23 87  1  0
 24 88  1  0
 25 89  1  0
 26 90  1  0
 29 91  1  0
 29 92  1  0
 30 93  1  0
 30 94  1  0
 31 95  1  0
 31 96  1  0
 32 97  1  0
 32 98  1  0
 33 99  1  0
 34100  1  0
 35101  1  0
 36102  1  0
 37103  1  0
 38104  1  0
 39105  1  0
 40106  1  0
 41107  1  0
 42108  1  0
 44109  1  1
 46110  1  6
 47111  1  6
 50112  1  0
 56113  1  0
 56114  1  0
 57115  1  0
 58116  1  0
 58117  1  0
 58118  1  0
 59119  1  0
 59120  1  0
 59121  1  0
 61122  1  0
 62123  1  0
 63124  1  0
 64125  1  0
 65126  1  0
 66127  1  0
 66128  1  0
 67129  1  0
 67130  1  0
 68131  1  0
 68132  1  0
M  END
> <Uni-Dock RESULT> 
ENERGY=   -7.908  LOWER_BOUND=    1.135  UPPER_BOUND=    2.288
INTER + INTRA:          -7.908
INTER:                  -7.908
INTRA:                   0.000
UNBOUND:                 0.000

$$$$

     RDKit          3D

132133  0  0  0  0  0  0  0  0999 V2000
   49.4408    8.3823   17.4585 O   0  0  0  0  0  0  0  0  0  0  0  0
   50.7262    9.4981   15.4947 N   0  0  0  0  0  0  0  0  0  0  0  0
   50.4116    8.2191   16.1617 C   0  0  1  0  0  0  0  0  0  0  0  0
   50.5806   10.2344   16.6394 C   0  0  0  0  0  0  0  0  0  0  0  0
   50.4670    8.9680   17.5163 C   0  0  1  0  0  0  0  0  0  0  0  0
   49.9441    9.8658   14.3114 C   0  0  2  0  0  0  0  0  0  0  0  0
   48.7630    7.7746   15.4761 S   0  0  0  0  0  0  0  0  0  0  0  0
   49.1574    8.6155   13.8680 C   0  0  0  0  0  0  0  0  0  0  0  0
   49.2644    8.8855   18.3896 N   0  0  0  0  0  0  0  0  0  0  0  0
   50.7861   10.4689   13.1907 C   0  0  0  0  0  0  0  0  0  0  0  0
   48.9526    7.7090   19.0395 C   0  0  0  0  0  0  0  0  0  0  0  0
   50.4413   11.4253   16.8060 O   0  0  0  0  0  0  0  0  0  0  0  0
   50.3490   10.8914   12.1307 O   0  0  0  0  0  0  0  0  0  0  0  0
   49.7076    6.7394   19.0155 O   0  0  0  0  0  0  0  0  0  0  0  0
   47.5983    7.7120   19.7267 C   0  0  0  0  0  0  0  0  0  0  0  0
   52.1134   10.4930   13.4271 O   0  0  0  0  0  0  0  0  0  0  0  0
   49.9623    7.6356   13.0033 C   0  0  0  0  0  0  0  0  0  0  0  0
   47.8400    8.9733   13.1761 C   0  0  0  0  0  0  0  0  0  0  0  0
   47.6376    7.2005   21.1439 C   0  0  0  0  0  0  0  0  0  0  0  0
   47.8573    8.0786   22.2143 C   0  0  0  0  0  0  0  0  0  0  0  0
   47.4643    5.8350   21.4098 C   0  0  0  0  0  0  0  0  0  0  0  0
   47.8821    7.6012   23.5257 C   0  0  0  0  0  0  0  0  0  0  0  0
   47.4895    5.3600   22.7216 C   0  0  0  0  0  0  0  0  0  0  0  0
   47.6951    6.2436   23.7795 C   0  0  0  0  0  0  0  0  0  0  0  0
   48.8687    8.4267   16.2976 N   0  0  0  0  0  0  0  0  0  0  0  0
   50.0442    7.4873   19.1464 N   0  0  0  0  0  0  0  0  0  0  0  0
   48.1761    7.3104   20.7073 C   0  0  0  0  0  0  0  0  0  0  0  0
   49.1887    9.3376   14.0040 C   0  0  0  0  0  0  0  0  0  0  0  0
   48.5741    9.5209   15.3715 C   0  0  0  0  0  0  0  0  0  0  0  0
   48.6002    7.2973   19.2551 C   0  0  0  0  0  0  0  0  0  0  0  0
   50.2503    8.4560   16.7884 C   0  0  0  0  0  0  0  0  0  0  0  0
   50.5487    7.3090   17.7816 C   0  0  0  0  0  0  0  0  0  0  0  0
   47.4954    8.4113   21.2466 C   0  0  0  0  0  0  0  0  0  0  0  0
   48.4768    6.2244   21.5430 C   0  0  0  0  0  0  0  0  0  0  0  0
   48.6597    8.3977   13.1063 C   0  0  0  0  0  0  0  0  0  0  0  0
   50.3048   10.0924   13.6147 C   0  0  0  0  0  0  0  0  0  0  0  0
   47.1133    8.4192   22.5898 C   0  0  0  0  0  0  0  0  0  0  0  0
   49.2335    8.2200   11.8463 C   0  0  0  0  0  0  0  0  0  0  0  0
   50.8768    9.9129   12.3541 C   0  0  0  0  0  0  0  0  0  0  0  0
   48.0941    6.2339   22.8855 C   0  0  0  0  0  0  0  0  0  0  0  0
   47.4109    7.3309   23.4081 C   0  0  0  0  0  0  0  0  0  0  0  0
   50.3418    8.9772   11.4711 C   0  0  0  0  0  0  0  0  0  0  0  0
   49.4358    7.5711   14.4859 N   0  0  0  0  0  0  0  0  0  0  0  0
   48.4093    7.6637   15.5360 C   0  0  1  0  0  0  0  0  0  0  0  0
   50.4049    7.1276   15.3386 C   0  0  0  0  0  0  0  0  0  0  0  0
   49.3711    6.8626   16.4570 C   0  0  1  0  0  0  0  0  0  0  0  0
   49.6296    8.7345   13.6273 C   0  0  2  0  0  0  0  0  0  0  0  0
   48.2221    9.4643   15.8618 S   0  0  0  0  0  0  0  0  0  0  0  0
   49.3517    9.9927   14.4893 C   0  0  0  0  0  0  0  0  0  0  0  0
   49.6914    7.4366   17.7911 N   0  0  0  0  0  0  0  0  0  0  0  0
   48.7593    8.6278   12.3711 C   0  0  0  0  0  0  0  0  0  0  0  0
   48.7371    7.4715   18.7870 C   0  0  0  0  0  0  0  0  0  0  0  0
   51.6091    7.1067   15.2326 O   0  0  0  0  0  0  0  0  0  0  0  0
   48.8180    9.3712   11.4014 O   0  0  0  0  0  0  0  0  0  0  0  0
   47.6191    6.9908   18.6243 O   0  0  0  0  0  0  0  0  0  0  0  0
   49.1774    8.1873   20.0525 C   0  0  0  0  0  0  0  0  0  0  0  0
   47.8519    7.6292   12.3834 O   0  0  0  0  0  0  0  0  0  0  0  0
   50.6466   10.5126   15.1377 C   0  0  0  0  0  0  0  0  0  0  0  0
   48.6788   11.1607   13.7581 C   0  0  0  0  0  0  0  0  0  0  0  0
   48.8644    7.4216   21.3123 C   0  0  0  0  0  0  0  0  0  0  0  0
   49.7989    6.5306   21.8578 C   0  0  0  0  0  0  0  0  0  0  0  0
   47.6226    7.5755   21.9452 C   0  0  0  0  0  0  0  0  0  0  0  0
   49.5025    5.8222   23.0238 C   0  0  0  0  0  0  0  0  0  0  0  0
   47.3289    6.8663   23.1109 C   0  0  0  0  0  0  0  0  0  0  0  0
   48.2701    5.9929   23.6513 C   0  0  0  0  0  0  0  0  0  0  0  0
   49.4418    8.3840   17.4509 O   0  0  0  0  0  0  0  0  0  0  0  0
   49.4423    8.3850   17.4457 O   0  0  0  0  0  0  0  0  0  0  0  0
   49.4414    8.3832   17.4545 O   0  0  0  0  0  0  0  0  0  0  0  0
   48.9778    8.4033   16.6072 H   0  0  0  0  0  0  0  0  0  0  0  0
   48.7661    8.0791   18.0845 H   0  0  0  0  0  0  0  0  0  0  0  0
   51.1909    7.4656   16.0123 H   0  0  0  0  0  0  0  0  0  0  0  0
   51.3840    8.7900   18.0915 H   0  0  0  0  0  0  0  0  0  0  0  0
   49.2488   10.6623   14.6150 H   0  0  0  0  0  0  0  0  0  0  0  0
   48.5852    9.6386   18.3743 H   0  0  0  0  0  0  0  0  0  0  0  0
   46.9203    7.0973   19.1220 H   0  0  0  0  0  0  0  0  0  0  0  0
   47.1695    8.7213   19.7222 H   0  0  0  0  0  0  0  0  0  0  0  0
   52.4979   10.9368   12.6431 H   0  0  0  0  0  0  0  0  0  0  0  0
   49.4137    6.7001   12.8395 H   0  0  0  0  0  0  0  0  0  0  0  0
   50.1643    8.0595   12.0138 H   0  0  0  0  0  0  0  0  0  0  0  0
   50.9302    7.3832   13.4504 H   0  0  0  0  0  0  0  0  0  0  0  0
   47.2307    9.6537   13.7836 H   0  0  0  0  0  0  0  0  0  0  0  0
   48.0246    9.4696   12.2171 H   0  0  0  0  0  0  0  0  0  0  0  0
   47.2373    8.0812   12.9666 H   0  0  0  0  0  0  0  0  0  0  0  0
   48.0071    9.1409   22.0364 H   0  0  0  0  0  0  0  0  0  0  0  0
   47.3143    5.1309   20.5928 H   0  0  0  0  0  0  0  0  0  0  0  0
   48.0485    8.2884   24.3515 H   0  0  0  0  0  0  0  0  0  0  0  0
   47.3521    4.2994   22.9170 H   0  0  0  0  0  0  0  0  0  0  0  0
   47.7148    5.8725   24.8007 H   0  0  0  0  0  0  0  0  0  0  0  0
   48.6957    7.5375   15.8301 H   0  0  0  0  0  0  0  0  0  0  0  0
   50.2671    8.4236   19.4799 H   0  0  0  0  0  0  0  0  0  0  0  0
   48.8675   10.4847   15.8063 H   0  0  0  0  0  0  0  0  0  0  0  0
   47.4851    9.5824   15.2492 H   0  0  0  0  0  0  0  0  0  0  0  0
   48.0571    8.0850   18.7234 H   0  0  0  0  0  0  0  0  0  0  0  0
   48.2946    6.3382   18.8170 H   0  0  0  0  0  0  0  0  0  0  0  0
   50.9466    8.3498   15.9485 H   0  0  0  0  0  0  0  0  0  0  0  0
   50.4637    9.4177   17.2715 H   0  0  0  0  0  0  0  0  0  0  0  0
   51.6407    7.2362   17.8665 H   0  0  0  0  0  0  0  0  0  0  0  0
   50.2236    6.3449   17.3713 H   0  0  0  0  0  0  0  0  0  0  0  0
   47.2590    9.2694   20.6217 H   0  0  0  0  0  0  0  0  0  0  0  0
   49.0209    5.3701   21.1453 H   0  0  0  0  0  0  0  0  0  0  0  0
   47.7926    7.8018   13.3840 H   0  0  0  0  0  0  0  0  0  0  0  0
   50.7358   10.8245   14.2936 H   0  0  0  0  0  0  0  0  0  0  0  0
   46.5844    9.2764   22.9982 H   0  0  0  0  0  0  0  0  0  0  0  0
   48.8156    7.4909   11.1567 H   0  0  0  0  0  0  0  0  0  0  0  0
   51.7412   10.5029   12.0610 H   0  0  0  0  0  0  0  0  0  0  0  0
   48.3333    5.3870   23.5230 H   0  0  0  0  0  0  0  0  0  0  0  0
   47.1150    7.3384   24.4535 H   0  0  0  0  0  0  0  0  0  0  0  0
   50.7883    8.8379   10.4897 H   0  0  0  0  0  0  0  0  0  0  0  0
   47.4811    7.1477   15.2732 H   0  0  0  0  0  0  0  0  0  0  0  0
   49.1279    5.7959   16.5395 H   0  0  0  0  0  0  0  0  0  0  0  0
   50.6682    8.7211   13.2724 H   0  0  0  0  0  0  0  0  0  0  0  0
   50.5697    7.9280   17.9254 H   0  0  0  0  0  0  0  0  0  0  0  0
   50.2523    8.4008   20.0186 H   0  0  0  0  0  0  0  0  0  0  0  0
   48.6781    9.1652   20.0704 H   0  0  0  0  0  0  0  0  0  0  0  0
   47.3962    7.6986   11.5179 H   0  0  0  0  0  0  0  0  0  0  0  0
   51.3636   10.8211   14.3673 H   0  0  0  0  0  0  0  0  0  0  0  0
   50.4586   11.3881   15.7719 H   0  0  0  0  0  0  0  0  0  0  0  0
   51.1412    9.7595   15.7592 H   0  0  0  0  0  0  0  0  0  0  0  0
   49.3026   11.5108   12.9276 H   0  0  0  0  0  0  0  0  0  0  0  0
   48.5265   12.0195   14.4242 H   0  0  0  0  0  0  0  0  0  0  0  0
   47.6963   10.8899   13.3533 H   0  0  0  0  0  0  0  0  0  0  0  0
   50.7647    6.3803   21.3805 H   0  0  0  0  0  0  0  0  0  0  0  0
   46.8722    8.2431   21.5261 H   0  0  0  0  0  0  0  0  0  0  0  0
   50.2323    5.1338   23.4415 H   0  0  0  0  0  0  0  0  0  0  0  0
   46.3624    6.9917   23.5924 H   0  0  0  0  0  0  0  0  0  0  0  0
   48.0397    5.4387   24.5572 H   0  0  0  0  0  0  0  0  0  0  0  0
   48.9634    8.3990   16.6083 H   0  0  0  0  0  0  0  0  0  0  0  0
   48.7796    8.0819   18.0907 H   0  0  0  0  0  0  0  0  0  0  0  0
   48.9534    8.3960   16.6093 H   0  0  0  0  0  0  0  0  0  0  0  0
   48.7891    8.0838   18.0950 H   0  0  0  0  0  0  0  0  0  0  0  0
   48.7729    8.0805   18.0877 H   0  0  0  0  0  0  0  0  0  0  0  0
   48.9705    8.4011   16.6078 H   0  0  0  0  0  0  0  0  0  0  0  0
  3  2  1  0
  4  2  1  0
  5  3  1  0
  6  2  1  0
  3  7  1  0
  8  6  1  0
  5  9  1  0
  6 10  1  0
 11  9  1  0
 12  4  2  0
 13 10  2  0
 14 11  2  0
 15 11  1  0
 16 10  1  0
 17  8  1  0
 18  8  1  0
 19 15  1  0
 20 19  2  0
 21 19  1  0
 22 20  1  0
 23 21  2  0
 24 23  1  0
  7  8  1  0
  4  5  1  0
 24 22  2  0
 26 32  1  0
 27 30  1  0
 28 29  1  0
 29 25  1  0
 30 26  1  0
 31 25  1  0
 32 31  1  0
 33 27  2  0
 34 27  1  0
 35 28  2  0
 36 28  1  0
 37 33  1  0
 38 35  1  0
 39 36  2  0
 40 34  2  0
 41 37  2  0
 42 39  1  0
 42 38  2  0
 40 41  1  0
 44 43  1  0
 45 43  1  0
 46 44  1  0
 47 43  1  0
 44 48  1  0
 49 47  1  0
 46 50  1  0
 47 51  1  0
 52 50  1  0
 53 45  2  0
 54 51  2  0
 55 52  2  0
 56 52  1  0
 57 51  1  0
 58 49  1  0
 59 49  1  0
 60 56  1  0
 61 60  2  0
 62 60  1  0
 63 61  1  0
 64 62  2  0
 65 64  1  0
 48 49  1  0
 45 46  1  0
 65 63  2  0
  1 69  1  0
  1 70  1  0
  3 71  1  6
  5 72  1  6
  6 73  1  1
  9 74  1  0
 15 75  1  0
 15 76  1  0
 16 77  1  0
 17 78  1  0
 17 79  1  0
 17 80  1  0
 18 81  1  0
 18 82  1  0
 18 83  1  0
 20 84  1  0
 21 85  1  0
 22 86  1  0
 23 87  1  0
 24 88  1  0
 25 89  1  0
 26 90  1  0
 29 91  1  0
 29 92  1  0
 30 93  1  0
 30 94  1  0
 31 95  1  0
 31 96  1  0
 32 97  1  0
 32 98  1  0
 33 99  1  0
 34100  1  0
 35101  1  0
 36102  1  0
 37103  1  0
 38104  1  0
 39105  1  0
 40106  1  0
 41107  1  0
 42108  1  0
 44109  1  1
 46110  1  6
 47111  1  6
 50112  1  0
 56113  1  0
 56114  1  0
 57115  1  0
 58116  1  0
 58117  1  0
 58118  1  0
 59119  1  0
 59120  1  0
 59121  1  0
 61122  1  0
 62123  1  0
 63124  1  0
 64125  1  0
 65126  1  0
 66127  1  0
 66128  1  0
 67129  1  0
 67130  1  0
 68131  1  0
 68132  1  0
M  END
> <Uni-Dock RESULT> 
ENERGY=   -7.189  LOWER_BOUND=    4.494  UPPER_BOUND=    6.986
INTER + INTRA:          -7.189
INTER:                  -7.189
INTRA:                   0.000
UNBOUND:                 0.000

$$$$

     RDKit          3D

132133  0  0  0  0  0  0  0  0999 V2000
   48.6031    7.8665   12.7645 O   0  0  0  0  0  0  0  0  0  0  0  0
   50.7337    9.2605   12.2442 N   0  0  0  0  0  0  0  0  0  0  0  0
   49.2930    9.3269   12.5599 C   0  0  1  0  0  0  0  0  0  0  0  0
   50.6404    8.0269   11.6583 C   0  0  0  0  0  0  0  0  0  0  0  0
   49.0967    8.0502   11.7053 C   0  0  1  0  0  0  0  0  0  0  0  0
   51.6864    9.4538   13.3407 C   0  0  2  0  0  0  0  0  0  0  0  0
   49.2500    9.1666   14.3924 S   0  0  0  0  0  0  0  0  0  0  0  0
   50.8997   10.0050   14.5474 C   0  0  0  0  0  0  0  0  0  0  0  0
   48.4470    6.8837   12.3632 N   0  0  0  0  0  0  0  0  0  0  0  0
   52.8813   10.3234   12.9603 C   0  0  0  0  0  0  0  0  0  0  0  0
   47.0990    6.9088   12.6564 C   0  0  0  0  0  0  0  0  0  0  0  0
   51.4918    7.2123   11.3811 O   0  0  0  0  0  0  0  0  0  0  0  0
   53.8241   10.5841   13.6927 O   0  0  0  0  0  0  0  0  0  0  0  0
   46.3752    7.8302   12.2849 O   0  0  0  0  0  0  0  0  0  0  0  0
   46.6197    5.7431   13.5037 C   0  0  0  0  0  0  0  0  0  0  0  0
   52.8343   10.8411   11.7161 O   0  0  0  0  0  0  0  0  0  0  0  0
   50.6679   11.5218   14.5117 C   0  0  0  0  0  0  0  0  0  0  0  0
   51.5239    9.5960   15.8835 C   0  0  0  0  0  0  0  0  0  0  0  0
   45.3718    5.0835   12.9751 C   0  0  0  0  0  0  0  0  0  0  0  0
   45.4568    4.0143   12.0725 C   0  0  0  0  0  0  0  0  0  0  0  0
   44.1067    5.5382   13.3728 C   0  0  0  0  0  0  0  0  0  0  0  0
   44.2981    3.4000   11.5944 C   0  0  0  0  0  0  0  0  0  0  0  0
   42.9499    4.9226   12.8936 C   0  0  0  0  0  0  0  0  0  0  0  0
   43.0458    3.8516   12.0070 C   0  0  0  0  0  0  0  0  0  0  0  0
   49.2941    8.3249   13.7592 N   0  0  0  0  0  0  0  0  0  0  0  0
   46.9179    7.5210   11.7374 N   0  0  0  0  0  0  0  0  0  0  0  0
   45.7484    5.5977   12.6812 C   0  0  0  0  0  0  0  0  0  0  0  0
   51.4017    9.5476   14.2649 C   0  0  0  0  0  0  0  0  0  0  0  0
   50.7058    8.2140   14.1288 C   0  0  0  0  0  0  0  0  0  0  0  0
   46.6208    6.7992   12.9718 C   0  0  0  0  0  0  0  0  0  0  0  0
   49.1037    8.6972   12.3536 C   0  0  0  0  0  0  0  0  0  0  0  0
   47.6101    8.7930   11.9649 C   0  0  0  0  0  0  0  0  0  0  0  0
   46.2769    4.2996   12.7237 C   0  0  0  0  0  0  0  0  0  0  0  0
   44.3972    5.7681   12.3446 C   0  0  0  0  0  0  0  0  0  0  0  0
   51.1478   10.3731   15.3710 C   0  0  0  0  0  0  0  0  0  0  0  0
   52.3009    9.9885   13.2831 C   0  0  0  0  0  0  0  0  0  0  0  0
   45.4672    3.1959   12.4473 C   0  0  0  0  0  0  0  0  0  0  0  0
   51.7823   11.6104   15.4924 C   0  0  0  0  0  0  0  0  0  0  0  0
   52.9342   11.2262   13.4068 C   0  0  0  0  0  0  0  0  0  0  0  0
   43.5891    4.6637   12.0687 C   0  0  0  0  0  0  0  0  0  0  0  0
   44.1242    3.3775   12.1218 C   0  0  0  0  0  0  0  0  0  0  0  0
   52.6746   12.0365   14.5103 C   0  0  0  0  0  0  0  0  0  0  0  0
   49.7096   10.2879   14.3158 N   0  0  0  0  0  0  0  0  0  0  0  0
   49.1058    9.0015   14.6972 C   0  0  1  0  0  0  0  0  0  0  0  0
   48.9019   10.4536   13.2281 C   0  0  0  0  0  0  0  0  0  0  0  0
   47.9698    9.3069   13.6817 C   0  0  1  0  0  0  0  0  0  0  0  0
   51.1640   10.3485   14.2200 C   0  0  2  0  0  0  0  0  0  0  0  0
   50.3505    7.7323   14.2252 S   0  0  0  0  0  0  0  0  0  0  0  0
   51.6503    8.9597   13.7322 C   0  0  0  0  0  0  0  0  0  0  0  0
   47.6596    8.2742   12.6575 N   0  0  0  0  0  0  0  0  0  0  0  0
   51.7734   10.7962   15.5523 C   0  0  0  0  0  0  0  0  0  0  0  0
   47.0455    7.0921   13.0172 C   0  0  0  0  0  0  0  0  0  0  0  0
   49.0146   11.1609   12.2539 O   0  0  0  0  0  0  0  0  0  0  0  0
   52.9483   11.0837   15.7348 O   0  0  0  0  0  0  0  0  0  0  0  0
   46.6932    6.8755   14.1732 O   0  0  0  0  0  0  0  0  0  0  0  0
   46.8966    6.0925   11.8829 C   0  0  0  0  0  0  0  0  0  0  0  0
   50.9128   10.8457   16.5904 O   0  0  0  0  0  0  0  0  0  0  0  0
   51.7565    8.9215   12.1977 C   0  0  0  0  0  0  0  0  0  0  0  0
   52.9850    8.4826   14.3175 C   0  0  0  0  0  0  0  0  0  0  0  0
   45.5180    5.4902   11.7938 C   0  0  0  0  0  0  0  0  0  0  0  0
   44.5304    6.0810   10.9937 C   0  0  0  0  0  0  0  0  0  0  0  0
   45.1984    4.3395   12.5287 C   0  0  0  0  0  0  0  0  0  0  0  0
   43.2542    5.5199   10.9168 C   0  0  0  0  0  0  0  0  0  0  0  0
   43.9219    3.7803   12.4500 C   0  0  0  0  0  0  0  0  0  0  0  0
   42.9518    4.3688   11.6415 C   0  0  0  0  0  0  0  0  0  0  0  0
   48.6090    7.8712   12.7666 O   0  0  0  0  0  0  0  0  0  0  0  0
   48.6129    7.8744   12.7683 O   0  0  0  0  0  0  0  0  0  0  0  0
   48.6062    7.8690   12.7656 O   0  0  0  0  0  0  0  0  0  0  0  0
   49.0981    8.1862   13.5341 H   0  0  0  0  0  0  0  0  0  0  0  0
   47.9515    7.2567   13.1422 H   0  0  0  0  0  0  0  0  0  0  0  0
   48.8186   10.2306   12.1654 H   0  0  0  0  0  0  0  0  0  0  0  0
   48.6640    8.2344   10.7142 H   0  0  0  0  0  0  0  0  0  0  0  0
   52.1087    8.4675   13.5831 H   0  0  0  0  0  0  0  0  0  0  0  0
   49.0241    6.1426   12.7460 H   0  0  0  0  0  0  0  0  0  0  0  0
   46.4456    6.1225   14.5181 H   0  0  0  0  0  0  0  0  0  0  0  0
   47.4102    4.9891   13.5990 H   0  0  0  0  0  0  0  0  0  0  0  0
   53.6764   11.3316   11.6186 H   0  0  0  0  0  0  0  0  0  0  0  0
   49.9822   11.8423   15.3054 H   0  0  0  0  0  0  0  0  0  0  0  0
   51.6057   12.0662   14.6670 H   0  0  0  0  0  0  0  0  0  0  0  0
   50.2540   11.8579   13.5545 H   0  0  0  0  0  0  0  0  0  0  0  0
   51.6778    8.5118   15.9482 H   0  0  0  0  0  0  0  0  0  0  0  0
   52.5008   10.0725   16.0205 H   0  0  0  0  0  0  0  0  0  0  0  0
   50.8971    9.8961   16.7321 H   0  0  0  0  0  0  0  0  0  0  0  0
   46.4246    3.6489   11.7374 H   0  0  0  0  0  0  0  0  0  0  0  0
   44.0157    6.3813   14.0559 H   0  0  0  0  0  0  0  0  0  0  0  0
   44.3713    2.5684   10.8979 H   0  0  0  0  0  0  0  0  0  0  0  0
   41.9737    5.2817   13.2098 H   0  0  0  0  0  0  0  0  0  0  0  0
   42.1441    3.3731   11.6342 H   0  0  0  0  0  0  0  0  0  0  0  0
   48.8461    9.0197   14.3557 H   0  0  0  0  0  0  0  0  0  0  0  0
   47.4858    6.9172   11.1456 H   0  0  0  0  0  0  0  0  0  0  0  0
   51.2398    7.5642   13.4240 H   0  0  0  0  0  0  0  0  0  0  0  0
   50.7673    7.6983   15.0956 H   0  0  0  0  0  0  0  0  0  0  0  0
   47.5388    6.4570   13.4599 H   0  0  0  0  0  0  0  0  0  0  0  0
   46.0919    7.4424   13.6872 H   0  0  0  0  0  0  0  0  0  0  0  0
   49.5540    9.6785   12.1636 H   0  0  0  0  0  0  0  0  0  0  0  0
   49.6031    7.9746   11.6960 H   0  0  0  0  0  0  0  0  0  0  0  0
   47.5618    9.3414   11.0153 H   0  0  0  0  0  0  0  0  0  0  0  0
   47.0596    9.4101   12.6859 H   0  0  0  0  0  0  0  0  0  0  0  0
   47.3237    4.1418   12.9728 H   0  0  0  0  0  0  0  0  0  0  0  0
   43.9756    6.7697   12.2888 H   0  0  0  0  0  0  0  0  0  0  0  0
   50.4562   10.0522   16.1474 H   0  0  0  0  0  0  0  0  0  0  0  0
   52.5118    9.3690   12.4145 H   0  0  0  0  0  0  0  0  0  0  0  0
   45.8856    2.1934   12.4846 H   0  0  0  0  0  0  0  0  0  0  0  0
   51.5809   12.2423   16.3538 H   0  0  0  0  0  0  0  0  0  0  0  0
   53.6300   11.5592   12.6412 H   0  0  0  0  0  0  0  0  0  0  0  0
   42.5441    4.8086   11.8085 H   0  0  0  0  0  0  0  0  0  0  0  0
   43.4952    2.5186   11.9051 H   0  0  0  0  0  0  0  0  0  0  0  0
   53.1682   13.0005   14.6056 H   0  0  0  0  0  0  0  0  0  0  0  0
   48.7949    8.9693   15.7457 H   0  0  0  0  0  0  0  0  0  0  0  0
   47.0497    9.6902   14.1403 H   0  0  0  0  0  0  0  0  0  0  0  0
   51.4208   11.1329   13.4963 H   0  0  0  0  0  0  0  0  0  0  0  0
   48.0239    8.3797   11.7157 H   0  0  0  0  0  0  0  0  0  0  0  0
   47.1479    6.5601   10.9237 H   0  0  0  0  0  0  0  0  0  0  0  0
   47.6448    5.3035   12.0368 H   0  0  0  0  0  0  0  0  0  0  0  0
   51.4555   11.1532   17.3470 H   0  0  0  0  0  0  0  0  0  0  0  0
   52.5002    9.6473   11.8471 H   0  0  0  0  0  0  0  0  0  0  0  0
   52.0749    7.9348   11.8384 H   0  0  0  0  0  0  0  0  0  0  0  0
   50.8105    9.1600   11.7015 H   0  0  0  0  0  0  0  0  0  0  0  0
   53.7926    9.1783   14.0619 H   0  0  0  0  0  0  0  0  0  0  0  0
   53.2731    7.5019   13.9180 H   0  0  0  0  0  0  0  0  0  0  0  0
   52.9524    8.3877   15.4095 H   0  0  0  0  0  0  0  0  0  0  0  0
   44.7455    6.9821   10.4237 H   0  0  0  0  0  0  0  0  0  0  0  0
   45.9417    3.8777   13.1758 H   0  0  0  0  0  0  0  0  0  0  0  0
   42.4939    5.9829   10.2935 H   0  0  0  0  0  0  0  0  0  0  0  0
   43.6843    2.8892   13.0254 H   0  0  0  0  0  0  0  0  0  0  0  0
   41.9573    3.9348   11.5830 H   0  0  0  0  0  0  0  0  0  0  0  0
   49.0932    8.1803   13.5470 H   0  0  0  0  0  0  0  0  0  0  0  0
   47.9507    7.2581   13.1272 H   0  0  0  0  0  0  0  0  0  0  0  0
   49.0896    8.1760   13.5559 H   0  0  0  0  0  0  0  0  0  0  0  0
   47.9502    7.2592   13.1166 H   0  0  0  0  0  0  0  0  0  0  0  0
   47.9510    7.2574   13.1346 H   0  0  0  0  0  0  0  0  0  0  0  0
   49.0956    8.1831   13.5407 H   0  0  0  0  0  0  0  0  0  0  0  0
  3  2  1  0
  4  2  1  0
  5  3  1  0
  6  2  1  0
  3  7  1  0
  8  6  1  0
  5  9  1  0
  6 10  1  0
 11  9  1  0
 12  4  2  0
 13 10  2  0
 14 11  2  0
 15 11  1  0
 16 10  1  0
 17  8  1  0
 18  8  1  0
 19 15  1  0
 20 19  2  0
 21 19  1  0
 22 20  1  0
 23 21  2  0
 24 23  1  0
  7  8  1  0
  4  5  1  0
 24 22  2  0
 26 32  1  0
 27 30  1  0
 28 29  1  0
 29 25  1  0
 30 26  1  0
 31 25  1  0
 32 31  1  0
 33 27  2  0
 34 27  1  0
 35 28  2  0
 36 28  1  0
 37 33  1  0
 38 35  1  0
 39 36  2  0
 40 34  2  0
 41 37  2  0
 42 39  1  0
 42 38  2  0
 40 41  1  0
 44 43  1  0
 45 43  1  0
 46 44  1  0
 47 43  1  0
 44 48  1  0
 49 47  1  0
 46 50  1  0
 47 51  1  0
 52 50  1  0
 53 45  2  0
 54 51  2  0
 55 52  2  0
 56 52  1  0
 57 51  1  0
 58 49  1  0
 59 49  1  0
 60 56  1  0
 61 60  2  0
 62 60  1  0
 63 61  1  0
 64 62  2  0
 65 64  1  0
 48 49  1  0
 45 46  1  0
 65 63  2  0
  1 69  1  0
  1 70  1  0
  3 71  1  6
  5 72  1  6
  6 73  1  1
  9 74  1  0
 15 75  1  0
 15 76  1  0
 16 77  1  0
 17 78  1  0
 17 79  1  0
 17 80  1  0
 18 81  1  0
 18 82  1  0
 18 83  1  0
 20 84  1  0
 21 85  1  0
 22 86  1  0
 23 87  1  0
 24 88  1  0
 25 89  1  0
 26 90  1  0
 29 91  1  0
 29 92  1  0
 30 93  1  0
 30 94  1  0
 31 95  1  0
 31 96  1  0
 32 97  1  0
 32 98  1  0
 33 99  1  0
 34100  1  0
 35101  1  0
 36102  1  0
 37103  1  0
 38104  1  0
 39105  1  0
 40106  1  0
 41107  1  0
 42108  1  0
 44109  1  1
 46110  1  6
 47111  1  6
 50112  1  0
 56113  1  0
 56114  1  0
 57115  1  0
 58116  1  0
 58117  1  0
 58118  1  0
 59119  1  0
 59120  1  0
 59121  1  0
 61122  1  0
 62123  1  0
 63124  1  0
 64125  1  0
 65126  1  0
 66127  1  0
 66128  1  0
 67129  1  0
 67130  1  0
 68131  1  0
 68132  1  0
M  END
> <Uni-Dock RESULT> 
ENERGY=   -7.180  LOWER_BOUND=    1.330  UPPER_BOUND=    2.797
INTER + INTRA:          -7.180
INTER:                  -7.180
INTRA:                   0.000
UNBOUND:                 0.000

$$$$

     RDKit          3D

132133  0  0  0  0  0  0  0  0999 V2000
   49.3815    9.2659   18.1975 O   0  0  0  0  0  0  0  0  0  0  0  0
   50.2324   11.7090   17.9522 N   0  0  0  0  0  0  0  0  0  0  0  0
   49.0491   10.8287   17.8848 C   0  0  1  0  0  0  0  0  0  0  0  0
   51.1064   10.7105   17.6163 C   0  0  0  0  0  0  0  0  0  0  0  0
   49.9597    9.7329   17.2772 C   0  0  1  0  0  0  0  0  0  0  0  0
   50.4583   12.4621   19.1888 C   0  0  2  0  0  0  0  0  0  0  0  0
   48.5394   10.6637   19.6451 S   0  0  0  0  0  0  0  0  0  0  0  0
   49.1704   12.3668   20.0322 C   0  0  0  0  0  0  0  0  0  0  0  0
   49.9979    8.4171   17.9720 N   0  0  0  0  0  0  0  0  0  0  0  0
   50.9095   13.9002   18.9498 C   0  0  0  0  0  0  0  0  0  0  0  0
   48.9142    7.5651   17.9142 C   0  0  0  0  0  0  0  0  0  0  0  0
   52.3100   10.6387   17.7229 O   0  0  0  0  0  0  0  0  0  0  0  0
   51.2015   14.7013   19.8251 O   0  0  0  0  0  0  0  0  0  0  0  0
   47.9417    7.8059   17.2022 O   0  0  0  0  0  0  0  0  0  0  0  0
   49.0158    6.3582   18.8305 C   0  0  0  0  0  0  0  0  0  0  0  0
   50.9495   14.2756   17.6553 O   0  0  0  0  0  0  0  0  0  0  0  0
   48.0830   13.3773   19.6423 C   0  0  0  0  0  0  0  0  0  0  0  0
   49.4528   12.4458   21.5342 C   0  0  0  0  0  0  0  0  0  0  0  0
   48.6835    5.0538   18.1523 C   0  0  0  0  0  0  0  0  0  0  0  0
   49.6854    4.2984   17.5273 C   0  0  0  0  0  0  0  0  0  0  0  0
   47.3633    4.5828   18.1294 C   0  0  0  0  0  0  0  0  0  0  0  0
   49.3741    3.0858   16.9100 C   0  0  0  0  0  0  0  0  0  0  0  0
   47.0544    3.3703   17.5118 C   0  0  0  0  0  0  0  0  0  0  0  0
   48.0603    2.6205   16.9050 C   0  0  0  0  0  0  0  0  0  0  0  0
   49.2872   10.0538   19.2208 N   0  0  0  0  0  0  0  0  0  0  0  0
   48.6967    7.9238   16.8768 N   0  0  0  0  0  0  0  0  0  0  0  0
   48.7332    5.6920   17.8645 C   0  0  0  0  0  0  0  0  0  0  0  0
   49.9036   12.3429   19.9775 C   0  0  0  0  0  0  0  0  0  0  0  0
   50.2611   10.8759   19.9403 C   0  0  0  0  0  0  0  0  0  0  0  0
   48.5359    7.1706   18.1177 C   0  0  0  0  0  0  0  0  0  0  0  0
   49.3635   10.2269   17.7666 C   0  0  0  0  0  0  0  0  0  0  0  0
   48.3456    9.3406   17.0120 C   0  0  0  0  0  0  0  0  0  0  0  0
   49.8991    5.0399   18.2905 C   0  0  0  0  0  0  0  0  0  0  0  0
   47.7563    4.9540   17.1795 C   0  0  0  0  0  0  0  0  0  0  0  0
   48.8648   12.8015   20.8021 C   0  0  0  0  0  0  0  0  0  0  0  0
   50.5932   13.2674   19.1796 C   0  0  0  0  0  0  0  0  0  0  0  0
   50.0773    3.6764   18.0469 C   0  0  0  0  0  0  0  0  0  0  0  0
   48.5266   14.1555   20.8293 C   0  0  0  0  0  0  0  0  0  0  0  0
   50.2532   14.6209   19.2086 C   0  0  0  0  0  0  0  0  0  0  0  0
   47.9359    3.5911   16.9369 C   0  0  0  0  0  0  0  0  0  0  0  0
   49.0959    2.9522   17.3723 C   0  0  0  0  0  0  0  0  0  0  0  0
   49.2205   15.0643   20.0324 C   0  0  0  0  0  0  0  0  0  0  0  0
   48.2081   11.8178   19.4642 N   0  0  0  0  0  0  0  0  0  0  0  0
   48.4403   10.4421   19.9315 C   0  0  1  0  0  0  0  0  0  0  0  0
   47.8641   11.4327   18.2008 C   0  0  0  0  0  0  0  0  0  0  0  0
   47.7501    9.9516   18.6285 C   0  0  1  0  0  0  0  0  0  0  0  0
   49.2541   12.8024   19.7186 C   0  0  2  0  0  0  0  0  0  0  0  0
   50.2691   10.2779   20.0395 S   0  0  0  0  0  0  0  0  0  0  0  0
   50.6121   12.0580   19.6489 C   0  0  0  0  0  0  0  0  0  0  0  0
   48.4818    8.9702   17.7838 N   0  0  0  0  0  0  0  0  0  0  0  0
   49.0011   13.5268   21.0445 C   0  0  0  0  0  0  0  0  0  0  0  0
   48.6494    7.6678   18.2074 C   0  0  0  0  0  0  0  0  0  0  0  0
   47.8183   12.0538   17.1645 O   0  0  0  0  0  0  0  0  0  0  0  0
   49.6179   14.5024   21.4497 O   0  0  0  0  0  0  0  0  0  0  0  0
   48.1633    7.2659   19.2607 O   0  0  0  0  0  0  0  0  0  0  0  0
   49.5122    6.8167   17.2913 C   0  0  0  0  0  0  0  0  0  0  0  0
   48.0207   13.0016   21.8087 O   0  0  0  0  0  0  0  0  0  0  0  0
   51.1956   12.1095   18.2260 C   0  0  0  0  0  0  0  0  0  0  0  0
   51.6870   12.5488   20.6263 C   0  0  0  0  0  0  0  0  0  0  0  0
   48.9117    5.4684   16.9869 C   0  0  0  0  0  0  0  0  0  0  0  0
   48.0860    5.2900   15.8684 C   0  0  0  0  0  0  0  0  0  0  0  0
   49.1552    4.3768   17.8327 C   0  0  0  0  0  0  0  0  0  0  0  0
   47.5306    4.0390   15.5925 C   0  0  0  0  0  0  0  0  0  0  0  0
   48.5989    3.1272   17.5547 C   0  0  0  0  0  0  0  0  0  0  0  0
   47.7899    2.9583   16.4330 C   0  0  0  0  0  0  0  0  0  0  0  0
   49.3821    9.2732   18.2000 O   0  0  0  0  0  0  0  0  0  0  0  0
   49.3825    9.2782   18.2019 O   0  0  0  0  0  0  0  0  0  0  0  0
   49.3818    9.2697   18.1987 O   0  0  0  0  0  0  0  0  0  0  0  0
   49.3013    9.8232   18.9864 H   0  0  0  0  0  0  0  0  0  0  0  0
   49.1649    8.3766   18.5161 H   0  0  0  0  0  0  0  0  0  0  0  0
   48.2753   11.2170   17.2157 H   0  0  0  0  0  0  0  0  0  0  0  0
   49.8453    9.6028   16.1939 H   0  0  0  0  0  0  0  0  0  0  0  0
   51.2931   11.9783   19.7170 H   0  0  0  0  0  0  0  0  0  0  0  0
   50.7500    8.2194   18.6232 H   0  0  0  0  0  0  0  0  0  0  0  0
   48.3375    6.5279   19.6757 H   0  0  0  0  0  0  0  0  0  0  0  0
   50.0209    6.2905   19.2637 H   0  0  0  0  0  0  0  0  0  0  0  0
   51.2889   15.1942   17.6729 H   0  0  0  0  0  0  0  0  0  0  0  0
   47.1400   13.1740   20.1640 H   0  0  0  0  0  0  0  0  0  0  0  0
   48.3790   14.3967   19.9127 H   0  0  0  0  0  0  0  0  0  0  0  0
   47.8785   13.3751   18.5659 H   0  0  0  0  0  0  0  0  0  0  0  0
   50.2092   11.7155   21.8471 H   0  0  0  0  0  0  0  0  0  0  0  0
   49.8245   13.4385   21.8102 H   0  0  0  0  0  0  0  0  0  0  0  0
   48.5476   12.2644   22.1265 H   0  0  0  0  0  0  0  0  0  0  0  0
   50.7159    4.6455   17.5190 H   0  0  0  0  0  0  0  0  0  0  0  0
   46.5649    5.1632   18.5891 H   0  0  0  0  0  0  0  0  0  0  0  0
   50.1567    2.5027   16.4309 H   0  0  0  0  0  0  0  0  0  0  0  0
   46.0276    3.0132   17.5013 H   0  0  0  0  0  0  0  0  0  0  0  0
   47.8185    1.6765   16.4240 H   0  0  0  0  0  0  0  0  0  0  0  0
   48.3487   10.2913   19.5400 H   0  0  0  0  0  0  0  0  0  0  0  0
   49.6649    7.8329   16.5736 H   0  0  0  0  0  0  0  0  0  0  0  0
   51.2684   10.7290   19.5306 H   0  0  0  0  0  0  0  0  0  0  0  0
   50.3177   10.5135   20.9747 H   0  0  0  0  0  0  0  0  0  0  0  0
   49.2570    7.4967   18.8739 H   0  0  0  0  0  0  0  0  0  0  0  0
   47.5330    7.3156   18.5399 H   0  0  0  0  0  0  0  0  0  0  0  0
   49.1471   11.2688   17.5034 H   0  0  0  0  0  0  0  0  0  0  0  0
   50.3756   10.0016   17.4077 H   0  0  0  0  0  0  0  0  0  0  0  0
   48.2731    9.7363   15.9908 H   0  0  0  0  0  0  0  0  0  0  0  0
   47.3413    9.4518   17.4394 H   0  0  0  0  0  0  0  0  0  0  0  0
   50.6754    5.5920   18.8152 H   0  0  0  0  0  0  0  0  0  0  0  0
   46.8539    5.4485   16.8256 H   0  0  0  0  0  0  0  0  0  0  0  0
   48.3166   12.1042   21.4324 H   0  0  0  0  0  0  0  0  0  0  0  0
   51.3995   12.9367   18.5292 H   0  0  0  0  0  0  0  0  0  0  0  0
   50.9837    3.1793   18.3828 H   0  0  0  0  0  0  0  0  0  0  0  0
   47.7219   14.5018   21.4728 H   0  0  0  0  0  0  0  0  0  0  0  0
   50.7937   15.3301   18.5872 H   0  0  0  0  0  0  0  0  0  0  0  0
   47.1722    3.0303   16.4047 H   0  0  0  0  0  0  0  0  0  0  0  0
   49.2359    1.8919   17.1815 H   0  0  0  0  0  0  0  0  0  0  0  0
   48.9562   16.1186   20.0540 H   0  0  0  0  0  0  0  0  0  0  0  0
   47.9049   10.2087   20.8566 H   0  0  0  0  0  0  0  0  0  0  0  0
   46.7043    9.6478   18.7621 H   0  0  0  0  0  0  0  0  0  0  0  0
   49.1865   13.5734   18.9402 H   0  0  0  0  0  0  0  0  0  0  0  0
   48.9774    9.2933   16.9586 H   0  0  0  0  0  0  0  0  0  0  0  0
   49.7092    7.3439   16.3504 H   0  0  0  0  0  0  0  0  0  0  0  0
   50.4896    6.6946   17.7767 H   0  0  0  0  0  0  0  0  0  0  0  0
   47.9868   13.5805   22.5994 H   0  0  0  0  0  0  0  0  0  0  0  0
   51.3991   13.1465   17.9329 H   0  0  0  0  0  0  0  0  0  0  0  0
   52.1448   11.5632   18.1578 H   0  0  0  0  0  0  0  0  0  0  0  0
   50.5205   11.6861   17.4757 H   0  0  0  0  0  0  0  0  0  0  0  0
   51.9252   13.6032   20.4449 H   0  0  0  0  0  0  0  0  0  0  0  0
   52.6233   11.9879   20.5112 H   0  0  0  0  0  0  0  0  0  0  0  0
   51.3778   12.4465   21.6734 H   0  0  0  0  0  0  0  0  0  0  0  0
   47.8682    6.1220   15.2026 H   0  0  0  0  0  0  0  0  0  0  0  0
   49.7730    4.4976   18.7205 H   0  0  0  0  0  0  0  0  0  0  0  0
   46.8921    3.9079   14.7230 H   0  0  0  0  0  0  0  0  0  0  0  0
   48.7926    2.2882   18.2181 H   0  0  0  0  0  0  0  0  0  0  0  0
   47.3547    1.9859   16.2188 H   0  0  0  0  0  0  0  0  0  0  0  0
   49.2974    9.8154   18.9986 H   0  0  0  0  0  0  0  0  0  0  0  0
   49.1683    8.3773   18.5013 H   0  0  0  0  0  0  0  0  0  0  0  0
   49.2946    9.8097   19.0071 H   0  0  0  0  0  0  0  0  0  0  0  0
   49.1706    8.3779   18.4910 H   0  0  0  0  0  0  0  0  0  0  0  0
   49.1666    8.3769   18.5086 H   0  0  0  0  0  0  0  0  0  0  0  0
   49.2993    9.8191   18.9926 H   0  0  0  0  0  0  0  0  0  0  0  0
  3  2  1  0
  4  2  1  0
  5  3  1  0
  6  2  1  0
  3  7  1  0
  8  6  1  0
  5  9  1  0
  6 10  1  0
 11  9  1  0
 12  4  2  0
 13 10  2  0
 14 11  2  0
 15 11  1  0
 16 10  1  0
 17  8  1  0
 18  8  1  0
 19 15  1  0
 20 19  2  0
 21 19  1  0
 22 20  1  0
 23 21  2  0
 24 23  1  0
  7  8  1  0
  4  5  1  0
 24 22  2  0
 26 32  1  0
 27 30  1  0
 28 29  1  0
 29 25  1  0
 30 26  1  0
 31 25  1  0
 32 31  1  0
 33 27  2  0
 34 27  1  0
 35 28  2  0
 36 28  1  0
 37 33  1  0
 38 35  1  0
 39 36  2  0
 40 34  2  0
 41 37  2  0
 42 39  1  0
 42 38  2  0
 40 41  1  0
 44 43  1  0
 45 43  1  0
 46 44  1  0
 47 43  1  0
 44 48  1  0
 49 47  1  0
 46 50  1  0
 47 51  1  0
 52 50  1  0
 53 45  2  0
 54 51  2  0
 55 52  2  0
 56 52  1  0
 57 51  1  0
 58 49  1  0
 59 49  1  0
 60 56  1  0
 61 60  2  0
 62 60  1  0
 63 61  1  0
 64 62  2  0
 65 64  1  0
 48 49  1  0
 45 46  1  0
 65 63  2  0
  1 69  1  0
  1 70  1  0
  3 71  1  6
  5 72  1  6
  6 73  1  1
  9 74  1  0
 15 75  1  0
 15 76  1  0
 16 77  1  0
 17 78  1  0
 17 79  1  0
 17 80  1  0
 18 81  1  0
 18 82  1  0
 18 83  1  0
 20 84  1  0
 21 85  1  0
 22 86  1  0
 23 87  1  0
 24 88  1  0
 25 89  1  0
 26 90  1  0
 29 91  1  0
 29 92  1  0
 30 93  1  0
 30 94  1  0
 31 95  1  0
 31 96  1  0
 32 97  1  0
 32 98  1  0
 33 99  1  0
 34100  1  0
 35101  1  0
 36102  1  0
 37103  1  0
 38104  1  0
 39105  1  0
 40106  1  0
 41107  1  0
 42108  1  0
 44109  1  1
 46110  1  6
 47111  1  6
 50112  1  0
 56113  1  0
 56114  1  0
 57115  1  0
 58116  1  0
 58117  1  0
 58118  1  0
 59119  1  0
 59120  1  0
 59121  1  0
 61122  1  0
 62123  1  0
 63124  1  0
 64125  1  0
 65126  1  0
 66127  1  0
 66128  1  0
 67129  1  0
 67130  1  0
 68131  1  0
 68132  1  0
M  END
> <Uni-Dock RESULT> 
ENERGY=   -7.160  LOWER_BOUND=    4.651  UPPER_BOUND=    6.781
INTER + INTRA:          -7.160
INTER:                  -7.160
INTRA:                   0.000
UNBOUND:                 0.000

$$$$

     RDKit          3D

132133  0  0  0  0  0  0  0  0999 V2000
   49.2461    8.0005   18.3075 O   0  0  0  0  0  0  0  0  0  0  0  0
   50.0574    8.0776   20.7752 N   0  0  0  0  0  0  0  0  0  0  0  0
   48.9692    8.4472   19.8484 C   0  0  1  0  0  0  0  0  0  0  0  0
   51.0206    8.1184   19.8033 C   0  0  0  0  0  0  0  0  0  0  0  0
   50.0475    8.7348   18.7744 C   0  0  1  0  0  0  0  0  0  0  0  0
   49.8999    6.8540   21.5658 C   0  0  2  0  0  0  0  0  0  0  0  0
   47.9857    6.8986   19.7061 S   0  0  0  0  0  0  0  0  0  0  0  0
   48.4291    6.4068   21.4411 C   0  0  0  0  0  0  0  0  0  0  0  0
   49.9266    8.0134   17.4780 N   0  0  0  0  0  0  0  0  0  0  0  0
   50.3568    7.0041   23.0141 C   0  0  0  0  0  0  0  0  0  0  0  0
   48.9301    8.3465   16.5837 C   0  0  0  0  0  0  0  0  0  0  0  0
   52.1460    7.6731   19.7806 O   0  0  0  0  0  0  0  0  0  0  0  0
   50.3639    6.1096   23.8466 O   0  0  0  0  0  0  0  0  0  0  0  0
   48.1931    9.3124   16.7697 O   0  0  0  0  0  0  0  0  0  0  0  0
   48.8037    7.3987   15.4039 C   0  0  0  0  0  0  0  0  0  0  0  0
   50.7515    8.2463   23.3596 O   0  0  0  0  0  0  0  0  0  0  0  0
   47.4671    7.1224   22.3993 C   0  0  0  0  0  0  0  0  0  0  0  0
   48.2706    4.8898   21.5668 C   0  0  0  0  0  0  0  0  0  0  0  0
   48.7173    8.0985   14.0718 C   0  0  0  0  0  0  0  0  0  0  0  0
   49.8778    8.3884   13.3409 C   0  0  0  0  0  0  0  0  0  0  0  0
   47.4728    8.4781   13.5498 C   0  0  0  0  0  0  0  0  0  0  0  0
   49.7914    9.0271   12.1027 C   0  0  0  0  0  0  0  0  0  0  0  0
   47.3888    9.1164   12.3119 C   0  0  0  0  0  0  0  0  0  0  0  0
   48.5478    9.3880   11.5871 C   0  0  0  0  0  0  0  0  0  0  0  0
   48.8413    7.0730   19.1155 N   0  0  0  0  0  0  0  0  0  0  0  0
   49.0055    9.4147   16.9088 N   0  0  0  0  0  0  0  0  0  0  0  0
   48.8273    8.3820   14.7044 C   0  0  0  0  0  0  0  0  0  0  0  0
   49.1479    6.2509   21.4442 C   0  0  0  0  0  0  0  0  0  0  0  0
   49.5454    6.1357   19.9915 C   0  0  0  0  0  0  0  0  0  0  0  0
   48.5217    8.2452   16.1799 C   0  0  0  0  0  0  0  0  0  0  0  0
   49.3222    8.4511   19.2566 C   0  0  0  0  0  0  0  0  0  0  0  0
   48.5878    9.4324   18.3139 C   0  0  0  0  0  0  0  0  0  0  0  0
   49.8434    7.6215   14.1081 C   0  0  0  0  0  0  0  0  0  0  0  0
   48.1080    9.2899   13.9131 C   0  0  0  0  0  0  0  0  0  0  0  0
   47.9044    5.7699   21.8820 C   0  0  0  0  0  0  0  0  0  0  0  0
   50.0075    6.8518   22.3752 C   0  0  0  0  0  0  0  0  0  0  0  0
   50.1245    7.7584   12.7470 C   0  0  0  0  0  0  0  0  0  0  0  0
   47.5317    5.8855   23.2221 C   0  0  0  0  0  0  0  0  0  0  0  0
   49.6325    6.9662   23.7150 C   0  0  0  0  0  0  0  0  0  0  0  0
   48.3902    9.4254   12.5526 C   0  0  0  0  0  0  0  0  0  0  0  0
   49.3976    8.6582   11.9696 C   0  0  0  0  0  0  0  0  0  0  0  0
   48.3955    6.4838   24.1377 C   0  0  0  0  0  0  0  0  0  0  0  0
   47.6847    7.2049   20.8419 N   0  0  0  0  0  0  0  0  0  0  0  0
   47.8161    6.6446   19.4878 C   0  0  1  0  0  0  0  0  0  0  0  0
   47.7255    8.5002   20.4136 C   0  0  0  0  0  0  0  0  0  0  0  0
   47.5395    8.0723   18.9399 C   0  0  1  0  0  0  0  0  0  0  0  0
   48.5852    6.6984   21.8720 C   0  0  2  0  0  0  0  0  0  0  0  0
   49.5430    6.0180   19.3969 S   0  0  0  0  0  0  0  0  0  0  0  0
   49.9289    6.3557   21.1790 C   0  0  0  0  0  0  0  0  0  0  0  0
   48.5103    8.6416   17.9676 N   0  0  0  0  0  0  0  0  0  0  0  0
   47.9442    5.5236   22.6176 C   0  0  0  0  0  0  0  0  0  0  0  0
   48.5899    8.1440   16.6831 C   0  0  0  0  0  0  0  0  0  0  0  0
   47.9572    9.5275   21.0076 O   0  0  0  0  0  0  0  0  0  0  0  0
   48.3908    4.9938   23.6257 O   0  0  0  0  0  0  0  0  0  0  0  0
   47.8371    7.2583   16.2881 O   0  0  0  0  0  0  0  0  0  0  0  0
   49.7027    8.7490   15.8443 C   0  0  0  0  0  0  0  0  0  0  0  0
   46.8035    5.0508   22.0734 O   0  0  0  0  0  0  0  0  0  0  0  0
   50.8906    7.5561   21.2189 C   0  0  0  0  0  0  0  0  0  0  0  0
   50.6666    5.1313   21.7343 C   0  0  0  0  0  0  0  0  0  0  0  0
   49.2544    9.1651   14.4669 C   0  0  0  0  0  0  0  0  0  0  0  0
   48.7862   10.4648   14.2300 C   0  0  0  0  0  0  0  0  0  0  0  0
   49.2805    8.2484   13.4060 C   0  0  0  0  0  0  0  0  0  0  0  0
   48.3701   10.8439   12.9523 C   0  0  0  0  0  0  0  0  0  0  0  0
   48.8641    8.6300   12.1296 C   0  0  0  0  0  0  0  0  0  0  0  0
   48.4125    9.9283   11.9028 C   0  0  0  0  0  0  0  0  0  0  0  0
   49.2458    7.9982   18.3150 O   0  0  0  0  0  0  0  0  0  0  0  0
   49.2455    7.9964   18.3200 O   0  0  0  0  0  0  0  0  0  0  0  0
   49.2460    7.9993   18.3115 O   0  0  0  0  0  0  0  0  0  0  0  0
   48.9284    7.2858   18.8801 H   0  0  0  0  0  0  0  0  0  0  0  0
   48.9749    7.7262   17.4185 H   0  0  0  0  0  0  0  0  0  0  0  0
   48.4058    9.3207   20.1905 H   0  0  0  0  0  0  0  0  0  0  0  0
   50.2494    9.8011   18.6141 H   0  0  0  0  0  0  0  0  0  0  0  0
   50.5645    6.0950   21.1274 H   0  0  0  0  0  0  0  0  0  0  0  0
   50.4683    7.1697   17.3252 H   0  0  0  0  0  0  0  0  0  0  0  0
   47.9085    6.7862   15.5675 H   0  0  0  0  0  0  0  0  0  0  0  0
   49.6460    6.6966   15.3854 H   0  0  0  0  0  0  0  0  0  0  0  0
   51.0439    8.1645   24.2908 H   0  0  0  0  0  0  0  0  0  0  0  0
   46.4214    6.8824   22.1722 H   0  0  0  0  0  0  0  0  0  0  0  0
   47.6432    6.8140   23.4355 H   0  0  0  0  0  0  0  0  0  0  0  0
   47.5769    8.2120   22.3634 H   0  0  0  0  0  0  0  0  0  0  0  0
   48.9288    4.3510   20.8740 H   0  0  0  0  0  0  0  0  0  0  0  0
   48.5185    4.5537   22.5795 H   0  0  0  0  0  0  0  0  0  0  0  0
   47.2404    4.5721   21.3648 H   0  0  0  0  0  0  0  0  0  0  0  0
   50.8572    8.1165   13.7272 H   0  0  0  0  0  0  0  0  0  0  0  0
   46.5595    8.2831   14.1098 H   0  0  0  0  0  0  0  0  0  0  0  0
   50.6951    9.2451   11.5390 H   0  0  0  0  0  0  0  0  0  0  0  0
   46.4186    9.4049   11.9153 H   0  0  0  0  0  0  0  0  0  0  0  0
   48.4812    9.8854   10.6232 H   0  0  0  0  0  0  0  0  0  0  0  0
   47.8440    7.0407   19.3242 H   0  0  0  0  0  0  0  0  0  0  0  0
   50.0222    9.4282   16.8481 H   0  0  0  0  0  0  0  0  0  0  0  0
   50.6315    6.2383   19.8739 H   0  0  0  0  0  0  0  0  0  0  0  0
   49.3168    5.1158   19.6565 H   0  0  0  0  0  0  0  0  0  0  0  0
   48.9881    7.3273   16.5516 H   0  0  0  0  0  0  0  0  0  0  0  0
   47.4363    8.1292   16.2961 H   0  0  0  0  0  0  0  0  0  0  0  0
   49.1581    8.8000   20.2828 H   0  0  0  0  0  0  0  0  0  0  0  0
   50.4009    8.5011   19.0620 H   0  0  0  0  0  0  0  0  0  0  0  0
   48.7964   10.4453   18.6819 H   0  0  0  0  0  0  0  0  0  0  0  0
   47.5006    9.3107   18.3964 H   0  0  0  0  0  0  0  0  0  0  0  0
   50.4216    6.9176   14.7022 H   0  0  0  0  0  0  0  0  0  0  0  0
   47.3288    9.9013   14.3638 H   0  0  0  0  0  0  0  0  0  0  0  0
   47.2210    5.2973   21.1793 H   0  0  0  0  0  0  0  0  0  0  0  0
   50.9750    7.2359   22.0604 H   0  0  0  0  0  0  0  0  0  0  0  0
   50.9128    7.1631   12.2935 H   0  0  0  0  0  0  0  0  0  0  0  0
   46.5672    5.5082   23.5525 H   0  0  0  0  0  0  0  0  0  0  0  0
   50.3055    7.4329   24.4294 H   0  0  0  0  0  0  0  0  0  0  0  0
   47.8264   10.1327   11.9503 H   0  0  0  0  0  0  0  0  0  0  0  0
   49.6179    8.7655   10.9112 H   0  0  0  0  0  0  0  0  0  0  0  0
   48.1042    6.5737   25.1812 H   0  0  0  0  0  0  0  0  0  0  0  0
   47.0473    5.9015   19.2561 H   0  0  0  0  0  0  0  0  0  0  0  0
   46.5085    8.2299   18.5993 H   0  0  0  0  0  0  0  0  0  0  0  0
   48.7182    7.4898   22.6209 H   0  0  0  0  0  0  0  0  0  0  0  0
   49.2098    9.3032   18.2897 H   0  0  0  0  0  0  0  0  0  0  0  0
   50.1428    9.6130   16.3560 H   0  0  0  0  0  0  0  0  0  0  0  0
   50.5053    8.0030   15.7716 H   0  0  0  0  0  0  0  0  0  0  0  0
   46.5289    4.3221   22.6693 H   0  0  0  0  0  0  0  0  0  0  0  0
   51.1375    7.8147   22.2557 H   0  0  0  0  0  0  0  0  0  0  0  0
   51.8362    7.3344   20.7082 H   0  0  0  0  0  0  0  0  0  0  0  0
   50.4695    8.4520   20.7519 H   0  0  0  0  0  0  0  0  0  0  0  0
   50.9146    5.2734   22.7924 H   0  0  0  0  0  0  0  0  0  0  0  0
   51.6135    4.9576   21.2073 H   0  0  0  0  0  0  0  0  0  0  0  0
   50.0760    4.2117   21.6452 H   0  0  0  0  0  0  0  0  0  0  0  0
   48.7414   11.1928   15.0369 H   0  0  0  0  0  0  0  0  0  0  0  0
   49.6168    7.2267   13.5719 H   0  0  0  0  0  0  0  0  0  0  0  0
   48.0091   11.8537   12.7759 H   0  0  0  0  0  0  0  0  0  0  0  0
   48.8867    7.9108   11.3148 H   0  0  0  0  0  0  0  0  0  0  0  0
   48.0856   10.2238   10.9095 H   0  0  0  0  0  0  0  0  0  0  0  0
   48.9213    7.2750   18.8724 H   0  0  0  0  0  0  0  0  0  0  0  0
   48.9823    7.7394   17.4190 H   0  0  0  0  0  0  0  0  0  0  0  0
   48.9165    7.2675   18.8669 H   0  0  0  0  0  0  0  0  0  0  0  0
   48.9875    7.7487   17.4194 H   0  0  0  0  0  0  0  0  0  0  0  0
   48.9787    7.7329   17.4187 H   0  0  0  0  0  0  0  0  0  0  0  0
   48.9248    7.2803   18.8761 H   0  0  0  0  0  0  0  0  0  0  0  0
  3  2  1  0
  4  2  1  0
  5  3  1  0
  6  2  1  0
  3  7  1  0
  8  6  1  0
  5  9  1  0
  6 10  1  0
 11  9  1  0
 12  4  2  0
 13 10  2  0
 14 11  2  0
 15 11  1  0
 16 10  1  0
 17  8  1  0
 18  8  1  0
 19 15  1  0
 20 19  2  0
 21 19  1  0
 22 20  1  0
 23 21  2  0
 24 23  1  0
  7  8  1  0
  4  5  1  0
 24 22  2  0
 26 32  1  0
 27 30  1  0
 28 29  1  0
 29 25  1  0
 30 26  1  0
 31 25  1  0
 32 31  1  0
 33 27  2  0
 34 27  1  0
 35 28  2  0
 36 28  1  0
 37 33  1  0
 38 35  1  0
 39 36  2  0
 40 34  2  0
 41 37  2  0
 42 39  1  0
 42 38  2  0
 40 41  1  0
 44 43  1  0
 45 43  1  0
 46 44  1  0
 47 43  1  0
 44 48  1  0
 49 47  1  0
 46 50  1  0
 47 51  1  0
 52 50  1  0
 53 45  2  0
 54 51  2  0
 55 52  2  0
 56 52  1  0
 57 51  1  0
 58 49  1  0
 59 49  1  0
 60 56  1  0
 61 60  2  0
 62 60  1  0
 63 61  1  0
 64 62  2  0
 65 64  1  0
 48 49  1  0
 45 46  1  0
 65 63  2  0
  1 69  1  0
  1 70  1  0
  3 71  1  6
  5 72  1  6
  6 73  1  1
  9 74  1  0
 15 75  1  0
 15 76  1  0
 16 77  1  0
 17 78  1  0
 17 79  1  0
 17 80  1  0
 18 81  1  0
 18 82  1  0
 18 83  1  0
 20 84  1  0
 21 85  1  0
 22 86  1  0
 23 87  1  0
 24 88  1  0
 25 89  1  0
 26 90  1  0
 29 91  1  0
 29 92  1  0
 30 93  1  0
 30 94  1  0
 31 95  1  0
 31 96  1  0
 32 97  1  0
 32 98  1  0
 33 99  1  0
 34100  1  0
 35101  1  0
 36102  1  0
 37103  1  0
 38104  1  0
 39105  1  0
 40106  1  0
 41107  1  0
 42108  1  0
 44109  1  1
 46110  1  6
 47111  1  6
 50112  1  0
 56113  1  0
 56114  1  0
 57115  1  0
 58116  1  0
 58117  1  0
 58118  1  0
 59119  1  0
 59120  1  0
 59121  1  0
 61122  1  0
 62123  1  0
 63124  1  0
 64125  1  0
 65126  1  0
 66127  1  0
 66128  1  0
 67129  1  0
 67130  1  0
 68131  1  0
 68132  1  0
M  END
> <Uni-Dock RESULT> 
ENERGY=   -7.150  LOWER_BOUND=    5.159  UPPER_BOUND=    8.015
INTER + INTRA:          -7.150
INTER:                  -7.150
INTRA:                   0.000
UNBOUND:                 0.000

$$$$

     RDKit          3D

132133  0  0  0  0  0  0  0  0999 V2000
   48.9464    9.1307   18.2328 O   0  0  0  0  0  0  0  0  0  0  0  0
   49.0904   10.2975   20.5504 N   0  0  0  0  0  0  0  0  0  0  0  0
   48.1773    9.7937   19.5054 C   0  0  1  0  0  0  0  0  0  0  0  0
   50.1106   10.5377   19.6699 C   0  0  0  0  0  0  0  0  0  0  0  0
   49.2063   10.2646   18.4479 C   0  0  1  0  0  0  0  0  0  0  0  0
   49.3438    9.4408   21.7119 C   0  0  2  0  0  0  0  0  0  0  0  0
   48.0618    7.9941   19.8712 S   0  0  0  0  0  0  0  0  0  0  0  0
   48.3018    8.3040   21.6864 C   0  0  0  0  0  0  0  0  0  0  0  0
   49.7047    9.2470   17.4826 N   0  0  0  0  0  0  0  0  0  0  0  0
   49.3638   10.2018   23.0345 C   0  0  0  0  0  0  0  0  0  0  0  0
   48.8807    8.7684   16.4848 C   0  0  0  0  0  0  0  0  0  0  0  0
   51.2914   10.7296   19.8549 O   0  0  0  0  0  0  0  0  0  0  0  0
   49.6009    9.7087   24.1272 O   0  0  0  0  0  0  0  0  0  0  0  0
   47.7642    9.2430   16.2874 O   0  0  0  0  0  0  0  0  0  0  0  0
   49.4527    7.5957   15.7077 C   0  0  0  0  0  0  0  0  0  0  0  0
   49.0665   11.5136   22.9400 O   0  0  0  0  0  0  0  0  0  0  0  0
   46.9412    8.6796   22.2891 C   0  0  0  0  0  0  0  0  0  0  0  0
   48.8287    7.0187   22.3287 C   0  0  0  0  0  0  0  0  0  0  0  0
   49.3415    7.7485   14.2124 C   0  0  0  0  0  0  0  0  0  0  0  0
   50.3679    8.3595   13.4787 C   0  0  0  0  0  0  0  0  0  0  0  0
   48.2030    7.2892   13.5355 C   0  0  0  0  0  0  0  0  0  0  0  0
   50.2646    8.4888   12.0926 C   0  0  0  0  0  0  0  0  0  0  0  0
   48.1020    7.4195   12.1500 C   0  0  0  0  0  0  0  0  0  0  0  0
   49.1341    8.0164   11.4284 C   0  0  0  0  0  0  0  0  0  0  0  0
   48.8475    8.3976   19.2957 N   0  0  0  0  0  0  0  0  0  0  0  0
   48.3908    9.7723   16.4179 N   0  0  0  0  0  0  0  0  0  0  0  0
   49.1737    8.2144   14.7097 C   0  0  0  0  0  0  0  0  0  0  0  0
   48.9938    8.5367   21.7760 C   0  0  0  0  0  0  0  0  0  0  0  0
   49.6976    8.2304   20.4752 C   0  0  0  0  0  0  0  0  0  0  0  0
   48.6592    8.3670   16.1243 C   0  0  0  0  0  0  0  0  0  0  0  0
   48.6061    9.8060   18.9661 C   0  0  0  0  0  0  0  0  0  0  0  0
   47.7239    9.9753   17.7075 C   0  0  0  0  0  0  0  0  0  0  0  0
   50.5248    7.9315   14.4637 C   0  0  0  0  0  0  0  0  0  0  0  0
   48.3058    8.3740   13.6191 C   0  0  0  0  0  0  0  0  0  0  0  0
   48.0446    7.6450   22.2987 C   0  0  0  0  0  0  0  0  0  0  0  0
   49.2664    9.7218   22.4747 C   0  0  0  0  0  0  0  0  0  0  0  0
   50.9939    7.7992   13.1550 C   0  0  0  0  0  0  0  0  0  0  0  0
   47.3858    7.9322   23.4953 C   0  0  0  0  0  0  0  0  0  0  0  0
   48.6063   10.0068   23.6712 C   0  0  0  0  0  0  0  0  0  0  0  0
   48.7762    8.2413   12.3115 C   0  0  0  0  0  0  0  0  0  0  0  0
   50.1202    7.9523   12.0799 C   0  0  0  0  0  0  0  0  0  0  0  0
   47.6666    9.1129   24.1806 C   0  0  0  0  0  0  0  0  0  0  0  0
   47.4216    8.4154   20.8130 N   0  0  0  0  0  0  0  0  0  0  0  0
   48.0771    7.6396   19.7484 C   0  0  1  0  0  0  0  0  0  0  0  0
   46.9579    9.3749   19.9602 C   0  0  0  0  0  0  0  0  0  0  0  0
   47.3040    8.5149   18.7232 C   0  0  1  0  0  0  0  0  0  0  0  0
   48.2127    8.7426   21.9942 C   0  0  2  0  0  0  0  0  0  0  0  0
   49.8751    7.9647   19.9600 S   0  0  0  0  0  0  0  0  0  0  0  0
   49.6776    8.9381   21.5260 C   0  0  0  0  0  0  0  0  0  0  0  0
   48.0903    9.1913   17.6573 N   0  0  0  0  0  0  0  0  0  0  0  0
   48.0353    7.6714   23.0750 C   0  0  0  0  0  0  0  0  0  0  0  0
   48.6576    8.4606   16.6336 C   0  0  0  0  0  0  0  0  0  0  0  0
   46.5648   10.4997   20.1660 O   0  0  0  0  0  0  0  0  0  0  0  0
   48.4493    7.7462   24.2236 O   0  0  0  0  0  0  0  0  0  0  0  0
   48.4935    7.2474   16.5410 O   0  0  0  0  0  0  0  0  0  0  0  0
   49.5222    9.2751   15.6864 C   0  0  0  0  0  0  0  0  0  0  0  0
   47.3794    6.5601   22.6807 O   0  0  0  0  0  0  0  0  0  0  0  0
   49.9544   10.4129   21.1855 C   0  0  0  0  0  0  0  0  0  0  0  0
   50.7554    8.4619   22.5075 C   0  0  0  0  0  0  0  0  0  0  0  0
   49.2368    9.0018   14.2321 C   0  0  0  0  0  0  0  0  0  0  0  0
   48.2904    9.7645   13.5340 C   0  0  0  0  0  0  0  0  0  0  0  0
   49.9014    7.9646   13.5621 C   0  0  0  0  0  0  0  0  0  0  0  0
   48.0285    9.5053   12.1873 C   0  0  0  0  0  0  0  0  0  0  0  0
   49.6379    7.7076   12.2157 C   0  0  0  0  0  0  0  0  0  0  0  0
   48.7043    8.4803   11.5283 C   0  0  0  0  0  0  0  0  0  0  0  0
   48.9457    9.1308   18.2406 O   0  0  0  0  0  0  0  0  0  0  0  0
   48.9451    9.1306   18.2459 O   0  0  0  0  0  0  0  0  0  0  0  0
   48.9460    9.1308   18.2369 O   0  0  0  0  0  0  0  0  0  0  0  0
   48.8758    8.5488   19.0048 H   0  0  0  0  0  0  0  0  0  0  0  0
   49.0251    8.5192   17.4852 H   0  0  0  0  0  0  0  0  0  0  0  0
   47.2200   10.3236   19.4941 H   0  0  0  0  0  0  0  0  0  0  0  0
   48.9295   11.1930   17.9332 H   0  0  0  0  0  0  0  0  0  0  0  0
   50.3569    9.0280   21.5974 H   0  0  0  0  0  0  0  0  0  0  0  0
   50.5897    8.7841   17.6595 H   0  0  0  0  0  0  0  0  0  0  0  0
   48.9228    6.6929   16.0355 H   0  0  0  0  0  0  0  0  0  0  0  0
   50.5047    7.4371   15.9740 H   0  0  0  0  0  0  0  0  0  0  0  0
   49.1595   11.8563   23.8528 H   0  0  0  0  0  0  0  0  0  0  0  0
   46.1941    7.8960   22.1142 H   0  0  0  0  0  0  0  0  0  0  0  0
   47.0144    8.8083   23.3744 H   0  0  0  0  0  0  0  0  0  0  0  0
   46.5477    9.6162   21.8785 H   0  0  0  0  0  0  0  0  0  0  0  0
   49.7899    6.7109   21.8988 H   0  0  0  0  0  0  0  0  0  0  0  0
   48.9817    7.1540   23.4049 H   0  0  0  0  0  0  0  0  0  0  0  0
   48.1252    6.1863   22.2052 H   0  0  0  0  0  0  0  0  0  0  0  0
   51.2569    8.7360   13.9791 H   0  0  0  0  0  0  0  0  0  0  0  0
   47.3834    6.8312   14.0871 H   0  0  0  0  0  0  0  0  0  0  0  0
   51.0663    8.9597   11.5292 H   0  0  0  0  0  0  0  0  0  0  0  0
   47.2155    7.0582   11.6346 H   0  0  0  0  0  0  0  0  0  0  0  0
   49.0542    8.1176   10.3494 H   0  0  0  0  0  0  0  0  0  0  0  0
   47.9555    7.9315   19.4579 H   0  0  0  0  0  0  0  0  0  0  0  0
   49.2767   10.2746   16.4017 H   0  0  0  0  0  0  0  0  0  0  0  0
   50.6151    8.8243   20.3775 H   0  0  0  0  0  0  0  0  0  0  0  0
   50.0351    7.1866   20.5090 H   0  0  0  0  0  0  0  0  0  0  0  0
   49.4016    7.9541   16.8146 H   0  0  0  0  0  0  0  0  0  0  0  0
   47.7486    7.7621   16.2254 H   0  0  0  0  0  0  0  0  0  0  0  0
   48.0880   10.2997   19.7965 H   0  0  0  0  0  0  0  0  0  0  0  0
   49.5574   10.3314   18.8146 H   0  0  0  0  0  0  0  0  0  0  0  0
   47.3653   11.0127   17.7061 H   0  0  0  0  0  0  0  0  0  0  0  0
   46.8216    9.3553   17.7789 H   0  0  0  0  0  0  0  0  0  0  0  0
   51.2195    7.8126   15.2919 H   0  0  0  0  0  0  0  0  0  0  0  0
   47.2581    8.6122   13.7917 H   0  0  0  0  0  0  0  0  0  0  0  0
   47.8176    6.7177   21.7766 H   0  0  0  0  0  0  0  0  0  0  0  0
   49.9949   10.4310   22.0887 H   0  0  0  0  0  0  0  0  0  0  0  0
   52.0427    7.5780   12.9745 H   0  0  0  0  0  0  0  0  0  0  0  0
   46.6535    7.2345   23.8936 H   0  0  0  0  0  0  0  0  0  0  0  0
   48.8246   10.9274   24.2060 H   0  0  0  0  0  0  0  0  0  0  0  0
   48.0943    8.3679   11.4750 H   0  0  0  0  0  0  0  0  0  0  0  0
   50.4860    7.8509   11.0620 H   0  0  0  0  0  0  0  0  0  0  0  0
   47.1528    9.3359   25.1124 H   0  0  0  0  0  0  0  0  0  0  0  0
   47.7995    6.5814   19.7579 H   0  0  0  0  0  0  0  0  0  0  0  0
   46.4127    8.0319   18.3034 H   0  0  0  0  0  0  0  0  0  0  0  0
   47.8089    9.6687   22.4235 H   0  0  0  0  0  0  0  0  0  0  0  0
   48.3258   10.1738   17.7579 H   0  0  0  0  0  0  0  0  0  0  0  0
   49.4011   10.3470   15.8819 H   0  0  0  0  0  0  0  0  0  0  0  0
   50.5713    9.0453   15.9157 H   0  0  0  0  0  0  0  0  0  0  0  0
   47.3474    5.9948   23.4814 H   0  0  0  0  0  0  0  0  0  0  0  0
   49.8306   11.0412   22.0758 H   0  0  0  0  0  0  0  0  0  0  0  0
   50.9812   10.5599   20.8276 H   0  0  0  0  0  0  0  0  0  0  0  0
   49.2813   10.8035   20.4158 H   0  0  0  0  0  0  0  0  0  0  0  0
   50.6810    9.0016   23.4586 H   0  0  0  0  0  0  0  0  0  0  0  0
   51.7650    8.6443   22.1176 H   0  0  0  0  0  0  0  0  0  0  0  0
   50.6822    7.3887   22.7202 H   0  0  0  0  0  0  0  0  0  0  0  0
   47.7493   10.5661   14.0317 H   0  0  0  0  0  0  0  0  0  0  0  0
   50.6222    7.3434   14.0903 H   0  0  0  0  0  0  0  0  0  0  0  0
   47.2940   10.1013   11.6523 H   0  0  0  0  0  0  0  0  0  0  0  0
   50.1573    6.8998   11.7066 H   0  0  0  0  0  0  0  0  0  0  0  0
   48.4974    8.2778   10.4809 H   0  0  0  0  0  0  0  0  0  0  0  0
   48.8762    8.5343   19.0011 H   0  0  0  0  0  0  0  0  0  0  0  0
   49.0253    8.5338   17.4813 H   0  0  0  0  0  0  0  0  0  0  0  0
   48.8766    8.5241   18.9983 H   0  0  0  0  0  0  0  0  0  0  0  0
   49.0255    8.5441   17.4787 H   0  0  0  0  0  0  0  0  0  0  0  0
   49.0252    8.5266   17.4832 H   0  0  0  0  0  0  0  0  0  0  0  0
   48.8760    8.5414   19.0028 H   0  0  0  0  0  0  0  0  0  0  0  0
  3  2  1  0
  4  2  1  0
  5  3  1  0
  6  2  1  0
  3  7  1  0
  8  6  1  0
  5  9  1  0
  6 10  1  0
 11  9  1  0
 12  4  2  0
 13 10  2  0
 14 11  2  0
 15 11  1  0
 16 10  1  0
 17  8  1  0
 18  8  1  0
 19 15  1  0
 20 19  2  0
 21 19  1  0
 22 20  1  0
 23 21  2  0
 24 23  1  0
  7  8  1  0
  4  5  1  0
 24 22  2  0
 26 32  1  0
 27 30  1  0
 28 29  1  0
 29 25  1  0
 30 26  1  0
 31 25  1  0
 32 31  1  0
 33 27  2  0
 34 27  1  0
 35 28  2  0
 36 28  1  0
 37 33  1  0
 38 35  1  0
 39 36  2  0
 40 34  2  0
 41 37  2  0
 42 39  1  0
 42 38  2  0
 40 41  1  0
 44 43  1  0
 45 43  1  0
 46 44  1  0
 47 43  1  0
 44 48  1  0
 49 47  1  0
 46 50  1  0
 47 51  1  0
 52 50  1  0
 53 45  2  0
 54 51  2  0
 55 52  2  0
 56 52  1  0
 57 51  1  0
 58 49  1  0
 59 49  1  0
 60 56  1  0
 61 60  2  0
 62 60  1  0
 63 61  1  0
 64 62  2  0
 65 64  1  0
 48 49  1  0
 45 46  1  0
 65 63  2  0
  1 69  1  0
  1 70  1  0
  3 71  1  6
  5 72  1  6
  6 73  1  1
  9 74  1  0
 15 75  1  0
 15 76  1  0
 16 77  1  0
 17 78  1  0
 17 79  1  0
 17 80  1  0
 18 81  1  0
 18 82  1  0
 18 83  1  0
 20 84  1  0
 21 85  1  0
 22 86  1  0
 23 87  1  0
 24 88  1  0
 25 89  1  0
 26 90  1  0
 29 91  1  0
 29 92  1  0
 30 93  1  0
 30 94  1  0
 31 95  1  0
 31 96  1  0
 32 97  1  0
 32 98  1  0
 33 99  1  0
 34100  1  0
 35101  1  0
 36102  1  0
 37103  1  0
 38104  1  0
 39105  1  0
 40106  1  0
 41107  1  0
 42108  1  0
 44109  1  1
 46110  1  6
 47111  1  6
 50112  1  0
 56113  1  0
 56114  1  0
 57115  1  0
 58116  1  0
 58117  1  0
 58118  1  0
 59119  1  0
 59120  1  0
 59121  1  0
 61122  1  0
 62123  1  0
 63124  1  0
 64125  1  0
 65126  1  0
 66127  1  0
 66128  1  0
 67129  1  0
 67130  1  0
 68131  1  0
 68132  1  0
M  END
> <Uni-Dock RESULT> 
ENERGY=   -7.129  LOWER_BOUND=    4.851  UPPER_BOUND=    7.693
INTER + INTRA:          -7.129
INTER:                  -7.129
INTRA:                   0.000
UNBOUND:                 0.000

$$$$

     RDKit          3D

132133  0  0  0  0  0  0  0  0999 V2000
   49.4580    7.1754   18.1542 O   0  0  0  0  0  0  0  0  0  0  0  0
   50.0099    6.1123   20.4604 N   0  0  0  0  0  0  0  0  0  0  0  0
   50.2022    7.2946   19.5973 C   0  0  1  0  0  0  0  0  0  0  0  0
   49.8478    5.2560   19.4048 C   0  0  0  0  0  0  0  0  0  0  0  0
   50.2607    6.3368   18.3815 C   0  0  1  0  0  0  0  0  0  0  0  0
   48.9675    6.1750   21.4883 C   0  0  2  0  0  0  0  0  0  0  0  0
   48.6670    8.2728   19.8656 S   0  0  0  0  0  0  0  0  0  0  0  0
   48.5211    7.6465   21.6077 C   0  0  0  0  0  0  0  0  0  0  0  0
   49.2998    6.5852   17.2722 N   0  0  0  0  0  0  0  0  0  0  0  0
   49.3944    5.5712   22.8232 C   0  0  0  0  0  0  0  0  0  0  0  0
   49.4617    7.6725   16.4383 C   0  0  0  0  0  0  0  0  0  0  0  0
   49.3941    4.1349   19.3532 O   0  0  0  0  0  0  0  0  0  0  0  0
   48.6812    5.4690   23.8102 O   0  0  0  0  0  0  0  0  0  0  0  0
   50.4535    8.3952   16.5062 O   0  0  0  0  0  0  0  0  0  0  0  0
   48.3017    7.9121   15.4878 C   0  0  0  0  0  0  0  0  0  0  0  0
   50.6758    5.1545   22.8747 O   0  0  0  0  0  0  0  0  0  0  0  0
   49.4220    8.5101   22.5010 C   0  0  0  0  0  0  0  0  0  0  0  0
   47.0604    7.7766   22.0453 C   0  0  0  0  0  0  0  0  0  0  0  0
   48.7267    8.1434   14.0604 C   0  0  0  0  0  0  0  0  0  0  0  0
   48.8542    7.0681   13.1701 C   0  0  0  0  0  0  0  0  0  0  0  0
   49.0102    9.4390   13.6061 C   0  0  0  0  0  0  0  0  0  0  0  0
   49.2378    7.2891   11.8462 C   0  0  0  0  0  0  0  0  0  0  0  0
   49.3935    9.6575   12.2824 C   0  0  0  0  0  0  0  0  0  0  0  0
   49.5041    8.5829   11.4018 C   0  0  0  0  0  0  0  0  0  0  0  0
   48.7121    7.4850   19.1665 N   0  0  0  0  0  0  0  0  0  0  0  0
   50.5720    7.5738   16.5372 N   0  0  0  0  0  0  0  0  0  0  0  0
   49.1279    7.9707   14.6099 C   0  0  0  0  0  0  0  0  0  0  0  0
   48.3608    6.9298   21.5667 C   0  0  0  0  0  0  0  0  0  0  0  0
   47.9576    6.6847   20.1318 C   0  0  0  0  0  0  0  0  0  0  0  0
   49.2875    8.1197   16.1070 C   0  0  0  0  0  0  0  0  0  0  0  0
   50.0856    7.0052   18.9828 C   0  0  0  0  0  0  0  0  0  0  0  0
   50.8705    7.8430   17.9470 C   0  0  0  0  0  0  0  0  0  0  0  0
   48.2536    7.0151   14.0726 C   0  0  0  0  0  0  0  0  0  0  0  0
   49.8705    8.7772   13.7345 C   0  0  0  0  0  0  0  0  0  0  0  0
   47.9894    8.1163   22.2174 C   0  0  0  0  0  0  0  0  0  0  0  0
   49.1234    5.9837   22.2667 C   0  0  0  0  0  0  0  0  0  0  0  0
   48.1169    6.8786   12.6895 C   0  0  0  0  0  0  0  0  0  0  0  0
   48.3705    8.3486   23.5400 C   0  0  0  0  0  0  0  0  0  0  0  0
   49.5033    6.2182   23.5893 C   0  0  0  0  0  0  0  0  0  0  0  0
   49.7326    8.6395   12.3522 C   0  0  0  0  0  0  0  0  0  0  0  0
   48.8543    7.6911   11.8301 C   0  0  0  0  0  0  0  0  0  0  0  0
   49.1275    7.3998   24.2250 C   0  0  0  0  0  0  0  0  0  0  0  0
   49.1940    8.4568   20.9439 N   0  0  0  0  0  0  0  0  0  0  0  0
   48.3769    8.4618   19.7203 C   0  0  1  0  0  0  0  0  0  0  0  0
   50.3793    8.4730   20.2672 C   0  0  0  0  0  0  0  0  0  0  0  0
   49.6720    8.8074   18.9340 C   0  0  1  0  0  0  0  0  0  0  0  0
   48.8900    7.4492   21.9542 C   0  0  2  0  0  0  0  0  0  0  0  0
   47.7253    6.7479   19.5755 S   0  0  0  0  0  0  0  0  0  0  0  0
   48.4026    6.1817   21.2063 C   0  0  0  0  0  0  0  0  0  0  0  0
   50.0279    7.9486   17.7731 N   0  0  0  0  0  0  0  0  0  0  0  0
   47.8922    7.9978   22.9789 C   0  0  0  0  0  0  0  0  0  0  0  0
   49.2865    7.9985   16.6105 C   0  0  0  0  0  0  0  0  0  0  0  0
   51.5007    8.1905   20.6200 O   0  0  0  0  0  0  0  0  0  0  0  0
   47.5660    7.4437   24.0195 O   0  0  0  0  0  0  0  0  0  0  0  0
   48.3489    8.7799   16.4780 O   0  0  0  0  0  0  0  0  0  0  0  0
   49.7021    6.9849   15.5579 C   0  0  0  0  0  0  0  0  0  0  0  0
   47.3344    9.1844   22.6600 O   0  0  0  0  0  0  0  0  0  0  0  0
   49.5765    5.2325   20.9090 C   0  0  0  0  0  0  0  0  0  0  0  0
   47.3031    5.3786   21.9119 C   0  0  0  0  0  0  0  0  0  0  0  0
   49.8441    7.5782   14.1798 C   0  0  0  0  0  0  0  0  0  0  0  0
   51.0770    8.0808   13.7417 C   0  0  0  0  0  0  0  0  0  0  0  0
   48.7365    7.6540   13.3232 C   0  0  0  0  0  0  0  0  0  0  0  0
   51.2021    8.6313   12.4648 C   0  0  0  0  0  0  0  0  0  0  0  0
   48.8641    8.2047   12.0470 C   0  0  0  0  0  0  0  0  0  0  0  0
   50.0974    8.6897   11.6174 C   0  0  0  0  0  0  0  0  0  0  0  0
   49.4571    7.1749   18.1619 O   0  0  0  0  0  0  0  0  0  0  0  0
   49.4564    7.1747   18.1672 O   0  0  0  0  0  0  0  0  0  0  0  0
   49.4576    7.1751   18.1583 O   0  0  0  0  0  0  0  0  0  0  0  0
   48.8735    7.4250   18.8861 H   0  0  0  0  0  0  0  0  0  0  0  0
   49.0172    7.5351   17.3696 H   0  0  0  0  0  0  0  0  0  0  0  0
   51.1321    7.8275   19.8174 H   0  0  0  0  0  0  0  0  0  0  0  0
   51.2723    6.1627   17.9944 H   0  0  0  0  0  0  0  0  0  0  0  0
   48.1297    5.5525   21.1412 H   0  0  0  0  0  0  0  0  0  0  0  0
   48.4364    6.0543   17.2329 H   0  0  0  0  0  0  0  0  0  0  0  0
   47.7435    8.7795   15.8609 H   0  0  0  0  0  0  0  0  0  0  0  0
   47.6003    7.0697   15.5204 H   0  0  0  0  0  0  0  0  0  0  0  0
   50.7755    4.7659   23.7682 H   0  0  0  0  0  0  0  0  0  0  0  0
   49.1538    9.5716   22.4357 H   0  0  0  0  0  0  0  0  0  0  0  0
   49.3215    8.2242   23.5536 H   0  0  0  0  0  0  0  0  0  0  0  0
   50.4820    8.4150   22.2402 H   0  0  0  0  0  0  0  0  0  0  0  0
   46.3885    7.1891   21.4075 H   0  0  0  0  0  0  0  0  0  0  0  0
   46.9273    7.4214   23.0730 H   0  0  0  0  0  0  0  0  0  0  0  0
   46.7208    8.8192   22.0180 H   0  0  0  0  0  0  0  0  0  0  0  0
   48.6526    6.0512   13.4984 H   0  0  0  0  0  0  0  0  0  0  0  0
   48.9395   10.2871   14.2855 H   0  0  0  0  0  0  0  0  0  0  0  0
   49.3304    6.4511   11.1598 H   0  0  0  0  0  0  0  0  0  0  0  0
   49.6092   10.6665   11.9398 H   0  0  0  0  0  0  0  0  0  0  0  0
   49.8029    8.7543   10.3712 H   0  0  0  0  0  0  0  0  0  0  0  0
   48.7328    8.4548   19.4800 H   0  0  0  0  0  0  0  0  0  0  0  0
   50.5619    6.5691   16.3697 H   0  0  0  0  0  0  0  0  0  0  0  0
   48.0228    5.6177   19.8840 H   0  0  0  0  0  0  0  0  0  0  0  0
   46.8944    6.9372   20.0297 H   0  0  0  0  0  0  0  0  0  0  0  0
   48.4555    7.6085   16.6016 H   0  0  0  0  0  0  0  0  0  0  0  0
   49.2089    9.1860   16.3561 H   0  0  0  0  0  0  0  0  0  0  0  0
   50.6313    7.0648   19.9317 H   0  0  0  0  0  0  0  0  0  0  0  0
   50.0842    5.9531   18.6711 H   0  0  0  0  0  0  0  0  0  0  0  0
   51.9335    7.6068   18.0847 H   0  0  0  0  0  0  0  0  0  0  0  0
   50.7797    8.9145   18.1644 H   0  0  0  0  0  0  0  0  0  0  0  0
   47.6739    6.3715   14.7301 H   0  0  0  0  0  0  0  0  0  0  0  0
   50.5673    9.5110   14.1346 H   0  0  0  0  0  0  0  0  0  0  0  0
   47.3955    8.8646   21.6965 H   0  0  0  0  0  0  0  0  0  0  0  0
   49.4271    5.0579   21.7836 H   0  0  0  0  0  0  0  0  0  0  0  0
   47.4352    6.1362   12.2826 H   0  0  0  0  0  0  0  0  0  0  0  0
   48.0764    9.2698   24.0366 H   0  0  0  0  0  0  0  0  0  0  0  0
   50.0938    5.4788   24.1240 H   0  0  0  0  0  0  0  0  0  0  0  0
   50.3138    9.2696   11.6844 H   0  0  0  0  0  0  0  0  0  0  0  0
   48.7489    7.5832   10.7542 H   0  0  0  0  0  0  0  0  0  0  0  0
   49.4241    7.5816   25.2550 H   0  0  0  0  0  0  0  0  0  0  0  0
   47.6115    9.2435   19.7206 H   0  0  0  0  0  0  0  0  0  0  0  0
   49.7710    9.8698   18.6781 H   0  0  0  0  0  0  0  0  0  0  0  0
   49.8117    7.2464   22.5147 H   0  0  0  0  0  0  0  0  0  0  0  0
   50.7321    7.2257   17.8842 H   0  0  0  0  0  0  0  0  0  0  0  0
   50.6449    6.5021   15.8410 H   0  0  0  0  0  0  0  0  0  0  0  0
   48.9474    6.1872   15.5504 H   0  0  0  0  0  0  0  0  0  0  0  0
   46.7403    9.3886   23.4129 H   0  0  0  0  0  0  0  0  0  0  0  0
   50.0312    4.8814   21.8432 H   0  0  0  0  0  0  0  0  0  0  0  0
   49.2481    4.3432   20.3565 H   0  0  0  0  0  0  0  0  0  0  0  0
   50.3677    5.7084   20.3212 H   0  0  0  0  0  0  0  0  0  0  0  0
   47.6478    5.0232   22.8898 H   0  0  0  0  0  0  0  0  0  0  0  0
   47.0185    4.4902   21.3339 H   0  0  0  0  0  0  0  0  0  0  0  0
   46.3906    5.9665   22.0675 H   0  0  0  0  0  0  0  0  0  0  0  0
   51.9500    8.0483   14.3898 H   0  0  0  0  0  0  0  0  0  0  0  0
   47.7636    7.2925   13.6510 H   0  0  0  0  0  0  0  0  0  0  0  0
   52.1614    9.0182   12.1316 H   0  0  0  0  0  0  0  0  0  0  0  0
   47.9985    8.2602   11.3919 H   0  0  0  0  0  0  0  0  0  0  0  0
   50.1955    9.1210   10.6248 H   0  0  0  0  0  0  0  0  0  0  0  0
   48.8615    7.4327   18.8814 H   0  0  0  0  0  0  0  0  0  0  0  0
   49.0302    7.5278   17.3667 H   0  0  0  0  0  0  0  0  0  0  0  0
   48.8531    7.4380   18.8780 H   0  0  0  0  0  0  0  0  0  0  0  0
   49.0393    7.5227   17.3648 H   0  0  0  0  0  0  0  0  0  0  0  0
   49.0238    7.5314   17.3681 H   0  0  0  0  0  0  0  0  0  0  0  0
   48.8674    7.4289   18.8836 H   0  0  0  0  0  0  0  0  0  0  0  0
  3  2  1  0
  4  2  1  0
  5  3  1  0
  6  2  1  0
  3  7  1  0
  8  6  1  0
  5  9  1  0
  6 10  1  0
 11  9  1  0
 12  4  2  0
 13 10  2  0
 14 11  2  0
 15 11  1  0
 16 10  1  0
 17  8  1  0
 18  8  1  0
 19 15  1  0
 20 19  2  0
 21 19  1  0
 22 20  1  0
 23 21  2  0
 24 23  1  0
  7  8  1  0
  4  5  1  0
 24 22  2  0
 26 32  1  0
 27 30  1  0
 28 29  1  0
 29 25  1  0
 30 26  1  0
 31 25  1  0
 32 31  1  0
 33 27  2  0
 34 27  1  0
 35 28  2  0
 36 28  1  0
 37 33  1  0
 38 35  1  0
 39 36  2  0
 40 34  2  0
 41 37  2  0
 42 39  1  0
 42 38  2  0
 40 41  1  0
 44 43  1  0
 45 43  1  0
 46 44  1  0
 47 43  1  0
 44 48  1  0
 49 47  1  0
 46 50  1  0
 47 51  1  0
 52 50  1  0
 53 45  2  0
 54 51  2  0
 55 52  2  0
 56 52  1  0
 57 51  1  0
 58 49  1  0
 59 49  1  0
 60 56  1  0
 61 60  2  0
 62 60  1  0
 63 61  1  0
 64 62  2  0
 65 64  1  0
 48 49  1  0
 45 46  1  0
 65 63  2  0
  1 69  1  0
  1 70  1  0
  3 71  1  6
  5 72  1  6
  6 73  1  1
  9 74  1  0
 15 75  1  0
 15 76  1  0
 16 77  1  0
 17 78  1  0
 17 79  1  0
 17 80  1  0
 18 81  1  0
 18 82  1  0
 18 83  1  0
 20 84  1  0
 21 85  1  0
 22 86  1  0
 23 87  1  0
 24 88  1  0
 25 89  1  0
 26 90  1  0
 29 91  1  0
 29 92  1  0
 30 93  1  0
 30 94  1  0
 31 95  1  0
 31 96  1  0
 32 97  1  0
 32 98  1  0
 33 99  1  0
 34100  1  0
 35101  1  0
 36102  1  0
 37103  1  0
 38104  1  0
 39105  1  0
 40106  1  0
 41107  1  0
 42108  1  0
 44109  1  1
 46110  1  6
 47111  1  6
 50112  1  0
 56113  1  0
 56114  1  0
 57115  1  0
 58116  1  0
 58117  1  0
 58118  1  0
 59119  1  0
 59120  1  0
 59121  1  0
 61122  1  0
 62123  1  0
 63124  1  0
 64125  1  0
 65126  1  0
 66127  1  0
 66128  1  0
 67129  1  0
 67130  1  0
 68131  1  0
 68132  1  0
M  END
> <Uni-Dock RESULT> 
ENERGY=   -6.677  LOWER_BOUND=    5.178  UPPER_BOUND=    7.822
INTER + INTRA:          -6.677
INTER:                  -6.677
INTRA:                   0.000
UNBOUND:                 0.000

$$$$

     RDKit          3D

132133  0  0  0  0  0  0  0  0999 V2000
   48.9591    8.6319   16.4546 O   0  0  0  0  0  0  0  0  0  0  0  0
   48.5667    9.6423   14.0927 N   0  0  0  0  0  0  0  0  0  0  0  0
   49.1051    9.8993   15.4433 C   0  0  1  0  0  0  0  0  0  0  0  0
   47.6549    8.7213   14.5334 C   0  0  0  0  0  0  0  0  0  0  0  0
   47.9434    9.0492   16.0149 C   0  0  1  0  0  0  0  0  0  0  0  0
   49.5100    9.2575   13.0395 C   0  0  2  0  0  0  0  0  0  0  0  0
   50.7857    9.1528   15.3818 S   0  0  0  0  0  0  0  0  0  0  0  0
   50.9331    9.5285   13.5691 C   0  0  0  0  0  0  0  0  0  0  0  0
   48.3069    7.8934   16.8796 N   0  0  0  0  0  0  0  0  0  0  0  0
   49.2334    9.9344   11.7001 C   0  0  0  0  0  0  0  0  0  0  0  0
   48.7973    8.1005   18.1525 C   0  0  0  0  0  0  0  0  0  0  0  0
   47.0157    7.8862   13.9340 O   0  0  0  0  0  0  0  0  0  0  0  0
   49.8564    9.7345   10.6680 O   0  0  0  0  0  0  0  0  0  0  0  0
   48.8395    9.2225   18.6527 O   0  0  0  0  0  0  0  0  0  0  0  0
   49.3129    6.8471   18.8376 C   0  0  0  0  0  0  0  0  0  0  0  0
   48.2284   10.8332   11.7144 O   0  0  0  0  0  0  0  0  0  0  0  0
   51.3965   10.9841   13.4208 C   0  0  0  0  0  0  0  0  0  0  0  0
   51.9689    8.5786   12.9633 C   0  0  0  0  0  0  0  0  0  0  0  0
   48.8070    6.6760   20.2470 C   0  0  0  0  0  0  0  0  0  0  0  0
   47.6201    5.9742   20.4995 C   0  0  0  0  0  0  0  0  0  0  0  0
   49.5136    7.2264   21.3256 C   0  0  0  0  0  0  0  0  0  0  0  0
   47.1617    5.8094   21.8076 C   0  0  0  0  0  0  0  0  0  0  0  0
   49.0535    7.0604   22.6324 C   0  0  0  0  0  0  0  0  0  0  0  0
   47.8794    6.3493   22.8735 C   0  0  0  0  0  0  0  0  0  0  0  0
   49.9276    8.5794   15.5965 N   0  0  0  0  0  0  0  0  0  0  0  0
   48.1473    9.0065   18.2476 N   0  0  0  0  0  0  0  0  0  0  0  0
   48.6292    7.1680   19.7791 C   0  0  0  0  0  0  0  0  0  0  0  0
   50.4512    9.0966   13.2193 C   0  0  0  0  0  0  0  0  0  0  0  0
   50.0244    8.0601   14.2317 C   0  0  0  0  0  0  0  0  0  0  0  0
   49.1339    7.9949   18.6169 C   0  0  0  0  0  0  0  0  0  0  0  0
   48.7486    9.4280   15.7978 C   0  0  0  0  0  0  0  0  0  0  0  0
   48.6418    9.9568   17.2469 C   0  0  0  0  0  0  0  0  0  0  0  0
   48.1931    5.8494   19.5862 C   0  0  0  0  0  0  0  0  0  0  0  0
   48.5722    7.7184   21.0682 C   0  0  0  0  0  0  0  0  0  0  0  0
   51.7812    9.5421   13.1744 C   0  0  0  0  0  0  0  0  0  0  0  0
   49.5242    9.6403   12.3183 C   0  0  0  0  0  0  0  0  0  0  0  0
   47.7219    5.0946   20.6626 C   0  0  0  0  0  0  0  0  0  0  0  0
   52.1743   10.5077   12.2463 C   0  0  0  0  0  0  0  0  0  0  0  0
   49.9197   10.6058   11.3910 C   0  0  0  0  0  0  0  0  0  0  0  0
   48.1010    6.9626   22.1431 C   0  0  0  0  0  0  0  0  0  0  0  0
   47.6774    5.6500   21.9401 C   0  0  0  0  0  0  0  0  0  0  0  0
   51.2435   11.0393   11.3556 C   0  0  0  0  0  0  0  0  0  0  0  0
   50.9842   10.1139   14.6667 N   0  0  0  0  0  0  0  0  0  0  0  0
   51.0442    8.9299   15.5382 C   0  0  1  0  0  0  0  0  0  0  0  0
   50.1361   10.7958   15.4905 C   0  0  0  0  0  0  0  0  0  0  0  0
   50.3570    9.7849   16.6389 C   0  0  1  0  0  0  0  0  0  0  0  0
   50.6891    9.8980   13.2544 C   0  0  2  0  0  0  0  0  0  0  0  0
   50.0231    7.6591   14.6863 S   0  0  0  0  0  0  0  0  0  0  0  0
   49.7333    8.6806   13.1660 C   0  0  0  0  0  0  0  0  0  0  0  0
   49.1275    9.2393   17.2735 N   0  0  0  0  0  0  0  0  0  0  0  0
   51.9843    9.7406   12.4514 C   0  0  0  0  0  0  0  0  0  0  0  0
   49.2005    8.1607   18.1308 C   0  0  0  0  0  0  0  0  0  0  0  0
   49.4181   11.7462   15.2826 O   0  0  0  0  0  0  0  0  0  0  0  0
   52.0628    9.6993   11.2314 O   0  0  0  0  0  0  0  0  0  0  0  0
   50.2755    7.6513   18.4345 O   0  0  0  0  0  0  0  0  0  0  0  0
   47.8528    7.6484   18.6100 C   0  0  0  0  0  0  0  0  0  0  0  0
   53.1075    9.6213   13.1896 O   0  0  0  0  0  0  0  0  0  0  0  0
   48.2627    9.1324   13.1924 C   0  0  0  0  0  0  0  0  0  0  0  0
   49.9334    7.7690   11.9492 C   0  0  0  0  0  0  0  0  0  0  0  0
   47.7977    7.4116   20.0973 C   0  0  0  0  0  0  0  0  0  0  0  0
   47.3768    8.4267   20.9674 C   0  0  0  0  0  0  0  0  0  0  0  0
   48.1876    6.1758   20.6332 C   0  0  0  0  0  0  0  0  0  0  0  0
   47.3299    8.2024   22.3446 C   0  0  0  0  0  0  0  0  0  0  0  0
   48.1396    5.9540   22.0104 C   0  0  0  0  0  0  0  0  0  0  0  0
   47.7076    6.9660   22.8648 C   0  0  0  0  0  0  0  0  0  0  0  0
   48.9617    8.6343   16.4476 O   0  0  0  0  0  0  0  0  0  0  0  0
   48.9636    8.6358   16.4429 O   0  0  0  0  0  0  0  0  0  0  0  0
   48.9604    8.6332   16.4509 O   0  0  0  0  0  0  0  0  0  0  0  0
   49.7039    8.5674   15.8376 H   0  0  0  0  0  0  0  0  0  0  0  0
   49.2289    8.0816   17.2053 H   0  0  0  0  0  0  0  0  0  0  0  0
   49.0820   10.9606   15.7088 H   0  0  0  0  0  0  0  0  0  0  0  0
   47.1342    9.6379   16.4645 H   0  0  0  0  0  0  0  0  0  0  0  0
   49.3730    8.1816   12.8565 H   0  0  0  0  0  0  0  0  0  0  0  0
   48.3527    6.9642   16.4756 H   0  0  0  0  0  0  0  0  0  0  0  0
   50.4087    6.8958   18.8330 H   0  0  0  0  0  0  0  0  0  0  0  0
   49.0516    5.9568   18.2530 H   0  0  0  0  0  0  0  0  0  0  0  0
   48.1566   11.1411   10.7873 H   0  0  0  0  0  0  0  0  0  0  0  0
   52.3455   11.1587   13.9421 H   0  0  0  0  0  0  0  0  0  0  0  0
   51.5641   11.2377   12.3685 H   0  0  0  0  0  0  0  0  0  0  0  0
   50.6624   11.6972   13.8121 H   0  0  0  0  0  0  0  0  0  0  0  0
   51.6762    7.5276   13.0776 H   0  0  0  0  0  0  0  0  0  0  0  0
   52.0925    8.7676   11.8914 H   0  0  0  0  0  0  0  0  0  0  0  0
   52.9542    8.7039   13.4285 H   0  0  0  0  0  0  0  0  0  0  0  0
   47.0452    5.5472   19.6811 H   0  0  0  0  0  0  0  0  0  0  0  0
   50.4262    7.7944   21.1519 H   0  0  0  0  0  0  0  0  0  0  0  0
   46.2428    5.2602   21.9967 H   0  0  0  0  0  0  0  0  0  0  0  0
   49.6100    7.4897   23.4618 H   0  0  0  0  0  0  0  0  0  0  0  0
   47.5219    6.2210   23.8916 H   0  0  0  0  0  0  0  0  0  0  0  0
   50.7686    9.1141   15.8111 H   0  0  0  0  0  0  0  0  0  0  0  0
   47.3200    8.5288   17.8944 H   0  0  0  0  0  0  0  0  0  0  0  0
   49.0821    7.5847   13.9314 H   0  0  0  0  0  0  0  0  0  0  0  0
   50.7671    7.2520   14.2245 H   0  0  0  0  0  0  0  0  0  0  0  0
   49.3477    7.3265   17.7768 H   0  0  0  0  0  0  0  0  0  0  0  0
   50.0834    8.4596   18.9131 H   0  0  0  0  0  0  0  0  0  0  0  0
   48.7993   10.2998   15.1352 H   0  0  0  0  0  0  0  0  0  0  0  0
   47.8339    8.8771   15.5452 H   0  0  0  0  0  0  0  0  0  0  0  0
   47.9233   10.7864   17.2320 H   0  0  0  0  0  0  0  0  0  0  0  0
   49.5920   10.4002   17.5700 H   0  0  0  0  0  0  0  0  0  0  0  0
   48.2185    5.4031   18.5948 H   0  0  0  0  0  0  0  0  0  0  0  0
   48.8892    8.7464   21.2321 H   0  0  0  0  0  0  0  0  0  0  0  0
   52.5197    9.1336   13.8612 H   0  0  0  0  0  0  0  0  0  0  0  0
   48.4867    9.3145   12.3354 H   0  0  0  0  0  0  0  0  0  0  0  0
   47.3877    4.0727   20.5033 H   0  0  0  0  0  0  0  0  0  0  0  0
   53.2072   10.8452   12.2176 H   0  0  0  0  0  0  0  0  0  0  0  0
   49.1943   11.0209   10.6963 H   0  0  0  0  0  0  0  0  0  0  0  0
   48.0610    7.4003   23.1369 H   0  0  0  0  0  0  0  0  0  0  0  0
   47.3091    5.0630   22.7768 H   0  0  0  0  0  0  0  0  0  0  0  0
   51.5504   11.7916   10.6332 H   0  0  0  0  0  0  0  0  0  0  0  0
   52.0679    8.6173   15.7647 H   0  0  0  0  0  0  0  0  0  0  0  0
   51.0460   10.1774   17.3971 H   0  0  0  0  0  0  0  0  0  0  0  0
   50.2079   10.8061   12.8688 H   0  0  0  0  0  0  0  0  0  0  0  0
   48.2183    9.5728   16.9688 H   0  0  0  0  0  0  0  0  0  0  0  0
   47.0547    8.3445   18.3263 H   0  0  0  0  0  0  0  0  0  0  0  0
   47.6426    6.7154   18.0703 H   0  0  0  0  0  0  0  0  0  0  0  0
   53.8290    9.5399   12.5305 H   0  0  0  0  0  0  0  0  0  0  0  0
   48.0397    9.7612   12.3219 H   0  0  0  0  0  0  0  0  0  0  0  0
   47.5759    8.2775   13.1567 H   0  0  0  0  0  0  0  0  0  0  0  0
   48.0142    9.7139   14.0857 H   0  0  0  0  0  0  0  0  0  0  0  0
   49.7807    8.3252   11.0172 H   0  0  0  0  0  0  0  0  0  0  0  0
   49.2152    6.9391   11.9445 H   0  0  0  0  0  0  0  0  0  0  0  0
   50.9361    7.3262   11.9192 H   0  0  0  0  0  0  0  0  0  0  0  0
   47.0821    9.4000   20.5813 H   0  0  0  0  0  0  0  0  0  0  0  0
   48.5413    5.3812   19.9790 H   0  0  0  0  0  0  0  0  0  0  0  0
   47.0017    8.9938   23.0131 H   0  0  0  0  0  0  0  0  0  0  0  0
   48.4460    4.9928   22.4153 H   0  0  0  0  0  0  0  0  0  0  0  0
   47.6733    6.7937   23.9372 H   0  0  0  0  0  0  0  0  0  0  0  0
   49.7150    8.5586   15.8428 H   0  0  0  0  0  0  0  0  0  0  0  0
   49.2153    8.0880   17.2069 H   0  0  0  0  0  0  0  0  0  0  0  0
   49.7226    8.5525   15.8466 H   0  0  0  0  0  0  0  0  0  0  0  0
   49.2058    8.0925   17.2079 H   0  0  0  0  0  0  0  0  0  0  0  0
   49.2220    8.0848   17.2062 H   0  0  0  0  0  0  0  0  0  0  0  0
   49.7095    8.5629   15.8403 H   0  0  0  0  0  0  0  0  0  0  0  0
  3  2  1  0
  4  2  1  0
  5  3  1  0
  6  2  1  0
  3  7  1  0
  8  6  1  0
  5  9  1  0
  6 10  1  0
 11  9  1  0
 12  4  2  0
 13 10  2  0
 14 11  2  0
 15 11  1  0
 16 10  1  0
 17  8  1  0
 18  8  1  0
 19 15  1  0
 20 19  2  0
 21 19  1  0
 22 20  1  0
 23 21  2  0
 24 23  1  0
  7  8  1  0
  4  5  1  0
 24 22  2  0
 26 32  1  0
 27 30  1  0
 28 29  1  0
 29 25  1  0
 30 26  1  0
 31 25  1  0
 32 31  1  0
 33 27  2  0
 34 27  1  0
 35 28  2  0
 36 28  1  0
 37 33  1  0
 38 35  1  0
 39 36  2  0
 40 34  2  0
 41 37  2  0
 42 39  1  0
 42 38  2  0
 40 41  1  0
 44 43  1  0
 45 43  1  0
 46 44  1  0
 47 43  1  0
 44 48  1  0
 49 47  1  0
 46 50  1  0
 47 51  1  0
 52 50  1  0
 53 45  2  0
 54 51  2  0
 55 52  2  0
 56 52  1  0
 57 51  1  0
 58 49  1  0
 59 49  1  0
 60 56  1  0
 61 60  2  0
 62 60  1  0
 63 61  1  0
 64 62  2  0
 65 64  1  0
 48 49  1  0
 45 46  1  0
 65 63  2  0
  1 69  1  0
  1 70  1  0
  3 71  1  6
  5 72  1  6
  6 73  1  1
  9 74  1  0
 15 75  1  0
 15 76  1  0
 16 77  1  0
 17 78  1  0
 17 79  1  0
 17 80  1  0
 18 81  1  0
 18 82  1  0
 18 83  1  0
 20 84  1  0
 21 85  1  0
 22 86  1  0
 23 87  1  0
 24 88  1  0
 25 89  1  0
 26 90  1  0
 29 91  1  0
 29 92  1  0
 30 93  1  0
 30 94  1  0
 31 95  1  0
 31 96  1  0
 32 97  1  0
 32 98  1  0
 33 99  1  0
 34100  1  0
 35101  1  0
 36102  1  0
 37103  1  0
 38104  1  0
 39105  1  0
 40106  1  0
 41107  1  0
 42108  1  0
 44109  1  1
 46110  1  6
 47111  1  6
 50112  1  0
 56113  1  0
 56114  1  0
 57115  1  0
 58116  1  0
 58117  1  0
 58118  1  0
 59119  1  0
 59120  1  0
 59121  1  0
 61122  1  0
 62123  1  0
 63124  1  0
 64125  1  0
 65126  1  0
 66127  1  0
 66128  1  0
 67129  1  0
 67130  1  0
 68131  1  0
 68132  1  0
M  END
> <Uni-Dock RESULT> 
ENERGY=   -6.619  LOWER_BOUND=    3.911  UPPER_BOUND=    6.549
INTER + INTRA:          -6.619
INTER:                  -6.619
INTRA:                   0.000
UNBOUND:                 0.000

$$$$
