
     RDKit          3D

132133  0  0  0  0  0  0  0  0999 V2000
   48.3116    8.2237   13.8718 O   0  0  0  0  0  0  0  0  0  0  0  0
   49.8945    8.5276   16.0201 N   0  0  0  0  0  0  0  0  0  0  0  0
   50.1097    7.7096   14.8134 C   0  0  1  0  0  0  0  0  0  0  0  0
   48.5318    8.3808   15.9889 C   0  0  0  0  0  0  0  0  0  0  0  0
   48.6200    7.2968   14.8851 C   0  0  1  0  0  0  0  0  0  0  0  0
   50.4780    9.8672   16.0568 C   0  0  2  0  0  0  0  0  0  0  0  0
   50.6055    8.9500   13.5466 S   0  0  0  0  0  0  0  0  0  0  0  0
   51.4273    9.9998   14.8457 C   0  0  0  0  0  0  0  0  0  0  0  0
   47.8031    7.5300   13.6606 N   0  0  0  0  0  0  0  0  0  0  0  0
   51.1581   10.1078   17.3995 C   0  0  0  0  0  0  0  0  0  0  0  0
   47.4618    6.4856   12.8235 C   0  0  0  0  0  0  0  0  0  0  0  0
   47.6632    9.0149   16.5425 O   0  0  0  0  0  0  0  0  0  0  0  0
   51.5782    9.2661   18.1769 O   0  0  0  0  0  0  0  0  0  0  0  0
   47.7650    5.3139   13.0683 O   0  0  0  0  0  0  0  0  0  0  0  0
   46.7095    6.9116   11.5766 C   0  0  0  0  0  0  0  0  0  0  0  0
   51.3300   11.4197   17.6589 O   0  0  0  0  0  0  0  0  0  0  0  0
   52.8348    9.4404   15.0815 C   0  0  0  0  0  0  0  0  0  0  0  0
   51.5141   11.4385   14.3392 C   0  0  0  0  0  0  0  0  0  0  0  0
   45.5828    5.9781   11.2068 C   0  0  0  0  0  0  0  0  0  0  0  0
   45.6356    5.2377   10.0194 C   0  0  0  0  0  0  0  0  0  0  0  0
   44.4641    5.8427   12.0401 C   0  0  0  0  0  0  0  0  0  0  0  0
   44.5936    4.3695    9.6765 C   0  0  0  0  0  0  0  0  0  0  0  0
   43.4229    4.9774   11.6967 C   0  0  0  0  0  0  0  0  0  0  0  0
   43.4886    4.2375   10.5169 C   0  0  0  0  0  0  0  0  0  0  0  0
   47.4448    8.2012   12.0953 N   0  0  0  0  0  0  0  0  0  0  0  0
   49.5505    7.9244   14.1263 N   0  0  0  0  0  0  0  0  0  0  0  0
   51.2026    8.6899   15.8373 C   0  0  0  0  0  0  0  0  0  0  0  0
   45.6126    6.5876   12.2281 C   0  0  0  0  0  0  0  0  0  0  0  0
   46.2556    7.8076   12.8447 C   0  0  0  0  0  0  0  0  0  0  0  0
   50.1174    7.7076   15.4634 C   0  0  0  0  0  0  0  0  0  0  0  0
   48.1262    9.3709   12.6674 C   0  0  0  0  0  0  0  0  0  0  0  0
   48.7700    9.1659   14.0596 C   0  0  0  0  0  0  0  0  0  0  0  0
   51.1118    9.4319   17.0242 C   0  0  0  0  0  0  0  0  0  0  0  0
   52.3352    8.8514   15.0265 C   0  0  0  0  0  0  0  0  0  0  0  0
   45.7120    5.3343   12.8467 C   0  0  0  0  0  0  0  0  0  0  0  0
   44.9219    6.6905   11.0101 C   0  0  0  0  0  0  0  0  0  0  0  0
   52.1218   10.3327   17.3756 C   0  0  0  0  0  0  0  0  0  0  0  0
   45.1194    4.2104   12.2708 C   0  0  0  0  0  0  0  0  0  0  0  0
   44.3284    5.5648   10.4357 C   0  0  0  0  0  0  0  0  0  0  0  0
   53.3427    9.7512   15.3766 C   0  0  0  0  0  0  0  0  0  0  0  0
   53.2339   10.4938   16.5509 C   0  0  0  0  0  0  0  0  0  0  0  0
   44.4290    4.3258   11.0648 C   0  0  0  0  0  0  0  0  0  0  0  0
   50.7379    8.3603   15.4074 N   0  0  0  0  0  0  0  0  0  0  0  0
   50.3068    7.7585   14.1283 C   0  0  1  0  0  0  0  0  0  0  0  0
   49.6152    7.9652   16.0764 C   0  0  0  0  0  0  0  0  0  0  0  0
   49.1470    7.0820   14.8973 C   0  0  1  0  0  0  0  0  0  0  0  0
   51.1089    9.7754   15.4112 C   0  0  2  0  0  0  0  0  0  0  0  0
   49.9322    9.2133   13.0730 S   0  0  0  0  0  0  0  0  0  0  0  0
   51.2261   10.2269   13.9395 C   0  0  0  0  0  0  0  0  0  0  0  0
   47.7573    7.3253   14.4292 N   0  0  0  0  0  0  0  0  0  0  0  0
   52.3695   10.0651   16.2220 C   0  0  0  0  0  0  0  0  0  0  0  0
   47.2993    6.7884   13.2412 C   0  0  0  0  0  0  0  0  0  0  0  0
   49.1399    8.3357   17.1268 O   0  0  0  0  0  0  0  0  0  0  0  0
   52.8810   11.1670   16.3586 O   0  0  0  0  0  0  0  0  0  0  0  0
   48.0026    6.0716   12.5375 O   0  0  0  0  0  0  0  0  0  0  0  0
   45.8977    7.2320   12.8590 C   0  0  0  0  0  0  0  0  0  0  0  0
   52.9290    8.9938   16.8140 O   0  0  0  0  0  0  0  0  0  0  0  0
   50.8730   11.7059   13.7557 C   0  0  0  0  0  0  0  0  0  0  0  0
   52.5830    9.9209   13.2940 C   0  0  0  0  0  0  0  0  0  0  0  0
   45.0011    6.1118   12.3936 C   0  0  0  0  0  0  0  0  0  0  0  0
   44.0973    5.5066   13.2801 C   0  0  0  0  0  0  0  0  0  0  0  0
   45.0445    5.6694   11.0638 C   0  0  0  0  0  0  0  0  0  0  0  0
   43.2370    4.4983   12.8365 C   0  0  0  0  0  0  0  0  0  0  0  0
   44.1862    4.6621   10.6221 C   0  0  0  0  0  0  0  0  0  0  0  0
   43.2787    4.0812   11.5051 C   0  0  0  0  0  0  0  0  0  0  0  0
   48.3044    8.2187   13.8677 O   0  0  0  0  0  0  0  0  0  0  0  0
   48.3072    8.2205   13.8692 O   0  0  0  0  0  0  0  0  0  0  0  0
   48.3257    8.2302   13.8787 O   0  0  0  0  0  0  0  0  0  0  0  0
   47.9984    7.4052   13.4566 H   0  0  0  0  0  0  0  0  0  0  0  0
   49.2390    8.0372   14.0840 H   0  0  0  0  0  0  0  0  0  0  0  0
   50.8216    6.8947   14.9706 H   0  0  0  0  0  0  0  0  0  0  0  0
   48.4528    6.2947   15.3073 H   0  0  0  0  0  0  0  0  0  0  0  0
   49.6554   10.5917   15.9856 H   0  0  0  0  0  0  0  0  0  0  0  0
   47.6381    8.4872   13.3467 H   0  0  0  0  0  0  0  0  0  0  0  0
   46.2939    7.9171   11.7023 H   0  0  0  0  0  0  0  0  0  0  0  0
   47.4469    6.9751   10.7690 H   0  0  0  0  0  0  0  0  0  0  0  0
   51.7464   11.4268   18.5499 H   0  0  0  0  0  0  0  0  0  0  0  0
   52.8225    8.4152   15.4691 H   0  0  0  0  0  0  0  0  0  0  0  0
   53.3827   10.0568   15.8060 H   0  0  0  0  0  0  0  0  0  0  0  0
   53.4236    9.4401   14.1577 H   0  0  0  0  0  0  0  0  0  0  0  0
   50.5265   11.8424   14.0807 H   0  0  0  0  0  0  0  0  0  0  0  0
   52.1588   11.5139   13.4548 H   0  0  0  0  0  0  0  0  0  0  0  0
   51.9377   12.0898   15.1096 H   0  0  0  0  0  0  0  0  0  0  0  0
   46.4951    5.3143    9.3546 H   0  0  0  0  0  0  0  0  0  0  0  0
   44.4003    6.4021   12.9708 H   0  0  0  0  0  0  0  0  0  0  0  0
   44.6453    3.7942    8.7507 H   0  0  0  0  0  0  0  0  0  0  0  0
   42.5643    4.8720   12.3532 H   0  0  0  0  0  0  0  0  0  0  0  0
   42.6802    3.5592   10.2541 H   0  0  0  0  0  0  0  0  0  0  0  0
   48.1006    7.4227   12.0488 H   0  0  0  0  0  0  0  0  0  0  0  0
   48.9313    7.1427   13.9176 H   0  0  0  0  0  0  0  0  0  0  0  0
   46.4925    7.5948   13.8934 H   0  0  0  0  0  0  0  0  0  0  0  0
   45.5204    8.6223   12.8462 H   0  0  0  0  0  0  0  0  0  0  0  0
   49.3176    7.7064   16.2131 H   0  0  0  0  0  0  0  0  0  0  0  0
   50.5633    6.7044   15.4910 H   0  0  0  0  0  0  0  0  0  0  0  0
   47.4378   10.2257   12.7068 H   0  0  0  0  0  0  0  0  0  0  0  0
   48.9182    9.6514   11.9642 H   0  0  0  0  0  0  0  0  0  0  0  0
   47.9781    9.1502   14.8221 H   0  0  0  0  0  0  0  0  0  0  0  0
   49.4039   10.0348   14.2648 H   0  0  0  0  0  0  0  0  0  0  0  0
   50.2505    9.3223   17.6786 H   0  0  0  0  0  0  0  0  0  0  0  0
   52.4227    8.2819   14.1035 H   0  0  0  0  0  0  0  0  0  0  0  0
   46.2486    5.2246   13.7823 H   0  0  0  0  0  0  0  0  0  0  0  0
   44.8497    7.6541   10.5066 H   0  0  0  0  0  0  0  0  0  0  0  0
   52.0366   10.9065   18.2927 H   0  0  0  0  0  0  0  0  0  0  0  0
   45.1987    3.2421   12.7563 H   0  0  0  0  0  0  0  0  0  0  0  0
   43.7963    5.6574    9.4898 H   0  0  0  0  0  0  0  0  0  0  0  0
   54.2122    9.8694   14.7319 H   0  0  0  0  0  0  0  0  0  0  0  0
   54.0233   11.1881   16.8278 H   0  0  0  0  0  0  0  0  0  0  0  0
   43.9676    3.4539   10.6136 H   0  0  0  0  0  0  0  0  0  0  0  0
   51.0553    7.0741   13.7192 H   0  0  0  0  0  0  0  0  0  0  0  0
   49.3070    6.0153   15.1025 H   0  0  0  0  0  0  0  0  0  0  0  0
   50.3027   10.3259   15.9161 H   0  0  0  0  0  0  0  0  0  0  0  0
   47.1610    7.9573   14.9493 H   0  0  0  0  0  0  0  0  0  0  0  0
   45.9940    7.9816   12.0676 H   0  0  0  0  0  0  0  0  0  0  0  0
   45.4189    7.7432   13.7033 H   0  0  0  0  0  0  0  0  0  0  0  0
   53.6819    9.3498   17.3297 H   0  0  0  0  0  0  0  0  0  0  0  0
   51.5940   12.3499   14.2692 H   0  0  0  0  0  0  0  0  0  0  0  0
   49.8829   11.9348   14.1685 H   0  0  0  0  0  0  0  0  0  0  0  0
   50.8791   11.9907   12.6963 H   0  0  0  0  0  0  0  0  0  0  0  0
   52.8906    8.8783   13.4459 H   0  0  0  0  0  0  0  0  0  0  0  0
   52.5706   10.1106   12.2144 H   0  0  0  0  0  0  0  0  0  0  0  0
   53.3717   10.5540   13.7132 H   0  0  0  0  0  0  0  0  0  0  0  0
   44.0436    5.8253   14.3164 H   0  0  0  0  0  0  0  0  0  0  0  0
   45.7496    6.1128   10.3620 H   0  0  0  0  0  0  0  0  0  0  0  0
   42.5333    4.0376   13.5314 H   0  0  0  0  0  0  0  0  0  0  0  0
   44.2268    4.3293    9.5905 H   0  0  0  0  0  0  0  0  0  0  0  0
   42.6040    3.2994   11.1633 H   0  0  0  0  0  0  0  0  0  0  0  0
   49.2327    8.0548   14.0890 H   0  0  0  0  0  0  0  0  0  0  0  0
   48.0118    7.3925   13.4558 H   0  0  0  0  0  0  0  0  0  0  0  0
   48.0065    7.3976   13.4561 H   0  0  0  0  0  0  0  0  0  0  0  0
   49.2352    8.0479   14.0871 H   0  0  0  0  0  0  0  0  0  0  0  0
   49.2475    8.0055   14.0743 H   0  0  0  0  0  0  0  0  0  0  0  0
   47.9757    7.4303   13.4594 H   0  0  0  0  0  0  0  0  0  0  0  0
  3  2  1  0
  4  2  1  0
  5  3  1  0
  6  2  1  0
  3  7  1  0
  8  6  1  0
  5  9  1  0
  6 10  1  0
 11  9  1  0
 12  4  2  0
 13 10  2  0
 14 11  2  0
 15 11  1  0
 16 10  1  0
 17  8  1  0
 18  8  1  0
 19 15  1  0
 20 19  2  0
 21 19  1  0
 22 20  1  0
 23 21  2  0
 24 23  1  0
  7  8  1  0
  4  5  1  0
 24 22  2  0
 26 32  1  0
 27 30  1  0
 28 29  1  0
 29 25  1  0
 30 26  1  0
 31 25  1  0
 32 31  1  0
 33 27  2  0
 34 27  1  0
 35 28  2  0
 36 28  1  0
 37 33  1  0
 38 35  1  0
 39 36  2  0
 40 34  2  0
 41 37  2  0
 42 39  1  0
 42 38  2  0
 40 41  1  0
 44 43  1  0
 45 43  1  0
 46 44  1  0
 47 43  1  0
 44 48  1  0
 49 47  1  0
 46 50  1  0
 47 51  1  0
 52 50  1  0
 53 45  2  0
 54 51  2  0
 55 52  2  0
 56 52  1  0
 57 51  1  0
 58 49  1  0
 59 49  1  0
 60 56  1  0
 61 60  2  0
 62 60  1  0
 63 61  1  0
 64 62  2  0
 65 64  1  0
 48 49  1  0
 45 46  1  0
 65 63  2  0
  1 69  1  0
  1 70  1  0
  3 71  1  6
  5 72  1  6
  6 73  1  1
  9 74  1  0
 15 75  1  0
 15 76  1  0
 16 77  1  0
 17 78  1  0
 17 79  1  0
 17 80  1  0
 18 81  1  0
 18 82  1  0
 18 83  1  0
 20 84  1  0
 21 85  1  0
 22 86  1  0
 23 87  1  0
 24 88  1  0
 25 89  1  0
 26 90  1  0
 29 91  1  0
 29 92  1  0
 30 93  1  0
 30 94  1  0
 31 95  1  0
 31 96  1  0
 32 97  1  0
 32 98  1  0
 33 99  1  0
 34100  1  0
 35101  1  0
 36102  1  0
 37103  1  0
 38104  1  0
 39105  1  0
 40106  1  0
 41107  1  0
 42108  1  0
 44109  1  1
 46110  1  6
 47111  1  6
 50112  1  0
 56113  1  0
 56114  1  0
 57115  1  0
 58116  1  0
 58117  1  0
 58118  1  0
 59119  1  0
 59120  1  0
 59121  1  0
 61122  1  0
 62123  1  0
 63124  1  0
 64125  1  0
 65126  1  0
 66127  1  0
 66128  1  0
 67129  1  0
 67130  1  0
 68131  1  0
 68132  1  0
M  END
> <Uni-Dock RESULT> 
ENERGY=   -7.969  LOWER_BOUND=    0.000  UPPER_BOUND=    0.000
INTER + INTRA:          -7.969
INTER:                  -7.969
INTRA:                   0.000
UNBOUND:                 0.000

$$$$

     RDKit          3D

132133  0  0  0  0  0  0  0  0999 V2000
   43.7762   12.0871    8.9942 O   0  0  0  0  0  0  0  0  0  0  0  0
   44.8075   12.2814    6.5220 N   0  0  0  0  0  0  0  0  0  0  0  0
   44.2559   13.3397    7.3864 C   0  0  1  0  0  0  0  0  0  0  0  0
   43.9692   11.3145    7.0140 C   0  0  0  0  0  0  0  0  0  0  0  0
   43.1219   12.3625    7.7788 C   0  0  1  0  0  0  0  0  0  0  0  0
   46.2527   12.0634    6.5374 C   0  0  2  0  0  0  0  0  0  0  0  0
   45.6052   13.6355    8.6034 S   0  0  0  0  0  0  0  0  0  0  0  0
   46.8951   13.2263    7.3251 C   0  0  0  0  0  0  0  0  0  0  0  0
   42.9248   12.1194    9.2360 N   0  0  0  0  0  0  0  0  0  0  0  0
   46.7782   11.9216    5.1137 C   0  0  0  0  0  0  0  0  0  0  0  0
   41.8791   12.7077    9.9203 C   0  0  0  0  0  0  0  0  0  0  0  0
   44.0392   10.1090    6.9455 O   0  0  0  0  0  0  0  0  0  0  0  0
   46.2612   12.3381    4.0898 O   0  0  0  0  0  0  0  0  0  0  0  0
   41.0340   13.4128    9.3604 O   0  0  0  0  0  0  0  0  0  0  0  0
   41.8805   12.4296   11.4119 C   0  0  0  0  0  0  0  0  0  0  0  0
   47.9783   11.3084    5.0694 O   0  0  0  0  0  0  0  0  0  0  0  0
   47.1501   14.4883    6.4934 C   0  0  0  0  0  0  0  0  0  0  0  0
   48.1787   12.7990    8.0346 C   0  0  0  0  0  0  0  0  0  0  0  0
   40.5052   12.1669   11.9751 C   0  0  0  0  0  0  0  0  0  0  0  0
   39.9341   13.0542   12.8956 C   0  0  0  0  0  0  0  0  0  0  0  0
   39.7817   11.0292   11.5926 C   0  0  0  0  0  0  0  0  0  0  0  0
   38.6581   12.8139   13.4163 C   0  0  0  0  0  0  0  0  0  0  0  0
   38.5086   10.7883   12.1141 C   0  0  0  0  0  0  0  0  0  0  0  0
   37.9444   11.6822   13.0231 C   0  0  0  0  0  0  0  0  0  0  0  0
   43.3500   12.1559   10.9232 N   0  0  0  0  0  0  0  0  0  0  0  0
   44.1639   13.0846    8.2566 N   0  0  0  0  0  0  0  0  0  0  0  0
   45.6359   13.2861    6.2479 C   0  0  0  0  0  0  0  0  0  0  0  0
   41.0127   11.4750   11.1508 C   0  0  0  0  0  0  0  0  0  0  0  0
   42.3719   11.1240   10.5928 C   0  0  0  0  0  0  0  0  0  0  0  0
   44.2409   13.0808    6.7902 C   0  0  0  0  0  0  0  0  0  0  0  0
   44.6876   11.8773   10.3821 C   0  0  0  0  0  0  0  0  0  0  0  0
   44.8135   11.9045    8.8400 C   0  0  0  0  0  0  0  0  0  0  0  0
   46.1886   12.3689    5.3417 C   0  0  0  0  0  0  0  0  0  0  0  0
   46.3884   14.4126    6.6097 C   0  0  0  0  0  0  0  0  0  0  0  0
   39.9814   11.9097   10.3077 C   0  0  0  0  0  0  0  0  0  0  0  0
   40.7707   11.3902   12.5312 C   0  0  0  0  0  0  0  0  0  0  0  0
   47.4753   12.5651    4.8311 C   0  0  0  0  0  0  0  0  0  0  0  0
   38.7294   12.2361   10.8292 C   0  0  0  0  0  0  0  0  0  0  0  0
   39.5165   11.7161   13.0513 C   0  0  0  0  0  0  0  0  0  0  0  0
   47.6730   14.6079    6.1010 C   0  0  0  0  0  0  0  0  0  0  0  0
   48.2171   13.6816    5.2131 C   0  0  0  0  0  0  0  0  0  0  0  0
   38.4978   12.1405   12.2009 C   0  0  0  0  0  0  0  0  0  0  0  0
   45.1232   13.2641    6.7438 N   0  0  0  0  0  0  0  0  0  0  0  0
   44.4190   13.7481    7.9496 C   0  0  1  0  0  0  0  0  0  0  0  0
   44.1808   12.3171    6.4623 C   0  0  0  0  0  0  0  0  0  0  0  0
   43.2149   12.8688    7.5358 C   0  0  1  0  0  0  0  0  0  0  0  0
   46.5222   12.8588    6.8808 C   0  0  2  0  0  0  0  0  0  0  0  0
   45.4891   13.1814    9.3294 S   0  0  0  0  0  0  0  0  0  0  0  0
   47.0070   13.3310    8.2684 C   0  0  0  0  0  0  0  0  0  0  0  0
   42.7061   11.8696    8.5117 N   0  0  0  0  0  0  0  0  0  0  0  0
   47.4079   13.3584    5.7421 C   0  0  0  0  0  0  0  0  0  0  0  0
   42.0406   12.2639    9.6566 C   0  0  0  0  0  0  0  0  0  0  0  0
   44.2193   11.3403    5.7476 O   0  0  0  0  0  0  0  0  0  0  0  0
   48.6104   13.1598    5.6464 O   0  0  0  0  0  0  0  0  0  0  0  0
   41.8176   13.4436    9.9056 O   0  0  0  0  0  0  0  0  0  0  0  0
   41.6939   11.1228   10.5973 C   0  0  0  0  0  0  0  0  0  0  0  0
   46.7734   14.0702    4.7924 O   0  0  0  0  0  0  0  0  0  0  0  0
   48.0859   12.4127    8.8502 C   0  0  0  0  0  0  0  0  0  0  0  0
   47.4746   14.7908    8.3079 C   0  0  0  0  0  0  0  0  0  0  0  0
   40.2829   11.1676   11.1284 C   0  0  0  0  0  0  0  0  0  0  0  0
   39.2705   10.4029   10.5289 C   0  0  0  0  0  0  0  0  0  0  0  0
   39.9641   11.9606   12.2401 C   0  0  0  0  0  0  0  0  0  0  0  0
   37.9731   10.4123   11.0487 C   0  0  0  0  0  0  0  0  0  0  0  0
   38.6686   11.9703   12.7576 C   0  0  0  0  0  0  0  0  0  0  0  0
   37.6752   11.1923   12.1672 C   0  0  0  0  0  0  0  0  0  0  0  0
   43.7683   12.0857    8.9996 O   0  0  0  0  0  0  0  0  0  0  0  0
   43.7713   12.0863    8.9975 O   0  0  0  0  0  0  0  0  0  0  0  0
   43.7890   12.0920    8.9840 O   0  0  0  0  0  0  0  0  0  0  0  0
   42.9263   12.4144    9.3273 H   0  0  0  0  0  0  0  0  0  0  0  0
   44.0978   12.8066    8.4295 H   0  0  0  0  0  0  0  0  0  0  0  0
   43.9310   14.2219    6.8279 H   0  0  0  0  0  0  0  0  0  0  0  0
   42.1700   12.5494    7.2598 H   0  0  0  0  0  0  0  0  0  0  0  0
   46.4402   11.1047    7.0399 H   0  0  0  0  0  0  0  0  0  0  0  0
   43.6615   11.6539    9.7674 H   0  0  0  0  0  0  0  0  0  0  0  0
   42.5154   11.5674   11.6422 H   0  0  0  0  0  0  0  0  0  0  0  0
   42.3424   13.2977   11.8946 H   0  0  0  0  0  0  0  0  0  0  0  0
   48.1789   11.2618    4.1077 H   0  0  0  0  0  0  0  0  0  0  0  0
   46.2606   14.8201    5.9455 H   0  0  0  0  0  0  0  0  0  0  0  0
   47.9427   14.3141    5.7541 H   0  0  0  0  0  0  0  0  0  0  0  0
   47.4829   15.3205    7.1233 H   0  0  0  0  0  0  0  0  0  0  0  0
   48.0119   11.9460    8.7054 H   0  0  0  0  0  0  0  0  0  0  0  0
   48.6042   13.6212    8.6232 H   0  0  0  0  0  0  0  0  0  0  0  0
   48.9348   12.4931    7.3053 H   0  0  0  0  0  0  0  0  0  0  0  0
   40.4673   13.9517   13.2065 H   0  0  0  0  0  0  0  0  0  0  0  0
   40.1998   10.3266   10.8751 H   0  0  0  0  0  0  0  0  0  0  0  0
   38.2200   13.5129   14.1306 H   0  0  0  0  0  0  0  0  0  0  0  0
   37.9516    9.9089   11.8049 H   0  0  0  0  0  0  0  0  0  0  0  0
   36.9503   11.4968   13.4233 H   0  0  0  0  0  0  0  0  0  0  0  0
   43.0321   13.0604   10.5780 H   0  0  0  0  0  0  0  0  0  0  0  0
   43.1795   13.0735    8.5191 H   0  0  0  0  0  0  0  0  0  0  0  0
   42.2871   10.9816    9.5094 H   0  0  0  0  0  0  0  0  0  0  0  0
   42.6802   10.1591   11.0148 H   0  0  0  0  0  0  0  0  0  0  0  0
   43.8009   12.1578    6.3950 H   0  0  0  0  0  0  0  0  0  0  0  0
   43.6198   13.9025    6.4096 H   0  0  0  0  0  0  0  0  0  0  0  0
   45.0535   10.9135   10.7605 H   0  0  0  0  0  0  0  0  0  0  0  0
   45.3600   12.6391   10.7919 H   0  0  0  0  0  0  0  0  0  0  0  0
   44.3650   10.9895    8.4273 H   0  0  0  0  0  0  0  0  0  0  0  0
   45.8799   11.8860    8.5924 H   0  0  0  0  0  0  0  0  0  0  0  0
   45.6265   11.4903    5.0346 H   0  0  0  0  0  0  0  0  0  0  0  0
   45.9739   15.1352    7.3096 H   0  0  0  0  0  0  0  0  0  0  0  0
   40.1445   11.9945    9.2393 H   0  0  0  0  0  0  0  0  0  0  0  0
   41.5665   11.0706   13.2034 H   0  0  0  0  0  0  0  0  0  0  0  0
   47.8949   11.8445    4.1366 H   0  0  0  0  0  0  0  0  0  0  0  0
   37.9338   12.5709   10.1699 H   0  0  0  0  0  0  0  0  0  0  0  0
   39.3416   11.6473   14.1242 H   0  0  0  0  0  0  0  0  0  0  0  0
   48.2464   15.4846    6.3981 H   0  0  0  0  0  0  0  0  0  0  0  0
   49.2144   13.8388    4.8101 H   0  0  0  0  0  0  0  0  0  0  0  0
   37.5258   12.3942   12.6101 H   0  0  0  0  0  0  0  0  0  0  0  0
   44.2393   14.8265    7.9198 H   0  0  0  0  0  0  0  0  0  0  0  0
   42.3852   13.4283    7.0841 H   0  0  0  0  0  0  0  0  0  0  0  0
   46.5550   11.7620    6.8180 H   0  0  0  0  0  0  0  0  0  0  0  0
   42.9180   10.8887    8.3752 H   0  0  0  0  0  0  0  0  0  0  0  0
   42.4035   11.1552   11.4298 H   0  0  0  0  0  0  0  0  0  0  0  0
   41.8559   10.1589   10.0992 H   0  0  0  0  0  0  0  0  0  0  0  0
   47.4572   14.2665    4.1192 H   0  0  0  0  0  0  0  0  0  0  0  0
   48.9984   12.4448    8.2464 H   0  0  0  0  0  0  0  0  0  0  0  0
   47.7510   11.3685    8.8755 H   0  0  0  0  0  0  0  0  0  0  0  0
   48.3596   12.7118    9.8696 H   0  0  0  0  0  0  0  0  0  0  0  0
   46.7441   15.4743    7.8562 H   0  0  0  0  0  0  0  0  0  0  0  0
   47.6582   15.1303    9.3340 H   0  0  0  0  0  0  0  0  0  0  0  0
   48.4157   14.9192    7.7635 H   0  0  0  0  0  0  0  0  0  0  0  0
   39.4862    9.7824    9.6648 H   0  0  0  0  0  0  0  0  0  0  0  0
   40.7297   12.5754   12.7116 H   0  0  0  0  0  0  0  0  0  0  0  0
   37.1937    9.8099   10.5796 H   0  0  0  0  0  0  0  0  0  0  0  0
   38.4340   12.5857   13.6194 H   0  0  0  0  0  0  0  0  0  0  0  0
   36.6651   11.1928   12.5711 H   0  0  0  0  0  0  0  0  0  0  0  0
   44.1093   12.7911    8.4308 H   0  0  0  0  0  0  0  0  0  0  0  0
   42.9226   12.4312    9.3207 H   0  0  0  0  0  0  0  0  0  0  0  0
   42.9241   12.4245    9.3233 H   0  0  0  0  0  0  0  0  0  0  0  0
   44.1049   12.7972    8.4302 H   0  0  0  0  0  0  0  0  0  0  0  0
   44.0756   12.8326    8.4292 H   0  0  0  0  0  0  0  0  0  0  0  0
   42.9357   12.3835    9.3378 H   0  0  0  0  0  0  0  0  0  0  0  0
  3  2  1  0
  4  2  1  0
  5  3  1  0
  6  2  1  0
  3  7  1  0
  8  6  1  0
  5  9  1  0
  6 10  1  0
 11  9  1  0
 12  4  2  0
 13 10  2  0
 14 11  2  0
 15 11  1  0
 16 10  1  0
 17  8  1  0
 18  8  1  0
 19 15  1  0
 20 19  2  0
 21 19  1  0
 22 20  1  0
 23 21  2  0
 24 23  1  0
  7  8  1  0
  4  5  1  0
 24 22  2  0
 26 32  1  0
 27 30  1  0
 28 29  1  0
 29 25  1  0
 30 26  1  0
 31 25  1  0
 32 31  1  0
 33 27  2  0
 34 27  1  0
 35 28  2  0
 36 28  1  0
 37 33  1  0
 38 35  1  0
 39 36  2  0
 40 34  2  0
 41 37  2  0
 42 39  1  0
 42 38  2  0
 40 41  1  0
 44 43  1  0
 45 43  1  0
 46 44  1  0
 47 43  1  0
 44 48  1  0
 49 47  1  0
 46 50  1  0
 47 51  1  0
 52 50  1  0
 53 45  2  0
 54 51  2  0
 55 52  2  0
 56 52  1  0
 57 51  1  0
 58 49  1  0
 59 49  1  0
 60 56  1  0
 61 60  2  0
 62 60  1  0
 63 61  1  0
 64 62  2  0
 65 64  1  0
 48 49  1  0
 45 46  1  0
 65 63  2  0
  1 69  1  0
  1 70  1  0
  3 71  1  6
  5 72  1  6
  6 73  1  1
  9 74  1  0
 15 75  1  0
 15 76  1  0
 16 77  1  0
 17 78  1  0
 17 79  1  0
 17 80  1  0
 18 81  1  0
 18 82  1  0
 18 83  1  0
 20 84  1  0
 21 85  1  0
 22 86  1  0
 23 87  1  0
 24 88  1  0
 25 89  1  0
 26 90  1  0
 29 91  1  0
 29 92  1  0
 30 93  1  0
 30 94  1  0
 31 95  1  0
 31 96  1  0
 32 97  1  0
 32 98  1  0
 33 99  1  0
 34100  1  0
 35101  1  0
 36102  1  0
 37103  1  0
 38104  1  0
 39105  1  0
 40106  1  0
 41107  1  0
 42108  1  0
 44109  1  1
 46110  1  6
 47111  1  6
 50112  1  0
 56113  1  0
 56114  1  0
 57115  1  0
 58116  1  0
 58117  1  0
 58118  1  0
 59119  1  0
 59120  1  0
 59121  1  0
 61122  1  0
 62123  1  0
 63124  1  0
 64125  1  0
 65126  1  0
 66127  1  0
 66128  1  0
 67129  1  0
 67130  1  0
 68131  1  0
 68132  1  0
M  END
> <Uni-Dock RESULT> 
ENERGY=   -7.340  LOWER_BOUND=    7.787  UPPER_BOUND=    9.835
INTER + INTRA:          -7.340
INTER:                  -7.340
INTRA:                   0.000
UNBOUND:                 0.000

$$$$

     RDKit          3D

132133  0  0  0  0  0  0  0  0999 V2000
   48.8014    9.2372   19.4203 O   0  0  0  0  0  0  0  0  0  0  0  0
   50.4041   11.2703   20.1351 N   0  0  0  0  0  0  0  0  0  0  0  0
   49.9373   10.8804   18.7928 C   0  0  1  0  0  0  0  0  0  0  0  0
   50.4102    9.9834   20.6078 C   0  0  0  0  0  0  0  0  0  0  0  0
   50.1797    9.4043   19.1891 C   0  0  1  0  0  0  0  0  0  0  0  0
   49.6560   12.3016   20.8516 C   0  0  2  0  0  0  0  0  0  0  0  0
   48.2021   11.4943   18.7555 S   0  0  0  0  0  0  0  0  0  0  0  0
   48.6473   12.9240   19.8613 C   0  0  0  0  0  0  0  0  0  0  0  0
   49.0264    8.4732   19.0329 N   0  0  0  0  0  0  0  0  0  0  0  0
   50.6145   13.3131   21.4690 C   0  0  0  0  0  0  0  0  0  0  0  0
   48.9676    7.5844   17.9772 C   0  0  0  0  0  0  0  0  0  0  0  0
   50.4374    9.5665   21.7428 O   0  0  0  0  0  0  0  0  0  0  0  0
   51.7578   13.5576   21.1190 O   0  0  0  0  0  0  0  0  0  0  0  0
   49.8774    7.4779   17.1491 O   0  0  0  0  0  0  0  0  0  0  0  0
   47.6838    6.7780   17.9172 C   0  0  0  0  0  0  0  0  0  0  0  0
   50.0440   14.0155   22.4686 O   0  0  0  0  0  0  0  0  0  0  0  0
   49.2294   14.0359   18.9813 C   0  0  0  0  0  0  0  0  0  0  0  0
   47.3846   13.4199   20.5639 C   0  0  0  0  0  0  0  0  0  0  0  0
   47.8997    5.3324   17.5413 C   0  0  0  0  0  0  0  0  0  0  0  0
   47.3952    4.8298   16.3357 C   0  0  0  0  0  0  0  0  0  0  0  0
   48.6008    4.4692   18.3943 C   0  0  0  0  0  0  0  0  0  0  0  0
   47.5971    3.4909   15.9841 C   0  0  0  0  0  0  0  0  0  0  0  0
   48.8006    3.1319   18.0441 C   0  0  0  0  0  0  0  0  0  0  0  0
   48.3024    2.6429   16.8374 C   0  0  0  0  0  0  0  0  0  0  0  0
   47.3575    8.0386   18.7989 N   0  0  0  0  0  0  0  0  0  0  0  0
   49.2358   10.2986   18.8087 N   0  0  0  0  0  0  0  0  0  0  0  0
   50.2152   12.4643   19.5787 C   0  0  0  0  0  0  0  0  0  0  0  0
   48.3533    5.8222   18.5262 C   0  0  0  0  0  0  0  0  0  0  0  0
   48.1430    6.9965   19.4529 C   0  0  0  0  0  0  0  0  0  0  0  0
   50.4589   11.0370   19.1479 C   0  0  0  0  0  0  0  0  0  0  0  0
   47.1435    9.2185   19.6484 C   0  0  0  0  0  0  0  0  0  0  0  0
   48.4068   10.0431   19.9930 C   0  0  0  0  0  0  0  0  0  0  0  0
   50.7169   12.9333   20.8019 C   0  0  0  0  0  0  0  0  0  0  0  0
   49.5172   13.3550   18.7508 C   0  0  0  0  0  0  0  0  0  0  0  0
   49.6024    5.5886   17.9360 C   0  0  0  0  0  0  0  0  0  0  0  0
   47.2884    4.9577   18.2261 C   0  0  0  0  0  0  0  0  0  0  0  0
   50.5010   14.2575   21.1952 C   0  0  0  0  0  0  0  0  0  0  0  0
   49.7897    4.5047   17.0781 C   0  0  0  0  0  0  0  0  0  0  0  0
   47.4780    3.8726   17.3681 C   0  0  0  0  0  0  0  0  0  0  0  0
   49.3007   14.6764   19.1438 C   0  0  0  0  0  0  0  0  0  0  0  0
   49.7911   15.1264   20.3682 C   0  0  0  0  0  0  0  0  0  0  0  0
   48.7270    3.6479   16.7933 C   0  0  0  0  0  0  0  0  0  0  0  0
   50.0492   11.8246   19.3095 N   0  0  0  0  0  0  0  0  0  0  0  0
   49.3681   10.9173   18.3623 C   0  0  1  0  0  0  0  0  0  0  0  0
   50.7742   10.8232   19.8890 C   0  0  0  0  0  0  0  0  0  0  0  0
   50.3400    9.8010   18.8136 C   0  0  1  0  0  0  0  0  0  0  0  0
   49.2207   12.6851   20.1540 C   0  0  2  0  0  0  0  0  0  0  0  0
   47.6376   10.8773   18.9737 S   0  0  0  0  0  0  0  0  0  0  0  0
   47.7780   12.6179   19.6085 C   0  0  0  0  0  0  0  0  0  0  0  0
   49.7620    8.5338   19.3331 N   0  0  0  0  0  0  0  0  0  0  0  0
   49.7485   14.1138   20.2588 C   0  0  0  0  0  0  0  0  0  0  0  0
   49.1138    7.6476   18.4941 C   0  0  0  0  0  0  0  0  0  0  0  0
   51.3730   10.7767   20.9406 O   0  0  0  0  0  0  0  0  0  0  0  0
   49.2196   15.0150   20.8933 O   0  0  0  0  0  0  0  0  0  0  0  0
   49.0092    7.8504   17.2894 O   0  0  0  0  0  0  0  0  0  0  0  0
   48.4841    6.4641   19.2083 C   0  0  0  0  0  0  0  0  0  0  0  0
   50.8867   14.3554   19.5824 O   0  0  0  0  0  0  0  0  0  0  0  0
   46.7310   12.8079   20.7101 C   0  0  0  0  0  0  0  0  0  0  0  0
   47.5013   13.5746   18.4425 C   0  0  0  0  0  0  0  0  0  0  0  0
   48.7449    5.1338   18.5468 C   0  0  0  0  0  0  0  0  0  0  0  0
   49.7787    4.3013   19.0022 C   0  0  0  0  0  0  0  0  0  0  0  0
   47.9477    4.7006   17.4778 C   0  0  0  0  0  0  0  0  0  0  0  0
   49.9915    3.0504   18.4162 C   0  0  0  0  0  0  0  0  0  0  0  0
   48.1615    3.4523   16.8927 C   0  0  0  0  0  0  0  0  0  0  0  0
   49.1777    2.6247   17.3650 C   0  0  0  0  0  0  0  0  0  0  0  0
   48.8008    9.2280   19.4176 O   0  0  0  0  0  0  0  0  0  0  0  0
   48.8010    9.2315   19.4185 O   0  0  0  0  0  0  0  0  0  0  0  0
   48.8036    9.2540   19.4226 O   0  0  0  0  0  0  0  0  0  0  0  0
   48.9461    8.5552   18.7462 H   0  0  0  0  0  0  0  0  0  0  0  0
   49.1215   10.0507   19.0011 H   0  0  0  0  0  0  0  0  0  0  0  0
   50.5805   11.2538   17.9913 H   0  0  0  0  0  0  0  0  0  0  0  0
   51.1103    8.9790   18.7847 H   0  0  0  0  0  0  0  0  0  0  0  0
   49.1311   11.8149   21.6848 H   0  0  0  0  0  0  0  0  0  0  0  0
   48.1955    8.6082   19.6102 H   0  0  0  0  0  0  0  0  0  0  0  0
   47.1652    6.8074   18.8815 H   0  0  0  0  0  0  0  0  0  0  0  0
   47.0305    7.2776   17.1937 H   0  0  0  0  0  0  0  0  0  0  0  0
   50.7698   14.5986   22.7853 H   0  0  0  0  0  0  0  0  0  0  0  0
   50.1526   13.7332   18.4738 H   0  0  0  0  0  0  0  0  0  0  0  0
   49.4630   14.9253   19.5809 H   0  0  0  0  0  0  0  0  0  0  0  0
   48.5151   14.3514   18.2129 H   0  0  0  0  0  0  0  0  0  0  0  0
   46.8949   12.6224   21.1379 H   0  0  0  0  0  0  0  0  0  0  0  0
   46.6588   13.8228   19.8467 H   0  0  0  0  0  0  0  0  0  0  0  0
   47.6287   14.2211   21.2679 H   0  0  0  0  0  0  0  0  0  0  0  0
   46.8533    5.4771   15.6472 H   0  0  0  0  0  0  0  0  0  0  0  0
   49.0079    4.8351   19.3342 H   0  0  0  0  0  0  0  0  0  0  0  0
   47.2029    3.1092   15.0408 H   0  0  0  0  0  0  0  0  0  0  0  0
   49.3531    2.4728   18.7071 H   0  0  0  0  0  0  0  0  0  0  0  0
   48.4644    1.6031   16.5630 H   0  0  0  0  0  0  0  0  0  0  0  0
   47.8136    8.3278   17.9348 H   0  0  0  0  0  0  0  0  0  0  0  0
   49.5109    9.4030   18.4084 H   0  0  0  0  0  0  0  0  0  0  0  0
   49.1192    7.3730   19.7791 H   0  0  0  0  0  0  0  0  0  0  0  0
   47.6260    6.6389   20.3523 H   0  0  0  0  0  0  0  0  0  0  0  0
   51.0260   10.4910   19.9108 H   0  0  0  0  0  0  0  0  0  0  0  0
   51.1000   11.0712   18.2570 H   0  0  0  0  0  0  0  0  0  0  0  0
   46.6347    8.9266   20.5768 H   0  0  0  0  0  0  0  0  0  0  0  0
   46.4461    9.8721   19.1128 H   0  0  0  0  0  0  0  0  0  0  0  0
   48.9932    9.5018   20.7491 H   0  0  0  0  0  0  0  0  0  0  0  0
   48.0773   10.9836   20.4467 H   0  0  0  0  0  0  0  0  0  0  0  0
   51.2701   12.2696   21.4619 H   0  0  0  0  0  0  0  0  0  0  0  0
   49.1233   13.0084   17.7976 H   0  0  0  0  0  0  0  0  0  0  0  0
   50.4389    6.2467   18.1422 H   0  0  0  0  0  0  0  0  0  0  0  0
   46.3058    5.1346   18.6625 H   0  0  0  0  0  0  0  0  0  0  0  0
   50.8876   14.6066   22.1472 H   0  0  0  0  0  0  0  0  0  0  0  0
   50.7610    4.3283   16.6252 H   0  0  0  0  0  0  0  0  0  0  0  0
   46.6436    3.2098   17.1422 H   0  0  0  0  0  0  0  0  0  0  0  0
   48.7503   15.3528   18.4916 H   0  0  0  0  0  0  0  0  0  0  0  0
   49.6299   16.1583   20.6700 H   0  0  0  0  0  0  0  0  0  0  0  0
   48.8687    2.8045   16.1261 H   0  0  0  0  0  0  0  0  0  0  0  0
   49.4817   11.2410   17.3239 H   0  0  0  0  0  0  0  0  0  0  0  0
   51.1493    9.5956   18.1006 H   0  0  0  0  0  0  0  0  0  0  0  0
   49.2616   12.2819   21.1755 H   0  0  0  0  0  0  0  0  0  0  0  0
   49.7748    8.3531   20.3294 H   0  0  0  0  0  0  0  0  0  0  0  0
   47.4063    6.6462   19.2602 H   0  0  0  0  0  0  0  0  0  0  0  0
   48.8336    6.4191   20.2472 H   0  0  0  0  0  0  0  0  0  0  0  0
   51.1176   15.2839   19.7922 H   0  0  0  0  0  0  0  0  0  0  0  0
   46.7864   13.8144   21.1371 H   0  0  0  0  0  0  0  0  0  0  0  0
   46.8831   12.0984   21.5327 H   0  0  0  0  0  0  0  0  0  0  0  0
   45.7133   12.6742   20.3231 H   0  0  0  0  0  0  0  0  0  0  0  0
   48.2597   13.4985   17.6527 H   0  0  0  0  0  0  0  0  0  0  0  0
   46.5236   13.3842   17.9848 H   0  0  0  0  0  0  0  0  0  0  0  0
   47.4906   14.6161   18.7799 H   0  0  0  0  0  0  0  0  0  0  0  0
   50.4147    4.6113   19.8253 H   0  0  0  0  0  0  0  0  0  0  0  0
   47.1502    5.3370   17.0965 H   0  0  0  0  0  0  0  0  0  0  0  0
   50.7938    2.4072   18.7808 H   0  0  0  0  0  0  0  0  0  0  0  0
   47.5370    3.1263   16.0679 H   0  0  0  0  0  0  0  0  0  0  0  0
   49.3441    1.6483   16.9152 H   0  0  0  0  0  0  0  0  0  0  0  0
   49.1146   10.0527   19.0191 H   0  0  0  0  0  0  0  0  0  0  0  0
   48.9536    8.5624   18.7309 H   0  0  0  0  0  0  0  0  0  0  0  0
   48.9506    8.5596   18.7370 H   0  0  0  0  0  0  0  0  0  0  0  0
   49.1173   10.0520   19.0121 H   0  0  0  0  0  0  0  0  0  0  0  0
   49.1330   10.0444   18.9696 H   0  0  0  0  0  0  0  0  0  0  0  0
   48.9324    8.5448   18.7755 H   0  0  0  0  0  0  0  0  0  0  0  0
  3  2  1  0
  4  2  1  0
  5  3  1  0
  6  2  1  0
  3  7  1  0
  8  6  1  0
  5  9  1  0
  6 10  1  0
 11  9  1  0
 12  4  2  0
 13 10  2  0
 14 11  2  0
 15 11  1  0
 16 10  1  0
 17  8  1  0
 18  8  1  0
 19 15  1  0
 20 19  2  0
 21 19  1  0
 22 20  1  0
 23 21  2  0
 24 23  1  0
  7  8  1  0
  4  5  1  0
 24 22  2  0
 26 32  1  0
 27 30  1  0
 28 29  1  0
 29 25  1  0
 30 26  1  0
 31 25  1  0
 32 31  1  0
 33 27  2  0
 34 27  1  0
 35 28  2  0
 36 28  1  0
 37 33  1  0
 38 35  1  0
 39 36  2  0
 40 34  2  0
 41 37  2  0
 42 39  1  0
 42 38  2  0
 40 41  1  0
 44 43  1  0
 45 43  1  0
 46 44  1  0
 47 43  1  0
 44 48  1  0
 49 47  1  0
 46 50  1  0
 47 51  1  0
 52 50  1  0
 53 45  2  0
 54 51  2  0
 55 52  2  0
 56 52  1  0
 57 51  1  0
 58 49  1  0
 59 49  1  0
 60 56  1  0
 61 60  2  0
 62 60  1  0
 63 61  1  0
 64 62  2  0
 65 64  1  0
 48 49  1  0
 45 46  1  0
 65 63  2  0
  1 69  1  0
  1 70  1  0
  3 71  1  6
  5 72  1  6
  6 73  1  1
  9 74  1  0
 15 75  1  0
 15 76  1  0
 16 77  1  0
 17 78  1  0
 17 79  1  0
 17 80  1  0
 18 81  1  0
 18 82  1  0
 18 83  1  0
 20 84  1  0
 21 85  1  0
 22 86  1  0
 23 87  1  0
 24 88  1  0
 25 89  1  0
 26 90  1  0
 29 91  1  0
 29 92  1  0
 30 93  1  0
 30 94  1  0
 31 95  1  0
 31 96  1  0
 32 97  1  0
 32 98  1  0
 33 99  1  0
 34100  1  0
 35101  1  0
 36102  1  0
 37103  1  0
 38104  1  0
 39105  1  0
 40106  1  0
 41107  1  0
 42108  1  0
 44109  1  1
 46110  1  6
 47111  1  6
 50112  1  0
 56113  1  0
 56114  1  0
 57115  1  0
 58116  1  0
 58117  1  0
 58118  1  0
 59119  1  0
 59120  1  0
 59121  1  0
 61122  1  0
 62123  1  0
 63124  1  0
 64125  1  0
 65126  1  0
 66127  1  0
 66128  1  0
 67129  1  0
 67130  1  0
 68131  1  0
 68132  1  0
M  END
> <Uni-Dock RESULT> 
ENERGY=   -6.955  LOWER_BOUND=    4.606  UPPER_BOUND=    6.461
INTER + INTRA:          -6.955
INTER:                  -6.955
INTRA:                   0.000
UNBOUND:                 0.000

$$$$

     RDKit          3D

132133  0  0  0  0  0  0  0  0999 V2000
   48.3234    8.6414   13.0502 O   0  0  0  0  0  0  0  0  0  0  0  0
   49.6295   10.8978   12.4054 N   0  0  0  0  0  0  0  0  0  0  0  0
   48.3274   10.7351   13.0760 C   0  0  1  0  0  0  0  0  0  0  0  0
   49.4895    9.7590   11.6550 C   0  0  0  0  0  0  0  0  0  0  0  0
   48.0053    9.6023   12.0720 C   0  0  1  0  0  0  0  0  0  0  0  0
   50.8164   11.0740   13.2400 C   0  0  2  0  0  0  0  0  0  0  0  0
   48.7940   10.2645   14.7935 S   0  0  0  0  0  0  0  0  0  0  0  0
   50.3410   11.2950   14.6928 C   0  0  0  0  0  0  0  0  0  0  0  0
   47.6159    8.2862   12.6531 N   0  0  0  0  0  0  0  0  0  0  0  0
   51.6777   12.2080   12.6964 C   0  0  0  0  0  0  0  0  0  0  0  0
   46.2971    7.8755   12.6635 C   0  0  0  0  0  0  0  0  0  0  0  0
   50.3150    9.1122   11.0524 O   0  0  0  0  0  0  0  0  0  0  0  0
   51.3192   13.1344   11.9876 O   0  0  0  0  0  0  0  0  0  0  0  0
   45.3914    8.5417   12.1529 O   0  0  0  0  0  0  0  0  0  0  0  0
   46.0649    6.5557   13.3751 C   0  0  0  0  0  0  0  0  0  0  0  0
   52.9499   12.1422   13.1385 O   0  0  0  0  0  0  0  0  0  0  0  0
   49.9632   12.7439   15.0208 C   0  0  0  0  0  0  0  0  0  0  0  0
   51.3516   10.7740   15.7131 C   0  0  0  0  0  0  0  0  0  0  0  0
   45.0723    5.6615   12.6732 C   0  0  0  0  0  0  0  0  0  0  0  0
   43.8479    5.3495   13.2767 C   0  0  0  0  0  0  0  0  0  0  0  0
   45.3621    5.1238   11.4118 C   0  0  0  0  0  0  0  0  0  0  0  0
   42.9252    4.5234   12.6262 C   0  0  0  0  0  0  0  0  0  0  0  0
   44.4416    4.2973   10.7633 C   0  0  0  0  0  0  0  0  0  0  0  0
   43.2212    3.9998   11.3681 C   0  0  0  0  0  0  0  0  0  0  0  0
   47.4422    7.0946   13.9096 N   0  0  0  0  0  0  0  0  0  0  0  0
   48.1825    9.8895   13.3842 N   0  0  0  0  0  0  0  0  0  0  0  0
   49.6790   11.8881   13.2929 C   0  0  0  0  0  0  0  0  0  0  0  0
   46.1014    6.0009   12.1820 C   0  0  0  0  0  0  0  0  0  0  0  0
   47.4657    6.5234   12.5665 C   0  0  0  0  0  0  0  0  0  0  0  0
   48.6417   11.0399   12.5954 C   0  0  0  0  0  0  0  0  0  0  0  0
   48.7407    7.6423   14.3263 C   0  0  0  0  0  0  0  0  0  0  0  0
   49.2368    8.8804   13.5417 C   0  0  0  0  0  0  0  0  0  0  0  0
   50.9048   12.1672   12.6705 C   0  0  0  0  0  0  0  0  0  0  0  0
   49.4231   12.4415   14.5556 C   0  0  0  0  0  0  0  0  0  0  0  0
   45.3068    6.6851   11.2527 C   0  0  0  0  0  0  0  0  0  0  0  0
   45.6009    4.8284   12.7701 C   0  0  0  0  0  0  0  0  0  0  0  0
   51.8602   12.9617   13.3115 C   0  0  0  0  0  0  0  0  0  0  0  0
   44.0462    6.1999   10.9043 C   0  0  0  0  0  0  0  0  0  0  0  0
   44.3394    4.3434   12.4193 C   0  0  0  0  0  0  0  0  0  0  0  0
   50.3770   13.2336   15.1959 C   0  0  0  0  0  0  0  0  0  0  0  0
   51.5972   13.4912   14.5738 C   0  0  0  0  0  0  0  0  0  0  0  0
   43.5624    5.0299   11.4888 C   0  0  0  0  0  0  0  0  0  0  0  0
   49.1833   11.3784   13.2329 N   0  0  0  0  0  0  0  0  0  0  0  0
   48.0365   10.5770   13.7092 C   0  0  1  0  0  0  0  0  0  0  0  0
   49.1661   10.8275   11.9837 C   0  0  0  0  0  0  0  0  0  0  0  0
   47.8222   10.1113   12.2493 C   0  0  1  0  0  0  0  0  0  0  0  0
   50.4207   11.3392   14.0122 C   0  0  2  0  0  0  0  0  0  0  0  0
   48.7956    9.4073   14.9033 S   0  0  0  0  0  0  0  0  0  0  0  0
   50.0993   10.6512   15.3564 C   0  0  0  0  0  0  0  0  0  0  0  0
   47.8108    8.6509   11.9720 N   0  0  0  0  0  0  0  0  0  0  0  0
   51.0648   12.7120   14.1884 C   0  0  0  0  0  0  0  0  0  0  0  0
   46.7652    7.8519   12.3935 C   0  0  0  0  0  0  0  0  0  0  0  0
   50.0019   10.8099   11.1074 O   0  0  0  0  0  0  0  0  0  0  0  0
   52.0928   12.9325   14.8121 O   0  0  0  0  0  0  0  0  0  0  0  0
   45.7949    8.3100   12.9870 O   0  0  0  0  0  0  0  0  0  0  0  0
   46.9705    6.3702   12.1295 C   0  0  0  0  0  0  0  0  0  0  0  0
   50.4151   13.7304   13.5951 O   0  0  0  0  0  0  0  0  0  0  0  0
   51.3032    9.8928   15.9232 C   0  0  0  0  0  0  0  0  0  0  0  0
   49.5145   11.5894   16.4191 C   0  0  0  0  0  0  0  0  0  0  0  0
   45.7677    5.6755   11.5414 C   0  0  0  0  0  0  0  0  0  0  0  0
   45.6723    5.4638   10.1575 C   0  0  0  0  0  0  0  0  0  0  0  0
   44.7344    5.2151   12.3698 C   0  0  0  0  0  0  0  0  0  0  0  0
   44.5777    4.7818    9.6187 C   0  0  0  0  0  0  0  0  0  0  0  0
   43.6416    4.5354   11.8311 C   0  0  0  0  0  0  0  0  0  0  0  0
   43.5657    4.3128   10.4580 C   0  0  0  0  0  0  0  0  0  0  0  0
   48.3170    8.6347   13.0474 O   0  0  0  0  0  0  0  0  0  0  0  0
   48.3194    8.6372   13.0484 O   0  0  0  0  0  0  0  0  0  0  0  0
   48.3324    8.6549   13.0551 O   0  0  0  0  0  0  0  0  0  0  0  0
   47.4070    8.3908   12.8552 H   0  0  0  0  0  0  0  0  0  0  0  0
   48.2612    9.5762   13.2996 H   0  0  0  0  0  0  0  0  0  0  0  0
   47.6900   11.6195   12.9925 H   0  0  0  0  0  0  0  0  0  0  0  0
   47.3354    9.9059   11.2539 H   0  0  0  0  0  0  0  0  0  0  0  0
   51.4169   10.1573   13.1640 H   0  0  0  0  0  0  0  0  0  0  0  0
   48.3000    7.7603   13.1983 H   0  0  0  0  0  0  0  0  0  0  0  0
   47.0058    6.0053   13.4822 H   0  0  0  0  0  0  0  0  0  0  0  0
   45.7259    6.7984   14.3881 H   0  0  0  0  0  0  0  0  0  0  0  0
   53.3882   12.9034   12.6961 H   0  0  0  0  0  0  0  0  0  0  0  0
   49.2558   13.1696   14.2997 H   0  0  0  0  0  0  0  0  0  0  0  0
   50.8527   13.3872   15.0242 H   0  0  0  0  0  0  0  0  0  0  0  0
   49.5122   12.8228   16.0160 H   0  0  0  0  0  0  0  0  0  0  0  0
   51.5814    9.7119   15.5569 H   0  0  0  0  0  0  0  0  0  0  0  0
   50.9858   10.8995   16.7397 H   0  0  0  0  0  0  0  0  0  0  0  0
   52.2943   11.3235   15.6320 H   0  0  0  0  0  0  0  0  0  0  0  0
   43.5893    5.7584   14.2527 H   0  0  0  0  0  0  0  0  0  0  0  0
   46.3036    5.3545   10.9183 H   0  0  0  0  0  0  0  0  0  0  0  0
   41.9722    4.2886   13.1031 H   0  0  0  0  0  0  0  0  0  0  0  0
   44.6709    3.8927    9.7820 H   0  0  0  0  0  0  0  0  0  0  0  0
   42.5028    3.3614   10.8591 H   0  0  0  0  0  0  0  0  0  0  0  0
   46.7376    7.8287   13.9635 H   0  0  0  0  0  0  0  0  0  0  0  0
   47.3994    9.4634   12.8908 H   0  0  0  0  0  0  0  0  0  0  0  0
   47.7890    7.2594   11.8215 H   0  0  0  0  0  0  0  0  0  0  0  0
   48.1802    5.6919   12.5196 H   0  0  0  0  0  0  0  0  0  0  0  0
   49.0072   10.7017   11.6188 H   0  0  0  0  0  0  0  0  0  0  0  0
   47.7774   11.6856   12.3911 H   0  0  0  0  0  0  0  0  0  0  0  0
   49.5085    6.8578   14.2924 H   0  0  0  0  0  0  0  0  0  0  0  0
   48.6418    7.9245   15.3804 H   0  0  0  0  0  0  0  0  0  0  0  0
   49.5959    8.5586   12.5537 H   0  0  0  0  0  0  0  0  0  0  0  0
   50.0942    9.2954   14.0816 H   0  0  0  0  0  0  0  0  0  0  0  0
   51.1294   11.7603   11.6876 H   0  0  0  0  0  0  0  0  0  0  0  0
   48.4764   12.2371   15.0516 H   0  0  0  0  0  0  0  0  0  0  0  0
   45.6645    7.5987   10.7915 H   0  0  0  0  0  0  0  0  0  0  0  0
   46.1983    4.2930   13.5076 H   0  0  0  0  0  0  0  0  0  0  0  0
   52.8078   13.1643   12.8230 H   0  0  0  0  0  0  0  0  0  0  0  0
   43.4359    6.7342   10.1820 H   0  0  0  0  0  0  0  0  0  0  0  0
   43.9618    3.4333   12.8835 H   0  0  0  0  0  0  0  0  0  0  0  0
   50.1645   13.6496   16.1795 H   0  0  0  0  0  0  0  0  0  0  0  0
   52.3364   14.1157   15.0691 H   0  0  0  0  0  0  0  0  0  0  0  0
   42.5823    4.6500   11.2209 H   0  0  0  0  0  0  0  0  0  0  0  0
   47.2376   11.2003   14.1206 H   0  0  0  0  0  0  0  0  0  0  0  0
   46.9895   10.6107   11.7368 H   0  0  0  0  0  0  0  0  0  0  0  0
   51.1492   10.7444   13.4437 H   0  0  0  0  0  0  0  0  0  0  0  0
   48.6175    8.2213   11.5359 H   0  0  0  0  0  0  0  0  0  0  0  0
   47.2405    5.9007   13.0803 H   0  0  0  0  0  0  0  0  0  0  0  0
   47.8290    6.2198   11.4633 H   0  0  0  0  0  0  0  0  0  0  0  0
   50.9750   14.5185   13.7529 H   0  0  0  0  0  0  0  0  0  0  0  0
   52.1138   10.5800   16.1858 H   0  0  0  0  0  0  0  0  0  0  0  0
   51.7065    9.1802   15.1934 H   0  0  0  0  0  0  0  0  0  0  0  0
   51.0369    9.3410   16.8332 H   0  0  0  0  0  0  0  0  0  0  0  0
   48.6765   12.1842   16.0335 H   0  0  0  0  0  0  0  0  0  0  0  0
   49.1554   11.0365   17.2949 H   0  0  0  0  0  0  0  0  0  0  0  0
   50.2695   12.2939   16.7827 H   0  0  0  0  0  0  0  0  0  0  0  0
   46.4547    5.8122    9.4907 H   0  0  0  0  0  0  0  0  0  0  0  0
   44.7788    5.3828   13.4451 H   0  0  0  0  0  0  0  0  0  0  0  0
   44.5148    4.6164    8.5421 H   0  0  0  0  0  0  0  0  0  0  0  0
   42.8492    4.1815   12.4817 H   0  0  0  0  0  0  0  0  0  0  0  0
   42.7181    3.7784   10.0346 H   0  0  0  0  0  0  0  0  0  0  0  0
   48.2790    9.5686   13.3000 H   0  0  0  0  0  0  0  0  0  0  0  0
   47.3956    8.4051   12.8575 H   0  0  0  0  0  0  0  0  0  0  0  0
   47.4002    8.3995   12.8566 H   0  0  0  0  0  0  0  0  0  0  0  0
   48.2721    9.5716   13.2998 H   0  0  0  0  0  0  0  0  0  0  0  0
   48.2288    9.5870   13.2981 H   0  0  0  0  0  0  0  0  0  0  0  0
   47.4304    8.3664   12.8516 H   0  0  0  0  0  0  0  0  0  0  0  0
  3  2  1  0
  4  2  1  0
  5  3  1  0
  6  2  1  0
  3  7  1  0
  8  6  1  0
  5  9  1  0
  6 10  1  0
 11  9  1  0
 12  4  2  0
 13 10  2  0
 14 11  2  0
 15 11  1  0
 16 10  1  0
 17  8  1  0
 18  8  1  0
 19 15  1  0
 20 19  2  0
 21 19  1  0
 22 20  1  0
 23 21  2  0
 24 23  1  0
  7  8  1  0
  4  5  1  0
 24 22  2  0
 26 32  1  0
 27 30  1  0
 28 29  1  0
 29 25  1  0
 30 26  1  0
 31 25  1  0
 32 31  1  0
 33 27  2  0
 34 27  1  0
 35 28  2  0
 36 28  1  0
 37 33  1  0
 38 35  1  0
 39 36  2  0
 40 34  2  0
 41 37  2  0
 42 39  1  0
 42 38  2  0
 40 41  1  0
 44 43  1  0
 45 43  1  0
 46 44  1  0
 47 43  1  0
 44 48  1  0
 49 47  1  0
 46 50  1  0
 47 51  1  0
 52 50  1  0
 53 45  2  0
 54 51  2  0
 55 52  2  0
 56 52  1  0
 57 51  1  0
 58 49  1  0
 59 49  1  0
 60 56  1  0
 61 60  2  0
 62 60  1  0
 63 61  1  0
 64 62  2  0
 65 64  1  0
 48 49  1  0
 45 46  1  0
 65 63  2  0
  1 69  1  0
  1 70  1  0
  3 71  1  6
  5 72  1  6
  6 73  1  1
  9 74  1  0
 15 75  1  0
 15 76  1  0
 16 77  1  0
 17 78  1  0
 17 79  1  0
 17 80  1  0
 18 81  1  0
 18 82  1  0
 18 83  1  0
 20 84  1  0
 21 85  1  0
 22 86  1  0
 23 87  1  0
 24 88  1  0
 25 89  1  0
 26 90  1  0
 29 91  1  0
 29 92  1  0
 30 93  1  0
 30 94  1  0
 31 95  1  0
 31 96  1  0
 32 97  1  0
 32 98  1  0
 33 99  1  0
 34100  1  0
 35101  1  0
 36102  1  0
 37103  1  0
 38104  1  0
 39105  1  0
 40106  1  0
 41107  1  0
 42108  1  0
 44109  1  1
 46110  1  6
 47111  1  6
 50112  1  0
 56113  1  0
 56114  1  0
 57115  1  0
 58116  1  0
 58117  1  0
 58118  1  0
 59119  1  0
 59120  1  0
 59121  1  0
 61122  1  0
 62123  1  0
 63124  1  0
 64125  1  0
 65126  1  0
 66127  1  0
 66128  1  0
 67129  1  0
 67130  1  0
 68131  1  0
 68132  1  0
M  END
> <Uni-Dock RESULT> 
ENERGY=   -6.904  LOWER_BOUND=    1.772  UPPER_BOUND=    3.383
INTER + INTRA:          -6.904
INTER:                  -6.904
INTRA:                   0.000
UNBOUND:                 0.000

$$$$

     RDKit          3D

132133  0  0  0  0  0  0  0  0999 V2000
   49.4895    8.1312   17.0687 O   0  0  0  0  0  0  0  0  0  0  0  0
   51.0957    8.1125   14.9163 N   0  0  0  0  0  0  0  0  0  0  0  0
   50.0451    7.1539   15.3022 C   0  0  1  0  0  0  0  0  0  0  0  0
   51.4236    8.4164   16.2124 C   0  0  0  0  0  0  0  0  0  0  0  0
   50.5508    7.2594   16.7610 C   0  0  1  0  0  0  0  0  0  0  0  0
   50.7421    9.1848   13.9881 C   0  0  2  0  0  0  0  0  0  0  0  0
   48.4895    8.0327   14.8583 S   0  0  0  0  0  0  0  0  0  0  0  0
   49.3340    8.8797   13.4319 C   0  0  0  0  0  0  0  0  0  0  0  0
   49.5396    7.6243   17.7932 N   0  0  0  0  0  0  0  0  0  0  0  0
   51.8117    9.3217   12.9109 C   0  0  0  0  0  0  0  0  0  0  0  0
   49.0177    6.6712   18.6460 C   0  0  0  0  0  0  0  0  0  0  0  0
   52.0445    9.3508   16.6643 O   0  0  0  0  0  0  0  0  0  0  0  0
   52.6056    8.4702   12.5448 O   0  0  0  0  0  0  0  0  0  0  0  0
   49.3934    5.4950   18.6348 O   0  0  0  0  0  0  0  0  0  0  0  0
   47.9339    7.1939   19.5703 C   0  0  0  0  0  0  0  0  0  0  0  0
   51.7751   10.5245   12.3026 O   0  0  0  0  0  0  0  0  0  0  0  0
   49.3205    7.9175   12.2387 C   0  0  0  0  0  0  0  0  0  0  0  0
   48.5651   10.1535   13.0856 C   0  0  0  0  0  0  0  0  0  0  0  0
   48.0270    6.6477   20.9741 C   0  0  0  0  0  0  0  0  0  0  0  0
   47.0199    5.8171   21.4805 C   0  0  0  0  0  0  0  0  0  0  0  0
   49.1170    6.9682   21.7948 C   0  0  0  0  0  0  0  0  0  0  0  0
   47.1061    5.3073   22.7804 C   0  0  0  0  0  0  0  0  0  0  0  0
   49.2020    6.4609   23.0933 C   0  0  0  0  0  0  0  0  0  0  0  0
   48.1988    5.6271   23.5856 C   0  0  0  0  0  0  0  0  0  0  0  0
   48.0118    8.2174   18.3789 N   0  0  0  0  0  0  0  0  0  0  0  0
   49.4867    7.4705   15.9494 N   0  0  0  0  0  0  0  0  0  0  0  0
   50.5745    7.8198   13.7275 C   0  0  0  0  0  0  0  0  0  0  0  0
   48.8802    7.3120   20.4776 C   0  0  0  0  0  0  0  0  0  0  0  0
   49.0864    8.3098   19.3623 C   0  0  0  0  0  0  0  0  0  0  0  0
   50.6628    7.2138   15.1085 C   0  0  0  0  0  0  0  0  0  0  0  0
   48.1756    9.1509   17.2558 C   0  0  0  0  0  0  0  0  0  0  0  0
   49.3834    8.8857   16.3254 C   0  0  0  0  0  0  0  0  0  0  0  0
   51.5902    8.6644   13.2553 C   0  0  0  0  0  0  0  0  0  0  0  0
   49.4979    7.5216   12.8800 C   0  0  0  0  0  0  0  0  0  0  0  0
   49.6765    6.1626   20.5683 C   0  0  0  0  0  0  0  0  0  0  0  0
   47.8685    7.5138   21.4300 C   0  0  0  0  0  0  0  0  0  0  0  0
   51.5139    9.2161   11.9729 C   0  0  0  0  0  0  0  0  0  0  0  0
   49.4789    5.2427   21.5982 C   0  0  0  0  0  0  0  0  0  0  0  0
   47.6730    6.5925   22.4609 C   0  0  0  0  0  0  0  0  0  0  0  0
   49.4211    8.0731   11.6004 C   0  0  0  0  0  0  0  0  0  0  0  0
   50.4290    8.9228   11.1483 C   0  0  0  0  0  0  0  0  0  0  0  0
   48.4763    5.4573   22.5433 C   0  0  0  0  0  0  0  0  0  0  0  0
   50.3386    7.6193   14.3704 N   0  0  0  0  0  0  0  0  0  0  0  0
   49.3358    7.0678   15.3055 C   0  0  1  0  0  0  0  0  0  0  0  0
   51.3209    7.6806   15.3166 C   0  0  0  0  0  0  0  0  0  0  0  0
   50.4742    6.8866   16.3377 C   0  0  1  0  0  0  0  0  0  0  0  0
   49.9912    8.8287   13.6243 C   0  0  2  0  0  0  0  0  0  0  0  0
   48.1532    8.4532   15.5343 S   0  0  0  0  0  0  0  0  0  0  0  0
   48.4777    9.0692   13.8116 C   0  0  0  0  0  0  0  0  0  0  0  0
   50.3205    7.5228   17.6723 N   0  0  0  0  0  0  0  0  0  0  0  0
   50.4043    8.7696   12.1558 C   0  0  0  0  0  0  0  0  0  0  0  0
   49.3991    7.0502   18.5871 C   0  0  0  0  0  0  0  0  0  0  0  0
   52.3683    8.2880   15.3419 O   0  0  0  0  0  0  0  0  0  0  0  0
   50.2072    9.6518   11.3329 O   0  0  0  0  0  0  0  0  0  0  0  0
   48.6905    6.0772   18.3532 O   0  0  0  0  0  0  0  0  0  0  0  0
   49.2930    7.8870   19.8504 C   0  0  0  0  0  0  0  0  0  0  0  0
   51.0302    7.6384   11.7815 O   0  0  0  0  0  0  0  0  0  0  0  0
   48.1155   10.5565   13.7627 C   0  0  0  0  0  0  0  0  0  0  0  0
   47.5904    8.2746   12.8459 C   0  0  0  0  0  0  0  0  0  0  0  0
   49.2738    7.0808   21.1251 C   0  0  0  0  0  0  0  0  0  0  0  0
   50.4489    6.8948   21.8691 C   0  0  0  0  0  0  0  0  0  0  0  0
   48.0783    6.5191   21.5957 C   0  0  0  0  0  0  0  0  0  0  0  0
   50.4210    6.1840   23.0722 C   0  0  0  0  0  0  0  0  0  0  0  0
   48.0515    5.8089   22.7961 C   0  0  0  0  0  0  0  0  0  0  0  0
   49.2197    5.6466   23.5375 C   0  0  0  0  0  0  0  0  0  0  0  0
   49.4882    8.1284   17.0778 O   0  0  0  0  0  0  0  0  0  0  0  0
   49.4886    8.1294   17.0744 O   0  0  0  0  0  0  0  0  0  0  0  0
   49.4914    8.1334   17.0519 O   0  0  0  0  0  0  0  0  0  0  0  0
   49.3209    7.4230   17.7094 H   0  0  0  0  0  0  0  0  0  0  0  0
   49.5012    7.6740   16.2138 H   0  0  0  0  0  0  0  0  0  0  0  0
   50.1726    6.1711   14.8405 H   0  0  0  0  0  0  0  0  0  0  0  0
   51.1783    6.4139   17.0798 H   0  0  0  0  0  0  0  0  0  0  0  0
   50.7401   10.1274   14.5523 H   0  0  0  0  0  0  0  0  0  0  0  0
   49.1040    8.5468   17.7596 H   0  0  0  0  0  0  0  0  0  0  0  0
   47.9689    8.2872   19.6251 H   0  0  0  0  0  0  0  0  0  0  0  0
   46.9742    6.9329   19.1111 H   0  0  0  0  0  0  0  0  0  0  0  0
   52.5214   10.4833   11.6634 H   0  0  0  0  0  0  0  0  0  0  0  0
   49.8818    6.9962   12.4325 H   0  0  0  0  0  0  0  0  0  0  0  0
   49.7641    8.3897   11.3525 H   0  0  0  0  0  0  0  0  0  0  0  0
   48.2979    7.6335   11.9670 H   0  0  0  0  0  0  0  0  0  0  0  0
   48.4838   10.8301   13.9464 H   0  0  0  0  0  0  0  0  0  0  0  0
   47.5525    9.9264   12.7298 H   0  0  0  0  0  0  0  0  0  0  0  0
   49.0760   10.7037   12.2897 H   0  0  0  0  0  0  0  0  0  0  0  0
   46.1642    5.5426   20.8649 H   0  0  0  0  0  0  0  0  0  0  0  0
   49.9157    7.6069   21.4244 H   0  0  0  0  0  0  0  0  0  0  0  0
   46.3179    4.6581   23.1651 H   0  0  0  0  0  0  0  0  0  0  0  0
   50.0548    6.7071   23.7188 H   0  0  0  0  0  0  0  0  0  0  0  0
   48.2696    5.2276   24.5946 H   0  0  0  0  0  0  0  0  0  0  0  0
   47.9520    7.2668   18.0167 H   0  0  0  0  0  0  0  0  0  0  0  0
   49.5822    6.9172   16.7996 H   0  0  0  0  0  0  0  0  0  0  0  0
   50.0671    8.1362   18.9048 H   0  0  0  0  0  0  0  0  0  0  0  0
   49.1158    9.3158   19.7997 H   0  0  0  0  0  0  0  0  0  0  0  0
   51.5710    7.5481   15.6235 H   0  0  0  0  0  0  0  0  0  0  0  0
   50.7660    6.1280   14.9811 H   0  0  0  0  0  0  0  0  0  0  0  0
   48.2223   10.1831   17.6280 H   0  0  0  0  0  0  0  0  0  0  0  0
   47.2621    9.0864   16.6544 H   0  0  0  0  0  0  0  0  0  0  0  0
   50.3045    9.2050   16.8336 H   0  0  0  0  0  0  0  0  0  0  0  0
   49.2648    9.5157   15.4377 H   0  0  0  0  0  0  0  0  0  0  0  0
   52.4425    8.9073   13.8851 H   0  0  0  0  0  0  0  0  0  0  0  0
   48.7026    6.8664   13.2294 H   0  0  0  0  0  0  0  0  0  0  0  0
   50.4576    5.9769   19.8399 H   0  0  0  0  0  0  0  0  0  0  0  0
   47.2286    8.3933   21.3645 H   0  0  0  0  0  0  0  0  0  0  0  0
   52.3021    9.8740   11.6217 H   0  0  0  0  0  0  0  0  0  0  0  0
   50.1008    4.3546   21.6637 H   0  0  0  0  0  0  0  0  0  0  0  0
   46.8840    6.7598   23.1929 H   0  0  0  0  0  0  0  0  0  0  0  0
   48.5744    7.8364   10.9580 H   0  0  0  0  0  0  0  0  0  0  0  0
   50.3732    9.3451   10.1481 H   0  0  0  0  0  0  0  0  0  0  0  0
   48.3193    4.7437   23.3451 H   0  0  0  0  0  0  0  0  0  0  0  0
   48.8909    6.1395   14.9361 H   0  0  0  0  0  0  0  0  0  0  0  0
   50.8277    5.8520   16.4386 H   0  0  0  0  0  0  0  0  0  0  0  0
   50.5660    9.6593   14.0573 H   0  0  0  0  0  0  0  0  0  0  0  0
   50.8438    8.3631   17.8858 H   0  0  0  0  0  0  0  0  0  0  0  0
   48.3776    8.4819   19.7753 H   0  0  0  0  0  0  0  0  0  0  0  0
   50.1190    8.6074   19.8977 H   0  0  0  0  0  0  0  0  0  0  0  0
   51.2732    7.7782   10.8430 H   0  0  0  0  0  0  0  0  0  0  0  0
   48.3109   10.9773   12.7712 H   0  0  0  0  0  0  0  0  0  0  0  0
   48.7065   11.1358   14.4825 H   0  0  0  0  0  0  0  0  0  0  0  0
   47.0524   10.7174   13.9806 H   0  0  0  0  0  0  0  0  0  0  0  0
   47.8528    7.2091   12.8204 H   0  0  0  0  0  0  0  0  0  0  0  0
   46.5301    8.3501   13.1138 H   0  0  0  0  0  0  0  0  0  0  0  0
   47.6816    8.6536   11.8228 H   0  0  0  0  0  0  0  0  0  0  0  0
   51.3902    7.3143   21.5280 H   0  0  0  0  0  0  0  0  0  0  0  0
   47.1571    6.6363   21.0264 H   0  0  0  0  0  0  0  0  0  0  0  0
   51.3385    6.0495   23.6471 H   0  0  0  0  0  0  0  0  0  0  0  0
   47.1205    5.3808   23.1518 H   0  0  0  0  0  0  0  0  0  0  0  0
   49.2020    5.0982   24.4768 H   0  0  0  0  0  0  0  0  0  0  0  0
   49.5041    7.6931   16.2131 H   0  0  0  0  0  0  0  0  0  0  0  0
   49.3192    7.4066   17.7010 H   0  0  0  0  0  0  0  0  0  0  0  0
   49.3199    7.4131   17.7042 H   0  0  0  0  0  0  0  0  0  0  0  0
   49.5030    7.6856   16.2133 H   0  0  0  0  0  0  0  0  0  0  0  0
   49.4957    7.6405   16.2179 H   0  0  0  0  0  0  0  0  0  0  0  0
   49.3245    7.4542   17.7221 H   0  0  0  0  0  0  0  0  0  0  0  0
  3  2  1  0
  4  2  1  0
  5  3  1  0
  6  2  1  0
  3  7  1  0
  8  6  1  0
  5  9  1  0
  6 10  1  0
 11  9  1  0
 12  4  2  0
 13 10  2  0
 14 11  2  0
 15 11  1  0
 16 10  1  0
 17  8  1  0
 18  8  1  0
 19 15  1  0
 20 19  2  0
 21 19  1  0
 22 20  1  0
 23 21  2  0
 24 23  1  0
  7  8  1  0
  4  5  1  0
 24 22  2  0
 26 32  1  0
 27 30  1  0
 28 29  1  0
 29 25  1  0
 30 26  1  0
 31 25  1  0
 32 31  1  0
 33 27  2  0
 34 27  1  0
 35 28  2  0
 36 28  1  0
 37 33  1  0
 38 35  1  0
 39 36  2  0
 40 34  2  0
 41 37  2  0
 42 39  1  0
 42 38  2  0
 40 41  1  0
 44 43  1  0
 45 43  1  0
 46 44  1  0
 47 43  1  0
 44 48  1  0
 49 47  1  0
 46 50  1  0
 47 51  1  0
 52 50  1  0
 53 45  2  0
 54 51  2  0
 55 52  2  0
 56 52  1  0
 57 51  1  0
 58 49  1  0
 59 49  1  0
 60 56  1  0
 61 60  2  0
 62 60  1  0
 63 61  1  0
 64 62  2  0
 65 64  1  0
 48 49  1  0
 45 46  1  0
 65 63  2  0
  1 69  1  0
  1 70  1  0
  3 71  1  6
  5 72  1  6
  6 73  1  1
  9 74  1  0
 15 75  1  0
 15 76  1  0
 16 77  1  0
 17 78  1  0
 17 79  1  0
 17 80  1  0
 18 81  1  0
 18 82  1  0
 18 83  1  0
 20 84  1  0
 21 85  1  0
 22 86  1  0
 23 87  1  0
 24 88  1  0
 25 89  1  0
 26 90  1  0
 29 91  1  0
 29 92  1  0
 30 93  1  0
 30 94  1  0
 31 95  1  0
 31 96  1  0
 32 97  1  0
 32 98  1  0
 33 99  1  0
 34100  1  0
 35101  1  0
 36102  1  0
 37103  1  0
 38104  1  0
 39105  1  0
 40106  1  0
 41107  1  0
 42108  1  0
 44109  1  1
 46110  1  6
 47111  1  6
 50112  1  0
 56113  1  0
 56114  1  0
 57115  1  0
 58116  1  0
 58117  1  0
 58118  1  0
 59119  1  0
 59120  1  0
 59121  1  0
 61122  1  0
 62123  1  0
 63124  1  0
 64125  1  0
 65126  1  0
 66127  1  0
 66128  1  0
 67129  1  0
 67130  1  0
 68131  1  0
 68132  1  0
M  END
> <Uni-Dock RESULT> 
ENERGY=   -6.754  LOWER_BOUND=    3.742  UPPER_BOUND=    7.045
INTER + INTRA:          -6.754
INTER:                  -6.754
INTRA:                   0.000
UNBOUND:                 0.000

$$$$

     RDKit          3D

132133  0  0  0  0  0  0  0  0999 V2000
   49.4656    7.8503   18.0715 O   0  0  0  0  0  0  0  0  0  0  0  0
   48.2638    8.3345   20.4240 N   0  0  0  0  0  0  0  0  0  0  0  0
   47.8101    7.4929   19.3026 C   0  0  1  0  0  0  0  0  0  0  0  0
   48.9207    9.2229   19.6124 C   0  0  0  0  0  0  0  0  0  0  0  0
   48.3024    8.5972   18.3367 C   0  0  1  0  0  0  0  0  0  0  0  0
   48.9810    7.6898   21.5224 C   0  0  2  0  0  0  0  0  0  0  0  0
   48.8340    5.9728   19.4756 S   0  0  0  0  0  0  0  0  0  0  0  0
   48.8646    6.1621   21.3273 C   0  0  0  0  0  0  0  0  0  0  0  0
   49.2595    8.1765   17.2744 N   0  0  0  0  0  0  0  0  0  0  0  0
   48.4431    8.1807   22.8614 C   0  0  0  0  0  0  0  0  0  0  0  0
   48.8447    8.0143   15.9669 C   0  0  0  0  0  0  0  0  0  0  0  0
   49.7643   10.0484   19.8765 O   0  0  0  0  0  0  0  0  0  0  0  0
   47.3451    8.6642   23.0847 O   0  0  0  0  0  0  0  0  0  0  0  0
   47.6897    8.2560   15.6032 O   0  0  0  0  0  0  0  0  0  0  0  0
   49.9228    7.4931   15.0351 C   0  0  0  0  0  0  0  0  0  0  0  0
   49.3122    7.9706   23.8706 O   0  0  0  0  0  0  0  0  0  0  0  0
   47.5742    5.5502   21.8840 C   0  0  0  0  0  0  0  0  0  0  0  0
   50.0782    5.4184   21.8821 C   0  0  0  0  0  0  0  0  0  0  0  0
   49.9156    8.1549   13.6788 C   0  0  0  0  0  0  0  0  0  0  0  0
   49.6091    7.4151   12.5300 C   0  0  0  0  0  0  0  0  0  0  0  0
   50.2220    9.5160   13.5460 C   0  0  0  0  0  0  0  0  0  0  0  0
   49.5988    8.0275   11.2723 C   0  0  0  0  0  0  0  0  0  0  0  0
   50.2137   10.1269   12.2900 C   0  0  0  0  0  0  0  0  0  0  0  0
   49.8984    9.3842   11.1530 C   0  0  0  0  0  0  0  0  0  0  0  0
   50.3915    7.1143   16.4876 N   0  0  0  0  0  0  0  0  0  0  0  0
   48.4697    7.3035   18.7027 N   0  0  0  0  0  0  0  0  0  0  0  0
   47.7048    7.3213   21.0811 C   0  0  0  0  0  0  0  0  0  0  0  0
   50.1154    8.7487   14.6902 C   0  0  0  0  0  0  0  0  0  0  0  0
   50.5560    8.5163   16.1164 C   0  0  0  0  0  0  0  0  0  0  0  0
   47.6368    7.9641   19.7157 C   0  0  0  0  0  0  0  0  0  0  0  0
   50.7823    6.8357   17.8766 C   0  0  0  0  0  0  0  0  0  0  0  0
   49.9014    7.4845   18.9711 C   0  0  0  0  0  0  0  0  0  0  0  0
   48.0339    8.0849   22.2109 C   0  0  0  0  0  0  0  0  0  0  0  0
   47.4052    5.9620   21.2505 C   0  0  0  0  0  0  0  0  0  0  0  0
   48.9144    9.4135   14.4096 C   0  0  0  0  0  0  0  0  0  0  0  0
   50.8974    8.2801   13.6224 C   0  0  0  0  0  0  0  0  0  0  0  0
   48.0856    7.4922   23.4761 C   0  0  0  0  0  0  0  0  0  0  0  0
   48.5108    9.6219   13.0906 C   0  0  0  0  0  0  0  0  0  0  0  0
   50.4925    8.4907   12.3028 C   0  0  0  0  0  0  0  0  0  0  0  0
   47.4579    5.3701   22.5131 C   0  0  0  0  0  0  0  0  0  0  0  0
   47.8009    6.1360   23.6258 C   0  0  0  0  0  0  0  0  0  0  0  0
   49.2993    9.1592   12.0377 C   0  0  0  0  0  0  0  0  0  0  0  0
   47.8168    7.3791   20.3787 N   0  0  0  0  0  0  0  0  0  0  0  0
   47.9144    6.8537   19.0008 C   0  0  1  0  0  0  0  0  0  0  0  0
   47.9634    8.6798   19.9904 C   0  0  0  0  0  0  0  0  0  0  0  0
   47.8347    8.3135   18.4940 C   0  0  1  0  0  0  0  0  0  0  0  0
   48.7211    6.8308   21.3894 C   0  0  2  0  0  0  0  0  0  0  0  0
   49.5408    6.0025   18.9791 S   0  0  0  0  0  0  0  0  0  0  0  0
   49.3894    5.5787   20.7818 C   0  0  0  0  0  0  0  0  0  0  0  0
   48.9262    8.8137   17.6176 N   0  0  0  0  0  0  0  0  0  0  0  0
   48.0331    6.5472   22.7225 C   0  0  0  0  0  0  0  0  0  0  0  0
   49.0665    8.3580   16.3207 C   0  0  0  0  0  0  0  0  0  0  0  0
   48.2511    9.6734   20.6201 O   0  0  0  0  0  0  0  0  0  0  0  0
   48.5780    6.0745   23.7094 O   0  0  0  0  0  0  0  0  0  0  0  0
   48.2892    7.5475   15.8284 O   0  0  0  0  0  0  0  0  0  0  0  0
   50.3001    8.8845   15.6078 C   0  0  0  0  0  0  0  0  0  0  0  0
   46.7240    6.8557   22.7688 O   0  0  0  0  0  0  0  0  0  0  0  0
   50.7985    5.3460   21.3352 C   0  0  0  0  0  0  0  0  0  0  0  0
   48.5537    4.2987   20.9023 C   0  0  0  0  0  0  0  0  0  0  0  0
   50.0415    9.3690   14.2029 C   0  0  0  0  0  0  0  0  0  0  0  0
   49.8442   10.7340   13.9443 C   0  0  0  0  0  0  0  0  0  0  0  0
   50.0114    8.4654   13.1311 C   0  0  0  0  0  0  0  0  0  0  0  0
   49.6476   11.1864   12.6366 C   0  0  0  0  0  0  0  0  0  0  0  0
   49.8140    8.9177   11.8263 C   0  0  0  0  0  0  0  0  0  0  0  0
   49.6388   10.2772   11.5775 C   0  0  0  0  0  0  0  0  0  0  0  0
   49.4668    7.8530   18.0623 O   0  0  0  0  0  0  0  0  0  0  0  0
   49.4663    7.8519   18.0658 O   0  0  0  0  0  0  0  0  0  0  0  0
   49.4611    7.8448   18.0870 O   0  0  0  0  0  0  0  0  0  0  0  0
   49.1042    7.9288   17.1750 H   0  0  0  0  0  0  0  0  0  0  0  0
   48.7440    7.4486   18.5793 H   0  0  0  0  0  0  0  0  0  0  0  0
   46.7291    7.3285   19.3015 H   0  0  0  0  0  0  0  0  0  0  0  0
   47.4992    9.2348   17.9386 H   0  0  0  0  0  0  0  0  0  0  0  0
   50.0308    8.0086   21.4681 H   0  0  0  0  0  0  0  0  0  0  0  0
   50.1859    7.8423   17.5425 H   0  0  0  0  0  0  0  0  0  0  0  0
   50.9147    7.6316   15.4785 H   0  0  0  0  0  0  0  0  0  0  0  0
   49.7670    6.4126   14.9448 H   0  0  0  0  0  0  0  0  0  0  0  0
   48.8548    8.3525   24.6531 H   0  0  0  0  0  0  0  0  0  0  0  0
   46.6747    6.0678   21.5312 H   0  0  0  0  0  0  0  0  0  0  0  0
   47.5653    5.5913   22.9810 H   0  0  0  0  0  0  0  0  0  0  0  0
   47.4814    4.4946   21.6065 H   0  0  0  0  0  0  0  0  0  0  0  0
   51.0165    5.7772   21.4392 H   0  0  0  0  0  0  0  0  0  0  0  0
   50.0036    4.3388   21.7021 H   0  0  0  0  0  0  0  0  0  0  0  0
   50.1548    5.5654   22.9636 H   0  0  0  0  0  0  0  0  0  0  0  0
   49.3583    6.3574   12.6007 H   0  0  0  0  0  0  0  0  0  0  0  0
   50.4584   10.1149   14.4227 H   0  0  0  0  0  0  0  0  0  0  0  0
   49.3554    7.4435   10.3832 H   0  0  0  0  0  0  0  0  0  0  0  0
   50.4434   11.1842   12.1978 H   0  0  0  0  0  0  0  0  0  0  0  0
   49.8859    9.8627   10.1765 H   0  0  0  0  0  0  0  0  0  0  0  0
   49.4231    6.8289   16.3498 H   0  0  0  0  0  0  0  0  0  0  0  0
   48.2557    7.7223   17.7988 H   0  0  0  0  0  0  0  0  0  0  0  0
   49.9857    9.1778   16.7784 H   0  0  0  0  0  0  0  0  0  0  0  0
   51.6090    8.8120   16.2054 H   0  0  0  0  0  0  0  0  0  0  0  0
   47.8916    9.0288   19.7730 H   0  0  0  0  0  0  0  0  0  0  0  0
   46.5903    7.9178   19.3861 H   0  0  0  0  0  0  0  0  0  0  0  0
   51.8308    7.1200   18.0370 H   0  0  0  0  0  0  0  0  0  0  0  0
   50.7397    5.7485   18.0056 H   0  0  0  0  0  0  0  0  0  0  0  0
   50.1370    8.5566   19.0323 H   0  0  0  0  0  0  0  0  0  0  0  0
   50.1767    7.0343   19.9306 H   0  0  0  0  0  0  0  0  0  0  0  0
   48.2624    9.1434   22.1135 H   0  0  0  0  0  0  0  0  0  0  0  0
   47.1456    5.3556   20.3852 H   0  0  0  0  0  0  0  0  0  0  0  0
   48.2862    9.7762   15.2153 H   0  0  0  0  0  0  0  0  0  0  0  0
   51.8258    7.7458   13.8227 H   0  0  0  0  0  0  0  0  0  0  0  0
   48.3488    8.0918   24.3415 H   0  0  0  0  0  0  0  0  0  0  0  0
   47.5794   10.1394   12.8799 H   0  0  0  0  0  0  0  0  0  0  0  0
   51.1074    8.1213   11.4831 H   0  0  0  0  0  0  0  0  0  0  0  0
   47.2291    4.3115   22.6256 H   0  0  0  0  0  0  0  0  0  0  0  0
   47.8331    5.6765   24.6105 H   0  0  0  0  0  0  0  0  0  0  0  0
   48.9883    9.3187   11.0109 H   0  0  0  0  0  0  0  0  0  0  0  0
   47.0613    6.2225   18.7365 H   0  0  0  0  0  0  0  0  0  0  0  0
   46.8529    8.5956   18.0916 H   0  0  0  0  0  0  0  0  0  0  0  0
   49.4765    7.5989   21.6070 H   0  0  0  0  0  0  0  0  0  0  0  0
   49.6241    9.4395   18.0007 H   0  0  0  0  0  0  0  0  0  0  0  0
   51.0396    8.0780   15.5905 H   0  0  0  0  0  0  0  0  0  0  0  0
   50.7536    9.6984   16.1868 H   0  0  0  0  0  0  0  0  0  0  0  0
   46.4490    6.6691   23.6902 H   0  0  0  0  0  0  0  0  0  0  0  0
   50.7686    5.1148   22.4048 H   0  0  0  0  0  0  0  0  0  0  0  0
   51.4277    6.2362   21.2138 H   0  0  0  0  0  0  0  0  0  0  0  0
   51.2918    4.5040   20.8340 H   0  0  0  0  0  0  0  0  0  0  0  0
   47.5217    4.4413   20.5567 H   0  0  0  0  0  0  0  0  0  0  0  0
   48.9878    3.4748   20.3240 H   0  0  0  0  0  0  0  0  0  0  0  0
   48.5014    3.9572   21.9412 H   0  0  0  0  0  0  0  0  0  0  0  0
   49.8582   11.4567   14.7541 H   0  0  0  0  0  0  0  0  0  0  0  0
   50.1454    7.3994   13.3099 H   0  0  0  0  0  0  0  0  0  0  0  0
   49.5010   12.2504   12.4442 H   0  0  0  0  0  0  0  0  0  0  0  0
   49.7951    8.2100   11.0045 H   0  0  0  0  0  0  0  0  0  0  0  0
   49.4902   10.6345   10.5609 H   0  0  0  0  0  0  0  0  0  0  0  0
   48.7602    7.4524   18.5893 H   0  0  0  0  0  0  0  0  0  0  0  0
   49.0869    7.9223   17.1742 H   0  0  0  0  0  0  0  0  0  0  0  0
   49.0938    7.9249   17.1746 H   0  0  0  0  0  0  0  0  0  0  0  0
   48.7538    7.4509   18.5854 H   0  0  0  0  0  0  0  0  0  0  0  0
   48.7168    7.4430   18.5593 H   0  0  0  0  0  0  0  0  0  0  0  0
   49.1359    7.9400   17.1795 H   0  0  0  0  0  0  0  0  0  0  0  0
  3  2  1  0
  4  2  1  0
  5  3  1  0
  6  2  1  0
  3  7  1  0
  8  6  1  0
  5  9  1  0
  6 10  1  0
 11  9  1  0
 12  4  2  0
 13 10  2  0
 14 11  2  0
 15 11  1  0
 16 10  1  0
 17  8  1  0
 18  8  1  0
 19 15  1  0
 20 19  2  0
 21 19  1  0
 22 20  1  0
 23 21  2  0
 24 23  1  0
  7  8  1  0
  4  5  1  0
 24 22  2  0
 26 32  1  0
 27 30  1  0
 28 29  1  0
 29 25  1  0
 30 26  1  0
 31 25  1  0
 32 31  1  0
 33 27  2  0
 34 27  1  0
 35 28  2  0
 36 28  1  0
 37 33  1  0
 38 35  1  0
 39 36  2  0
 40 34  2  0
 41 37  2  0
 42 39  1  0
 42 38  2  0
 40 41  1  0
 44 43  1  0
 45 43  1  0
 46 44  1  0
 47 43  1  0
 44 48  1  0
 49 47  1  0
 46 50  1  0
 47 51  1  0
 52 50  1  0
 53 45  2  0
 54 51  2  0
 55 52  2  0
 56 52  1  0
 57 51  1  0
 58 49  1  0
 59 49  1  0
 60 56  1  0
 61 60  2  0
 62 60  1  0
 63 61  1  0
 64 62  2  0
 65 64  1  0
 48 49  1  0
 45 46  1  0
 65 63  2  0
  1 69  1  0
  1 70  1  0
  3 71  1  6
  5 72  1  6
  6 73  1  1
  9 74  1  0
 15 75  1  0
 15 76  1  0
 16 77  1  0
 17 78  1  0
 17 79  1  0
 17 80  1  0
 18 81  1  0
 18 82  1  0
 18 83  1  0
 20 84  1  0
 21 85  1  0
 22 86  1  0
 23 87  1  0
 24 88  1  0
 25 89  1  0
 26 90  1  0
 29 91  1  0
 29 92  1  0
 30 93  1  0
 30 94  1  0
 31 95  1  0
 31 96  1  0
 32 97  1  0
 32 98  1  0
 33 99  1  0
 34100  1  0
 35101  1  0
 36102  1  0
 37103  1  0
 38104  1  0
 39105  1  0
 40106  1  0
 41107  1  0
 42108  1  0
 44109  1  1
 46110  1  6
 47111  1  6
 50112  1  0
 56113  1  0
 56114  1  0
 57115  1  0
 58116  1  0
 58117  1  0
 58118  1  0
 59119  1  0
 59120  1  0
 59121  1  0
 61122  1  0
 62123  1  0
 63124  1  0
 64125  1  0
 65126  1  0
 66127  1  0
 66128  1  0
 67129  1  0
 67130  1  0
 68131  1  0
 68132  1  0
M  END
> <Uni-Dock RESULT> 
ENERGY=   -6.694  LOWER_BOUND=    4.064  UPPER_BOUND=    6.628
INTER + INTRA:          -6.694
INTER:                  -6.694
INTRA:                   0.000
UNBOUND:                 0.000

$$$$

     RDKit          3D

132133  0  0  0  0  0  0  0  0999 V2000
   48.3627    8.0222   18.0595 O   0  0  0  0  0  0  0  0  0  0  0  0
   48.3978    6.1189   19.9541 N   0  0  0  0  0  0  0  0  0  0  0  0
   49.4847    7.0083   19.5077 C   0  0  1  0  0  0  0  0  0  0  0  0
   47.8055    6.0701   18.7186 C   0  0  0  0  0  0  0  0  0  0  0  0
   49.0142    6.7745   18.0521 C   0  0  1  0  0  0  0  0  0  0  0  0
   47.6120    6.5228   21.1185 C   0  0  2  0  0  0  0  0  0  0  0  0
   49.0692    8.6144   20.3057 S   0  0  0  0  0  0  0  0  0  0  0  0
   48.3180    7.7351   21.7644 C   0  0  0  0  0  0  0  0  0  0  0  0
   48.7102    7.9904   17.2455 N   0  0  0  0  0  0  0  0  0  0  0  0
   47.4298    5.3421   22.0651 C   0  0  0  0  0  0  0  0  0  0  0  0
   49.5913    8.4445   16.2836 C   0  0  0  0  0  0  0  0  0  0  0  0
   46.6912    5.7263   18.3976 O   0  0  0  0  0  0  0  0  0  0  0  0
   48.1321    4.3477   22.1506 O   0  0  0  0  0  0  0  0  0  0  0  0
   50.6365    7.8477   16.0075 O   0  0  0  0  0  0  0  0  0  0  0  0
   49.1713    9.7443   15.6230 C   0  0  0  0  0  0  0  0  0  0  0  0
   46.3918    5.5165   22.9077 O   0  0  0  0  0  0  0  0  0  0  0  0
   49.4527    7.3669   22.7270 C   0  0  0  0  0  0  0  0  0  0  0  0
   47.3302    8.6739   22.4548 C   0  0  0  0  0  0  0  0  0  0  0  0
   49.4277    9.7724   14.1360 C   0  0  0  0  0  0  0  0  0  0  0  0
   50.3610   10.6643   13.5937 C   0  0  0  0  0  0  0  0  0  0  0  0
   48.7320    8.9133   13.2745 C   0  0  0  0  0  0  0  0  0  0  0  0
   50.6023   10.6895   12.2159 C   0  0  0  0  0  0  0  0  0  0  0  0
   48.9714    8.9400   11.8987 C   0  0  0  0  0  0  0  0  0  0  0  0
   49.9093    9.8252   11.3690 C   0  0  0  0  0  0  0  0  0  0  0  0
   48.3817    9.6789   16.9814 N   0  0  0  0  0  0  0  0  0  0  0  0
   49.1929    7.7147   19.0110 N   0  0  0  0  0  0  0  0  0  0  0  0
   49.0038    6.3742   21.1109 C   0  0  0  0  0  0  0  0  0  0  0  0
   48.6866    8.9982   14.6529 C   0  0  0  0  0  0  0  0  0  0  0  0
   47.8795    8.8160   15.9167 C   0  0  0  0  0  0  0  0  0  0  0  0
   49.3227    6.3915   19.6344 C   0  0  0  0  0  0  0  0  0  0  0  0
   47.6471    9.5237   18.2447 C   0  0  0  0  0  0  0  0  0  0  0  0
   47.7936    8.1538   18.9494 C   0  0  0  0  0  0  0  0  0  0  0  0
   48.0492    5.4823   21.6218 C   0  0  0  0  0  0  0  0  0  0  0  0
   49.6799    7.2204   22.0015 C   0  0  0  0  0  0  0  0  0  0  0  0
   49.5938    8.0163   14.2331 C   0  0  0  0  0  0  0  0  0  0  0  0
   48.5531   10.1695   13.8903 C   0  0  0  0  0  0  0  0  0  0  0  0
   47.7625    5.4585   22.9900 C   0  0  0  0  0  0  0  0  0  0  0  0
   50.3393    8.1919   13.0671 C   0  0  0  0  0  0  0  0  0  0  0  0
   49.2992   10.3430   12.7229 C   0  0  0  0  0  0  0  0  0  0  0  0
   49.3930    7.1976   23.3669 C   0  0  0  0  0  0  0  0  0  0  0  0
   48.4316    6.3175   23.8603 C   0  0  0  0  0  0  0  0  0  0  0  0
   50.1927    9.3557   12.3132 C   0  0  0  0  0  0  0  0  0  0  0  0
   49.1362    6.6663   20.4734 N   0  0  0  0  0  0  0  0  0  0  0  0
   49.7258    7.6779   19.5716 C   0  0  1  0  0  0  0  0  0  0  0  0
   48.6910    5.8804   19.4495 C   0  0  0  0  0  0  0  0  0  0  0  0
   49.4630    6.7071   18.3957 C   0  0  1  0  0  0  0  0  0  0  0  0
   48.1857    7.1204   21.4885 C   0  0  2  0  0  0  0  0  0  0  0  0
   48.6230    9.1312   19.7759 S   0  0  0  0  0  0  0  0  0  0  0  0
   48.2619    8.6617   21.5370 C   0  0  0  0  0  0  0  0  0  0  0  0
   48.6535    7.1957   17.2486 N   0  0  0  0  0  0  0  0  0  0  0  0
   48.4073    6.4731   22.8532 C   0  0  0  0  0  0  0  0  0  0  0  0
   49.1528    8.1408   16.3731 C   0  0  0  0  0  0  0  0  0  0  0  0
   47.8694    4.9912   19.4247 O   0  0  0  0  0  0  0  0  0  0  0  0
   47.7501    6.7052   23.8575 O   0  0  0  0  0  0  0  0  0  0  0  0
   50.2855    8.5969   16.4849 O   0  0  0  0  0  0  0  0  0  0  0  0
   48.1528    8.6113   15.3310 C   0  0  0  0  0  0  0  0  0  0  0  0
   49.4168    5.5849   22.9091 O   0  0  0  0  0  0  0  0  0  0  0  0
   46.9260    9.2970   21.9338 C   0  0  0  0  0  0  0  0  0  0  0  0
   49.3920    9.2081   22.4176 C   0  0  0  0  0  0  0  0  0  0  0  0
   48.7063    8.6761   13.9293 C   0  0  0  0  0  0  0  0  0  0  0  0
   48.4905    7.6226   13.0279 C   0  0  0  0  0  0  0  0  0  0  0  0
   49.4304    9.7974   13.4997 C   0  0  0  0  0  0  0  0  0  0  0  0
   48.9670    7.7031   11.7164 C   0  0  0  0  0  0  0  0  0  0  0  0
   49.9067    9.8765   12.1908 C   0  0  0  0  0  0  0  0  0  0  0  0
   49.6701    8.8339   11.2976 C   0  0  0  0  0  0  0  0  0  0  0  0
   48.3640    8.0243   18.0502 O   0  0  0  0  0  0  0  0  0  0  0  0
   48.3636    8.0235   18.0537 O   0  0  0  0  0  0  0  0  0  0  0  0
   48.3631    8.0180   18.0760 O   0  0  0  0  0  0  0  0  0  0  0  0
   48.9670    8.1487   17.3116 H   0  0  0  0  0  0  0  0  0  0  0  0
   48.9482    7.7834   18.7944 H   0  0  0  0  0  0  0  0  0  0  0  0
   50.4792    6.6172   19.7387 H   0  0  0  0  0  0  0  0  0  0  0  0
   49.6280    6.0524   17.4935 H   0  0  0  0  0  0  0  0  0  0  0  0
   46.6100    6.8011   20.7647 H   0  0  0  0  0  0  0  0  0  0  0  0
   47.9295    8.5879   17.5200 H   0  0  0  0  0  0  0  0  0  0  0  0
   48.1057    9.9345   15.7905 H   0  0  0  0  0  0  0  0  0  0  0  0
   49.7173   10.5472   16.1300 H   0  0  0  0  0  0  0  0  0  0  0  0
   46.3759    4.6839   23.4308 H   0  0  0  0  0  0  0  0  0  0  0  0
   50.1759    6.6737   22.2821 H   0  0  0  0  0  0  0  0  0  0  0  0
   49.0560    6.8884   23.6319 H   0  0  0  0  0  0  0  0  0  0  0  0
   50.0020    8.2562   23.0547 H   0  0  0  0  0  0  0  0  0  0  0  0
   46.5489    9.0242   21.7677 H   0  0  0  0  0  0  0  0  0  0  0  0
   47.8375    9.5513   22.8747 H   0  0  0  0  0  0  0  0  0  0  0  0
   46.8278    8.1602   23.2799 H   0  0  0  0  0  0  0  0  0  0  0  0
   50.9241   11.3389   14.2375 H   0  0  0  0  0  0  0  0  0  0  0  0
   48.0055    8.2070   13.6701 H   0  0  0  0  0  0  0  0  0  0  0  0
   51.3340   11.3858   11.8030 H   0  0  0  0  0  0  0  0  0  0  0  0
   48.4343    8.2642   11.2399 H   0  0  0  0  0  0  0  0  0  0  0  0
   50.0995    9.8403   10.2983 H   0  0  0  0  0  0  0  0  0  0  0  0
   49.3699    9.4913   17.1448 H   0  0  0  0  0  0  0  0  0  0  0  0
   49.5527    7.6501   18.0600 H   0  0  0  0  0  0  0  0  0  0  0  0
   47.9061    7.7597   16.2081 H   0  0  0  0  0  0  0  0  0  0  0  0
   46.8318    9.0560   15.6954 H   0  0  0  0  0  0  0  0  0  0  0  0
   48.7082    5.6618   19.0943 H   0  0  0  0  0  0  0  0  0  0  0  0
   50.3627    6.0574   19.5223 H   0  0  0  0  0  0  0  0  0  0  0  0
   46.5819    9.7417   18.0900 H   0  0  0  0  0  0  0  0  0  0  0  0
   48.0194   10.2978   18.9248 H   0  0  0  0  0  0  0  0  0  0  0  0
   47.1917    7.4075   18.4113 H   0  0  0  0  0  0  0  0  0  0  0  0
   47.3719    8.2498   19.9553 H   0  0  0  0  0  0  0  0  0  0  0  0
   47.5146    4.8071   20.9582 H   0  0  0  0  0  0  0  0  0  0  0  0
   50.4251    7.9167   21.6224 H   0  0  0  0  0  0  0  0  0  0  0  0
   49.7244    7.1071   14.8089 H   0  0  0  0  0  0  0  0  0  0  0  0
   47.8650   10.9511   14.2115 H   0  0  0  0  0  0  0  0  0  0  0  0
   47.0165    4.7693   23.3722 H   0  0  0  0  0  0  0  0  0  0  0  0
   51.0396    7.4261   12.7464 H   0  0  0  0  0  0  0  0  0  0  0  0
   49.1874   11.2567   12.1406 H   0  0  0  0  0  0  0  0  0  0  0  0
   49.9225    7.8666   24.0435 H   0  0  0  0  0  0  0  0  0  0  0  0
   48.2148    6.2937   24.9253 H   0  0  0  0  0  0  0  0  0  0  0  0
   50.7713    9.4960   11.4064 H   0  0  0  0  0  0  0  0  0  0  0  0
   50.7802    7.8659   19.7926 H   0  0  0  0  0  0  0  0  0  0  0  0
   50.3577    6.1777   18.0425 H   0  0  0  0  0  0  0  0  0  0  0  0
   47.1846    6.7977   21.1701 H   0  0  0  0  0  0  0  0  0  0  0  0
   47.6931    6.8894   17.1516 H   0  0  0  0  0  0  0  0  0  0  0  0
   47.8011    9.6018   15.6358 H   0  0  0  0  0  0  0  0  0  0  0  0
   47.2686    7.9620   15.3344 H   0  0  0  0  0  0  0  0  0  0  0  0
   49.3930    5.2265   23.8204 H   0  0  0  0  0  0  0  0  0  0  0  0
   46.6527    9.0314   22.9600 H   0  0  0  0  0  0  0  0  0  0  0  0
   46.1118    8.9552   21.2832 H   0  0  0  0  0  0  0  0  0  0  0  0
   46.9720   10.3919   21.8824 H   0  0  0  0  0  0  0  0  0  0  0  0
   50.3590    8.7403   22.1918 H   0  0  0  0  0  0  0  0  0  0  0  0
   49.5105   10.2915   22.2997 H   0  0  0  0  0  0  0  0  0  0  0  0
   49.1877    9.0300   23.4783 H   0  0  0  0  0  0  0  0  0  0  0  0
   47.9370    6.7401   13.3329 H   0  0  0  0  0  0  0  0  0  0  0  0
   49.6246   10.6199   14.1868 H   0  0  0  0  0  0  0  0  0  0  0  0
   48.7893    6.8817   11.0206 H   0  0  0  0  0  0  0  0  0  0  0  0
   50.4635   10.7498   11.8686 H   0  0  0  0  0  0  0  0  0  0  0  0
   50.0350    8.8941   10.2746 H   0  0  0  0  0  0  0  0  0  0  0  0
   48.9293    7.7841   18.7986 H   0  0  0  0  0  0  0  0  0  0  0  0
   48.9845    8.1458   17.3167 H   0  0  0  0  0  0  0  0  0  0  0  0
   48.9775    8.1469   17.3148 H   0  0  0  0  0  0  0  0  0  0  0  0
   48.9368    7.7838   18.7970 H   0  0  0  0  0  0  0  0  0  0  0  0
   48.9808    7.7827   18.7841 H   0  0  0  0  0  0  0  0  0  0  0  0
   48.9339    8.1535   17.3053 H   0  0  0  0  0  0  0  0  0  0  0  0
  3  2  1  0
  4  2  1  0
  5  3  1  0
  6  2  1  0
  3  7  1  0
  8  6  1  0
  5  9  1  0
  6 10  1  0
 11  9  1  0
 12  4  2  0
 13 10  2  0
 14 11  2  0
 15 11  1  0
 16 10  1  0
 17  8  1  0
 18  8  1  0
 19 15  1  0
 20 19  2  0
 21 19  1  0
 22 20  1  0
 23 21  2  0
 24 23  1  0
  7  8  1  0
  4  5  1  0
 24 22  2  0
 26 32  1  0
 27 30  1  0
 28 29  1  0
 29 25  1  0
 30 26  1  0
 31 25  1  0
 32 31  1  0
 33 27  2  0
 34 27  1  0
 35 28  2  0
 36 28  1  0
 37 33  1  0
 38 35  1  0
 39 36  2  0
 40 34  2  0
 41 37  2  0
 42 39  1  0
 42 38  2  0
 40 41  1  0
 44 43  1  0
 45 43  1  0
 46 44  1  0
 47 43  1  0
 44 48  1  0
 49 47  1  0
 46 50  1  0
 47 51  1  0
 52 50  1  0
 53 45  2  0
 54 51  2  0
 55 52  2  0
 56 52  1  0
 57 51  1  0
 58 49  1  0
 59 49  1  0
 60 56  1  0
 61 60  2  0
 62 60  1  0
 63 61  1  0
 64 62  2  0
 65 64  1  0
 48 49  1  0
 45 46  1  0
 65 63  2  0
  1 69  1  0
  1 70  1  0
  3 71  1  6
  5 72  1  6
  6 73  1  1
  9 74  1  0
 15 75  1  0
 15 76  1  0
 16 77  1  0
 17 78  1  0
 17 79  1  0
 17 80  1  0
 18 81  1  0
 18 82  1  0
 18 83  1  0
 20 84  1  0
 21 85  1  0
 22 86  1  0
 23 87  1  0
 24 88  1  0
 25 89  1  0
 26 90  1  0
 29 91  1  0
 29 92  1  0
 30 93  1  0
 30 94  1  0
 31 95  1  0
 31 96  1  0
 32 97  1  0
 32 98  1  0
 33 99  1  0
 34100  1  0
 35101  1  0
 36102  1  0
 37103  1  0
 38104  1  0
 39105  1  0
 40106  1  0
 41107  1  0
 42108  1  0
 44109  1  1
 46110  1  6
 47111  1  6
 50112  1  0
 56113  1  0
 56114  1  0
 57115  1  0
 58116  1  0
 58117  1  0
 58118  1  0
 59119  1  0
 59120  1  0
 59121  1  0
 61122  1  0
 62123  1  0
 63124  1  0
 64125  1  0
 65126  1  0
 66127  1  0
 66128  1  0
 67129  1  0
 67130  1  0
 68131  1  0
 68132  1  0
M  END
> <Uni-Dock RESULT> 
ENERGY=   -6.685  LOWER_BOUND=    4.138  UPPER_BOUND=    6.515
INTER + INTRA:          -6.685
INTER:                  -6.685
INTRA:                   0.000
UNBOUND:                 0.000

$$$$

     RDKit          3D

132133  0  0  0  0  0  0  0  0999 V2000
   49.4539    8.7216   17.0990 O   0  0  0  0  0  0  0  0  0  0  0  0
   49.4393    8.0599   14.4961 N   0  0  0  0  0  0  0  0  0  0  0  0
   48.3691    8.6644   15.3090 C   0  0  1  0  0  0  0  0  0  0  0  0
   49.9615    7.3488   15.5455 C   0  0  0  0  0  0  0  0  0  0  0  0
   48.7500    7.6902   16.4495 C   0  0  1  0  0  0  0  0  0  0  0  0
   50.3032    8.9503   13.7233 C   0  0  2  0  0  0  0  0  0  0  0  0
   48.8954   10.4222   15.4584 S   0  0  0  0  0  0  0  0  0  0  0  0
   49.6856   10.3650   13.7739 C   0  0  0  0  0  0  0  0  0  0  0  0
   49.0620    8.3010   17.7727 N   0  0  0  0  0  0  0  0  0  0  0  0
   50.4853    8.4098   12.3098 C   0  0  0  0  0  0  0  0  0  0  0  0
   48.1506    8.2557   18.8097 C   0  0  0  0  0  0  0  0  0  0  0  0
   51.0411    6.8184   15.6716 O   0  0  0  0  0  0  0  0  0  0  0  0
   49.7466    7.6463   11.7093 O   0  0  0  0  0  0  0  0  0  0  0  0
   47.0675    7.6704   18.7150 O   0  0  0  0  0  0  0  0  0  0  0  0
   48.5898    9.0056   20.0535 C   0  0  0  0  0  0  0  0  0  0  0  0
   51.5737    8.9229   11.7014 O   0  0  0  0  0  0  0  0  0  0  0  0
   48.5897   10.6141   12.7315 C   0  0  0  0  0  0  0  0  0  0  0  0
   50.7485   11.4588   13.6871 C   0  0  0  0  0  0  0  0  0  0  0  0
   48.2552    8.2866   21.3376 C   0  0  0  0  0  0  0  0  0  0  0  0
   47.3331    8.8344   22.2378 C   0  0  0  0  0  0  0  0  0  0  0  0
   48.8660    7.0653   21.6529 C   0  0  0  0  0  0  0  0  0  0  0  0
   47.0193    8.1679   23.4270 C   0  0  0  0  0  0  0  0  0  0  0  0
   48.5542    6.4009   22.8413 C   0  0  0  0  0  0  0  0  0  0  0  0
   47.6280    6.9496   23.7271 C   0  0  0  0  0  0  0  0  0  0  0  0
   49.4478    9.5925   18.8735 N   0  0  0  0  0  0  0  0  0  0  0  0
   48.6636    8.9975   16.1047 N   0  0  0  0  0  0  0  0  0  0  0  0
   48.9079    8.9087   13.6198 C   0  0  0  0  0  0  0  0  0  0  0  0
   48.9891    7.8393   20.5149 C   0  0  0  0  0  0  0  0  0  0  0  0
   49.8546    8.2765   19.3565 C   0  0  0  0  0  0  0  0  0  0  0  0
   48.5110    8.1899   14.8879 C   0  0  0  0  0  0  0  0  0  0  0  0
   50.2421   10.0574   17.7278 C   0  0  0  0  0  0  0  0  0  0  0  0
   50.0752    9.2523   16.4168 C   0  0  0  0  0  0  0  0  0  0  0  0
   49.8495    8.3435   12.7470 C   0  0  0  0  0  0  0  0  0  0  0  0
   48.3177   10.1325   13.2734 C   0  0  0  0  0  0  0  0  0  0  0  0
   48.0194    6.8415   20.3493 C   0  0  0  0  0  0  0  0  0  0  0  0
   49.1315    8.4453   21.7733 C   0  0  0  0  0  0  0  0  0  0  0  0
   50.2082    9.0035   11.5678 C   0  0  0  0  0  0  0  0  0  0  0  0
   47.2204    6.4444   21.4217 C   0  0  0  0  0  0  0  0  0  0  0  0
   48.3317    8.0458   22.8459 C   0  0  0  0  0  0  0  0  0  0  0  0
   48.6764   10.7919   12.0970 C   0  0  0  0  0  0  0  0  0  0  0  0
   49.6244   10.2275   11.2455 C   0  0  0  0  0  0  0  0  0  0  0  0
   47.3759    7.0477   22.6692 C   0  0  0  0  0  0  0  0  0  0  0  0
   48.7540    8.8420   14.3134 N   0  0  0  0  0  0  0  0  0  0  0  0
   48.1606    9.2866   15.5918 C   0  0  1  0  0  0  0  0  0  0  0  0
   49.1093    7.6166   14.7996 C   0  0  0  0  0  0  0  0  0  0  0  0
   48.3179    7.8368   16.1092 C   0  0  1  0  0  0  0  0  0  0  0  0
   49.7764    9.6886   13.6985 C   0  0  2  0  0  0  0  0  0  0  0  0
   49.3341   10.5659   16.1889 S   0  0  0  0  0  0  0  0  0  0  0  0
   49.7691   11.0395   14.4457 C   0  0  0  0  0  0  0  0  0  0  0  0
   49.0847    7.6176   17.3637 N   0  0  0  0  0  0  0  0  0  0  0  0
   49.6010    9.8449   12.1900 C   0  0  0  0  0  0  0  0  0  0  0  0
   48.5799    8.0129   18.5877 C   0  0  0  0  0  0  0  0  0  0  0  0
   49.8895    6.7886   14.3846 O   0  0  0  0  0  0  0  0  0  0  0  0
   50.3207   10.5146   11.4633 O   0  0  0  0  0  0  0  0  0  0  0  0
   47.4754    8.5339   18.6982 O   0  0  0  0  0  0  0  0  0  0  0  0
   49.5416    7.8195   19.7475 C   0  0  0  0  0  0  0  0  0  0  0  0
   48.5588    9.1771   11.6619 O   0  0  0  0  0  0  0  0  0  0  0  0
   51.1504   11.7009   14.4636 C   0  0  0  0  0  0  0  0  0  0  0  0
   48.7124   12.0306   13.9430 C   0  0  0  0  0  0  0  0  0  0  0  0
   48.9167    7.1948   20.9700 C   0  0  0  0  0  0  0  0  0  0  0  0
   49.0383    5.8173   21.2082 C   0  0  0  0  0  0  0  0  0  0  0  0
   48.2193    7.9833   21.8963 C   0  0  0  0  0  0  0  0  0  0  0  0
   48.4957    5.2471   22.3632 C   0  0  0  0  0  0  0  0  0  0  0  0
   47.6771    7.4132   23.0483 C   0  0  0  0  0  0  0  0  0  0  0  0
   47.8203    6.0479   23.2856 C   0  0  0  0  0  0  0  0  0  0  0  0
   49.4522    8.7188   17.1080 O   0  0  0  0  0  0  0  0  0  0  0  0
   49.4527    8.7198   17.1046 O   0  0  0  0  0  0  0  0  0  0  0  0
   49.4542    8.7265   17.0827 O   0  0  0  0  0  0  0  0  0  0  0  0
   48.8162    8.4870   17.7910 H   0  0  0  0  0  0  0  0  0  0  0  0
   48.8991    8.9299   16.3317 H   0  0  0  0  0  0  0  0  0  0  0  0
   47.3725    8.5111   14.8860 H   0  0  0  0  0  0  0  0  0  0  0  0
   48.0766    6.8253   16.5434 H   0  0  0  0  0  0  0  0  0  0  0  0
   51.2957    8.9436   14.1939 H   0  0  0  0  0  0  0  0  0  0  0  0
   49.8812    8.9031   17.8626 H   0  0  0  0  0  0  0  0  0  0  0  0
   49.6700    9.1856   20.0332 H   0  0  0  0  0  0  0  0  0  0  0  0
   48.1068    9.9881   20.0171 H   0  0  0  0  0  0  0  0  0  0  0  0
   51.5820    8.4752   10.8258 H   0  0  0  0  0  0  0  0  0  0  0  0
   47.8145    9.8391   12.7401 H   0  0  0  0  0  0  0  0  0  0  0  0
   49.0136   10.6404   11.7192 H   0  0  0  0  0  0  0  0  0  0  0  0
   48.0975   11.5792   12.8933 H   0  0  0  0  0  0  0  0  0  0  0  0
   51.5060   11.3578   14.4753 H   0  0  0  0  0  0  0  0  0  0  0  0
   50.3026   12.4582   13.7646 H   0  0  0  0  0  0  0  0  0  0  0  0
   51.2721   11.4075   12.7277 H   0  0  0  0  0  0  0  0  0  0  0  0
   46.8349    9.7778   22.0178 H   0  0  0  0  0  0  0  0  0  0  0  0
   49.5818    6.6151   20.9687 H   0  0  0  0  0  0  0  0  0  0  0  0
   46.2969    8.6010   24.1208 H   0  0  0  0  0  0  0  0  0  0  0  0
   49.0256    5.4505   23.0729 H   0  0  0  0  0  0  0  0  0  0  0  0
   47.3812    6.4279   24.6489 H   0  0  0  0  0  0  0  0  0  0  0  0
   48.4628    9.5787   18.6131 H   0  0  0  0  0  0  0  0  0  0  0  0
   48.2507    8.4795   16.8788 H   0  0  0  0  0  0  0  0  0  0  0  0
   49.7984    7.5216   18.5640 H   0  0  0  0  0  0  0  0  0  0  0  0
   50.8981    8.3017   19.6950 H   0  0  0  0  0  0  0  0  0  0  0  0
   49.0637    7.2489   14.9918 H   0  0  0  0  0  0  0  0  0  0  0  0
   47.4531    7.9132   14.7874 H   0  0  0  0  0  0  0  0  0  0  0  0
   51.3058   10.0966   17.9982 H   0  0  0  0  0  0  0  0  0  0  0  0
   49.9405   11.0924   17.5324 H   0  0  0  0  0  0  0  0  0  0  0  0
   50.6146    8.2990   16.5102 H   0  0  0  0  0  0  0  0  0  0  0  0
   50.5541    9.8213   15.6131 H   0  0  0  0  0  0  0  0  0  0  0  0
   50.3182    7.3912   12.9830 H   0  0  0  0  0  0  0  0  0  0  0  0
   47.5837   10.5838   13.9378 H   0  0  0  0  0  0  0  0  0  0  0  0
   47.8811    6.3645   19.3857 H   0  0  0  0  0  0  0  0  0  0  0  0
   49.8687    9.2350   21.9154 H   0  0  0  0  0  0  0  0  0  0  0  0
   50.9434    8.5598   10.9044 H   0  0  0  0  0  0  0  0  0  0  0  0
   46.4717    5.6692   21.2871 H   0  0  0  0  0  0  0  0  0  0  0  0
   48.4510    8.5245   23.8170 H   0  0  0  0  0  0  0  0  0  0  0  0
   48.2133   11.7451   11.8469 H   0  0  0  0  0  0  0  0  0  0  0  0
   49.8970   10.7371   10.3247 H   0  0  0  0  0  0  0  0  0  0  0  0
   46.7559    6.7421   23.5052 H   0  0  0  0  0  0  0  0  0  0  0  0
   47.1287    9.6286   15.4731 H   0  0  0  0  0  0  0  0  0  0  0  0
   47.3836    7.2602   16.1189 H   0  0  0  0  0  0  0  0  0  0  0  0
   50.7442    9.1848   13.8304 H   0  0  0  0  0  0  0  0  0  0  0  0
   50.0244    7.2436   17.3131 H   0  0  0  0  0  0  0  0  0  0  0  0
   49.9513    8.8016   20.0026 H   0  0  0  0  0  0  0  0  0  0  0  0
   50.3960    7.2077   19.4329 H   0  0  0  0  0  0  0  0  0  0  0  0
   48.6163    9.3337   10.6967 H   0  0  0  0  0  0  0  0  0  0  0  0
   51.4669   11.9798   13.4535 H   0  0  0  0  0  0  0  0  0  0  0  0
   51.9130   11.0231   14.8663 H   0  0  0  0  0  0  0  0  0  0  0  0
   51.1487   12.6162   15.0683 H   0  0  0  0  0  0  0  0  0  0  0  0
   47.7156   11.5765   13.8734 H   0  0  0  0  0  0  0  0  0  0  0  0
   48.6344   12.9068   14.5971 H   0  0  0  0  0  0  0  0  0  0  0  0
   48.9658   12.4065   12.9465 H   0  0  0  0  0  0  0  0  0  0  0  0
   49.5691    5.1808   20.5071 H   0  0  0  0  0  0  0  0  0  0  0  0
   48.0978    9.0519   21.7239 H   0  0  0  0  0  0  0  0  0  0  0  0
   48.6004    4.1761   22.5431 H   0  0  0  0  0  0  0  0  0  0  0  0
   47.1417    8.0332   23.7594 H   0  0  0  0  0  0  0  0  0  0  0  0
   47.4038    5.6005   24.1854 H   0  0  0  0  0  0  0  0  0  0  0  0
   48.9181    8.9315   16.3290 H   0  0  0  0  0  0  0  0  0  0  0  0
   48.7988    8.4882   17.7847 H   0  0  0  0  0  0  0  0  0  0  0  0
   48.8058    8.4878   17.7871 H   0  0  0  0  0  0  0  0  0  0  0  0
   48.9106    8.9309   16.3299 H   0  0  0  0  0  0  0  0  0  0  0  0
   48.8659    8.9263   16.3394 H   0  0  0  0  0  0  0  0  0  0  0  0
   48.8490    8.4858   17.7996 H   0  0  0  0  0  0  0  0  0  0  0  0
  3  2  1  0
  4  2  1  0
  5  3  1  0
  6  2  1  0
  3  7  1  0
  8  6  1  0
  5  9  1  0
  6 10  1  0
 11  9  1  0
 12  4  2  0
 13 10  2  0
 14 11  2  0
 15 11  1  0
 16 10  1  0
 17  8  1  0
 18  8  1  0
 19 15  1  0
 20 19  2  0
 21 19  1  0
 22 20  1  0
 23 21  2  0
 24 23  1  0
  7  8  1  0
  4  5  1  0
 24 22  2  0
 26 32  1  0
 27 30  1  0
 28 29  1  0
 29 25  1  0
 30 26  1  0
 31 25  1  0
 32 31  1  0
 33 27  2  0
 34 27  1  0
 35 28  2  0
 36 28  1  0
 37 33  1  0
 38 35  1  0
 39 36  2  0
 40 34  2  0
 41 37  2  0
 42 39  1  0
 42 38  2  0
 40 41  1  0
 44 43  1  0
 45 43  1  0
 46 44  1  0
 47 43  1  0
 44 48  1  0
 49 47  1  0
 46 50  1  0
 47 51  1  0
 52 50  1  0
 53 45  2  0
 54 51  2  0
 55 52  2  0
 56 52  1  0
 57 51  1  0
 58 49  1  0
 59 49  1  0
 60 56  1  0
 61 60  2  0
 62 60  1  0
 63 61  1  0
 64 62  2  0
 65 64  1  0
 48 49  1  0
 45 46  1  0
 65 63  2  0
  1 69  1  0
  1 70  1  0
  3 71  1  6
  5 72  1  6
  6 73  1  1
  9 74  1  0
 15 75  1  0
 15 76  1  0
 16 77  1  0
 17 78  1  0
 17 79  1  0
 17 80  1  0
 18 81  1  0
 18 82  1  0
 18 83  1  0
 20 84  1  0
 21 85  1  0
 22 86  1  0
 23 87  1  0
 24 88  1  0
 25 89  1  0
 26 90  1  0
 29 91  1  0
 29 92  1  0
 30 93  1  0
 30 94  1  0
 31 95  1  0
 31 96  1  0
 32 97  1  0
 32 98  1  0
 33 99  1  0
 34100  1  0
 35101  1  0
 36102  1  0
 37103  1  0
 38104  1  0
 39105  1  0
 40106  1  0
 41107  1  0
 42108  1  0
 44109  1  1
 46110  1  6
 47111  1  6
 50112  1  0
 56113  1  0
 56114  1  0
 57115  1  0
 58116  1  0
 58117  1  0
 58118  1  0
 59119  1  0
 59120  1  0
 59121  1  0
 61122  1  0
 62123  1  0
 63124  1  0
 64125  1  0
 65126  1  0
 66127  1  0
 66128  1  0
 67129  1  0
 67130  1  0
 68131  1  0
 68132  1  0
M  END
> <Uni-Dock RESULT> 
ENERGY=   -6.526  LOWER_BOUND=    3.657  UPPER_BOUND=    7.153
INTER + INTRA:          -6.526
INTER:                  -6.526
INTRA:                   0.000
UNBOUND:                 0.000

$$$$

     RDKit          3D

132133  0  0  0  0  0  0  0  0999 V2000
   49.6835    9.8088   15.0484 O   0  0  0  0  0  0  0  0  0  0  0  0
   50.7597   11.3939   13.1664 N   0  0  0  0  0  0  0  0  0  0  0  0
   51.4180   10.7025   14.2890 C   0  0  1  0  0  0  0  0  0  0  0  0
   49.5807   11.5678   13.8441 C   0  0  0  0  0  0  0  0  0  0  0  0
   50.2174   11.1046   15.1788 C   0  0  1  0  0  0  0  0  0  0  0  0
   50.7545   10.7367   11.8608 C   0  0  2  0  0  0  0  0  0  0  0  0
   51.5207    8.9587   13.7077 S   0  0  0  0  0  0  0  0  0  0  0  0
   51.7040    9.5213   11.9427 C   0  0  0  0  0  0  0  0  0  0  0  0
   49.5201   10.0007   15.8975 N   0  0  0  0  0  0  0  0  0  0  0  0
   51.1255   11.7335   10.7690 C   0  0  0  0  0  0  0  0  0  0  0  0
   49.7196    9.7939   17.2485 C   0  0  0  0  0  0  0  0  0  0  0  0
   48.4749   11.8373   13.4349 O   0  0  0  0  0  0  0  0  0  0  0  0
   51.7540   12.7716   10.8980 O   0  0  0  0  0  0  0  0  0  0  0  0
   50.4335   10.5325   17.9337 O   0  0  0  0  0  0  0  0  0  0  0  0
   49.0072    8.5731   17.8002 C   0  0  0  0  0  0  0  0  0  0  0  0
   50.7311   11.3243    9.5463 O   0  0  0  0  0  0  0  0  0  0  0  0
   53.1811    9.8560   11.7067 C   0  0  0  0  0  0  0  0  0  0  0  0
   51.2690    8.3895   11.0134 C   0  0  0  0  0  0  0  0  0  0  0  0
   48.3942    8.7992   19.1606 C   0  0  0  0  0  0  0  0  0  0  0  0
   48.8716    8.1037   20.2783 C   0  0  0  0  0  0  0  0  0  0  0  0
   47.3346    9.7014   19.3261 C   0  0  0  0  0  0  0  0  0  0  0  0
   48.3068    8.3144   21.5407 C   0  0  0  0  0  0  0  0  0  0  0  0
   46.7694    9.9101   20.5862 C   0  0  0  0  0  0  0  0  0  0  0  0
   47.2576    9.2199   21.6948 C   0  0  0  0  0  0  0  0  0  0  0  0
   49.1053    8.3470   16.2470 N   0  0  0  0  0  0  0  0  0  0  0  0
   50.9016   10.0533   14.6667 N   0  0  0  0  0  0  0  0  0  0  0  0
   51.9071   11.0305   12.5987 C   0  0  0  0  0  0  0  0  0  0  0  0
   48.0630    9.4030   18.1905 C   0  0  0  0  0  0  0  0  0  0  0  0
   48.0936    9.3045   16.6833 C   0  0  0  0  0  0  0  0  0  0  0  0
   51.3519   11.2722   13.9828 C   0  0  0  0  0  0  0  0  0  0  0  0
   49.1959    8.2296   14.7849 C   0  0  0  0  0  0  0  0  0  0  0  0
   49.7051    9.4838   14.0350 C   0  0  0  0  0  0  0  0  0  0  0  0
   51.3946   11.7285   11.4952 C   0  0  0  0  0  0  0  0  0  0  0  0
   52.9665   10.1345   12.3965 C   0  0  0  0  0  0  0  0  0  0  0  0
   48.5812   10.5275   18.8466 C   0  0  0  0  0  0  0  0  0  0  0  0
   47.5318    8.3542   18.9579 C   0  0  0  0  0  0  0  0  0  0  0  0
   51.9163   11.5131   10.2160 C   0  0  0  0  0  0  0  0  0  0  0  0
   48.5537   10.6113   20.2388 C   0  0  0  0  0  0  0  0  0  0  0  0
   47.5040    8.4404   20.3513 C   0  0  0  0  0  0  0  0  0  0  0  0
   53.4865    9.9185   11.1197 C   0  0  0  0  0  0  0  0  0  0  0  0
   52.9587   10.6069   10.0289 C   0  0  0  0  0  0  0  0  0  0  0  0
   48.0164    9.5671   20.9906 C   0  0  0  0  0  0  0  0  0  0  0  0
   51.6639   10.8547   13.2462 N   0  0  0  0  0  0  0  0  0  0  0  0
   51.6560   10.0602   14.4923 C   0  0  1  0  0  0  0  0  0  0  0  0
   50.7225   11.7361   13.6946 C   0  0  0  0  0  0  0  0  0  0  0  0
   50.7813   11.1657   15.1303 C   0  0  1  0  0  0  0  0  0  0  0  0
   51.4389   10.1535   11.9822 C   0  0  2  0  0  0  0  0  0  0  0  0
   50.8568    8.4847   13.9930 S   0  0  0  0  0  0  0  0  0  0  0  0
   51.5337    8.6396   12.2696 C   0  0  0  0  0  0  0  0  0  0  0  0
   49.4724   10.7752   15.7167 N   0  0  0  0  0  0  0  0  0  0  0  0
   52.3794   10.6049   10.8676 C   0  0  0  0  0  0  0  0  0  0  0  0
   49.4039   10.0325   16.8799 C   0  0  0  0  0  0  0  0  0  0  0  0
   50.0230   12.5272   13.1019 O   0  0  0  0  0  0  0  0  0  0  0  0
   52.3917   10.1545    9.7312 O   0  0  0  0  0  0  0  0  0  0  0  0
   50.4091    9.6866   17.4909 O   0  0  0  0  0  0  0  0  0  0  0  0
   47.9948    9.6236   17.2733 C   0  0  0  0  0  0  0  0  0  0  0  0
   53.2473   11.5756   11.2081 O   0  0  0  0  0  0  0  0  0  0  0  0
   50.6453    7.8140   11.3342 C   0  0  0  0  0  0  0  0  0  0  0  0
   52.9642    8.0874   12.2676 C   0  0  0  0  0  0  0  0  0  0  0  0
   47.6765    9.8319   18.7329 C   0  0  0  0  0  0  0  0  0  0  0  0
   46.9931   10.9819   19.1567 C   0  0  0  0  0  0  0  0  0  0  0  0
   48.0431    8.8719   19.6868 C   0  0  0  0  0  0  0  0  0  0  0  0
   46.6609   11.1530   20.5036 C   0  0  0  0  0  0  0  0  0  0  0  0
   47.7121    9.0439   21.0311 C   0  0  0  0  0  0  0  0  0  0  0  0
   47.0161   10.1797   21.4390 C   0  0  0  0  0  0  0  0  0  0  0  0
   49.6795    9.8082   15.0572 O   0  0  0  0  0  0  0  0  0  0  0  0
   49.6810    9.8084   15.0539 O   0  0  0  0  0  0  0  0  0  0  0  0
   49.6930    9.8103   15.0344 O   0  0  0  0  0  0  0  0  0  0  0  0
   49.7708    9.8621   16.0128 H   0  0  0  0  0  0  0  0  0  0  0  0
   50.5779    9.9931   14.7230 H   0  0  0  0  0  0  0  0  0  0  0  0
   52.3722   11.1564   14.5702 H   0  0  0  0  0  0  0  0  0  0  0  0
   50.4153   11.9640   15.8364 H   0  0  0  0  0  0  0  0  0  0  0  0
   49.7257   10.4116   11.6550 H   0  0  0  0  0  0  0  0  0  0  0  0
   49.0253    9.2894   15.3579 H   0  0  0  0  0  0  0  0  0  0  0  0
   48.2149    8.2483   17.1172 H   0  0  0  0  0  0  0  0  0  0  0  0
   49.7453    7.7643   17.8324 H   0  0  0  0  0  0  0  0  0  0  0  0
   51.0061   12.0611    8.9558 H   0  0  0  0  0  0  0  0  0  0  0  0
   53.5332   10.6811   12.3364 H   0  0  0  0  0  0  0  0  0  0  0  0
   53.3526   10.1465   10.6620 H   0  0  0  0  0  0  0  0  0  0  0  0
   53.8225    8.9899   11.9032 H   0  0  0  0  0  0  0  0  0  0  0  0
   50.2386    8.0677   11.2137 H   0  0  0  0  0  0  0  0  0  0  0  0
   51.9267    7.5167   11.1095 H   0  0  0  0  0  0  0  0  0  0  0  0
   51.3082    8.7156    9.9697 H   0  0  0  0  0  0  0  0  0  0  0  0
   49.6995    7.4020   20.1843 H   0  0  0  0  0  0  0  0  0  0  0  0
   46.9483   10.2586   18.4755 H   0  0  0  0  0  0  0  0  0  0  0  0
   48.6878    7.7702   22.4064 H   0  0  0  0  0  0  0  0  0  0  0  0
   45.9548   10.6180   20.7065 H   0  0  0  0  0  0  0  0  0  0  0  0
   46.8208    9.3883   22.6764 H   0  0  0  0  0  0  0  0  0  0  0  0
   50.0170    8.6106   16.6178 H   0  0  0  0  0  0  0  0  0  0  0  0
   50.6722   10.2996   15.6283 H   0  0  0  0  0  0  0  0  0  0  0  0
   48.2745   10.3008   16.2641 H   0  0  0  0  0  0  0  0  0  0  0  0
   47.1002    8.9920   16.3372 H   0  0  0  0  0  0  0  0  0  0  0  0
   50.5388   12.0069   13.9538 H   0  0  0  0  0  0  0  0  0  0  0  0
   52.1533   11.7272   14.5798 H   0  0  0  0  0  0  0  0  0  0  0  0
   48.2249    7.9268   14.3707 H   0  0  0  0  0  0  0  0  0  0  0  0
   49.8856    7.4044   14.5756 H   0  0  0  0  0  0  0  0  0  0  0  0
   48.9036   10.2358   14.0082 H   0  0  0  0  0  0  0  0  0  0  0  0
   49.9138    9.1917   13.0006 H   0  0  0  0  0  0  0  0  0  0  0  0
   50.5794   12.4369   11.6209 H   0  0  0  0  0  0  0  0  0  0  0  0
   53.3775    9.5865   13.2419 H   0  0  0  0  0  0  0  0  0  0  0  0
   49.0070   11.3469   18.2787 H   0  0  0  0  0  0  0  0  0  0  0  0
   47.1404    7.4648   18.4649 H   0  0  0  0  0  0  0  0  0  0  0  0
   51.5064   12.0536    9.3690 H   0  0  0  0  0  0  0  0  0  0  0  0
   48.9555   11.4865   20.7410 H   0  0  0  0  0  0  0  0  0  0  0  0
   47.0903    7.6194   20.9355 H   0  0  0  0  0  0  0  0  0  0  0  0
   54.3046    9.2137   10.9795 H   0  0  0  0  0  0  0  0  0  0  0  0
   53.3701   10.4450    9.0357 H   0  0  0  0  0  0  0  0  0  0  0  0
   47.9941    9.6284   22.0734 H   0  0  0  0  0  0  0  0  0  0  0  0
   52.6561    9.9528   14.9218 H   0  0  0  0  0  0  0  0  0  0  0  0
   51.3274   11.8340   15.8089 H   0  0  0  0  0  0  0  0  0  0  0  0
   50.4286   10.4137   11.6365 H   0  0  0  0  0  0  0  0  0  0  0  0
   48.6191   10.9898   15.2154 H   0  0  0  0  0  0  0  0  0  0  0  0
   47.8746    8.5669   17.0158 H   0  0  0  0  0  0  0  0  0  0  0  0
   47.2596   10.1680   16.6678 H   0  0  0  0  0  0  0  0  0  0  0  0
   53.7327   11.7863   10.3839 H   0  0  0  0  0  0  0  0  0  0  0  0
   50.9875    7.8897   10.2971 H   0  0  0  0  0  0  0  0  0  0  0  0
   49.6058    8.1633   11.3585 H   0  0  0  0  0  0  0  0  0  0  0  0
   50.6582    6.7508   11.6042 H   0  0  0  0  0  0  0  0  0  0  0  0
   53.6413    8.6834   12.8930 H   0  0  0  0  0  0  0  0  0  0  0  0
   53.0004    7.0532   12.6293 H   0  0  0  0  0  0  0  0  0  0  0  0
   53.3832    8.0792   11.2561 H   0  0  0  0  0  0  0  0  0  0  0  0
   46.6997   11.7443   18.4420 H   0  0  0  0  0  0  0  0  0  0  0  0
   48.5888    7.9793   19.3835 H   0  0  0  0  0  0  0  0  0  0  0  0
   46.1241   12.0475   20.8231 H   0  0  0  0  0  0  0  0  0  0  0  0
   47.9986    8.2935   21.7601 H   0  0  0  0  0  0  0  0  0  0  0  0
   46.7512   10.3149   22.4853 H   0  0  0  0  0  0  0  0  0  0  0  0
   50.5646    9.9897   14.7094 H   0  0  0  0  0  0  0  0  0  0  0  0
   49.7882    9.8660   16.0177 H   0  0  0  0  0  0  0  0  0  0  0  0
   49.7813    9.8645   16.0157 H   0  0  0  0  0  0  0  0  0  0  0  0
   50.5699    9.9910   14.7146 H   0  0  0  0  0  0  0  0  0  0  0  0
   50.5994    9.9987   14.7490 H   0  0  0  0  0  0  0  0  0  0  0  0
   49.7399    9.8549   16.0009 H   0  0  0  0  0  0  0  0  0  0  0  0
  3  2  1  0
  4  2  1  0
  5  3  1  0
  6  2  1  0
  3  7  1  0
  8  6  1  0
  5  9  1  0
  6 10  1  0
 11  9  1  0
 12  4  2  0
 13 10  2  0
 14 11  2  0
 15 11  1  0
 16 10  1  0
 17  8  1  0
 18  8  1  0
 19 15  1  0
 20 19  2  0
 21 19  1  0
 22 20  1  0
 23 21  2  0
 24 23  1  0
  7  8  1  0
  4  5  1  0
 24 22  2  0
 26 32  1  0
 27 30  1  0
 28 29  1  0
 29 25  1  0
 30 26  1  0
 31 25  1  0
 32 31  1  0
 33 27  2  0
 34 27  1  0
 35 28  2  0
 36 28  1  0
 37 33  1  0
 38 35  1  0
 39 36  2  0
 40 34  2  0
 41 37  2  0
 42 39  1  0
 42 38  2  0
 40 41  1  0
 44 43  1  0
 45 43  1  0
 46 44  1  0
 47 43  1  0
 44 48  1  0
 49 47  1  0
 46 50  1  0
 47 51  1  0
 52 50  1  0
 53 45  2  0
 54 51  2  0
 55 52  2  0
 56 52  1  0
 57 51  1  0
 58 49  1  0
 59 49  1  0
 60 56  1  0
 61 60  2  0
 62 60  1  0
 63 61  1  0
 64 62  2  0
 65 64  1  0
 48 49  1  0
 45 46  1  0
 65 63  2  0
  1 69  1  0
  1 70  1  0
  3 71  1  6
  5 72  1  6
  6 73  1  1
  9 74  1  0
 15 75  1  0
 15 76  1  0
 16 77  1  0
 17 78  1  0
 17 79  1  0
 17 80  1  0
 18 81  1  0
 18 82  1  0
 18 83  1  0
 20 84  1  0
 21 85  1  0
 22 86  1  0
 23 87  1  0
 24 88  1  0
 25 89  1  0
 26 90  1  0
 29 91  1  0
 29 92  1  0
 30 93  1  0
 30 94  1  0
 31 95  1  0
 31 96  1  0
 32 97  1  0
 32 98  1  0
 33 99  1  0
 34100  1  0
 35101  1  0
 36102  1  0
 37103  1  0
 38104  1  0
 39105  1  0
 40106  1  0
 41107  1  0
 42108  1  0
 44109  1  1
 46110  1  6
 47111  1  6
 50112  1  0
 56113  1  0
 56114  1  0
 57115  1  0
 58116  1  0
 58117  1  0
 58118  1  0
 59119  1  0
 59120  1  0
 59121  1  0
 61122  1  0
 62123  1  0
 63124  1  0
 64125  1  0
 65126  1  0
 66127  1  0
 66128  1  0
 67129  1  0
 67130  1  0
 68131  1  0
 68132  1  0
M  END
> <Uni-Dock RESULT> 
ENERGY=   -6.270  LOWER_BOUND=    3.871  UPPER_BOUND=    6.682
INTER + INTRA:          -6.270
INTER:                  -6.270
INTRA:                   0.000
UNBOUND:                 0.000

$$$$
