
     RDKit          3D

132133  0  0  0  0  0  0  0  0999 V2000
   47.8749    8.3335   13.1661 O   0  0  0  0  0  0  0  0  0  0  0  0
   50.0582    9.4767   14.3423 N   0  0  0  0  0  0  0  0  0  0  0  0
   49.7883    8.5496   13.2275 C   0  0  1  0  0  0  0  0  0  0  0  0
   48.8614    9.2355   14.9535 C   0  0  0  0  0  0  0  0  0  0  0  0
   48.6044    7.9923   14.0673 C   0  0  1  0  0  0  0  0  0  0  0  0
   50.4746   10.8287   13.9903 C   0  0  2  0  0  0  0  0  0  0  0  0
   49.3719    9.6341   11.7936 S   0  0  0  0  0  0  0  0  0  0  0  0
   49.7586   11.2171   12.6772 C   0  0  0  0  0  0  0  0  0  0  0  0
   47.2679    7.9214   13.4182 N   0  0  0  0  0  0  0  0  0  0  0  0
   51.9972   10.8226   13.8854 C   0  0  0  0  0  0  0  0  0  0  0  0
   47.0122    6.9836   12.4397 C   0  0  0  0  0  0  0  0  0  0  0  0
   48.2360    9.8854   15.7563 O   0  0  0  0  0  0  0  0  0  0  0  0
   52.7165    9.8956   13.5466 O   0  0  0  0  0  0  0  0  0  0  0  0
   47.8567    6.1594   12.0975 O   0  0  0  0  0  0  0  0  0  0  0  0
   45.6290    7.0788   11.8191 C   0  0  0  0  0  0  0  0  0  0  0  0
   52.5429   12.0197   14.1920 O   0  0  0  0  0  0  0  0  0  0  0  0
   48.4215   11.9225   12.9608 C   0  0  0  0  0  0  0  0  0  0  0  0
   50.5802   12.1054   11.7351 C   0  0  0  0  0  0  0  0  0  0  0  0
   44.8952    5.7614   11.8099 C   0  0  0  0  0  0  0  0  0  0  0  0
   45.0008    4.8985   10.7104 C   0  0  0  0  0  0  0  0  0  0  0  0
   44.1237    5.3680   12.9125 C   0  0  0  0  0  0  0  0  0  0  0  0
   44.3334    3.6732   10.7071 C   0  0  0  0  0  0  0  0  0  0  0  0
   43.4576    4.1411   12.9068 C   0  0  0  0  0  0  0  0  0  0  0  0
   43.5612    3.2950   11.8042 C   0  0  0  0  0  0  0  0  0  0  0  0
   46.5741    8.1914   12.3063 N   0  0  0  0  0  0  0  0  0  0  0  0
   49.3381    8.7938   12.9119 N   0  0  0  0  0  0  0  0  0  0  0  0
   50.1684   11.0755   12.6558 C   0  0  0  0  0  0  0  0  0  0  0  0
   45.3781    6.1279   13.0579 C   0  0  0  0  0  0  0  0  0  0  0  0
   46.1068    7.3931   13.4470 C   0  0  0  0  0  0  0  0  0  0  0  0
   49.7098    9.8263   11.9418 C   0  0  0  0  0  0  0  0  0  0  0  0
   47.6401    7.5263   11.5368 C   0  0  0  0  0  0  0  0  0  0  0  0
   49.0069    7.5170   12.2584 C   0  0  0  0  0  0  0  0  0  0  0  0
   49.2316   11.9960   13.1484 C   0  0  0  0  0  0  0  0  0  0  0  0
   51.5333   11.3154   12.8731 C   0  0  0  0  0  0  0  0  0  0  0  0
   44.2536    6.1778   12.2209 C   0  0  0  0  0  0  0  0  0  0  0  0
   45.8009    4.8836   13.5488 C   0  0  0  0  0  0  0  0  0  0  0  0
   49.6518   13.1399   13.8286 C   0  0  0  0  0  0  0  0  0  0  0  0
   43.5717    5.0100   11.8762 C   0  0  0  0  0  0  0  0  0  0  0  0
   45.1192    3.7159   13.2020 C   0  0  0  0  0  0  0  0  0  0  0  0
   51.9512   12.4591   13.5556 C   0  0  0  0  0  0  0  0  0  0  0  0
   51.0111   13.3714   14.0317 C   0  0  0  0  0  0  0  0  0  0  0  0
   44.0054    3.7794   12.3664 C   0  0  0  0  0  0  0  0  0  0  0  0
   50.2191    9.7955   12.1106 N   0  0  0  0  0  0  0  0  0  0  0  0
   48.7567    9.6936   11.9275 C   0  0  1  0  0  0  0  0  0  0  0  0
   50.4051    8.4402   12.0821 C   0  0  0  0  0  0  0  0  0  0  0  0
   48.9539    8.1901   11.6121 C   0  0  1  0  0  0  0  0  0  0  0  0
   50.7115   10.5612   13.2560 C   0  0  2  0  0  0  0  0  0  0  0  0
   48.0905   10.1570   13.5806 S   0  0  0  0  0  0  0  0  0  0  0  0
   49.5151   11.3130   13.8739 C   0  0  0  0  0  0  0  0  0  0  0  0
   48.1611    7.2140   12.4076 N   0  0  0  0  0  0  0  0  0  0  0  0
   51.8516   11.4753   12.8269 C   0  0  0  0  0  0  0  0  0  0  0  0
   46.8118    7.0490   12.1678 C   0  0  0  0  0  0  0  0  0  0  0  0
   51.3351    7.7591   12.4488 O   0  0  0  0  0  0  0  0  0  0  0  0
   52.0676   11.9157   11.7086 O   0  0  0  0  0  0  0  0  0  0  0  0
   46.2425    7.6505   11.2597 O   0  0  0  0  0  0  0  0  0  0  0  0
   46.1112    6.1128   13.1391 C   0  0  0  0  0  0  0  0  0  0  0  0
   52.6487   11.8319   13.8568 O   0  0  0  0  0  0  0  0  0  0  0  0
   49.1880   12.6540   13.2015 C   0  0  0  0  0  0  0  0  0  0  0  0
   49.6800   11.5107   15.3828 C   0  0  0  0  0  0  0  0  0  0  0  0
   45.1261    5.1790   12.4802 C   0  0  0  0  0  0  0  0  0  0  0  0
   43.8330    5.6198   12.1644 C   0  0  0  0  0  0  0  0  0  0  0  0
   45.4910    3.8636   12.1607 C   0  0  0  0  0  0  0  0  0  0  0  0
   42.9186    4.7577   11.5573 C   0  0  0  0  0  0  0  0  0  0  0  0
   44.5735    3.0025   11.5543 C   0  0  0  0  0  0  0  0  0  0  0  0
   43.2875    3.4488   11.2558 C   0  0  0  0  0  0  0  0  0  0  0  0
   47.8652    8.3217   13.1644 O   0  0  0  0  0  0  0  0  0  0  0  0
   47.8643    8.3205   13.1644 O   0  0  0  0  0  0  0  0  0  0  0  0
   47.8663    8.3230   13.1645 O   0  0  0  0  0  0  0  0  0  0  0  0
   48.2488    9.0829   12.6786 H   0  0  0  0  0  0  0  0  0  0  0  0
   47.2895    7.9043   12.5240 H   0  0  0  0  0  0  0  0  0  0  0  0
   50.6050    7.8438   13.0480 H   0  0  0  0  0  0  0  0  0  0  0  0
   48.8305    7.0606   14.6014 H   0  0  0  0  0  0  0  0  0  0  0  0
   50.1990   11.4959   14.8158 H   0  0  0  0  0  0  0  0  0  0  0  0
   46.5686    8.6222   13.6362 H   0  0  0  0  0  0  0  0  0  0  0  0
   45.7466    7.4592   10.7970 H   0  0  0  0  0  0  0  0  0  0  0  0
   45.0206    7.8243   12.3477 H   0  0  0  0  0  0  0  0  0  0  0  0
   53.5079   11.8733   14.0921 H   0  0  0  0  0  0  0  0  0  0  0  0
   48.5895   12.8544   13.5141 H   0  0  0  0  0  0  0  0  0  0  0  0
   47.7343   11.3128   13.5546 H   0  0  0  0  0  0  0  0  0  0  0  0
   47.9004   12.1891   12.0333 H   0  0  0  0  0  0  0  0  0  0  0  0
   51.5053   11.6205   11.4029 H   0  0  0  0  0  0  0  0  0  0  0  0
   50.0129   12.3710   10.8350 H   0  0  0  0  0  0  0  0  0  0  0  0
   50.8534   13.0451   12.2297 H   0  0  0  0  0  0  0  0  0  0  0  0
   45.6138    5.1720    9.8539 H   0  0  0  0  0  0  0  0  0  0  0  0
   44.0370    6.0110   13.7847 H   0  0  0  0  0  0  0  0  0  0  0  0
   44.4235    3.0099    9.8504 H   0  0  0  0  0  0  0  0  0  0  0  0
   42.8619    3.8415   13.7655 H   0  0  0  0  0  0  0  0  0  0  0  0
   43.0461    2.3381   11.8016 H   0  0  0  0  0  0  0  0  0  0  0  0
   47.0080    9.0325   12.7010 H   0  0  0  0  0  0  0  0  0  0  0  0
   50.1339    8.6477   13.5335 H   0  0  0  0  0  0  0  0  0  0  0  0
   45.4070    8.0073   14.0272 H   0  0  0  0  0  0  0  0  0  0  0  0
   46.9368    7.1716   14.1286 H   0  0  0  0  0  0  0  0  0  0  0  0
   50.5145    9.4707   11.2858 H   0  0  0  0  0  0  0  0  0  0  0  0
   48.8637   10.0849   11.2944 H   0  0  0  0  0  0  0  0  0  0  0  0
   47.7491    8.0843   10.5989 H   0  0  0  0  0  0  0  0  0  0  0  0
   47.3603    6.5084   11.2437 H   0  0  0  0  0  0  0  0  0  0  0  0
   49.7985    7.2159   11.5620 H   0  0  0  0  0  0  0  0  0  0  0  0
   48.9780    6.7477   13.0394 H   0  0  0  0  0  0  0  0  0  0  0  0
   48.1674   11.8179   13.0073 H   0  0  0  0  0  0  0  0  0  0  0  0
   52.2789   10.6096   12.5139 H   0  0  0  0  0  0  0  0  0  0  0  0
   43.9146    7.1348   11.8293 H   0  0  0  0  0  0  0  0  0  0  0  0
   46.6663    4.8170   14.2037 H   0  0  0  0  0  0  0  0  0  0  0  0
   48.9174   13.8475   14.2043 H   0  0  0  0  0  0  0  0  0  0  0  0
   42.7032    5.0618   11.2245 H   0  0  0  0  0  0  0  0  0  0  0  0
   45.4559    2.7562   13.5855 H   0  0  0  0  0  0  0  0  0  0  0  0
   53.0112   12.6367   13.7201 H   0  0  0  0  0  0  0  0  0  0  0  0
   51.3366   14.2602   14.5650 H   0  0  0  0  0  0  0  0  0  0  0  0
   43.4742    2.8697   12.0977 H   0  0  0  0  0  0  0  0  0  0  0  0
   48.3941   10.3040   11.0939 H   0  0  0  0  0  0  0  0  0  0  0  0
   48.9131    7.9463   10.5429 H   0  0  0  0  0  0  0  0  0  0  0  0
   51.1291    9.8435   13.9758 H   0  0  0  0  0  0  0  0  0  0  0  0
   48.5688    6.8024   13.2413 H   0  0  0  0  0  0  0  0  0  0  0  0
   45.5965    6.7301   13.8860 H   0  0  0  0  0  0  0  0  0  0  0  0
   46.8523    5.5230   13.6919 H   0  0  0  0  0  0  0  0  0  0  0  0
   53.3432   12.3864   13.4405 H   0  0  0  0  0  0  0  0  0  0  0  0
   49.0849   12.5621   12.1143 H   0  0  0  0  0  0  0  0  0  0  0  0
   49.9761   13.3912   13.3927 H   0  0  0  0  0  0  0  0  0  0  0  0
   48.2550   13.0806   13.5916 H   0  0  0  0  0  0  0  0  0  0  0  0
   49.8822   10.5663   15.9001 H   0  0  0  0  0  0  0  0  0  0  0  0
   48.7839   11.9549   15.8335 H   0  0  0  0  0  0  0  0  0  0  0  0
   50.5173   12.1850   15.5987 H   0  0  0  0  0  0  0  0  0  0  0  0
   43.5358    6.6442   12.3795 H   0  0  0  0  0  0  0  0  0  0  0  0
   46.4909    3.4966   12.3809 H   0  0  0  0  0  0  0  0  0  0  0  0
   41.9203    5.1119   11.3145 H   0  0  0  0  0  0  0  0  0  0  0  0
   44.8629    1.9829   11.3113 H   0  0  0  0  0  0  0  0  0  0  0  0
   42.5743    2.7790   10.7823 H   0  0  0  0  0  0  0  0  0  0  0  0
   47.2896    7.9186   12.4972 H   0  0  0  0  0  0  0  0  0  0  0  0
   48.2583    9.0802   12.7071 H   0  0  0  0  0  0  0  0  0  0  0  0
   47.2895    7.9198   12.4945 H   0  0  0  0  0  0  0  0  0  0  0  0
   48.2594    9.0803   12.7098 H   0  0  0  0  0  0  0  0  0  0  0  0
   48.2572    9.0805   12.7039 H   0  0  0  0  0  0  0  0  0  0  0  0
   47.2896    7.9170   12.5004 H   0  0  0  0  0  0  0  0  0  0  0  0
  3  2  1  0
  4  2  1  0
  5  3  1  0
  6  2  1  0
  3  7  1  0
  8  6  1  0
  5  9  1  0
  6 10  1  0
 11  9  1  0
 12  4  2  0
 13 10  2  0
 14 11  2  0
 15 11  1  0
 16 10  1  0
 17  8  1  0
 18  8  1  0
 19 15  1  0
 20 19  2  0
 21 19  1  0
 22 20  1  0
 23 21  2  0
 24 23  1  0
  7  8  1  0
  4  5  1  0
 24 22  2  0
 26 32  1  0
 27 30  1  0
 28 29  1  0
 29 25  1  0
 30 26  1  0
 31 25  1  0
 32 31  1  0
 33 27  2  0
 34 27  1  0
 35 28  2  0
 36 28  1  0
 37 33  1  0
 38 35  1  0
 39 36  2  0
 40 34  2  0
 41 37  2  0
 42 39  1  0
 42 38  2  0
 40 41  1  0
 44 43  1  0
 45 43  1  0
 46 44  1  0
 47 43  1  0
 44 48  1  0
 49 47  1  0
 46 50  1  0
 47 51  1  0
 52 50  1  0
 53 45  2  0
 54 51  2  0
 55 52  2  0
 56 52  1  0
 57 51  1  0
 58 49  1  0
 59 49  1  0
 60 56  1  0
 61 60  2  0
 62 60  1  0
 63 61  1  0
 64 62  2  0
 65 64  1  0
 48 49  1  0
 45 46  1  0
 65 63  2  0
  1 69  1  0
  1 70  1  0
  3 71  1  6
  5 72  1  6
  6 73  1  1
  9 74  1  0
 15 75  1  0
 15 76  1  0
 16 77  1  0
 17 78  1  0
 17 79  1  0
 17 80  1  0
 18 81  1  0
 18 82  1  0
 18 83  1  0
 20 84  1  0
 21 85  1  0
 22 86  1  0
 23 87  1  0
 24 88  1  0
 25 89  1  0
 26 90  1  0
 29 91  1  0
 29 92  1  0
 30 93  1  0
 30 94  1  0
 31 95  1  0
 31 96  1  0
 32 97  1  0
 32 98  1  0
 33 99  1  0
 34100  1  0
 35101  1  0
 36102  1  0
 37103  1  0
 38104  1  0
 39105  1  0
 40106  1  0
 41107  1  0
 42108  1  0
 44109  1  1
 46110  1  6
 47111  1  6
 50112  1  0
 56113  1  0
 56114  1  0
 57115  1  0
 58116  1  0
 58117  1  0
 58118  1  0
 59119  1  0
 59120  1  0
 59121  1  0
 61122  1  0
 62123  1  0
 63124  1  0
 64125  1  0
 65126  1  0
 66127  1  0
 66128  1  0
 67129  1  0
 67130  1  0
 68131  1  0
 68132  1  0
M  END
> <Uni-Dock RESULT> 
ENERGY=   -7.856  LOWER_BOUND=    0.000  UPPER_BOUND=    0.000
INTER + INTRA:          -7.856
INTER:                  -7.856
INTRA:                   0.000
UNBOUND:                 0.000

$$$$

     RDKit          3D

132133  0  0  0  0  0  0  0  0999 V2000
   48.3272    7.7934   13.4877 O   0  0  0  0  0  0  0  0  0  0  0  0
   50.8284    8.4927   14.3316 N   0  0  0  0  0  0  0  0  0  0  0  0
   50.1912    8.0540   13.0760 C   0  0  1  0  0  0  0  0  0  0  0  0
   49.8375    7.9825   15.1202 C   0  0  0  0  0  0  0  0  0  0  0  0
   49.2544    7.1649   13.9418 C   0  0  1  0  0  0  0  0  0  0  0  0
   51.2240    9.8933   14.4167 C   0  0  2  0  0  0  0  0  0  0  0  0
   49.4668    9.5864   12.3462 S   0  0  0  0  0  0  0  0  0  0  0  0
   50.1975   10.7241   13.6143 C   0  0  0  0  0  0  0  0  0  0  0  0
   47.7879    7.2896   13.7265 N   0  0  0  0  0  0  0  0  0  0  0  0
   52.6514    9.9955   13.8861 C   0  0  0  0  0  0  0  0  0  0  0  0
   47.2017    6.7892   12.5827 C   0  0  0  0  0  0  0  0  0  0  0  0
   49.5105    8.2458   16.2523 O   0  0  0  0  0  0  0  0  0  0  0  0
   53.1789    9.3026   13.0299 O   0  0  0  0  0  0  0  0  0  0  0  0
   47.8554    6.1980   11.7268 O   0  0  0  0  0  0  0  0  0  0  0  0
   45.7103    7.0540   12.4690 C   0  0  0  0  0  0  0  0  0  0  0  0
   53.3448   11.0060   14.4546 O   0  0  0  0  0  0  0  0  0  0  0  0
   49.0474   11.2064   14.5146 C   0  0  0  0  0  0  0  0  0  0  0  0
   50.7823   11.9415   12.8881 C   0  0  0  0  0  0  0  0  0  0  0  0
   44.9119    5.8101   12.1703 C   0  0  0  0  0  0  0  0  0  0  0  0
   44.6429    5.4412   10.8451 C   0  0  0  0  0  0  0  0  0  0  0  0
   44.4552    4.9896   13.2114 C   0  0  0  0  0  0  0  0  0  0  0  0
   43.9163    4.2829   10.5675 C   0  0  0  0  0  0  0  0  0  0  0  0
   43.7291    3.8307   12.9308 C   0  0  0  0  0  0  0  0  0  0  0  0
   43.4585    3.4785   11.6098 C   0  0  0  0  0  0  0  0  0  0  0  0
   46.8307    7.9349   13.0498 N   0  0  0  0  0  0  0  0  0  0  0  0
   49.6890    8.3804   13.0201 N   0  0  0  0  0  0  0  0  0  0  0  0
   50.5736   10.6198   13.4244 C   0  0  0  0  0  0  0  0  0  0  0  0
   45.7507    5.6902   13.2690 C   0  0  0  0  0  0  0  0  0  0  0  0
   46.6472    6.7399   13.8834 C   0  0  0  0  0  0  0  0  0  0  0  0
   49.8455    9.7217   12.4529 C   0  0  0  0  0  0  0  0  0  0  0  0
   47.5877    7.6644   11.8150 C   0  0  0  0  0  0  0  0  0  0  0  0
   49.0978    7.4392   12.0549 C   0  0  0  0  0  0  0  0  0  0  0  0
   49.8807   11.2380   14.4756 C   0  0  0  0  0  0  0  0  0  0  0  0
   51.9580   10.8182   13.3159 C   0  0  0  0  0  0  0  0  0  0  0  0
   44.4428    6.0078   12.8737 C   0  0  0  0  0  0  0  0  0  0  0  0
   46.2049    4.3729   13.1068 C   0  0  0  0  0  0  0  0  0  0  0  0
   50.5551   12.0504   15.3884 C   0  0  0  0  0  0  0  0  0  0  0  0
   43.6105    5.0330   12.3219 C   0  0  0  0  0  0  0  0  0  0  0  0
   45.3722    3.3989   12.5531 C   0  0  0  0  0  0  0  0  0  0  0  0
   52.6309   11.6294   14.2312 C   0  0  0  0  0  0  0  0  0  0  0  0
   51.9296   12.2461   15.2658 C   0  0  0  0  0  0  0  0  0  0  0  0
   44.0759    3.7290   12.1612 C   0  0  0  0  0  0  0  0  0  0  0  0
   50.3782    9.6511   12.4438 N   0  0  0  0  0  0  0  0  0  0  0  0
   48.9198    9.5625   12.6628 C   0  0  1  0  0  0  0  0  0  0  0  0
   50.4521    8.4203   11.8504 C   0  0  0  0  0  0  0  0  0  0  0  0
   48.9134    8.3059   11.7574 C   0  0  1  0  0  0  0  0  0  0  0  0
   51.2255    9.9392   13.6013 C   0  0  2  0  0  0  0  0  0  0  0  0
   48.7795    9.3254   14.4836 S   0  0  0  0  0  0  0  0  0  0  0  0
   50.3073   10.3421   14.7730 C   0  0  0  0  0  0  0  0  0  0  0  0
   48.3087    7.0650   12.3131 N   0  0  0  0  0  0  0  0  0  0  0  0
   52.2610   10.9975   13.2449 C   0  0  0  0  0  0  0  0  0  0  0  0
   46.9382    6.9451   12.4258 C   0  0  0  0  0  0  0  0  0  0  0  0
   51.3968    7.6926   11.6479 O   0  0  0  0  0  0  0  0  0  0  0  0
   52.1850   11.8428   12.3669 O   0  0  0  0  0  0  0  0  0  0  0  0
   46.1810    7.8233   12.0186 O   0  0  0  0  0  0  0  0  0  0  0  0
   46.4741    5.6776   13.1248 C   0  0  0  0  0  0  0  0  0  0  0  0
   53.3385   10.9661   14.0581 O   0  0  0  0  0  0  0  0  0  0  0  0
   49.9005   11.8226   14.7850 C   0  0  0  0  0  0  0  0  0  0  0  0
   50.9030    9.9522   16.1281 C   0  0  0  0  0  0  0  0  0  0  0  0
   45.2799    5.0257   12.4724 C   0  0  0  0  0  0  0  0  0  0  0  0
   43.9848    5.4962   12.7324 C   0  0  0  0  0  0  0  0  0  0  0  0
   45.4460    3.9516   11.5870 C   0  0  0  0  0  0  0  0  0  0  0  0
   42.8779    4.8939   12.1325 C   0  0  0  0  0  0  0  0  0  0  0  0
   44.3365    3.3496   10.9890 C   0  0  0  0  0  0  0  0  0  0  0  0
   43.0535    3.8188   11.2642 C   0  0  0  0  0  0  0  0  0  0  0  0
   48.3167    7.7828   13.4845 O   0  0  0  0  0  0  0  0  0  0  0  0
   48.3157    7.7816   13.4843 O   0  0  0  0  0  0  0  0  0  0  0  0
   48.3178    7.7840   13.4847 O   0  0  0  0  0  0  0  0  0  0  0  0
   48.6013    8.6883   13.2366 H   0  0  0  0  0  0  0  0  0  0  0  0
   47.5561    7.6182   12.9274 H   0  0  0  0  0  0  0  0  0  0  0  0
   50.8724    7.5083   12.4161 H   0  0  0  0  0  0  0  0  0  0  0  0
   49.5547    6.1107   13.9927 H   0  0  0  0  0  0  0  0  0  0  0  0
   51.2395   10.1793   15.4752 H   0  0  0  0  0  0  0  0  0  0  0  0
   47.2295    7.8211   14.3848 H   0  0  0  0  0  0  0  0  0  0  0  0
   45.5627    7.8027   11.6810 H   0  0  0  0  0  0  0  0  0  0  0  0
   45.3294    7.5115   13.3914 H   0  0  0  0  0  0  0  0  0  0  0  0
   54.2299   10.9520   14.0349 H   0  0  0  0  0  0  0  0  0  0  0  0
   49.4297   11.8608   15.3074 H   0  0  0  0  0  0  0  0  0  0  0  0
   48.5132   10.3856   15.0019 H   0  0  0  0  0  0  0  0  0  0  0  0
   48.3071   11.7854   13.9493 H   0  0  0  0  0  0  0  0  0  0  0  0
   51.5399   11.6630   12.1468 H   0  0  0  0  0  0  0  0  0  0  0  0
   50.0053   12.5071   12.3598 H   0  0  0  0  0  0  0  0  0  0  0  0
   51.2493   12.6303   13.6021 H   0  0  0  0  0  0  0  0  0  0  0  0
   45.0085    6.0496   10.0202 H   0  0  0  0  0  0  0  0  0  0  0  0
   44.6629    5.2437   14.2478 H   0  0  0  0  0  0  0  0  0  0  0  0
   43.7149    4.0042    9.5361 H   0  0  0  0  0  0  0  0  0  0  0  0
   43.3788    3.1982   13.7428 H   0  0  0  0  0  0  0  0  0  0  0  0
   42.8969    2.5742   11.3913 H   0  0  0  0  0  0  0  0  0  0  0  0
   47.4165    8.5782   13.5924 H   0  0  0  0  0  0  0  0  0  0  0  0
   50.6149    8.0423   13.2835 H   0  0  0  0  0  0  0  0  0  0  0  0
   46.1839    7.0525   14.8276 H   0  0  0  0  0  0  0  0  0  0  0  0
   47.6173    6.3106   14.1612 H   0  0  0  0  0  0  0  0  0  0  0  0
   50.4062    9.6814   11.5103 H   0  0  0  0  0  0  0  0  0  0  0  0
   48.8722   10.1714   12.2240 H   0  0  0  0  0  0  0  0  0  0  0  0
   47.4681    8.5440   11.1710 H   0  0  0  0  0  0  0  0  0  0  0  0
   47.1653    6.8257   11.2505 H   0  0  0  0  0  0  0  0  0  0  0  0
   49.6385    7.4641   11.1013 H   0  0  0  0  0  0  0  0  0  0  0  0
   49.2349    6.4285   12.4578 H   0  0  0  0  0  0  0  0  0  0  0  0
   48.8099   11.0809   14.5885 H   0  0  0  0  0  0  0  0  0  0  0  0
   52.5207   10.3383   12.5183 H   0  0  0  0  0  0  0  0  0  0  0  0
   44.0762    7.0257   12.9900 H   0  0  0  0  0  0  0  0  0  0  0  0
   47.2124    4.0982   13.4098 H   0  0  0  0  0  0  0  0  0  0  0  0
   50.0078   12.5261   16.1980 H   0  0  0  0  0  0  0  0  0  0  0  0
   42.5998    5.2925   12.0171 H   0  0  0  0  0  0  0  0  0  0  0  0
   45.7341    2.3814   12.4294 H   0  0  0  0  0  0  0  0  0  0  0  0
   53.7042   11.7770   14.1399 H   0  0  0  0  0  0  0  0  0  0  0  0
   52.4540   12.8755   15.9795 H   0  0  0  0  0  0  0  0  0  0  0  0
   43.4275    2.9697   11.7312 H   0  0  0  0  0  0  0  0  0  0  0  0
   48.3819   10.4296   12.2654 H   0  0  0  0  0  0  0  0  0  0  0  0
   48.5566    8.4899   10.7360 H   0  0  0  0  0  0  0  0  0  0  0  0
   51.7764    9.0193   13.8420 H   0  0  0  0  0  0  0  0  0  0  0  0
   48.9039    6.3833   12.7732 H   0  0  0  0  0  0  0  0  0  0  0  0
   46.2350    5.9372   14.1637 H   0  0  0  0  0  0  0  0  0  0  0  0
   47.2968    4.9542   13.1747 H   0  0  0  0  0  0  0  0  0  0  0  0
   53.9257   11.6682   13.7038 H   0  0  0  0  0  0  0  0  0  0  0  0
   49.4900   12.1508   13.8232 H   0  0  0  0  0  0  0  0  0  0  0  0
   50.7609   12.4639   15.0077 H   0  0  0  0  0  0  0  0  0  0  0  0
   49.1474   12.0248   15.5573 H   0  0  0  0  0  0  0  0  0  0  0  0
   51.1748    8.8915   16.1663 H   0  0  0  0  0  0  0  0  0  0  0  0
   50.2035   10.1490   16.9498 H   0  0  0  0  0  0  0  0  0  0  0  0
   51.8129   10.5283   16.3346 H   0  0  0  0  0  0  0  0  0  0  0  0
   43.8334    6.3452   13.3960 H   0  0  0  0  0  0  0  0  0  0  0  0
   46.4388    3.5728   11.3550 H   0  0  0  0  0  0  0  0  0  0  0  0
   41.8794    5.2694   12.3394 H   0  0  0  0  0  0  0  0  0  0  0  0
   44.4729    2.5155   10.3049 H   0  0  0  0  0  0  0  0  0  0  0  0
   42.1903    3.3513   10.7974 H   0  0  0  0  0  0  0  0  0  0  0  0
   47.5497    7.6418   12.9092 H   0  0  0  0  0  0  0  0  0  0  0  0
   48.6183    8.6754   13.2580 H   0  0  0  0  0  0  0  0  0  0  0  0
   47.5489    7.6439   12.9074 H   0  0  0  0  0  0  0  0  0  0  0  0
   48.6201    8.6744   13.2600 H   0  0  0  0  0  0  0  0  0  0  0  0
   48.6164    8.6768   13.2556 H   0  0  0  0  0  0  0  0  0  0  0  0
   47.5506    7.6391   12.9114 H   0  0  0  0  0  0  0  0  0  0  0  0
  3  2  1  0
  4  2  1  0
  5  3  1  0
  6  2  1  0
  3  7  1  0
  8  6  1  0
  5  9  1  0
  6 10  1  0
 11  9  1  0
 12  4  2  0
 13 10  2  0
 14 11  2  0
 15 11  1  0
 16 10  1  0
 17  8  1  0
 18  8  1  0
 19 15  1  0
 20 19  2  0
 21 19  1  0
 22 20  1  0
 23 21  2  0
 24 23  1  0
  7  8  1  0
  4  5  1  0
 24 22  2  0
 26 32  1  0
 27 30  1  0
 28 29  1  0
 29 25  1  0
 30 26  1  0
 31 25  1  0
 32 31  1  0
 33 27  2  0
 34 27  1  0
 35 28  2  0
 36 28  1  0
 37 33  1  0
 38 35  1  0
 39 36  2  0
 40 34  2  0
 41 37  2  0
 42 39  1  0
 42 38  2  0
 40 41  1  0
 44 43  1  0
 45 43  1  0
 46 44  1  0
 47 43  1  0
 44 48  1  0
 49 47  1  0
 46 50  1  0
 47 51  1  0
 52 50  1  0
 53 45  2  0
 54 51  2  0
 55 52  2  0
 56 52  1  0
 57 51  1  0
 58 49  1  0
 59 49  1  0
 60 56  1  0
 61 60  2  0
 62 60  1  0
 63 61  1  0
 64 62  2  0
 65 64  1  0
 48 49  1  0
 45 46  1  0
 65 63  2  0
  1 69  1  0
  1 70  1  0
  3 71  1  6
  5 72  1  6
  6 73  1  1
  9 74  1  0
 15 75  1  0
 15 76  1  0
 16 77  1  0
 17 78  1  0
 17 79  1  0
 17 80  1  0
 18 81  1  0
 18 82  1  0
 18 83  1  0
 20 84  1  0
 21 85  1  0
 22 86  1  0
 23 87  1  0
 24 88  1  0
 25 89  1  0
 26 90  1  0
 29 91  1  0
 29 92  1  0
 30 93  1  0
 30 94  1  0
 31 95  1  0
 31 96  1  0
 32 97  1  0
 32 98  1  0
 33 99  1  0
 34100  1  0
 35101  1  0
 36102  1  0
 37103  1  0
 38104  1  0
 39105  1  0
 40106  1  0
 41107  1  0
 42108  1  0
 44109  1  1
 46110  1  6
 47111  1  6
 50112  1  0
 56113  1  0
 56114  1  0
 57115  1  0
 58116  1  0
 58117  1  0
 58118  1  0
 59119  1  0
 59120  1  0
 59121  1  0
 61122  1  0
 62123  1  0
 63124  1  0
 64125  1  0
 65126  1  0
 66127  1  0
 66128  1  0
 67129  1  0
 67130  1  0
 68131  1  0
 68132  1  0
M  END
> <Uni-Dock RESULT> 
ENERGY=   -7.853  LOWER_BOUND=    0.885  UPPER_BOUND=    0.986
INTER + INTRA:          -7.853
INTER:                  -7.853
INTRA:                   0.000
UNBOUND:                 0.000

$$$$

     RDKit          3D

132133  0  0  0  0  0  0  0  0999 V2000
   47.3337    8.7813   12.4024 O   0  0  0  0  0  0  0  0  0  0  0  0
   48.0691   11.2376   13.3423 N   0  0  0  0  0  0  0  0  0  0  0  0
   47.9803    9.8602   13.8618 C   0  0  1  0  0  0  0  0  0  0  0  0
   47.1912   11.0073   12.3222 C   0  0  0  0  0  0  0  0  0  0  0  0
   46.7312    9.6714   12.9552 C   0  0  1  0  0  0  0  0  0  0  0  0
   49.4055   11.7639   13.0924 C   0  0  2  0  0  0  0  0  0  0  0  0
   49.5463    9.0446   13.3251 S   0  0  0  0  0  0  0  0  0  0  0  0
   50.2969   10.5899   12.6288 C   0  0  0  0  0  0  0  0  0  0  0  0
   46.7074    8.4948   12.0455 N   0  0  0  0  0  0  0  0  0  0  0  0
   49.8804   12.4287   14.3815 C   0  0  0  0  0  0  0  0  0  0  0  0
   46.5317    7.2226   12.5484 C   0  0  0  0  0  0  0  0  0  0  0  0
   47.0180   11.5895   11.2787 O   0  0  0  0  0  0  0  0  0  0  0  0
   49.5907   12.1226   15.5277 O   0  0  0  0  0  0  0  0  0  0  0  0
   46.3550    7.0200   13.7473 O   0  0  0  0  0  0  0  0  0  0  0  0
   46.6017    6.1169   11.5092 C   0  0  0  0  0  0  0  0  0  0  0  0
   50.7367   13.4486   14.1540 O   0  0  0  0  0  0  0  0  0  0  0  0
   50.2859   10.4550   11.0967 C   0  0  0  0  0  0  0  0  0  0  0  0
   51.7561   10.6677   13.0940 C   0  0  0  0  0  0  0  0  0  0  0  0
   45.4238    5.1772   11.5682 C   0  0  0  0  0  0  0  0  0  0  0  0
   45.4761    4.0234   12.3623 C   0  0  0  0  0  0  0  0  0  0  0  0
   44.2502    5.4604   10.8554 C   0  0  0  0  0  0  0  0  0  0  0  0
   44.3815    3.1607   12.4284 C   0  0  0  0  0  0  0  0  0  0  0  0
   43.1561    4.5959   10.9239 C   0  0  0  0  0  0  0  0  0  0  0  0
   43.2224    3.4460   11.7087 C   0  0  0  0  0  0  0  0  0  0  0  0
   47.3944    7.4322   11.6101 N   0  0  0  0  0  0  0  0  0  0  0  0
   48.2311    9.5072   13.4442 N   0  0  0  0  0  0  0  0  0  0  0  0
   50.3161   10.7132   13.0446 C   0  0  0  0  0  0  0  0  0  0  0  0
   45.0716    6.5159   11.4746 C   0  0  0  0  0  0  0  0  0  0  0  0
   45.9786    7.7173   11.3438 C   0  0  0  0  0  0  0  0  0  0  0  0
   49.6921    9.4058   13.4712 C   0  0  0  0  0  0  0  0  0  0  0  0
   47.6564    7.0847   13.0178 C   0  0  0  0  0  0  0  0  0  0  0  0
   47.5846    8.2960   13.9752 C   0  0  0  0  0  0  0  0  0  0  0  0
   50.4481   11.0260   11.6837 C   0  0  0  0  0  0  0  0  0  0  0  0
   50.7360   11.6511   13.9995 C   0  0  0  0  0  0  0  0  0  0  0  0
   45.3098    5.3540   10.7258 C   0  0  0  0  0  0  0  0  0  0  0  0
   43.9605    6.5529   12.3302 C   0  0  0  0  0  0  0  0  0  0  0  0
   51.0036   12.2432   11.2867 C   0  0  0  0  0  0  0  0  0  0  0  0
   44.4614    4.2514   10.8353 C   0  0  0  0  0  0  0  0  0  0  0  0
   43.1134    5.4489   12.4404 C   0  0  0  0  0  0  0  0  0  0  0  0
   51.2893   12.8688   13.6001 C   0  0  0  0  0  0  0  0  0  0  0  0
   51.4243   13.1640   12.2447 C   0  0  0  0  0  0  0  0  0  0  0  0
   43.3639    4.2991   11.6932 C   0  0  0  0  0  0  0  0  0  0  0  0
   49.7058    9.7697   13.8665 N   0  0  0  0  0  0  0  0  0  0  0  0
   49.3414    8.8699   12.7529 C   0  0  1  0  0  0  0  0  0  0  0  0
   48.7624    9.2501   14.7106 C   0  0  0  0  0  0  0  0  0  0  0  0
   48.4648    8.0746   13.7519 C   0  0  1  0  0  0  0  0  0  0  0  0
   49.7163   11.2092   13.6049 C   0  0  2  0  0  0  0  0  0  0  0  0
   48.5017    9.9931   11.5593 S   0  0  0  0  0  0  0  0  0  0  0  0
   49.5755   11.4160   12.0831 C   0  0  0  0  0  0  0  0  0  0  0  0
   47.0369    7.8620   13.3910 N   0  0  0  0  0  0  0  0  0  0  0  0
   50.9703   11.8418   14.1937 C   0  0  0  0  0  0  0  0  0  0  0  0
   46.6909    6.9474   12.4168 C   0  0  0  0  0  0  0  0  0  0  0  0
   48.2856    9.6870   15.7328 O   0  0  0  0  0  0  0  0  0  0  0  0
   52.0369   11.2947   14.4270 O   0  0  0  0  0  0  0  0  0  0  0  0
   47.5355    6.2439   11.8672 O   0  0  0  0  0  0  0  0  0  0  0  0
   45.2112    6.9303   12.0688 C   0  0  0  0  0  0  0  0  0  0  0  0
   50.8288   13.1656   14.4190 O   0  0  0  0  0  0  0  0  0  0  0  0
   50.8950   11.3309   11.3027 C   0  0  0  0  0  0  0  0  0  0  0  0
   48.8520   12.7223   11.7468 C   0  0  0  0  0  0  0  0  0  0  0  0
   44.6453    5.5434   11.8871 C   0  0  0  0  0  0  0  0  0  0  0  0
   44.8128    4.8623   10.6729 C   0  0  0  0  0  0  0  0  0  0  0  0
   43.9573    4.9091   12.9310 C   0  0  0  0  0  0  0  0  0  0  0  0
   44.2884    3.5805   10.5008 C   0  0  0  0  0  0  0  0  0  0  0  0
   43.4322    3.6267   12.7557 C   0  0  0  0  0  0  0  0  0  0  0  0
   43.5953    2.9646   11.5404 C   0  0  0  0  0  0  0  0  0  0  0  0
   47.3233    8.7702   12.4008 O   0  0  0  0  0  0  0  0  0  0  0  0
   47.3221    8.7692   12.4006 O   0  0  0  0  0  0  0  0  0  0  0  0
   47.3246    8.7713   12.4009 O   0  0  0  0  0  0  0  0  0  0  0  0
   48.2910    8.9224   12.4547 H   0  0  0  0  0  0  0  0  0  0  0  0
   47.2433    7.8226   12.2930 H   0  0  0  0  0  0  0  0  0  0  0  0
   47.7857    9.8182   14.9377 H   0  0  0  0  0  0  0  0  0  0  0  0
   45.7735    9.7805   13.4799 H   0  0  0  0  0  0  0  0  0  0  0  0
   49.3270   12.5423   12.3240 H   0  0  0  0  0  0  0  0  0  0  0  0
   46.9070    8.6212   11.0597 H   0  0  0  0  0  0  0  0  0  0  0  0
   47.5382    5.5681   11.6675 H   0  0  0  0  0  0  0  0  0  0  0  0
   46.6710    6.5419   10.4994 H   0  0  0  0  0  0  0  0  0  0  0  0
   50.9516   13.7827   15.0510 H   0  0  0  0  0  0  0  0  0  0  0  0
   50.6914   11.3605   10.6292 H   0  0  0  0  0  0  0  0  0  0  0  0
   49.2828   10.3013   10.6884 H   0  0  0  0  0  0  0  0  0  0  0  0
   50.9056    9.6149   10.7604 H   0  0  0  0  0  0  0  0  0  0  0  0
   51.8485   10.6597   14.1860 H   0  0  0  0  0  0  0  0  0  0  0  0
   52.3458    9.8252   12.7132 H   0  0  0  0  0  0  0  0  0  0  0  0
   52.2317   11.5839   12.7241 H   0  0  0  0  0  0  0  0  0  0  0  0
   46.3676    3.7962   12.9436 H   0  0  0  0  0  0  0  0  0  0  0  0
   44.1769    6.3562   10.2440 H   0  0  0  0  0  0  0  0  0  0  0  0
   44.4312    2.2695   13.0492 H   0  0  0  0  0  0  0  0  0  0  0  0
   42.2485    4.8219   10.3696 H   0  0  0  0  0  0  0  0  0  0  0  0
   42.3692    2.7754   11.7654 H   0  0  0  0  0  0  0  0  0  0  0  0
   47.9009    8.3088   11.4477 H   0  0  0  0  0  0  0  0  0  0  0  0
   47.9622   10.3034   14.0227 H   0  0  0  0  0  0  0  0  0  0  0  0
   45.8936    8.0794   10.3116 H   0  0  0  0  0  0  0  0  0  0  0  0
   45.6262    8.5429   11.9737 H   0  0  0  0  0  0  0  0  0  0  0  0
   50.0447    9.1504   14.4786 H   0  0  0  0  0  0  0  0  0  0  0  0
   50.0470    8.6143   12.8007 H   0  0  0  0  0  0  0  0  0  0  0  0
   48.6718    6.6724   13.0586 H   0  0  0  0  0  0  0  0  0  0  0  0
   46.9982    6.2835   13.3717 H   0  0  0  0  0  0  0  0  0  0  0  0
   47.9989    8.0273   14.9542 H   0  0  0  0  0  0  0  0  0  0  0  0
   46.5285    8.5371   14.1458 H   0  0  0  0  0  0  0  0  0  0  0  0
   50.1103   10.3201   10.9276 H   0  0  0  0  0  0  0  0  0  0  0  0
   50.6310   11.4386   15.0610 H   0  0  0  0  0  0  0  0  0  0  0  0
   46.1691    5.3080   10.0597 H   0  0  0  0  0  0  0  0  0  0  0  0
   43.7496    7.4431   12.9180 H   0  0  0  0  0  0  0  0  0  0  0  0
   51.1030   12.4744   10.2294 H   0  0  0  0  0  0  0  0  0  0  0  0
   44.6584    3.3557   10.2516 H   0  0  0  0  0  0  0  0  0  0  0  0
   42.2564    5.4864   13.1078 H   0  0  0  0  0  0  0  0  0  0  0  0
   51.6115   13.5901   14.3472 H   0  0  0  0  0  0  0  0  0  0  0  0
   51.8528   14.1129   11.9342 H   0  0  0  0  0  0  0  0  0  0  0  0
   42.7031    3.4401   11.7786 H   0  0  0  0  0  0  0  0  0  0  0  0
   50.2040    8.3279   12.3512 H   0  0  0  0  0  0  0  0  0  0  0  0
   48.9207    7.1411   14.1053 H   0  0  0  0  0  0  0  0  0  0  0  0
   48.8578   11.6455   14.1342 H   0  0  0  0  0  0  0  0  0  0  0  0
   46.3350    8.5127   13.7298 H   0  0  0  0  0  0  0  0  0  0  0  0
   45.0779    7.5103   11.1470 H   0  0  0  0  0  0  0  0  0  0  0  0
   44.6379    7.4548   12.8426 H   0  0  0  0  0  0  0  0  0  0  0  0
   51.6851   13.4330   14.8173 H   0  0  0  0  0  0  0  0  0  0  0  0
   51.4583   10.4192   11.5326 H   0  0  0  0  0  0  0  0  0  0  0  0
   51.5443   12.1824   11.5362 H   0  0  0  0  0  0  0  0  0  0  0  0
   50.7218   11.3534   10.2192 H   0  0  0  0  0  0  0  0  0  0  0  0
   47.8884   12.8015   12.2623 H   0  0  0  0  0  0  0  0  0  0  0  0
   48.6652   12.8164   10.6700 H   0  0  0  0  0  0  0  0  0  0  0  0
   49.4529   13.5893   12.0465 H   0  0  0  0  0  0  0  0  0  0  0  0
   45.3655    5.3245    9.8574 H   0  0  0  0  0  0  0  0  0  0  0  0
   43.8228    5.4062   13.8890 H   0  0  0  0  0  0  0  0  0  0  0  0
   44.4273    3.0615    9.5562 H   0  0  0  0  0  0  0  0  0  0  0  0
   42.8979    3.1417   13.5692 H   0  0  0  0  0  0  0  0  0  0  0  0
   43.1881    1.9659   11.4048 H   0  0  0  0  0  0  0  0  0  0  0  0
   47.2704    7.8087   12.2925 H   0  0  0  0  0  0  0  0  0  0  0  0
   48.2743    8.9475   12.4568 H   0  0  0  0  0  0  0  0  0  0  0  0
   47.2728    7.8071   12.2924 H   0  0  0  0  0  0  0  0  0  0  0  0
   48.2730    8.9500   12.4571 H   0  0  0  0  0  0  0  0  0  0  0  0
   48.2762    8.9446   12.4566 H   0  0  0  0  0  0  0  0  0  0  0  0
   47.2672    7.8104   12.2926 H   0  0  0  0  0  0  0  0  0  0  0  0
  3  2  1  0
  4  2  1  0
  5  3  1  0
  6  2  1  0
  3  7  1  0
  8  6  1  0
  5  9  1  0
  6 10  1  0
 11  9  1  0
 12  4  2  0
 13 10  2  0
 14 11  2  0
 15 11  1  0
 16 10  1  0
 17  8  1  0
 18  8  1  0
 19 15  1  0
 20 19  2  0
 21 19  1  0
 22 20  1  0
 23 21  2  0
 24 23  1  0
  7  8  1  0
  4  5  1  0
 24 22  2  0
 26 32  1  0
 27 30  1  0
 28 29  1  0
 29 25  1  0
 30 26  1  0
 31 25  1  0
 32 31  1  0
 33 27  2  0
 34 27  1  0
 35 28  2  0
 36 28  1  0
 37 33  1  0
 38 35  1  0
 39 36  2  0
 40 34  2  0
 41 37  2  0
 42 39  1  0
 42 38  2  0
 40 41  1  0
 44 43  1  0
 45 43  1  0
 46 44  1  0
 47 43  1  0
 44 48  1  0
 49 47  1  0
 46 50  1  0
 47 51  1  0
 52 50  1  0
 53 45  2  0
 54 51  2  0
 55 52  2  0
 56 52  1  0
 57 51  1  0
 58 49  1  0
 59 49  1  0
 60 56  1  0
 61 60  2  0
 62 60  1  0
 63 61  1  0
 64 62  2  0
 65 64  1  0
 48 49  1  0
 45 46  1  0
 65 63  2  0
  1 69  1  0
  1 70  1  0
  3 71  1  6
  5 72  1  6
  6 73  1  1
  9 74  1  0
 15 75  1  0
 15 76  1  0
 16 77  1  0
 17 78  1  0
 17 79  1  0
 17 80  1  0
 18 81  1  0
 18 82  1  0
 18 83  1  0
 20 84  1  0
 21 85  1  0
 22 86  1  0
 23 87  1  0
 24 88  1  0
 25 89  1  0
 26 90  1  0
 29 91  1  0
 29 92  1  0
 30 93  1  0
 30 94  1  0
 31 95  1  0
 31 96  1  0
 32 97  1  0
 32 98  1  0
 33 99  1  0
 34100  1  0
 35101  1  0
 36102  1  0
 37103  1  0
 38104  1  0
 39105  1  0
 40106  1  0
 41107  1  0
 42108  1  0
 44109  1  1
 46110  1  6
 47111  1  6
 50112  1  0
 56113  1  0
 56114  1  0
 57115  1  0
 58116  1  0
 58117  1  0
 58118  1  0
 59119  1  0
 59120  1  0
 59121  1  0
 61122  1  0
 62123  1  0
 63124  1  0
 64125  1  0
 65126  1  0
 66127  1  0
 66128  1  0
 67129  1  0
 67130  1  0
 68131  1  0
 68132  1  0
M  END
> <Uni-Dock RESULT> 
ENERGY=   -7.732  LOWER_BOUND=    1.166  UPPER_BOUND=    2.183
INTER + INTRA:          -7.732
INTER:                  -7.732
INTRA:                   0.000
UNBOUND:                 0.000

$$$$

     RDKit          3D

132133  0  0  0  0  0  0  0  0999 V2000
   49.1278    9.0552   19.4133 O   0  0  0  0  0  0  0  0  0  0  0  0
   50.0587   11.6198   19.2977 N   0  0  0  0  0  0  0  0  0  0  0  0
   48.9873   10.8261   18.6676 C   0  0  1  0  0  0  0  0  0  0  0  0
   50.7936   10.5226   19.6441 C   0  0  0  0  0  0  0  0  0  0  0  0
   49.9513    9.6074   18.7222 C   0  0  1  0  0  0  0  0  0  0  0  0
   49.6520   12.6079   20.2895 C   0  0  2  0  0  0  0  0  0  0  0  0
   47.5940   10.8576   19.8773 S   0  0  0  0  0  0  0  0  0  0  0  0
   48.4169   12.0511   21.0326 C   0  0  0  0  0  0  0  0  0  0  0  0
   49.4457    8.3516   19.3386 N   0  0  0  0  0  0  0  0  0  0  0  0
   49.3889   13.9153   19.5472 C   0  0  0  0  0  0  0  0  0  0  0  0
   48.5085    7.5779   18.6865 C   0  0  0  0  0  0  0  0  0  0  0  0
   51.6509   10.3747   20.4815 O   0  0  0  0  0  0  0  0  0  0  0  0
   48.9862   14.0536   18.4026 O   0  0  0  0  0  0  0  0  0  0  0  0
   48.0883    7.8748   17.5708 O   0  0  0  0  0  0  0  0  0  0  0  0
   48.0346    6.3655   19.4693 C   0  0  0  0  0  0  0  0  0  0  0  0
   49.6253   15.0029   20.3129 O   0  0  0  0  0  0  0  0  0  0  0  0
   48.8314   11.2634   22.2870 C   0  0  0  0  0  0  0  0  0  0  0  0
   47.3856   13.1075   21.4475 C   0  0  0  0  0  0  0  0  0  0  0  0
   48.1148    5.0845   18.6778 C   0  0  0  0  0  0  0  0  0  0  0  0
   47.0188    4.6492   17.9201 C   0  0  0  0  0  0  0  0  0  0  0  0
   49.2956    4.3288   18.6634 C   0  0  0  0  0  0  0  0  0  0  0  0
   47.0970    3.4714   17.1762 C   0  0  0  0  0  0  0  0  0  0  0  0
   49.3714    3.1511   17.9176 C   0  0  0  0  0  0  0  0  0  0  0  0
   48.2723    2.7219   17.1757 C   0  0  0  0  0  0  0  0  0  0  0  0
   48.4096    7.7755   19.9592 N   0  0  0  0  0  0  0  0  0  0  0  0
   48.7179   10.5248   19.1132 N   0  0  0  0  0  0  0  0  0  0  0  0
   48.3543   12.3352   20.7104 C   0  0  0  0  0  0  0  0  0  0  0  0
   49.3020    5.8019   18.7094 C   0  0  0  0  0  0  0  0  0  0  0  0
   49.6006    7.0893   19.4418 C   0  0  0  0  0  0  0  0  0  0  0  0
   47.7043   11.2588   19.8742 C   0  0  0  0  0  0  0  0  0  0  0  0
   47.5397    8.3013   18.8926 C   0  0  0  0  0  0  0  0  0  0  0  0
   48.1151    9.5511   18.1883 C   0  0  0  0  0  0  0  0  0  0  0  0
   48.9328   12.0198   21.9487 C   0  0  0  0  0  0  0  0  0  0  0  0
   48.4258   13.6569   20.2460 C   0  0  0  0  0  0  0  0  0  0  0  0
   48.5863    4.7710   19.3359 C   0  0  0  0  0  0  0  0  0  0  0  0
   49.7583    5.6075   17.3971 C   0  0  0  0  0  0  0  0  0  0  0  0
   49.5542   13.0082   22.7133 C   0  0  0  0  0  0  0  0  0  0  0  0
   48.3260    3.5760   18.6638 C   0  0  0  0  0  0  0  0  0  0  0  0
   49.4959    4.4125   16.7250 C   0  0  0  0  0  0  0  0  0  0  0  0
   49.0497   14.6435   21.0113 C   0  0  0  0  0  0  0  0  0  0  0  0
   49.6123   14.3196   22.2447 C   0  0  0  0  0  0  0  0  0  0  0  0
   48.7804    3.3977   17.3582 C   0  0  0  0  0  0  0  0  0  0  0  0
   47.8193   11.7016   19.5922 N   0  0  0  0  0  0  0  0  0  0  0  0
   47.7907   10.3660   20.2231 C   0  0  1  0  0  0  0  0  0  0  0  0
   47.7849   11.1979   18.3204 C   0  0  0  0  0  0  0  0  0  0  0  0
   47.4712    9.7722   18.8288 C   0  0  1  0  0  0  0  0  0  0  0  0
   48.8996   12.6124   19.9719 C   0  0  2  0  0  0  0  0  0  0  0  0
   49.4996   10.1730   20.8816 S   0  0  0  0  0  0  0  0  0  0  0  0
   49.6314   12.0014   21.1841 C   0  0  0  0  0  0  0  0  0  0  0  0
   48.3545    8.6838   18.3295 N   0  0  0  0  0  0  0  0  0  0  0  0
   48.3451   14.0067   20.2325 C   0  0  0  0  0  0  0  0  0  0  0  0
   48.2583    7.4101   18.8527 C   0  0  0  0  0  0  0  0  0  0  0  0
   48.0593   11.7066   17.2579 O   0  0  0  0  0  0  0  0  0  0  0  0
   47.2061   14.3022   20.5590 O   0  0  0  0  0  0  0  0  0  0  0  0
   47.4086    7.1234   19.6931 O   0  0  0  0  0  0  0  0  0  0  0  0
   49.3065    6.4381   18.3358 C   0  0  0  0  0  0  0  0  0  0  0  0
   49.2828   14.9707   20.1117 O   0  0  0  0  0  0  0  0  0  0  0  0
   48.9837   12.3086   22.5418 C   0  0  0  0  0  0  0  0  0  0  0  0
   51.1129   12.3853   21.2123 C   0  0  0  0  0  0  0  0  0  0  0  0
   48.7630    5.0644   18.0287 C   0  0  0  0  0  0  0  0  0  0  0  0
   48.5794    4.1281   19.0563 C   0  0  0  0  0  0  0  0  0  0  0  0
   48.4202    4.7075   16.7171 C   0  0  0  0  0  0  0  0  0  0  0  0
   48.0794    2.8558   18.7752 C   0  0  0  0  0  0  0  0  0  0  0  0
   47.9212    3.4330   16.4382 C   0  0  0  0  0  0  0  0  0  0  0  0
   47.7540    2.5073   17.4664 C   0  0  0  0  0  0  0  0  0  0  0  0
   49.1272    9.0409   19.4078 O   0  0  0  0  0  0  0  0  0  0  0  0
   49.1273    9.0395   19.4072 O   0  0  0  0  0  0  0  0  0  0  0  0
   49.1271    9.0425   19.4085 O   0  0  0  0  0  0  0  0  0  0  0  0
   48.5965    9.6990   19.9057 H   0  0  0  0  0  0  0  0  0  0  0  0
   48.5544    8.2764   19.3511 H   0  0  0  0  0  0  0  0  0  0  0  0
   48.7305   11.1723   17.6619 H   0  0  0  0  0  0  0  0  0  0  0  0
   50.4680    9.3994   17.7767 H   0  0  0  0  0  0  0  0  0  0  0  0
   50.4951   12.7740   20.9707 H   0  0  0  0  0  0  0  0  0  0  0  0
   49.7286    8.1085   20.2812 H   0  0  0  0  0  0  0  0  0  0  0  0
   47.0021    6.5556   19.7874 H   0  0  0  0  0  0  0  0  0  0  0  0
   48.6163    6.2528   20.3935 H   0  0  0  0  0  0  0  0  0  0  0  0
   49.4268   15.7586   19.7196 H   0  0  0  0  0  0  0  0  0  0  0  0
   49.3550   11.9174   22.9948 H   0  0  0  0  0  0  0  0  0  0  0  0
   49.4995   10.4263   22.0645 H   0  0  0  0  0  0  0  0  0  0  0  0
   47.9607   10.8530   22.8127 H   0  0  0  0  0  0  0  0  0  0  0  0
   46.9636   13.6410   20.5882 H   0  0  0  0  0  0  0  0  0  0  0  0
   46.5470   12.6592   21.9937 H   0  0  0  0  0  0  0  0  0  0  0  0
   47.8398   13.8509   22.1134 H   0  0  0  0  0  0  0  0  0  0  0  0
   46.1004    5.2325   17.8966 H   0  0  0  0  0  0  0  0  0  0  0  0
   50.1658    4.6513   19.2295 H   0  0  0  0  0  0  0  0  0  0  0  0
   46.2422    3.1434   16.5900 H   0  0  0  0  0  0  0  0  0  0  0  0
   50.2905    2.5702   17.9098 H   0  0  0  0  0  0  0  0  0  0  0  0
   48.3328    1.8074   16.5918 H   0  0  0  0  0  0  0  0  0  0  0  0
   48.7487    8.6005   20.4650 H   0  0  0  0  0  0  0  0  0  0  0  0
   49.2545   11.2030   18.5720 H   0  0  0  0  0  0  0  0  0  0  0  0
   50.2445    6.8381   20.2939 H   0  0  0  0  0  0  0  0  0  0  0  0
   50.1941    7.7661   18.8156 H   0  0  0  0  0  0  0  0  0  0  0  0
   46.9714   11.7201   19.2000 H   0  0  0  0  0  0  0  0  0  0  0  0
   47.1460   10.5894   20.5393 H   0  0  0  0  0  0  0  0  0  0  0  0
   46.5901    8.5786   19.3661 H   0  0  0  0  0  0  0  0  0  0  0  0
   47.2874    7.5331   18.1532 H   0  0  0  0  0  0  0  0  0  0  0  0
   47.3429   10.0238   17.5698 H   0  0  0  0  0  0  0  0  0  0  0  0
   48.9023    9.2248   17.4981 H   0  0  0  0  0  0  0  0  0  0  0  0
   48.9051   10.9964   22.3175 H   0  0  0  0  0  0  0  0  0  0  0  0
   47.9978   13.9242   19.2824 H   0  0  0  0  0  0  0  0  0  0  0  0
   48.2228    4.9071   20.3525 H   0  0  0  0  0  0  0  0  0  0  0  0
   50.3201    6.3882   16.8899 H   0  0  0  0  0  0  0  0  0  0  0  0
   49.9975   12.7530   23.6722 H   0  0  0  0  0  0  0  0  0  0  0  0
   47.7679    2.7857   19.1595 H   0  0  0  0  0  0  0  0  0  0  0  0
   49.8517    4.2723   15.7075 H   0  0  0  0  0  0  0  0  0  0  0  0
   49.1010   15.6653   20.6432 H   0  0  0  0  0  0  0  0  0  0  0  0
   50.1000   15.0873   22.8391 H   0  0  0  0  0  0  0  0  0  0  0  0
   48.5774    2.4668   16.8346 H   0  0  0  0  0  0  0  0  0  0  0  0
   46.9935   10.2700   20.9676 H   0  0  0  0  0  0  0  0  0  0  0  0
   46.4145    9.5153   18.6813 H   0  0  0  0  0  0  0  0  0  0  0  0
   49.5789   12.6927   19.1119 H   0  0  0  0  0  0  0  0  0  0  0  0
   49.1452    8.9161   17.7365 H   0  0  0  0  0  0  0  0  0  0  0  0
   50.0969    6.3648   19.0933 H   0  0  0  0  0  0  0  0  0  0  0  0
   49.7848    6.8455   17.4370 H   0  0  0  0  0  0  0  0  0  0  0  0
   48.7908   15.8042   20.2750 H   0  0  0  0  0  0  0  0  0  0  0  0
   47.9141   12.0702   22.5579 H   0  0  0  0  0  0  0  0  0  0  0  0
   49.0845   13.3706   22.7931 H   0  0  0  0  0  0  0  0  0  0  0  0
   49.4647   11.7453   23.3517 H   0  0  0  0  0  0  0  0  0  0  0  0
   51.6156   12.1487   20.2679 H   0  0  0  0  0  0  0  0  0  0  0  0
   51.6502   11.8685   22.0169 H   0  0  0  0  0  0  0  0  0  0  0  0
   51.2338   13.4616   21.3837 H   0  0  0  0  0  0  0  0  0  0  0  0
   48.8143    4.3916   20.0856 H   0  0  0  0  0  0  0  0  0  0  0  0
   48.5385    5.4163   15.9007 H   0  0  0  0  0  0  0  0  0  0  0  0
   47.9386    2.1399   19.5806 H   0  0  0  0  0  0  0  0  0  0  0  0
   47.6593    3.1625   15.4181 H   0  0  0  0  0  0  0  0  0  0  0  0
   47.3640    1.5161   17.2494 H   0  0  0  0  0  0  0  0  0  0  0  0
   48.5276    8.2809   19.3648 H   0  0  0  0  0  0  0  0  0  0  0  0
   48.6240    9.7087   19.8976 H   0  0  0  0  0  0  0  0  0  0  0  0
   48.5249    8.2811   19.3660 H   0  0  0  0  0  0  0  0  0  0  0  0
   48.6265    9.7099   19.8970 H   0  0  0  0  0  0  0  0  0  0  0  0
   48.6209    9.7076   19.8985 H   0  0  0  0  0  0  0  0  0  0  0  0
   48.5307    8.2805   19.3632 H   0  0  0  0  0  0  0  0  0  0  0  0
  3  2  1  0
  4  2  1  0
  5  3  1  0
  6  2  1  0
  3  7  1  0
  8  6  1  0
  5  9  1  0
  6 10  1  0
 11  9  1  0
 12  4  2  0
 13 10  2  0
 14 11  2  0
 15 11  1  0
 16 10  1  0
 17  8  1  0
 18  8  1  0
 19 15  1  0
 20 19  2  0
 21 19  1  0
 22 20  1  0
 23 21  2  0
 24 23  1  0
  7  8  1  0
  4  5  1  0
 24 22  2  0
 26 32  1  0
 27 30  1  0
 28 29  1  0
 29 25  1  0
 30 26  1  0
 31 25  1  0
 32 31  1  0
 33 27  2  0
 34 27  1  0
 35 28  2  0
 36 28  1  0
 37 33  1  0
 38 35  1  0
 39 36  2  0
 40 34  2  0
 41 37  2  0
 42 39  1  0
 42 38  2  0
 40 41  1  0
 44 43  1  0
 45 43  1  0
 46 44  1  0
 47 43  1  0
 44 48  1  0
 49 47  1  0
 46 50  1  0
 47 51  1  0
 52 50  1  0
 53 45  2  0
 54 51  2  0
 55 52  2  0
 56 52  1  0
 57 51  1  0
 58 49  1  0
 59 49  1  0
 60 56  1  0
 61 60  2  0
 62 60  1  0
 63 61  1  0
 64 62  2  0
 65 64  1  0
 48 49  1  0
 45 46  1  0
 65 63  2  0
  1 69  1  0
  1 70  1  0
  3 71  1  6
  5 72  1  6
  6 73  1  1
  9 74  1  0
 15 75  1  0
 15 76  1  0
 16 77  1  0
 17 78  1  0
 17 79  1  0
 17 80  1  0
 18 81  1  0
 18 82  1  0
 18 83  1  0
 20 84  1  0
 21 85  1  0
 22 86  1  0
 23 87  1  0
 24 88  1  0
 25 89  1  0
 26 90  1  0
 29 91  1  0
 29 92  1  0
 30 93  1  0
 30 94  1  0
 31 95  1  0
 31 96  1  0
 32 97  1  0
 32 98  1  0
 33 99  1  0
 34100  1  0
 35101  1  0
 36102  1  0
 37103  1  0
 38104  1  0
 39105  1  0
 40106  1  0
 41107  1  0
 42108  1  0
 44109  1  1
 46110  1  6
 47111  1  6
 50112  1  0
 56113  1  0
 56114  1  0
 57115  1  0
 58116  1  0
 58117  1  0
 58118  1  0
 59119  1  0
 59120  1  0
 59121  1  0
 61122  1  0
 62123  1  0
 63124  1  0
 64125  1  0
 65126  1  0
 66127  1  0
 66128  1  0
 67129  1  0
 67130  1  0
 68131  1  0
 68132  1  0
M  END
> <Uni-Dock RESULT> 
ENERGY=   -7.599  LOWER_BOUND=    5.685  UPPER_BOUND=    7.438
INTER + INTRA:          -7.599
INTER:                  -7.599
INTRA:                   0.000
UNBOUND:                 0.000

$$$$

     RDKit          3D

132133  0  0  0  0  0  0  0  0999 V2000
   48.4262    8.3201   12.7097 O   0  0  0  0  0  0  0  0  0  0  0  0
   49.7885   10.6401   13.1779 N   0  0  0  0  0  0  0  0  0  0  0  0
   48.9327    9.7126   13.9411 C   0  0  1  0  0  0  0  0  0  0  0  0
   49.3101   10.2302   11.9666 C   0  0  0  0  0  0  0  0  0  0  0  0
   48.1251    9.4880   12.6315 C   0  0  1  0  0  0  0  0  0  0  0  0
   51.2148   10.6215   13.4791 C   0  0  2  0  0  0  0  0  0  0  0  0
   50.0610    8.3563   14.4824 S   0  0  0  0  0  0  0  0  0  0  0  0
   51.6008    9.1719   13.8497 C   0  0  0  0  0  0  0  0  0  0  0  0
   47.9037    8.0861   12.1864 N   0  0  0  0  0  0  0  0  0  0  0  0
   51.4562   11.6305   14.5984 C   0  0  0  0  0  0  0  0  0  0  0  0
   47.0275    7.2648   12.8647 C   0  0  0  0  0  0  0  0  0  0  0  0
   49.7807   10.3163   10.8580 O   0  0  0  0  0  0  0  0  0  0  0  0
   50.6867   11.9506   15.4911 O   0  0  0  0  0  0  0  0  0  0  0  0
   46.3791    7.6664   13.8279 O   0  0  0  0  0  0  0  0  0  0  0  0
   46.9596    5.8415   12.3387 C   0  0  0  0  0  0  0  0  0  0  0  0
   52.6921   12.1737   14.5493 O   0  0  0  0  0  0  0  0  0  0  0  0
   52.0605    8.3850   12.6106 C   0  0  0  0  0  0  0  0  0  0  0  0
   52.6863    9.0506   14.9260 C   0  0  0  0  0  0  0  0  0  0  0  0
   45.5497    5.3793   12.0692 C   0  0  0  0  0  0  0  0  0  0  0  0
   44.8144    4.7262   13.0680 C   0  0  0  0  0  0  0  0  0  0  0  0
   44.9446    5.6240   10.8284 C   0  0  0  0  0  0  0  0  0  0  0  0
   43.5049    4.3108   12.8242 C   0  0  0  0  0  0  0  0  0  0  0  0
   43.6340    5.2080   10.5874 C   0  0  0  0  0  0  0  0  0  0  0  0
   42.9152    4.5504   11.5841 C   0  0  0  0  0  0  0  0  0  0  0  0
   48.1590    6.7994   12.4503 N   0  0  0  0  0  0  0  0  0  0  0  0
   49.1304    9.1589   13.8134 N   0  0  0  0  0  0  0  0  0  0  0  0
   51.5275    9.4553   14.1702 C   0  0  0  0  0  0  0  0  0  0  0  0
   45.8755    6.5798   11.4547 C   0  0  0  0  0  0  0  0  0  0  0  0
   47.1998    7.3074   11.4610 C   0  0  0  0  0  0  0  0  0  0  0  0
   50.2899    8.6909   14.5761 C   0  0  0  0  0  0  0  0  0  0  0  0
   47.7394    7.0506   13.8402 C   0  0  0  0  0  0  0  0  0  0  0  0
   47.8803    8.5290   14.2687 C   0  0  0  0  0  0  0  0  0  0  0  0
   52.2430    9.0888   13.0207 C   0  0  0  0  0  0  0  0  0  0  0  0
   51.9579   10.5660   14.9111 C   0  0  0  0  0  0  0  0  0  0  0  0
   45.8226    5.1907   11.2669 C   0  0  0  0  0  0  0  0  0  0  0  0
   44.6743    7.2870   11.6121 C   0  0  0  0  0  0  0  0  0  0  0  0
   53.3739    9.8074   12.6305 C   0  0  0  0  0  0  0  0  0  0  0  0
   44.5976    4.5226   11.2445 C   0  0  0  0  0  0  0  0  0  0  0  0
   43.4495    6.6175   11.5914 C   0  0  0  0  0  0  0  0  0  0  0  0
   53.0880   11.2846   14.5177 C   0  0  0  0  0  0  0  0  0  0  0  0
   53.7963   10.9046   13.3791 C   0  0  0  0  0  0  0  0  0  0  0  0
   43.4116    5.2364   11.4075 C   0  0  0  0  0  0  0  0  0  0  0  0
   50.3244    9.1729   14.8114 N   0  0  0  0  0  0  0  0  0  0  0  0
   50.0115    8.0100   13.9556 C   0  0  1  0  0  0  0  0  0  0  0  0
   49.0227    9.3530   15.1929 C   0  0  0  0  0  0  0  0  0  0  0  0
   48.5912    8.0042   14.5733 C   0  0  1  0  0  0  0  0  0  0  0  0
   51.0535   10.2881   14.2070 C   0  0  2  0  0  0  0  0  0  0  0  0
   50.2172    8.6730   12.2499 S   0  0  0  0  0  0  0  0  0  0  0  0
   51.5514    9.8335   12.8200 C   0  0  0  0  0  0  0  0  0  0  0  0
   47.4367    8.0475   13.6355 N   0  0  0  0  0  0  0  0  0  0  0  0
   52.1690   10.7518   15.1344 C   0  0  0  0  0  0  0  0  0  0  0  0
   47.0846    6.9283   12.9082 C   0  0  0  0  0  0  0  0  0  0  0  0
   48.4658   10.3054   15.6887 O   0  0  0  0  0  0  0  0  0  0  0  0
   52.7348   10.0988   15.9974 O   0  0  0  0  0  0  0  0  0  0  0  0
   47.6674    5.8565   13.0564 O   0  0  0  0  0  0  0  0  0  0  0  0
   45.9682    7.1586   11.9026 C   0  0  0  0  0  0  0  0  0  0  0  0
   52.5535   12.0231   14.8912 O   0  0  0  0  0  0  0  0  0  0  0  0
   52.8788    9.0621   12.8397 C   0  0  0  0  0  0  0  0  0  0  0  0
   51.6384   10.9993   11.8319 C   0  0  0  0  0  0  0  0  0  0  0  0
   44.9536    6.0429   11.8541 C   0  0  0  0  0  0  0  0  0  0  0  0
   45.2129    4.8800   11.1147 C   0  0  0  0  0  0  0  0  0  0  0  0
   43.7450    6.1439   12.5571 C   0  0  0  0  0  0  0  0  0  0  0  0
   44.2755    3.8472   11.0657 C   0  0  0  0  0  0  0  0  0  0  0  0
   42.8079    5.1094   12.5054 C   0  0  0  0  0  0  0  0  0  0  0  0
   43.0721    3.9635   11.7577 C   0  0  0  0  0  0  0  0  0  0  0  0
   48.4133    8.3126   12.7063 O   0  0  0  0  0  0  0  0  0  0  0  0
   48.4119    8.3121   12.7059 O   0  0  0  0  0  0  0  0  0  0  0  0
   48.4148    8.3134   12.7068 O   0  0  0  0  0  0  0  0  0  0  0  0
   49.2650    8.2064   13.1816 H   0  0  0  0  0  0  0  0  0  0  0  0
   47.9691    7.4750   12.8364 H   0  0  0  0  0  0  0  0  0  0  0  0
   48.3821   10.2025   14.7498 H   0  0  0  0  0  0  0  0  0  0  0  0
   47.1969   10.0701   12.5696 H   0  0  0  0  0  0  0  0  0  0  0  0
   51.7551   10.9713   12.5913 H   0  0  0  0  0  0  0  0  0  0  0  0
   48.4644    7.7069   11.4318 H   0  0  0  0  0  0  0  0  0  0  0  0
   47.4425    5.1889   13.0764 H   0  0  0  0  0  0  0  0  0  0  0  0
   47.5511    5.7425   11.4191 H   0  0  0  0  0  0  0  0  0  0  0  0
   52.7078   12.7969   15.3068 H   0  0  0  0  0  0  0  0  0  0  0  0
   52.9547    8.8459   12.1738 H   0  0  0  0  0  0  0  0  0  0  0  0
   51.3008    8.3436   11.8246 H   0  0  0  0  0  0  0  0  0  0  0  0
   52.3232    7.3506   12.8632 H   0  0  0  0  0  0  0  0  0  0  0  0
   52.3834    9.4994   15.8789 H   0  0  0  0  0  0  0  0  0  0  0  0
   52.9384    8.0025   15.1277 H   0  0  0  0  0  0  0  0  0  0  0  0
   53.6098    9.5447   14.6015 H   0  0  0  0  0  0  0  0  0  0  0  0
   45.2550    4.5474   14.0469 H   0  0  0  0  0  0  0  0  0  0  0  0
   45.4866    6.1422   10.0413 H   0  0  0  0  0  0  0  0  0  0  0  0
   42.9422    3.8071   13.6062 H   0  0  0  0  0  0  0  0  0  0  0  0
   43.1702    5.4019    9.6233 H   0  0  0  0  0  0  0  0  0  0  0  0
   41.8935    4.2304   11.3978 H   0  0  0  0  0  0  0  0  0  0  0  0
   49.0193    7.3426   12.3236 H   0  0  0  0  0  0  0  0  0  0  0  0
   49.0563   10.1680   13.9448 H   0  0  0  0  0  0  0  0  0  0  0  0
   47.6433    7.1862   10.4648 H   0  0  0  0  0  0  0  0  0  0  0  0
   47.0515    8.3867   11.5863 H   0  0  0  0  0  0  0  0  0  0  0  0
   50.1239    8.8205   15.6532 H   0  0  0  0  0  0  0  0  0  0  0  0
   50.4692    7.6222   14.4092 H   0  0  0  0  0  0  0  0  0  0  0  0
   48.3881    6.4421   14.4818 H   0  0  0  0  0  0  0  0  0  0  0  0
   46.7201    6.6970   14.0311 H   0  0  0  0  0  0  0  0  0  0  0  0
   47.7694    8.6181   15.3559 H   0  0  0  0  0  0  0  0  0  0  0  0
   47.0500    9.0948   13.8293 H   0  0  0  0  0  0  0  0  0  0  0  0
   51.9138    8.2422   12.4215 H   0  0  0  0  0  0  0  0  0  0  0  0
   51.4118   10.8793   15.7981 H   0  0  0  0  0  0  0  0  0  0  0  0
   46.7456    4.6270   11.1462 H   0  0  0  0  0  0  0  0  0  0  0  0
   44.6863    8.3650   11.7539 H   0  0  0  0  0  0  0  0  0  0  0  0
   53.9219    9.5135   11.7392 H   0  0  0  0  0  0  0  0  0  0  0  0
   44.5702    3.4454   11.1009 H   0  0  0  0  0  0  0  0  0  0  0  0
   42.5243    7.1740   11.7166 H   0  0  0  0  0  0  0  0  0  0  0  0
   53.4140   12.1446   15.0977 H   0  0  0  0  0  0  0  0  0  0  0  0
   54.6746   11.4657   13.0718 H   0  0  0  0  0  0  0  0  0  0  0  0
   42.4573    4.7158   11.3903 H   0  0  0  0  0  0  0  0  0  0  0  0
   50.6289    7.1368   14.1911 H   0  0  0  0  0  0  0  0  0  0  0  0
   48.4394    7.2372   15.3434 H   0  0  0  0  0  0  0  0  0  0  0  0
   50.3492   11.1259   14.1081 H   0  0  0  0  0  0  0  0  0  0  0  0
   47.0220    8.9429   13.3965 H   0  0  0  0  0  0  0  0  0  0  0  0
   46.4290    7.2858   10.9150 H   0  0  0  0  0  0  0  0  0  0  0  0
   45.4551    8.1028   12.1216 H   0  0  0  0  0  0  0  0  0  0  0  0
   53.2444   12.1970   15.5662 H   0  0  0  0  0  0  0  0  0  0  0  0
   52.8682    8.2307   13.5538 H   0  0  0  0  0  0  0  0  0  0  0  0
   53.7104    9.7196   13.1178 H   0  0  0  0  0  0  0  0  0  0  0  0
   53.1181    8.6512   11.8506 H   0  0  0  0  0  0  0  0  0  0  0  0
   50.6953   11.5533   11.7676 H   0  0  0  0  0  0  0  0  0  0  0  0
   51.8954   10.6563   10.8221 H   0  0  0  0  0  0  0  0  0  0  0  0
   52.4136   11.7123   12.1370 H   0  0  0  0  0  0  0  0  0  0  0  0
   46.1552    4.7684   10.5820 H   0  0  0  0  0  0  0  0  0  0  0  0
   43.5209    7.0276   13.1504 H   0  0  0  0  0  0  0  0  0  0  0  0
   44.4891    2.9495   10.4917 H   0  0  0  0  0  0  0  0  0  0  0  0
   41.8716    5.1957   13.0516 H   0  0  0  0  0  0  0  0  0  0  0  0
   42.3434    3.1578   11.7190 H   0  0  0  0  0  0  0  0  0  0  0  0
   47.9857    7.4556   12.8530 H   0  0  0  0  0  0  0  0  0  0  0  0
   49.2614    8.2333   13.1684 H   0  0  0  0  0  0  0  0  0  0  0  0
   47.9871    7.4535   12.8545 H   0  0  0  0  0  0  0  0  0  0  0  0
   49.2613    8.2359   13.1672 H   0  0  0  0  0  0  0  0  0  0  0  0
   49.2618    8.2303   13.1699 H   0  0  0  0  0  0  0  0  0  0  0  0
   47.9838    7.4579   12.8510 H   0  0  0  0  0  0  0  0  0  0  0  0
  3  2  1  0
  4  2  1  0
  5  3  1  0
  6  2  1  0
  3  7  1  0
  8  6  1  0
  5  9  1  0
  6 10  1  0
 11  9  1  0
 12  4  2  0
 13 10  2  0
 14 11  2  0
 15 11  1  0
 16 10  1  0
 17  8  1  0
 18  8  1  0
 19 15  1  0
 20 19  2  0
 21 19  1  0
 22 20  1  0
 23 21  2  0
 24 23  1  0
  7  8  1  0
  4  5  1  0
 24 22  2  0
 26 32  1  0
 27 30  1  0
 28 29  1  0
 29 25  1  0
 30 26  1  0
 31 25  1  0
 32 31  1  0
 33 27  2  0
 34 27  1  0
 35 28  2  0
 36 28  1  0
 37 33  1  0
 38 35  1  0
 39 36  2  0
 40 34  2  0
 41 37  2  0
 42 39  1  0
 42 38  2  0
 40 41  1  0
 44 43  1  0
 45 43  1  0
 46 44  1  0
 47 43  1  0
 44 48  1  0
 49 47  1  0
 46 50  1  0
 47 51  1  0
 52 50  1  0
 53 45  2  0
 54 51  2  0
 55 52  2  0
 56 52  1  0
 57 51  1  0
 58 49  1  0
 59 49  1  0
 60 56  1  0
 61 60  2  0
 62 60  1  0
 63 61  1  0
 64 62  2  0
 65 64  1  0
 48 49  1  0
 45 46  1  0
 65 63  2  0
  1 69  1  0
  1 70  1  0
  3 71  1  6
  5 72  1  6
  6 73  1  1
  9 74  1  0
 15 75  1  0
 15 76  1  0
 16 77  1  0
 17 78  1  0
 17 79  1  0
 17 80  1  0
 18 81  1  0
 18 82  1  0
 18 83  1  0
 20 84  1  0
 21 85  1  0
 22 86  1  0
 23 87  1  0
 24 88  1  0
 25 89  1  0
 26 90  1  0
 29 91  1  0
 29 92  1  0
 30 93  1  0
 30 94  1  0
 31 95  1  0
 31 96  1  0
 32 97  1  0
 32 98  1  0
 33 99  1  0
 34100  1  0
 35101  1  0
 36102  1  0
 37103  1  0
 38104  1  0
 39105  1  0
 40106  1  0
 41107  1  0
 42108  1  0
 44109  1  1
 46110  1  6
 47111  1  6
 50112  1  0
 56113  1  0
 56114  1  0
 57115  1  0
 58116  1  0
 58117  1  0
 58118  1  0
 59119  1  0
 59120  1  0
 59121  1  0
 61122  1  0
 62123  1  0
 63124  1  0
 64125  1  0
 65126  1  0
 66127  1  0
 66128  1  0
 67129  1  0
 67130  1  0
 68131  1  0
 68132  1  0
M  END
> <Uni-Dock RESULT> 
ENERGY=   -7.548  LOWER_BOUND=    1.342  UPPER_BOUND=    2.721
INTER + INTRA:          -7.548
INTER:                  -7.548
INTRA:                   0.000
UNBOUND:                 0.000

$$$$

     RDKit          3D

132133  0  0  0  0  0  0  0  0999 V2000
   48.9167    8.8704   17.4397 O   0  0  0  0  0  0  0  0  0  0  0  0
   50.2717    9.4682   15.1454 N   0  0  0  0  0  0  0  0  0  0  0  0
   50.2711    8.3934   16.1552 C   0  0  1  0  0  0  0  0  0  0  0  0
   49.6766   10.3740   15.9756 C   0  0  0  0  0  0  0  0  0  0  0  0
   49.9348    9.4813   17.2139 C   0  0  1  0  0  0  0  0  0  0  0  0
   49.7084    9.1473   13.8396 C   0  0  2  0  0  0  0  0  0  0  0  0
   48.9078    7.2588   15.6456 S   0  0  0  0  0  0  0  0  0  0  0  0
   48.5523    8.1452   14.0568 C   0  0  0  0  0  0  0  0  0  0  0  0
   48.7646    9.2457   18.1013 N   0  0  0  0  0  0  0  0  0  0  0  0
   50.8433    8.6035   12.9761 C   0  0  0  0  0  0  0  0  0  0  0  0
   48.8210    8.2954   19.0993 C   0  0  0  0  0  0  0  0  0  0  0  0
   49.0615   11.3849   15.7355 O   0  0  0  0  0  0  0  0  0  0  0  0
   51.8259    7.9790   13.3449 O   0  0  0  0  0  0  0  0  0  0  0  0
   49.8391    7.6415   19.3126 O   0  0  0  0  0  0  0  0  0  0  0  0
   47.5279    8.1172   19.8762 C   0  0  0  0  0  0  0  0  0  0  0  0
   50.6615    8.8561   11.6615 O   0  0  0  0  0  0  0  0  0  0  0  0
   47.2093    8.8749   14.2293 C   0  0  0  0  0  0  0  0  0  0  0  0
   48.3915    7.0985   12.9476 C   0  0  0  0  0  0  0  0  0  0  0  0
   47.7227    8.1903   21.3697 C   0  0  0  0  0  0  0  0  0  0  0  0
   47.9764    7.0271   22.1096 C   0  0  0  0  0  0  0  0  0  0  0  0
   47.6844    9.4246   22.0336 C   0  0  0  0  0  0  0  0  0  0  0  0
   48.1707    7.0956   23.4896 C   0  0  0  0  0  0  0  0  0  0  0  0
   47.8799    9.4904   23.4143 C   0  0  0  0  0  0  0  0  0  0  0  0
   48.1214    8.3265   24.1420 C   0  0  0  0  0  0  0  0  0  0  0  0
   47.7526    8.4168   18.3834 N   0  0  0  0  0  0  0  0  0  0  0  0
   49.6942    8.2486   16.2453 N   0  0  0  0  0  0  0  0  0  0  0  0
   48.9403    7.9914   13.9374 C   0  0  0  0  0  0  0  0  0  0  0  0
   48.2476    9.2737   20.6800 C   0  0  0  0  0  0  0  0  0  0  0  0
   48.1906    9.5583   19.1972 C   0  0  0  0  0  0  0  0  0  0  0  0
   49.0987    7.3207   15.2811 C   0  0  0  0  0  0  0  0  0  0  0  0
   48.7227    7.3078   18.3788 C   0  0  0  0  0  0  0  0  0  0  0  0
   49.9836    7.5955   17.5325 C   0  0  0  0  0  0  0  0  0  0  0  0
   47.8406    8.8249   13.6854 C   0  0  0  0  0  0  0  0  0  0  0  0
   49.9080    7.8248   12.9357 C   0  0  0  0  0  0  0  0  0  0  0  0
   47.1144    8.8097   21.3642 C   0  0  0  0  0  0  0  0  0  0  0  0
   49.4304    9.4932   21.4017 C   0  0  0  0  0  0  0  0  0  0  0  0
   47.7034    9.4641   12.4524 C   0  0  0  0  0  0  0  0  0  0  0  0
   47.1642    8.5635   22.7369 C   0  0  0  0  0  0  0  0  0  0  0  0
   49.4797    9.2449   22.7745 C   0  0  0  0  0  0  0  0  0  0  0  0
   49.7699    8.4668   11.7040 C   0  0  0  0  0  0  0  0  0  0  0  0
   48.6676    9.2848   11.4621 C   0  0  0  0  0  0  0  0  0  0  0  0
   48.3472    8.7805   23.4413 C   0  0  0  0  0  0  0  0  0  0  0  0
   49.5549    7.3299   14.9970 N   0  0  0  0  0  0  0  0  0  0  0  0
   48.4433    7.5713   15.9398 C   0  0  1  0  0  0  0  0  0  0  0  0
   50.4681    7.1130   15.9928 C   0  0  0  0  0  0  0  0  0  0  0  0
   49.3659    7.0633   17.0754 C   0  0  1  0  0  0  0  0  0  0  0  0
   49.8271    8.3528   13.9871 C   0  0  2  0  0  0  0  0  0  0  0  0
   48.1544    9.3844   15.7971 S   0  0  0  0  0  0  0  0  0  0  0  0
   48.6632    9.3643   14.0103 C   0  0  0  0  0  0  0  0  0  0  0  0
   49.5560    7.9534   18.2527 N   0  0  0  0  0  0  0  0  0  0  0  0
   50.0455    7.7041   12.6266 C   0  0  0  0  0  0  0  0  0  0  0  0
   48.5504    8.1016   19.1865 C   0  0  0  0  0  0  0  0  0  0  0  0
   51.6775    7.1230   15.9760 O   0  0  0  0  0  0  0  0  0  0  0  0
   49.6282    6.6213   12.2463 O   0  0  0  0  0  0  0  0  0  0  0  0
   47.5029    7.4634   19.1092 O   0  0  0  0  0  0  0  0  0  0  0  0
   48.8398    9.1360   20.2621 C   0  0  0  0  0  0  0  0  0  0  0  0
   50.7517    8.4876   11.7836 O   0  0  0  0  0  0  0  0  0  0  0  0
   47.4444    8.9540   13.1715 C   0  0  0  0  0  0  0  0  0  0  0  0
   49.1190   10.7717   13.6173 C   0  0  0  0  0  0  0  0  0  0  0  0
   48.4312    8.7025   21.6484 C   0  0  0  0  0  0  0  0  0  0  0  0
   47.0976    8.8226   22.0650 C   0  0  0  0  0  0  0  0  0  0  0  0
   49.3723    8.1607   22.5350 C   0  0  0  0  0  0  0  0  0  0  0  0
   46.7170    8.4250   23.3474 C   0  0  0  0  0  0  0  0  0  0  0  0
   48.9890    7.7648   23.8185 C   0  0  0  0  0  0  0  0  0  0  0  0
   47.6628    7.8998   24.2249 C   0  0  0  0  0  0  0  0  0  0  0  0
   48.9156    8.8704   17.4550 O   0  0  0  0  0  0  0  0  0  0  0  0
   48.9156    8.8706   17.4565 O   0  0  0  0  0  0  0  0  0  0  0  0
   48.9157    8.8703   17.4533 O   0  0  0  0  0  0  0  0  0  0  0  0
   48.6278    8.3726   16.6601 H   0  0  0  0  0  0  0  0  0  0  0  0
   48.5279    8.3870   18.1842 H   0  0  0  0  0  0  0  0  0  0  0  0
   51.2477    7.9141   16.2736 H   0  0  0  0  0  0  0  0  0  0  0  0
   50.8004    9.8304   17.7913 H   0  0  0  0  0  0  0  0  0  0  0  0
   49.3570   10.0796   13.3816 H   0  0  0  0  0  0  0  0  0  0  0  0
   47.8918    9.7268   17.9157 H   0  0  0  0  0  0  0  0  0  0  0  0
   47.0982    7.1485   19.5926 H   0  0  0  0  0  0  0  0  0  0  0  0
   46.7902    8.8718   19.5736 H   0  0  0  0  0  0  0  0  0  0  0  0
   51.4529    8.4655   11.2331 H   0  0  0  0  0  0  0  0  0  0  0  0
   46.9642    9.4456   13.3254 H   0  0  0  0  0  0  0  0  0  0  0  0
   47.2100    9.5790   15.0665 H   0  0  0  0  0  0  0  0  0  0  0  0
   46.3855    8.1708   14.3978 H   0  0  0  0  0  0  0  0  0  0  0  0
   49.2789    6.4647   12.8381 H   0  0  0  0  0  0  0  0  0  0  0  0
   47.5409    6.4339   13.1411 H   0  0  0  0  0  0  0  0  0  0  0  0
   48.2050    7.5836   11.9821 H   0  0  0  0  0  0  0  0  0  0  0  0
   48.0352    6.0611   21.6121 H   0  0  0  0  0  0  0  0  0  0  0  0
   47.5049   10.3440   21.4820 H   0  0  0  0  0  0  0  0  0  0  0  0
   48.3691    6.1880   24.0542 H   0  0  0  0  0  0  0  0  0  0  0  0
   47.8500   10.4509   23.9229 H   0  0  0  0  0  0  0  0  0  0  0  0
   48.2779    8.3782   25.2161 H   0  0  0  0  0  0  0  0  0  0  0  0
   47.7162    8.7502   17.4145 H   0  0  0  0  0  0  0  0  0  0  0  0
   50.5684    8.5936   15.8484 H   0  0  0  0  0  0  0  0  0  0  0  0
   47.4737   10.3755   19.0492 H   0  0  0  0  0  0  0  0  0  0  0  0
   49.1520    9.9430   18.8363 H   0  0  0  0  0  0  0  0  0  0  0  0
   49.7247    6.4266   15.1656 H   0  0  0  0  0  0  0  0  0  0  0  0
   48.1137    6.9769   15.6180 H   0  0  0  0  0  0  0  0  0  0  0  0
   48.2091    6.4395   17.9485 H   0  0  0  0  0  0  0  0  0  0  0  0
   49.0084    7.0086   19.3934 H   0  0  0  0  0  0  0  0  0  0  0  0
   50.5562    6.6723   17.3839 H   0  0  0  0  0  0  0  0  0  0  0  0
   50.6336    8.2701   18.1026 H   0  0  0  0  0  0  0  0  0  0  0  0
   47.0892    8.9826   14.4565 H   0  0  0  0  0  0  0  0  0  0  0  0
   50.7775    7.1953   13.1115 H   0  0  0  0  0  0  0  0  0  0  0  0
   46.1900    8.6316   20.8184 H   0  0  0  0  0  0  0  0  0  0  0  0
   50.3219    9.8577   20.8971 H   0  0  0  0  0  0  0  0  0  0  0  0
   46.8463   10.1062   12.2672 H   0  0  0  0  0  0  0  0  0  0  0  0
   46.2798    8.2015   23.2551 H   0  0  0  0  0  0  0  0  0  0  0  0
   50.4015    9.4158   23.3245 H   0  0  0  0  0  0  0  0  0  0  0  0
   50.5253    8.3325   10.9336 H   0  0  0  0  0  0  0  0  0  0  0  0
   48.5617    9.7863   10.5041 H   0  0  0  0  0  0  0  0  0  0  0  0
   48.3860    8.5885   24.5107 H   0  0  0  0  0  0  0  0  0  0  0  0
   47.5703    6.9448   15.7292 H   0  0  0  0  0  0  0  0  0  0  0  0
   49.1605    6.0336   17.3943 H   0  0  0  0  0  0  0  0  0  0  0  0
   50.7704    8.8443   14.2634 H   0  0  0  0  0  0  0  0  0  0  0  0
   50.3492    8.5867   18.2757 H   0  0  0  0  0  0  0  0  0  0  0  0
   48.3114   10.0582   19.9897 H   0  0  0  0  0  0  0  0  0  0  0  0
   49.9073    9.3872   20.2632 H   0  0  0  0  0  0  0  0  0  0  0  0
   50.8405    7.9447   10.9708 H   0  0  0  0  0  0  0  0  0  0  0  0
   47.0989    7.9403   13.4046 H   0  0  0  0  0  0  0  0  0  0  0  0
   47.6783    8.9802   12.1011 H   0  0  0  0  0  0  0  0  0  0  0  0
   46.6015    9.6394   13.3276 H   0  0  0  0  0  0  0  0  0  0  0  0
   49.9688   11.1106   14.2203 H   0  0  0  0  0  0  0  0  0  0  0  0
   48.3121   11.5058   13.7323 H   0  0  0  0  0  0  0  0  0  0  0  0
   49.4338   10.8008   12.5673 H   0  0  0  0  0  0  0  0  0  0  0  0
   46.3448    9.2163   21.3850 H   0  0  0  0  0  0  0  0  0  0  0  0
   50.4114    8.0424   22.2364 H   0  0  0  0  0  0  0  0  0  0  0  0
   45.6798    8.5201   23.6577 H   0  0  0  0  0  0  0  0  0  0  0  0
   49.7248    7.3473   24.5015 H   0  0  0  0  0  0  0  0  0  0  0  0
   47.3644    7.5900   25.2232 H   0  0  0  0  0  0  0  0  0  0  0  0
   48.5119    8.3628   18.1749 H   0  0  0  0  0  0  0  0  0  0  0  0
   48.6449    8.3968   16.6541 H   0  0  0  0  0  0  0  0  0  0  0  0
   48.5103    8.3605   18.1743 H   0  0  0  0  0  0  0  0  0  0  0  0
   48.6465    8.3989   16.6532 H   0  0  0  0  0  0  0  0  0  0  0  0
   48.6430    8.3940   16.6548 H   0  0  0  0  0  0  0  0  0  0  0  0
   48.5138    8.3657   18.1760 H   0  0  0  0  0  0  0  0  0  0  0  0
  3  2  1  0
  4  2  1  0
  5  3  1  0
  6  2  1  0
  3  7  1  0
  8  6  1  0
  5  9  1  0
  6 10  1  0
 11  9  1  0
 12  4  2  0
 13 10  2  0
 14 11  2  0
 15 11  1  0
 16 10  1  0
 17  8  1  0
 18  8  1  0
 19 15  1  0
 20 19  2  0
 21 19  1  0
 22 20  1  0
 23 21  2  0
 24 23  1  0
  7  8  1  0
  4  5  1  0
 24 22  2  0
 26 32  1  0
 27 30  1  0
 28 29  1  0
 29 25  1  0
 30 26  1  0
 31 25  1  0
 32 31  1  0
 33 27  2  0
 34 27  1  0
 35 28  2  0
 36 28  1  0
 37 33  1  0
 38 35  1  0
 39 36  2  0
 40 34  2  0
 41 37  2  0
 42 39  1  0
 42 38  2  0
 40 41  1  0
 44 43  1  0
 45 43  1  0
 46 44  1  0
 47 43  1  0
 44 48  1  0
 49 47  1  0
 46 50  1  0
 47 51  1  0
 52 50  1  0
 53 45  2  0
 54 51  2  0
 55 52  2  0
 56 52  1  0
 57 51  1  0
 58 49  1  0
 59 49  1  0
 60 56  1  0
 61 60  2  0
 62 60  1  0
 63 61  1  0
 64 62  2  0
 65 64  1  0
 48 49  1  0
 45 46  1  0
 65 63  2  0
  1 69  1  0
  1 70  1  0
  3 71  1  6
  5 72  1  6
  6 73  1  1
  9 74  1  0
 15 75  1  0
 15 76  1  0
 16 77  1  0
 17 78  1  0
 17 79  1  0
 17 80  1  0
 18 81  1  0
 18 82  1  0
 18 83  1  0
 20 84  1  0
 21 85  1  0
 22 86  1  0
 23 87  1  0
 24 88  1  0
 25 89  1  0
 26 90  1  0
 29 91  1  0
 29 92  1  0
 30 93  1  0
 30 94  1  0
 31 95  1  0
 31 96  1  0
 32 97  1  0
 32 98  1  0
 33 99  1  0
 34100  1  0
 35101  1  0
 36102  1  0
 37103  1  0
 38104  1  0
 39105  1  0
 40106  1  0
 41107  1  0
 42108  1  0
 44109  1  1
 46110  1  6
 47111  1  6
 50112  1  0
 56113  1  0
 56114  1  0
 57115  1  0
 58116  1  0
 58117  1  0
 58118  1  0
 59119  1  0
 59120  1  0
 59121  1  0
 61122  1  0
 62123  1  0
 63124  1  0
 64125  1  0
 65126  1  0
 66127  1  0
 66128  1  0
 67129  1  0
 67130  1  0
 68131  1  0
 68132  1  0
M  END
> <Uni-Dock RESULT> 
ENERGY=   -7.370  LOWER_BOUND=    4.634  UPPER_BOUND=    7.388
INTER + INTRA:          -7.370
INTER:                  -7.370
INTRA:                   0.000
UNBOUND:                 0.000

$$$$

     RDKit          3D

132133  0  0  0  0  0  0  0  0999 V2000
   49.0549    8.2440   17.0490 O   0  0  0  0  0  0  0  0  0  0  0  0
   50.1871    9.7223   15.0514 N   0  0  0  0  0  0  0  0  0  0  0  0
   50.4725    8.4622   15.7626 C   0  0  1  0  0  0  0  0  0  0  0  0
   49.3887   10.2097   16.0459 C   0  0  0  0  0  0  0  0  0  0  0  0
   49.8802    9.1269   17.0373 C   0  0  1  0  0  0  0  0  0  0  0  0
   49.7108    9.6117   13.6779 C   0  0  2  0  0  0  0  0  0  0  0  0
   49.4398    7.1895   14.9144 S   0  0  0  0  0  0  0  0  0  0  0  0
   48.8522    8.3309   13.5770 C   0  0  0  0  0  0  0  0  0  0  0  0
   48.8188    8.3893   17.7734 N   0  0  0  0  0  0  0  0  0  0  0  0
   50.9378    9.6061   12.7704 C   0  0  0  0  0  0  0  0  0  0  0  0
   49.1274    7.2629   18.5071 C   0  0  0  0  0  0  0  0  0  0  0  0
   48.5327   11.0612   16.0298 O   0  0  0  0  0  0  0  0  0  0  0  0
   52.0515    9.1752   13.0266 O   0  0  0  0  0  0  0  0  0  0  0  0
   50.2811    6.8527   18.6076 O   0  0  0  0  0  0  0  0  0  0  0  0
   47.9314    6.5760   19.1438 C   0  0  0  0  0  0  0  0  0  0  0  0
   50.6833   10.1292   11.5511 O   0  0  0  0  0  0  0  0  0  0  0  0
   47.3690    8.6329   13.8507 C   0  0  0  0  0  0  0  0  0  0  0  0
   48.9530    7.5930   12.2365 C   0  0  0  0  0  0  0  0  0  0  0  0
   48.1170    6.3153   20.6174 C   0  0  0  0  0  0  0  0  0  0  0  0
   48.6679    5.1046   21.0595 C   0  0  0  0  0  0  0  0  0  0  0  0
   47.7709    7.2912   21.5627 C   0  0  0  0  0  0  0  0  0  0  0  0
   48.8529    4.8682   22.4221 C   0  0  0  0  0  0  0  0  0  0  0  0
   47.9579    7.0524   22.9253 C   0  0  0  0  0  0  0  0  0  0  0  0
   48.4971    5.8411   23.3548 C   0  0  0  0  0  0  0  0  0  0  0  0
   48.0560    7.2899   17.7860 N   0  0  0  0  0  0  0  0  0  0  0  0
   49.9529    8.1597   15.7824 N   0  0  0  0  0  0  0  0  0  0  0  0
   49.2653    8.3145   13.4448 C   0  0  0  0  0  0  0  0  0  0  0  0
   48.3395    7.6337   20.2467 C   0  0  0  0  0  0  0  0  0  0  0  0
   48.1957    8.2605   18.8794 C   0  0  0  0  0  0  0  0  0  0  0  0
   49.6046    7.3874   14.5876 C   0  0  0  0  0  0  0  0  0  0  0  0
   49.2775    6.4975   17.5605 C   0  0  0  0  0  0  0  0  0  0  0  0
   50.4136    7.2962   16.8820 C   0  0  0  0  0  0  0  0  0  0  0  0
   47.9863    8.8818   13.3468 C   0  0  0  0  0  0  0  0  0  0  0  0
   50.2327    8.6544   12.4875 C   0  0  0  0  0  0  0  0  0  0  0  0
   47.3703    6.7433   20.7319 C   0  0  0  0  0  0  0  0  0  0  0  0
   49.4343    7.9523   21.0639 C   0  0  0  0  0  0  0  0  0  0  0  0
   47.6768    9.7567   12.3045 C   0  0  0  0  0  0  0  0  0  0  0  0
   47.4961    6.1784   22.0017 C   0  0  0  0  0  0  0  0  0  0  0  0
   49.5602    7.3854   22.3333 C   0  0  0  0  0  0  0  0  0  0  0  0
   49.9217    9.5314   11.4472 C   0  0  0  0  0  0  0  0  0  0  0  0
   48.6442   10.0811   11.3549 C   0  0  0  0  0  0  0  0  0  0  0  0
   48.5916    6.4992   22.8016 C   0  0  0  0  0  0  0  0  0  0  0  0
   50.0401    7.5820   14.3400 N   0  0  0  0  0  0  0  0  0  0  0  0
   48.9139    7.2909   15.2508 C   0  0  1  0  0  0  0  0  0  0  0  0
   50.9890    7.3561   15.2997 C   0  0  0  0  0  0  0  0  0  0  0  0
   49.9479    6.7599   16.2744 C   0  0  1  0  0  0  0  0  0  0  0  0
   50.0306    8.8617   13.6308 C   0  0  2  0  0  0  0  0  0  0  0  0
   48.1689    8.9490   15.5452 S   0  0  0  0  0  0  0  0  0  0  0  0
   48.6467    9.5096   13.8395 C   0  0  0  0  0  0  0  0  0  0  0  0
   49.9164    7.3414   17.6438 N   0  0  0  0  0  0  0  0  0  0  0  0
   50.3932    8.6543   12.1662 C   0  0  0  0  0  0  0  0  0  0  0  0
   48.9164    6.9919   18.5287 C   0  0  0  0  0  0  0  0  0  0  0  0
   52.1553    7.6725   15.3523 O   0  0  0  0  0  0  0  0  0  0  0  0
   50.2630    7.6341   11.5078 O   0  0  0  0  0  0  0  0  0  0  0  0
   48.0665    6.1529   18.2388 O   0  0  0  0  0  0  0  0  0  0  0  0
   48.9427    7.7590   19.8408 C   0  0  0  0  0  0  0  0  0  0  0  0
   50.8662    9.7765   11.5831 O   0  0  0  0  0  0  0  0  0  0  0  0
   47.5648    9.0332   12.8598 C   0  0  0  0  0  0  0  0  0  0  0  0
   48.7227   11.0384   13.8322 C   0  0  0  0  0  0  0  0  0  0  0  0
   48.6736    6.9009   21.0524 C   0  0  0  0  0  0  0  0  0  0  0  0
   47.3583    6.5739   21.4120 C   0  0  0  0  0  0  0  0  0  0  0  0
   49.7315    6.4059   21.8278 C   0  0  0  0  0  0  0  0  0  0  0  0
   47.1058    5.7825   22.5335 C   0  0  0  0  0  0  0  0  0  0  0  0
   49.4760    5.6152   22.9505 C   0  0  0  0  0  0  0  0  0  0  0  0
   48.1639    5.3065   23.3044 C   0  0  0  0  0  0  0  0  0  0  0  0
   49.0540    8.2398   17.0637 O   0  0  0  0  0  0  0  0  0  0  0  0
   49.0540    8.2396   17.0652 O   0  0  0  0  0  0  0  0  0  0  0  0
   49.0541    8.2402   17.0620 O   0  0  0  0  0  0  0  0  0  0  0  0
   48.8947    7.9037   16.1559 H   0  0  0  0  0  0  0  0  0  0  0  0
   48.8108    7.5065   17.6284 H   0  0  0  0  0  0  0  0  0  0  0  0
   51.5404    8.2289   15.8122 H   0  0  0  0  0  0  0  0  0  0  0  0
   50.6336    9.5238   17.7296 H   0  0  0  0  0  0  0  0  0  0  0  0
   49.1275   10.5108   13.4462 H   0  0  0  0  0  0  0  0  0  0  0  0
   47.8500    8.6673   17.6651 H   0  0  0  0  0  0  0  0  0  0  0  0
   47.7611    5.6350   18.6065 H   0  0  0  0  0  0  0  0  0  0  0  0
   47.0219    7.1731   18.9972 H   0  0  0  0  0  0  0  0  0  0  0  0
   51.5438   10.0707   11.0835 H   0  0  0  0  0  0  0  0  0  0  0  0
   46.9764    9.3335   13.1039 H   0  0  0  0  0  0  0  0  0  0  0  0
   47.1984    9.0792   14.8347 H   0  0  0  0  0  0  0  0  0  0  0  0
   46.7548    7.7260   13.7946 H   0  0  0  0  0  0  0  0  0  0  0  0
   49.9718    7.2505   12.0225 H   0  0  0  0  0  0  0  0  0  0  0  0
   48.3031    6.7100   12.2127 H   0  0  0  0  0  0  0  0  0  0  0  0
   48.6381    8.2439   11.4121 H   0  0  0  0  0  0  0  0  0  0  0  0
   48.9668    4.3424   20.3426 H   0  0  0  0  0  0  0  0  0  0  0  0
   47.3561    8.2450   21.2465 H   0  0  0  0  0  0  0  0  0  0  0  0
   49.2832    3.9269   22.7548 H   0  0  0  0  0  0  0  0  0  0  0  0
   47.6884    7.8138   23.6531 H   0  0  0  0  0  0  0  0  0  0  0  0
   48.6465    5.6569   24.4153 H   0  0  0  0  0  0  0  0  0  0  0  0
   47.9250    7.8375   16.9290 H   0  0  0  0  0  0  0  0  0  0  0  0
   50.7054    8.8014   15.5316 H   0  0  0  0  0  0  0  0  0  0  0  0
   47.2919    8.8821   18.8990 H   0  0  0  0  0  0  0  0  0  0  0  0
   49.0226    8.9520   18.6781 H   0  0  0  0  0  0  0  0  0  0  0  0
   50.4373    6.7378   14.2891 H   0  0  0  0  0  0  0  0  0  0  0  0
   48.7441    6.7342   14.7746 H   0  0  0  0  0  0  0  0  0  0  0  0
   48.9988    5.6664   16.9014 H   0  0  0  0  0  0  0  0  0  0  0  0
   49.6411    6.0328   18.4837 H   0  0  0  0  0  0  0  0  0  0  0  0
   51.2019    6.6144   16.5415 H   0  0  0  0  0  0  0  0  0  0  0  0
   50.8753    7.9451   17.6359 H   0  0  0  0  0  0  0  0  0  0  0  0
   47.2278    8.6460   14.0905 H   0  0  0  0  0  0  0  0  0  0  0  0
   51.2363    8.2394   12.5497 H   0  0  0  0  0  0  0  0  0  0  0  0
   46.5165    6.4834   20.1092 H   0  0  0  0  0  0  0  0  0  0  0  0
   50.1973    8.6438   20.7147 H   0  0  0  0  0  0  0  0  0  0  0  0
   46.6819   10.1890   12.2371 H   0  0  0  0  0  0  0  0  0  0  0  0
   46.7395    5.4876   22.3651 H   0  0  0  0  0  0  0  0  0  0  0  0
   50.4133    7.6367   22.9582 H   0  0  0  0  0  0  0  0  0  0  0  0
   50.6780    9.7899   10.7100 H   0  0  0  0  0  0  0  0  0  0  0  0
   48.4031   10.7656   10.5463 H   0  0  0  0  0  0  0  0  0  0  0  0
   48.6896    6.0589   23.7908 H   0  0  0  0  0  0  0  0  0  0  0  0
   48.2282    6.5401   14.8444 H   0  0  0  0  0  0  0  0  0  0  0  0
   50.0165    5.6654   16.3172 H   0  0  0  0  0  0  0  0  0  0  0  0
   50.8194    9.4872   14.0713 H   0  0  0  0  0  0  0  0  0  0  0  0
   50.5211    8.1260   17.8661 H   0  0  0  0  0  0  0  0  0  0  0  0
   48.1929    8.5574   19.7763 H   0  0  0  0  0  0  0  0  0  0  0  0
   49.9102    8.2607   19.9625 H   0  0  0  0  0  0  0  0  0  0  0  0
   51.0824    9.4970   10.6674 H   0  0  0  0  0  0  0  0  0  0  0  0
   47.4929    7.9405   12.8158 H   0  0  0  0  0  0  0  0  0  0  0  0
   47.7727    9.3870   11.8435 H   0  0  0  0  0  0  0  0  0  0  0  0
   46.5762    9.4233   13.1341 H   0  0  0  0  0  0  0  0  0  0  0  0
   49.4638   11.4153   14.5459 H   0  0  0  0  0  0  0  0  0  0  0  0
   47.7560   11.4933   14.0807 H   0  0  0  0  0  0  0  0  0  0  0  0
   49.0084   11.4100   12.8408 H   0  0  0  0  0  0  0  0  0  0  0  0
   46.5225    6.9253   20.8103 H   0  0  0  0  0  0  0  0  0  0  0  0
   50.7630    6.6310   21.5665 H   0  0  0  0  0  0  0  0  0  0  0  0
   46.0823    5.5333   22.8004 H   0  0  0  0  0  0  0  0  0  0  0  0
   50.3015    5.2365   23.5484 H   0  0  0  0  0  0  0  0  0  0  0  0
   47.9655    4.6898   24.1772 H   0  0  0  0  0  0  0  0  0  0  0  0
   48.8014    7.4823   17.6126 H   0  0  0  0  0  0  0  0  0  0  0  0
   48.9051    7.9321   16.1570 H   0  0  0  0  0  0  0  0  0  0  0  0
   48.8005    7.4799   17.6113 H   0  0  0  0  0  0  0  0  0  0  0  0
   48.9060    7.9347   16.1568 H   0  0  0  0  0  0  0  0  0  0  0  0
   48.9039    7.9288   16.1569 H   0  0  0  0  0  0  0  0  0  0  0  0
   48.8025    7.4852   17.6144 H   0  0  0  0  0  0  0  0  0  0  0  0
  3  2  1  0
  4  2  1  0
  5  3  1  0
  6  2  1  0
  3  7  1  0
  8  6  1  0
  5  9  1  0
  6 10  1  0
 11  9  1  0
 12  4  2  0
 13 10  2  0
 14 11  2  0
 15 11  1  0
 16 10  1  0
 17  8  1  0
 18  8  1  0
 19 15  1  0
 20 19  2  0
 21 19  1  0
 22 20  1  0
 23 21  2  0
 24 23  1  0
  7  8  1  0
  4  5  1  0
 24 22  2  0
 26 32  1  0
 27 30  1  0
 28 29  1  0
 29 25  1  0
 30 26  1  0
 31 25  1  0
 32 31  1  0
 33 27  2  0
 34 27  1  0
 35 28  2  0
 36 28  1  0
 37 33  1  0
 38 35  1  0
 39 36  2  0
 40 34  2  0
 41 37  2  0
 42 39  1  0
 42 38  2  0
 40 41  1  0
 44 43  1  0
 45 43  1  0
 46 44  1  0
 47 43  1  0
 44 48  1  0
 49 47  1  0
 46 50  1  0
 47 51  1  0
 52 50  1  0
 53 45  2  0
 54 51  2  0
 55 52  2  0
 56 52  1  0
 57 51  1  0
 58 49  1  0
 59 49  1  0
 60 56  1  0
 61 60  2  0
 62 60  1  0
 63 61  1  0
 64 62  2  0
 65 64  1  0
 48 49  1  0
 45 46  1  0
 65 63  2  0
  1 69  1  0
  1 70  1  0
  3 71  1  6
  5 72  1  6
  6 73  1  1
  9 74  1  0
 15 75  1  0
 15 76  1  0
 16 77  1  0
 17 78  1  0
 17 79  1  0
 17 80  1  0
 18 81  1  0
 18 82  1  0
 18 83  1  0
 20 84  1  0
 21 85  1  0
 22 86  1  0
 23 87  1  0
 24 88  1  0
 25 89  1  0
 26 90  1  0
 29 91  1  0
 29 92  1  0
 30 93  1  0
 30 94  1  0
 31 95  1  0
 31 96  1  0
 32 97  1  0
 32 98  1  0
 33 99  1  0
 34100  1  0
 35101  1  0
 36102  1  0
 37103  1  0
 38104  1  0
 39105  1  0
 40106  1  0
 41107  1  0
 42108  1  0
 44109  1  1
 46110  1  6
 47111  1  6
 50112  1  0
 56113  1  0
 56114  1  0
 57115  1  0
 58116  1  0
 58117  1  0
 58118  1  0
 59119  1  0
 59120  1  0
 59121  1  0
 61122  1  0
 62123  1  0
 63124  1  0
 64125  1  0
 65126  1  0
 66127  1  0
 66128  1  0
 67129  1  0
 67130  1  0
 68131  1  0
 68132  1  0
M  END
> <Uni-Dock RESULT> 
ENERGY=   -7.369  LOWER_BOUND=    4.520  UPPER_BOUND=    6.694
INTER + INTRA:          -7.369
INTER:                  -7.369
INTRA:                   0.000
UNBOUND:                 0.000

$$$$

     RDKit          3D

132133  0  0  0  0  0  0  0  0999 V2000
   48.4951    8.3531   12.5801 O   0  0  0  0  0  0  0  0  0  0  0  0
   50.4871   10.0652   11.8331 N   0  0  0  0  0  0  0  0  0  0  0  0
   49.0245   10.1173   12.0151 C   0  0  1  0  0  0  0  0  0  0  0  0
   50.5139    8.7071   11.6964 C   0  0  0  0  0  0  0  0  0  0  0  0
   48.9779    8.6469   11.5118 C   0  0  1  0  0  0  0  0  0  0  0  0
   51.3013   10.7460   12.8326 C   0  0  2  0  0  0  0  0  0  0  0  0
   48.7770   10.4014   13.8217 S   0  0  0  0  0  0  0  0  0  0  0  0
   50.5794   10.6238   14.1934 C   0  0  0  0  0  0  0  0  0  0  0  0
   48.2605    7.6502   12.3510 N   0  0  0  0  0  0  0  0  0  0  0  0
   51.4909   12.1851   12.3609 C   0  0  0  0  0  0  0  0  0  0  0  0
   46.8837    7.6632   12.4330 C   0  0  0  0  0  0  0  0  0  0  0  0
   51.4121    7.9132   11.8413 O   0  0  0  0  0  0  0  0  0  0  0  0
   50.7190   12.8585   11.6959 O   0  0  0  0  0  0  0  0  0  0  0  0
   46.2057    8.4658   11.7961 O   0  0  0  0  0  0  0  0  0  0  0  0
   46.2974    6.6333   13.3832 C   0  0  0  0  0  0  0  0  0  0  0  0
   52.6560   12.7208   12.7857 O   0  0  0  0  0  0  0  0  0  0  0  0
   51.0469    9.3751   14.9604 C   0  0  0  0  0  0  0  0  0  0  0  0
   50.7340   11.8397   15.1149 C   0  0  0  0  0  0  0  0  0  0  0  0
   45.2116    5.7991   12.7514 C   0  0  0  0  0  0  0  0  0  0  0  0
   43.8708    6.1989   12.8352 C   0  0  0  0  0  0  0  0  0  0  0  0
   45.5308    4.6307   12.0454 C   0  0  0  0  0  0  0  0  0  0  0  0
   42.8670    5.4350   12.2388 C   0  0  0  0  0  0  0  0  0  0  0  0
   44.5245    3.8687   11.4490 C   0  0  0  0  0  0  0  0  0  0  0  0
   43.1934    4.2698   11.5469 C   0  0  0  0  0  0  0  0  0  0  0  0
   47.5915    7.4588   13.4941 N   0  0  0  0  0  0  0  0  0  0  0  0
   48.9118    9.8507   12.5425 N   0  0  0  0  0  0  0  0  0  0  0  0
   50.5339   10.9912   13.9669 C   0  0  0  0  0  0  0  0  0  0  0  0
   46.3951    5.8244   12.0276 C   0  0  0  0  0  0  0  0  0  0  0  0
   47.6963    6.5061   12.3814 C   0  0  0  0  0  0  0  0  0  0  0  0
   49.0738   10.6809   13.7383 C   0  0  0  0  0  0  0  0  0  0  0  0
   46.7811    8.6438   13.1625 C   0  0  0  0  0  0  0  0  0  0  0  0
   47.4943    9.6316   12.2114 C   0  0  0  0  0  0  0  0  0  0  0  0
   51.3661   10.0597   14.6049 C   0  0  0  0  0  0  0  0  0  0  0  0
   51.0896   12.1957   13.5105 C   0  0  0  0  0  0  0  0  0  0  0  0
   45.6761    5.1074   12.9954 C   0  0  0  0  0  0  0  0  0  0  0  0
   45.8974    5.8772   10.7171 C   0  0  0  0  0  0  0  0  0  0  0  0
   52.7209   10.3343   14.7972 C   0  0  0  0  0  0  0  0  0  0  0  0
   44.4831    4.4643   12.6630 C   0  0  0  0  0  0  0  0  0  0  0  0
   44.7030    5.2350   10.3859 C   0  0  0  0  0  0  0  0  0  0  0  0
   52.4453   12.4673   13.7020 C   0  0  0  0  0  0  0  0  0  0  0  0
   53.2600   11.5379   14.3462 C   0  0  0  0  0  0  0  0  0  0  0  0
   43.9967    4.5291   11.3583 C   0  0  0  0  0  0  0  0  0  0  0  0
   49.2528   11.0829   13.4297 N   0  0  0  0  0  0  0  0  0  0  0  0
   48.8028    9.7930   13.9922 C   0  0  1  0  0  0  0  0  0  0  0  0
   48.2863   11.0974   12.4611 C   0  0  0  0  0  0  0  0  0  0  0  0
   47.5393    9.9064   13.1036 C   0  0  1  0  0  0  0  0  0  0  0  0
   50.6578   11.2042   13.0401 C   0  0  2  0  0  0  0  0  0  0  0  0
   50.1279    8.6223   13.4774 S   0  0  0  0  0  0  0  0  0  0  0  0
   51.4069    9.9664   13.5740 C   0  0  0  0  0  0  0  0  0  0  0  0
   47.2282    8.7606   12.2066 N   0  0  0  0  0  0  0  0  0  0  0  0
   51.2294   12.5254   13.5371 C   0  0  0  0  0  0  0  0  0  0  0  0
   46.7144    7.5881   12.7230 C   0  0  0  0  0  0  0  0  0  0  0  0
   48.2007   11.7325   11.4353 O   0  0  0  0  0  0  0  0  0  0  0  0
   50.8373   13.1945   14.4804 O   0  0  0  0  0  0  0  0  0  0  0  0
   46.4429    7.4764   13.9164 O   0  0  0  0  0  0  0  0  0  0  0  0
   46.5657    6.4668   11.7075 C   0  0  0  0  0  0  0  0  0  0  0  0
   52.3144   12.9195   12.8365 O   0  0  0  0  0  0  0  0  0  0  0  0
   51.8697   10.0810   15.0335 C   0  0  0  0  0  0  0  0  0  0  0  0
   52.5877    9.5810   12.6794 C   0  0  0  0  0  0  0  0  0  0  0  0
   45.2790    5.6904   11.8428 C   0  0  0  0  0  0  0  0  0  0  0  0
   45.1620    4.6726   12.8002 C   0  0  0  0  0  0  0  0  0  0  0  0
   44.1778    5.9827   11.0259 C   0  0  0  0  0  0  0  0  0  0  0  0
   43.9741    3.9510   12.9262 C   0  0  0  0  0  0  0  0  0  0  0  0
   42.9905    5.2580   11.1531 C   0  0  0  0  0  0  0  0  0  0  0  0
   42.8903    4.2410   12.1006 C   0  0  0  0  0  0  0  0  0  0  0  0
   48.4837    8.3434   12.5766 O   0  0  0  0  0  0  0  0  0  0  0  0
   48.4827    8.3424   12.5761 O   0  0  0  0  0  0  0  0  0  0  0  0
   48.4850    8.3446   12.5771 O   0  0  0  0  0  0  0  0  0  0  0  0
   48.7756    8.9710   13.2720 H   0  0  0  0  0  0  0  0  0  0  0  0
   47.6538    8.0005   12.9073 H   0  0  0  0  0  0  0  0  0  0  0  0
   48.5360   10.8484   11.3638 H   0  0  0  0  0  0  0  0  0  0  0  0
   48.7009    8.5413   10.4552 H   0  0  0  0  0  0  0  0  0  0  0  0
   52.2878   10.2677   12.8518 H   0  0  0  0  0  0  0  0  0  0  0  0
   48.7915    7.0121   12.9329 H   0  0  0  0  0  0  0  0  0  0  0  0
   45.9092    7.1687   14.2585 H   0  0  0  0  0  0  0  0  0  0  0  0
   47.0842    5.9690   13.7637 H   0  0  0  0  0  0  0  0  0  0  0  0
   52.6508   13.6275   12.4113 H   0  0  0  0  0  0  0  0  0  0  0  0
   52.1198    9.4388   15.1789 H   0  0  0  0  0  0  0  0  0  0  0  0
   50.8841    8.4468   14.4052 H   0  0  0  0  0  0  0  0  0  0  0  0
   50.5288    9.2737   15.9217 H   0  0  0  0  0  0  0  0  0  0  0  0
   50.3218   12.7545   14.6740 H   0  0  0  0  0  0  0  0  0  0  0  0
   50.2255   11.6854   16.0743 H   0  0  0  0  0  0  0  0  0  0  0  0
   51.7915   12.0229   15.3396 H   0  0  0  0  0  0  0  0  0  0  0  0
   43.6020    7.1153   13.3569 H   0  0  0  0  0  0  0  0  0  0  0  0
   46.5640    4.3058   11.9517 H   0  0  0  0  0  0  0  0  0  0  0  0
   41.8302    5.7548   12.3075 H   0  0  0  0  0  0  0  0  0  0  0  0
   44.7789    2.9641   10.9019 H   0  0  0  0  0  0  0  0  0  0  0  0
   42.4106    3.6789   11.0790 H   0  0  0  0  0  0  0  0  0  0  0  0
   48.5388    7.8149   13.6594 H   0  0  0  0  0  0  0  0  0  0  0  0
   49.3600   10.3336   11.7635 H   0  0  0  0  0  0  0  0  0  0  0  0
   48.4069    5.7222   12.6715 H   0  0  0  0  0  0  0  0  0  0  0  0
   48.1362    6.9887   11.5004 H   0  0  0  0  0  0  0  0  0  0  0  0
   48.5175   11.6214   13.6359 H   0  0  0  0  0  0  0  0  0  0  0  0
   48.6808   10.1752   14.6282 H   0  0  0  0  0  0  0  0  0  0  0  0
   46.5760    9.1618   14.1072 H   0  0  0  0  0  0  0  0  0  0  0  0
   45.8007    8.3698   12.7573 H   0  0  0  0  0  0  0  0  0  0  0  0
   46.9482   10.5818   12.1767 H   0  0  0  0  0  0  0  0  0  0  0  0
   47.4555    9.2195   11.1958 H   0  0  0  0  0  0  0  0  0  0  0  0
   50.9583    9.1112   14.9487 H   0  0  0  0  0  0  0  0  0  0  0  0
   50.4685   12.9282   12.9998 H   0  0  0  0  0  0  0  0  0  0  0  0
   46.0471    5.0592   14.0173 H   0  0  0  0  0  0  0  0  0  0  0  0
   46.4375    6.4215    9.9462 H   0  0  0  0  0  0  0  0  0  0  0  0
   53.3561    9.6062   15.2946 H   0  0  0  0  0  0  0  0  0  0  0  0
   43.9339    3.9141   13.4228 H   0  0  0  0  0  0  0  0  0  0  0  0
   44.3243    5.2837    9.3682 H   0  0  0  0  0  0  0  0  0  0  0  0
   52.8676   13.4032   13.3444 H   0  0  0  0  0  0  0  0  0  0  0  0
   54.3157   11.7486   14.4929 H   0  0  0  0  0  0  0  0  0  0  0  0
   43.0672    4.0281   11.0994 H   0  0  0  0  0  0  0  0  0  0  0  0
   48.6236    9.8448   15.0712 H   0  0  0  0  0  0  0  0  0  0  0  0
   46.6408   10.2365   13.6403 H   0  0  0  0  0  0  0  0  0  0  0  0
   50.6929   11.2320   11.9421 H   0  0  0  0  0  0  0  0  0  0  0  0
   47.5591    8.7748   11.2469 H   0  0  0  0  0  0  0  0  0  0  0  0
   47.4222    5.7915   11.8274 H   0  0  0  0  0  0  0  0  0  0  0  0
   46.6378    6.8701   10.6903 H   0  0  0  0  0  0  0  0  0  0  0  0
   52.5573   13.7818   13.2375 H   0  0  0  0  0  0  0  0  0  0  0  0
   51.0582   10.3793   15.7069 H   0  0  0  0  0  0  0  0  0  0  0  0
   52.6673   10.8259   15.1346 H   0  0  0  0  0  0  0  0  0  0  0  0
   52.2771    9.1301   15.4004 H   0  0  0  0  0  0  0  0  0  0  0  0
   52.2861    9.4581   11.6332 H   0  0  0  0  0  0  0  0  0  0  0  0
   53.0547    8.6438   13.0062 H   0  0  0  0  0  0  0  0  0  0  0  0
   53.3648   10.3542   12.7046 H   0  0  0  0  0  0  0  0  0  0  0  0
   45.9948    4.4455   13.4627 H   0  0  0  0  0  0  0  0  0  0  0  0
   44.2334    6.7754   10.2832 H   0  0  0  0  0  0  0  0  0  0  0  0
   43.8944    3.1665   13.6740 H   0  0  0  0  0  0  0  0  0  0  0  0
   42.1412    5.4889   10.5146 H   0  0  0  0  0  0  0  0  0  0  0  0
   41.9656    3.6784   12.2006 H   0  0  0  0  0  0  0  0  0  0  0  0
   47.6462    8.0124   12.9343 H   0  0  0  0  0  0  0  0  0  0  0  0
   48.7944    8.9688   13.2485 H   0  0  0  0  0  0  0  0  0  0  0  0
   47.6453    8.0134   12.9369 H   0  0  0  0  0  0  0  0  0  0  0  0
   48.7964    8.9688   13.2465 H   0  0  0  0  0  0  0  0  0  0  0  0
   48.7923    8.9690   13.2512 H   0  0  0  0  0  0  0  0  0  0  0  0
   47.6472    8.0111   12.9311 H   0  0  0  0  0  0  0  0  0  0  0  0
  3  2  1  0
  4  2  1  0
  5  3  1  0
  6  2  1  0
  3  7  1  0
  8  6  1  0
  5  9  1  0
  6 10  1  0
 11  9  1  0
 12  4  2  0
 13 10  2  0
 14 11  2  0
 15 11  1  0
 16 10  1  0
 17  8  1  0
 18  8  1  0
 19 15  1  0
 20 19  2  0
 21 19  1  0
 22 20  1  0
 23 21  2  0
 24 23  1  0
  7  8  1  0
  4  5  1  0
 24 22  2  0
 26 32  1  0
 27 30  1  0
 28 29  1  0
 29 25  1  0
 30 26  1  0
 31 25  1  0
 32 31  1  0
 33 27  2  0
 34 27  1  0
 35 28  2  0
 36 28  1  0
 37 33  1  0
 38 35  1  0
 39 36  2  0
 40 34  2  0
 41 37  2  0
 42 39  1  0
 42 38  2  0
 40 41  1  0
 44 43  1  0
 45 43  1  0
 46 44  1  0
 47 43  1  0
 44 48  1  0
 49 47  1  0
 46 50  1  0
 47 51  1  0
 52 50  1  0
 53 45  2  0
 54 51  2  0
 55 52  2  0
 56 52  1  0
 57 51  1  0
 58 49  1  0
 59 49  1  0
 60 56  1  0
 61 60  2  0
 62 60  1  0
 63 61  1  0
 64 62  2  0
 65 64  1  0
 48 49  1  0
 45 46  1  0
 65 63  2  0
  1 69  1  0
  1 70  1  0
  3 71  1  6
  5 72  1  6
  6 73  1  1
  9 74  1  0
 15 75  1  0
 15 76  1  0
 16 77  1  0
 17 78  1  0
 17 79  1  0
 17 80  1  0
 18 81  1  0
 18 82  1  0
 18 83  1  0
 20 84  1  0
 21 85  1  0
 22 86  1  0
 23 87  1  0
 24 88  1  0
 25 89  1  0
 26 90  1  0
 29 91  1  0
 29 92  1  0
 30 93  1  0
 30 94  1  0
 31 95  1  0
 31 96  1  0
 32 97  1  0
 32 98  1  0
 33 99  1  0
 34100  1  0
 35101  1  0
 36102  1  0
 37103  1  0
 38104  1  0
 39105  1  0
 40106  1  0
 41107  1  0
 42108  1  0
 44109  1  1
 46110  1  6
 47111  1  6
 50112  1  0
 56113  1  0
 56114  1  0
 57115  1  0
 58116  1  0
 58117  1  0
 58118  1  0
 59119  1  0
 59120  1  0
 59121  1  0
 61122  1  0
 62123  1  0
 63124  1  0
 64125  1  0
 65126  1  0
 66127  1  0
 66128  1  0
 67129  1  0
 67130  1  0
 68131  1  0
 68132  1  0
M  END
> <Uni-Dock RESULT> 
ENERGY=   -7.079  LOWER_BOUND=    1.168  UPPER_BOUND=    2.469
INTER + INTRA:          -7.079
INTER:                  -7.079
INTRA:                   0.000
UNBOUND:                 0.000

$$$$

     RDKit          3D

132133  0  0  0  0  0  0  0  0999 V2000
   49.4201    7.4243   18.1450 O   0  0  0  0  0  0  0  0  0  0  0  0
   50.3771    7.0539   20.6757 N   0  0  0  0  0  0  0  0  0  0  0  0
   50.0565    8.1916   19.7936 C   0  0  1  0  0  0  0  0  0  0  0  0
   50.4977    6.1689   19.6431 C   0  0  0  0  0  0  0  0  0  0  0  0
   50.5336    7.3142   18.6019 C   0  0  1  0  0  0  0  0  0  0  0  0
   49.4692    6.8057   21.7890 C   0  0  2  0  0  0  0  0  0  0  0  0
   48.2385    8.4460   19.9825 S   0  0  0  0  0  0  0  0  0  0  0  0
   48.0440    7.1896   21.3316 C   0  0  0  0  0  0  0  0  0  0  0  0
   49.6163    7.1661   17.4403 N   0  0  0  0  0  0  0  0  0  0  0  0
   49.9759    7.6171   22.9782 C   0  0  0  0  0  0  0  0  0  0  0  0
   49.4031    8.2197   16.5761 C   0  0  0  0  0  0  0  0  0  0  0  0
   50.4289    4.9636   19.6198 O   0  0  0  0  0  0  0  0  0  0  0  0
   50.5728    8.6823   22.9528 O   0  0  0  0  0  0  0  0  0  0  0  0
   49.9827    9.2945   16.7116 O   0  0  0  0  0  0  0  0  0  0  0  0
   48.3875    7.9431   15.4809 C   0  0  0  0  0  0  0  0  0  0  0  0
   49.6718    7.0450   24.1637 O   0  0  0  0  0  0  0  0  0  0  0  0
   47.3089    5.9801   20.7294 C   0  0  0  0  0  0  0  0  0  0  0  0
   47.1577    7.7939   22.4274 C   0  0  0  0  0  0  0  0  0  0  0  0
   48.9014    8.2761   14.1028 C   0  0  0  0  0  0  0  0  0  0  0  0
   48.6949    9.5508   13.5578 C   0  0  0  0  0  0  0  0  0  0  0  0
   49.6192    7.3268   13.3616 C   0  0  0  0  0  0  0  0  0  0  0  0
   49.1823    9.8641   12.2885 C   0  0  0  0  0  0  0  0  0  0  0  0
   50.1064    7.6432   12.0922 C   0  0  0  0  0  0  0  0  0  0  0  0
   49.8867    8.9105   11.5554 C   0  0  0  0  0  0  0  0  0  0  0  0
   48.4121    7.4793   16.9482 N   0  0  0  0  0  0  0  0  0  0  0  0
   49.5173    8.0719   19.5552 N   0  0  0  0  0  0  0  0  0  0  0  0
   48.2700    7.4754   21.5675 C   0  0  0  0  0  0  0  0  0  0  0  0
   49.7355    7.4362   14.8268 C   0  0  0  0  0  0  0  0  0  0  0  0
   49.5170    6.8588   16.2059 C   0  0  0  0  0  0  0  0  0  0  0  0
   48.3536    8.4047   20.3801 C   0  0  0  0  0  0  0  0  0  0  0  0
   48.6802    8.8813   17.3136 C   0  0  0  0  0  0  0  0  0  0  0  0
   49.7082    9.0341   18.4576 C   0  0  0  0  0  0  0  0  0  0  0  0
   47.7023    6.1999   21.4321 C   0  0  0  0  0  0  0  0  0  0  0  0
   48.7934    7.8556   22.8122 C   0  0  0  0  0  0  0  0  0  0  0  0
   48.6939    7.4609   13.8876 C   0  0  0  0  0  0  0  0  0  0  0  0
   50.9928    7.9350   14.4552 C   0  0  0  0  0  0  0  0  0  0  0  0
   47.6443    5.3303   22.5221 C   0  0  0  0  0  0  0  0  0  0  0  0
   48.9020    7.9792   12.6087 C   0  0  0  0  0  0  0  0  0  0  0  0
   51.1996    8.4548   13.1762 C   0  0  0  0  0  0  0  0  0  0  0  0
   48.7362    6.9834   23.9006 C   0  0  0  0  0  0  0  0  0  0  0  0
   48.1608    5.7223   23.7559 C   0  0  0  0  0  0  0  0  0  0  0  0
   50.1548    8.4766   12.2539 C   0  0  0  0  0  0  0  0  0  0  0  0
   48.6832    8.5466   20.7803 N   0  0  0  0  0  0  0  0  0  0  0  0
   48.0632    8.0239   19.5453 C   0  0  1  0  0  0  0  0  0  0  0  0
   49.5549    9.3562   20.1041 C   0  0  0  0  0  0  0  0  0  0  0  0
   48.8281    9.1186   18.7608 C   0  0  1  0  0  0  0  0  0  0  0  0
   49.2071    7.5779   21.7434 C   0  0  2  0  0  0  0  0  0  0  0  0
   48.6870    6.2934   19.4591 S   0  0  0  0  0  0  0  0  0  0  0  0
   48.7310    6.1756   21.3128 C   0  0  0  0  0  0  0  0  0  0  0  0
   49.6760    8.6773   17.6203 N   0  0  0  0  0  0  0  0  0  0  0  0
   48.7847    7.9592   23.1560 C   0  0  0  0  0  0  0  0  0  0  0  0
   49.0973    8.2817   16.4311 C   0  0  0  0  0  0  0  0  0  0  0  0
   50.5761    9.8966   20.4621 O   0  0  0  0  0  0  0  0  0  0  0  0
   47.8171    8.6275   23.4853 O   0  0  0  0  0  0  0  0  0  0  0  0
   47.8820    8.3397   16.2577 O   0  0  0  0  0  0  0  0  0  0  0  0
   50.0790    7.7399   15.4048 C   0  0  0  0  0  0  0  0  0  0  0  0
   49.5911    7.4302   24.1011 O   0  0  0  0  0  0  0  0  0  0  0  0
   47.3243    5.8015   21.8010 C   0  0  0  0  0  0  0  0  0  0  0  0
   49.7295    5.0849   21.7084 C   0  0  0  0  0  0  0  0  0  0  0  0
   49.8107    8.2136   13.9975 C   0  0  0  0  0  0  0  0  0  0  0  0
   48.8331    7.5863   13.2121 C   0  0  0  0  0  0  0  0  0  0  0  0
   50.5222    9.2948   13.4588 C   0  0  0  0  0  0  0  0  0  0  0  0
   48.5844    8.0204   11.9092 C   0  0  0  0  0  0  0  0  0  0  0  0
   50.2724    9.7264   12.1541 C   0  0  0  0  0  0  0  0  0  0  0  0
   49.3062    9.0874   11.3793 C   0  0  0  0  0  0  0  0  0  0  0  0
   49.4224    7.4270   18.1301 O   0  0  0  0  0  0  0  0  0  0  0  0
   49.4228    7.4271   18.1286 O   0  0  0  0  0  0  0  0  0  0  0  0
   49.4220    7.4267   18.1317 O   0  0  0  0  0  0  0  0  0  0  0  0
   48.7665    7.5628   18.8469 H   0  0  0  0  0  0  0  0  0  0  0  0
   49.0092    7.8183   17.3606 H   0  0  0  0  0  0  0  0  0  0  0  0
   50.6677    9.0768   19.9944 H   0  0  0  0  0  0  0  0  0  0  0  0
   51.5573    7.5262   18.2683 H   0  0  0  0  0  0  0  0  0  0  0  0
   49.5382    5.7441   22.0548 H   0  0  0  0  0  0  0  0  0  0  0  0
   49.0796    6.3129   17.3330 H   0  0  0  0  0  0  0  0  0  0  0  0
   47.4863    8.5268   15.7054 H   0  0  0  0  0  0  0  0  0  0  0  0
   48.0754    6.8908   15.5025 H   0  0  0  0  0  0  0  0  0  0  0  0
   50.0559    7.6564   24.8278 H   0  0  0  0  0  0  0  0  0  0  0  0
   47.1950    5.1883   21.4796 H   0  0  0  0  0  0  0  0  0  0  0  0
   47.8336    5.5433   19.8747 H   0  0  0  0  0  0  0  0  0  0  0  0
   46.3011    6.2479   20.3894 H   0  0  0  0  0  0  0  0  0  0  0  0
   47.5693    8.7253   22.8328 H   0  0  0  0  0  0  0  0  0  0  0  0
   46.1521    8.0204   22.0530 H   0  0  0  0  0  0  0  0  0  0  0  0
   47.0379    7.0902   23.2598 H   0  0  0  0  0  0  0  0  0  0  0  0
   48.1620   10.3114   14.1250 H   0  0  0  0  0  0  0  0  0  0  0  0
   49.8071    6.3356   13.7666 H   0  0  0  0  0  0  0  0  0  0  0  0
   49.0189   10.8565   11.8755 H   0  0  0  0  0  0  0  0  0  0  0  0
   50.6632    6.9029   11.5230 H   0  0  0  0  0  0  0  0  0  0  0  0
   50.2697    9.1582   10.5690 H   0  0  0  0  0  0  0  0  0  0  0  0
   48.3430    6.9748   17.8382 H   0  0  0  0  0  0  0  0  0  0  0  0
   50.3420    8.0910   20.1557 H   0  0  0  0  0  0  0  0  0  0  0  0
   49.2859    5.7937   16.0808 H   0  0  0  0  0  0  0  0  0  0  0  0
   50.4424    6.8907   16.7935 H   0  0  0  0  0  0  0  0  0  0  0  0
   48.4147    9.4406   20.7374 H   0  0  0  0  0  0  0  0  0  0  0  0
   47.4236    8.3216   19.8056 H   0  0  0  0  0  0  0  0  0  0  0  0
   47.7271    9.3097   17.6468 H   0  0  0  0  0  0  0  0  0  0  0  0
   48.9859    9.4794   16.4481 H   0  0  0  0  0  0  0  0  0  0  0  0
   49.7030   10.0641   18.8336 H   0  0  0  0  0  0  0  0  0  0  0  0
   50.7098    8.8645   18.0445 H   0  0  0  0  0  0  0  0  0  0  0  0
   47.3086    5.8788   20.4698 H   0  0  0  0  0  0  0  0  0  0  0  0
   49.2520    8.8337   22.9395 H   0  0  0  0  0  0  0  0  0  0  0  0
   47.7116    7.0806   14.1611 H   0  0  0  0  0  0  0  0  0  0  0  0
   51.8191    7.9229   15.1619 H   0  0  0  0  0  0  0  0  0  0  0  0
   47.2004    4.3451   22.4064 H   0  0  0  0  0  0  0  0  0  0  0  0
   48.0858    7.9951   11.8909 H   0  0  0  0  0  0  0  0  0  0  0  0
   52.1769    8.8411   12.8984 H   0  0  0  0  0  0  0  0  0  0  0  0
   49.1450    7.2863   24.8615 H   0  0  0  0  0  0  0  0  0  0  0  0
   48.1186    5.0427   24.6026 H   0  0  0  0  0  0  0  0  0  0  0  0
   50.3168    8.8805   11.2576 H   0  0  0  0  0  0  0  0  0  0  0  0
   46.9728    8.1241   19.5478 H   0  0  0  0  0  0  0  0  0  0  0  0
   48.2122    9.9816   18.4776 H   0  0  0  0  0  0  0  0  0  0  0  0
   50.3037    7.6402   21.7084 H   0  0  0  0  0  0  0  0  0  0  0  0
   50.6631    8.4961   17.7739 H   0  0  0  0  0  0  0  0  0  0  0  0
   50.0326    6.6444   15.4438 H   0  0  0  0  0  0  0  0  0  0  0  0
   51.1036    8.0103   15.6868 H   0  0  0  0  0  0  0  0  0  0  0  0
   49.2267    7.7735   24.9454 H   0  0  0  0  0  0  0  0  0  0  0  0
   46.5802    6.5689   21.5589 H   0  0  0  0  0  0  0  0  0  0  0  0
   47.3098    5.6655   22.8884 H   0  0  0  0  0  0  0  0  0  0  0  0
   46.9855    4.8554   21.3597 H   0  0  0  0  0  0  0  0  0  0  0  0
   50.7403    5.3038   21.3465 H   0  0  0  0  0  0  0  0  0  0  0  0
   49.4365    4.1046   21.3128 H   0  0  0  0  0  0  0  0  0  0  0  0
   49.7890    4.9875   22.7990 H   0  0  0  0  0  0  0  0  0  0  0  0
   48.2505    6.7618   13.6181 H   0  0  0  0  0  0  0  0  0  0  0  0
   51.2772    9.8104   14.0480 H   0  0  0  0  0  0  0  0  0  0  0  0
   47.8221    7.5282   11.3113 H   0  0  0  0  0  0  0  0  0  0  0  0
   50.8296   10.5644   11.7422 H   0  0  0  0  0  0  0  0  0  0  0  0
   49.1107    9.4246   10.3646 H   0  0  0  0  0  0  0  0  0  0  0  0
   48.9818    7.8299   17.3668 H   0  0  0  0  0  0  0  0  0  0  0  0
   48.7917    7.5485   18.8556 H   0  0  0  0  0  0  0  0  0  0  0  0
   48.9791    7.8311   17.3672 H   0  0  0  0  0  0  0  0  0  0  0  0
   48.7939    7.5472   18.8567 H   0  0  0  0  0  0  0  0  0  0  0  0
   48.7888    7.5501   18.8546 H   0  0  0  0  0  0  0  0  0  0  0  0
   48.9850    7.8285   17.3662 H   0  0  0  0  0  0  0  0  0  0  0  0
  3  2  1  0
  4  2  1  0
  5  3  1  0
  6  2  1  0
  3  7  1  0
  8  6  1  0
  5  9  1  0
  6 10  1  0
 11  9  1  0
 12  4  2  0
 13 10  2  0
 14 11  2  0
 15 11  1  0
 16 10  1  0
 17  8  1  0
 18  8  1  0
 19 15  1  0
 20 19  2  0
 21 19  1  0
 22 20  1  0
 23 21  2  0
 24 23  1  0
  7  8  1  0
  4  5  1  0
 24 22  2  0
 26 32  1  0
 27 30  1  0
 28 29  1  0
 29 25  1  0
 30 26  1  0
 31 25  1  0
 32 31  1  0
 33 27  2  0
 34 27  1  0
 35 28  2  0
 36 28  1  0
 37 33  1  0
 38 35  1  0
 39 36  2  0
 40 34  2  0
 41 37  2  0
 42 39  1  0
 42 38  2  0
 40 41  1  0
 44 43  1  0
 45 43  1  0
 46 44  1  0
 47 43  1  0
 44 48  1  0
 49 47  1  0
 46 50  1  0
 47 51  1  0
 52 50  1  0
 53 45  2  0
 54 51  2  0
 55 52  2  0
 56 52  1  0
 57 51  1  0
 58 49  1  0
 59 49  1  0
 60 56  1  0
 61 60  2  0
 62 60  1  0
 63 61  1  0
 64 62  2  0
 65 64  1  0
 48 49  1  0
 45 46  1  0
 65 63  2  0
  1 69  1  0
  1 70  1  0
  3 71  1  6
  5 72  1  6
  6 73  1  1
  9 74  1  0
 15 75  1  0
 15 76  1  0
 16 77  1  0
 17 78  1  0
 17 79  1  0
 17 80  1  0
 18 81  1  0
 18 82  1  0
 18 83  1  0
 20 84  1  0
 21 85  1  0
 22 86  1  0
 23 87  1  0
 24 88  1  0
 25 89  1  0
 26 90  1  0
 29 91  1  0
 29 92  1  0
 30 93  1  0
 30 94  1  0
 31 95  1  0
 31 96  1  0
 32 97  1  0
 32 98  1  0
 33 99  1  0
 34100  1  0
 35101  1  0
 36102  1  0
 37103  1  0
 38104  1  0
 39105  1  0
 40106  1  0
 41107  1  0
 42108  1  0
 44109  1  1
 46110  1  6
 47111  1  6
 50112  1  0
 56113  1  0
 56114  1  0
 57115  1  0
 58116  1  0
 58117  1  0
 58118  1  0
 59119  1  0
 59120  1  0
 59121  1  0
 61122  1  0
 62123  1  0
 63124  1  0
 64125  1  0
 65126  1  0
 66127  1  0
 66128  1  0
 67129  1  0
 67130  1  0
 68131  1  0
 68132  1  0
M  END
> <Uni-Dock RESULT> 
ENERGY=   -6.723  LOWER_BOUND=    5.250  UPPER_BOUND=    8.009
INTER + INTRA:          -6.723
INTER:                  -6.723
INTRA:                   0.000
UNBOUND:                 0.000

$$$$
