
     RDKit          3D

132133  0  0  0  0  0  0  0  0999 V2000
   47.8148    8.3989   12.6942 O   0  0  0  0  0  0  0  0  0  0  0  0
   50.2961    9.6788   11.8889 N   0  0  0  0  0  0  0  0  0  0  0  0
   48.8259    9.6106   11.8630 C   0  0  1  0  0  0  0  0  0  0  0  0
   50.4500    8.3321   12.0456 C   0  0  0  0  0  0  0  0  0  0  0  0
   48.9657    8.0720   11.7007 C   0  0  1  0  0  0  0  0  0  0  0  0
   50.9070   10.6376   12.8048 C   0  0  2  0  0  0  0  0  0  0  0  0
   48.2894   10.2470   13.5047 S   0  0  0  0  0  0  0  0  0  0  0  0
   49.9969   10.7180   14.0566 C   0  0  0  0  0  0  0  0  0  0  0  0
   48.2126    7.2067   12.6477 N   0  0  0  0  0  0  0  0  0  0  0  0
   51.1275   11.9829   12.1047 C   0  0  0  0  0  0  0  0  0  0  0  0
   46.8416    7.0847   12.5423 C   0  0  0  0  0  0  0  0  0  0  0  0
   51.3863    7.6791   12.4425 O   0  0  0  0  0  0  0  0  0  0  0  0
   51.7579   12.9257   12.5620 O   0  0  0  0  0  0  0  0  0  0  0  0
   46.2102    7.6632   11.6608 O   0  0  0  0  0  0  0  0  0  0  0  0
   46.2022    6.2198   13.6152 C   0  0  0  0  0  0  0  0  0  0  0  0
   50.5383   12.1070   10.8970 O   0  0  0  0  0  0  0  0  0  0  0  0
   50.4313    9.6974   15.1241 C   0  0  0  0  0  0  0  0  0  0  0  0
   49.9092   12.0959   14.7228 C   0  0  0  0  0  0  0  0  0  0  0  0
   45.1851    5.2508   13.0665 C   0  0  0  0  0  0  0  0  0  0  0  0
   45.5758    3.9770   12.6302 C   0  0  0  0  0  0  0  0  0  0  0  0
   43.8384    5.6237   12.9575 C   0  0  0  0  0  0  0  0  0  0  0  0
   44.6322    3.0892   12.1091 C   0  0  0  0  0  0  0  0  0  0  0  0
   42.8976    4.7341   12.4369 C   0  0  0  0  0  0  0  0  0  0  0  0
   43.2939    3.4668   12.0146 C   0  0  0  0  0  0  0  0  0  0  0  0
   46.8220    7.1426   11.5667 N   0  0  0  0  0  0  0  0  0  0  0  0
   49.8656    9.0327   12.9144 N   0  0  0  0  0  0  0  0  0  0  0  0
   50.3800   11.0681   14.1725 C   0  0  0  0  0  0  0  0  0  0  0  0
   45.2703    5.3744   12.2281 C   0  0  0  0  0  0  0  0  0  0  0  0
   46.1567    6.5035   12.6977 C   0  0  0  0  0  0  0  0  0  0  0  0
   49.3513    9.9993   13.8854 C   0  0  0  0  0  0  0  0  0  0  0  0
   47.6549    8.2837   11.9575 C   0  0  0  0  0  0  0  0  0  0  0  0
   48.9541    7.9043   12.7026 C   0  0  0  0  0  0  0  0  0  0  0  0
   50.6934   12.0273   13.1981 C   0  0  0  0  0  0  0  0  0  0  0  0
   51.0443   11.1133   15.4062 C   0  0  0  0  0  0  0  0  0  0  0  0
   44.1100    5.6478   11.4883 C   0  0  0  0  0  0  0  0  0  0  0  0
   45.5934    4.0397   12.5115 C   0  0  0  0  0  0  0  0  0  0  0  0
   51.6425   13.0172   13.4556 C   0  0  0  0  0  0  0  0  0  0  0  0
   43.2859    4.6108   11.0490 C   0  0  0  0  0  0  0  0  0  0  0  0
   44.7671    3.0029   12.0718 C   0  0  0  0  0  0  0  0  0  0  0  0
   51.9938   12.1045   15.6623 C   0  0  0  0  0  0  0  0  0  0  0  0
   52.2910   13.0564   14.6882 C   0  0  0  0  0  0  0  0  0  0  0  0
   43.6141    3.2888   11.3427 C   0  0  0  0  0  0  0  0  0  0  0  0
   49.9957    9.1378   14.9474 N   0  0  0  0  0  0  0  0  0  0  0  0
   49.7924    8.2101   13.8201 C   0  0  1  0  0  0  0  0  0  0  0  0
   48.7337    8.9617   15.4385 C   0  0  0  0  0  0  0  0  0  0  0  0
   48.5042    7.7219   14.5417 C   0  0  1  0  0  0  0  0  0  0  0  0
   50.5126   10.4634   14.6314 C   0  0  2  0  0  0  0  0  0  0  0  0
   49.5688    9.2915   12.3438 S   0  0  0  0  0  0  0  0  0  0  0  0
   49.9762   10.8639   13.2390 C   0  0  0  0  0  0  0  0  0  0  0  0
   47.2401    7.7066   13.7571 N   0  0  0  0  0  0  0  0  0  0  0  0
   52.0353   10.3910   14.7071 C   0  0  0  0  0  0  0  0  0  0  0  0
   47.0326    6.7514   12.7819 C   0  0  0  0  0  0  0  0  0  0  0  0
   48.0683    9.6448   16.1812 O   0  0  0  0  0  0  0  0  0  0  0  0
   52.7502    9.4515   14.4002 O   0  0  0  0  0  0  0  0  0  0  0  0
   47.8465    5.8553   12.5761 O   0  0  0  0  0  0  0  0  0  0  0  0
   45.7576    6.9515   11.9806 C   0  0  0  0  0  0  0  0  0  0  0  0
   52.5872   11.5472   15.1361 O   0  0  0  0  0  0  0  0  0  0  0  0
   50.9610   11.6620   12.3741 C   0  0  0  0  0  0  0  0  0  0  0  0
   48.6736   11.6721   13.3619 C   0  0  0  0  0  0  0  0  0  0  0  0
   45.0662    5.6646   11.6040 C   0  0  0  0  0  0  0  0  0  0  0  0
   45.3993    5.0025   10.4140 C   0  0  0  0  0  0  0  0  0  0  0  0
   44.0952    5.1035   12.4451 C   0  0  0  0  0  0  0  0  0  0  0  0
   44.7601    3.8125   10.0633 C   0  0  0  0  0  0  0  0  0  0  0  0
   43.4573    3.9128   12.0920 C   0  0  0  0  0  0  0  0  0  0  0  0
   43.7874    3.2692   10.9005 C   0  0  0  0  0  0  0  0  0  0  0  0
   47.8175    8.4019   12.6951 O   0  0  0  0  0  0  0  0  0  0  0  0
   47.8142    8.3984   12.6939 O   0  0  0  0  0  0  0  0  0  0  0  0
   47.8137    8.3978   12.6937 O   0  0  0  0  0  0  0  0  0  0  0  0
   47.6450    7.4569   12.8438 H   0  0  0  0  0  0  0  0  0  0  0  0
   48.6349    8.5695   13.1808 H   0  0  0  0  0  0  0  0  0  0  0  0
   48.3872   10.1292   11.0060 H   0  0  0  0  0  0  0  0  0  0  0  0
   48.8482    7.7164   10.6695 H   0  0  0  0  0  0  0  0  0  0  0  0
   51.9064   10.2652   13.0637 H   0  0  0  0  0  0  0  0  0  0  0  0
   48.7001    6.7541   13.4131 H   0  0  0  0  0  0  0  0  0  0  0  0
   45.7334    6.8888   14.3471 H   0  0  0  0  0  0  0  0  0  0  0  0
   46.9703    5.6606   14.1647 H   0  0  0  0  0  0  0  0  0  0  0  0
   50.7693   13.0125   10.6038 H   0  0  0  0  0  0  0  0  0  0  0  0
   49.7769    9.7286   16.0039 H   0  0  0  0  0  0  0  0  0  0  0  0
   50.4298    8.6675   14.7549 H   0  0  0  0  0  0  0  0  0  0  0  0
   51.4485    9.9171   15.4711 H   0  0  0  0  0  0  0  0  0  0  0  0
   50.8990   12.4324   15.0519 H   0  0  0  0  0  0  0  0  0  0  0  0
   49.4982   12.8593   14.0517 H   0  0  0  0  0  0  0  0  0  0  0  0
   49.2699   12.0740   15.6149 H   0  0  0  0  0  0  0  0  0  0  0  0
   46.6161    3.6665   12.6894 H   0  0  0  0  0  0  0  0  0  0  0  0
   43.5159    6.6157   13.2672 H   0  0  0  0  0  0  0  0  0  0  0  0
   44.9426    2.1035   11.7708 H   0  0  0  0  0  0  0  0  0  0  0  0
   41.8562    5.0344   12.3526 H   0  0  0  0  0  0  0  0  0  0  0  0
   42.5613    2.7769   11.6043 H   0  0  0  0  0  0  0  0  0  0  0  0
   47.3812    6.4521   11.0680 H   0  0  0  0  0  0  0  0  0  0  0  0
   50.7588    8.6812   13.2605 H   0  0  0  0  0  0  0  0  0  0  0  0
   46.8892    6.1136   13.4131 H   0  0  0  0  0  0  0  0  0  0  0  0
   45.5333    7.2264   13.2392 H   0  0  0  0  0  0  0  0  0  0  0  0
   48.4487   10.4944   13.5098 H   0  0  0  0  0  0  0  0  0  0  0  0
   49.0775    9.4951   14.8206 H   0  0  0  0  0  0  0  0  0  0  0  0
   47.9254    8.8151   11.0367 H   0  0  0  0  0  0  0  0  0  0  0  0
   47.0552    8.9844   12.5493 H   0  0  0  0  0  0  0  0  0  0  0  0
   49.4914    7.1620   12.0995 H   0  0  0  0  0  0  0  0  0  0  0  0
   48.7304    7.4223   13.6615 H   0  0  0  0  0  0  0  0  0  0  0  0
   50.1992   11.9970   12.2290 H   0  0  0  0  0  0  0  0  0  0  0  0
   50.8266   10.3774   16.1767 H   0  0  0  0  0  0  0  0  0  0  0  0
   43.8533    6.6768   11.2446 H   0  0  0  0  0  0  0  0  0  0  0  0
   46.4905    3.7977   13.0759 H   0  0  0  0  0  0  0  0  0  0  0  0
   51.8771   13.7545   12.6924 H   0  0  0  0  0  0  0  0  0  0  0  0
   42.3915    4.8358   10.4743 H   0  0  0  0  0  0  0  0  0  0  0  0
   45.0244    1.9708   12.2968 H   0  0  0  0  0  0  0  0  0  0  0  0
   52.5026   12.1338   16.6223 H   0  0  0  0  0  0  0  0  0  0  0  0
   53.0316   13.8264   14.8880 H   0  0  0  0  0  0  0  0  0  0  0  0
   42.9735    2.4811   10.9986 H   0  0  0  0  0  0  0  0  0  0  0  0
   50.5883    7.4659   13.7287 H   0  0  0  0  0  0  0  0  0  0  0  0
   48.6288    6.7875   15.1031 H   0  0  0  0  0  0  0  0  0  0  0  0
   50.1706   11.1561   15.4105 H   0  0  0  0  0  0  0  0  0  0  0  0
   46.5909    8.4811   13.8409 H   0  0  0  0  0  0  0  0  0  0  0  0
   45.0554    7.5818   12.5407 H   0  0  0  0  0  0  0  0  0  0  0  0
   46.0188    7.5154   11.0765 H   0  0  0  0  0  0  0  0  0  0  0  0
   53.5511   11.3603   15.1480 H   0  0  0  0  0  0  0  0  0  0  0  0
   51.2503   12.5932   12.8751 H   0  0  0  0  0  0  0  0  0  0  0  0
   51.8759   11.1007   12.1551 H   0  0  0  0  0  0  0  0  0  0  0  0
   50.5153   11.9422   11.4114 H   0  0  0  0  0  0  0  0  0  0  0  0
   48.2650   11.9344   12.3787 H   0  0  0  0  0  0  0  0  0  0  0  0
   47.8921   11.1341   13.9082 H   0  0  0  0  0  0  0  0  0  0  0  0
   48.8557   12.6119   13.8966 H   0  0  0  0  0  0  0  0  0  0  0  0
   46.1679    5.4051    9.7573 H   0  0  0  0  0  0  0  0  0  0  0  0
   43.8283    5.5875   13.3819 H   0  0  0  0  0  0  0  0  0  0  0  0
   45.0275    3.3058    9.1397 H   0  0  0  0  0  0  0  0  0  0  0  0
   42.7053    3.4833   12.7486 H   0  0  0  0  0  0  0  0  0  0  0  0
   43.2921    2.3407   10.6271 H   0  0  0  0  0  0  0  0  0  0  0  0
   48.6378    8.5630   13.1845 H   0  0  0  0  0  0  0  0  0  0  0  0
   47.6396    7.4603   12.8393 H   0  0  0  0  0  0  0  0  0  0  0  0
   47.6461    7.4561   12.8447 H   0  0  0  0  0  0  0  0  0  0  0  0
   48.6344    8.5707   13.1802 H   0  0  0  0  0  0  0  0  0  0  0  0
   48.6339    8.5720   13.1795 H   0  0  0  0  0  0  0  0  0  0  0  0
   47.6472    7.4554   12.8456 H   0  0  0  0  0  0  0  0  0  0  0  0
  3  2  1  0
  4  2  1  0
  5  3  1  0
  6  2  1  0
  3  7  1  0
  8  6  1  0
  5  9  1  0
  6 10  1  0
 11  9  1  0
 12  4  2  0
 13 10  2  0
 14 11  2  0
 15 11  1  0
 16 10  1  0
 17  8  1  0
 18  8  1  0
 19 15  1  0
 20 19  2  0
 21 19  1  0
 22 20  1  0
 23 21  2  0
 24 23  1  0
  7  8  1  0
  4  5  1  0
 24 22  2  0
 26 32  1  0
 27 30  1  0
 28 29  1  0
 29 25  1  0
 30 26  1  0
 31 25  1  0
 32 31  1  0
 33 27  2  0
 34 27  1  0
 35 28  2  0
 36 28  1  0
 37 33  1  0
 38 35  1  0
 39 36  2  0
 40 34  2  0
 41 37  2  0
 42 39  1  0
 42 38  2  0
 40 41  1  0
 44 43  1  0
 45 43  1  0
 46 44  1  0
 47 43  1  0
 44 48  1  0
 49 47  1  0
 46 50  1  0
 47 51  1  0
 52 50  1  0
 53 45  2  0
 54 51  2  0
 55 52  2  0
 56 52  1  0
 57 51  1  0
 58 49  1  0
 59 49  1  0
 60 56  1  0
 61 60  2  0
 62 60  1  0
 63 61  1  0
 64 62  2  0
 65 64  1  0
 48 49  1  0
 45 46  1  0
 65 63  2  0
  1 69  1  0
  1 70  1  0
  3 71  1  1
  5 72  1  1
  6 73  1  1
  9 74  1  0
 15 75  1  0
 15 76  1  0
 16 77  1  0
 17 78  1  0
 17 79  1  0
 17 80  1  0
 18 81  1  0
 18 82  1  0
 18 83  1  0
 20 84  1  0
 21 85  1  0
 22 86  1  0
 23 87  1  0
 24 88  1  0
 25 89  1  0
 26 90  1  0
 29 91  1  0
 29 92  1  0
 30 93  1  0
 30 94  1  0
 31 95  1  0
 31 96  1  0
 32 97  1  0
 32 98  1  0
 33 99  1  0
 34100  1  0
 35101  1  0
 36102  1  0
 37103  1  0
 38104  1  0
 39105  1  0
 40106  1  0
 41107  1  0
 42108  1  0
 44109  1  1
 46110  1  6
 47111  1  6
 50112  1  0
 56113  1  0
 56114  1  0
 57115  1  0
 58116  1  0
 58117  1  0
 58118  1  0
 59119  1  0
 59120  1  0
 59121  1  0
 61122  1  0
 62123  1  0
 63124  1  0
 64125  1  0
 65126  1  0
 66127  1  0
 66128  1  0
 67129  1  0
 67130  1  0
 68131  1  0
 68132  1  0
M  END
> <Uni-Dock RESULT> 
ENERGY=   -8.377  LOWER_BOUND=    0.000  UPPER_BOUND=    0.000
INTER + INTRA:          -8.377
INTER:                  -8.377
INTRA:                   0.000
UNBOUND:                 0.000

$$$$

     RDKit          3D

132133  0  0  0  0  0  0  0  0999 V2000
   48.6051    7.6881   13.4932 O   0  0  0  0  0  0  0  0  0  0  0  0
   50.0021    8.6097   15.8686 N   0  0  0  0  0  0  0  0  0  0  0  0
   49.8217    7.6182   14.7956 C   0  0  1  0  0  0  0  0  0  0  0  0
   48.6869    8.9727   15.8833 C   0  0  0  0  0  0  0  0  0  0  0  0
   48.2901    7.7572   15.0144 C   0  0  1  0  0  0  0  0  0  0  0  0
   51.0717    9.5894   15.7037 C   0  0  2  0  0  0  0  0  0  0  0  0
   50.5407    8.4036   13.2942 S   0  0  0  0  0  0  0  0  0  0  0  0
   51.1798    9.8979   14.1889 C   0  0  0  0  0  0  0  0  0  0  0  0
   47.4462    8.0472   13.8244 N   0  0  0  0  0  0  0  0  0  0  0  0
   52.3719    9.0751   16.3313 C   0  0  0  0  0  0  0  0  0  0  0  0
   47.2137    7.0690   12.8784 C   0  0  0  0  0  0  0  0  0  0  0  0
   48.1385    9.9597   16.3144 O   0  0  0  0  0  0  0  0  0  0  0  0
   53.3918    9.7311   16.4885 O   0  0  0  0  0  0  0  0  0  0  0  0
   47.6735    5.9356   12.9988 O   0  0  0  0  0  0  0  0  0  0  0  0
   46.3885    7.5276   11.6882 C   0  0  0  0  0  0  0  0  0  0  0  0
   52.3579    7.7781   16.7035 O   0  0  0  0  0  0  0  0  0  0  0  0
   50.2801   11.0849   13.7995 C   0  0  0  0  0  0  0  0  0  0  0  0
   52.5944   10.1828   13.6715 C   0  0  0  0  0  0  0  0  0  0  0  0
   45.3065    6.5492   11.3056 C   0  0  0  0  0  0  0  0  0  0  0  0
   44.0358    6.6246   11.8932 C   0  0  0  0  0  0  0  0  0  0  0  0
   45.5675    5.5313   10.3781 C   0  0  0  0  0  0  0  0  0  0  0  0
   43.0421    5.7069   11.5463 C   0  0  0  0  0  0  0  0  0  0  0  0
   44.5723    4.6160   10.0329 C   0  0  0  0  0  0  0  0  0  0  0  0
   43.3096    4.7048   10.6153 C   0  0  0  0  0  0  0  0  0  0  0  0
   47.1947    6.3298   13.5178 N   0  0  0  0  0  0  0  0  0  0  0  0
   49.4064    9.1490   14.8642 N   0  0  0  0  0  0  0  0  0  0  0  0
   51.5656   10.2011   14.3939 C   0  0  0  0  0  0  0  0  0  0  0  0
   45.3711    5.9741   11.9305 C   0  0  0  0  0  0  0  0  0  0  0  0
   46.5965    6.7898   12.2685 C   0  0  0  0  0  0  0  0  0  0  0  0
   50.4036    9.4187   13.8276 C   0  0  0  0  0  0  0  0  0  0  0  0
   48.4218    7.0505   13.8690 C   0  0  0  0  0  0  0  0  0  0  0  0
   48.1997    8.5068   14.3348 C   0  0  0  0  0  0  0  0  0  0  0  0
   52.4677    9.5878   15.2759 C   0  0  0  0  0  0  0  0  0  0  0  0
   51.7555   11.5492   14.0593 C   0  0  0  0  0  0  0  0  0  0  0  0
   45.4986    4.6256   11.5646 C   0  0  0  0  0  0  0  0  0  0  0  0
   44.0903    6.5421   11.9856 C   0  0  0  0  0  0  0  0  0  0  0  0
   53.5429   10.3037   15.8032 C   0  0  0  0  0  0  0  0  0  0  0  0
   44.3719    3.8639   11.2521 C   0  0  0  0  0  0  0  0  0  0  0  0
   42.9635    5.7786   11.6717 C   0  0  0  0  0  0  0  0  0  0  0  0
   52.8321   12.2642   14.5878 C   0  0  0  0  0  0  0  0  0  0  0  0
   53.7257   11.6411   15.4576 C   0  0  0  0  0  0  0  0  0  0  0  0
   43.1049    4.4415   11.3041 C   0  0  0  0  0  0  0  0  0  0  0  0
   49.6774   10.7244   13.5971 N   0  0  0  0  0  0  0  0  0  0  0  0
   48.6528    9.8570   14.2061 C   0  0  1  0  0  0  0  0  0  0  0  0
   49.4453   10.2647   12.3323 C   0  0  0  0  0  0  0  0  0  0  0  0
   48.1263    9.5835   12.7685 C   0  0  1  0  0  0  0  0  0  0  0  0
   51.0097   10.6931   14.1870 C   0  0  2  0  0  0  0  0  0  0  0  0
   49.5974    8.5023   15.0257 S   0  0  0  0  0  0  0  0  0  0  0  0
   51.2603    9.2652   14.7212 C   0  0  0  0  0  0  0  0  0  0  0  0
   47.9556    8.1639   12.3569 N   0  0  0  0  0  0  0  0  0  0  0  0
   51.0580   11.7714   15.2662 C   0  0  0  0  0  0  0  0  0  0  0  0
   46.9152    7.4089   12.8608 C   0  0  0  0  0  0  0  0  0  0  0  0
   50.1316   10.2959   11.3379 O   0  0  0  0  0  0  0  0  0  0  0  0
   50.1540   12.1224   16.0062 O   0  0  0  0  0  0  0  0  0  0  0  0
   46.0696    7.8958   13.6063 O   0  0  0  0  0  0  0  0  0  0  0  0
   46.9566    5.9465   12.4515 C   0  0  0  0  0  0  0  0  0  0  0  0
   52.2821   12.3312   15.3832 O   0  0  0  0  0  0  0  0  0  0  0  0
   52.0611    9.1974   16.0285 C   0  0  0  0  0  0  0  0  0  0  0  0
   51.9753    8.4010   13.6691 C   0  0  0  0  0  0  0  0  0  0  0  0
   45.5961    5.3464   12.1964 C   0  0  0  0  0  0  0  0  0  0  0  0
   44.8713    4.7616   13.2442 C   0  0  0  0  0  0  0  0  0  0  0  0
   45.0302    5.3804   10.9143 C   0  0  0  0  0  0  0  0  0  0  0  0
   43.6130    4.2049   13.0100 C   0  0  0  0  0  0  0  0  0  0  0  0
   43.7712    4.8228   10.6828 C   0  0  0  0  0  0  0  0  0  0  0  0
   43.0643    4.2329   11.7292 C   0  0  0  0  0  0  0  0  0  0  0  0
   48.6084    7.6903   13.4945 O   0  0  0  0  0  0  0  0  0  0  0  0
   48.6046    7.6877   13.4929 O   0  0  0  0  0  0  0  0  0  0  0  0
   48.6040    7.6872   13.4927 O   0  0  0  0  0  0  0  0  0  0  0  0
   47.6674    7.7867   13.2708 H   0  0  0  0  0  0  0  0  0  0  0  0
   48.8739    8.5754   13.7745 H   0  0  0  0  0  0  0  0  0  0  0  0
   50.2383    6.6378   15.0427 H   0  0  0  0  0  0  0  0  0  0  0  0
   47.8483    6.9563   15.6203 H   0  0  0  0  0  0  0  0  0  0  0  0
   50.7966   10.4864   16.2730 H   0  0  0  0  0  0  0  0  0  0  0  0
   47.0919    8.9855   13.6746 H   0  0  0  0  0  0  0  0  0  0  0  0
   47.0748    7.6832   10.8469 H   0  0  0  0  0  0  0  0  0  0  0  0
   45.9327    8.5050   11.8918 H   0  0  0  0  0  0  0  0  0  0  0  0
   53.2529    7.6182   17.0678 H   0  0  0  0  0  0  0  0  0  0  0  0
   50.3297   11.2946   12.7239 H   0  0  0  0  0  0  0  0  0  0  0  0
   49.2276   10.9222   14.0502 H   0  0  0  0  0  0  0  0  0  0  0  0
   50.6017   11.9951   14.3205 H   0  0  0  0  0  0  0  0  0  0  0  0
   53.0287   11.0490   14.1837 H   0  0  0  0  0  0  0  0  0  0  0  0
   53.2708    9.3317   13.8134 H   0  0  0  0  0  0  0  0  0  0  0  0
   52.5934   10.4174   12.5990 H   0  0  0  0  0  0  0  0  0  0  0  0
   43.8099    7.3950   12.6265 H   0  0  0  0  0  0  0  0  0  0  0  0
   46.5534    5.4382    9.9271 H   0  0  0  0  0  0  0  0  0  0  0  0
   42.0593    5.7702   12.0074 H   0  0  0  0  0  0  0  0  0  0  0  0
   44.7861    3.8276    9.3157 H   0  0  0  0  0  0  0  0  0  0  0  0
   42.5370    3.9881   10.3497 H   0  0  0  0  0  0  0  0  0  0  0  0
   46.5117    6.4088   14.2699 H   0  0  0  0  0  0  0  0  0  0  0  0
   49.1507   10.0373   15.2963 H   0  0  0  0  0  0  0  0  0  0  0  0
   46.3190    7.8476   12.3338 H   0  0  0  0  0  0  0  0  0  0  0  0
   47.3101    6.6961   11.4400 H   0  0  0  0  0  0  0  0  0  0  0  0
   50.7990    8.4869   13.4079 H   0  0  0  0  0  0  0  0  0  0  0  0
   49.9538    9.9805   12.9995 H   0  0  0  0  0  0  0  0  0  0  0  0
   48.8995    6.4941   14.6849 H   0  0  0  0  0  0  0  0  0  0  0  0
   49.1191    7.0121   13.0244 H   0  0  0  0  0  0  0  0  0  0  0  0
   47.4556    8.4996   15.1408 H   0  0  0  0  0  0  0  0  0  0  0  0
   47.7776    9.1170   13.5278 H   0  0  0  0  0  0  0  0  0  0  0  0
   52.3257    8.5467   15.5592 H   0  0  0  0  0  0  0  0  0  0  0  0
   51.0669   12.0517   13.3841 H   0  0  0  0  0  0  0  0  0  0  0  0
   46.4836    4.1641   11.5335 H   0  0  0  0  0  0  0  0  0  0  0  0
   43.9606    7.5823   12.2736 H   0  0  0  0  0  0  0  0  0  0  0  0
   54.2349    9.8176   16.4860 H   0  0  0  0  0  0  0  0  0  0  0  0
   44.4841    2.8197   10.9731 H   0  0  0  0  0  0  0  0  0  0  0  0
   41.9741    6.2270   11.7159 H   0  0  0  0  0  0  0  0  0  0  0  0
   52.9735   13.3084   14.3214 H   0  0  0  0  0  0  0  0  0  0  0  0
   54.5622   12.1992   15.8699 H   0  0  0  0  0  0  0  0  0  0  0  0
   42.2273    3.8477   11.0629 H   0  0  0  0  0  0  0  0  0  0  0  0
   47.9657   10.3999   14.8608 H   0  0  0  0  0  0  0  0  0  0  0  0
   47.2499   10.1813   12.4883 H   0  0  0  0  0  0  0  0  0  0  0  0
   51.7328   10.9655   13.4080 H   0  0  0  0  0  0  0  0  0  0  0  0
   48.6833    7.7098   11.8160 H   0  0  0  0  0  0  0  0  0  0  0  0
   47.5736    5.8241   11.5524 H   0  0  0  0  0  0  0  0  0  0  0  0
   47.4672    5.3928   13.2492 H   0  0  0  0  0  0  0  0  0  0  0  0
   52.1696   13.0025   16.0910 H   0  0  0  0  0  0  0  0  0  0  0  0
   53.0472    9.6597   15.9033 H   0  0  0  0  0  0  0  0  0  0  0  0
   51.5549    9.7058   16.8563 H   0  0  0  0  0  0  0  0  0  0  0  0
   52.2319    8.1600   16.3422 H   0  0  0  0  0  0  0  0  0  0  0  0
   52.1296    7.3750   14.0242 H   0  0  0  0  0  0  0  0  0  0  0  0
   51.4239    8.3412   12.7253 H   0  0  0  0  0  0  0  0  0  0  0  0
   52.9646    8.8158   13.4418 H   0  0  0  0  0  0  0  0  0  0  0  0
   45.2787    4.7458   14.2530 H   0  0  0  0  0  0  0  0  0  0  0  0
   45.5635    5.8416   10.0862 H   0  0  0  0  0  0  0  0  0  0  0  0
   43.0582    3.7561   13.8297 H   0  0  0  0  0  0  0  0  0  0  0  0
   43.3384    4.8523    9.6863 H   0  0  0  0  0  0  0  0  0  0  0  0
   42.0830    3.8010   11.5489 H   0  0  0  0  0  0  0  0  0  0  0  0
   48.8679    8.5806   13.7742 H   0  0  0  0  0  0  0  0  0  0  0  0
   47.6700    7.7794   13.2697 H   0  0  0  0  0  0  0  0  0  0  0  0
   47.6668    7.7882   13.2710 H   0  0  0  0  0  0  0  0  0  0  0  0
   48.8750    8.5744   13.7746 H   0  0  0  0  0  0  0  0  0  0  0  0
   48.8762    8.5734   13.7747 H   0  0  0  0  0  0  0  0  0  0  0  0
   47.6662    7.7896   13.2712 H   0  0  0  0  0  0  0  0  0  0  0  0
  3  2  1  0
  4  2  1  0
  5  3  1  0
  6  2  1  0
  3  7  1  0
  8  6  1  0
  5  9  1  0
  6 10  1  0
 11  9  1  0
 12  4  2  0
 13 10  2  0
 14 11  2  0
 15 11  1  0
 16 10  1  0
 17  8  1  0
 18  8  1  0
 19 15  1  0
 20 19  2  0
 21 19  1  0
 22 20  1  0
 23 21  2  0
 24 23  1  0
  7  8  1  0
  4  5  1  0
 24 22  2  0
 26 32  1  0
 27 30  1  0
 28 29  1  0
 29 25  1  0
 30 26  1  0
 31 25  1  0
 32 31  1  0
 33 27  2  0
 34 27  1  0
 35 28  2  0
 36 28  1  0
 37 33  1  0
 38 35  1  0
 39 36  2  0
 40 34  2  0
 41 37  2  0
 42 39  1  0
 42 38  2  0
 40 41  1  0
 44 43  1  0
 45 43  1  0
 46 44  1  0
 47 43  1  0
 44 48  1  0
 49 47  1  0
 46 50  1  0
 47 51  1  0
 52 50  1  0
 53 45  2  0
 54 51  2  0
 55 52  2  0
 56 52  1  0
 57 51  1  0
 58 49  1  0
 59 49  1  0
 60 56  1  0
 61 60  2  0
 62 60  1  0
 63 61  1  0
 64 62  2  0
 65 64  1  0
 48 49  1  0
 45 46  1  0
 65 63  2  0
  1 69  1  0
  1 70  1  0
  3 71  1  1
  5 72  1  1
  6 73  1  1
  9 74  1  0
 15 75  1  0
 15 76  1  0
 16 77  1  0
 17 78  1  0
 17 79  1  0
 17 80  1  0
 18 81  1  0
 18 82  1  0
 18 83  1  0
 20 84  1  0
 21 85  1  0
 22 86  1  0
 23 87  1  0
 24 88  1  0
 25 89  1  0
 26 90  1  0
 29 91  1  0
 29 92  1  0
 30 93  1  0
 30 94  1  0
 31 95  1  0
 31 96  1  0
 32 97  1  0
 32 98  1  0
 33 99  1  0
 34100  1  0
 35101  1  0
 36102  1  0
 37103  1  0
 38104  1  0
 39105  1  0
 40106  1  0
 41107  1  0
 42108  1  0
 44109  1  1
 46110  1  6
 47111  1  6
 50112  1  0
 56113  1  0
 56114  1  0
 57115  1  0
 58116  1  0
 58117  1  0
 58118  1  0
 59119  1  0
 59120  1  0
 59121  1  0
 61122  1  0
 62123  1  0
 63124  1  0
 64125  1  0
 65126  1  0
 66127  1  0
 66128  1  0
 67129  1  0
 67130  1  0
 68131  1  0
 68132  1  0
M  END
> <Uni-Dock RESULT> 
ENERGY=   -8.018  LOWER_BOUND=    1.318  UPPER_BOUND=    2.895
INTER + INTRA:          -8.018
INTER:                  -8.018
INTRA:                   0.000
UNBOUND:                 0.000

$$$$

     RDKit          3D

132133  0  0  0  0  0  0  0  0999 V2000
   43.8016   10.6482   11.6519 O   0  0  0  0  0  0  0  0  0  0  0  0
   41.5554   10.6841    9.8089 N   0  0  0  0  0  0  0  0  0  0  0  0
   42.1460   10.2847   11.0967 C   0  0  1  0  0  0  0  0  0  0  0  0
   42.7498   10.6705    9.1494 C   0  0  0  0  0  0  0  0  0  0  0  0
   43.4435    9.9335   10.3180 C   0  0  1  0  0  0  0  0  0  0  0  0
   40.6846   11.8559    9.8050 C   0  0  2  0  0  0  0  0  0  0  0  0
   42.1542   11.8185   12.1144 S   0  0  0  0  0  0  0  0  0  0  0  0
   41.2380   12.8405   10.8661 C   0  0  0  0  0  0  0  0  0  0  0  0
   44.7202   10.5236   10.8019 N   0  0  0  0  0  0  0  0  0  0  0  0
   39.2272   11.4419   10.0361 C   0  0  0  0  0  0  0  0  0  0  0  0
   45.3045   10.0647   11.9654 C   0  0  0  0  0  0  0  0  0  0  0  0
   43.0909   11.1845    8.1101 O   0  0  0  0  0  0  0  0  0  0  0  0
   38.2557   12.1771    9.9308 O   0  0  0  0  0  0  0  0  0  0  0  0
   44.8056    9.1512   12.6188 O   0  0  0  0  0  0  0  0  0  0  0  0
   46.5691   10.8036   12.3687 C   0  0  0  0  0  0  0  0  0  0  0  0
   39.0456   10.1586   10.4117 O   0  0  0  0  0  0  0  0  0  0  0  0
   42.2507   13.8170   10.2411 C   0  0  0  0  0  0  0  0  0  0  0  0
   40.1850   13.6628   11.6178 C   0  0  0  0  0  0  0  0  0  0  0  0
   47.6835    9.8811   12.7951 C   0  0  0  0  0  0  0  0  0  0  0  0
   48.5865    9.3694   11.8526 C   0  0  0  0  0  0  0  0  0  0  0  0
   47.8121    9.4989   14.1374 C   0  0  0  0  0  0  0  0  0  0  0  0
   49.6074    8.5038   12.2506 C   0  0  0  0  0  0  0  0  0  0  0  0
   48.8338    8.6341   14.5324 C   0  0  0  0  0  0  0  0  0  0  0  0
   49.7321    8.1383   13.5898 C   0  0  0  0  0  0  0  0  0  0  0  0
   45.0298    9.1347   11.8419 N   0  0  0  0  0  0  0  0  0  0  0  0
   42.5357   11.4622   10.1057 N   0  0  0  0  0  0  0  0  0  0  0  0
   40.8103   13.0988   10.6842 C   0  0  0  0  0  0  0  0  0  0  0  0
   47.3438    9.1182   12.6274 C   0  0  0  0  0  0  0  0  0  0  0  0
   46.1141    9.9566   12.3702 C   0  0  0  0  0  0  0  0  0  0  0  0
   42.0804   12.4090   11.1245 C   0  0  0  0  0  0  0  0  0  0  0  0
   43.7903    9.8862   11.6242 C   0  0  0  0  0  0  0  0  0  0  0  0
   43.8346   10.8645   10.4292 C   0  0  0  0  0  0  0  0  0  0  0  0
   39.6025   12.3875   10.6285 C   0  0  0  0  0  0  0  0  0  0  0  0
   40.8181   14.4511   10.3143 C   0  0  0  0  0  0  0  0  0  0  0  0
   47.3458    8.1635   13.6555 C   0  0  0  0  0  0  0  0  0  0  0  0
   48.4956    9.2696   11.8422 C   0  0  0  0  0  0  0  0  0  0  0  0
   38.4256   13.0176   10.2225 C   0  0  0  0  0  0  0  0  0  0  0  0
   48.4769    7.3835   13.8994 C   0  0  0  0  0  0  0  0  0  0  0  0
   49.6273    8.4886   12.0881 C   0  0  0  0  0  0  0  0  0  0  0  0
   39.6395   15.0800    9.9083 C   0  0  0  0  0  0  0  0  0  0  0  0
   38.4443   14.3640    9.8643 C   0  0  0  0  0  0  0  0  0  0  0  0
   49.6178    7.5478   13.1165 C   0  0  0  0  0  0  0  0  0  0  0  0
   42.8721   13.4561   10.3748 N   0  0  0  0  0  0  0  0  0  0  0  0
   43.5168   12.1877    9.9896 C   0  0  1  0  0  0  0  0  0  0  0  0
   43.6058   13.5869   11.5191 C   0  0  0  0  0  0  0  0  0  0  0  0
   44.5955   12.4859   11.0694 C   0  0  1  0  0  0  0  0  0  0  0  0
   41.4150   13.4803   10.3966 C   0  0  2  0  0  0  0  0  0  0  0  0
   42.2762   10.8812   10.3811 S   0  0  0  0  0  0  0  0  0  0  0  0
   40.9216   12.0747   10.8060 C   0  0  0  0  0  0  0  0  0  0  0  0
   44.8849   11.4194   12.0657 N   0  0  0  0  0  0  0  0  0  0  0  0
   40.9437   13.9193    9.0128 C   0  0  0  0  0  0  0  0  0  0  0  0
   45.5917   10.2914   11.6988 C   0  0  0  0  0  0  0  0  0  0  0  0
   43.4073   14.2353   12.5197 O   0  0  0  0  0  0  0  0  0  0  0  0
   41.4579   13.6620    7.9370 O   0  0  0  0  0  0  0  0  0  0  0  0
   46.0545   10.1619   10.5688 O   0  0  0  0  0  0  0  0  0  0  0  0
   45.6869    9.2385   12.7896 C   0  0  0  0  0  0  0  0  0  0  0  0
   39.8018   14.6399    9.0601 O   0  0  0  0  0  0  0  0  0  0  0  0
   39.6404   11.6104   10.1005 C   0  0  0  0  0  0  0  0  0  0  0  0
   40.6965   11.9906   12.3250 C   0  0  0  0  0  0  0  0  0  0  0  0
   47.0098    8.5139   12.8233 C   0  0  0  0  0  0  0  0  0  0  0  0
   47.2050    7.3582   12.0541 C   0  0  0  0  0  0  0  0  0  0  0  0
   48.0668    8.9942   13.6088 C   0  0  0  0  0  0  0  0  0  0  0  0
   48.4276    6.6857   12.0847 C   0  0  0  0  0  0  0  0  0  0  0  0
   49.2890    8.3196   13.6376 C   0  0  0  0  0  0  0  0  0  0  0  0
   49.4684    7.1646   12.8783 C   0  0  0  0  0  0  0  0  0  0  0  0
   43.7982   10.6501   11.6508 O   0  0  0  0  0  0  0  0  0  0  0  0
   43.8023   10.6477   11.6521 O   0  0  0  0  0  0  0  0  0  0  0  0
   43.8029   10.6473   11.6524 O   0  0  0  0  0  0  0  0  0  0  0  0
   44.7476   10.6081   11.4464 H   0  0  0  0  0  0  0  0  0  0  0  0
   43.4639   11.3428   11.0671 H   0  0  0  0  0  0  0  0  0  0  0  0
   41.6367    9.4335   11.5569 H   0  0  0  0  0  0  0  0  0  0  0  0
   43.5640    8.8641   10.1047 H   0  0  0  0  0  0  0  0  0  0  0  0
   40.7172   12.2955    8.8000 H   0  0  0  0  0  0  0  0  0  0  0  0
   45.1307   11.3092   10.3093 H   0  0  0  0  0  0  0  0  0  0  0  0
   46.3092   11.4881   13.1853 H   0  0  0  0  0  0  0  0  0  0  0  0
   46.9227   11.4361   11.5445 H   0  0  0  0  0  0  0  0  0  0  0  0
   38.0765   10.0709   10.5232 H   0  0  0  0  0  0  0  0  0  0  0  0
   42.6680   14.5016   10.9898 H   0  0  0  0  0  0  0  0  0  0  0  0
   43.0925   13.3089    9.7612 H   0  0  0  0  0  0  0  0  0  0  0  0
   41.7641   14.4342    9.4758 H   0  0  0  0  0  0  0  0  0  0  0  0
   39.5989   14.2735   10.9216 H   0  0  0  0  0  0  0  0  0  0  0  0
   39.4888   13.0330   12.1840 H   0  0  0  0  0  0  0  0  0  0  0  0
   40.6474   14.3550   12.3335 H   0  0  0  0  0  0  0  0  0  0  0  0
   48.5015    9.6374   10.8023 H   0  0  0  0  0  0  0  0  0  0  0  0
   47.1084    9.8640   14.8828 H   0  0  0  0  0  0  0  0  0  0  0  0
   50.3031    8.1093   11.5139 H   0  0  0  0  0  0  0  0  0  0  0  0
   48.9224    8.3404   15.5753 H   0  0  0  0  0  0  0  0  0  0  0  0
   50.5240    7.4606   13.8976 H   0  0  0  0  0  0  0  0  0  0  0  0
   45.3312    8.6925   10.9748 H   0  0  0  0  0  0  0  0  0  0  0  0
   42.6088   11.9621    9.2192 H   0  0  0  0  0  0  0  0  0  0  0  0
   46.3672   10.7644   11.6746 H   0  0  0  0  0  0  0  0  0  0  0  0
   45.8170   10.4287   13.3153 H   0  0  0  0  0  0  0  0  0  0  0  0
   41.8744   11.8999   12.0729 H   0  0  0  0  0  0  0  0  0  0  0  0
   42.8545   13.1606   11.3230 H   0  0  0  0  0  0  0  0  0  0  0  0
   42.9962    9.1515   11.4422 H   0  0  0  0  0  0  0  0  0  0  0  0
   43.5164   10.4090   12.5475 H   0  0  0  0  0  0  0  0  0  0  0  0
   44.1660   10.3091    9.5431 H   0  0  0  0  0  0  0  0  0  0  0  0
   44.5760   11.6546   10.5959 H   0  0  0  0  0  0  0  0  0  0  0  0
   39.5817   11.3330   10.8963 H   0  0  0  0  0  0  0  0  0  0  0  0
   41.7418   15.0243   10.3405 H   0  0  0  0  0  0  0  0  0  0  0  0
   46.4546    8.0209   14.2633 H   0  0  0  0  0  0  0  0  0  0  0  0
   48.5200    9.9959   11.0336 H   0  0  0  0  0  0  0  0  0  0  0  0
   37.4961   12.4557   10.1830 H   0  0  0  0  0  0  0  0  0  0  0  0
   48.4645    6.6454   14.6968 H   0  0  0  0  0  0  0  0  0  0  0  0
   50.5167    8.6130   11.4753 H   0  0  0  0  0  0  0  0  0  0  0  0
   39.6537   16.1294    9.6255 H   0  0  0  0  0  0  0  0  0  0  0  0
   37.5277   14.8541    9.5463 H   0  0  0  0  0  0  0  0  0  0  0  0
   50.4979    6.9387   13.3051 H   0  0  0  0  0  0  0  0  0  0  0  0
   43.8762   12.1859    8.9569 H   0  0  0  0  0  0  0  0  0  0  0  0
   45.5243   12.9142   10.6722 H   0  0  0  0  0  0  0  0  0  0  0  0
   41.0986   14.2451   11.1169 H   0  0  0  0  0  0  0  0  0  0  0  0
   44.4430   11.4547   12.9777 H   0  0  0  0  0  0  0  0  0  0  0  0
   45.5064    9.6949   13.7710 H   0  0  0  0  0  0  0  0  0  0  0  0
   44.8709    8.5223   12.6319 H   0  0  0  0  0  0  0  0  0  0  0  0
   39.6221   14.8623    8.1207 H   0  0  0  0  0  0  0  0  0  0  0  0
   38.8138   12.3012   10.3041 H   0  0  0  0  0  0  0  0  0  0  0  0
   39.7615   11.5435    9.0138 H   0  0  0  0  0  0  0  0  0  0  0  0
   39.3236   10.6206   10.4521 H   0  0  0  0  0  0  0  0  0  0  0  0
   40.3775   10.9875   12.6326 H   0  0  0  0  0  0  0  0  0  0  0  0
   41.5943   12.2392   12.9000 H   0  0  0  0  0  0  0  0  0  0  0  0
   39.9091   12.6883   12.6340 H   0  0  0  0  0  0  0  0  0  0  0  0
   46.4079    6.9804   11.4170 H   0  0  0  0  0  0  0  0  0  0  0  0
   47.9483    9.8972   14.2034 H   0  0  0  0  0  0  0  0  0  0  0  0
   48.5695    5.7921   11.4827 H   0  0  0  0  0  0  0  0  0  0  0  0
   50.1043    8.6974   14.2489 H   0  0  0  0  0  0  0  0  0  0  0  0
   50.4210    6.6411   12.8992 H   0  0  0  0  0  0  0  0  0  0  0  0
   43.4696   11.3460   11.0625 H   0  0  0  0  0  0  0  0  0  0  0  0
   44.7454   10.6030   11.4519 H   0  0  0  0  0  0  0  0  0  0  0  0
   44.7480   10.6092   11.4452 H   0  0  0  0  0  0  0  0  0  0  0  0
   43.4628   11.3422   11.0679 H   0  0  0  0  0  0  0  0  0  0  0  0
   43.4617   11.3416   11.0688 H   0  0  0  0  0  0  0  0  0  0  0  0
   44.7485   10.6101   11.4442 H   0  0  0  0  0  0  0  0  0  0  0  0
  3  2  1  0
  4  2  1  0
  5  3  1  0
  6  2  1  0
  3  7  1  0
  8  6  1  0
  5  9  1  0
  6 10  1  0
 11  9  1  0
 12  4  2  0
 13 10  2  0
 14 11  2  0
 15 11  1  0
 16 10  1  0
 17  8  1  0
 18  8  1  0
 19 15  1  0
 20 19  2  0
 21 19  1  0
 22 20  1  0
 23 21  2  0
 24 23  1  0
  7  8  1  0
  4  5  1  0
 24 22  2  0
 26 32  1  0
 27 30  1  0
 28 29  1  0
 29 25  1  0
 30 26  1  0
 31 25  1  0
 32 31  1  0
 33 27  2  0
 34 27  1  0
 35 28  2  0
 36 28  1  0
 37 33  1  0
 38 35  1  0
 39 36  2  0
 40 34  2  0
 41 37  2  0
 42 39  1  0
 42 38  2  0
 40 41  1  0
 44 43  1  0
 45 43  1  0
 46 44  1  0
 47 43  1  0
 44 48  1  0
 49 47  1  0
 46 50  1  0
 47 51  1  0
 52 50  1  0
 53 45  2  0
 54 51  2  0
 55 52  2  0
 56 52  1  0
 57 51  1  0
 58 49  1  0
 59 49  1  0
 60 56  1  0
 61 60  2  0
 62 60  1  0
 63 61  1  0
 64 62  2  0
 65 64  1  0
 48 49  1  0
 45 46  1  0
 65 63  2  0
  1 69  1  0
  1 70  1  0
  3 71  1  1
  5 72  1  1
  6 73  1  1
  9 74  1  0
 15 75  1  0
 15 76  1  0
 16 77  1  0
 17 78  1  0
 17 79  1  0
 17 80  1  0
 18 81  1  0
 18 82  1  0
 18 83  1  0
 20 84  1  0
 21 85  1  0
 22 86  1  0
 23 87  1  0
 24 88  1  0
 25 89  1  0
 26 90  1  0
 29 91  1  0
 29 92  1  0
 30 93  1  0
 30 94  1  0
 31 95  1  0
 31 96  1  0
 32 97  1  0
 32 98  1  0
 33 99  1  0
 34100  1  0
 35101  1  0
 36102  1  0
 37103  1  0
 38104  1  0
 39105  1  0
 40106  1  0
 41107  1  0
 42108  1  0
 44109  1  1
 46110  1  6
 47111  1  6
 50112  1  0
 56113  1  0
 56114  1  0
 57115  1  0
 58116  1  0
 58117  1  0
 58118  1  0
 59119  1  0
 59120  1  0
 59121  1  0
 61122  1  0
 62123  1  0
 63124  1  0
 64125  1  0
 65126  1  0
 66127  1  0
 66128  1  0
 67129  1  0
 67130  1  0
 68131  1  0
 68132  1  0
M  END
> <Uni-Dock RESULT> 
ENERGY=   -7.579  LOWER_BOUND=    5.637  UPPER_BOUND=    8.338
INTER + INTRA:          -7.579
INTER:                  -7.579
INTRA:                   0.000
UNBOUND:                 0.000

$$$$

     RDKit          3D

132133  0  0  0  0  0  0  0  0999 V2000
   47.9401    8.9641   13.1385 O   0  0  0  0  0  0  0  0  0  0  0  0
   48.9032   11.6635   12.6596 N   0  0  0  0  0  0  0  0  0  0  0  0
   48.1380   10.7048   13.4734 C   0  0  1  0  0  0  0  0  0  0  0  0
   48.6876   10.9896   11.4929 C   0  0  0  0  0  0  0  0  0  0  0  0
   47.5963   10.1097   12.1447 C   0  0  1  0  0  0  0  0  0  0  0  0
   50.2467   12.0079   13.1154 C   0  0  2  0  0  0  0  0  0  0  0  0
   49.4074    9.7326   14.3853 S   0  0  0  0  0  0  0  0  0  0  0  0
   50.8424   10.7417   13.7815 C   0  0  0  0  0  0  0  0  0  0  0  0
   47.7272    8.6420   11.9416 N   0  0  0  0  0  0  0  0  0  0  0  0
   50.2040   13.2353   14.0322 C   0  0  0  0  0  0  0  0  0  0  0  0
   46.9294    7.7655   12.6495 C   0  0  0  0  0  0  0  0  0  0  0  0
   49.2677   11.0272   10.4334 O   0  0  0  0  0  0  0  0  0  0  0  0
   51.1791   13.8500   14.4406 O   0  0  0  0  0  0  0  0  0  0  0  0
   46.0819    8.1658   13.4444 O   0  0  0  0  0  0  0  0  0  0  0  0
   47.2188    6.2976   12.3858 C   0  0  0  0  0  0  0  0  0  0  0  0
   48.9707   13.6217   14.4202 O   0  0  0  0  0  0  0  0  0  0  0  0
   51.6069    9.8841   12.7568 C   0  0  0  0  0  0  0  0  0  0  0  0
   51.7695   10.9967   14.9753 C   0  0  0  0  0  0  0  0  0  0  0  0
   45.9710    5.4757   12.1806 C   0  0  0  0  0  0  0  0  0  0  0  0
   45.4121    5.3337   10.9027 C   0  0  0  0  0  0  0  0  0  0  0  0
   45.3361    4.8673   13.2720 C   0  0  0  0  0  0  0  0  0  0  0  0
   44.2483    4.5838   10.7206 C   0  0  0  0  0  0  0  0  0  0  0  0
   44.1735    4.1179   13.0870 C   0  0  0  0  0  0  0  0  0  0  0  0
   43.6308    3.9747   11.8116 C   0  0  0  0  0  0  0  0  0  0  0  0
   46.1443    8.3478   12.6588 N   0  0  0  0  0  0  0  0  0  0  0  0
   49.3248   10.4672   12.4460 N   0  0  0  0  0  0  0  0  0  0  0  0
   51.2339   11.0964   13.8422 C   0  0  0  0  0  0  0  0  0  0  0  0
   45.3694    6.0786   12.1876 C   0  0  0  0  0  0  0  0  0  0  0  0
   46.5383    6.9439   12.5951 C   0  0  0  0  0  0  0  0  0  0  0  0
   50.1622   10.0649   13.5767 C   0  0  0  0  0  0  0  0  0  0  0  0
   47.2266    9.2307   13.1036 C   0  0  0  0  0  0  0  0  0  0  0  0
   48.3534    9.4368   12.0668 C   0  0  0  0  0  0  0  0  0  0  0  0
   50.8937   12.3467   14.3796 C   0  0  0  0  0  0  0  0  0  0  0  0
   52.5780   10.8285   13.5473 C   0  0  0  0  0  0  0  0  0  0  0  0
   44.2822    5.9045   13.0571 C   0  0  0  0  0  0  0  0  0  0  0  0
   45.3437    5.4454   10.9368 C   0  0  0  0  0  0  0  0  0  0  0  0
   51.8776   13.3045   14.6273 C   0  0  0  0  0  0  0  0  0  0  0  0
   43.1972    5.1080   12.6884 C   0  0  0  0  0  0  0  0  0  0  0  0
   44.2574    4.6479   10.5695 C   0  0  0  0  0  0  0  0  0  0  0  0
   53.5614   11.7881   13.7958 C   0  0  0  0  0  0  0  0  0  0  0  0
   53.2112   13.0242   14.3369 C   0  0  0  0  0  0  0  0  0  0  0  0
   43.1864    4.4786   11.4453 C   0  0  0  0  0  0  0  0  0  0  0  0
   51.0749    9.4251   12.5555 N   0  0  0  0  0  0  0  0  0  0  0  0
   49.7696    9.4793   11.8728 C   0  0  1  0  0  0  0  0  0  0  0  0
   50.7990    8.2452   13.1852 C   0  0  0  0  0  0  0  0  0  0  0  0
   49.5712    7.9911   12.2786 C   0  0  1  0  0  0  0  0  0  0  0  0
   51.4843   10.6091   13.3002 C   0  0  2  0  0  0  0  0  0  0  0  0
   48.7951   10.7393   12.8012 S   0  0  0  0  0  0  0  0  0  0  0  0
   50.2126   11.2762   13.8701 C   0  0  0  0  0  0  0  0  0  0  0  0
   48.3068    7.6306   12.9750 N   0  0  0  0  0  0  0  0  0  0  0  0
   52.2720   11.5013   12.3447 C   0  0  0  0  0  0  0  0  0  0  0  0
   47.1146    7.5801   12.2803 C   0  0  0  0  0  0  0  0  0  0  0  0
   51.2884    7.7353   14.1658 O   0  0  0  0  0  0  0  0  0  0  0  0
   52.0818   11.6605   11.1504 O   0  0  0  0  0  0  0  0  0  0  0  0
   47.0687    7.7658   11.0674 O   0  0  0  0  0  0  0  0  0  0  0  0
   45.8982    7.3313   13.1557 C   0  0  0  0  0  0  0  0  0  0  0  0
   53.2518   12.1903   12.9699 O   0  0  0  0  0  0  0  0  0  0  0  0
   50.2414   12.8104   13.8861 C   0  0  0  0  0  0  0  0  0  0  0  0
   49.9233   10.7818   15.2973 C   0  0  0  0  0  0  0  0  0  0  0  0
   44.8517    6.4568   12.5105 C   0  0  0  0  0  0  0  0  0  0  0  0
   43.8417    7.0244   11.7211 C   0  0  0  0  0  0  0  0  0  0  0  0
   44.8839    5.0651   12.6758 C   0  0  0  0  0  0  0  0  0  0  0  0
   42.8721    6.2172   11.1243 C   0  0  0  0  0  0  0  0  0  0  0  0
   43.9127    4.2599   12.0777 C   0  0  0  0  0  0  0  0  0  0  0  0
   42.9058    4.8357   11.3048 C   0  0  0  0  0  0  0  0  0  0  0  0
   47.9431    8.9668   13.1394 O   0  0  0  0  0  0  0  0  0  0  0  0
   47.9395    8.9636   13.1385 O   0  0  0  0  0  0  0  0  0  0  0  0
   47.9389    8.9631   13.1384 O   0  0  0  0  0  0  0  0  0  0  0  0
   47.6854    8.2923   12.4886 H   0  0  0  0  0  0  0  0  0  0  0  0
   48.7923    9.2922   12.8149 H   0  0  0  0  0  0  0  0  0  0  0  0
   47.3866   11.1837   14.1073 H   0  0  0  0  0  0  0  0  0  0  0  0
   46.5893   10.4525   11.8764 H   0  0  0  0  0  0  0  0  0  0  0  0
   50.8328   12.3079   12.2374 H   0  0  0  0  0  0  0  0  0  0  0  0
   48.4487    8.2808   11.3274 H   0  0  0  0  0  0  0  0  0  0  0  0
   47.7915    5.9124   13.2382 H   0  0  0  0  0  0  0  0  0  0  0  0
   47.8694    6.1869   11.5090 H   0  0  0  0  0  0  0  0  0  0  0  0
   49.1274   14.3973   14.9973 H   0  0  0  0  0  0  0  0  0  0  0  0
   52.0103    8.9719   13.2132 H   0  0  0  0  0  0  0  0  0  0  0  0
   50.9855    9.5761   11.9106 H   0  0  0  0  0  0  0  0  0  0  0  0
   52.4576   10.4439   12.3490 H   0  0  0  0  0  0  0  0  0  0  0  0
   52.6285   11.6085   14.6768 H   0  0  0  0  0  0  0  0  0  0  0  0
   51.2590   11.5094   15.7991 H   0  0  0  0  0  0  0  0  0  0  0  0
   52.1740   10.0602   15.3808 H   0  0  0  0  0  0  0  0  0  0  0  0
   45.8753    5.8068   10.0402 H   0  0  0  0  0  0  0  0  0  0  0  0
   45.7379    4.9837   14.2766 H   0  0  0  0  0  0  0  0  0  0  0  0
   43.8192    4.4794    9.7270 H   0  0  0  0  0  0  0  0  0  0  0  0
   43.6863    3.6535   13.9406 H   0  0  0  0  0  0  0  0  0  0  0  0
   42.7223    3.3954   11.6695 H   0  0  0  0  0  0  0  0  0  0  0  0
   45.7989    8.6447   11.7473 H   0  0  0  0  0  0  0  0  0  0  0  0
   49.9361   10.6593   11.6519 H   0  0  0  0  0  0  0  0  0  0  0  0
   47.3591    6.7999   11.8837 H   0  0  0  0  0  0  0  0  0  0  0  0
   46.8970    6.5976   13.5727 H   0  0  0  0  0  0  0  0  0  0  0  0
   49.5668    9.9565   14.4903 H   0  0  0  0  0  0  0  0  0  0  0  0
   50.6314    9.0928   13.3799 H   0  0  0  0  0  0  0  0  0  0  0  0
   46.7758   10.2060   13.3249 H   0  0  0  0  0  0  0  0  0  0  0  0
   47.6309    8.8592   14.0519 H   0  0  0  0  0  0  0  0  0  0  0  0
   47.8962    9.7540   11.1214 H   0  0  0  0  0  0  0  0  0  0  0  0
   48.8734    8.4942   11.8596 H   0  0  0  0  0  0  0  0  0  0  0  0
   49.8531   12.5773   14.5992 H   0  0  0  0  0  0  0  0  0  0  0  0
   52.8687    9.8706   13.1227 H   0  0  0  0  0  0  0  0  0  0  0  0
   44.2777    6.4024   14.0246 H   0  0  0  0  0  0  0  0  0  0  0  0
   46.1686    5.5689   10.2394 H   0  0  0  0  0  0  0  0  0  0  0  0
   51.6016   14.2698   15.0435 H   0  0  0  0  0  0  0  0  0  0  0  0
   42.3599    4.9837   13.3699 H   0  0  0  0  0  0  0  0  0  0  0  0
   44.2459    4.1596    9.5982 H   0  0  0  0  0  0  0  0  0  0  0  0
   54.6015   11.5716   13.5664 H   0  0  0  0  0  0  0  0  0  0  0  0
   53.9773   13.7711   14.5281 H   0  0  0  0  0  0  0  0  0  0  0  0
   42.3404    3.8602   11.1573 H   0  0  0  0  0  0  0  0  0  0  0  0
   49.8551    9.6642   10.7985 H   0  0  0  0  0  0  0  0  0  0  0  0
   49.7986    7.2725   11.4812 H   0  0  0  0  0  0  0  0  0  0  0  0
   52.1652   10.2896   14.0990 H   0  0  0  0  0  0  0  0  0  0  0  0
   48.2965    7.5593   13.9865 H   0  0  0  0  0  0  0  0  0  0  0  0
   46.2044    6.8770   14.1064 H   0  0  0  0  0  0  0  0  0  0  0  0
   45.4666    8.3075   13.4095 H   0  0  0  0  0  0  0  0  0  0  0  0
   53.6774   12.7045   12.2497 H   0  0  0  0  0  0  0  0  0  0  0  0
   51.0808   13.1760   14.4891 H   0  0  0  0  0  0  0  0  0  0  0  0
   50.3387   13.2378   12.8821 H   0  0  0  0  0  0  0  0  0  0  0  0
   49.3265   13.2254   14.3269 H   0  0  0  0  0  0  0  0  0  0  0  0
   49.0043   11.2233   15.7008 H   0  0  0  0  0  0  0  0  0  0  0  0
   49.8162    9.6938   15.3543 H   0  0  0  0  0  0  0  0  0  0  0  0
   50.7400   11.0637   15.9724 H   0  0  0  0  0  0  0  0  0  0  0  0
   43.8107    8.0997   11.5573 H   0  0  0  0  0  0  0  0  0  0  0  0
   45.6651    4.5965   13.2702 H   0  0  0  0  0  0  0  0  0  0  0  0
   42.0948    6.6669   10.5121 H   0  0  0  0  0  0  0  0  0  0  0  0
   43.9435    3.1816   12.2101 H   0  0  0  0  0  0  0  0  0  0  0  0
   42.1512    4.2080   10.8372 H   0  0  0  0  0  0  0  0  0  0  0  0
   48.7946    9.2887   12.8081 H   0  0  0  0  0  0  0  0  0  0  0  0
   47.6801    8.2932   12.4944 H   0  0  0  0  0  0  0  0  0  0  0  0
   47.6865    8.2921   12.4874 H   0  0  0  0  0  0  0  0  0  0  0  0
   48.7918    9.2929   12.8161 H   0  0  0  0  0  0  0  0  0  0  0  0
   48.7914    9.2937   12.8174 H   0  0  0  0  0  0  0  0  0  0  0  0
   47.6874    8.2919   12.4863 H   0  0  0  0  0  0  0  0  0  0  0  0
  3  2  1  0
  4  2  1  0
  5  3  1  0
  6  2  1  0
  3  7  1  0
  8  6  1  0
  5  9  1  0
  6 10  1  0
 11  9  1  0
 12  4  2  0
 13 10  2  0
 14 11  2  0
 15 11  1  0
 16 10  1  0
 17  8  1  0
 18  8  1  0
 19 15  1  0
 20 19  2  0
 21 19  1  0
 22 20  1  0
 23 21  2  0
 24 23  1  0
  7  8  1  0
  4  5  1  0
 24 22  2  0
 26 32  1  0
 27 30  1  0
 28 29  1  0
 29 25  1  0
 30 26  1  0
 31 25  1  0
 32 31  1  0
 33 27  2  0
 34 27  1  0
 35 28  2  0
 36 28  1  0
 37 33  1  0
 38 35  1  0
 39 36  2  0
 40 34  2  0
 41 37  2  0
 42 39  1  0
 42 38  2  0
 40 41  1  0
 44 43  1  0
 45 43  1  0
 46 44  1  0
 47 43  1  0
 44 48  1  0
 49 47  1  0
 46 50  1  0
 47 51  1  0
 52 50  1  0
 53 45  2  0
 54 51  2  0
 55 52  2  0
 56 52  1  0
 57 51  1  0
 58 49  1  0
 59 49  1  0
 60 56  1  0
 61 60  2  0
 62 60  1  0
 63 61  1  0
 64 62  2  0
 65 64  1  0
 48 49  1  0
 45 46  1  0
 65 63  2  0
  1 69  1  0
  1 70  1  0
  3 71  1  1
  5 72  1  1
  6 73  1  1
  9 74  1  0
 15 75  1  0
 15 76  1  0
 16 77  1  0
 17 78  1  0
 17 79  1  0
 17 80  1  0
 18 81  1  0
 18 82  1  0
 18 83  1  0
 20 84  1  0
 21 85  1  0
 22 86  1  0
 23 87  1  0
 24 88  1  0
 25 89  1  0
 26 90  1  0
 29 91  1  0
 29 92  1  0
 30 93  1  0
 30 94  1  0
 31 95  1  0
 31 96  1  0
 32 97  1  0
 32 98  1  0
 33 99  1  0
 34100  1  0
 35101  1  0
 36102  1  0
 37103  1  0
 38104  1  0
 39105  1  0
 40106  1  0
 41107  1  0
 42108  1  0
 44109  1  1
 46110  1  6
 47111  1  6
 50112  1  0
 56113  1  0
 56114  1  0
 57115  1  0
 58116  1  0
 58117  1  0
 58118  1  0
 59119  1  0
 59120  1  0
 59121  1  0
 61122  1  0
 62123  1  0
 63124  1  0
 64125  1  0
 65126  1  0
 66127  1  0
 66128  1  0
 67129  1  0
 67130  1  0
 68131  1  0
 68132  1  0
M  END
> <Uni-Dock RESULT> 
ENERGY=   -7.206  LOWER_BOUND=    1.253  UPPER_BOUND=    2.077
INTER + INTRA:          -7.206
INTER:                  -7.206
INTRA:                   0.000
UNBOUND:                 0.000

$$$$

     RDKit          3D

132133  0  0  0  0  0  0  0  0999 V2000
   48.7097   12.5598   14.7006 O   0  0  0  0  0  0  0  0  0  0  0  0
   50.6067   12.5599   12.4995 N   0  0  0  0  0  0  0  0  0  0  0  0
   49.6853   11.8390   13.3929 C   0  0  1  0  0  0  0  0  0  0  0  0
   50.9079   13.5153   13.4260 C   0  0  0  0  0  0  0  0  0  0  0  0
   50.2526   12.6935   14.5597 C   0  0  1  0  0  0  0  0  0  0  0  0
   50.1180   12.9031   11.1673 C   0  0  2  0  0  0  0  0  0  0  0  0
   48.0010   12.2533   12.7767 S   0  0  0  0  0  0  0  0  0  0  0  0
   48.6025   13.1991   11.2983 C   0  0  0  0  0  0  0  0  0  0  0  0
   49.2803   13.4191   15.4202 N   0  0  0  0  0  0  0  0  0  0  0  0
   50.4536   11.7894   10.1694 C   0  0  0  0  0  0  0  0  0  0  0  0
   48.4934   12.7285   16.3199 C   0  0  0  0  0  0  0  0  0  0  0  0
   51.3822   14.6202   13.3044 O   0  0  0  0  0  0  0  0  0  0  0  0
   50.3130   11.8575    8.9565 O   0  0  0  0  0  0  0  0  0  0  0  0
   48.5850   11.5100   16.4517 O   0  0  0  0  0  0  0  0  0  0  0  0
   47.5038   13.5921   17.0833 C   0  0  0  0  0  0  0  0  0  0  0  0
   50.9145   10.6453   10.7167 O   0  0  0  0  0  0  0  0  0  0  0  0
   48.3515   14.6923   11.5763 C   0  0  0  0  0  0  0  0  0  0  0  0
   47.7423   12.7869   10.0982 C   0  0  0  0  0  0  0  0  0  0  0  0
   47.4653   13.2849   18.5593 C   0  0  0  0  0  0  0  0  0  0  0  0
   48.3321   13.9376   19.4471 C   0  0  0  0  0  0  0  0  0  0  0  0
   46.5813   12.3187   19.0589 C   0  0  0  0  0  0  0  0  0  0  0  0
   48.3024   13.6385   20.8108 C   0  0  0  0  0  0  0  0  0  0  0  0
   46.5534   12.0222   20.4223 C   0  0  0  0  0  0  0  0  0  0  0  0
   47.4123   12.6831   21.2981 C   0  0  0  0  0  0  0  0  0  0  0  0
   49.1724   12.0595   16.5365 N   0  0  0  0  0  0  0  0  0  0  0  0
   49.7362   13.3726   12.9855 N   0  0  0  0  0  0  0  0  0  0  0  0
   48.6861   13.2652   10.7773 C   0  0  0  0  0  0  0  0  0  0  0  0
   48.0979   12.7190   18.6300 C   0  0  0  0  0  0  0  0  0  0  0  0
   48.0712   12.8170   17.1230 C   0  0  0  0  0  0  0  0  0  0  0  0
   48.4742   13.1774   12.2707 C   0  0  0  0  0  0  0  0  0  0  0  0
   49.1652   12.0730   15.0708 C   0  0  0  0  0  0  0  0  0  0  0  0
   49.5600   13.4269   14.4398 C   0  0  0  0  0  0  0  0  0  0  0  0
   49.3705   12.2454   10.0995 C   0  0  0  0  0  0  0  0  0  0  0  0
   48.2157   14.3663   10.0481 C   0  0  0  0  0  0  0  0  0  0  0  0
   47.8144   11.4999   19.2639 C   0  0  0  0  0  0  0  0  0  0  0  0
   48.4147   13.8342   19.4185 C   0  0  0  0  0  0  0  0  0  0  0  0
   49.5705   12.3194    8.7206 C   0  0  0  0  0  0  0  0  0  0  0  0
   47.8380   11.3997   20.6556 C   0  0  0  0  0  0  0  0  0  0  0  0
   48.4372   13.7326   20.8114 C   0  0  0  0  0  0  0  0  0  0  0  0
   48.4166   14.4388    8.6683 C   0  0  0  0  0  0  0  0  0  0  0  0
   49.0919   13.4153    8.0054 C   0  0  0  0  0  0  0  0  0  0  0  0
   48.1477   12.5169   21.4287 C   0  0  0  0  0  0  0  0  0  0  0  0
   48.3265   14.6815   12.3067 N   0  0  0  0  0  0  0  0  0  0  0  0
   49.2259   14.3911   13.4379 C   0  0  1  0  0  0  0  0  0  0  0  0
   47.1920   14.4597   13.0335 C   0  0  0  0  0  0  0  0  0  0  0  0
   47.9804   14.4838   14.3646 C   0  0  1  0  0  0  0  0  0  0  0  0
   48.5817   13.9755   11.0574 C   0  0  2  0  0  0  0  0  0  0  0  0
   49.8953   12.7072   13.0979 S   0  0  0  0  0  0  0  0  0  0  0  0
   49.1460   12.5801   11.4061 C   0  0  0  0  0  0  0  0  0  0  0  0
   47.7291   13.3502   15.2949 N   0  0  0  0  0  0  0  0  0  0  0  0
   49.5342   14.8360   10.2316 C   0  0  0  0  0  0  0  0  0  0  0  0
   48.5222   13.1710   16.4108 C   0  0  0  0  0  0  0  0  0  0  0  0
   46.0629   14.2053   12.6851 O   0  0  0  0  0  0  0  0  0  0  0  0
   50.4402   15.5429   10.6406 O   0  0  0  0  0  0  0  0  0  0  0  0
   49.4094   13.9678   16.7038 O   0  0  0  0  0  0  0  0  0  0  0  0
   48.2256   11.8968   17.1830 C   0  0  0  0  0  0  0  0  0  0  0  0
   49.3130   14.7230    8.9035 O   0  0  0  0  0  0  0  0  0  0  0  0
   50.2255   12.0631   10.4457 C   0  0  0  0  0  0  0  0  0  0  0  0
   48.0215   11.5338   11.4802 C   0  0  0  0  0  0  0  0  0  0  0  0
   48.3486   12.0482   18.6790 C   0  0  0  0  0  0  0  0  0  0  0  0
   49.5801   11.8355   19.3144 C   0  0  0  0  0  0  0  0  0  0  0  0
   47.2401   12.4201   19.4522 C   0  0  0  0  0  0  0  0  0  0  0  0
   49.6957   11.9739   20.6983 C   0  0  0  0  0  0  0  0  0  0  0  0
   47.3585   12.5580   20.8366 C   0  0  0  0  0  0  0  0  0  0  0  0
   48.5847   12.3323   21.4596 C   0  0  0  0  0  0  0  0  0  0  0  0
   48.7101   12.5600   14.6965 O   0  0  0  0  0  0  0  0  0  0  0  0
   48.7097   12.5597   14.7014 O   0  0  0  0  0  0  0  0  0  0  0  0
   48.7096   12.5595   14.7022 O   0  0  0  0  0  0  0  0  0  0  0  0
   48.7110   13.1134   15.4957 H   0  0  0  0  0  0  0  0  0  0  0  0
   48.8514   13.1883   13.9771 H   0  0  0  0  0  0  0  0  0  0  0  0
   49.8985   10.7683   13.4560 H   0  0  0  0  0  0  0  0  0  0  0  0
   51.0048   12.1779   15.1697 H   0  0  0  0  0  0  0  0  0  0  0  0
   50.6677   13.7894   10.8257 H   0  0  0  0  0  0  0  0  0  0  0  0
   49.1496   14.4177   15.3013 H   0  0  0  0  0  0  0  0  0  0  0  0
   46.5137   13.4383   16.6373 H   0  0  0  0  0  0  0  0  0  0  0  0
   47.7366   14.6556   16.9443 H   0  0  0  0  0  0  0  0  0  0  0  0
   51.0653   10.0517    9.9525 H   0  0  0  0  0  0  0  0  0  0  0  0
   47.2826   14.9075   11.6966 H   0  0  0  0  0  0  0  0  0  0  0  0
   48.8578   15.0490   12.4782 H   0  0  0  0  0  0  0  0  0  0  0  0
   48.7108   15.3025   10.7386 H   0  0  0  0  0  0  0  0  0  0  0  0
   48.0695   13.3044    9.1892 H   0  0  0  0  0  0  0  0  0  0  0  0
   47.7819   11.7082    9.9063 H   0  0  0  0  0  0  0  0  0  0  0  0
   46.6867   13.0482   10.2483 H   0  0  0  0  0  0  0  0  0  0  0  0
   49.0382   14.6810   19.0852 H   0  0  0  0  0  0  0  0  0  0  0  0
   45.9161   11.7817   18.3856 H   0  0  0  0  0  0  0  0  0  0  0  0
   48.9789   14.1473   21.4933 H   0  0  0  0  0  0  0  0  0  0  0  0
   45.8671   11.2682   20.7991 H   0  0  0  0  0  0  0  0  0  0  0  0
   47.3935   12.4475   22.3589 H   0  0  0  0  0  0  0  0  0  0  0  0
   50.0578   12.4210   16.8883 H   0  0  0  0  0  0  0  0  0  0  0  0
   50.1489   14.2492   12.6654 H   0  0  0  0  0  0  0  0  0  0  0  0
   48.1215   13.8712   16.8290 H   0  0  0  0  0  0  0  0  0  0  0  0
   47.1057   12.4318   16.7713 H   0  0  0  0  0  0  0  0  0  0  0  0
   48.0432   12.1944   12.4914 H   0  0  0  0  0  0  0  0  0  0  0  0
   47.7378   13.9296   12.5801 H   0  0  0  0  0  0  0  0  0  0  0  0
   49.8827   11.3126   14.7384 H   0  0  0  0  0  0  0  0  0  0  0  0
   48.1838   11.7448   14.7101 H   0  0  0  0  0  0  0  0  0  0  0  0
   50.5187   13.7401   14.8713 H   0  0  0  0  0  0  0  0  0  0  0  0
   48.8338   14.2067   14.6972 H   0  0  0  0  0  0  0  0  0  0  0  0
   49.7567   11.3914   10.6525 H   0  0  0  0  0  0  0  0  0  0  0  0
   47.6889   15.1748   10.5494 H   0  0  0  0  0  0  0  0  0  0  0  0
   47.5835   10.6201   18.6667 H   0  0  0  0  0  0  0  0  0  0  0  0
   48.6465   14.7896   18.9544 H   0  0  0  0  0  0  0  0  0  0  0  0
   50.1026   11.5232    8.2067 H   0  0  0  0  0  0  0  0  0  0  0  0
   47.6194   10.4490   21.1342 H   0  0  0  0  0  0  0  0  0  0  0  0
   48.6828   14.6025   21.4156 H   0  0  0  0  0  0  0  0  0  0  0  0
   48.0467   15.2949    8.1101 H   0  0  0  0  0  0  0  0  0  0  0  0
   49.2494   13.4737    6.9315 H   0  0  0  0  0  0  0  0  0  0  0  0
   48.1684   12.4382   22.5125 H   0  0  0  0  0  0  0  0  0  0  0  0
   49.9833   15.1644   13.5928 H   0  0  0  0  0  0  0  0  0  0  0  0
   47.8737   15.4461   14.8810 H   0  0  0  0  0  0  0  0  0  0  0  0
   47.6344   13.9024   10.5088 H   0  0  0  0  0  0  0  0  0  0  0  0
   47.0656   12.6286   15.0351 H   0  0  0  0  0  0  0  0  0  0  0  0
   47.2170   11.5371   16.9437 H   0  0  0  0  0  0  0  0  0  0  0  0
   48.9174   11.1237   16.8261 H   0  0  0  0  0  0  0  0  0  0  0  0
   49.9748   15.3261    8.5003 H   0  0  0  0  0  0  0  0  0  0  0  0
   49.8341   11.9935    9.4240 H   0  0  0  0  0  0  0  0  0  0  0  0
   51.1098   12.7093   10.4227 H   0  0  0  0  0  0  0  0  0  0  0  0
   50.5662   11.0587   10.7265 H   0  0  0  0  0  0  0  0  0  0  0  0
   48.4053   10.5452   11.7594 H   0  0  0  0  0  0  0  0  0  0  0  0
   47.2439   11.7992   12.2037 H   0  0  0  0  0  0  0  0  0  0  0  0
   47.5340   11.4265   10.5039 H   0  0  0  0  0  0  0  0  0  0  0  0
   50.4607   11.5708   18.7325 H   0  0  0  0  0  0  0  0  0  0  0  0
   46.2763   12.6066   18.9838 H   0  0  0  0  0  0  0  0  0  0  0  0
   50.6555   11.8092   21.1808 H   0  0  0  0  0  0  0  0  0  0  0  0
   46.4950   12.8465   21.4301 H   0  0  0  0  0  0  0  0  0  0  0  0
   48.6769   12.4421   22.5373 H   0  0  0  0  0  0  0  0  0  0  0  0
   48.8521   13.1958   13.9796 H   0  0  0  0  0  0  0  0  0  0  0  0
   48.7099   13.1057   15.4972 H   0  0  0  0  0  0  0  0  0  0  0  0
   48.7113   13.1150   15.4954 H   0  0  0  0  0  0  0  0  0  0  0  0
   48.8513   13.1869   13.9766 H   0  0  0  0  0  0  0  0  0  0  0  0
   48.8512   13.1854   13.9760 H   0  0  0  0  0  0  0  0  0  0  0  0
   48.7115   13.1165   15.4952 H   0  0  0  0  0  0  0  0  0  0  0  0
  3  2  1  0
  4  2  1  0
  5  3  1  0
  6  2  1  0
  3  7  1  0
  8  6  1  0
  5  9  1  0
  6 10  1  0
 11  9  1  0
 12  4  2  0
 13 10  2  0
 14 11  2  0
 15 11  1  0
 16 10  1  0
 17  8  1  0
 18  8  1  0
 19 15  1  0
 20 19  2  0
 21 19  1  0
 22 20  1  0
 23 21  2  0
 24 23  1  0
  7  8  1  0
  4  5  1  0
 24 22  2  0
 26 32  1  0
 27 30  1  0
 28 29  1  0
 29 25  1  0
 30 26  1  0
 31 25  1  0
 32 31  1  0
 33 27  2  0
 34 27  1  0
 35 28  2  0
 36 28  1  0
 37 33  1  0
 38 35  1  0
 39 36  2  0
 40 34  2  0
 41 37  2  0
 42 39  1  0
 42 38  2  0
 40 41  1  0
 44 43  1  0
 45 43  1  0
 46 44  1  0
 47 43  1  0
 44 48  1  0
 49 47  1  0
 46 50  1  0
 47 51  1  0
 52 50  1  0
 53 45  2  0
 54 51  2  0
 55 52  2  0
 56 52  1  0
 57 51  1  0
 58 49  1  0
 59 49  1  0
 60 56  1  0
 61 60  2  0
 62 60  1  0
 63 61  1  0
 64 62  2  0
 65 64  1  0
 48 49  1  0
 45 46  1  0
 65 63  2  0
  1 69  1  0
  1 70  1  0
  3 71  1  1
  5 72  1  1
  6 73  1  1
  9 74  1  0
 15 75  1  0
 15 76  1  0
 16 77  1  0
 17 78  1  0
 17 79  1  0
 17 80  1  0
 18 81  1  0
 18 82  1  0
 18 83  1  0
 20 84  1  0
 21 85  1  0
 22 86  1  0
 23 87  1  0
 24 88  1  0
 25 89  1  0
 26 90  1  0
 29 91  1  0
 29 92  1  0
 30 93  1  0
 30 94  1  0
 31 95  1  0
 31 96  1  0
 32 97  1  0
 32 98  1  0
 33 99  1  0
 34100  1  0
 35101  1  0
 36102  1  0
 37103  1  0
 38104  1  0
 39105  1  0
 40106  1  0
 41107  1  0
 42108  1  0
 44109  1  1
 46110  1  6
 47111  1  6
 50112  1  0
 56113  1  0
 56114  1  0
 57115  1  0
 58116  1  0
 58117  1  0
 58118  1  0
 59119  1  0
 59120  1  0
 59121  1  0
 61122  1  0
 62123  1  0
 63124  1  0
 64125  1  0
 65126  1  0
 66127  1  0
 66128  1  0
 67129  1  0
 67130  1  0
 68131  1  0
 68132  1  0
M  END
> <Uni-Dock RESULT> 
ENERGY=   -6.681  LOWER_BOUND=    5.221  UPPER_BOUND=    8.020
INTER + INTRA:          -6.681
INTER:                  -6.681
INTRA:                   0.000
UNBOUND:                 0.000

$$$$

     RDKit          3D

132133  0  0  0  0  0  0  0  0999 V2000
   49.0268    9.3269   18.1845 O   0  0  0  0  0  0  0  0  0  0  0  0
   47.9826    9.3361   20.8961 N   0  0  0  0  0  0  0  0  0  0  0  0
   48.8881    8.7811   19.8769 C   0  0  1  0  0  0  0  0  0  0  0  0
   47.0332    9.7046   19.9880 C   0  0  0  0  0  0  0  0  0  0  0  0
   47.7073    8.8742   18.8717 C   0  0  1  0  0  0  0  0  0  0  0  0
   48.5481   10.2855   21.8502 C   0  0  2  0  0  0  0  0  0  0  0  0
   50.2412   10.0184   19.7158 S   0  0  0  0  0  0  0  0  0  0  0  0
   49.6355   11.0953   21.0997 C   0  0  0  0  0  0  0  0  0  0  0  0
   47.9505    9.5783   17.5843 N   0  0  0  0  0  0  0  0  0  0  0  0
   49.0613    9.5536   23.0951 C   0  0  0  0  0  0  0  0  0  0  0  0
   48.7273    8.9932   16.6046 C   0  0  0  0  0  0  0  0  0  0  0  0
   46.1226   10.4954   20.0652 O   0  0  0  0  0  0  0  0  0  0  0  0
   49.4426   10.0893   24.1262 O   0  0  0  0  0  0  0  0  0  0  0  0
   49.2189    7.8768   16.7547 O   0  0  0  0  0  0  0  0  0  0  0  0
   48.9408    9.8551   15.3719 C   0  0  0  0  0  0  0  0  0  0  0  0
   49.1060    8.2087   22.9950 O   0  0  0  0  0  0  0  0  0  0  0  0
   49.0411   12.3658   20.4653 C   0  0  0  0  0  0  0  0  0  0  0  0
   50.8510   11.5059   21.9387 C   0  0  0  0  0  0  0  0  0  0  0  0
   48.7625    9.0964   14.0807 C   0  0  0  0  0  0  0  0  0  0  0  0
   47.4995    8.9960   13.4805 C   0  0  0  0  0  0  0  0  0  0  0  0
   49.8542    8.4552   13.4794 C   0  0  0  0  0  0  0  0  0  0  0  0
   47.3373    8.2798   12.2928 C   0  0  0  0  0  0  0  0  0  0  0  0
   49.6892    7.7407   12.2921 C   0  0  0  0  0  0  0  0  0  0  0  0
   48.4318    7.6545   11.6980 C   0  0  0  0  0  0  0  0  0  0  0  0
   48.4370    8.0794   16.7950 N   0  0  0  0  0  0  0  0  0  0  0  0
   48.1898   10.2039   19.9695 N   0  0  0  0  0  0  0  0  0  0  0  0
   49.6608   11.2993   21.5901 C   0  0  0  0  0  0  0  0  0  0  0  0
   48.4958    8.3394   14.3658 C   0  0  0  0  0  0  0  0  0  0  0  0
   48.8393    8.9573   15.7006 C   0  0  0  0  0  0  0  0  0  0  0  0
   49.5149   10.7899   20.1751 C   0  0  0  0  0  0  0  0  0  0  0  0
   48.7956    8.6035   18.1161 C   0  0  0  0  0  0  0  0  0  0  0  0
   47.9536    9.8144   18.5761 C   0  0  0  0  0  0  0  0  0  0  0  0
   49.7581   10.3967   22.6596 C   0  0  0  0  0  0  0  0  0  0  0  0
   49.6898   12.6748   21.8594 C   0  0  0  0  0  0  0  0  0  0  0  0
   49.1778    7.1975   13.9193 C   0  0  0  0  0  0  0  0  0  0  0  0
   47.4885    8.8853   13.5576 C   0  0  0  0  0  0  0  0  0  0  0  0
   49.8927   10.8594   23.9691 C   0  0  0  0  0  0  0  0  0  0  0  0
   48.8662    6.6191   12.6882 C   0  0  0  0  0  0  0  0  0  0  0  0
   47.1782    8.3056   12.3252 C   0  0  0  0  0  0  0  0  0  0  0  0
   49.8246   13.1361   23.1704 C   0  0  0  0  0  0  0  0  0  0  0  0
   49.9277   12.2288   24.2237 C   0  0  0  0  0  0  0  0  0  0  0  0
   47.8676    7.1747   11.8909 C   0  0  0  0  0  0  0  0  0  0  0  0
   48.8882   12.1126   19.7969 N   0  0  0  0  0  0  0  0  0  0  0  0
   48.0031   11.1142   19.1703 C   0  0  1  0  0  0  0  0  0  0  0  0
   49.7666   12.1240   18.7514 C   0  0  0  0  0  0  0  0  0  0  0  0
   48.7700   11.3672   17.8413 C   0  0  1  0  0  0  0  0  0  0  0  0
   49.3293   11.8462   21.1602 C   0  0  2  0  0  0  0  0  0  0  0  0
   48.3572    9.5367   20.0564 S   0  0  0  0  0  0  0  0  0  0  0  0
   49.4602   10.3159   21.3276 C   0  0  0  0  0  0  0  0  0  0  0  0
   49.3104   10.1819   17.1224 N   0  0  0  0  0  0  0  0  0  0  0  0
   48.3125   12.4839   22.1032 C   0  0  0  0  0  0  0  0  0  0  0  0
   48.4629    9.3256   16.4479 C   0  0  0  0  0  0  0  0  0  0  0  0
   50.9200   12.4795   18.6873 O   0  0  0  0  0  0  0  0  0  0  0  0
   47.1075   12.5803   21.9406 O   0  0  0  0  0  0  0  0  0  0  0  0
   47.2577    9.5461   16.3659 O   0  0  0  0  0  0  0  0  0  0  0  0
   49.1491    8.0940   15.8821 C   0  0  0  0  0  0  0  0  0  0  0  0
   48.8785   12.9381   23.2430 O   0  0  0  0  0  0  0  0  0  0  0  0
   49.0492    9.7808   22.7058 C   0  0  0  0  0  0  0  0  0  0  0  0
   50.8965    9.8505   21.0353 C   0  0  0  0  0  0  0  0  0  0  0  0
   48.6050    7.6532   14.5458 C   0  0  0  0  0  0  0  0  0  0  0  0
   47.5259    6.7608   14.4790 C   0  0  0  0  0  0  0  0  0  0  0  0
   49.1577    8.1419   13.3538 C   0  0  0  0  0  0  0  0  0  0  0  0
   47.0218    6.3508   13.2438 C   0  0  0  0  0  0  0  0  0  0  0  0
   48.6515    7.7303   12.1194 C   0  0  0  0  0  0  0  0  0  0  0  0
   47.5862    6.8331   12.0643 C   0  0  0  0  0  0  0  0  0  0  0  0
   49.0274    9.3283   18.1883 O   0  0  0  0  0  0  0  0  0  0  0  0
   49.0267    9.3265   18.1838 O   0  0  0  0  0  0  0  0  0  0  0  0
   49.0267    9.3262   18.1831 O   0  0  0  0  0  0  0  0  0  0  0  0
   48.5580    9.5196   17.3589 H   0  0  0  0  0  0  0  0  0  0  0  0
   48.7762   10.0553   18.7720 H   0  0  0  0  0  0  0  0  0  0  0  0
   49.2222    7.7656   20.1069 H   0  0  0  0  0  0  0  0  0  0  0  0
   47.1838    7.9247   18.7043 H   0  0  0  0  0  0  0  0  0  0  0  0
   47.7362   10.9372   22.1972 H   0  0  0  0  0  0  0  0  0  0  0  0
   47.5968   10.5192   17.4500 H   0  0  0  0  0  0  0  0  0  0  0  0
   49.9526   10.2745   15.4295 H   0  0  0  0  0  0  0  0  0  0  0  0
   48.2565   10.7131   15.3812 H   0  0  0  0  0  0  0  0  0  0  0  0
   49.4600    7.9106   23.8582 H   0  0  0  0  0  0  0  0  0  0  0  0
   49.7980   12.9328   19.9094 H   0  0  0  0  0  0  0  0  0  0  0  0
   48.2215   12.1530   19.7725 H   0  0  0  0  0  0  0  0  0  0  0  0
   48.6458   13.0318   21.2422 H   0  0  0  0  0  0  0  0  0  0  0  0
   50.5457   12.1307   22.7858 H   0  0  0  0  0  0  0  0  0  0  0  0
   51.3965   10.6414   22.3352 H   0  0  0  0  0  0  0  0  0  0  0  0
   51.5668   12.0963   21.3520 H   0  0  0  0  0  0  0  0  0  0  0  0
   46.6323    9.4711   13.9327 H   0  0  0  0  0  0  0  0  0  0  0  0
   50.8392    8.4990   13.9397 H   0  0  0  0  0  0  0  0  0  0  0  0
   46.3545    8.2044   11.8337 H   0  0  0  0  0  0  0  0  0  0  0  0
   50.5415    7.2434   11.8358 H   0  0  0  0  0  0  0  0  0  0  0  0
   48.3035    7.0931   10.7763 H   0  0  0  0  0  0  0  0  0  0  0  0
   47.4334    7.9108   16.7429 H   0  0  0  0  0  0  0  0  0  0  0  0
   47.4917   10.8945   20.2470 H   0  0  0  0  0  0  0  0  0  0  0  0
   48.3499    9.9341   15.7826 H   0  0  0  0  0  0  0  0  0  0  0  0
   49.9214    9.1377   15.7267 H   0  0  0  0  0  0  0  0  0  0  0  0
   50.3050   10.0508   20.0012 H   0  0  0  0  0  0  0  0  0  0  0  0
   49.6832   11.6142   19.4709 H   0  0  0  0  0  0  0  0  0  0  0  0
   48.6527    7.7878   18.8356 H   0  0  0  0  0  0  0  0  0  0  0  0
   49.8651    8.8417   18.1334 H   0  0  0  0  0  0  0  0  0  0  0  0
   46.8930    9.5479   18.4890 H   0  0  0  0  0  0  0  0  0  0  0  0
   48.1126   10.6761   17.9174 H   0  0  0  0  0  0  0  0  0  0  0  0
   49.7209    9.3258   22.4701 H   0  0  0  0  0  0  0  0  0  0  0  0
   49.6083   13.3966   21.0502 H   0  0  0  0  0  0  0  0  0  0  0  0
   49.9506    6.7507   14.5417 H   0  0  0  0  0  0  0  0  0  0  0  0
   46.9379    9.7650   13.8816 H   0  0  0  0  0  0  0  0  0  0  0  0
   49.9667   10.1502   24.7894 H   0  0  0  0  0  0  0  0  0  0  0  0
   49.3999    5.7330   12.3552 H   0  0  0  0  0  0  0  0  0  0  0  0
   46.3965    8.7358   11.7040 H   0  0  0  0  0  0  0  0  0  0  0  0
   49.8485   14.2042   23.3703 H   0  0  0  0  0  0  0  0  0  0  0  0
   50.0306   12.5890   25.2440 H   0  0  0  0  0  0  0  0  0  0  0  0
   47.6234    6.7228   10.9331 H   0  0  0  0  0  0  0  0  0  0  0  0
   46.9517   11.4146   19.1686 H   0  0  0  0  0  0  0  0  0  0  0  0
   48.2584   12.0468   17.1482 H   0  0  0  0  0  0  0  0  0  0  0  0
   50.2908   12.3527   21.3114 H   0  0  0  0  0  0  0  0  0  0  0  0
   50.2836    9.9245   17.2448 H   0  0  0  0  0  0  0  0  0  0  0  0
   50.2271    8.2741   15.7852 H   0  0  0  0  0  0  0  0  0  0  0  0
   49.0399    7.2863   16.6165 H   0  0  0  0  0  0  0  0  0  0  0  0
   48.1276   13.3262   23.7427 H   0  0  0  0  0  0  0  0  0  0  0  0
   49.6608   10.2330   23.4953 H   0  0  0  0  0  0  0  0  0  0  0  0
   47.9981    9.9845   22.9377 H   0  0  0  0  0  0  0  0  0  0  0  0
   49.1908    8.6949   22.7744 H   0  0  0  0  0  0  0  0  0  0  0  0
   50.9947    8.7616   21.1187 H   0  0  0  0  0  0  0  0  0  0  0  0
   51.2376   10.1342   20.0344 H   0  0  0  0  0  0  0  0  0  0  0  0
   51.5957   10.2934   21.7545 H   0  0  0  0  0  0  0  0  0  0  0  0
   47.0637    6.3874   15.3906 H   0  0  0  0  0  0  0  0  0  0  0  0
   49.9853    8.8473   13.3761 H   0  0  0  0  0  0  0  0  0  0  0  0
   46.1833    5.6606   13.2030 H   0  0  0  0  0  0  0  0  0  0  0  0
   49.0848    8.1129   11.1991 H   0  0  0  0  0  0  0  0  0  0  0  0
   47.1908    6.5148   11.1028 H   0  0  0  0  0  0  0  0  0  0  0  0
   48.7713   10.0606   18.7685 H   0  0  0  0  0  0  0  0  0  0  0  0
   48.5623    9.5130   17.3585 H   0  0  0  0  0  0  0  0  0  0  0  0
   48.5571    9.5210   17.3589 H   0  0  0  0  0  0  0  0  0  0  0  0
   48.7771   10.0544   18.7726 H   0  0  0  0  0  0  0  0  0  0  0  0
   48.7781   10.0534   18.7734 H   0  0  0  0  0  0  0  0  0  0  0  0
   48.5562    9.5223   17.3589 H   0  0  0  0  0  0  0  0  0  0  0  0
  3  2  1  0
  4  2  1  0
  5  3  1  0
  6  2  1  0
  3  7  1  0
  8  6  1  0
  5  9  1  0
  6 10  1  0
 11  9  1  0
 12  4  2  0
 13 10  2  0
 14 11  2  0
 15 11  1  0
 16 10  1  0
 17  8  1  0
 18  8  1  0
 19 15  1  0
 20 19  2  0
 21 19  1  0
 22 20  1  0
 23 21  2  0
 24 23  1  0
  7  8  1  0
  4  5  1  0
 24 22  2  0
 26 32  1  0
 27 30  1  0
 28 29  1  0
 29 25  1  0
 30 26  1  0
 31 25  1  0
 32 31  1  0
 33 27  2  0
 34 27  1  0
 35 28  2  0
 36 28  1  0
 37 33  1  0
 38 35  1  0
 39 36  2  0
 40 34  2  0
 41 37  2  0
 42 39  1  0
 42 38  2  0
 40 41  1  0
 44 43  1  0
 45 43  1  0
 46 44  1  0
 47 43  1  0
 44 48  1  0
 49 47  1  0
 46 50  1  0
 47 51  1  0
 52 50  1  0
 53 45  2  0
 54 51  2  0
 55 52  2  0
 56 52  1  0
 57 51  1  0
 58 49  1  0
 59 49  1  0
 60 56  1  0
 61 60  2  0
 62 60  1  0
 63 61  1  0
 64 62  2  0
 65 64  1  0
 48 49  1  0
 45 46  1  0
 65 63  2  0
  1 69  1  0
  1 70  1  0
  3 71  1  1
  5 72  1  1
  6 73  1  1
  9 74  1  0
 15 75  1  0
 15 76  1  0
 16 77  1  0
 17 78  1  0
 17 79  1  0
 17 80  1  0
 18 81  1  0
 18 82  1  0
 18 83  1  0
 20 84  1  0
 21 85  1  0
 22 86  1  0
 23 87  1  0
 24 88  1  0
 25 89  1  0
 26 90  1  0
 29 91  1  0
 29 92  1  0
 30 93  1  0
 30 94  1  0
 31 95  1  0
 31 96  1  0
 32 97  1  0
 32 98  1  0
 33 99  1  0
 34100  1  0
 35101  1  0
 36102  1  0
 37103  1  0
 38104  1  0
 39105  1  0
 40106  1  0
 41107  1  0
 42108  1  0
 44109  1  1
 46110  1  6
 47111  1  6
 50112  1  0
 56113  1  0
 56114  1  0
 57115  1  0
 58116  1  0
 58117  1  0
 58118  1  0
 59119  1  0
 59120  1  0
 59121  1  0
 61122  1  0
 62123  1  0
 63124  1  0
 64125  1  0
 65126  1  0
 66127  1  0
 66128  1  0
 67129  1  0
 67130  1  0
 68131  1  0
 68132  1  0
M  END
> <Uni-Dock RESULT> 
ENERGY=   -6.535  LOWER_BOUND=    4.597  UPPER_BOUND=    7.156
INTER + INTRA:          -6.535
INTER:                  -6.535
INTRA:                   0.000
UNBOUND:                 0.000

$$$$

     RDKit          3D

132133  0  0  0  0  0  0  0  0999 V2000
   48.7641    7.7175   17.7778 O   0  0  0  0  0  0  0  0  0  0  0  0
   48.6406    8.7730   20.4822 N   0  0  0  0  0  0  0  0  0  0  0  0
   47.9729    8.3931   19.2265 C   0  0  1  0  0  0  0  0  0  0  0  0
   49.8193    9.0868   19.8708 C   0  0  0  0  0  0  0  0  0  0  0  0
   49.1612    9.0509   18.4725 C   0  0  1  0  0  0  0  0  0  0  0  0
   48.5740    7.8251   21.5906 C   0  0  2  0  0  0  0  0  0  0  0  0
   47.9015    6.5542   19.2611 S   0  0  0  0  0  0  0  0  0  0  0  0
   48.5902    6.4021   20.9771 C   0  0  0  0  0  0  0  0  0  0  0  0
   49.8573    8.2389   17.4389 N   0  0  0  0  0  0  0  0  0  0  0  0
   47.3522    8.1129   22.4700 C   0  0  0  0  0  0  0  0  0  0  0  0
   49.2463    7.9761   16.2292 C   0  0  0  0  0  0  0  0  0  0  0  0
   50.9396    9.1964   20.3110 O   0  0  0  0  0  0  0  0  0  0  0  0
   47.1177    7.5918   23.5511 O   0  0  0  0  0  0  0  0  0  0  0  0
   48.1303    8.4170   15.9631 O   0  0  0  0  0  0  0  0  0  0  0  0
   50.0490    7.0824   15.2993 C   0  0  0  0  0  0  0  0  0  0  0  0
   46.4727    9.0008   21.9610 O   0  0  0  0  0  0  0  0  0  0  0  0
   50.0293    5.8707   20.8480 C   0  0  0  0  0  0  0  0  0  0  0  0
   47.7596    5.3513   21.7226 C   0  0  0  0  0  0  0  0  0  0  0  0
   50.0793    7.5830   13.8770 C   0  0  0  0  0  0  0  0  0  0  0  0
   51.0709    8.4809   13.4573 C   0  0  0  0  0  0  0  0  0  0  0  0
   49.0964    7.1794   12.9629 C   0  0  0  0  0  0  0  0  0  0  0  0
   51.0854    8.9528   12.1431 C   0  0  0  0  0  0  0  0  0  0  0  0
   49.1138    7.6521   11.6500 C   0  0  0  0  0  0  0  0  0  0  0  0
   50.1089    8.5370   11.2398 C   0  0  0  0  0  0  0  0  0  0  0  0
   48.7886    8.8380   16.1719 N   0  0  0  0  0  0  0  0  0  0  0  0
   49.3557    7.9157   19.8434 N   0  0  0  0  0  0  0  0  0  0  0  0
   48.5528    6.3005   21.4977 C   0  0  0  0  0  0  0  0  0  0  0  0
   49.6783    8.3305   13.9531 C   0  0  0  0  0  0  0  0  0  0  0  0
   49.4286    7.8151   15.3507 C   0  0  0  0  0  0  0  0  0  0  0  0
   48.7627    6.5908   20.0298 C   0  0  0  0  0  0  0  0  0  0  0  0
   48.4713    8.3750   17.5259 C   0  0  0  0  0  0  0  0  0  0  0  0
   49.6994    8.1897   18.4449 C   0  0  0  0  0  0  0  0  0  0  0  0
   47.5605    6.9820   22.2180 C   0  0  0  0  0  0  0  0  0  0  0  0
   49.3487    5.3589   22.1651 C   0  0  0  0  0  0  0  0  0  0  0  0
   48.6013    8.5835   13.0903 C   0  0  0  0  0  0  0  0  0  0  0  0
   50.9819    8.5745   13.4979 C   0  0  0  0  0  0  0  0  0  0  0  0
   47.3609    6.7196   23.5739 C   0  0  0  0  0  0  0  0  0  0  0  0
   48.8225    9.0612   11.7979 C   0  0  0  0  0  0  0  0  0  0  0  0
   51.2017    9.0519   12.2038 C   0  0  0  0  0  0  0  0  0  0  0  0
   49.1476    5.0976   23.5218 C   0  0  0  0  0  0  0  0  0  0  0  0
   48.1533    5.7763   24.2247 C   0  0  0  0  0  0  0  0  0  0  0  0
   50.1230    9.2934   11.3547 C   0  0  0  0  0  0  0  0  0  0  0  0
   50.1780    6.0764   20.1625 N   0  0  0  0  0  0  0  0  0  0  0  0
   50.3300    7.3242   19.3926 C   0  0  1  0  0  0  0  0  0  0  0  0
   49.9079    5.3205   19.0578 C   0  0  0  0  0  0  0  0  0  0  0  0
   50.3834    6.4469   18.1096 C   0  0  1  0  0  0  0  0  0  0  0  0
   49.2734    6.1072   21.3049 C   0  0  2  0  0  0  0  0  0  0  0  0
   48.7766    8.2688   19.6992 S   0  0  0  0  0  0  0  0  0  0  0  0
   48.1295    7.0934   20.9797 C   0  0  0  0  0  0  0  0  0  0  0  0
   49.4608    6.7988   16.9967 N   0  0  0  0  0  0  0  0  0  0  0  0
   50.0956    6.5000   22.5294 C   0  0  0  0  0  0  0  0  0  0  0  0
   49.6948    7.9157   16.2195 C   0  0  0  0  0  0  0  0  0  0  0  0
   49.3665    4.2458   18.9441 O   0  0  0  0  0  0  0  0  0  0  0  0
   51.0390    7.2719   22.5739 O   0  0  0  0  0  0  0  0  0  0  0  0
   50.6944    8.6111   16.3776 O   0  0  0  0  0  0  0  0  0  0  0  0
   48.5936    8.2137   15.2164 C   0  0  0  0  0  0  0  0  0  0  0  0
   49.6466    5.9166   23.6624 O   0  0  0  0  0  0  0  0  0  0  0  0
   47.6310    7.9185   22.1737 C   0  0  0  0  0  0  0  0  0  0  0  0
   46.9277    6.3591   20.3622 C   0  0  0  0  0  0  0  0  0  0  0  0
   49.0977    8.7492   13.8991 C   0  0  0  0  0  0  0  0  0  0  0  0
   49.2776   10.1275   13.7161 C   0  0  0  0  0  0  0  0  0  0  0  0
   49.4101    7.8773   12.8468 C   0  0  0  0  0  0  0  0  0  0  0  0
   49.7428   10.6250   12.4979 C   0  0  0  0  0  0  0  0  0  0  0  0
   49.8754    8.3776   11.6292 C   0  0  0  0  0  0  0  0  0  0  0  0
   50.0389    9.7507   11.4538 C   0  0  0  0  0  0  0  0  0  0  0  0
   48.7635    7.7165   17.7817 O   0  0  0  0  0  0  0  0  0  0  0  0
   48.7642    7.7177   17.7770 O   0  0  0  0  0  0  0  0  0  0  0  0
   48.7642    7.7179   17.7762 O   0  0  0  0  0  0  0  0  0  0  0  0
   49.4713    7.8207   17.1237 H   0  0  0  0  0  0  0  0  0  0  0  0
   49.2295    7.4604   18.5876 H   0  0  0  0  0  0  0  0  0  0  0  0
   47.0064    8.8856   19.0882 H   0  0  0  0  0  0  0  0  0  0  0  0
   48.9526   10.0614   18.0996 H   0  0  0  0  0  0  0  0  0  0  0  0
   49.4508    7.9924   22.2290 H   0  0  0  0  0  0  0  0  0  0  0  0
   50.7586    7.8233   17.6474 H   0  0  0  0  0  0  0  0  0  0  0  0
   49.6089    6.0786   15.3395 H   0  0  0  0  0  0  0  0  0  0  0  0
   51.0786    6.9763   15.6642 H   0  0  0  0  0  0  0  0  0  0  0  0
   45.7638    9.0568   22.6346 H   0  0  0  0  0  0  0  0  0  0  0  0
   50.0532    4.8741   20.3903 H   0  0  0  0  0  0  0  0  0  0  0  0
   50.6710    6.5201   20.2450 H   0  0  0  0  0  0  0  0  0  0  0  0
   50.4941    5.7822   21.8376 H   0  0  0  0  0  0  0  0  0  0  0  0
   48.1136    5.2354   22.7533 H   0  0  0  0  0  0  0  0  0  0  0  0
   46.6943    5.6083   21.7576 H   0  0  0  0  0  0  0  0  0  0  0  0
   47.8368    4.3640   21.2488 H   0  0  0  0  0  0  0  0  0  0  0  0
   51.8372    8.8222   14.1490 H   0  0  0  0  0  0  0  0  0  0  0  0
   48.3029    6.5021   13.2724 H   0  0  0  0  0  0  0  0  0  0  0  0
   51.8563    9.6505   11.8250 H   0  0  0  0  0  0  0  0  0  0  0  0
   48.3445    7.3363   10.9499 H   0  0  0  0  0  0  0  0  0  0  0  0
   50.1183    8.9087   10.2186 H   0  0  0  0  0  0  0  0  0  0  0  0
   49.3854    9.6629   16.2119 H   0  0  0  0  0  0  0  0  0  0  0  0
   50.2013    7.9669   20.4121 H   0  0  0  0  0  0  0  0  0  0  0  0
   50.3790    7.4965   15.7930 H   0  0  0  0  0  0  0  0  0  0  0  0
   48.7935    6.9229   15.2788 H   0  0  0  0  0  0  0  0  0  0  0  0
   47.7895    6.5199   19.5311 H   0  0  0  0  0  0  0  0  0  0  0  0
   49.4065    5.8174   19.5928 H   0  0  0  0  0  0  0  0  0  0  0  0
   47.8107    9.1262   17.9764 H   0  0  0  0  0  0  0  0  0  0  0  0
   47.8855    7.4508   17.4651 H   0  0  0  0  0  0  0  0  0  0  0  0
   50.2824    9.1189   18.4301 H   0  0  0  0  0  0  0  0  0  0  0  0
   50.3600    7.4024   18.0635 H   0  0  0  0  0  0  0  0  0  0  0  0
   46.9447    7.7279   21.7195 H   0  0  0  0  0  0  0  0  0  0  0  0
   50.1303    4.8219   21.6329 H   0  0  0  0  0  0  0  0  0  0  0  0
   47.5822    8.4161   13.4332 H   0  0  0  0  0  0  0  0  0  0  0  0
   51.8351    8.3952   14.1473 H   0  0  0  0  0  0  0  0  0  0  0  0
   46.5892    7.2545   24.1213 H   0  0  0  0  0  0  0  0  0  0  0  0
   47.9795    9.2559   11.1405 H   0  0  0  0  0  0  0  0  0  0  0  0
   52.2157    9.2374   11.8582 H   0  0  0  0  0  0  0  0  0  0  0  0
   49.7675    4.3643   24.0312 H   0  0  0  0  0  0  0  0  0  0  0  0
   47.9989    5.5734   25.2813 H   0  0  0  0  0  0  0  0  0  0  0  0
   50.2951    9.6676   10.3490 H   0  0  0  0  0  0  0  0  0  0  0  0
   51.2509    7.8642   19.6291 H   0  0  0  0  0  0  0  0  0  0  0  0
   51.3972    6.2590   17.7342 H   0  0  0  0  0  0  0  0  0  0  0  0
   48.8957    5.0898   21.4667 H   0  0  0  0  0  0  0  0  0  0  0  0
   48.5841    6.2987   16.8978 H   0  0  0  0  0  0  0  0  0  0  0  0
   47.9997    7.3103   15.0291 H   0  0  0  0  0  0  0  0  0  0  0  0
   47.9104    8.9371   15.6786 H   0  0  0  0  0  0  0  0  0  0  0  0
   50.2611    6.2410   24.3562 H   0  0  0  0  0  0  0  0  0  0  0  0
   47.2589    7.2628   22.9696 H   0  0  0  0  0  0  0  0  0  0  0  0
   48.4154    8.5528   22.6010 H   0  0  0  0  0  0  0  0  0  0  0  0
   46.8015    8.5778   21.8889 H   0  0  0  0  0  0  0  0  0  0  0  0
   46.1214    7.0531   20.0965 H   0  0  0  0  0  0  0  0  0  0  0  0
   47.1917    5.8023   19.4573 H   0  0  0  0  0  0  0  0  0  0  0  0
   46.5111    5.6393   21.0768 H   0  0  0  0  0  0  0  0  0  0  0  0
   49.0661   10.8221   14.5266 H   0  0  0  0  0  0  0  0  0  0  0  0
   49.2949    6.8024   12.9663 H   0  0  0  0  0  0  0  0  0  0  0  0
   49.8811   11.6950   12.3672 H   0  0  0  0  0  0  0  0  0  0  0  0
   50.1155    7.6961   10.8174 H   0  0  0  0  0  0  0  0  0  0  0  0
   50.4036   10.1395   10.5063 H   0  0  0  0  0  0  0  0  0  0  0  0
   49.2374    7.4599   18.5866 H   0  0  0  0  0  0  0  0  0  0  0  0
   49.4641    7.8221   17.1207 H   0  0  0  0  0  0  0  0  0  0  0  0
   49.4728    7.8204   17.1243 H   0  0  0  0  0  0  0  0  0  0  0  0
   49.2281    7.4605   18.5878 H   0  0  0  0  0  0  0  0  0  0  0  0
   49.2265    7.4606   18.5881 H   0  0  0  0  0  0  0  0  0  0  0  0
   49.4742    7.8201   17.1247 H   0  0  0  0  0  0  0  0  0  0  0  0
  3  2  1  0
  4  2  1  0
  5  3  1  0
  6  2  1  0
  3  7  1  0
  8  6  1  0
  5  9  1  0
  6 10  1  0
 11  9  1  0
 12  4  2  0
 13 10  2  0
 14 11  2  0
 15 11  1  0
 16 10  1  0
 17  8  1  0
 18  8  1  0
 19 15  1  0
 20 19  2  0
 21 19  1  0
 22 20  1  0
 23 21  2  0
 24 23  1  0
  7  8  1  0
  4  5  1  0
 24 22  2  0
 26 32  1  0
 27 30  1  0
 28 29  1  0
 29 25  1  0
 30 26  1  0
 31 25  1  0
 32 31  1  0
 33 27  2  0
 34 27  1  0
 35 28  2  0
 36 28  1  0
 37 33  1  0
 38 35  1  0
 39 36  2  0
 40 34  2  0
 41 37  2  0
 42 39  1  0
 42 38  2  0
 40 41  1  0
 44 43  1  0
 45 43  1  0
 46 44  1  0
 47 43  1  0
 44 48  1  0
 49 47  1  0
 46 50  1  0
 47 51  1  0
 52 50  1  0
 53 45  2  0
 54 51  2  0
 55 52  2  0
 56 52  1  0
 57 51  1  0
 58 49  1  0
 59 49  1  0
 60 56  1  0
 61 60  2  0
 62 60  1  0
 63 61  1  0
 64 62  2  0
 65 64  1  0
 48 49  1  0
 45 46  1  0
 65 63  2  0
  1 69  1  0
  1 70  1  0
  3 71  1  1
  5 72  1  1
  6 73  1  1
  9 74  1  0
 15 75  1  0
 15 76  1  0
 16 77  1  0
 17 78  1  0
 17 79  1  0
 17 80  1  0
 18 81  1  0
 18 82  1  0
 18 83  1  0
 20 84  1  0
 21 85  1  0
 22 86  1  0
 23 87  1  0
 24 88  1  0
 25 89  1  0
 26 90  1  0
 29 91  1  0
 29 92  1  0
 30 93  1  0
 30 94  1  0
 31 95  1  0
 31 96  1  0
 32 97  1  0
 32 98  1  0
 33 99  1  0
 34100  1  0
 35101  1  0
 36102  1  0
 37103  1  0
 38104  1  0
 39105  1  0
 40106  1  0
 41107  1  0
 42108  1  0
 44109  1  1
 46110  1  6
 47111  1  6
 50112  1  0
 56113  1  0
 56114  1  0
 57115  1  0
 58116  1  0
 58117  1  0
 58118  1  0
 59119  1  0
 59120  1  0
 59121  1  0
 61122  1  0
 62123  1  0
 63124  1  0
 64125  1  0
 65126  1  0
 66127  1  0
 66128  1  0
 67129  1  0
 67130  1  0
 68131  1  0
 68132  1  0
M  END
> <Uni-Dock RESULT> 
ENERGY=   -6.532  LOWER_BOUND=    4.759  UPPER_BOUND=    7.782
INTER + INTRA:          -6.532
INTER:                  -6.532
INTRA:                   0.000
UNBOUND:                 0.000

$$$$

     RDKit          3D

132133  0  0  0  0  0  0  0  0999 V2000
   49.0789   10.4164   17.9637 O   0  0  0  0  0  0  0  0  0  0  0  0
   47.6593   11.7046   20.1474 N   0  0  0  0  0  0  0  0  0  0  0  0
   48.2243   10.4950   19.5272 C   0  0  1  0  0  0  0  0  0  0  0  0
   47.4097   12.3149   18.9529 C   0  0  0  0  0  0  0  0  0  0  0  0
   47.6538   11.0020   18.1742 C   0  0  1  0  0  0  0  0  0  0  0  0
   48.4445   12.3503   21.1953 C   0  0  2  0  0  0  0  0  0  0  0  0
   50.0415   10.6294   19.7874 S   0  0  0  0  0  0  0  0  0  0  0  0
   49.9385   12.1606   20.8299 C   0  0  0  0  0  0  0  0  0  0  0  0
   48.5876   11.0864   17.0195 N   0  0  0  0  0  0  0  0  0  0  0  0
   48.0620   11.7949   22.5715 C   0  0  0  0  0  0  0  0  0  0  0  0
   49.0290    9.9380   16.3934 C   0  0  0  0  0  0  0  0  0  0  0  0
   47.2167   13.4758   18.6774 O   0  0  0  0  0  0  0  0  0  0  0  0
   48.4320   12.2459   23.6463 O   0  0  0  0  0  0  0  0  0  0  0  0
   48.6526    8.8244   16.7522 O   0  0  0  0  0  0  0  0  0  0  0  0
   50.0270   10.1757   15.2729 C   0  0  0  0  0  0  0  0  0  0  0  0
   47.2721   10.7010   22.5519 O   0  0  0  0  0  0  0  0  0  0  0  0
   50.4530   13.3328   19.9747 C   0  0  0  0  0  0  0  0  0  0  0  0
   50.8920   11.9827   22.0170 C   0  0  0  0  0  0  0  0  0  0  0  0
   49.7292    9.3693   14.0337 C   0  0  0  0  0  0  0  0  0  0  0  0
   48.8783    9.8747   13.0407 C   0  0  0  0  0  0  0  0  0  0  0  0
   50.2764    8.0889   13.8733 C   0  0  0  0  0  0  0  0  0  0  0  0
   48.5942    9.1176   11.9022 C   0  0  0  0  0  0  0  0  0  0  0  0
   49.9912    7.3348   12.7342 C   0  0  0  0  0  0  0  0  0  0  0  0
   49.1519    7.8496   11.7483 C   0  0  0  0  0  0  0  0  0  0  0  0
   48.1932    9.4452   16.5121 N   0  0  0  0  0  0  0  0  0  0  0  0
   48.5825   12.0266   19.3116 N   0  0  0  0  0  0  0  0  0  0  0  0
   49.9673   12.4262   21.2896 C   0  0  0  0  0  0  0  0  0  0  0  0
   48.9867    9.0079   14.2425 C   0  0  0  0  0  0  0  0  0  0  0  0
   49.3072    9.6201   15.5855 C   0  0  0  0  0  0  0  0  0  0  0  0
   49.8803   11.7635   19.9346 C   0  0  0  0  0  0  0  0  0  0  0  0
   48.4692    9.9725   17.8516 C   0  0  0  0  0  0  0  0  0  0  0  0
   48.4991   11.5147   17.9405 C   0  0  0  0  0  0  0  0  0  0  0  0
   49.2125   11.9361   22.3658 C   0  0  0  0  0  0  0  0  0  0  0  0
   50.7900   13.5432   21.4920 C   0  0  0  0  0  0  0  0  0  0  0  0
   48.8788    7.6155   14.1084 C   0  0  0  0  0  0  0  0  0  0  0  0
   48.7818    9.8144   13.1140 C   0  0  0  0  0  0  0  0  0  0  0  0
   49.2873   12.5428   23.6201 C   0  0  0  0  0  0  0  0  0  0  0  0
   48.5816    7.0412   12.8718 C   0  0  0  0  0  0  0  0  0  0  0  0
   48.4851    9.2380   11.8768 C   0  0  0  0  0  0  0  0  0  0  0  0
   50.8636   14.1491   22.7478 C   0  0  0  0  0  0  0  0  0  0  0  0
   50.1141   13.6480   23.8109 C   0  0  0  0  0  0  0  0  0  0  0  0
   48.3867    7.8529   11.7561 C   0  0  0  0  0  0  0  0  0  0  0  0
   50.3419   13.0587   19.3063 N   0  0  0  0  0  0  0  0  0  0  0  0
   49.2108   12.6419   18.4579 C   0  0  1  0  0  0  0  0  0  0  0  0
   51.2499   12.2976   18.6273 C   0  0  0  0  0  0  0  0  0  0  0  0
   50.2572   12.0623   17.4641 C   0  0  1  0  0  0  0  0  0  0  0  0
   50.1707   12.9356   20.7484 C   0  0  2  0  0  0  0  0  0  0  0  0
   48.2649   11.4336   19.4799 S   0  0  0  0  0  0  0  0  0  0  0  0
   49.2632   11.7146   21.0175 C   0  0  0  0  0  0  0  0  0  0  0  0
   50.0831   10.6506   17.0276 N   0  0  0  0  0  0  0  0  0  0  0  0
   49.5941   14.2548   21.2552 C   0  0  0  0  0  0  0  0  0  0  0  0
   49.0809   10.3102   16.1410 C   0  0  0  0  0  0  0  0  0  0  0  0
   52.3409   11.8882   18.9485 O   0  0  0  0  0  0  0  0  0  0  0  0
   48.8043   14.9882   20.6840 O   0  0  0  0  0  0  0  0  0  0  0  0
   48.3498   11.1599   15.6398 O   0  0  0  0  0  0  0  0  0  0  0  0
   48.9485    8.8161   15.9002 C   0  0  0  0  0  0  0  0  0  0  0  0
   50.0229   14.5625   22.4990 O   0  0  0  0  0  0  0  0  0  0  0  0
   48.2901   11.8812   22.1923 C   0  0  0  0  0  0  0  0  0  0  0  0
   50.1011   10.4476   21.2578 C   0  0  0  0  0  0  0  0  0  0  0  0
   48.5917    8.4571   14.4790 C   0  0  0  0  0  0  0  0  0  0  0  0
   47.2490    8.3745   14.0842 C   0  0  0  0  0  0  0  0  0  0  0  0
   49.5952    8.2187   13.5297 C   0  0  0  0  0  0  0  0  0  0  0  0
   46.9168    8.0415   12.7702 C   0  0  0  0  0  0  0  0  0  0  0  0
   49.2602    7.8858   12.2157 C   0  0  0  0  0  0  0  0  0  0  0  0
   47.9219    7.7944   11.8369 C   0  0  0  0  0  0  0  0  0  0  0  0
   49.0794   10.4182   17.9674 O   0  0  0  0  0  0  0  0  0  0  0  0
   49.0788   10.4160   17.9630 O   0  0  0  0  0  0  0  0  0  0  0  0
   49.0788   10.4156   17.9623 O   0  0  0  0  0  0  0  0  0  0  0  0
   49.0535   10.6323   17.0196 H   0  0  0  0  0  0  0  0  0  0  0  0
   49.2109   11.2730   18.3966 H   0  0  0  0  0  0  0  0  0  0  0  0
   47.7759    9.5709   19.9024 H   0  0  0  0  0  0  0  0  0  0  0  0
   46.7097   10.5276   17.8787 H   0  0  0  0  0  0  0  0  0  0  0  0
   48.1718   13.4132   21.2129 H   0  0  0  0  0  0  0  0  0  0  0  0
   48.9513   11.9878   16.7306 H   0  0  0  0  0  0  0  0  0  0  0  0
   51.0242    9.9282   15.6566 H   0  0  0  0  0  0  0  0  0  0  0  0
   50.0599   11.2403   15.0086 H   0  0  0  0  0  0  0  0  0  0  0  0
   47.1374   10.4794   23.4964 H   0  0  0  0  0  0  0  0  0  0  0  0
   51.5030   13.1949   19.6888 H   0  0  0  0  0  0  0  0  0  0  0  0
   49.8810   13.4707   19.0523 H   0  0  0  0  0  0  0  0  0  0  0  0
   50.3930   14.2720   20.5383 H   0  0  0  0  0  0  0  0  0  0  0  0
   50.8556   12.8553   22.6791 H   0  0  0  0  0  0  0  0  0  0  0  0
   50.6546   11.0946   22.6144 H   0  0  0  0  0  0  0  0  0  0  0  0
   51.9339   11.8792   21.6871 H   0  0  0  0  0  0  0  0  0  0  0  0
   48.4282   10.8588   13.1457 H   0  0  0  0  0  0  0  0  0  0  0  0
   50.9202    7.6660   14.6420 H   0  0  0  0  0  0  0  0  0  0  0  0
   47.9319    9.5150   11.1369 H   0  0  0  0  0  0  0  0  0  0  0  0
   50.4173    6.3411   12.6212 H   0  0  0  0  0  0  0  0  0  0  0  0
   48.9261    7.2592   10.8642 H   0  0  0  0  0  0  0  0  0  0  0  0
   47.3586    9.8838   16.1255 H   0  0  0  0  0  0  0  0  0  0  0  0
   48.4351   13.0362   19.3015 H   0  0  0  0  0  0  0  0  0  0  0  0
   49.5413   10.6820   15.4514 H   0  0  0  0  0  0  0  0  0  0  0  0
   50.2135    9.1387   15.9744 H   0  0  0  0  0  0  0  0  0  0  0  0
   50.0401   10.6886   20.0756 H   0  0  0  0  0  0  0  0  0  0  0  0
   50.6937   12.1298   19.2958 H   0  0  0  0  0  0  0  0  0  0  0  0
   47.6763    9.6019   18.5131 H   0  0  0  0  0  0  0  0  0  0  0  0
   49.4047    9.5411   18.2254 H   0  0  0  0  0  0  0  0  0  0  0  0
   47.5693   11.9016   17.5056 H   0  0  0  0  0  0  0  0  0  0  0  0
   49.3182   11.9267   17.3396 H   0  0  0  0  0  0  0  0  0  0  0  0
   48.5563   11.0800   22.2222 H   0  0  0  0  0  0  0  0  0  0  0  0
   51.3798   13.9487   20.6733 H   0  0  0  0  0  0  0  0  0  0  0  0
   49.0177    6.9756   14.9775 H   0  0  0  0  0  0  0  0  0  0  0  0
   48.8512   10.8967   13.1900 H   0  0  0  0  0  0  0  0  0  0  0  0
   48.6973   12.1542   24.4460 H   0  0  0  0  0  0  0  0  0  0  0  0
   48.4979    5.9614   12.7818 H   0  0  0  0  0  0  0  0  0  0  0  0
   48.3288    9.8705   11.0064 H   0  0  0  0  0  0  0  0  0  0  0  0
   51.5057   15.0134   22.8967 H   0  0  0  0  0  0  0  0  0  0  0  0
   50.1707   14.1216   24.7875 H   0  0  0  0  0  0  0  0  0  0  0  0
   48.1530    7.4056   10.7935 H   0  0  0  0  0  0  0  0  0  0  0  0
   48.6242   13.4844   18.0814 H   0  0  0  0  0  0  0  0  0  0  0  0
   50.4747   12.7136   16.6082 H   0  0  0  0  0  0  0  0  0  0  0  0
   51.1631   12.8083   21.1988 H   0  0  0  0  0  0  0  0  0  0  0  0
   50.6100    9.9168   17.4884 H   0  0  0  0  0  0  0  0  0  0  0  0
   49.8812    8.3063   16.1723 H   0  0  0  0  0  0  0  0  0  0  0  0
   48.1819    8.4359   16.5868 H   0  0  0  0  0  0  0  0  0  0  0  0
   49.5923   15.4236   22.6925 H   0  0  0  0  0  0  0  0  0  0  0  0
   48.8359   12.0737   23.1233 H   0  0  0  0  0  0  0  0  0  0  0  0
   47.5864   12.7067   22.0393 H   0  0  0  0  0  0  0  0  0  0  0  0
   47.6942   10.9740   22.3528 H   0  0  0  0  0  0  0  0  0  0  0  0
   49.4677    9.5669   21.4175 H   0  0  0  0  0  0  0  0  0  0  0  0
   50.7731   10.2206   20.4239 H   0  0  0  0  0  0  0  0  0  0  0  0
   50.7227   10.5645   22.1535 H   0  0  0  0  0  0  0  0  0  0  0  0
   46.4526    8.5800   14.7966 H   0  0  0  0  0  0  0  0  0  0  0  0
   50.6451    8.2912   13.8044 H   0  0  0  0  0  0  0  0  0  0  0  0
   45.8729    7.9825   12.4737 H   0  0  0  0  0  0  0  0  0  0  0  0
   50.0432    7.7021   11.4848 H   0  0  0  0  0  0  0  0  0  0  0  0
   47.6616    7.5375   10.8130 H   0  0  0  0  0  0  0  0  0  0  0  0
   49.2114   11.2791   18.3914 H   0  0  0  0  0  0  0  0  0  0  0  0
   49.0526   10.6246   17.0210 H   0  0  0  0  0  0  0  0  0  0  0  0
   49.0537   10.6339   17.0193 H   0  0  0  0  0  0  0  0  0  0  0  0
   49.2108   11.2719   18.3975 H   0  0  0  0  0  0  0  0  0  0  0  0
   49.2108   11.2708   18.3986 H   0  0  0  0  0  0  0  0  0  0  0  0
   49.0538   10.6354   17.0189 H   0  0  0  0  0  0  0  0  0  0  0  0
  3  2  1  0
  4  2  1  0
  5  3  1  0
  6  2  1  0
  3  7  1  0
  8  6  1  0
  5  9  1  0
  6 10  1  0
 11  9  1  0
 12  4  2  0
 13 10  2  0
 14 11  2  0
 15 11  1  0
 16 10  1  0
 17  8  1  0
 18  8  1  0
 19 15  1  0
 20 19  2  0
 21 19  1  0
 22 20  1  0
 23 21  2  0
 24 23  1  0
  7  8  1  0
  4  5  1  0
 24 22  2  0
 26 32  1  0
 27 30  1  0
 28 29  1  0
 29 25  1  0
 30 26  1  0
 31 25  1  0
 32 31  1  0
 33 27  2  0
 34 27  1  0
 35 28  2  0
 36 28  1  0
 37 33  1  0
 38 35  1  0
 39 36  2  0
 40 34  2  0
 41 37  2  0
 42 39  1  0
 42 38  2  0
 40 41  1  0
 44 43  1  0
 45 43  1  0
 46 44  1  0
 47 43  1  0
 44 48  1  0
 49 47  1  0
 46 50  1  0
 47 51  1  0
 52 50  1  0
 53 45  2  0
 54 51  2  0
 55 52  2  0
 56 52  1  0
 57 51  1  0
 58 49  1  0
 59 49  1  0
 60 56  1  0
 61 60  2  0
 62 60  1  0
 63 61  1  0
 64 62  2  0
 65 64  1  0
 48 49  1  0
 45 46  1  0
 65 63  2  0
  1 69  1  0
  1 70  1  0
  3 71  1  1
  5 72  1  1
  6 73  1  1
  9 74  1  0
 15 75  1  0
 15 76  1  0
 16 77  1  0
 17 78  1  0
 17 79  1  0
 17 80  1  0
 18 81  1  0
 18 82  1  0
 18 83  1  0
 20 84  1  0
 21 85  1  0
 22 86  1  0
 23 87  1  0
 24 88  1  0
 25 89  1  0
 26 90  1  0
 29 91  1  0
 29 92  1  0
 30 93  1  0
 30 94  1  0
 31 95  1  0
 31 96  1  0
 32 97  1  0
 32 98  1  0
 33 99  1  0
 34100  1  0
 35101  1  0
 36102  1  0
 37103  1  0
 38104  1  0
 39105  1  0
 40106  1  0
 41107  1  0
 42108  1  0
 44109  1  1
 46110  1  6
 47111  1  6
 50112  1  0
 56113  1  0
 56114  1  0
 57115  1  0
 58116  1  0
 58117  1  0
 58118  1  0
 59119  1  0
 59120  1  0
 59121  1  0
 61122  1  0
 62123  1  0
 63124  1  0
 64125  1  0
 65126  1  0
 66127  1  0
 66128  1  0
 67129  1  0
 67130  1  0
 68131  1  0
 68132  1  0
M  END
> <Uni-Dock RESULT> 
ENERGY=   -6.482  LOWER_BOUND=    4.456  UPPER_BOUND=    7.211
INTER + INTRA:          -6.482
INTER:                  -6.482
INTRA:                   0.000
UNBOUND:                 0.000

$$$$

     RDKit          3D

132133  0  0  0  0  0  0  0  0999 V2000
   49.2013    8.7002   20.0431 O   0  0  0  0  0  0  0  0  0  0  0  0
   47.9828   10.6469   21.8232 N   0  0  0  0  0  0  0  0  0  0  0  0
   48.8941    9.5124   21.6010 C   0  0  1  0  0  0  0  0  0  0  0  0
   47.1391   10.2892   20.8122 C   0  0  0  0  0  0  0  0  0  0  0  0
   47.7994    8.8970   20.6866 C   0  0  1  0  0  0  0  0  0  0  0  0
   48.5759   11.9787   21.8992 C   0  0  2  0  0  0  0  0  0  0  0  0
   50.3735   10.2415   20.7836 S   0  0  0  0  0  0  0  0  0  0  0  0
   49.7879   11.9955   20.9336 C   0  0  0  0  0  0  0  0  0  0  0  0
   48.1991    8.4803   19.3158 N   0  0  0  0  0  0  0  0  0  0  0  0
   48.9272   12.3276   23.3496 C   0  0  0  0  0  0  0  0  0  0  0  0
   48.9769    7.3555   19.1272 C   0  0  0  0  0  0  0  0  0  0  0  0
   46.3101   10.9253   20.2050 O   0  0  0  0  0  0  0  0  0  0  0  0
   49.2903   13.4255   23.7472 O   0  0  0  0  0  0  0  0  0  0  0  0
   49.3416    6.6597   20.0723 O   0  0  0  0  0  0  0  0  0  0  0  0
   49.3593    7.0898   17.6811 C   0  0  0  0  0  0  0  0  0  0  0  0
   48.8421   11.3041   24.2249 O   0  0  0  0  0  0  0  0  0  0  0  0
   49.3695   12.4608   19.5271 C   0  0  0  0  0  0  0  0  0  0  0  0
   50.9794   12.8490   21.3829 C   0  0  0  0  0  0  0  0  0  0  0  0
   49.1926    5.6455   17.2803 C   0  0  0  0  0  0  0  0  0  0  0  0
   47.9693    5.1811   16.7768 C   0  0  0  0  0  0  0  0  0  0  0  0
   50.2518    4.7406   17.4351 C   0  0  0  0  0  0  0  0  0  0  0  0
   47.8160    3.8394   16.4212 C   0  0  0  0  0  0  0  0  0  0  0  0
   50.0958    3.4005   17.0783 C   0  0  0  0  0  0  0  0  0  0  0  0
   48.8791    2.9505   16.5699 C   0  0  0  0  0  0  0  0  0  0  0  0
   48.5833    6.8504   19.8657 N   0  0  0  0  0  0  0  0  0  0  0  0
   48.3389   10.6015   20.5880 N   0  0  0  0  0  0  0  0  0  0  0  0
   49.8006   12.4855   21.1397 C   0  0  0  0  0  0  0  0  0  0  0  0
   48.8320    5.3176   17.9788 C   0  0  0  0  0  0  0  0  0  0  0  0
   49.1454    6.6890   18.5285 C   0  0  0  0  0  0  0  0  0  0  0  0
   49.6997   11.1294   20.4811 C   0  0  0  0  0  0  0  0  0  0  0  0
   48.9032    8.1455   20.4731 C   0  0  0  0  0  0  0  0  0  0  0  0
   48.1591    9.3477   19.8501 C   0  0  0  0  0  0  0  0  0  0  0  0
   49.7336   12.5997   22.5362 C   0  0  0  0  0  0  0  0  0  0  0  0
   49.9505   13.6483   20.3710 C   0  0  0  0  0  0  0  0  0  0  0  0
   49.4234    4.1777   18.5440 C   0  0  0  0  0  0  0  0  0  0  0  0
   47.9420    5.1574   16.9073 C   0  0  0  0  0  0  0  0  0  0  0  0
   49.8257   13.8486   23.1517 C   0  0  0  0  0  0  0  0  0  0  0  0
   49.1386    2.9066   18.0436 C   0  0  0  0  0  0  0  0  0  0  0  0
   47.6585    3.8845   16.4070 C   0  0  0  0  0  0  0  0  0  0  0  0
   50.0425   14.8972   20.9885 C   0  0  0  0  0  0  0  0  0  0  0  0
   49.9819   14.9966   22.3776 C   0  0  0  0  0  0  0  0  0  0  0  0
   48.2575    2.7608   16.9740 C   0  0  0  0  0  0  0  0  0  0  0  0
   49.2372   11.8134   19.2149 N   0  0  0  0  0  0  0  0  0  0  0  0
   48.2997   10.6858   19.3659 C   0  0  1  0  0  0  0  0  0  0  0  0
   50.1807   11.0618   18.5748 C   0  0  0  0  0  0  0  0  0  0  0  0
   49.1763    9.9078   18.3437 C   0  0  1  0  0  0  0  0  0  0  0  0
   49.5560   12.5769   20.4146 C   0  0  2  0  0  0  0  0  0  0  0  0
   48.4317   10.1867   21.1358 S   0  0  0  0  0  0  0  0  0  0  0  0
   49.5196   11.6091   21.6184 C   0  0  0  0  0  0  0  0  0  0  0  0
   49.6411    8.5483   18.7304 N   0  0  0  0  0  0  0  0  0  0  0  0
   48.5477   13.7187   20.5121 C   0  0  0  0  0  0  0  0  0  0  0  0
   48.7587    7.4865   18.7528 C   0  0  0  0  0  0  0  0  0  0  0  0
   51.3659   11.2402   18.4187 O   0  0  0  0  0  0  0  0  0  0  0  0
   47.3724   13.7013   20.1864 O   0  0  0  0  0  0  0  0  0  0  0  0
   47.5904    7.6138   18.3970 O   0  0  0  0  0  0  0  0  0  0  0  0
   49.3532    6.1989   19.2971 C   0  0  0  0  0  0  0  0  0  0  0  0
   49.0785   14.8313   21.0653 O   0  0  0  0  0  0  0  0  0  0  0  0
   48.9644   12.2137   22.9150 C   0  0  0  0  0  0  0  0  0  0  0  0
   50.9178   11.0387   21.9092 C   0  0  0  0  0  0  0  0  0  0  0  0
   48.8587    4.9564   18.5986 C   0  0  0  0  0  0  0  0  0  0  0  0
   47.7017    4.3039   19.0468 C   0  0  0  0  0  0  0  0  0  0  0  0
   49.5372    4.4471   17.4827 C   0  0  0  0  0  0  0  0  0  0  0  0
   47.2432    3.1537   18.4028 C   0  0  0  0  0  0  0  0  0  0  0  0
   49.0764    3.2963   16.8401 C   0  0  0  0  0  0  0  0  0  0  0  0
   47.9319    2.6484   17.3015 C   0  0  0  0  0  0  0  0  0  0  0  0
   49.2018    8.7038   20.0448 O   0  0  0  0  0  0  0  0  0  0  0  0
   49.2013    8.6994   20.0428 O   0  0  0  0  0  0  0  0  0  0  0  0
   49.2013    8.6986   20.0425 O   0  0  0  0  0  0  0  0  0  0  0  0
   48.8113    8.2648   19.2704 H   0  0  0  0  0  0  0  0  0  0  0  0
   48.9868    9.6365   19.9178 H   0  0  0  0  0  0  0  0  0  0  0  0
   49.1074    8.9482   22.5131 H   0  0  0  0  0  0  0  0  0  0  0  0
   47.1949    8.1196   21.1702 H   0  0  0  0  0  0  0  0  0  0  0  0
   47.8126   12.7046   21.5911 H   0  0  0  0  0  0  0  0  0  0  0  0
   47.9523    9.0598   18.5210 H   0  0  0  0  0  0  0  0  0  0  0  0
   50.4022    7.4027   17.5491 H   0  0  0  0  0  0  0  0  0  0  0  0
   48.7664    7.7200   17.0060 H   0  0  0  0  0  0  0  0  0  0  0  0
   49.1050   11.6941   25.0840 H   0  0  0  0  0  0  0  0  0  0  0  0
   50.2157   12.4511   18.8291 H   0  0  0  0  0  0  0  0  0  0  0  0
   48.5811   11.8408   19.0899 H   0  0  0  0  0  0  0  0  0  0  0  0
   48.9921   13.4903   19.5618 H   0  0  0  0  0  0  0  0  0  0  0  0
   50.6824   13.8967   21.5065 H   0  0  0  0  0  0  0  0  0  0  0  0
   51.4065   12.5041   22.3319 H   0  0  0  0  0  0  0  0  0  0  0  0
   51.7892   12.8352   20.6419 H   0  0  0  0  0  0  0  0  0  0  0  0
   47.1262    5.8576   16.6599 H   0  0  0  0  0  0  0  0  0  0  0  0
   51.2029    5.0728   17.8465 H   0  0  0  0  0  0  0  0  0  0  0  0
   46.8638    3.4857   16.0331 H   0  0  0  0  0  0  0  0  0  0  0  0
   50.9221    2.7058   17.2062 H   0  0  0  0  0  0  0  0  0  0  0  0
   48.7571    1.9055   16.2975 H   0  0  0  0  0  0  0  0  0  0  0  0
   47.5736    6.7187   19.8272 H   0  0  0  0  0  0  0  0  0  0  0  0
   47.6973   11.3030   20.2174 H   0  0  0  0  0  0  0  0  0  0  0  0
   48.7531    7.4500   17.8448 H   0  0  0  0  0  0  0  0  0  0  0  0
   50.2360    6.8090   18.5498 H   0  0  0  0  0  0  0  0  0  0  0  0
   50.4208   10.4644   20.9697 H   0  0  0  0  0  0  0  0  0  0  0  0
   49.9978   11.2112   19.4284 H   0  0  0  0  0  0  0  0  0  0  0  0
   48.6302    8.0799   21.5336 H   0  0  0  0  0  0  0  0  0  0  0  0
   49.9877    8.3005   20.4463 H   0  0  0  0  0  0  0  0  0  0  0  0
   47.0852    9.1232   19.8486 H   0  0  0  0  0  0  0  0  0  0  0  0
   48.4486    9.4884   18.8022 H   0  0  0  0  0  0  0  0  0  0  0  0
   49.6009   11.7090   23.1471 H   0  0  0  0  0  0  0  0  0  0  0  0
   49.9974   13.5896   19.2862 H   0  0  0  0  0  0  0  0  0  0  0  0
   50.1031    4.2823   19.3873 H   0  0  0  0  0  0  0  0  0  0  0  0
   47.4627    6.0220   16.4548 H   0  0  0  0  0  0  0  0  0  0  0  0
   49.7719   13.9243   24.2345 H   0  0  0  0  0  0  0  0  0  0  0  0
   49.6010    2.0315   18.4923 H   0  0  0  0  0  0  0  0  0  0  0  0
   46.9680    3.7691   15.5752 H   0  0  0  0  0  0  0  0  0  0  0  0
   50.1610   15.7937   20.3854 H   0  0  0  0  0  0  0  0  0  0  0  0
   50.0517   15.9695   22.8571 H   0  0  0  0  0  0  0  0  0  0  0  0
   48.0340    1.7706   16.5858 H   0  0  0  0  0  0  0  0  0  0  0  0
   47.2867   10.9226   19.0292 H   0  0  0  0  0  0  0  0  0  0  0  0
   48.7841    9.9116   17.3190 H   0  0  0  0  0  0  0  0  0  0  0  0
   50.5514   13.0188   20.2817 H   0  0  0  0  0  0  0  0  0  0  0  0
   50.5727    8.4290   19.1127 H   0  0  0  0  0  0  0  0  0  0  0  0
   50.4480    6.2318   19.2314 H   0  0  0  0  0  0  0  0  0  0  0  0
   49.1135    6.1486   20.3665 H   0  0  0  0  0  0  0  0  0  0  0  0
   48.3388   15.4770   21.0565 H   0  0  0  0  0  0  0  0  0  0  0  0
   49.5640   13.0764   23.2281 H   0  0  0  0  0  0  0  0  0  0  0  0
   47.9261   12.5470   22.8105 H   0  0  0  0  0  0  0  0  0  0  0  0
   48.9904   11.4903   23.7395 H   0  0  0  0  0  0  0  0  0  0  0  0
   50.8994   10.3246   22.7412 H   0  0  0  0  0  0  0  0  0  0  0  0
   51.3526   10.5243   21.0460 H   0  0  0  0  0  0  0  0  0  0  0  0
   51.6082   11.8430   22.1898 H   0  0  0  0  0  0  0  0  0  0  0  0
   47.1437    4.6946   19.8953 H   0  0  0  0  0  0  0  0  0  0  0  0
   50.4287    4.9420   17.1038 H   0  0  0  0  0  0  0  0  0  0  0  0
   46.3438    2.6568   18.7567 H   0  0  0  0  0  0  0  0  0  0  0  0
   49.6074    2.9068   15.9755 H   0  0  0  0  0  0  0  0  0  0  0  0
   47.5721    1.7537   16.7993 H   0  0  0  0  0  0  0  0  0  0  0  0
   48.9826    9.6379   19.9111 H   0  0  0  0  0  0  0  0  0  0  0  0
   48.8149    8.2598   19.2753 H   0  0  0  0  0  0  0  0  0  0  0  0
   48.8105    8.2659   19.2694 H   0  0  0  0  0  0  0  0  0  0  0  0
   48.9875    9.6363   19.9190 H   0  0  0  0  0  0  0  0  0  0  0  0
   48.9883    9.6361   19.9204 H   0  0  0  0  0  0  0  0  0  0  0  0
   48.8098    8.2668   19.2684 H   0  0  0  0  0  0  0  0  0  0  0  0
  3  2  1  0
  4  2  1  0
  5  3  1  0
  6  2  1  0
  3  7  1  0
  8  6  1  0
  5  9  1  0
  6 10  1  0
 11  9  1  0
 12  4  2  0
 13 10  2  0
 14 11  2  0
 15 11  1  0
 16 10  1  0
 17  8  1  0
 18  8  1  0
 19 15  1  0
 20 19  2  0
 21 19  1  0
 22 20  1  0
 23 21  2  0
 24 23  1  0
  7  8  1  0
  4  5  1  0
 24 22  2  0
 26 32  1  0
 27 30  1  0
 28 29  1  0
 29 25  1  0
 30 26  1  0
 31 25  1  0
 32 31  1  0
 33 27  2  0
 34 27  1  0
 35 28  2  0
 36 28  1  0
 37 33  1  0
 38 35  1  0
 39 36  2  0
 40 34  2  0
 41 37  2  0
 42 39  1  0
 42 38  2  0
 40 41  1  0
 44 43  1  0
 45 43  1  0
 46 44  1  0
 47 43  1  0
 44 48  1  0
 49 47  1  0
 46 50  1  0
 47 51  1  0
 52 50  1  0
 53 45  2  0
 54 51  2  0
 55 52  2  0
 56 52  1  0
 57 51  1  0
 58 49  1  0
 59 49  1  0
 60 56  1  0
 61 60  2  0
 62 60  1  0
 63 61  1  0
 64 62  2  0
 65 64  1  0
 48 49  1  0
 45 46  1  0
 65 63  2  0
  1 69  1  0
  1 70  1  0
  3 71  1  1
  5 72  1  1
  6 73  1  1
  9 74  1  0
 15 75  1  0
 15 76  1  0
 16 77  1  0
 17 78  1  0
 17 79  1  0
 17 80  1  0
 18 81  1  0
 18 82  1  0
 18 83  1  0
 20 84  1  0
 21 85  1  0
 22 86  1  0
 23 87  1  0
 24 88  1  0
 25 89  1  0
 26 90  1  0
 29 91  1  0
 29 92  1  0
 30 93  1  0
 30 94  1  0
 31 95  1  0
 31 96  1  0
 32 97  1  0
 32 98  1  0
 33 99  1  0
 34100  1  0
 35101  1  0
 36102  1  0
 37103  1  0
 38104  1  0
 39105  1  0
 40106  1  0
 41107  1  0
 42108  1  0
 44109  1  1
 46110  1  6
 47111  1  6
 50112  1  0
 56113  1  0
 56114  1  0
 57115  1  0
 58116  1  0
 58117  1  0
 58118  1  0
 59119  1  0
 59120  1  0
 59121  1  0
 61122  1  0
 62123  1  0
 63124  1  0
 64125  1  0
 65126  1  0
 66127  1  0
 66128  1  0
 67129  1  0
 67130  1  0
 68131  1  0
 68132  1  0
M  END
> <Uni-Dock RESULT> 
ENERGY=   -6.277  LOWER_BOUND=    5.549  UPPER_BOUND=    7.859
INTER + INTRA:          -6.277
INTER:                  -6.277
INTRA:                   0.000
UNBOUND:                 0.000

$$$$
