
     RDKit          3D

132133  0  0  0  0  0  0  0  0999 V2000
   47.4967    8.7290   12.9318 O   0  0  0  0  0  0  0  0  0  0  0  0
   49.9066    9.5419   14.6609 N   0  0  0  0  0  0  0  0  0  0  0  0
   49.6937    8.6644   13.4994 C   0  0  1  0  0  0  0  0  0  0  0  0
   48.7291    9.1969   15.2574 C   0  0  0  0  0  0  0  0  0  0  0  0
   48.5325    8.0033   14.2939 C   0  0  1  0  0  0  0  0  0  0  0  0
   50.2670   10.9312   14.3980 C   0  0  2  0  0  0  0  0  0  0  0  0
   49.2414    9.7983   12.1225 S   0  0  0  0  0  0  0  0  0  0  0  0
   49.5496   11.3511   13.0882 C   0  0  0  0  0  0  0  0  0  0  0  0
   47.2055    7.9109   13.6266 N   0  0  0  0  0  0  0  0  0  0  0  0
   51.7904   11.0952   14.3589 C   0  0  0  0  0  0  0  0  0  0  0  0
   47.0178    7.0585   12.5578 C   0  0  0  0  0  0  0  0  0  0  0  0
   48.0829    9.7444   16.1203 O   0  0  0  0  0  0  0  0  0  0  0  0
   52.3895   12.1601   14.3016 O   0  0  0  0  0  0  0  0  0  0  0  0
   47.9063    6.3034   12.1717 O   0  0  0  0  0  0  0  0  0  0  0  0
   45.6582    7.1804   11.8923 C   0  0  0  0  0  0  0  0  0  0  0  0
   52.4929    9.9432   14.3678 O   0  0  0  0  0  0  0  0  0  0  0  0
   48.1812   11.9866   13.3919 C   0  0  0  0  0  0  0  0  0  0  0  0
   50.3313   12.3098   12.1800 C   0  0  0  0  0  0  0  0  0  0  0  0
   45.0100    5.8510   11.6005 C   0  0  0  0  0  0  0  0  0  0  0  0
   44.1785    5.2381   12.5486 C   0  0  0  0  0  0  0  0  0  0  0  0
   45.2476    5.1988   10.3820 C   0  0  0  0  0  0  0  0  0  0  0  0
   43.5808    4.0064   12.2738 C   0  0  0  0  0  0  0  0  0  0  0  0
   44.6493    3.9676   10.1090 C   0  0  0  0  0  0  0  0  0  0  0  0
   43.8147    3.3734   11.0539 C   0  0  0  0  0  0  0  0  0  0  0  0
   46.6058    6.7278   13.3989 N   0  0  0  0  0  0  0  0  0  0  0  0
   49.0892    9.5945   13.4531 N   0  0  0  0  0  0  0  0  0  0  0  0
   50.3034   11.7181   13.4212 C   0  0  0  0  0  0  0  0  0  0  0  0
   45.2263    5.4701   11.8196 C   0  0  0  0  0  0  0  0  0  0  0  0
   46.4549    6.3296   11.9980 C   0  0  0  0  0  0  0  0  0  0  0  0
   49.0750   10.9719   12.9605 C   0  0  0  0  0  0  0  0  0  0  0  0
   47.8586    7.4538   13.6387 C   0  0  0  0  0  0  0  0  0  0  0  0
   47.8495    8.8965   13.0939 C   0  0  0  0  0  0  0  0  0  0  0  0
   51.5404   11.5043   12.7951 C   0  0  0  0  0  0  0  0  0  0  0  0
   50.2344   12.6170   14.4957 C   0  0  0  0  0  0  0  0  0  0  0  0
   43.9503    6.0528   11.8130 C   0  0  0  0  0  0  0  0  0  0  0  0
   45.3376    4.0783   11.6877 C   0  0  0  0  0  0  0  0  0  0  0  0
   52.6800   12.1873   13.2237 C   0  0  0  0  0  0  0  0  0  0  0  0
   42.8105    5.2626   11.6588 C   0  0  0  0  0  0  0  0  0  0  0  0
   44.1960    3.2889   11.5343 C   0  0  0  0  0  0  0  0  0  0  0  0
   51.3755   13.2983   14.9240 C   0  0  0  0  0  0  0  0  0  0  0  0
   52.5968   13.0857   14.2862 C   0  0  0  0  0  0  0  0  0  0  0  0
   42.9337    3.8813   11.5188 C   0  0  0  0  0  0  0  0  0  0  0  0
   50.4323    9.6603   12.1867 N   0  0  0  0  0  0  0  0  0  0  0  0
   49.0665    9.4683   11.6653 C   0  0  1  0  0  0  0  0  0  0  0  0
   50.4636    8.4459   12.8099 C   0  0  0  0  0  0  0  0  0  0  0  0
   49.2015    7.9682   12.0518 C   0  0  1  0  0  0  0  0  0  0  0  0
   50.6988   10.8989   12.9058 C   0  0  2  0  0  0  0  0  0  0  0  0
   47.9940   10.5224   12.7337 S   0  0  0  0  0  0  0  0  0  0  0  0
   49.4040   11.3043   13.6469 C   0  0  0  0  0  0  0  0  0  0  0  0
   48.1252    7.3703   12.8878 N   0  0  0  0  0  0  0  0  0  0  0  0
   51.1689   11.9281   11.8814 C   0  0  0  0  0  0  0  0  0  0  0  0
   46.8734    7.1334   12.3556 C   0  0  0  0  0  0  0  0  0  0  0  0
   51.1609    8.0293   13.7053 O   0  0  0  0  0  0  0  0  0  0  0  0
   50.8298   12.0220   10.7131 O   0  0  0  0  0  0  0  0  0  0  0  0
   46.6252    7.3511   11.1732 O   0  0  0  0  0  0  0  0  0  0  0  0
   45.8499    6.6414   13.3658 C   0  0  0  0  0  0  0  0  0  0  0  0
   52.0261   12.8322   12.4080 O   0  0  0  0  0  0  0  0  0  0  0  0
   49.3897   10.7445   15.0795 C   0  0  0  0  0  0  0  0  0  0  0  0
   49.1483   12.8158   13.7163 C   0  0  0  0  0  0  0  0  0  0  0  0
   44.9512    5.5502   12.8392 C   0  0  0  0  0  0  0  0  0  0  0  0
   45.2936    4.2006   13.0045 C   0  0  0  0  0  0  0  0  0  0  0  0
   43.7666    5.8719   12.1618 C   0  0  0  0  0  0  0  0  0  0  0  0
   44.4560    3.1937   12.5202 C   0  0  0  0  0  0  0  0  0  0  0  0
   42.9308    4.8644   11.6783 C   0  0  0  0  0  0  0  0  0  0  0  0
   43.2742    3.5261   11.8608 C   0  0  0  0  0  0  0  0  0  0  0  0
   47.4966    8.7289   12.9317 O   0  0  0  0  0  0  0  0  0  0  0  0
   47.4934    8.7254   12.9307 O   0  0  0  0  0  0  0  0  0  0  0  0
   47.4934    8.7252   12.9307 O   0  0  0  0  0  0  0  0  0  0  0  0
   48.4396    8.8356   13.1286 H   0  0  0  0  0  0  0  0  0  0  0  0
   47.3934    7.7747   12.7975 H   0  0  0  0  0  0  0  0  0  0  0  0
   50.5465    8.0119   13.2928 H   0  0  0  0  0  0  0  0  0  0  0  0
   48.7989    7.0502   14.7676 H   0  0  0  0  0  0  0  0  0  0  0  0
   49.9232   11.5346   15.2478 H   0  0  0  0  0  0  0  0  0  0  0  0
   46.4780    8.5756   13.8690 H   0  0  0  0  0  0  0  0  0  0  0  0
   45.7955    7.7464   10.9623 H   0  0  0  0  0  0  0  0  0  0  0  0
   44.9805    7.7801   12.5120 H   0  0  0  0  0  0  0  0  0  0  0  0
   53.4294   10.2272   14.3392 H   0  0  0  0  0  0  0  0  0  0  0  0
   48.3080   12.9170   13.9570 H   0  0  0  0  0  0  0  0  0  0  0  0
   47.6384   12.2395   12.4743 H   0  0  0  0  0  0  0  0  0  0  0  0
   47.5339   11.3340   13.9834 H   0  0  0  0  0  0  0  0  0  0  0  0
   51.2801   11.8808   11.8390 H   0  0  0  0  0  0  0  0  0  0  0  0
   50.5531   13.2471   12.7016 H   0  0  0  0  0  0  0  0  0  0  0  0
   49.7556   12.5754   11.2841 H   0  0  0  0  0  0  0  0  0  0  0  0
   43.9895    5.7140   13.5083 H   0  0  0  0  0  0  0  0  0  0  0  0
   45.9097    5.6432    9.6412 H   0  0  0  0  0  0  0  0  0  0  0  0
   42.9362    3.5375   13.0131 H   0  0  0  0  0  0  0  0  0  0  0  0
   44.8408    3.4705    9.1611 H   0  0  0  0  0  0  0  0  0  0  0  0
   43.3515    2.4138   10.8415 H   0  0  0  0  0  0  0  0  0  0  0  0
   46.6063    5.8788   13.9653 H   0  0  0  0  0  0  0  0  0  0  0  0
   49.1860    9.6168   14.4681 H   0  0  0  0  0  0  0  0  0  0  0  0
   46.3573    7.2058   11.3466 H   0  0  0  0  0  0  0  0  0  0  0  0
   47.3385    5.7744   11.6580 H   0  0  0  0  0  0  0  0  0  0  0  0
   48.1781   11.5001   13.3094 H   0  0  0  0  0  0  0  0  0  0  0  0
   49.0444   10.9862   11.8634 H   0  0  0  0  0  0  0  0  0  0  0  0
   48.7123    6.8932   13.2360 H   0  0  0  0  0  0  0  0  0  0  0  0
   48.0028    7.4978   14.7258 H   0  0  0  0  0  0  0  0  0  0  0  0
   46.9847    9.4310   13.5063 H   0  0  0  0  0  0  0  0  0  0  0  0
   47.7493    8.8807   12.0031 H   0  0  0  0  0  0  0  0  0  0  0  0
   51.6171   10.7956   11.9727 H   0  0  0  0  0  0  0  0  0  0  0  0
   49.2903   12.7914   15.0070 H   0  0  0  0  0  0  0  0  0  0  0  0
   43.8447    7.1290   11.9364 H   0  0  0  0  0  0  0  0  0  0  0  0
   46.3146    3.6007   11.7031 H   0  0  0  0  0  0  0  0  0  0  0  0
   53.6328   12.0150   12.7304 H   0  0  0  0  0  0  0  0  0  0  0  0
   41.8270    5.7251   11.6539 H   0  0  0  0  0  0  0  0  0  0  0  0
   44.2910    2.2111   11.4310 H   0  0  0  0  0  0  0  0  0  0  0  0
   51.3119   13.9954   15.7553 H   0  0  0  0  0  0  0  0  0  0  0  0
   53.4850   13.6157   14.6206 H   0  0  0  0  0  0  0  0  0  0  0  0
   42.0457    3.2659   11.4008 H   0  0  0  0  0  0  0  0  0  0  0  0
   48.9856    9.6690   10.5942 H   0  0  0  0  0  0  0  0  0  0  0  0
   49.4568    7.3076   11.2130 H   0  0  0  0  0  0  0  0  0  0  0  0
   51.5256   10.7183   13.6034 H   0  0  0  0  0  0  0  0  0  0  0  0
   48.2659    7.2721   13.8882 H   0  0  0  0  0  0  0  0  0  0  0  0
   45.2485    7.5068   13.6757 H   0  0  0  0  0  0  0  0  0  0  0  0
   46.3537    6.2831   14.2714 H   0  0  0  0  0  0  0  0  0  0  0  0
   52.2432   13.4203   11.6528 H   0  0  0  0  0  0  0  0  0  0  0  0
   49.4688    9.6533   15.1094 H   0  0  0  0  0  0  0  0  0  0  0  0
   48.4728   11.0198   15.6122 H   0  0  0  0  0  0  0  0  0  0  0  0
   50.2288   11.1485   15.6582 H   0  0  0  0  0  0  0  0  0  0  0  0
   49.0456   13.2687   12.7234 H   0  0  0  0  0  0  0  0  0  0  0  0
   48.2310   13.0443   14.2729 H   0  0  0  0  0  0  0  0  0  0  0  0
   49.9701   13.3250   14.2339 H   0  0  0  0  0  0  0  0  0  0  0  0
   46.2140    3.9214   13.5127 H   0  0  0  0  0  0  0  0  0  0  0  0
   43.4935    6.9123   11.9992 H   0  0  0  0  0  0  0  0  0  0  0  0
   44.7269    2.1496   12.6532 H   0  0  0  0  0  0  0  0  0  0  0  0
   42.0150    5.1259   11.1539 H   0  0  0  0  0  0  0  0  0  0  0  0
   42.6230    2.7430   11.4822 H   0  0  0  0  0  0  0  0  0  0  0  0
   48.4392    8.8359   13.1285 H   0  0  0  0  0  0  0  0  0  0  0  0
   47.3941    7.7747   12.7977 H   0  0  0  0  0  0  0  0  0  0  0  0
   48.4345    8.8443   13.1286 H   0  0  0  0  0  0  0  0  0  0  0  0
   47.4020    7.7697   12.7986 H   0  0  0  0  0  0  0  0  0  0  0  0
   48.4342    8.8444   13.1286 H   0  0  0  0  0  0  0  0  0  0  0  0
   47.4021    7.7698   12.7987 H   0  0  0  0  0  0  0  0  0  0  0  0
  3  2  1  0
  4  2  1  0
  5  3  1  0
  6  2  1  0
  3  7  1  0
  8  6  1  0
  5  9  1  0
  6 10  1  0
 11  9  1  0
 12  4  2  0
 13 10  2  0
 14 11  2  0
 15 11  1  0
 16 10  1  0
 17  8  1  0
 18  8  1  0
 19 15  1  0
 20 19  2  0
 21 19  1  0
 22 20  1  0
 23 21  2  0
 24 23  1  0
  7  8  1  0
  4  5  1  0
 24 22  2  0
 26 32  1  0
 27 30  1  0
 28 29  1  0
 29 25  1  0
 30 26  1  0
 31 25  1  0
 32 31  1  0
 33 27  2  0
 34 27  1  0
 35 28  2  0
 36 28  1  0
 37 33  1  0
 38 35  1  0
 39 36  2  0
 40 34  2  0
 41 37  2  0
 42 39  1  0
 42 38  2  0
 40 41  1  0
 44 43  1  0
 45 43  1  0
 46 44  1  0
 47 43  1  0
 44 48  1  0
 49 47  1  0
 46 50  1  0
 47 51  1  0
 52 50  1  0
 53 45  2  0
 54 51  2  0
 55 52  2  0
 56 52  1  0
 57 51  1  0
 58 49  1  0
 59 49  1  0
 60 56  1  0
 61 60  2  0
 62 60  1  0
 63 61  1  0
 64 62  2  0
 65 64  1  0
 48 49  1  0
 45 46  1  0
 65 63  2  0
  1 69  1  0
  1 70  1  0
  3 71  1  1
  5 72  1  6
  6 73  1  6
  9 74  1  0
 15 75  1  0
 15 76  1  0
 16 77  1  0
 17 78  1  0
 17 79  1  0
 17 80  1  0
 18 81  1  0
 18 82  1  0
 18 83  1  0
 20 84  1  0
 21 85  1  0
 22 86  1  0
 23 87  1  0
 24 88  1  0
 25 89  1  0
 26 90  1  0
 29 91  1  0
 29 92  1  0
 30 93  1  0
 30 94  1  0
 31 95  1  0
 31 96  1  0
 32 97  1  0
 32 98  1  0
 33 99  1  0
 34100  1  0
 35101  1  0
 36102  1  0
 37103  1  0
 38104  1  0
 39105  1  0
 40106  1  0
 41107  1  0
 42108  1  0
 44109  1  1
 46110  1  1
 47111  1  6
 50112  1  0
 56113  1  0
 56114  1  0
 57115  1  0
 58116  1  0
 58117  1  0
 58118  1  0
 59119  1  0
 59120  1  0
 59121  1  0
 61122  1  0
 62123  1  0
 63124  1  0
 64125  1  0
 65126  1  0
 66127  1  0
 66128  1  0
 67129  1  0
 67130  1  0
 68131  1  0
 68132  1  0
M  END
> <Uni-Dock RESULT> 
ENERGY=   -8.678  LOWER_BOUND=    0.000  UPPER_BOUND=    0.000
INTER + INTRA:          -8.678
INTER:                  -8.678
INTRA:                   0.000
UNBOUND:                 0.000

$$$$

     RDKit          3D

132133  0  0  0  0  0  0  0  0999 V2000
   48.0984    8.6726   12.0811 O   0  0  0  0  0  0  0  0  0  0  0  0
   48.7637   11.3754   13.3888 N   0  0  0  0  0  0  0  0  0  0  0  0
   48.6159    9.9885   13.8569 C   0  0  1  0  0  0  0  0  0  0  0  0
   47.7306   11.2867   12.5022 C   0  0  0  0  0  0  0  0  0  0  0  0
   47.2464    9.9552   13.1222 C   0  0  1  0  0  0  0  0  0  0  0  0
   50.0969   11.8123   12.9878 C   0  0  2  0  0  0  0  0  0  0  0  0
   50.0145    9.0742   13.0859 S   0  0  0  0  0  0  0  0  0  0  0  0
   50.8142   10.5849   12.3668 C   0  0  0  0  0  0  0  0  0  0  0  0
   47.0021    8.8387   12.1691 N   0  0  0  0  0  0  0  0  0  0  0  0
   50.8390   12.4383   14.1739 C   0  0  0  0  0  0  0  0  0  0  0  0
   46.8353    7.5489   12.6307 C   0  0  0  0  0  0  0  0  0  0  0  0
   47.4457   11.9625   11.5408 O   0  0  0  0  0  0  0  0  0  0  0  0
   51.9127   13.0212   14.1130 O   0  0  0  0  0  0  0  0  0  0  0  0
   46.8101    7.2922   13.8315 O   0  0  0  0  0  0  0  0  0  0  0  0
   46.7402    6.5007   11.5360 C   0  0  0  0  0  0  0  0  0  0  0  0
   50.2344   12.2933   15.3713 O   0  0  0  0  0  0  0  0  0  0  0  0
   50.6031   10.5394   10.8430 C   0  0  0  0  0  0  0  0  0  0  0  0
   52.3201   10.4841   12.6444 C   0  0  0  0  0  0  0  0  0  0  0  0
   45.6274    5.5066   11.7502 C   0  0  0  0  0  0  0  0  0  0  0  0
   44.3441    5.7499   11.2406 C   0  0  0  0  0  0  0  0  0  0  0  0
   45.8570    4.3323   12.4816 C   0  0  0  0  0  0  0  0  0  0  0  0
   43.3164    4.8261   11.4422 C   0  0  0  0  0  0  0  0  0  0  0  0
   44.8286    3.4101   12.6821 C   0  0  0  0  0  0  0  0  0  0  0  0
   43.5599    3.6564   12.1605 C   0  0  0  0  0  0  0  0  0  0  0  0
   45.9863    7.9719   12.3360 N   0  0  0  0  0  0  0  0  0  0  0  0
   49.1098   10.0581   12.8649 N   0  0  0  0  0  0  0  0  0  0  0  0
   51.2157   11.2973   12.7474 C   0  0  0  0  0  0  0  0  0  0  0  0
   45.3091    5.6342   12.0998 C   0  0  0  0  0  0  0  0  0  0  0  0
   46.3512    6.5861   12.6364 C   0  0  0  0  0  0  0  0  0  0  0  0
   50.4063   10.1502   12.1936 C   0  0  0  0  0  0  0  0  0  0  0  0
   46.9046    8.9352   12.9545 C   0  0  0  0  0  0  0  0  0  0  0  0
   48.2798    9.0097   12.2605 C   0  0  0  0  0  0  0  0  0  0  0  0
   51.8629   11.1768   13.9861 C   0  0  0  0  0  0  0  0  0  0  0  0
   51.3143   12.5083   12.0466 C   0  0  0  0  0  0  0  0  0  0  0  0
   45.2552    5.3443   10.7285 C   0  0  0  0  0  0  0  0  0  0  0  0
   44.3636    5.0495   12.9549 C   0  0  0  0  0  0  0  0  0  0  0  0
   52.6063   12.2386   14.5047 C   0  0  0  0  0  0  0  0  0  0  0  0
   44.2879    4.4734   10.2251 C   0  0  0  0  0  0  0  0  0  0  0  0
   43.3959    4.1788   12.4495 C   0  0  0  0  0  0  0  0  0  0  0  0
   52.0572   13.5698   12.5674 C   0  0  0  0  0  0  0  0  0  0  0  0
   52.7052   13.4338   13.7941 C   0  0  0  0  0  0  0  0  0  0  0  0
   43.3593    3.8905   11.0856 C   0  0  0  0  0  0  0  0  0  0  0  0
   50.3430    9.5444   14.1405 N   0  0  0  0  0  0  0  0  0  0  0  0
   49.9323    8.4982   13.1861 C   0  0  1  0  0  0  0  0  0  0  0  0
   49.1093    9.6294   14.7192 C   0  0  0  0  0  0  0  0  0  0  0  0
   48.6450    8.3187   14.0396 C   0  0  1  0  0  0  0  0  0  0  0  0
   51.0156   10.7145   13.5920 C   0  0  2  0  0  0  0  0  0  0  0  0
   49.7586    9.3679   11.5686 S   0  0  0  0  0  0  0  0  0  0  0  0
   50.4318   10.9804   12.1853 C   0  0  0  0  0  0  0  0  0  0  0  0
   47.3351    8.3772   13.3354 N   0  0  0  0  0  0  0  0  0  0  0  0
   52.5133   10.4198   13.5904 C   0  0  0  0  0  0  0  0  0  0  0  0
   46.9405    7.3500   12.5014 C   0  0  0  0  0  0  0  0  0  0  0  0
   48.6017   10.5016   15.3849 O   0  0  0  0  0  0  0  0  0  0  0  0
   53.0576    9.3388   13.4364 O   0  0  0  0  0  0  0  0  0  0  0  0
   47.6219    6.3389   12.3591 O   0  0  0  0  0  0  0  0  0  0  0  0
   45.6415    7.6151   11.7581 C   0  0  0  0  0  0  0  0  0  0  0  0
   53.2631   11.5355   13.7411 O   0  0  0  0  0  0  0  0  0  0  0  0
   49.2577   11.9718   12.2535 C   0  0  0  0  0  0  0  0  0  0  0  0
   51.4440   11.5002   11.1559 C   0  0  0  0  0  0  0  0  0  0  0  0
   44.7332    6.4137   11.6727 C   0  0  0  0  0  0  0  0  0  0  0  0
   43.7563    6.1854   12.6522 C   0  0  0  0  0  0  0  0  0  0  0  0
   44.8647    5.4984   10.6189 C   0  0  0  0  0  0  0  0  0  0  0  0
   42.9142    5.0749   12.5662 C   0  0  0  0  0  0  0  0  0  0  0  0
   44.0224    4.3890   10.5345 C   0  0  0  0  0  0  0  0  0  0  0  0
   43.0455    4.1797   11.5062 C   0  0  0  0  0  0  0  0  0  0  0  0
   48.0982    8.6725   12.0811 O   0  0  0  0  0  0  0  0  0  0  0  0
   48.0948    8.6690   12.0804 O   0  0  0  0  0  0  0  0  0  0  0  0
   48.0947    8.6690   12.0806 O   0  0  0  0  0  0  0  0  0  0  0  0
   48.4469    9.2479   12.7787 H   0  0  0  0  0  0  0  0  0  0  0  0
   47.4024    8.1643   12.5246 H   0  0  0  0  0  0  0  0  0  0  0  0
   48.5616    9.9069   14.9460 H   0  0  0  0  0  0  0  0  0  0  0  0
   46.3809   10.1041   13.7799 H   0  0  0  0  0  0  0  0  0  0  0  0
   49.9798   12.6165   12.2503 H   0  0  0  0  0  0  0  0  0  0  0  0
   47.0964    9.0041   11.1724 H   0  0  0  0  0  0  0  0  0  0  0  0
   47.7065    5.9827   11.4902 H   0  0  0  0  0  0  0  0  0  0  0  0
   46.6088    6.9789   10.5577 H   0  0  0  0  0  0  0  0  0  0  0  0
   50.8321   12.7425   16.0034 H   0  0  0  0  0  0  0  0  0  0  0  0
   51.0667   11.4105   10.3660 H   0  0  0  0  0  0  0  0  0  0  0  0
   51.0585    9.6484   10.3964 H   0  0  0  0  0  0  0  0  0  0  0  0
   49.5468   10.5403   10.5622 H   0  0  0  0  0  0  0  0  0  0  0  0
   52.5429   10.4103   13.7146 H   0  0  0  0  0  0  0  0  0  0  0  0
   52.8487   11.3584   12.2494 H   0  0  0  0  0  0  0  0  0  0  0  0
   52.7609    9.6032   12.1604 H   0  0  0  0  0  0  0  0  0  0  0  0
   44.1338    6.6599   10.6831 H   0  0  0  0  0  0  0  0  0  0  0  0
   46.8384    4.1343   12.9085 H   0  0  0  0  0  0  0  0  0  0  0  0
   42.3240    5.0208   11.0431 H   0  0  0  0  0  0  0  0  0  0  0  0
   45.0177    2.5030   13.2512 H   0  0  0  0  0  0  0  0  0  0  0  0
   42.7593    2.9391   12.3193 H   0  0  0  0  0  0  0  0  0  0  0  0
   45.0476    8.1328   12.7028 H   0  0  0  0  0  0  0  0  0  0  0  0
   48.6382   10.9583   12.7788 H   0  0  0  0  0  0  0  0  0  0  0  0
   47.3166    6.3255   12.1873 H   0  0  0  0  0  0  0  0  0  0  0  0
   46.4521    6.4405   13.7197 H   0  0  0  0  0  0  0  0  0  0  0  0
   50.2751   10.2879   11.1125 H   0  0  0  0  0  0  0  0  0  0  0  0
   50.9742    9.2205   12.3279 H   0  0  0  0  0  0  0  0  0  0  0  0
   47.0221    8.7232   14.0252 H   0  0  0  0  0  0  0  0  0  0  0  0
   46.4307    9.9227   12.8852 H   0  0  0  0  0  0  0  0  0  0  0  0
   48.1330    9.2159   11.1931 H   0  0  0  0  0  0  0  0  0  0  0  0
   48.7943    8.0469   12.3520 H   0  0  0  0  0  0  0  0  0  0  0  0
   51.7811   10.2516   14.5534 H   0  0  0  0  0  0  0  0  0  0  0  0
   50.8116   12.6327   11.0901 H   0  0  0  0  0  0  0  0  0  0  0  0
   45.9674    5.8067   10.0477 H   0  0  0  0  0  0  0  0  0  0  0  0
   44.3758    5.2684   14.0202 H   0  0  0  0  0  0  0  0  0  0  0  0
   53.1047   12.1336   15.4646 H   0  0  0  0  0  0  0  0  0  0  0  0
   44.2564    4.2551    9.1608 H   0  0  0  0  0  0  0  0  0  0  0  0
   42.6678    3.7285   13.1192 H   0  0  0  0  0  0  0  0  0  0  0  0
   52.1307   14.5035   12.0159 H   0  0  0  0  0  0  0  0  0  0  0  0
   53.2825   14.2608   14.1995 H   0  0  0  0  0  0  0  0  0  0  0  0
   42.6048    3.2138   10.6931 H   0  0  0  0  0  0  0  0  0  0  0  0
   50.6086    7.6400   13.1751 H   0  0  0  0  0  0  0  0  0  0  0  0
   48.6781    7.4677   14.7322 H   0  0  0  0  0  0  0  0  0  0  0  0
   50.8407   11.5587   14.2697 H   0  0  0  0  0  0  0  0  0  0  0  0
   46.7967    9.2375   13.3522 H   0  0  0  0  0  0  0  0  0  0  0  0
   45.9026    7.9615   10.7489 H   0  0  0  0  0  0  0  0  0  0  0  0
   45.0970    8.4416   12.2303 H   0  0  0  0  0  0  0  0  0  0  0  0
   54.1867   11.2040   13.7232 H   0  0  0  0  0  0  0  0  0  0  0  0
   48.4442   11.6223   12.8967 H   0  0  0  0  0  0  0  0  0  0  0  0
   48.8312   12.1623   11.2625 H   0  0  0  0  0  0  0  0  0  0  0  0
   49.5935   12.9382   12.6479 H   0  0  0  0  0  0  0  0  0  0  0  0
   52.2628   10.7931   10.9803 H   0  0  0  0  0  0  0  0  0  0  0  0
   50.9693   11.6934   10.1858 H   0  0  0  0  0  0  0  0  0  0  0  0
   51.8845   12.4476   11.4891 H   0  0  0  0  0  0  0  0  0  0  0  0
   43.6413    6.8705   13.4894 H   0  0  0  0  0  0  0  0  0  0  0  0
   45.6325    5.6411    9.8615 H   0  0  0  0  0  0  0  0  0  0  0  0
   42.1580    4.9049   13.3282 H   0  0  0  0  0  0  0  0  0  0  0  0
   44.1341    3.6856    9.7132 H   0  0  0  0  0  0  0  0  0  0  0  0
   42.3916    3.3145   11.4399 H   0  0  0  0  0  0  0  0  0  0  0  0
   48.4469    9.2478   12.7782 H   0  0  0  0  0  0  0  0  0  0  0  0
   47.4026    8.1647   12.5251 H   0  0  0  0  0  0  0  0  0  0  0  0
   48.4514    9.2492   12.7698 H   0  0  0  0  0  0  0  0  0  0  0  0
   47.4014    8.1667   12.5342 H   0  0  0  0  0  0  0  0  0  0  0  0
   48.4514    9.2491   12.7695 H   0  0  0  0  0  0  0  0  0  0  0  0
   47.4015    8.1669   12.5343 H   0  0  0  0  0  0  0  0  0  0  0  0
  3  2  1  0
  4  2  1  0
  5  3  1  0
  6  2  1  0
  3  7  1  0
  8  6  1  0
  5  9  1  0
  6 10  1  0
 11  9  1  0
 12  4  2  0
 13 10  2  0
 14 11  2  0
 15 11  1  0
 16 10  1  0
 17  8  1  0
 18  8  1  0
 19 15  1  0
 20 19  2  0
 21 19  1  0
 22 20  1  0
 23 21  2  0
 24 23  1  0
  7  8  1  0
  4  5  1  0
 24 22  2  0
 26 32  1  0
 27 30  1  0
 28 29  1  0
 29 25  1  0
 30 26  1  0
 31 25  1  0
 32 31  1  0
 33 27  2  0
 34 27  1  0
 35 28  2  0
 36 28  1  0
 37 33  1  0
 38 35  1  0
 39 36  2  0
 40 34  2  0
 41 37  2  0
 42 39  1  0
 42 38  2  0
 40 41  1  0
 44 43  1  0
 45 43  1  0
 46 44  1  0
 47 43  1  0
 44 48  1  0
 49 47  1  0
 46 50  1  0
 47 51  1  0
 52 50  1  0
 53 45  2  0
 54 51  2  0
 55 52  2  0
 56 52  1  0
 57 51  1  0
 58 49  1  0
 59 49  1  0
 60 56  1  0
 61 60  2  0
 62 60  1  0
 63 61  1  0
 64 62  2  0
 65 64  1  0
 48 49  1  0
 45 46  1  0
 65 63  2  0
  1 69  1  0
  1 70  1  0
  3 71  1  1
  5 72  1  6
  6 73  1  6
  9 74  1  0
 15 75  1  0
 15 76  1  0
 16 77  1  0
 17 78  1  0
 17 79  1  0
 17 80  1  0
 18 81  1  0
 18 82  1  0
 18 83  1  0
 20 84  1  0
 21 85  1  0
 22 86  1  0
 23 87  1  0
 24 88  1  0
 25 89  1  0
 26 90  1  0
 29 91  1  0
 29 92  1  0
 30 93  1  0
 30 94  1  0
 31 95  1  0
 31 96  1  0
 32 97  1  0
 32 98  1  0
 33 99  1  0
 34100  1  0
 35101  1  0
 36102  1  0
 37103  1  0
 38104  1  0
 39105  1  0
 40106  1  0
 41107  1  0
 42108  1  0
 44109  1  1
 46110  1  1
 47111  1  6
 50112  1  0
 56113  1  0
 56114  1  0
 57115  1  0
 58116  1  0
 58117  1  0
 58118  1  0
 59119  1  0
 59120  1  0
 59121  1  0
 61122  1  0
 62123  1  0
 63124  1  0
 64125  1  0
 65126  1  0
 66127  1  0
 66128  1  0
 67129  1  0
 67130  1  0
 68131  1  0
 68132  1  0
M  END
> <Uni-Dock RESULT> 
ENERGY=   -8.475  LOWER_BOUND=    1.080  UPPER_BOUND=    2.123
INTER + INTRA:          -8.475
INTER:                  -8.475
INTRA:                   0.000
UNBOUND:                 0.000

$$$$

     RDKit          3D

132133  0  0  0  0  0  0  0  0999 V2000
   43.6378   10.8009   11.9728 O   0  0  0  0  0  0  0  0  0  0  0  0
   42.4439   12.9165   10.0868 N   0  0  0  0  0  0  0  0  0  0  0  0
   42.8847   11.5190    9.9553 C   0  0  1  0  0  0  0  0  0  0  0  0
   43.4590   13.2568   10.9323 C   0  0  0  0  0  0  0  0  0  0  0  0
   44.2196   11.9450   10.6284 C   0  0  1  0  0  0  0  0  0  0  0  0
   41.0429   13.1521   10.4197 C   0  0  2  0  0  0  0  0  0  0  0  0
   41.6958   10.5473   10.9696 S   0  0  0  0  0  0  0  0  0  0  0  0
   40.5878   11.9879   11.3384 C   0  0  0  0  0  0  0  0  0  0  0  0
   44.6766   11.1633   11.8095 N   0  0  0  0  0  0  0  0  0  0  0  0
   40.2050   13.3101    9.1461 C   0  0  0  0  0  0  0  0  0  0  0  0
   45.1157    9.8635   11.6607 C   0  0  0  0  0  0  0  0  0  0  0  0
   43.5820   14.1864   11.6957 O   0  0  0  0  0  0  0  0  0  0  0  0
   39.0326   13.6566    9.1050 O   0  0  0  0  0  0  0  0  0  0  0  0
   45.2122    9.3384   10.5546 O   0  0  0  0  0  0  0  0  0  0  0  0
   45.4104    9.1499   12.9683 C   0  0  0  0  0  0  0  0  0  0  0  0
   40.8448   13.0111    7.9964 O   0  0  0  0  0  0  0  0  0  0  0  0
   40.7803   12.3521   12.8213 C   0  0  0  0  0  0  0  0  0  0  0  0
   39.1404   11.5157   11.1458 C   0  0  0  0  0  0  0  0  0  0  0  0
   46.7091    8.3846   12.9564 C   0  0  0  0  0  0  0  0  0  0  0  0
   47.9056    9.0015   13.3484 C   0  0  0  0  0  0  0  0  0  0  0  0
   46.7406    7.0483   12.5323 C   0  0  0  0  0  0  0  0  0  0  0  0
   49.1062    8.2885   13.3352 C   0  0  0  0  0  0  0  0  0  0  0  0
   47.9416    6.3371   12.5197 C   0  0  0  0  0  0  0  0  0  0  0  0
   49.1229    6.9568   12.9231 C   0  0  0  0  0  0  0  0  0  0  0  0
   45.8533   10.5102   11.8168 N   0  0  0  0  0  0  0  0  0  0  0  0
   42.3720   11.7201   10.9194 N   0  0  0  0  0  0  0  0  0  0  0  0
   40.0524   12.4903   10.8144 C   0  0  0  0  0  0  0  0  0  0  0  0
   46.9991    8.4877   12.5755 C   0  0  0  0  0  0  0  0  0  0  0  0
   45.7898    9.0482   11.8659 C   0  0  0  0  0  0  0  0  0  0  0  0
   41.0747   11.7007   11.5951 C   0  0  0  0  0  0  0  0  0  0  0  0
   44.7639   11.0875   11.0205 C   0  0  0  0  0  0  0  0  0  0  0  0
   43.3929   11.0406   11.7252 C   0  0  0  0  0  0  0  0  0  0  0  0
   39.4637   11.9468    9.6630 C   0  0  0  0  0  0  0  0  0  0  0  0
   39.6928   13.7866   11.2116 C   0  0  0  0  0  0  0  0  0  0  0  0
   47.0913    8.5512   13.9738 C   0  0  0  0  0  0  0  0  0  0  0  0
   48.0587    7.9234   11.8504 C   0  0  0  0  0  0  0  0  0  0  0  0
   38.5234   12.6774    8.9343 C   0  0  0  0  0  0  0  0  0  0  0  0
   48.2109    8.0442   14.6346 C   0  0  0  0  0  0  0  0  0  0  0  0
   49.1788    7.4173   12.5131 C   0  0  0  0  0  0  0  0  0  0  0  0
   38.7531   14.5165   10.4809 C   0  0  0  0  0  0  0  0  0  0  0  0
   38.1667   13.9609    9.3448 C   0  0  0  0  0  0  0  0  0  0  0  0
   49.2538    7.4769   13.9043 C   0  0  0  0  0  0  0  0  0  0  0  0
   41.2926   10.6740    9.8459 N   0  0  0  0  0  0  0  0  0  0  0  0
   41.8978    9.9938   11.0057 C   0  0  1  0  0  0  0  0  0  0  0  0
   42.4903   10.8707    9.2205 C   0  0  0  0  0  0  0  0  0  0  0  0
   43.2072    9.8848   10.1742 C   0  0  1  0  0  0  0  0  0  0  0  0
   40.3826   11.7768   10.1253 C   0  0  2  0  0  0  0  0  0  0  0  0
   41.8614   11.2410   12.3643 S   0  0  0  0  0  0  0  0  0  0  0  0
   40.8766   12.4853   11.4075 C   0  0  0  0  0  0  0  0  0  0  0  0
   44.4651   10.3783   10.7980 N   0  0  0  0  0  0  0  0  0  0  0  0
   38.9794   11.1890   10.2492 C   0  0  0  0  0  0  0  0  0  0  0  0
   45.0523    9.6840   11.8370 C   0  0  0  0  0  0  0  0  0  0  0  0
   42.8151   11.6439    8.3498 O   0  0  0  0  0  0  0  0  0  0  0  0
   38.6700   10.0878   10.6738 O   0  0  0  0  0  0  0  0  0  0  0  0
   44.5945    8.6180   12.2384 O   0  0  0  0  0  0  0  0  0  0  0  0
   46.2559   10.3807   12.4502 C   0  0  0  0  0  0  0  0  0  0  0  0
   38.0159   12.0573    9.8653 O   0  0  0  0  0  0  0  0  0  0  0  0
   41.8191   13.6517   11.0653 C   0  0  0  0  0  0  0  0  0  0  0  0
   39.7625   13.0159   12.3197 C   0  0  0  0  0  0  0  0  0  0  0  0
   47.3932    9.4481   12.7855 C   0  0  0  0  0  0  0  0  0  0  0  0
   48.4112    9.1988   11.8541 C   0  0  0  0  0  0  0  0  0  0  0  0
   47.4392    8.8041   14.0299 C   0  0  0  0  0  0  0  0  0  0  0  0
   49.4649    8.3390   12.1708 C   0  0  0  0  0  0  0  0  0  0  0  0
   48.4929    7.9449   14.3448 C   0  0  0  0  0  0  0  0  0  0  0  0
   49.5068    7.7156   13.4164 C   0  0  0  0  0  0  0  0  0  0  0  0
   43.6380   10.8008   11.9729 O   0  0  0  0  0  0  0  0  0  0  0  0
   43.6420   10.7984   11.9742 O   0  0  0  0  0  0  0  0  0  0  0  0
   43.6422   10.7983   11.9740 O   0  0  0  0  0  0  0  0  0  0  0  0
   43.1878   11.1085   11.1715 H   0  0  0  0  0  0  0  0  0  0  0  0
   44.4312   10.3561   11.6380 H   0  0  0  0  0  0  0  0  0  0  0  0
   42.9715   11.1927    8.9153 H   0  0  0  0  0  0  0  0  0  0  0  0
   45.0451   12.1075    9.9241 H   0  0  0  0  0  0  0  0  0  0  0  0
   40.9784   14.1155   10.9413 H   0  0  0  0  0  0  0  0  0  0  0  0
   44.5347   11.5389   12.7414 H   0  0  0  0  0  0  0  0  0  0  0  0
   44.5727    8.4701   13.1694 H   0  0  0  0  0  0  0  0  0  0  0  0
   45.4242    9.8643   13.8004 H   0  0  0  0  0  0  0  0  0  0  0  0
   40.1763   13.1633    7.2974 H   0  0  0  0  0  0  0  0  0  0  0  0
   40.1381   13.1971   13.0946 H   0  0  0  0  0  0  0  0  0  0  0  0
   40.5138   11.5194   13.4818 H   0  0  0  0  0  0  0  0  0  0  0  0
   41.8088   12.6376   13.0565 H   0  0  0  0  0  0  0  0  0  0  0  0
   38.9544   11.1442   10.1319 H   0  0  0  0  0  0  0  0  0  0  0  0
   38.4352   12.3308   11.3409 H   0  0  0  0  0  0  0  0  0  0  0  0
   38.8855   10.7045   11.8397 H   0  0  0  0  0  0  0  0  0  0  0  0
   47.9129   10.0416   13.6669 H   0  0  0  0  0  0  0  0  0  0  0  0
   45.8287    6.5562   12.1993 H   0  0  0  0  0  0  0  0  0  0  0  0
   50.0300    8.7729   13.6416 H   0  0  0  0  0  0  0  0  0  0  0  0
   47.9545    5.3014   12.1884 H   0  0  0  0  0  0  0  0  0  0  0  0
   50.0577    6.4031   12.9106 H   0  0  0  0  0  0  0  0  0  0  0  0
   46.7433   10.7688   11.3895 H   0  0  0  0  0  0  0  0  0  0  0  0
   42.6442   12.6921   10.7734 H   0  0  0  0  0  0  0  0  0  0  0  0
   44.8932    8.7093   12.3976 H   0  0  0  0  0  0  0  0  0  0  0  0
   45.7382    8.6306   10.8522 H   0  0  0  0  0  0  0  0  0  0  0  0
   41.1576   12.1166   12.6076 H   0  0  0  0  0  0  0  0  0  0  0  0
   40.7151   10.6694   11.7047 H   0  0  0  0  0  0  0  0  0  0  0  0
   44.7097   10.6064   10.0353 H   0  0  0  0  0  0  0  0  0  0  0  0
   45.0205   12.1388   10.8375 H   0  0  0  0  0  0  0  0  0  0  0  0
   43.4771   11.5214   12.7077 H   0  0  0  0  0  0  0  0  0  0  0  0
   43.0919    9.9991   11.8823 H   0  0  0  0  0  0  0  0  0  0  0  0
   39.7452   10.9502    9.3282 H   0  0  0  0  0  0  0  0  0  0  0  0
   40.1439   14.2365   12.0932 H   0  0  0  0  0  0  0  0  0  0  0  0
   46.2879    9.0059   14.5503 H   0  0  0  0  0  0  0  0  0  0  0  0
   48.0176    7.8743   10.7647 H   0  0  0  0  0  0  0  0  0  0  0  0
   38.0726   12.2459    8.0447 H   0  0  0  0  0  0  0  0  0  0  0  0
   48.2709    8.0977   15.7185 H   0  0  0  0  0  0  0  0  0  0  0  0
   49.9949    6.9800   11.9438 H   0  0  0  0  0  0  0  0  0  0  0  0
   38.4782   15.5190   10.7981 H   0  0  0  0  0  0  0  0  0  0  0  0
   37.4359   14.5300    8.7758 H   0  0  0  0  0  0  0  0  0  0  0  0
   50.1266    7.0839   14.4191 H   0  0  0  0  0  0  0  0  0  0  0  0
   41.4151    9.0426   11.2433 H   0  0  0  0  0  0  0  0  0  0  0  0
   43.3628    8.9050    9.7043 H   0  0  0  0  0  0  0  0  0  0  0  0
   40.3881   12.4521    9.2612 H   0  0  0  0  0  0  0  0  0  0  0  0
   44.8125   11.3016   10.5591 H   0  0  0  0  0  0  0  0  0  0  0  0
   45.9129   10.8966   13.3573 H   0  0  0  0  0  0  0  0  0  0  0  0
   46.6234   11.1644   11.7770 H   0  0  0  0  0  0  0  0  0  0  0  0
   37.1815   11.5567    9.9936 H   0  0  0  0  0  0  0  0  0  0  0  0
   42.6974   13.3340   10.4949 H   0  0  0  0  0  0  0  0  0  0  0  0
   42.1812   14.1570   11.9674 H   0  0  0  0  0  0  0  0  0  0  0  0
   41.2954   14.4054   10.4655 H   0  0  0  0  0  0  0  0  0  0  0  0
   39.1065   12.2180   12.6864 H   0  0  0  0  0  0  0  0  0  0  0  0
   40.1715   13.5286   13.1991 H   0  0  0  0  0  0  0  0  0  0  0  0
   39.1393   13.7446   11.7874 H   0  0  0  0  0  0  0  0  0  0  0  0
   48.3937    9.6727   10.8751 H   0  0  0  0  0  0  0  0  0  0  0  0
   46.6470    8.9622   14.7586 H   0  0  0  0  0  0  0  0  0  0  0  0
   50.2515    8.1515   11.4445 H   0  0  0  0  0  0  0  0  0  0  0  0
   48.5177    7.4506   15.3127 H   0  0  0  0  0  0  0  0  0  0  0  0
   50.3256    7.0451   13.6626 H   0  0  0  0  0  0  0  0  0  0  0  0
   43.1878   11.1085   11.1721 H   0  0  0  0  0  0  0  0  0  0  0  0
   44.4309   10.3563   11.6374 H   0  0  0  0  0  0  0  0  0  0  0  0
   43.1829   11.1109   11.1800 H   0  0  0  0  0  0  0  0  0  0  0  0
   44.4318   10.3562   11.6280 H   0  0  0  0  0  0  0  0  0  0  0  0
   43.1830   11.1108   11.1804 H   0  0  0  0  0  0  0  0  0  0  0  0
   44.4317   10.3563   11.6279 H   0  0  0  0  0  0  0  0  0  0  0  0
  3  2  1  0
  4  2  1  0
  5  3  1  0
  6  2  1  0
  3  7  1  0
  8  6  1  0
  5  9  1  0
  6 10  1  0
 11  9  1  0
 12  4  2  0
 13 10  2  0
 14 11  2  0
 15 11  1  0
 16 10  1  0
 17  8  1  0
 18  8  1  0
 19 15  1  0
 20 19  2  0
 21 19  1  0
 22 20  1  0
 23 21  2  0
 24 23  1  0
  7  8  1  0
  4  5  1  0
 24 22  2  0
 26 32  1  0
 27 30  1  0
 28 29  1  0
 29 25  1  0
 30 26  1  0
 31 25  1  0
 32 31  1  0
 33 27  2  0
 34 27  1  0
 35 28  2  0
 36 28  1  0
 37 33  1  0
 38 35  1  0
 39 36  2  0
 40 34  2  0
 41 37  2  0
 42 39  1  0
 42 38  2  0
 40 41  1  0
 44 43  1  0
 45 43  1  0
 46 44  1  0
 47 43  1  0
 44 48  1  0
 49 47  1  0
 46 50  1  0
 47 51  1  0
 52 50  1  0
 53 45  2  0
 54 51  2  0
 55 52  2  0
 56 52  1  0
 57 51  1  0
 58 49  1  0
 59 49  1  0
 60 56  1  0
 61 60  2  0
 62 60  1  0
 63 61  1  0
 64 62  2  0
 65 64  1  0
 48 49  1  0
 45 46  1  0
 65 63  2  0
  1 69  1  0
  1 70  1  0
  3 71  1  1
  5 72  1  6
  6 73  1  6
  9 74  1  0
 15 75  1  0
 15 76  1  0
 16 77  1  0
 17 78  1  0
 17 79  1  0
 17 80  1  0
 18 81  1  0
 18 82  1  0
 18 83  1  0
 20 84  1  0
 21 85  1  0
 22 86  1  0
 23 87  1  0
 24 88  1  0
 25 89  1  0
 26 90  1  0
 29 91  1  0
 29 92  1  0
 30 93  1  0
 30 94  1  0
 31 95  1  0
 31 96  1  0
 32 97  1  0
 32 98  1  0
 33 99  1  0
 34100  1  0
 35101  1  0
 36102  1  0
 37103  1  0
 38104  1  0
 39105  1  0
 40106  1  0
 41107  1  0
 42108  1  0
 44109  1  1
 46110  1  1
 47111  1  6
 50112  1  0
 56113  1  0
 56114  1  0
 57115  1  0
 58116  1  0
 58117  1  0
 58118  1  0
 59119  1  0
 59120  1  0
 59121  1  0
 61122  1  0
 62123  1  0
 63124  1  0
 64125  1  0
 65126  1  0
 66127  1  0
 66128  1  0
 67129  1  0
 67130  1  0
 68131  1  0
 68132  1  0
M  END
> <Uni-Dock RESULT> 
ENERGY=   -8.249  LOWER_BOUND=    5.587  UPPER_BOUND=    8.261
INTER + INTRA:          -8.249
INTER:                  -8.249
INTRA:                   0.000
UNBOUND:                 0.000

$$$$

     RDKit          3D

132133  0  0  0  0  0  0  0  0999 V2000
   42.7822   12.9552   10.6437 O   0  0  0  0  0  0  0  0  0  0  0  0
   43.1874   12.0752    7.7248 N   0  0  0  0  0  0  0  0  0  0  0  0
   42.4254   13.1316    8.4088 C   0  0  1  0  0  0  0  0  0  0  0  0
   42.9380   11.1406    8.6869 C   0  0  0  0  0  0  0  0  0  0  0  0
   41.8468   12.0248    9.3344 C   0  0  1  0  0  0  0  0  0  0  0  0
   44.5413   12.3977    7.2868 C   0  0  2  0  0  0  0  0  0  0  0  0
   43.6994   14.2524    9.1211 S   0  0  0  0  0  0  0  0  0  0  0  0
   45.1334   13.3911    8.3208 C   0  0  0  0  0  0  0  0  0  0  0  0
   41.9553   12.2289   10.8045 N   0  0  0  0  0  0  0  0  0  0  0  0
   44.5318   12.9229    5.8469 C   0  0  0  0  0  0  0  0  0  0  0  0
   41.2087   13.2052   11.4321 C   0  0  0  0  0  0  0  0  0  0  0  0
   43.4929   10.0984    8.9479 O   0  0  0  0  0  0  0  0  0  0  0  0
   45.5224   13.1382    5.1623 O   0  0  0  0  0  0  0  0  0  0  0  0
   40.3862   13.8812   10.8195 O   0  0  0  0  0  0  0  0  0  0  0  0
   41.5330   13.3905   12.9040 C   0  0  0  0  0  0  0  0  0  0  0  0
   43.3092   13.1773    5.3361 O   0  0  0  0  0  0  0  0  0  0  0  0
   45.8983   12.6414    9.4260 C   0  0  0  0  0  0  0  0  0  0  0  0
   46.0586   14.4736    7.7486 C   0  0  0  0  0  0  0  0  0  0  0  0
   40.3111   13.4975   13.7803 C   0  0  0  0  0  0  0  0  0  0  0  0
   39.7315   12.3507   14.3412 C   0  0  0  0  0  0  0  0  0  0  0  0
   39.7248   14.7468   14.0296 C   0  0  0  0  0  0  0  0  0  0  0  0
   38.5992   12.4550   15.1519 C   0  0  0  0  0  0  0  0  0  0  0  0
   38.5931   14.8492   14.8403 C   0  0  0  0  0  0  0  0  0  0  0  0
   38.0325   13.7038   15.4025 C   0  0  0  0  0  0  0  0  0  0  0  0
   40.8681   12.2866   11.5956 N   0  0  0  0  0  0  0  0  0  0  0  0
   43.4197   12.9511    8.8687 N   0  0  0  0  0  0  0  0  0  0  0  0
   45.3867   13.3090    7.4590 C   0  0  0  0  0  0  0  0  0  0  0  0
   39.8933   13.3721   13.5579 C   0  0  0  0  0  0  0  0  0  0  0  0
   40.5911   13.5747   12.2343 C   0  0  0  0  0  0  0  0  0  0  0  0
   44.8213   13.3699    8.8570 C   0  0  0  0  0  0  0  0  0  0  0  0
   41.4265   12.4431   10.2474 C   0  0  0  0  0  0  0  0  0  0  0  0
   42.8960   12.9109   10.2389 C   0  0  0  0  0  0  0  0  0  0  0  0
   45.0778   14.3081    6.5240 C   0  0  0  0  0  0  0  0  0  0  0  0
   46.2084   12.2429    7.0645 C   0  0  0  0  0  0  0  0  0  0  0  0
   40.6174   12.9474   14.6816 C   0  0  0  0  0  0  0  0  0  0  0  0
   38.5108   13.5757   13.6784 C   0  0  0  0  0  0  0  0  0  0  0  0
   45.5931   14.2508    5.2278 C   0  0  0  0  0  0  0  0  0  0  0  0
   39.9763   12.7485   15.9051 C   0  0  0  0  0  0  0  0  0  0  0  0
   37.8707   13.3755   14.9032 C   0  0  0  0  0  0  0  0  0  0  0  0
   46.7219   12.1864    5.7673 C   0  0  0  0  0  0  0  0  0  0  0  0
   46.4168   13.1914    4.8506 C   0  0  0  0  0  0  0  0  0  0  0  0
   38.6036   12.9632   16.0156 C   0  0  0  0  0  0  0  0  0  0  0  0
   43.4214   14.5814    8.0004 N   0  0  0  0  0  0  0  0  0  0  0  0
   43.4251   14.6382    9.4739 C   0  0  1  0  0  0  0  0  0  0  0  0
   42.1699   14.0397    7.9333 C   0  0  0  0  0  0  0  0  0  0  0  0
   41.8957   14.3627    9.4219 C   0  0  1  0  0  0  0  0  0  0  0  0
   44.5666   13.9496    7.3589 C   0  0  2  0  0  0  0  0  0  0  0  0
   44.5161   13.2483   10.0033 S   0  0  0  0  0  0  0  0  0  0  0  0
   45.0638   12.8171    8.2865 C   0  0  0  0  0  0  0  0  0  0  0  0
   41.3669   13.2420   10.2463 N   0  0  0  0  0  0  0  0  0  0  0  0
   45.6056   15.0389    7.1070 C   0  0  0  0  0  0  0  0  0  0  0  0
   41.3139   13.3473   11.6220 C   0  0  0  0  0  0  0  0  0  0  0  0
   41.6131   13.4315    7.0492 O   0  0  0  0  0  0  0  0  0  0  0  0
   45.8212   16.0309    7.7837 O   0  0  0  0  0  0  0  0  0  0  0  0
   41.6427   14.3784   12.2015 O   0  0  0  0  0  0  0  0  0  0  0  0
   40.8717   12.0758   12.3275 C   0  0  0  0  0  0  0  0  0  0  0  0
   46.3655   14.7905    6.0158 O   0  0  0  0  0  0  0  0  0  0  0  0
   44.4083   11.4750    7.9191 C   0  0  0  0  0  0  0  0  0  0  0  0
   46.5858   12.6222    8.3056 C   0  0  0  0  0  0  0  0  0  0  0  0
   39.9312   12.3164   13.4822 C   0  0  0  0  0  0  0  0  0  0  0  0
   38.5429   12.3125   13.2859 C   0  0  0  0  0  0  0  0  0  0  0  0
   40.4343   12.5636   14.7673 C   0  0  0  0  0  0  0  0  0  0  0  0
   37.6760   12.5303   14.3587 C   0  0  0  0  0  0  0  0  0  0  0  0
   39.5666   12.7813   15.8383 C   0  0  0  0  0  0  0  0  0  0  0  0
   38.1881   12.7610   15.6341 C   0  0  0  0  0  0  0  0  0  0  0  0
   42.7821   12.9552   10.6438 O   0  0  0  0  0  0  0  0  0  0  0  0
   42.7790   12.9552   10.6477 O   0  0  0  0  0  0  0  0  0  0  0  0
   42.7788   12.9552   10.6476 O   0  0  0  0  0  0  0  0  0  0  0  0
   42.7655   13.0710    9.6817 H   0  0  0  0  0  0  0  0  0  0  0  0
   41.8581   13.0780   10.9089 H   0  0  0  0  0  0  0  0  0  0  0  0
   41.6959   13.6232    7.7593 H   0  0  0  0  0  0  0  0  0  0  0  0
   40.8380   11.6924    9.0593 H   0  0  0  0  0  0  0  0  0  0  0  0
   45.1179   11.4642    7.2607 H   0  0  0  0  0  0  0  0  0  0  0  0
   42.6800   11.7438   11.3232 H   0  0  0  0  0  0  0  0  0  0  0  0
   42.1447   14.2971   12.9956 H   0  0  0  0  0  0  0  0  0  0  0  0
   42.1607   12.5667   13.2649 H   0  0  0  0  0  0  0  0  0  0  0  0
   43.4852   13.4988    4.4282 H   0  0  0  0  0  0  0  0  0  0  0  0
   46.7653   12.1194    9.0051 H   0  0  0  0  0  0  0  0  0  0  0  0
   46.2769   13.3256   10.1936 H   0  0  0  0  0  0  0  0  0  0  0  0
   45.2838   11.8925    9.9322 H   0  0  0  0  0  0  0  0  0  0  0  0
   45.5491   15.1163    7.0222 H   0  0  0  0  0  0  0  0  0  0  0  0
   46.9246   14.0233    7.2514 H   0  0  0  0  0  0  0  0  0  0  0  0
   46.4519   15.1262    8.5386 H   0  0  0  0  0  0  0  0  0  0  0  0
   40.1560   11.3673   14.1515 H   0  0  0  0  0  0  0  0  0  0  0  0
   40.1422   15.6480   13.5843 H   0  0  0  0  0  0  0  0  0  0  0  0
   38.1558   11.5615   15.5844 H   0  0  0  0  0  0  0  0  0  0  0  0
   38.1464   15.8229   15.0266 H   0  0  0  0  0  0  0  0  0  0  0  0
   37.1500   13.7842   16.0313 H   0  0  0  0  0  0  0  0  0  0  0  0
   39.9863   11.7773   11.5273 H   0  0  0  0  0  0  0  0  0  0  0  0
   43.3581   12.0219    8.4528 H   0  0  0  0  0  0  0  0  0  0  0  0
   41.5170   14.1322   12.4172 H   0  0  0  0  0  0  0  0  0  0  0  0
   39.9639   14.1995   11.5854 H   0  0  0  0  0  0  0  0  0  0  0  0
   45.4226   12.7334    9.5191 H   0  0  0  0  0  0  0  0  0  0  0  0
   44.9175   14.3971    9.2319 H   0  0  0  0  0  0  0  0  0  0  0  0
   40.8019   13.1175    9.6473 H   0  0  0  0  0  0  0  0  0  0  0  0
   41.3758   11.4605    9.7613 H   0  0  0  0  0  0  0  0  0  0  0  0
   43.4953   12.2245   10.8498 H   0  0  0  0  0  0  0  0  0  0  0  0
   42.9699   13.9105   10.6811 H   0  0  0  0  0  0  0  0  0  0  0  0
   44.4257   15.1325    6.8061 H   0  0  0  0  0  0  0  0  0  0  0  0
   46.4530   11.4484    7.7660 H   0  0  0  0  0  0  0  0  0  0  0  0
   41.6870   12.7634   14.6000 H   0  0  0  0  0  0  0  0  0  0  0  0
   37.9245   13.8922   12.8188 H   0  0  0  0  0  0  0  0  0  0  0  0
   45.3484   15.0310    4.5122 H   0  0  0  0  0  0  0  0  0  0  0  0
   40.5477   12.4204   16.7694 H   0  0  0  0  0  0  0  0  0  0  0  0
   36.7992   13.5371   14.9886 H   0  0  0  0  0  0  0  0  0  0  0  0
   47.3604   11.3581    5.4714 H   0  0  0  0  0  0  0  0  0  0  0  0
   46.8161   13.1464    3.8406 H   0  0  0  0  0  0  0  0  0  0  0  0
   38.1041   12.8063   16.9681 H   0  0  0  0  0  0  0  0  0  0  0  0
   43.7099   15.6188    9.8632 H   0  0  0  0  0  0  0  0  0  0  0  0
   41.2718   15.2588    9.5353 H   0  0  0  0  0  0  0  0  0  0  0  0
   44.2429   13.5632    6.3849 H   0  0  0  0  0  0  0  0  0  0  0  0
   41.1819   12.3446    9.8097 H   0  0  0  0  0  0  0  0  0  0  0  0
   41.7759   11.5614   12.6800 H   0  0  0  0  0  0  0  0  0  0  0  0
   40.3940   11.3936   11.6142 H   0  0  0  0  0  0  0  0  0  0  0  0
   46.9773   15.5569    5.9741 H   0  0  0  0  0  0  0  0  0  0  0  0
   43.3160   11.5059    7.9791 H   0  0  0  0  0  0  0  0  0  0  0  0
   44.7482   10.6659    8.5750 H   0  0  0  0  0  0  0  0  0  0  0  0
   44.6709   11.1870    6.8943 H   0  0  0  0  0  0  0  0  0  0  0  0
   47.1173   13.5139    8.6575 H   0  0  0  0  0  0  0  0  0  0  0  0
   46.8776   11.7918    8.9605 H   0  0  0  0  0  0  0  0  0  0  0  0
   46.9590   12.3831    7.3025 H   0  0  0  0  0  0  0  0  0  0  0  0
   38.1243   12.1385   12.2970 H   0  0  0  0  0  0  0  0  0  0  0  0
   41.5081   12.5969   14.9384 H   0  0  0  0  0  0  0  0  0  0  0  0
   36.6008   12.5244   14.1996 H   0  0  0  0  0  0  0  0  0  0  0  0
   39.9682   12.9725   16.8303 H   0  0  0  0  0  0  0  0  0  0  0  0
   37.5139   12.9324   16.4689 H   0  0  0  0  0  0  0  0  0  0  0  0
   42.7659   13.0709    9.6820 H   0  0  0  0  0  0  0  0  0  0  0  0
   41.8580   13.0781   10.9083 H   0  0  0  0  0  0  0  0  0  0  0  0
   42.7747   13.0691    9.6853 H   0  0  0  0  0  0  0  0  0  0  0  0
   41.8521   13.0799   10.9012 H   0  0  0  0  0  0  0  0  0  0  0  0
   42.7748   13.0690    9.6856 H   0  0  0  0  0  0  0  0  0  0  0  0
   41.8522   13.0799   10.9010 H   0  0  0  0  0  0  0  0  0  0  0  0
  3  2  1  0
  4  2  1  0
  5  3  1  0
  6  2  1  0
  3  7  1  0
  8  6  1  0
  5  9  1  0
  6 10  1  0
 11  9  1  0
 12  4  2  0
 13 10  2  0
 14 11  2  0
 15 11  1  0
 16 10  1  0
 17  8  1  0
 18  8  1  0
 19 15  1  0
 20 19  2  0
 21 19  1  0
 22 20  1  0
 23 21  2  0
 24 23  1  0
  7  8  1  0
  4  5  1  0
 24 22  2  0
 26 32  1  0
 27 30  1  0
 28 29  1  0
 29 25  1  0
 30 26  1  0
 31 25  1  0
 32 31  1  0
 33 27  2  0
 34 27  1  0
 35 28  2  0
 36 28  1  0
 37 33  1  0
 38 35  1  0
 39 36  2  0
 40 34  2  0
 41 37  2  0
 42 39  1  0
 42 38  2  0
 40 41  1  0
 44 43  1  0
 45 43  1  0
 46 44  1  0
 47 43  1  0
 44 48  1  0
 49 47  1  0
 46 50  1  0
 47 51  1  0
 52 50  1  0
 53 45  2  0
 54 51  2  0
 55 52  2  0
 56 52  1  0
 57 51  1  0
 58 49  1  0
 59 49  1  0
 60 56  1  0
 61 60  2  0
 62 60  1  0
 63 61  1  0
 64 62  2  0
 65 64  1  0
 48 49  1  0
 45 46  1  0
 65 63  2  0
  1 69  1  0
  1 70  1  0
  3 71  1  1
  5 72  1  6
  6 73  1  6
  9 74  1  0
 15 75  1  0
 15 76  1  0
 16 77  1  0
 17 78  1  0
 17 79  1  0
 17 80  1  0
 18 81  1  0
 18 82  1  0
 18 83  1  0
 20 84  1  0
 21 85  1  0
 22 86  1  0
 23 87  1  0
 24 88  1  0
 25 89  1  0
 26 90  1  0
 29 91  1  0
 29 92  1  0
 30 93  1  0
 30 94  1  0
 31 95  1  0
 31 96  1  0
 32 97  1  0
 32 98  1  0
 33 99  1  0
 34100  1  0
 35101  1  0
 36102  1  0
 37103  1  0
 38104  1  0
 39105  1  0
 40106  1  0
 41107  1  0
 42108  1  0
 44109  1  1
 46110  1  1
 47111  1  6
 50112  1  0
 56113  1  0
 56114  1  0
 57115  1  0
 58116  1  0
 58117  1  0
 58118  1  0
 59119  1  0
 59120  1  0
 59121  1  0
 61122  1  0
 62123  1  0
 63124  1  0
 64125  1  0
 65126  1  0
 66127  1  0
 66128  1  0
 67129  1  0
 67130  1  0
 68131  1  0
 68132  1  0
M  END
> <Uni-Dock RESULT> 
ENERGY=   -7.522  LOWER_BOUND=    7.693  UPPER_BOUND=    9.276
INTER + INTRA:          -7.522
INTER:                  -7.522
INTRA:                   0.000
UNBOUND:                 0.000

$$$$

     RDKit          3D

132133  0  0  0  0  0  0  0  0999 V2000
   48.6649    7.4121   13.3523 O   0  0  0  0  0  0  0  0  0  0  0  0
   50.6927    9.5086   12.3771 N   0  0  0  0  0  0  0  0  0  0  0  0
   49.2637    9.5105   12.7270 C   0  0  1  0  0  0  0  0  0  0  0  0
   50.6418    8.2839   11.7781 C   0  0  0  0  0  0  0  0  0  0  0  0
   49.0953    8.2942   11.7738 C   0  0  1  0  0  0  0  0  0  0  0  0
   51.6461    9.8160   13.4380 C   0  0  2  0  0  0  0  0  0  0  0  0
   49.2163    9.1824   14.5372 S   0  0  0  0  0  0  0  0  0  0  0  0
   51.0556    9.2602   14.7605 C   0  0  0  0  0  0  0  0  0  0  0  0
   48.4300    7.0790   12.3174 N   0  0  0  0  0  0  0  0  0  0  0  0
   51.9518   11.3176   13.4701 C   0  0  0  0  0  0  0  0  0  0  0  0
   47.0815    7.0917   12.6104 C   0  0  0  0  0  0  0  0  0  0  0  0
   51.5153    7.4935   11.5057 O   0  0  0  0  0  0  0  0  0  0  0  0
   52.8160   11.8527   14.1507 O   0  0  0  0  0  0  0  0  0  0  0  0
   46.3784    8.0691   12.3678 O   0  0  0  0  0  0  0  0  0  0  0  0
   46.5779    5.8310   13.2910 C   0  0  0  0  0  0  0  0  0  0  0  0
   51.1648   12.0813   12.6839 O   0  0  0  0  0  0  0  0  0  0  0  0
   51.5510    7.8269   15.0226 C   0  0  0  0  0  0  0  0  0  0  0  0
   51.3311   10.0987   16.0158 C   0  0  0  0  0  0  0  0  0  0  0  0
   45.2858    5.3113   12.7141 C   0  0  0  0  0  0  0  0  0  0  0  0
   45.2946    4.3969   11.6512 C   0  0  0  0  0  0  0  0  0  0  0  0
   44.0550    5.7527   13.2209 C   0  0  0  0  0  0  0  0  0  0  0  0
   44.0950    3.9187   11.1199 C   0  0  0  0  0  0  0  0  0  0  0  0
   42.8568    5.2736   12.6886 C   0  0  0  0  0  0  0  0  0  0  0  0
   42.8776    4.3556   11.6402 C   0  0  0  0  0  0  0  0  0  0  0  0
   47.2970    6.5896   11.7809 N   0  0  0  0  0  0  0  0  0  0  0  0
   49.8697    8.8624   13.3944 N   0  0  0  0  0  0  0  0  0  0  0  0
   51.6468    9.9375   14.6870 C   0  0  0  0  0  0  0  0  0  0  0  0
   45.1584    5.5184   12.2890 C   0  0  0  0  0  0  0  0  0  0  0  0
   46.0958    6.6562   12.6156 C   0  0  0  0  0  0  0  0  0  0  0  0
   50.6204    8.8316   14.6496 C   0  0  0  0  0  0  0  0  0  0  0  0
   48.1731    7.7511   11.9738 C   0  0  0  0  0  0  0  0  0  0  0  0
   48.9423    7.7284   13.3103 C   0  0  0  0  0  0  0  0  0  0  0  0
   51.2571   11.2592   14.9497 C   0  0  0  0  0  0  0  0  0  0  0  0
   53.0002    9.6674   14.4364 C   0  0  0  0  0  0  0  0  0  0  0  0
   45.4318    4.2221   12.7501 C   0  0  0  0  0  0  0  0  0  0  0  0
   44.0197    5.7315   11.4984 C   0  0  0  0  0  0  0  0  0  0  0  0
   52.2029   12.2857   14.9776 C   0  0  0  0  0  0  0  0  0  0  0  0
   44.5747    3.1645   12.4430 C   0  0  0  0  0  0  0  0  0  0  0  0
   43.1635    4.6720   11.1914 C   0  0  0  0  0  0  0  0  0  0  0  0
   53.9447   10.6955   14.4634 C   0  0  0  0  0  0  0  0  0  0  0  0
   53.5465   12.0032   14.7369 C   0  0  0  0  0  0  0  0  0  0  0  0
   43.4408    3.3898   11.6645 C   0  0  0  0  0  0  0  0  0  0  0  0
   49.3097   10.3595   14.3201 N   0  0  0  0  0  0  0  0  0  0  0  0
   48.6535    9.0922   14.6908 C   0  0  1  0  0  0  0  0  0  0  0  0
   48.7681   10.3794   13.0669 C   0  0  0  0  0  0  0  0  0  0  0  0
   47.7583    9.2644   13.4312 C   0  0  1  0  0  0  0  0  0  0  0  0
   50.7475   10.4490   14.5362 C   0  0  2  0  0  0  0  0  0  0  0  0
   49.9881    7.8213   14.6109 S   0  0  0  0  0  0  0  0  0  0  0  0
   51.3489    9.0427   14.3108 C   0  0  0  0  0  0  0  0  0  0  0  0
   47.6759    8.1224   12.4803 N   0  0  0  0  0  0  0  0  0  0  0  0
   50.9631   10.9911   15.9467 C   0  0  0  0  0  0  0  0  0  0  0  0
   46.9936    6.9720   12.8232 C   0  0  0  0  0  0  0  0  0  0  0  0
   49.0999   10.9718   12.0666 O   0  0  0  0  0  0  0  0  0  0  0  0
   50.2607   10.8098   16.9277 O   0  0  0  0  0  0  0  0  0  0  0  0
   46.3899    6.8750   13.8877 O   0  0  0  0  0  0  0  0  0  0  0  0
   47.1086    5.8519   11.8023 C   0  0  0  0  0  0  0  0  0  0  0  0
   52.1026   11.7114   16.0587 O   0  0  0  0  0  0  0  0  0  0  0  0
   51.8103    8.8669   12.8541 C   0  0  0  0  0  0  0  0  0  0  0  0
   52.5212    8.6881   15.2352 C   0  0  0  0  0  0  0  0  0  0  0  0
   45.8196    5.1021   11.5741 C   0  0  0  0  0  0  0  0  0  0  0  0
   44.9299    5.5004   10.5663 C   0  0  0  0  0  0  0  0  0  0  0  0
   45.4858    4.0039   12.3791 C   0  0  0  0  0  0  0  0  0  0  0  0
   43.7405    4.8000   10.3552 C   0  0  0  0  0  0  0  0  0  0  0  0
   44.2966    3.3051   12.1669 C   0  0  0  0  0  0  0  0  0  0  0  0
   43.4264    3.7014   11.1529 C   0  0  0  0  0  0  0  0  0  0  0  0
   48.6648    7.4119   13.3522 O   0  0  0  0  0  0  0  0  0  0  0  0
   48.6610    7.4091   13.3510 O   0  0  0  0  0  0  0  0  0  0  0  0
   48.6608    7.4092   13.3509 O   0  0  0  0  0  0  0  0  0  0  0  0
   48.9961    8.3109   13.2053 H   0  0  0  0  0  0  0  0  0  0  0  0
   47.8328    7.3865   12.8560 H   0  0  0  0  0  0  0  0  0  0  0  0
   48.7467   10.4219   12.4141 H   0  0  0  0  0  0  0  0  0  0  0  0
   48.6932    8.5510   10.7858 H   0  0  0  0  0  0  0  0  0  0  0  0
   52.5950    9.3230   13.1909 H   0  0  0  0  0  0  0  0  0  0  0  0
   48.9955    6.2861   12.6023 H   0  0  0  0  0  0  0  0  0  0  0  0
   46.4514    6.0594   14.3568 H   0  0  0  0  0  0  0  0  0  0  0  0
   47.3356    5.0396   13.2410 H   0  0  0  0  0  0  0  0  0  0  0  0
   51.4910   12.9938   12.8236 H   0  0  0  0  0  0  0  0  0  0  0  0
   52.6369    7.8181   15.1708 H   0  0  0  0  0  0  0  0  0  0  0  0
   51.1002    7.4003   15.9256 H   0  0  0  0  0  0  0  0  0  0  0  0
   51.3314    7.1458   14.1964 H   0  0  0  0  0  0  0  0  0  0  0  0
   50.9152   11.1097   15.9417 H   0  0  0  0  0  0  0  0  0  0  0  0
   52.4079   10.1895   16.1955 H   0  0  0  0  0  0  0  0  0  0  0  0
   50.8992    9.6358   16.9124 H   0  0  0  0  0  0  0  0  0  0  0  0
   46.2346    4.0497   11.2282 H   0  0  0  0  0  0  0  0  0  0  0  0
   44.0232    6.4815   14.0286 H   0  0  0  0  0  0  0  0  0  0  0  0
   44.1093    3.2090   10.2965 H   0  0  0  0  0  0  0  0  0  0  0  0
   41.9081    5.6230   13.0889 H   0  0  0  0  0  0  0  0  0  0  0  0
   41.9444    3.9852   11.2249 H   0  0  0  0  0  0  0  0  0  0  0  0
   46.9971    6.5644   10.8057 H   0  0  0  0  0  0  0  0  0  0  0  0
   50.5335    8.8180   12.6213 H   0  0  0  0  0  0  0  0  0  0  0  0
   46.3504    6.5954   13.6800 H   0  0  0  0  0  0  0  0  0  0  0  0
   45.5745    7.6103   12.4649 H   0  0  0  0  0  0  0  0  0  0  0  0
   51.1246    7.8649   14.7771 H   0  0  0  0  0  0  0  0  0  0  0  0
   49.9425    8.9505   15.5046 H   0  0  0  0  0  0  0  0  0  0  0  0
   47.6046    8.6844   11.8699 H   0  0  0  0  0  0  0  0  0  0  0  0
   48.9049    7.7423   11.1559 H   0  0  0  0  0  0  0  0  0  0  0  0
   49.4953    6.7844   13.3908 H   0  0  0  0  0  0  0  0  0  0  0  0
   48.2357    7.7795   14.1460 H   0  0  0  0  0  0  0  0  0  0  0  0
   50.2085   11.4909   15.1267 H   0  0  0  0  0  0  0  0  0  0  0  0
   53.3272    8.6534   14.2174 H   0  0  0  0  0  0  0  0  0  0  0  0
   46.3230    4.0351   13.3462 H   0  0  0  0  0  0  0  0  0  0  0  0
   43.7925    6.7246   11.1175 H   0  0  0  0  0  0  0  0  0  0  0  0
   51.8899   13.3057   15.1835 H   0  0  0  0  0  0  0  0  0  0  0  0
   44.7960    2.1645   12.8067 H   0  0  0  0  0  0  0  0  0  0  0  0
   42.2822    4.8459   10.5795 H   0  0  0  0  0  0  0  0  0  0  0  0
   54.9917   10.4764   14.2712 H   0  0  0  0  0  0  0  0  0  0  0  0
   54.2821   12.8033   14.7568 H   0  0  0  0  0  0  0  0  0  0  0  0
   42.7745    2.5656   11.4238 H   0  0  0  0  0  0  0  0  0  0  0  0
   48.1285    9.1464   15.6476 H   0  0  0  0  0  0  0  0  0  0  0  0
   46.7604    9.6719   13.6393 H   0  0  0  0  0  0  0  0  0  0  0  0
   51.1547   11.1821   13.8294 H   0  0  0  0  0  0  0  0  0  0  0  0
   48.2436    8.1307   11.6391 H   0  0  0  0  0  0  0  0  0  0  0  0
   47.8876    5.1621   12.1543 H   0  0  0  0  0  0  0  0  0  0  0  0
   47.4656    6.2481   10.8441 H   0  0  0  0  0  0  0  0  0  0  0  0
   52.1128   11.9933   16.9987 H   0  0  0  0  0  0  0  0  0  0  0  0
   50.9997    9.0076   12.1324 H   0  0  0  0  0  0  0  0  0  0  0  0
   52.2320    7.8706   12.6808 H   0  0  0  0  0  0  0  0  0  0  0  0
   52.5949    9.5927   12.6094 H   0  0  0  0  0  0  0  0  0  0  0  0
   52.2363    8.6946   16.2936 H   0  0  0  0  0  0  0  0  0  0  0  0
   52.9218    7.6910   15.0138 H   0  0  0  0  0  0  0  0  0  0  0  0
   53.3463    9.3987   15.1055 H   0  0  0  0  0  0  0  0  0  0  0  0
   45.1556    6.3580    9.9362 H   0  0  0  0  0  0  0  0  0  0  0  0
   46.1484    3.6925   13.1838 H   0  0  0  0  0  0  0  0  0  0  0  0
   43.0562    5.1135    9.5711 H   0  0  0  0  0  0  0  0  0  0  0  0
   44.0479    2.4554   12.7978 H   0  0  0  0  0  0  0  0  0  0  0  0
   42.5001    3.1572   10.9902 H   0  0  0  0  0  0  0  0  0  0  0  0
   48.9962    8.3104   13.2056 H   0  0  0  0  0  0  0  0  0  0  0  0
   47.8330    7.3872   12.8558 H   0  0  0  0  0  0  0  0  0  0  0  0
   49.0021    8.3053   13.2112 H   0  0  0  0  0  0  0  0  0  0  0  0
   47.8307    7.3952   12.8514 H   0  0  0  0  0  0  0  0  0  0  0  0
   49.0021    8.3050   13.2113 H   0  0  0  0  0  0  0  0  0  0  0  0
   47.8309    7.3953   12.8514 H   0  0  0  0  0  0  0  0  0  0  0  0
  3  2  1  0
  4  2  1  0
  5  3  1  0
  6  2  1  0
  3  7  1  0
  8  6  1  0
  5  9  1  0
  6 10  1  0
 11  9  1  0
 12  4  2  0
 13 10  2  0
 14 11  2  0
 15 11  1  0
 16 10  1  0
 17  8  1  0
 18  8  1  0
 19 15  1  0
 20 19  2  0
 21 19  1  0
 22 20  1  0
 23 21  2  0
 24 23  1  0
  7  8  1  0
  4  5  1  0
 24 22  2  0
 26 32  1  0
 27 30  1  0
 28 29  1  0
 29 25  1  0
 30 26  1  0
 31 25  1  0
 32 31  1  0
 33 27  2  0
 34 27  1  0
 35 28  2  0
 36 28  1  0
 37 33  1  0
 38 35  1  0
 39 36  2  0
 40 34  2  0
 41 37  2  0
 42 39  1  0
 42 38  2  0
 40 41  1  0
 44 43  1  0
 45 43  1  0
 46 44  1  0
 47 43  1  0
 44 48  1  0
 49 47  1  0
 46 50  1  0
 47 51  1  0
 52 50  1  0
 53 45  2  0
 54 51  2  0
 55 52  2  0
 56 52  1  0
 57 51  1  0
 58 49  1  0
 59 49  1  0
 60 56  1  0
 61 60  2  0
 62 60  1  0
 63 61  1  0
 64 62  2  0
 65 64  1  0
 48 49  1  0
 45 46  1  0
 65 63  2  0
  1 69  1  0
  1 70  1  0
  3 71  1  1
  5 72  1  6
  6 73  1  6
  9 74  1  0
 15 75  1  0
 15 76  1  0
 16 77  1  0
 17 78  1  0
 17 79  1  0
 17 80  1  0
 18 81  1  0
 18 82  1  0
 18 83  1  0
 20 84  1  0
 21 85  1  0
 22 86  1  0
 23 87  1  0
 24 88  1  0
 25 89  1  0
 26 90  1  0
 29 91  1  0
 29 92  1  0
 30 93  1  0
 30 94  1  0
 31 95  1  0
 31 96  1  0
 32 97  1  0
 32 98  1  0
 33 99  1  0
 34100  1  0
 35101  1  0
 36102  1  0
 37103  1  0
 38104  1  0
 39105  1  0
 40106  1  0
 41107  1  0
 42108  1  0
 44109  1  1
 46110  1  1
 47111  1  6
 50112  1  0
 56113  1  0
 56114  1  0
 57115  1  0
 58116  1  0
 58117  1  0
 58118  1  0
 59119  1  0
 59120  1  0
 59121  1  0
 61122  1  0
 62123  1  0
 63124  1  0
 64125  1  0
 65126  1  0
 66127  1  0
 66128  1  0
 67129  1  0
 67130  1  0
 68131  1  0
 68132  1  0
M  END
> <Uni-Dock RESULT> 
ENERGY=   -7.387  LOWER_BOUND=    1.386  UPPER_BOUND=    2.789
INTER + INTRA:          -7.387
INTER:                  -7.387
INTRA:                   0.000
UNBOUND:                 0.000

$$$$

     RDKit          3D

132133  0  0  0  0  0  0  0  0999 V2000
   48.5915   12.4934   14.5877 O   0  0  0  0  0  0  0  0  0  0  0  0
   49.4277   14.2601   12.2134 N   0  0  0  0  0  0  0  0  0  0  0  0
   50.1114   13.6582   13.3686 C   0  0  1  0  0  0  0  0  0  0  0  0
   48.2982   14.5598   12.9174 C   0  0  0  0  0  0  0  0  0  0  0  0
   49.0024   14.2771   14.2650 C   0  0  1  0  0  0  0  0  0  0  0  0
   49.3904   13.4881   10.9758 C   0  0  2  0  0  0  0  0  0  0  0  0
   50.0452   11.8438   13.0688 S   0  0  0  0  0  0  0  0  0  0  0  0
   49.3120   11.9902   11.3719 C   0  0  0  0  0  0  0  0  0  0  0  0
   48.2859   13.3691   15.2015 N   0  0  0  0  0  0  0  0  0  0  0  0
   50.5870   13.8391   10.0846 C   0  0  0  0  0  0  0  0  0  0  0  0
   48.9366   12.8392   16.2970 C   0  0  0  0  0  0  0  0  0  0  0  0
   47.1743   14.8131   12.5502 O   0  0  0  0  0  0  0  0  0  0  0  0
   50.7488   13.4641    8.9316 O   0  0  0  0  0  0  0  0  0  0  0  0
   50.0916   13.1516   16.5741 O   0  0  0  0  0  0  0  0  0  0  0  0
   48.1224   11.8203   17.0749 C   0  0  0  0  0  0  0  0  0  0  0  0
   51.5293   14.6106   10.6655 O   0  0  0  0  0  0  0  0  0  0  0  0
   47.8486   11.5216   11.4580 C   0  0  0  0  0  0  0  0  0  0  0  0
   50.0719   11.0200   10.4575 C   0  0  0  0  0  0  0  0  0  0  0  0
   48.1783   12.0193   18.5681 C   0  0  0  0  0  0  0  0  0  0  0  0
   47.2449   12.8418   19.2147 C   0  0  0  0  0  0  0  0  0  0  0  0
   49.1799   11.3991   19.3289 C   0  0  0  0  0  0  0  0  0  0  0  0
   47.3011   13.0234   20.5982 C   0  0  0  0  0  0  0  0  0  0  0  0
   49.2346   11.5818   20.7117 C   0  0  0  0  0  0  0  0  0  0  0  0
   48.2941   12.3918   21.3455 C   0  0  0  0  0  0  0  0  0  0  0  0
   48.3016   13.5657   16.5327 N   0  0  0  0  0  0  0  0  0  0  0  0
   49.3395   12.9918   12.9297 N   0  0  0  0  0  0  0  0  0  0  0  0
   49.6379   12.3176   10.5971 C   0  0  0  0  0  0  0  0  0  0  0  0
   48.3714   12.4477   18.7062 C   0  0  0  0  0  0  0  0  0  0  0  0
   48.9947   12.5559   17.3352 C   0  0  0  0  0  0  0  0  0  0  0  0
   49.1154   11.9224   11.9568 C   0  0  0  0  0  0  0  0  0  0  0  0
   48.9584   13.7958   15.2405 C   0  0  0  0  0  0  0  0  0  0  0  0
   48.7424   12.6538   14.2268 C   0  0  0  0  0  0  0  0  0  0  0  0
   51.0138   12.2789   10.3265 C   0  0  0  0  0  0  0  0  0  0  0  0
   48.7618   12.7521    9.5917 C   0  0  0  0  0  0  0  0  0  0  0  0
   47.1516   11.7766   18.8777 C   0  0  0  0  0  0  0  0  0  0  0  0
   48.9836   13.0386   19.8211 C   0  0  0  0  0  0  0  0  0  0  0  0
   51.5011   12.6508    9.0722 C   0  0  0  0  0  0  0  0  0  0  0  0
   46.5655   11.6820   20.1407 C   0  0  0  0  0  0  0  0  0  0  0  0
   48.3955   12.9437   21.0840 C   0  0  0  0  0  0  0  0  0  0  0  0
   49.2509   13.1250    8.3381 C   0  0  0  0  0  0  0  0  0  0  0  0
   50.6194   13.0714    8.0778 C   0  0  0  0  0  0  0  0  0  0  0  0
   47.1878   12.2649   21.2433 C   0  0  0  0  0  0  0  0  0  0  0  0
   51.0218   12.3238   12.5617 N   0  0  0  0  0  0  0  0  0  0  0  0
   50.2356   11.5719   13.5571 C   0  0  1  0  0  0  0  0  0  0  0  0
   51.1423   13.4278   13.3559 C   0  0  0  0  0  0  0  0  0  0  0  0
   50.6495   12.6490   14.5993 C   0  0  1  0  0  0  0  0  0  0  0  0
   50.4787   12.4046   11.2124 C   0  0  2  0  0  0  0  0  0  0  0  0
   48.5003   11.6229   12.9335 S   0  0  0  0  0  0  0  0  0  0  0  0
   48.9368   12.4289   11.3231 C   0  0  0  0  0  0  0  0  0  0  0  0
   49.5679   13.2978   15.3894 N   0  0  0  0  0  0  0  0  0  0  0  0
   51.0204   11.2105   10.4312 C   0  0  0  0  0  0  0  0  0  0  0  0
   48.8939   12.5930   16.3669 C   0  0  0  0  0  0  0  0  0  0  0  0
   51.4057   14.5765   13.0861 O   0  0  0  0  0  0  0  0  0  0  0  0
   51.2858   10.0999   10.8612 O   0  0  0  0  0  0  0  0  0  0  0  0
   49.1990   11.4391   16.6542 O   0  0  0  0  0  0  0  0  0  0  0  0
   47.7352   13.3505   16.9941 C   0  0  0  0  0  0  0  0  0  0  0  0
   51.1587   11.4718    9.1112 O   0  0  0  0  0  0  0  0  0  0  0  0
   48.4099   13.8730   11.3750 C   0  0  0  0  0  0  0  0  0  0  0  0
   48.1991   11.6854   10.2016 C   0  0  0  0  0  0  0  0  0  0  0  0
   47.6249   13.1662   18.4873 C   0  0  0  0  0  0  0  0  0  0  0  0
   48.2649   14.0519   19.3658 C   0  0  0  0  0  0  0  0  0  0  0  0
   46.8923   12.0949   19.0176 C   0  0  0  0  0  0  0  0  0  0  0  0
   48.1555   13.8806   20.7473 C   0  0  0  0  0  0  0  0  0  0  0  0
   46.7842   11.9250   20.3985 C   0  0  0  0  0  0  0  0  0  0  0  0
   47.4129   12.8198   21.2625 C   0  0  0  0  0  0  0  0  0  0  0  0
   48.5915   12.4934   14.5879 O   0  0  0  0  0  0  0  0  0  0  0  0
   48.5905   12.4932   14.5927 O   0  0  0  0  0  0  0  0  0  0  0  0
   48.5907   12.4933   14.5929 O   0  0  0  0  0  0  0  0  0  0  0  0
   49.2225   12.8904   13.9686 H   0  0  0  0  0  0  0  0  0  0  0  0
   48.8875   12.8080   15.4554 H   0  0  0  0  0  0  0  0  0  0  0  0
   51.1163   14.0586   13.5288 H   0  0  0  0  0  0  0  0  0  0  0  0
   49.2999   15.2044   14.7705 H   0  0  0  0  0  0  0  0  0  0  0  0
   48.4990   13.7955   10.4142 H   0  0  0  0  0  0  0  0  0  0  0  0
   47.3610   13.0303   14.9579 H   0  0  0  0  0  0  0  0  0  0  0  0
   48.5014   10.8246   16.8116 H   0  0  0  0  0  0  0  0  0  0  0  0
   47.0748   11.8386   16.7508 H   0  0  0  0  0  0  0  0  0  0  0  0
   52.2069   14.7351    9.9697 H   0  0  0  0  0  0  0  0  0  0  0  0
   47.3690   11.5806   10.4743 H   0  0  0  0  0  0  0  0  0  0  0  0
   47.7747   10.4798   11.7894 H   0  0  0  0  0  0  0  0  0  0  0  0
   47.2511   12.1250   12.1462 H   0  0  0  0  0  0  0  0  0  0  0  0
   51.1465   11.2319   10.4257 H   0  0  0  0  0  0  0  0  0  0  0  0
   49.6882   11.0686    9.4327 H   0  0  0  0  0  0  0  0  0  0  0  0
   49.9567    9.9800   10.7889 H   0  0  0  0  0  0  0  0  0  0  0  0
   46.4669   13.3477   18.6472 H   0  0  0  0  0  0  0  0  0  0  0  0
   49.9306   10.7767   18.8456 H   0  0  0  0  0  0  0  0  0  0  0  0
   46.5733   13.6616   21.0930 H   0  0  0  0  0  0  0  0  0  0  0  0
   50.0158   11.0964   21.2918 H   0  0  0  0  0  0  0  0  0  0  0  0
   48.3390   12.5354   22.4216 H   0  0  0  0  0  0  0  0  0  0  0  0
   48.3047   14.4388   17.0612 H   0  0  0  0  0  0  0  0  0  0  0  0
   48.9148   13.8469   12.5714 H   0  0  0  0  0  0  0  0  0  0  0  0
   48.9457   11.5703   16.8580 H   0  0  0  0  0  0  0  0  0  0  0  0
   50.0576   12.8092   17.4388 H   0  0  0  0  0  0  0  0  0  0  0  0
   48.0464   11.6854   11.8793 H   0  0  0  0  0  0  0  0  0  0  0  0
   49.6217   11.0022   12.2755 H   0  0  0  0  0  0  0  0  0  0  0  0
   50.0294   13.9910   15.3817 H   0  0  0  0  0  0  0  0  0  0  0  0
   48.5296   14.7144   14.8199 H   0  0  0  0  0  0  0  0  0  0  0  0
   47.6662   12.4758   14.1098 H   0  0  0  0  0  0  0  0  0  0  0  0
   49.1993   11.7320   14.6033 H   0  0  0  0  0  0  0  0  0  0  0  0
   51.7106   11.9634   11.1008 H   0  0  0  0  0  0  0  0  0  0  0  0
   47.6916   12.8038    9.7795 H   0  0  0  0  0  0  0  0  0  0  0  0
   46.6520   11.3314   18.0194 H   0  0  0  0  0  0  0  0  0  0  0  0
   49.9230   13.5759   19.7124 H   0  0  0  0  0  0  0  0  0  0  0  0
   52.5688   12.6155    8.8732 H   0  0  0  0  0  0  0  0  0  0  0  0
   45.6208   11.1585   20.2619 H   0  0  0  0  0  0  0  0  0  0  0  0
   48.8773   13.4031   21.9433 H   0  0  0  0  0  0  0  0  0  0  0  0
   48.5643   13.4574    7.5640 H   0  0  0  0  0  0  0  0  0  0  0  0
   50.9998   13.3627    7.1021 H   0  0  0  0  0  0  0  0  0  0  0  0
   46.7301   12.1928   22.2264 H   0  0  0  0  0  0  0  0  0  0  0  0
   50.6272   10.5686   13.7419 H   0  0  0  0  0  0  0  0  0  0  0  0
   51.4827   12.3512   15.2491 H   0  0  0  0  0  0  0  0  0  0  0  0
   50.8658   13.3166   10.7419 H   0  0  0  0  0  0  0  0  0  0  0  0
   49.2255   14.2118   15.1113 H   0  0  0  0  0  0  0  0  0  0  0  0
   46.8130   13.0096   16.5041 H   0  0  0  0  0  0  0  0  0  0  0  0
   47.8181   14.4211   16.7717 H   0  0  0  0  0  0  0  0  0  0  0  0
   51.5094   10.6338    8.7396 H   0  0  0  0  0  0  0  0  0  0  0  0
   48.8182   14.4436   12.2149 H   0  0  0  0  0  0  0  0  0  0  0  0
   47.3181   13.9024   11.4607 H   0  0  0  0  0  0  0  0  0  0  0  0
   48.6727   14.4110   10.4565 H   0  0  0  0  0  0  0  0  0  0  0  0
   48.4519   10.6193   10.1697 H   0  0  0  0  0  0  0  0  0  0  0  0
   47.1106   11.7567   10.3188 H   0  0  0  0  0  0  0  0  0  0  0  0
   48.4431   12.1175    9.2237 H   0  0  0  0  0  0  0  0  0  0  0  0
   48.8525   14.8834   18.9827 H   0  0  0  0  0  0  0  0  0  0  0  0
   46.4087   11.3803   18.3551 H   0  0  0  0  0  0  0  0  0  0  0  0
   48.6530   14.5719   21.4226 H   0  0  0  0  0  0  0  0  0  0  0  0
   46.2140   11.0902   20.7983 H   0  0  0  0  0  0  0  0  0  0  0  0
   47.3291   12.6851   22.3374 H   0  0  0  0  0  0  0  0  0  0  0  0
   49.2221   12.8901   13.9686 H   0  0  0  0  0  0  0  0  0  0  0  0
   48.8880   12.8083   15.4550 H   0  0  0  0  0  0  0  0  0  0  0  0
   49.2155   12.8848   13.9641 H   0  0  0  0  0  0  0  0  0  0  0  0
   48.8955   12.8139   15.4549 H   0  0  0  0  0  0  0  0  0  0  0  0
   49.2152   12.8846   13.9642 H   0  0  0  0  0  0  0  0  0  0  0  0
   48.8956   12.8139   15.4547 H   0  0  0  0  0  0  0  0  0  0  0  0
  3  2  1  0
  4  2  1  0
  5  3  1  0
  6  2  1  0
  3  7  1  0
  8  6  1  0
  5  9  1  0
  6 10  1  0
 11  9  1  0
 12  4  2  0
 13 10  2  0
 14 11  2  0
 15 11  1  0
 16 10  1  0
 17  8  1  0
 18  8  1  0
 19 15  1  0
 20 19  2  0
 21 19  1  0
 22 20  1  0
 23 21  2  0
 24 23  1  0
  7  8  1  0
  4  5  1  0
 24 22  2  0
 26 32  1  0
 27 30  1  0
 28 29  1  0
 29 25  1  0
 30 26  1  0
 31 25  1  0
 32 31  1  0
 33 27  2  0
 34 27  1  0
 35 28  2  0
 36 28  1  0
 37 33  1  0
 38 35  1  0
 39 36  2  0
 40 34  2  0
 41 37  2  0
 42 39  1  0
 42 38  2  0
 40 41  1  0
 44 43  1  0
 45 43  1  0
 46 44  1  0
 47 43  1  0
 44 48  1  0
 49 47  1  0
 46 50  1  0
 47 51  1  0
 52 50  1  0
 53 45  2  0
 54 51  2  0
 55 52  2  0
 56 52  1  0
 57 51  1  0
 58 49  1  0
 59 49  1  0
 60 56  1  0
 61 60  2  0
 62 60  1  0
 63 61  1  0
 64 62  2  0
 65 64  1  0
 48 49  1  0
 45 46  1  0
 65 63  2  0
  1 69  1  0
  1 70  1  0
  3 71  1  1
  5 72  1  6
  6 73  1  6
  9 74  1  0
 15 75  1  0
 15 76  1  0
 16 77  1  0
 17 78  1  0
 17 79  1  0
 17 80  1  0
 18 81  1  0
 18 82  1  0
 18 83  1  0
 20 84  1  0
 21 85  1  0
 22 86  1  0
 23 87  1  0
 24 88  1  0
 25 89  1  0
 26 90  1  0
 29 91  1  0
 29 92  1  0
 30 93  1  0
 30 94  1  0
 31 95  1  0
 31 96  1  0
 32 97  1  0
 32 98  1  0
 33 99  1  0
 34100  1  0
 35101  1  0
 36102  1  0
 37103  1  0
 38104  1  0
 39105  1  0
 40106  1  0
 41107  1  0
 42108  1  0
 44109  1  1
 46110  1  1
 47111  1  6
 50112  1  0
 56113  1  0
 56114  1  0
 57115  1  0
 58116  1  0
 58117  1  0
 58118  1  0
 59119  1  0
 59120  1  0
 59121  1  0
 61122  1  0
 62123  1  0
 63124  1  0
 64125  1  0
 65126  1  0
 66127  1  0
 66128  1  0
 67129  1  0
 67130  1  0
 68131  1  0
 68132  1  0
M  END
> <Uni-Dock RESULT> 
ENERGY=   -6.739  LOWER_BOUND=    5.022  UPPER_BOUND=    7.653
INTER + INTRA:          -6.739
INTER:                  -6.739
INTRA:                   0.000
UNBOUND:                 0.000

$$$$

     RDKit          3D

132133  0  0  0  0  0  0  0  0999 V2000
   48.7151   10.6274   19.3496 O   0  0  0  0  0  0  0  0  0  0  0  0
   48.3217   13.6627   19.0493 N   0  0  0  0  0  0  0  0  0  0  0  0
   49.2110   12.7896   19.8311 C   0  0  1  0  0  0  0  0  0  0  0  0
   47.2365   12.8492   19.1971 C   0  0  0  0  0  0  0  0  0  0  0  0
   47.9413   12.0250   20.2997 C   0  0  1  0  0  0  0  0  0  0  0  0
   48.7910   14.1025   17.7396 C   0  0  2  0  0  0  0  0  0  0  0  0
   50.2855   11.9658   18.5849 S   0  0  0  0  0  0  0  0  0  0  0  0
   49.6481   12.9519   17.1495 C   0  0  0  0  0  0  0  0  0  0  0  0
   47.9230   10.5470   20.1262 N   0  0  0  0  0  0  0  0  0  0  0  0
   49.5299   15.4405   17.8526 C   0  0  0  0  0  0  0  0  0  0  0  0
   48.7430    9.7428   20.8912 C   0  0  0  0  0  0  0  0  0  0  0  0
   46.2030   12.7787   18.5734 O   0  0  0  0  0  0  0  0  0  0  0  0
   49.9090   16.1248   16.9122 O   0  0  0  0  0  0  0  0  0  0  0  0
   49.4529   10.2060   21.7800 O   0  0  0  0  0  0  0  0  0  0  0  0
   48.7192    8.2753   20.5013 C   0  0  0  0  0  0  0  0  0  0  0  0
   49.7837   15.8523   19.1122 O   0  0  0  0  0  0  0  0  0  0  0  0
   48.7860   12.0118   16.2885 C   0  0  0  0  0  0  0  0  0  0  0  0
   50.8609   13.3866   16.3158 C   0  0  0  0  0  0  0  0  0  0  0  0
   48.6142    7.3414   21.6800 C   0  0  0  0  0  0  0  0  0  0  0  0
   47.3611    6.9429   22.1664 C   0  0  0  0  0  0  0  0  0  0  0  0
   49.7715    6.8745   22.3197 C   0  0  0  0  0  0  0  0  0  0  0  0
   47.2690    6.0780   23.2589 C   0  0  0  0  0  0  0  0  0  0  0  0
   49.6776    6.0100   23.4117 C   0  0  0  0  0  0  0  0  0  0  0  0
   48.4268    5.6107   23.8790 C   0  0  0  0  0  0  0  0  0  0  0  0
   47.7908    9.7107   21.1723 N   0  0  0  0  0  0  0  0  0  0  0  0
   49.0238   12.4067   18.8059 N   0  0  0  0  0  0  0  0  0  0  0  0
   49.7155   13.8261   16.9373 C   0  0  0  0  0  0  0  0  0  0  0  0
   48.4989    7.5626   22.1014 C   0  0  0  0  0  0  0  0  0  0  0  0
   48.9457    8.8668   21.4854 C   0  0  0  0  0  0  0  0  0  0  0  0
   49.5254   12.4128   17.4317 C   0  0  0  0  0  0  0  0  0  0  0  0
   48.1872   11.0404   20.6941 C   0  0  0  0  0  0  0  0  0  0  0  0
   48.7408   11.0386   19.2547 C   0  0  0  0  0  0  0  0  0  0  0  0
   50.8255   14.5788   17.3484 C   0  0  0  0  0  0  0  0  0  0  0  0
   48.7757   14.4176   16.0804 C   0  0  0  0  0  0  0  0  0  0  0  0
   47.9520    6.5514   21.2977 C   0  0  0  0  0  0  0  0  0  0  0  0
   48.5956    7.3524   23.4847 C   0  0  0  0  0  0  0  0  0  0  0  0
   51.0004   15.8888   16.8989 C   0  0  0  0  0  0  0  0  0  0  0  0
   47.5278    5.3479   21.8626 C   0  0  0  0  0  0  0  0  0  0  0  0
   48.1700    6.1479   24.0485 C   0  0  0  0  0  0  0  0  0  0  0  0
   48.9515   15.7285   15.6327 C   0  0  0  0  0  0  0  0  0  0  0  0
   50.0647   16.4624   16.0394 C   0  0  0  0  0  0  0  0  0  0  0  0
   47.6376    5.1463   23.2373 C   0  0  0  0  0  0  0  0  0  0  0  0
   50.7653   13.0081   18.9383 N   0  0  0  0  0  0  0  0  0  0  0  0
   50.5947   11.5455   18.8610 C   0  0  1  0  0  0  0  0  0  0  0  0
   50.1639   13.1055   20.1601 C   0  0  0  0  0  0  0  0  0  0  0  0
   50.2363   11.5743   20.3738 C   0  0  1  0  0  0  0  0  0  0  0  0
   50.3118   13.7892   17.7953 C   0  0  2  0  0  0  0  0  0  0  0  0
   49.2101   11.2877   17.6698 S   0  0  0  0  0  0  0  0  0  0  0  0
   49.0830   13.0728   17.1895 C   0  0  0  0  0  0  0  0  0  0  0  0
   48.9715   10.9138   20.7971 N   0  0  0  0  0  0  0  0  0  0  0  0
   51.4891   13.9117   16.8316 C   0  0  0  0  0  0  0  0  0  0  0  0
   48.8604    9.5376   20.7842 C   0  0  0  0  0  0  0  0  0  0  0  0
   49.6657   14.0493   20.7282 O   0  0  0  0  0  0  0  0  0  0  0  0
   52.3766   13.0978   16.6356 O   0  0  0  0  0  0  0  0  0  0  0  0
   49.8083    8.8184   20.4823 O   0  0  0  0  0  0  0  0  0  0  0  0
   47.4705    9.0217   21.1192 C   0  0  0  0  0  0  0  0  0  0  0  0
   51.4592   15.0599   16.1171 O   0  0  0  0  0  0  0  0  0  0  0  0
   47.7755   13.6174   17.7891 C   0  0  0  0  0  0  0  0  0  0  0  0
   48.9822   13.1497   15.6602 C   0  0  0  0  0  0  0  0  0  0  0  0
   47.4718    7.8043   22.0100 C   0  0  0  0  0  0  0  0  0  0  0  0
   47.4123    7.9391   23.4044 C   0  0  0  0  0  0  0  0  0  0  0  0
   47.5490    6.5192   21.4550 C   0  0  0  0  0  0  0  0  0  0  0  0
   47.4083    6.8092   24.2248 C   0  0  0  0  0  0  0  0  0  0  0  0
   47.5450    5.3910   22.2764 C   0  0  0  0  0  0  0  0  0  0  0  0
   47.4712    5.5366   23.6605 C   0  0  0  0  0  0  0  0  0  0  0  0
   48.7151   10.6272   19.3497 O   0  0  0  0  0  0  0  0  0  0  0  0
   48.7144   10.6233   19.3525 O   0  0  0  0  0  0  0  0  0  0  0  0
   48.7144   10.6233   19.3527 O   0  0  0  0  0  0  0  0  0  0  0  0
   48.9764   11.5577   19.4225 H   0  0  0  0  0  0  0  0  0  0  0  0
   48.7383   10.3067   20.2639 H   0  0  0  0  0  0  0  0  0  0  0  0
   49.7506   13.3221   20.6192 H   0  0  0  0  0  0  0  0  0  0  0  0
   47.5933   12.3052   21.3018 H   0  0  0  0  0  0  0  0  0  0  0  0
   47.9101   14.2992   17.1152 H   0  0  0  0  0  0  0  0  0  0  0  0
   47.4097   10.1423   19.3501 H   0  0  0  0  0  0  0  0  0  0  0  0
   49.6370    8.0691   19.9361 H   0  0  0  0  0  0  0  0  0  0  0  0
   47.8901    8.0751   19.8118 H   0  0  0  0  0  0  0  0  0  0  0  0
   50.2514   16.7053   19.0014 H   0  0  0  0  0  0  0  0  0  0  0  0
   48.3897   12.5460   15.4175 H   0  0  0  0  0  0  0  0  0  0  0  0
   49.3661   11.1634   15.9084 H   0  0  0  0  0  0  0  0  0  0  0  0
   47.9316   11.6033   16.8342 H   0  0  0  0  0  0  0  0  0  0  0  0
   51.5751   13.9808   16.8966 H   0  0  0  0  0  0  0  0  0  0  0  0
   50.5470   13.9849   15.4536 H   0  0  0  0  0  0  0  0  0  0  0  0
   51.4073   12.5218   15.9180 H   0  0  0  0  0  0  0  0  0  0  0  0
   46.4468    7.3023   21.6993 H   0  0  0  0  0  0  0  0  0  0  0  0
   50.7546    7.1906   21.9759 H   0  0  0  0  0  0  0  0  0  0  0  0
   46.2940    5.7722   23.6299 H   0  0  0  0  0  0  0  0  0  0  0  0
   50.5816    5.6545   23.9005 H   0  0  0  0  0  0  0  0  0  0  0  0
   48.3548    4.9397   24.7306 H   0  0  0  0  0  0  0  0  0  0  0  0
   47.2445    9.8201   22.0274 H   0  0  0  0  0  0  0  0  0  0  0  0
   48.1677   12.9601   18.8384 H   0  0  0  0  0  0  0  0  0  0  0  0
   49.5245    8.6387   20.5830 H   0  0  0  0  0  0  0  0  0  0  0  0
   49.6228    9.3823   22.1786 H   0  0  0  0  0  0  0  0  0  0  0  0
   48.8330   11.8850   16.7631 H   0  0  0  0  0  0  0  0  0  0  0  0
   50.4865   11.8860   17.3723 H   0  0  0  0  0  0  0  0  0  0  0  0
   48.9060   11.5002   21.3848 H   0  0  0  0  0  0  0  0  0  0  0  0
   47.2899   11.6719   20.7164 H   0  0  0  0  0  0  0  0  0  0  0  0
   48.0070   10.5691   18.5879 H   0  0  0  0  0  0  0  0  0  0  0  0
   49.6631   10.4488   19.2125 H   0  0  0  0  0  0  0  0  0  0  0  0
   51.5547   14.1433   18.0290 H   0  0  0  0  0  0  0  0  0  0  0  0
   47.8994   13.8604   15.7568 H   0  0  0  0  0  0  0  0  0  0  0  0
   47.8493    6.7067   20.2254 H   0  0  0  0  0  0  0  0  0  0  0  0
   49.0037    8.1259   24.1314 H   0  0  0  0  0  0  0  0  0  0  0  0
   51.8648   16.4622   17.2227 H   0  0  0  0  0  0  0  0  0  0  0  0
   47.1067    4.5710   21.2299 H   0  0  0  0  0  0  0  0  0  0  0  0
   48.2499    5.9923   25.1212 H   0  0  0  0  0  0  0  0  0  0  0  0
   48.2198   16.1776   14.9663 H   0  0  0  0  0  0  0  0  0  0  0  0
   50.2006   17.4832   15.6914 H   0  0  0  0  0  0  0  0  0  0  0  0
   47.3053    4.2096   23.6773 H   0  0  0  0  0  0  0  0  0  0  0  0
   51.5194   11.0199   18.6102 H   0  0  0  0  0  0  0  0  0  0  0  0
   51.0640   11.2953   21.0388 H   0  0  0  0  0  0  0  0  0  0  0  0
   50.0606   14.7969   18.1476 H   0  0  0  0  0  0  0  0  0  0  0  0
   48.1423   11.4773   20.9554 H   0  0  0  0  0  0  0  0  0  0  0  0
   46.9650    8.7933   20.1711 H   0  0  0  0  0  0  0  0  0  0  0  0
   46.8779    9.8120   21.5954 H   0  0  0  0  0  0  0  0  0  0  0  0
   52.2592   15.0072   15.5510 H   0  0  0  0  0  0  0  0  0  0  0  0
   47.7292   13.5066   18.8769 H   0  0  0  0  0  0  0  0  0  0  0  0
   46.8977   13.1117   17.3720 H   0  0  0  0  0  0  0  0  0  0  0  0
   47.6655   14.6850   17.5649 H   0  0  0  0  0  0  0  0  0  0  0  0
   49.8402   12.6856   15.1605 H   0  0  0  0  0  0  0  0  0  0  0  0
   48.0805   12.6462   15.2899 H   0  0  0  0  0  0  0  0  0  0  0  0
   48.9238   14.1930   15.3272 H   0  0  0  0  0  0  0  0  0  0  0  0
   47.3669    8.9241   23.8637 H   0  0  0  0  0  0  0  0  0  0  0  0
   47.6220    6.3912   20.3771 H   0  0  0  0  0  0  0  0  0  0  0  0
   47.3603    6.9210   25.3049 H   0  0  0  0  0  0  0  0  0  0  0  0
   47.6059    4.3995   21.8347 H   0  0  0  0  0  0  0  0  0  0  0  0
   47.4699    4.6571   24.2986 H   0  0  0  0  0  0  0  0  0  0  0  0
   48.9763   11.5574   19.4221 H   0  0  0  0  0  0  0  0  0  0  0  0
   48.7384   10.3074   20.2640 H   0  0  0  0  0  0  0  0  0  0  0  0
   48.9745   11.5549   19.4130 H   0  0  0  0  0  0  0  0  0  0  0  0
   48.7410   10.3138   20.2704 H   0  0  0  0  0  0  0  0  0  0  0  0
   48.9744   11.5546   19.4129 H   0  0  0  0  0  0  0  0  0  0  0  0
   48.7410   10.3140   20.2703 H   0  0  0  0  0  0  0  0  0  0  0  0
  3  2  1  0
  4  2  1  0
  5  3  1  0
  6  2  1  0
  3  7  1  0
  8  6  1  0
  5  9  1  0
  6 10  1  0
 11  9  1  0
 12  4  2  0
 13 10  2  0
 14 11  2  0
 15 11  1  0
 16 10  1  0
 17  8  1  0
 18  8  1  0
 19 15  1  0
 20 19  2  0
 21 19  1  0
 22 20  1  0
 23 21  2  0
 24 23  1  0
  7  8  1  0
  4  5  1  0
 24 22  2  0
 26 32  1  0
 27 30  1  0
 28 29  1  0
 29 25  1  0
 30 26  1  0
 31 25  1  0
 32 31  1  0
 33 27  2  0
 34 27  1  0
 35 28  2  0
 36 28  1  0
 37 33  1  0
 38 35  1  0
 39 36  2  0
 40 34  2  0
 41 37  2  0
 42 39  1  0
 42 38  2  0
 40 41  1  0
 44 43  1  0
 45 43  1  0
 46 44  1  0
 47 43  1  0
 44 48  1  0
 49 47  1  0
 46 50  1  0
 47 51  1  0
 52 50  1  0
 53 45  2  0
 54 51  2  0
 55 52  2  0
 56 52  1  0
 57 51  1  0
 58 49  1  0
 59 49  1  0
 60 56  1  0
 61 60  2  0
 62 60  1  0
 63 61  1  0
 64 62  2  0
 65 64  1  0
 48 49  1  0
 45 46  1  0
 65 63  2  0
  1 69  1  0
  1 70  1  0
  3 71  1  1
  5 72  1  6
  6 73  1  6
  9 74  1  0
 15 75  1  0
 15 76  1  0
 16 77  1  0
 17 78  1  0
 17 79  1  0
 17 80  1  0
 18 81  1  0
 18 82  1  0
 18 83  1  0
 20 84  1  0
 21 85  1  0
 22 86  1  0
 23 87  1  0
 24 88  1  0
 25 89  1  0
 26 90  1  0
 29 91  1  0
 29 92  1  0
 30 93  1  0
 30 94  1  0
 31 95  1  0
 31 96  1  0
 32 97  1  0
 32 98  1  0
 33 99  1  0
 34100  1  0
 35101  1  0
 36102  1  0
 37103  1  0
 38104  1  0
 39105  1  0
 40106  1  0
 41107  1  0
 42108  1  0
 44109  1  1
 46110  1  1
 47111  1  6
 50112  1  0
 56113  1  0
 56114  1  0
 57115  1  0
 58116  1  0
 58117  1  0
 58118  1  0
 59119  1  0
 59120  1  0
 59121  1  0
 61122  1  0
 62123  1  0
 63124  1  0
 64125  1  0
 65126  1  0
 66127  1  0
 66128  1  0
 67129  1  0
 67130  1  0
 68131  1  0
 68132  1  0
M  END
> <Uni-Dock RESULT> 
ENERGY=   -6.575  LOWER_BOUND=    6.814  UPPER_BOUND=    8.434
INTER + INTRA:          -6.575
INTER:                  -6.575
INTRA:                   0.000
UNBOUND:                 0.000

$$$$

     RDKit          3D

132133  0  0  0  0  0  0  0  0999 V2000
   50.3708    6.8487   18.1391 O   0  0  0  0  0  0  0  0  0  0  0  0
   51.2922    4.4750   19.8639 N   0  0  0  0  0  0  0  0  0  0  0  0
   51.8137    5.1833   18.6846 C   0  0  1  0  0  0  0  0  0  0  0  0
   49.9933    4.5519   19.4537 C   0  0  0  0  0  0  0  0  0  0  0  0
   50.4152    4.9935   18.0329 C   0  0  1  0  0  0  0  0  0  0  0  0
   51.7219    4.9454   21.1765 C   0  0  2  0  0  0  0  0  0  0  0  0
   52.2450    6.8659   19.2921 S   0  0  0  0  0  0  0  0  0  0  0  0
   51.9077    6.4822   21.0747 C   0  0  0  0  0  0  0  0  0  0  0  0
   49.7361    6.2028   17.4934 N   0  0  0  0  0  0  0  0  0  0  0  0
   52.9747    4.1914   21.6362 C   0  0  0  0  0  0  0  0  0  0  0  0
   50.2233    6.8350   16.3676 C   0  0  0  0  0  0  0  0  0  0  0  0
   48.9566    4.4335   20.0647 O   0  0  0  0  0  0  0  0  0  0  0  0
   53.4802    4.2641   22.7477 O   0  0  0  0  0  0  0  0  0  0  0  0
   51.1776    6.3858   15.7383 O   0  0  0  0  0  0  0  0  0  0  0  0
   49.5142    8.1331   16.0235 C   0  0  0  0  0  0  0  0  0  0  0  0
   53.5508    3.4094   20.6997 O   0  0  0  0  0  0  0  0  0  0  0  0
   50.6153    7.2183   21.4700 C   0  0  0  0  0  0  0  0  0  0  0  0
   53.0629    7.0682   21.8975 C   0  0  0  0  0  0  0  0  0  0  0  0
   49.1775    8.2648   14.5601 C   0  0  0  0  0  0  0  0  0  0  0  0
   47.9546    7.7924   14.0630 C   0  0  0  0  0  0  0  0  0  0  0  0
   50.0942    8.8445   13.6712 C   0  0  0  0  0  0  0  0  0  0  0  0
   47.6474    7.9164   12.7064 C   0  0  0  0  0  0  0  0  0  0  0  0
   49.7855    8.9676   12.3154 C   0  0  0  0  0  0  0  0  0  0  0  0
   48.5618    8.5056   11.8345 C   0  0  0  0  0  0  0  0  0  0  0  0
   49.3991    6.3082   16.1947 N   0  0  0  0  0  0  0  0  0  0  0  0
   51.3414    5.8651   19.4226 N   0  0  0  0  0  0  0  0  0  0  0  0
   52.3169    5.9364   21.6650 C   0  0  0  0  0  0  0  0  0  0  0  0
   49.2279    7.8501   14.3046 C   0  0  0  0  0  0  0  0  0  0  0  0
   50.1061    7.3268   15.4159 C   0  0  0  0  0  0  0  0  0  0  0  0
   51.6036    6.7134   20.5853 C   0  0  0  0  0  0  0  0  0  0  0  0
   50.2624    5.6798   17.2016 C   0  0  0  0  0  0  0  0  0  0  0  0
   50.5587    6.5870   18.4130 C   0  0  0  0  0  0  0  0  0  0  0  0
   53.6879    5.6610   21.5536 C   0  0  0  0  0  0  0  0  0  0  0  0
   51.6183    5.4570   22.7827 C   0  0  0  0  0  0  0  0  0  0  0  0
   48.1934    8.7544   14.5869 C   0  0  0  0  0  0  0  0  0  0  0  0
   49.4118    7.4204   12.9823 C   0  0  0  0  0  0  0  0  0  0  0  0
   54.3490    4.9363   22.5467 C   0  0  0  0  0  0  0  0  0  0  0  0
   47.3718    9.2337   13.5657 C   0  0  0  0  0  0  0  0  0  0  0  0
   48.5883    7.9003   11.9617 C   0  0  0  0  0  0  0  0  0  0  0  0
   52.2809    4.7311   23.7746 C   0  0  0  0  0  0  0  0  0  0  0  0
   53.6460    4.4736   23.6580 C   0  0  0  0  0  0  0  0  0  0  0  0
   47.5700    8.8071   12.2537 C   0  0  0  0  0  0  0  0  0  0  0  0
   53.1716    6.1144   19.4260 N   0  0  0  0  0  0  0  0  0  0  0  0
   52.3765    7.2001   18.8235 C   0  0  1  0  0  0  0  0  0  0  0  0
   52.8444    5.2120   18.4550 C   0  0  0  0  0  0  0  0  0  0  0  0
   52.2758    6.3251   17.5421 C   0  0  1  0  0  0  0  0  0  0  0  0
   52.9495    5.8360   20.8386 C   0  0  2  0  0  0  0  0  0  0  0  0
   50.8685    7.3304   19.8777 S   0  0  0  0  0  0  0  0  0  0  0  0
   51.4618    6.1200   21.1491 C   0  0  0  0  0  0  0  0  0  0  0  0
   50.9207    6.0781   16.9785 N   0  0  0  0  0  0  0  0  0  0  0  0
   53.9203    6.7061   21.6324 C   0  0  0  0  0  0  0  0  0  0  0  0
   50.2246    7.0942   16.3544 C   0  0  0  0  0  0  0  0  0  0  0  0
   52.8862    4.0039   18.4456 O   0  0  0  0  0  0  0  0  0  0  0  0
   54.3325    7.8166   21.3397 O   0  0  0  0  0  0  0  0  0  0  0  0
   50.7171    8.2070   16.1934 O   0  0  0  0  0  0  0  0  0  0  0  0
   48.8085    6.7208   15.9479 C   0  0  0  0  0  0  0  0  0  0  0  0
   54.2928    6.1366   22.8014 O   0  0  0  0  0  0  0  0  0  0  0  0
   50.6139    4.8454   21.0002 C   0  0  0  0  0  0  0  0  0  0  0  0
   51.1966    6.7174   22.5375 C   0  0  0  0  0  0  0  0  0  0  0  0
   48.4046    7.2501   14.5942 C   0  0  0  0  0  0  0  0  0  0  0  0
   48.5999    6.4804   13.4386 C   0  0  0  0  0  0  0  0  0  0  0  0
   47.8417    8.5283   14.4713 C   0  0  0  0  0  0  0  0  0  0  0  0
   48.2196    6.9722   12.1883 C   0  0  0  0  0  0  0  0  0  0  0  0
   47.4623    9.0183   13.2210 C   0  0  0  0  0  0  0  0  0  0  0  0
   47.6482    8.2387   12.0808 C   0  0  0  0  0  0  0  0  0  0  0  0
   50.3708    6.8487   18.1389 O   0  0  0  0  0  0  0  0  0  0  0  0
   50.3688    6.8501   18.1347 O   0  0  0  0  0  0  0  0  0  0  0  0
   50.3689    6.8500   18.1345 O   0  0  0  0  0  0  0  0  0  0  0  0
   51.0161    6.2150   18.4872 H   0  0  0  0  0  0  0  0  0  0  0  0
   50.3775    6.6865   17.1836 H   0  0  0  0  0  0  0  0  0  0  0  0
   52.6324    4.6514   18.1921 H   0  0  0  0  0  0  0  0  0  0  0  0
   50.3630    4.1638   17.3169 H   0  0  0  0  0  0  0  0  0  0  0  0
   50.9368    4.6893   21.8994 H   0  0  0  0  0  0  0  0  0  0  0  0
   48.9976    6.6425   18.0328 H   0  0  0  0  0  0  0  0  0  0  0  0
   50.1659    8.9583   16.3375 H   0  0  0  0  0  0  0  0  0  0  0  0
   48.5947    8.2354   16.6125 H   0  0  0  0  0  0  0  0  0  0  0  0
   54.3215    3.0111   21.1536 H   0  0  0  0  0  0  0  0  0  0  0  0
   50.3744    7.0306   22.5226 H   0  0  0  0  0  0  0  0  0  0  0  0
   50.7135    8.3032   21.3515 H   0  0  0  0  0  0  0  0  0  0  0  0
   49.7516    6.9033   20.8789 H   0  0  0  0  0  0  0  0  0  0  0  0
   54.0356    6.6613   21.5997 H   0  0  0  0  0  0  0  0  0  0  0  0
   52.9243    6.8637   22.9647 H   0  0  0  0  0  0  0  0  0  0  0  0
   53.1215    8.1589   21.7899 H   0  0  0  0  0  0  0  0  0  0  0  0
   47.2315    7.3242   14.7271 H   0  0  0  0  0  0  0  0  0  0  0  0
   51.0602    9.1952   14.0297 H   0  0  0  0  0  0  0  0  0  0  0  0
   46.6968    7.5489   12.3281 H   0  0  0  0  0  0  0  0  0  0  0  0
   50.5040    9.4183   11.6350 H   0  0  0  0  0  0  0  0  0  0  0  0
   48.3235    8.5995   10.7785 H   0  0  0  0  0  0  0  0  0  0  0  0
   49.0762    5.5894   15.5462 H   0  0  0  0  0  0  0  0  0  0  0  0
   50.8221    5.0443   19.7337 H   0  0  0  0  0  0  0  0  0  0  0  0
   50.4003    8.1732   16.0472 H   0  0  0  0  0  0  0  0  0  0  0  0
   51.0271    6.9125   14.9858 H   0  0  0  0  0  0  0  0  0  0  0  0
   50.6671    7.1190   20.9895 H   0  0  0  0  0  0  0  0  0  0  0  0
   52.2243    7.5727   20.3006 H   0  0  0  0  0  0  0  0  0  0  0  0
   51.1960    5.3280   16.7437 H   0  0  0  0  0  0  0  0  0  0  0  0
   49.7388    4.7852   17.5621 H   0  0  0  0  0  0  0  0  0  0  0  0
   49.6106    6.9286   18.8467 H   0  0  0  0  0  0  0  0  0  0  0  0
   51.1197    7.4697   18.0871 H   0  0  0  0  0  0  0  0  0  0  0  0
   54.2422    6.0078   20.6835 H   0  0  0  0  0  0  0  0  0  0  0  0
   50.5522    5.6455   22.8873 H   0  0  0  0  0  0  0  0  0  0  0  0
   48.0228    9.0811   15.6110 H   0  0  0  0  0  0  0  0  0  0  0  0
   50.1982    6.7095   12.7393 H   0  0  0  0  0  0  0  0  0  0  0  0
   55.4117    4.7300   22.4508 H   0  0  0  0  0  0  0  0  0  0  0  0
   46.5742    9.9351   13.7960 H   0  0  0  0  0  0  0  0  0  0  0  0
   48.7386    7.5635   10.9393 H   0  0  0  0  0  0  0  0  0  0  0  0
   51.7321    4.3663   24.6389 H   0  0  0  0  0  0  0  0  0  0  0  0
   54.1611    3.9077   24.4299 H   0  0  0  0  0  0  0  0  0  0  0  0
   46.9287    9.1790   11.4588 H   0  0  0  0  0  0  0  0  0  0  0  0
   52.9390    8.1302   18.7106 H   0  0  0  0  0  0  0  0  0  0  0  0
   52.9835    6.6022   16.7499 H   0  0  0  0  0  0  0  0  0  0  0  0
   53.2095    4.7871   21.0256 H   0  0  0  0  0  0  0  0  0  0  0  0
   50.4470    5.2037   17.1814 H   0  0  0  0  0  0  0  0  0  0  0  0
   48.1298    7.1072   16.7204 H   0  0  0  0  0  0  0  0  0  0  0  0
   48.6871    5.6310   15.9559 H   0  0  0  0  0  0  0  0  0  0  0  0
   54.9058    6.7919   23.1991 H   0  0  0  0  0  0  0  0  0  0  0  0
   50.6730    4.4113   19.9973 H   0  0  0  0  0  0  0  0  0  0  0  0
   49.5559    5.0365   21.2111 H   0  0  0  0  0  0  0  0  0  0  0  0
   50.9470    4.0775   21.7084 H   0  0  0  0  0  0  0  0  0  0  0  0
   51.6924    7.6847   22.6784 H   0  0  0  0  0  0  0  0  0  0  0  0
   50.1247    6.8747   22.7105 H   0  0  0  0  0  0  0  0  0  0  0  0
   51.5504    6.0411   23.3249 H   0  0  0  0  0  0  0  0  0  0  0  0
   49.0482    5.4913   13.5018 H   0  0  0  0  0  0  0  0  0  0  0  0
   47.7044    9.1536   15.3509 H   0  0  0  0  0  0  0  0  0  0  0  0
   48.3725    6.3695   11.2969 H   0  0  0  0  0  0  0  0  0  0  0  0
   47.0274   10.0112   13.1378 H   0  0  0  0  0  0  0  0  0  0  0  0
   47.3537    8.6225   11.1079 H   0  0  0  0  0  0  0  0  0  0  0  0
   51.0157    6.2153   18.4874 H   0  0  0  0  0  0  0  0  0  0  0  0
   50.3779    6.6860   17.1837 H   0  0  0  0  0  0  0  0  0  0  0  0
   51.0118    6.2207   18.4944 H   0  0  0  0  0  0  0  0  0  0  0  0
   50.3838    6.6792   17.1809 H   0  0  0  0  0  0  0  0  0  0  0  0
   51.0116    6.2209   18.4944 H   0  0  0  0  0  0  0  0  0  0  0  0
   50.3839    6.6791   17.1811 H   0  0  0  0  0  0  0  0  0  0  0  0
  3  2  1  0
  4  2  1  0
  5  3  1  0
  6  2  1  0
  3  7  1  0
  8  6  1  0
  5  9  1  0
  6 10  1  0
 11  9  1  0
 12  4  2  0
 13 10  2  0
 14 11  2  0
 15 11  1  0
 16 10  1  0
 17  8  1  0
 18  8  1  0
 19 15  1  0
 20 19  2  0
 21 19  1  0
 22 20  1  0
 23 21  2  0
 24 23  1  0
  7  8  1  0
  4  5  1  0
 24 22  2  0
 26 32  1  0
 27 30  1  0
 28 29  1  0
 29 25  1  0
 30 26  1  0
 31 25  1  0
 32 31  1  0
 33 27  2  0
 34 27  1  0
 35 28  2  0
 36 28  1  0
 37 33  1  0
 38 35  1  0
 39 36  2  0
 40 34  2  0
 41 37  2  0
 42 39  1  0
 42 38  2  0
 40 41  1  0
 44 43  1  0
 45 43  1  0
 46 44  1  0
 47 43  1  0
 44 48  1  0
 49 47  1  0
 46 50  1  0
 47 51  1  0
 52 50  1  0
 53 45  2  0
 54 51  2  0
 55 52  2  0
 56 52  1  0
 57 51  1  0
 58 49  1  0
 59 49  1  0
 60 56  1  0
 61 60  2  0
 62 60  1  0
 63 61  1  0
 64 62  2  0
 65 64  1  0
 48 49  1  0
 45 46  1  0
 65 63  2  0
  1 69  1  0
  1 70  1  0
  3 71  1  1
  5 72  1  6
  6 73  1  6
  9 74  1  0
 15 75  1  0
 15 76  1  0
 16 77  1  0
 17 78  1  0
 17 79  1  0
 17 80  1  0
 18 81  1  0
 18 82  1  0
 18 83  1  0
 20 84  1  0
 21 85  1  0
 22 86  1  0
 23 87  1  0
 24 88  1  0
 25 89  1  0
 26 90  1  0
 29 91  1  0
 29 92  1  0
 30 93  1  0
 30 94  1  0
 31 95  1  0
 31 96  1  0
 32 97  1  0
 32 98  1  0
 33 99  1  0
 34100  1  0
 35101  1  0
 36102  1  0
 37103  1  0
 38104  1  0
 39105  1  0
 40106  1  0
 41107  1  0
 42108  1  0
 44109  1  1
 46110  1  1
 47111  1  6
 50112  1  0
 56113  1  0
 56114  1  0
 57115  1  0
 58116  1  0
 58117  1  0
 58118  1  0
 59119  1  0
 59120  1  0
 59121  1  0
 61122  1  0
 62123  1  0
 63124  1  0
 64125  1  0
 65126  1  0
 66127  1  0
 66128  1  0
 67129  1  0
 67130  1  0
 68131  1  0
 68132  1  0
M  END
> <Uni-Dock RESULT> 
ENERGY=   -6.524  LOWER_BOUND=    5.825  UPPER_BOUND=    7.850
INTER + INTRA:          -6.524
INTER:                  -6.524
INTRA:                   0.000
UNBOUND:                 0.000

$$$$

     RDKit          3D

132133  0  0  0  0  0  0  0  0999 V2000
   50.8048    7.2737   19.2826 O   0  0  0  0  0  0  0  0  0  0  0  0
   53.3946    6.4611   17.8368 N   0  0  0  0  0  0  0  0  0  0  0  0
   53.0572    7.2947   19.0011 C   0  0  1  0  0  0  0  0  0  0  0  0
   52.3120    6.8672   17.1126 C   0  0  0  0  0  0  0  0  0  0  0  0
   52.0239    8.0243   18.0974 C   0  0  1  0  0  0  0  0  0  0  0  0
   53.6835    5.0515   18.0790 C   0  0  2  0  0  0  0  0  0  0  0  0
   52.4043    6.1179   20.2561 S   0  0  0  0  0  0  0  0  0  0  0  0
   52.7943    4.5987   19.2668 C   0  0  0  0  0  0  0  0  0  0  0  0
   50.6253    8.1291   18.5949 N   0  0  0  0  0  0  0  0  0  0  0  0
   55.1848    4.8392   18.3030 C   0  0  0  0  0  0  0  0  0  0  0  0
   50.3241    8.9408   19.6695 C   0  0  0  0  0  0  0  0  0  0  0  0
   51.7678    6.3769   16.1506 O   0  0  0  0  0  0  0  0  0  0  0  0
   55.7447    3.7549   18.3866 O   0  0  0  0  0  0  0  0  0  0  0  0
   51.1746    9.6511   20.1991 O   0  0  0  0  0  0  0  0  0  0  0  0
   48.8880    8.8327   20.1512 C   0  0  0  0  0  0  0  0  0  0  0  0
   55.9113    5.9684   18.4360 O   0  0  0  0  0  0  0  0  0  0  0  0
   51.4604    4.0191   18.7635 C   0  0  0  0  0  0  0  0  0  0  0  0
   53.4292    3.5788   20.2216 C   0  0  0  0  0  0  0  0  0  0  0  0
   48.2414   10.1678   20.4194 C   0  0  0  0  0  0  0  0  0  0  0  0
   47.5535   10.8456   19.4030 C   0  0  0  0  0  0  0  0  0  0  0  0
   48.3377   10.7601   21.6869 C   0  0  0  0  0  0  0  0  0  0  0  0
   46.9567   12.0824   19.6563 C   0  0  0  0  0  0  0  0  0  0  0  0
   47.7405   11.9965   21.9383 C   0  0  0  0  0  0  0  0  0  0  0  0
   47.0487   12.6556   20.9238 C   0  0  0  0  0  0  0  0  0  0  0  0
   50.0314    9.3194   18.7990 N   0  0  0  0  0  0  0  0  0  0  0  0
   52.4286    6.3825   18.9277 N   0  0  0  0  0  0  0  0  0  0  0  0
   53.5749    4.2231   19.0153 C   0  0  0  0  0  0  0  0  0  0  0  0
   48.4934   10.5508   20.2472 C   0  0  0  0  0  0  0  0  0  0  0  0
   49.7127    9.6622   20.1864 C   0  0  0  0  0  0  0  0  0  0  0  0
   52.3169    4.9865   19.3507 C   0  0  0  0  0  0  0  0  0  0  0  0
   51.2859    8.5660   18.6866 C   0  0  0  0  0  0  0  0  0  0  0  0
   51.1710    7.1025   19.1589 C   0  0  0  0  0  0  0  0  0  0  0  0
   54.7268    4.3720   19.8020 C   0  0  0  0  0  0  0  0  0  0  0  0
   53.6212    3.3732   17.9005 C   0  0  0  0  0  0  0  0  0  0  0  0
   47.2128   10.0079   20.0656 C   0  0  0  0  0  0  0  0  0  0  0  0
   48.6219   11.9317   20.4560 C   0  0  0  0  0  0  0  0  0  0  0  0
   55.8943    3.6731   19.4902 C   0  0  0  0  0  0  0  0  0  0  0  0
   46.0828   10.8255   20.1105 C   0  0  0  0  0  0  0  0  0  0  0  0
   47.4902   12.7486   20.4999 C   0  0  0  0  0  0  0  0  0  0  0  0
   54.7903    2.6759   17.5892 C   0  0  0  0  0  0  0  0  0  0  0  0
   55.9250    2.8235   18.3855 C   0  0  0  0  0  0  0  0  0  0  0  0
   46.2218   12.1952   20.3283 C   0  0  0  0  0  0  0  0  0  0  0  0
   53.5968    6.2218   20.3495 N   0  0  0  0  0  0  0  0  0  0  0  0
   52.1808    6.4334   20.7022 C   0  0  1  0  0  0  0  0  0  0  0  0
   53.7379    7.4600   19.7918 C   0  0  0  0  0  0  0  0  0  0  0  0
   52.4017    7.9437   20.4053 C   0  0  1  0  0  0  0  0  0  0  0  0
   53.9218    5.0072   19.6137 C   0  0  2  0  0  0  0  0  0  0  0  0
   51.2275    5.4591   19.4594 S   0  0  0  0  0  0  0  0  0  0  0  0
   52.7225    4.6736   18.6969 C   0  0  0  0  0  0  0  0  0  0  0  0
   51.4564    8.6094   19.4682 N   0  0  0  0  0  0  0  0  0  0  0  0
   54.2311    3.9215   20.6410 C   0  0  0  0  0  0  0  0  0  0  0  0
   50.1532    8.8619   19.8481 C   0  0  0  0  0  0  0  0  0  0  0  0
   54.5541    7.8925   19.0119 O   0  0  0  0  0  0  0  0  0  0  0  0
   53.7433    3.7886   21.7514 O   0  0  0  0  0  0  0  0  0  0  0  0
   49.7505    8.6019   20.9782 O   0  0  0  0  0  0  0  0  0  0  0  0
   49.2798    9.4275   18.7402 C   0  0  0  0  0  0  0  0  0  0  0  0
   55.1256    3.0145   20.1860 O   0  0  0  0  0  0  0  0  0  0  0  0
   52.9054    5.2938   17.3013 C   0  0  0  0  0  0  0  0  0  0  0  0
   52.4398    3.1750   18.5263 C   0  0  0  0  0  0  0  0  0  0  0  0
   48.3489   10.5226   19.1984 C   0  0  0  0  0  0  0  0  0  0  0  0
   48.7434   11.8667   19.1400 C   0  0  0  0  0  0  0  0  0  0  0  0
   47.0798   10.2090   19.7050 C   0  0  0  0  0  0  0  0  0  0  0  0
   47.8764   12.8774   19.5603 C   0  0  0  0  0  0  0  0  0  0  0  0
   46.2146   11.2203   20.1247 C   0  0  0  0  0  0  0  0  0  0  0  0
   46.6120   12.5540   20.0489 C   0  0  0  0  0  0  0  0  0  0  0  0
   50.8046    7.2738   19.2826 O   0  0  0  0  0  0  0  0  0  0  0  0
   50.8014    7.2774   19.2834 O   0  0  0  0  0  0  0  0  0  0  0  0
   50.8014    7.2776   19.2835 O   0  0  0  0  0  0  0  0  0  0  0  0
   51.7621    7.1466   19.2020 H   0  0  0  0  0  0  0  0  0  0  0  0
   50.7091    8.2241   19.4465 H   0  0  0  0  0  0  0  0  0  0  0  0
   53.8927    7.9113   19.3437 H   0  0  0  0  0  0  0  0  0  0  0  0
   52.3726    8.9880   17.7054 H   0  0  0  0  0  0  0  0  0  0  0  0
   53.4360    4.4955   17.1656 H   0  0  0  0  0  0  0  0  0  0  0  0
   49.9183    7.4980   18.2321 H   0  0  0  0  0  0  0  0  0  0  0  0
   48.8911    8.2237   21.0641 H   0  0  0  0  0  0  0  0  0  0  0  0
   48.2801    8.2809   19.4239 H   0  0  0  0  0  0  0  0  0  0  0  0
   56.8291    5.6547   18.5697 H   0  0  0  0  0  0  0  0  0  0  0  0
   51.6349    3.1100   18.1768 H   0  0  0  0  0  0  0  0  0  0  0  0
   50.7986    3.7443   19.5925 H   0  0  0  0  0  0  0  0  0  0  0  0
   50.9105    4.7157   18.1255 H   0  0  0  0  0  0  0  0  0  0  0  0
   54.3371    3.9635   20.6992 H   0  0  0  0  0  0  0  0  0  0  0  0
   53.6922    2.6580   19.6897 H   0  0  0  0  0  0  0  0  0  0  0  0
   52.7372    3.2932   21.0243 H   0  0  0  0  0  0  0  0  0  0  0  0
   47.4768   10.4169   18.4063 H   0  0  0  0  0  0  0  0  0  0  0  0
   48.8883   10.2645   22.4843 H   0  0  0  0  0  0  0  0  0  0  0  0
   46.4238   12.6018   18.8637 H   0  0  0  0  0  0  0  0  0  0  0  0
   47.8218   12.4468   22.9248 H   0  0  0  0  0  0  0  0  0  0  0  0
   46.5863   13.6191   21.1198 H   0  0  0  0  0  0  0  0  0  0  0  0
   50.1255   10.1913   18.2769 H   0  0  0  0  0  0  0  0  0  0  0  0
   52.6537    6.4003   17.9332 H   0  0  0  0  0  0  0  0  0  0  0  0
   49.5108    8.7626   20.7793 H   0  0  0  0  0  0  0  0  0  0  0  0
   50.5594   10.1751   20.6607 H   0  0  0  0  0  0  0  0  0  0  0  0
   51.4590    4.5015   18.8673 H   0  0  0  0  0  0  0  0  0  0  0  0
   52.1460    4.9267   20.4333 H   0  0  0  0  0  0  0  0  0  0  0  0
   52.0949    9.0825   19.2193 H   0  0  0  0  0  0  0  0  0  0  0  0
   51.5667    8.5638   17.6256 H   0  0  0  0  0  0  0  0  0  0  0  0
   50.3529    6.6128   18.6162 H   0  0  0  0  0  0  0  0  0  0  0  0
   50.9327    7.0751   20.2278 H   0  0  0  0  0  0  0  0  0  0  0  0
   54.7156    5.0425   20.6593 H   0  0  0  0  0  0  0  0  0  0  0  0
   52.7461    3.2497   17.2665 H   0  0  0  0  0  0  0  0  0  0  0  0
   47.0968    8.9417   19.8805 H   0  0  0  0  0  0  0  0  0  0  0  0
   49.6045   12.3792   20.5864 H   0  0  0  0  0  0  0  0  0  0  0  0
   56.7803    3.7949   20.1075 H   0  0  0  0  0  0  0  0  0  0  0  0
   45.0954   10.3937   19.9696 H   0  0  0  0  0  0  0  0  0  0  0  0
   47.5983   13.8176   20.6638 H   0  0  0  0  0  0  0  0  0  0  0  0
   54.8159    2.0169   16.7253 H   0  0  0  0  0  0  0  0  0  0  0  0
   56.8351    2.2812   18.1421 H   0  0  0  0  0  0  0  0  0  0  0  0
   45.3417   12.8321   20.3612 H   0  0  0  0  0  0  0  0  0  0  0  0
   51.9587    6.1901   21.7441 H   0  0  0  0  0  0  0  0  0  0  0  0
   52.5642    8.5600   21.2991 H   0  0  0  0  0  0  0  0  0  0  0  0
   54.8352    5.1916   19.0354 H   0  0  0  0  0  0  0  0  0  0  0  0
   51.7262    8.7455   18.4992 H   0  0  0  0  0  0  0  0  0  0  0  0
   48.7014    8.5949   18.3172 H   0  0  0  0  0  0  0  0  0  0  0  0
   49.9040    9.8082   17.9230 H   0  0  0  0  0  0  0  0  0  0  0  0
   55.2295    2.3886   20.9348 H   0  0  0  0  0  0  0  0  0  0  0  0
   53.0150    6.3823   17.3319 H   0  0  0  0  0  0  0  0  0  0  0  0
   52.0575    5.0697   16.6447 H   0  0  0  0  0  0  0  0  0  0  0  0
   53.8012    4.8891   16.8155 H   0  0  0  0  0  0  0  0  0  0  0  0
   52.1997    2.6838   19.4763 H   0  0  0  0  0  0  0  0  0  0  0  0
   51.5957    2.9986   17.8481 H   0  0  0  0  0  0  0  0  0  0  0  0
   53.3080    2.6632   18.0939 H   0  0  0  0  0  0  0  0  0  0  0  0
   49.7279   12.1388   18.7657 H   0  0  0  0  0  0  0  0  0  0  0  0
   46.7620    9.1715   19.7838 H   0  0  0  0  0  0  0  0  0  0  0  0
   48.1882   13.9175   19.5107 H   0  0  0  0  0  0  0  0  0  0  0  0
   45.2331   10.9651   20.5164 H   0  0  0  0  0  0  0  0  0  0  0  0
   45.9377   13.3400   20.3777 H   0  0  0  0  0  0  0  0  0  0  0  0
   51.7616    7.1463   19.2020 H   0  0  0  0  0  0  0  0  0  0  0  0
   50.7098    8.2241   19.4464 H   0  0  0  0  0  0  0  0  0  0  0  0
   51.7568    7.1380   19.2009 H   0  0  0  0  0  0  0  0  0  0  0  0
   50.7179    8.2289   19.4467 H   0  0  0  0  0  0  0  0  0  0  0  0
   51.7565    7.1380   19.2009 H   0  0  0  0  0  0  0  0  0  0  0  0
   50.7180    8.2288   19.4467 H   0  0  0  0  0  0  0  0  0  0  0  0
  3  2  1  0
  4  2  1  0
  5  3  1  0
  6  2  1  0
  3  7  1  0
  8  6  1  0
  5  9  1  0
  6 10  1  0
 11  9  1  0
 12  4  2  0
 13 10  2  0
 14 11  2  0
 15 11  1  0
 16 10  1  0
 17  8  1  0
 18  8  1  0
 19 15  1  0
 20 19  2  0
 21 19  1  0
 22 20  1  0
 23 21  2  0
 24 23  1  0
  7  8  1  0
  4  5  1  0
 24 22  2  0
 26 32  1  0
 27 30  1  0
 28 29  1  0
 29 25  1  0
 30 26  1  0
 31 25  1  0
 32 31  1  0
 33 27  2  0
 34 27  1  0
 35 28  2  0
 36 28  1  0
 37 33  1  0
 38 35  1  0
 39 36  2  0
 40 34  2  0
 41 37  2  0
 42 39  1  0
 42 38  2  0
 40 41  1  0
 44 43  1  0
 45 43  1  0
 46 44  1  0
 47 43  1  0
 44 48  1  0
 49 47  1  0
 46 50  1  0
 47 51  1  0
 52 50  1  0
 53 45  2  0
 54 51  2  0
 55 52  2  0
 56 52  1  0
 57 51  1  0
 58 49  1  0
 59 49  1  0
 60 56  1  0
 61 60  2  0
 62 60  1  0
 63 61  1  0
 64 62  2  0
 65 64  1  0
 48 49  1  0
 45 46  1  0
 65 63  2  0
  1 69  1  0
  1 70  1  0
  3 71  1  1
  5 72  1  6
  6 73  1  6
  9 74  1  0
 15 75  1  0
 15 76  1  0
 16 77  1  0
 17 78  1  0
 17 79  1  0
 17 80  1  0
 18 81  1  0
 18 82  1  0
 18 83  1  0
 20 84  1  0
 21 85  1  0
 22 86  1  0
 23 87  1  0
 24 88  1  0
 25 89  1  0
 26 90  1  0
 29 91  1  0
 29 92  1  0
 30 93  1  0
 30 94  1  0
 31 95  1  0
 31 96  1  0
 32 97  1  0
 32 98  1  0
 33 99  1  0
 34100  1  0
 35101  1  0
 36102  1  0
 37103  1  0
 38104  1  0
 39105  1  0
 40106  1  0
 41107  1  0
 42108  1  0
 44109  1  1
 46110  1  1
 47111  1  6
 50112  1  0
 56113  1  0
 56114  1  0
 57115  1  0
 58116  1  0
 58117  1  0
 58118  1  0
 59119  1  0
 59120  1  0
 59121  1  0
 61122  1  0
 62123  1  0
 63124  1  0
 64125  1  0
 65126  1  0
 66127  1  0
 66128  1  0
 67129  1  0
 67130  1  0
 68131  1  0
 68132  1  0
M  END
> <Uni-Dock RESULT> 
ENERGY=   -6.492  LOWER_BOUND=    7.281  UPPER_BOUND=    9.711
INTER + INTRA:          -6.492
INTER:                  -6.492
INTRA:                   0.000
UNBOUND:                 0.000

$$$$
