
     RDKit          3D

132133  0  0  0  0  0  0  0  0999 V2000
   48.3694    8.0003   13.2975 O   0  0  0  0  0  0  0  0  0  0  0  0
   50.5122    9.7063   12.1661 N   0  0  0  0  0  0  0  0  0  0  0  0
   49.0607    9.7810   12.4382 C   0  0  1  0  0  0  0  0  0  0  0  0
   50.4323    8.4563   11.6127 C   0  0  0  0  0  0  0  0  0  0  0  0
   48.8889    8.4966   11.5900 C   0  0  1  0  0  0  0  0  0  0  0  0
   51.4276    9.9309   13.2849 C   0  0  2  0  0  0  0  0  0  0  0  0
   48.9669    9.6387   14.2725 S   0  0  0  0  0  0  0  0  0  0  0  0
   50.6074   10.4895   14.4637 C   0  0  0  0  0  0  0  0  0  0  0  0
   48.1959    7.3426   12.2226 N   0  0  0  0  0  0  0  0  0  0  0  0
   52.5742   10.8335   12.8499 C   0  0  0  0  0  0  0  0  0  0  0  0
   46.8297    7.3632   12.4184 C   0  0  0  0  0  0  0  0  0  0  0  0
   51.2891    7.6287   11.4014 O   0  0  0  0  0  0  0  0  0  0  0  0
   52.5679   11.6617   11.9534 O   0  0  0  0  0  0  0  0  0  0  0  0
   46.1372    8.2978   12.0221 O   0  0  0  0  0  0  0  0  0  0  0  0
   46.2863    6.1747   13.1935 C   0  0  0  0  0  0  0  0  0  0  0  0
   53.6768   10.6732   13.6116 O   0  0  0  0  0  0  0  0  0  0  0  0
   51.2058   10.0979   15.8169 C   0  0  0  0  0  0  0  0  0  0  0  0
   50.3717   12.0061   14.4113 C   0  0  0  0  0  0  0  0  0  0  0  0
   45.1088    5.5062   12.5279 C   0  0  0  0  0  0  0  0  0  0  0  0
   43.8159    6.0221   12.6914 C   0  0  0  0  0  0  0  0  0  0  0  0
   45.2893    4.3662   11.7307 C   0  0  0  0  0  0  0  0  0  0  0  0
   42.7235    5.3977   12.0877 C   0  0  0  0  0  0  0  0  0  0  0  0
   44.1941    3.7435   11.1292 C   0  0  0  0  0  0  0  0  0  0  0  0
   42.9114    4.2567   11.3105 C   0  0  0  0  0  0  0  0  0  0  0  0
   47.2654    8.2867   12.1861 N   0  0  0  0  0  0  0  0  0  0  0  0
   49.6103    8.2835   13.8655 N   0  0  0  0  0  0  0  0  0  0  0  0
   51.1646   10.1639   13.7038 C   0  0  0  0  0  0  0  0  0  0  0  0
   45.2198    6.8778   12.4633 C   0  0  0  0  0  0  0  0  0  0  0  0
   46.1354    7.9264   13.0517 C   0  0  0  0  0  0  0  0  0  0  0  0
   50.6576    8.9015   13.0481 C   0  0  0  0  0  0  0  0  0  0  0  0
   48.2461    7.1961   12.0430 C   0  0  0  0  0  0  0  0  0  0  0  0
   49.1432    7.0119   13.2878 C   0  0  0  0  0  0  0  0  0  0  0  0
   52.3766   10.1693   14.4088 C   0  0  0  0  0  0  0  0  0  0  0  0
   50.4123   11.3465   13.6374 C   0  0  0  0  0  0  0  0  0  0  0  0
   44.6585    7.0528   11.1897 C   0  0  0  0  0  0  0  0  0  0  0  0
   44.8958    5.7256   13.1933 C   0  0  0  0  0  0  0  0  0  0  0  0
   52.8328   11.3390   15.0200 C   0  0  0  0  0  0  0  0  0  0  0  0
   43.8039    6.0901   10.6513 C   0  0  0  0  0  0  0  0  0  0  0  0
   44.0417    4.7618   12.6531 C   0  0  0  0  0  0  0  0  0  0  0  0
   50.8707   12.5140   14.2480 C   0  0  0  0  0  0  0  0  0  0  0  0
   52.0818   12.5111   14.9369 C   0  0  0  0  0  0  0  0  0  0  0  0
   43.4977    4.9434   11.3828 C   0  0  0  0  0  0  0  0  0  0  0  0
   49.1916   11.0791   13.0113 N   0  0  0  0  0  0  0  0  0  0  0  0
   48.3075   10.1716   13.7651 C   0  0  1  0  0  0  0  0  0  0  0  0
   48.9331   10.4815   11.8114 C   0  0  0  0  0  0  0  0  0  0  0  0
   47.7315    9.7059   12.3976 C   0  0  1  0  0  0  0  0  0  0  0  0
   50.5501   11.2495   13.5058 C   0  0  2  0  0  0  0  0  0  0  0  0
   49.4434    9.0121   14.6373 S   0  0  0  0  0  0  0  0  0  0  0  0
   50.9892    9.9193   14.1626 C   0  0  0  0  0  0  0  0  0  0  0  0
   47.6995    8.2446   12.1193 N   0  0  0  0  0  0  0  0  0  0  0  0
   50.5381   12.4386   14.4627 C   0  0  0  0  0  0  0  0  0  0  0  0
   46.8071    7.4225   12.7770 C   0  0  0  0  0  0  0  0  0  0  0  0
   49.5409   10.4993   10.7662 O   0  0  0  0  0  0  0  0  0  0  0  0
   49.6379   12.7766   15.2139 O   0  0  0  0  0  0  0  0  0  0  0  0
   45.9782    7.8693   13.5643 O   0  0  0  0  0  0  0  0  0  0  0  0
   46.9815    5.9439   12.4770 C   0  0  0  0  0  0  0  0  0  0  0  0
   51.6989   13.1289   14.4474 O   0  0  0  0  0  0  0  0  0  0  0  0
   51.7470    9.0355   13.1580 C   0  0  0  0  0  0  0  0  0  0  0  0
   51.8535   10.0770   15.4206 C   0  0  0  0  0  0  0  0  0  0  0  0
   45.6829    5.2277   12.2011 C   0  0  0  0  0  0  0  0  0  0  0  0
   45.1718    5.1481   10.8976 C   0  0  0  0  0  0  0  0  0  0  0  0
   44.9571    4.6468   13.2511 C   0  0  0  0  0  0  0  0  0  0  0  0
   43.9685    4.4842   10.6489 C   0  0  0  0  0  0  0  0  0  0  0  0
   43.7552    3.9835   13.0002 C   0  0  0  0  0  0  0  0  0  0  0  0
   43.2640    3.8987   11.6990 C   0  0  0  0  0  0  0  0  0  0  0  0
   48.3675    7.9989   13.2969 O   0  0  0  0  0  0  0  0  0  0  0  0
   48.3770    8.0058   13.2997 O   0  0  0  0  0  0  0  0  0  0  0  0
   48.3675    7.9987   13.2971 O   0  0  0  0  0  0  0  0  0  0  0  0
   48.8341    8.8106   13.0416 H   0  0  0  0  0  0  0  0  0  0  0  0
   47.6235    7.9547   12.6808 H   0  0  0  0  0  0  0  0  0  0  0  0
   48.6021   10.6828   12.0214 H   0  0  0  0  0  0  0  0  0  0  0  0
   48.5053    8.6773   10.5772 H   0  0  0  0  0  0  0  0  0  0  0  0
   51.8705    8.9592   13.5499 H   0  0  0  0  0  0  0  0  0  0  0  0
   48.7479    6.6235   12.6822 H   0  0  0  0  0  0  0  0  0  0  0  0
   45.9983    6.5302   14.1900 H   0  0  0  0  0  0  0  0  0  0  0  0
   47.0770    5.4332   13.3599 H   0  0  0  0  0  0  0  0  0  0  0  0
   54.3355   11.2772   13.2082 H   0  0  0  0  0  0  0  0  0  0  0  0
   52.1834   10.5723   15.9609 H   0  0  0  0  0  0  0  0  0  0  0  0
   51.3527    9.0138   15.9001 H   0  0  0  0  0  0  0  0  0  0  0  0
   50.5666   10.4159   16.6496 H   0  0  0  0  0  0  0  0  0  0  0  0
   51.3086   12.5520   14.5715 H   0  0  0  0  0  0  0  0  0  0  0  0
   49.9646   12.3322   13.4471 H   0  0  0  0  0  0  0  0  0  0  0  0
   49.6779   12.3294   15.1977 H   0  0  0  0  0  0  0  0  0  0  0  0
   43.6542    6.9195   13.2857 H   0  0  0  0  0  0  0  0  0  0  0  0
   46.2822    3.9505   11.5743 H   0  0  0  0  0  0  0  0  0  0  0  0
   41.7250    5.8055   12.2220 H   0  0  0  0  0  0  0  0  0  0  0  0
   44.3408    2.8565   10.5178 H   0  0  0  0  0  0  0  0  0  0  0  0
   42.0599    3.7716   10.8407 H   0  0  0  0  0  0  0  0  0  0  0  0
   47.7674    9.0438   12.6631 H   0  0  0  0  0  0  0  0  0  0  0  0
   50.0025    8.1032   14.7903 H   0  0  0  0  0  0  0  0  0  0  0  0
   46.4906    7.6199   14.0425 H   0  0  0  0  0  0  0  0  0  0  0  0
   45.5326    8.8280   13.2176 H   0  0  0  0  0  0  0  0  0  0  0  0
   51.4944    8.2062   12.9029 H   0  0  0  0  0  0  0  0  0  0  0  0
   50.2829    9.1579   12.0504 H   0  0  0  0  0  0  0  0  0  0  0  0
   47.7695    6.2464   11.7759 H   0  0  0  0  0  0  0  0  0  0  0  0
   48.8863    7.4553   11.1914 H   0  0  0  0  0  0  0  0  0  0  0  0
   48.5586    6.4962   14.0593 H   0  0  0  0  0  0  0  0  0  0  0  0
   49.9871    6.3541   13.0509 H   0  0  0  0  0  0  0  0  0  0  0  0
   52.9739    9.2640   14.4854 H   0  0  0  0  0  0  0  0  0  0  0  0
   49.4616   11.3565   13.1095 H   0  0  0  0  0  0  0  0  0  0  0  0
   44.9000    7.9425   10.6112 H   0  0  0  0  0  0  0  0  0  0  0  0
   45.3073    5.5700   14.1874 H   0  0  0  0  0  0  0  0  0  0  0  0
   53.7756   11.3371   15.5616 H   0  0  0  0  0  0  0  0  0  0  0  0
   43.3836    6.2333    9.6594 H   0  0  0  0  0  0  0  0  0  0  0  0
   43.7984    3.8694   13.2232 H   0  0  0  0  0  0  0  0  0  0  0  0
   50.2818   13.4252   14.1877 H   0  0  0  0  0  0  0  0  0  0  0  0
   52.4382   13.4205   15.4144 H   0  0  0  0  0  0  0  0  0  0  0  0
   42.8345    4.1925   10.9601 H   0  0  0  0  0  0  0  0  0  0  0  0
   47.6045   10.7032   14.4131 H   0  0  0  0  0  0  0  0  0  0  0  0
   46.7762   10.1758   12.1287 H   0  0  0  0  0  0  0  0  0  0  0  0
   51.1937   11.5105   12.6549 H   0  0  0  0  0  0  0  0  0  0  0  0
   48.4404    7.8287   11.5633 H   0  0  0  0  0  0  0  0  0  0  0  0
   47.6552    5.8038   11.6227 H   0  0  0  0  0  0  0  0  0  0  0  0
   47.4894    5.4889   13.3372 H   0  0  0  0  0  0  0  0  0  0  0  0
   51.5519   13.8543   15.0918 H   0  0  0  0  0  0  0  0  0  0  0  0
   51.1606    8.8227   12.2577 H   0  0  0  0  0  0  0  0  0  0  0  0
   52.0334    8.0734   13.5993 H   0  0  0  0  0  0  0  0  0  0  0  0
   52.6712    9.5298   12.8363 H   0  0  0  0  0  0  0  0  0  0  0  0
   51.3325   10.6141   16.2210 H   0  0  0  0  0  0  0  0  0  0  0  0
   52.1542    9.1024   15.8263 H   0  0  0  0  0  0  0  0  0  0  0  0
   52.7742   10.6249   15.1916 H   0  0  0  0  0  0  0  0  0  0  0  0
   45.7049    5.6014   10.0656 H   0  0  0  0  0  0  0  0  0  0  0  0
   45.3207    4.7172   14.2744 H   0  0  0  0  0  0  0  0  0  0  0  0
   43.5780    4.4251    9.6366 H   0  0  0  0  0  0  0  0  0  0  0  0
   43.2005    3.5381   13.8218 H   0  0  0  0  0  0  0  0  0  0  0  0
   42.3272    3.3831   11.5053 H   0  0  0  0  0  0  0  0  0  0  0  0
   47.6232    7.9583   12.6775 H   0  0  0  0  0  0  0  0  0  0  0  0
   48.8364    8.8084   13.0453 H   0  0  0  0  0  0  0  0  0  0  0  0
   47.6241    7.9399   12.6934 H   0  0  0  0  0  0  0  0  0  0  0  0
   48.8260    8.8199   13.0268 H   0  0  0  0  0  0  0  0  0  0  0  0
   47.6231    7.9584   12.6774 H   0  0  0  0  0  0  0  0  0  0  0  0
   48.8364    8.8084   13.0453 H   0  0  0  0  0  0  0  0  0  0  0  0
  3  2  1  0
  4  2  1  0
  5  3  1  0
  6  2  1  0
  3  7  1  0
  8  6  1  0
  5  9  1  0
  6 10  1  0
 11  9  1  0
 12  4  2  0
 13 10  2  0
 14 11  2  0
 15 11  1  0
 16 10  1  0
 17  8  1  0
 18  8  1  0
 19 15  1  0
 20 19  2  0
 21 19  1  0
 22 20  1  0
 23 21  2  0
 24 23  1  0
  7  8  1  0
  4  5  1  0
 24 22  2  0
 26 32  1  0
 27 30  1  0
 28 29  1  0
 29 25  1  0
 30 26  1  0
 31 25  1  0
 32 31  1  0
 33 27  2  0
 34 27  1  0
 35 28  2  0
 36 28  1  0
 37 33  1  0
 38 35  1  0
 39 36  2  0
 40 34  2  0
 41 37  2  0
 42 39  1  0
 42 38  2  0
 40 41  1  0
 44 43  1  0
 45 43  1  0
 46 44  1  0
 47 43  1  0
 44 48  1  0
 49 47  1  0
 46 50  1  0
 47 51  1  0
 52 50  1  0
 53 45  2  0
 54 51  2  0
 55 52  2  0
 56 52  1  0
 57 51  1  0
 58 49  1  0
 59 49  1  0
 60 56  1  0
 61 60  2  0
 62 60  1  0
 63 61  1  0
 64 62  2  0
 65 64  1  0
 48 49  1  0
 45 46  1  0
 65 63  2  0
  1 69  1  0
  1 70  1  0
  3 71  1  1
  5 72  1  6
  6 73  1  6
  9 74  1  0
 15 75  1  0
 15 76  1  0
 16 77  1  0
 17 78  1  0
 17 79  1  0
 17 80  1  0
 18 81  1  0
 18 82  1  0
 18 83  1  0
 20 84  1  0
 21 85  1  0
 22 86  1  0
 23 87  1  0
 24 88  1  0
 25 89  1  0
 26 90  1  0
 29 91  1  0
 29 92  1  0
 30 93  1  0
 30 94  1  0
 31 95  1  0
 31 96  1  0
 32 97  1  0
 32 98  1  0
 33 99  1  0
 34100  1  0
 35101  1  0
 36102  1  0
 37103  1  0
 38104  1  0
 39105  1  0
 40106  1  0
 41107  1  0
 42108  1  0
 44109  1  1
 46110  1  1
 47111  1  6
 50112  1  0
 56113  1  0
 56114  1  0
 57115  1  0
 58116  1  0
 58117  1  0
 58118  1  0
 59119  1  0
 59120  1  0
 59121  1  0
 61122  1  0
 62123  1  0
 63124  1  0
 64125  1  0
 65126  1  0
 66127  1  0
 66128  1  0
 67129  1  0
 67130  1  0
 68131  1  0
 68132  1  0
M  END
> <Uni-Dock RESULT> 
ENERGY=   -7.920  LOWER_BOUND=    0.000  UPPER_BOUND=    0.000
INTER + INTRA:          -7.920
INTER:                  -7.920
INTRA:                   0.000
UNBOUND:                 0.000

$$$$

     RDKit          3D

132133  0  0  0  0  0  0  0  0999 V2000
   47.9075    8.7420   12.6855 O   0  0  0  0  0  0  0  0  0  0  0  0
   50.0193    9.6140   14.5728 N   0  0  0  0  0  0  0  0  0  0  0  0
   49.8095    8.5710   13.5459 C   0  0  1  0  0  0  0  0  0  0  0  0
   48.7922    9.4172   15.1479 C   0  0  0  0  0  0  0  0  0  0  0  0
   48.5391    8.1391   14.3193 C   0  0  1  0  0  0  0  0  0  0  0  0
   50.3836   10.9554   14.1170 C   0  0  2  0  0  0  0  0  0  0  0  0
   49.6027    9.5418   11.9939 S   0  0  0  0  0  0  0  0  0  0  0  0
   50.7444   10.8664   12.6216 C   0  0  0  0  0  0  0  0  0  0  0  0
   47.2579    8.0924   13.5654 N   0  0  0  0  0  0  0  0  0  0  0  0
   51.4991   11.5189   14.9872 C   0  0  0  0  0  0  0  0  0  0  0  0
   47.0132    7.0841   12.6550 C   0  0  0  0  0  0  0  0  0  0  0  0
   48.1485   10.1163   15.8966 O   0  0  0  0  0  0  0  0  0  0  0  0
   52.3346   10.8936   15.6198 O   0  0  0  0  0  0  0  0  0  0  0  0
   47.8095    6.1636   12.4854 O   0  0  0  0  0  0  0  0  0  0  0  0
   45.7227    7.2441   11.8691 C   0  0  0  0  0  0  0  0  0  0  0  0
   51.5308   12.8682   14.9786 O   0  0  0  0  0  0  0  0  0  0  0  0
   50.4374   12.1683   11.8778 C   0  0  0  0  0  0  0  0  0  0  0  0
   52.1894   10.4283   12.3418 C   0  0  0  0  0  0  0  0  0  0  0  0
   44.8608    6.0059   11.8635 C   0  0  0  0  0  0  0  0  0  0  0  0
   45.1170    4.9686   10.9565 C   0  0  0  0  0  0  0  0  0  0  0  0
   43.7977    5.8695   12.7685 C   0  0  0  0  0  0  0  0  0  0  0  0
   44.3129    3.8281   10.9404 C   0  0  0  0  0  0  0  0  0  0  0  0
   42.9946    4.7277   12.7489 C   0  0  0  0  0  0  0  0  0  0  0  0
   43.2497    3.7091   11.8329 C   0  0  0  0  0  0  0  0  0  0  0  0
   48.0086    7.1779   12.9667 N   0  0  0  0  0  0  0  0  0  0  0  0
   48.4060   10.0324   12.8560 N   0  0  0  0  0  0  0  0  0  0  0  0
   50.5511   10.9421   13.5968 C   0  0  0  0  0  0  0  0  0  0  0  0
   46.2297    5.8645   11.8016 C   0  0  0  0  0  0  0  0  0  0  0  0
   47.4170    6.7916   11.6794 C   0  0  0  0  0  0  0  0  0  0  0  0
   49.2334   10.3413   14.0250 C   0  0  0  0  0  0  0  0  0  0  0  0
   47.1285    8.0537   13.7603 C   0  0  0  0  0  0  0  0  0  0  0  0
   47.0847    9.5092   13.2426 C   0  0  0  0  0  0  0  0  0  0  0  0
   50.7678   12.3253   13.6736 C   0  0  0  0  0  0  0  0  0  0  0  0
   51.5705   10.1221   13.0895 C   0  0  0  0  0  0  0  0  0  0  0  0
   46.3290    4.6684   12.5275 C   0  0  0  0  0  0  0  0  0  0  0  0
   45.0178    6.1733   11.1682 C   0  0  0  0  0  0  0  0  0  0  0  0
   51.9860   12.8729   13.2664 C   0  0  0  0  0  0  0  0  0  0  0  0
   45.2363    3.8068   12.6306 C   0  0  0  0  0  0  0  0  0  0  0  0
   43.9241    5.3113   11.2730 C   0  0  0  0  0  0  0  0  0  0  0  0
   52.7870   10.6715   12.6842 C   0  0  0  0  0  0  0  0  0  0  0  0
   52.9959   12.0462   12.7749 C   0  0  0  0  0  0  0  0  0  0  0  0
   44.0331    4.1301   12.0048 C   0  0  0  0  0  0  0  0  0  0  0  0
   51.0929    8.8134   12.9761 N   0  0  0  0  0  0  0  0  0  0  0  0
   50.0141    8.6435   11.9858 C   0  0  1  0  0  0  0  0  0  0  0  0
   50.4896    8.0159   13.9054 C   0  0  0  0  0  0  0  0  0  0  0  0
   49.4843    7.4741   12.8638 C   0  0  1  0  0  0  0  0  0  0  0  0
   51.5050   10.1747   13.2861 C   0  0  2  0  0  0  0  0  0  0  0  0
   49.0686   10.2244   12.0322 S   0  0  0  0  0  0  0  0  0  0  0  0
   50.2654   11.0908   13.1525 C   0  0  0  0  0  0  0  0  0  0  0  0
   48.0516    7.5007   13.2642 N   0  0  0  0  0  0  0  0  0  0  0  0
   52.6441   10.5311   12.3346 C   0  0  0  0  0  0  0  0  0  0  0  0
   47.0575    7.2580   12.3381 C   0  0  0  0  0  0  0  0  0  0  0  0
   50.6506    7.9242   15.1003 O   0  0  0  0  0  0  0  0  0  0  0  0
   52.7845   10.1688   11.1778 O   0  0  0  0  0  0  0  0  0  0  0  0
   47.3174    6.9585   11.1765 O   0  0  0  0  0  0  0  0  0  0  0  0
   45.6476    7.4434   12.8715 C   0  0  0  0  0  0  0  0  0  0  0  0
   53.5425   11.3714   12.8920 O   0  0  0  0  0  0  0  0  0  0  0  0
   49.5690   11.2728   14.5113 C   0  0  0  0  0  0  0  0  0  0  0  0
   50.5506   12.4780   12.5621 C   0  0  0  0  0  0  0  0  0  0  0  0
   44.7053    6.3312   12.4832 C   0  0  0  0  0  0  0  0  0  0  0  0
   44.5651    5.1955   13.2939 C   0  0  0  0  0  0  0  0  0  0  0  0
   43.9692    6.4097   11.2921 C   0  0  0  0  0  0  0  0  0  0  0  0
   43.6916    4.1689   12.9285 C   0  0  0  0  0  0  0  0  0  0  0  0
   43.0966    5.3829   10.9292 C   0  0  0  0  0  0  0  0  0  0  0  0
   42.9549    4.2655   11.7496 C   0  0  0  0  0  0  0  0  0  0  0  0
   47.9058    8.7404   12.6851 O   0  0  0  0  0  0  0  0  0  0  0  0
   47.9143    8.7487   12.6872 O   0  0  0  0  0  0  0  0  0  0  0  0
   47.9056    8.7404   12.6850 O   0  0  0  0  0  0  0  0  0  0  0  0
   48.7978    8.8624   13.0471 H   0  0  0  0  0  0  0  0  0  0  0  0
   47.7375    7.7945   12.7951 H   0  0  0  0  0  0  0  0  0  0  0  0
   50.6186    7.8347   13.5251 H   0  0  0  0  0  0  0  0  0  0  0  0
   48.6708    7.2332   14.9254 H   0  0  0  0  0  0  0  0  0  0  0  0
   49.5070   11.6040   14.2639 H   0  0  0  0  0  0  0  0  0  0  0  0
   46.6447    8.9029   13.5783 H   0  0  0  0  0  0  0  0  0  0  0  0
   45.9901    7.5164   10.8411 H   0  0  0  0  0  0  0  0  0  0  0  0
   45.1409    8.0885   12.2579 H   0  0  0  0  0  0  0  0  0  0  0  0
   52.2595   13.0937   15.5946 H   0  0  0  0  0  0  0  0  0  0  0  0
   51.0848   12.9791   12.2312 H   0  0  0  0  0  0  0  0  0  0  0  0
   49.3991   12.4895   12.0281 H   0  0  0  0  0  0  0  0  0  0  0  0
   50.6056   12.0676   10.7987 H   0  0  0  0  0  0  0  0  0  0  0  0
   52.8988   11.2046   12.6504 H   0  0  0  0  0  0  0  0  0  0  0  0
   52.4580    9.5096   12.8762 H   0  0  0  0  0  0  0  0  0  0  0  0
   52.3537   10.2562   11.2705 H   0  0  0  0  0  0  0  0  0  0  0  0
   45.9511    5.0413   10.2609 H   0  0  0  0  0  0  0  0  0  0  0  0
   43.5826    6.6516   13.4931 H   0  0  0  0  0  0  0  0  0  0  0  0
   44.5197    3.0302   10.2320 H   0  0  0  0  0  0  0  0  0  0  0  0
   42.1684    4.6317   13.4491 H   0  0  0  0  0  0  0  0  0  0  0  0
   42.6244    2.8203   11.8196 H   0  0  0  0  0  0  0  0  0  0  0  0
   48.8343    7.7465   12.7485 H   0  0  0  0  0  0  0  0  0  0  0  0
   48.2787   10.8960   12.3273 H   0  0  0  0  0  0  0  0  0  0  0  0
   47.1571    7.6801   11.0922 H   0  0  0  0  0  0  0  0  0  0  0  0
   48.1829    6.2639   11.0975 H   0  0  0  0  0  0  0  0  0  0  0  0
   48.7140   11.0422   14.6911 H   0  0  0  0  0  0  0  0  0  0  0  0
   49.4406    9.4403   14.6138 H   0  0  0  0  0  0  0  0  0  0  0  0
   46.1130    7.6508   13.8432 H   0  0  0  0  0  0  0  0  0  0  0  0
   47.5274    8.0624   14.7815 H   0  0  0  0  0  0  0  0  0  0  0  0
   46.4468    9.5377   12.3510 H   0  0  0  0  0  0  0  0  0  0  0  0
   46.6058   10.1592   13.9837 H   0  0  0  0  0  0  0  0  0  0  0  0
   49.9907   12.9849   14.0523 H   0  0  0  0  0  0  0  0  0  0  0  0
   51.4138    9.0492   13.0066 H   0  0  0  0  0  0  0  0  0  0  0  0
   47.2636    4.4146   13.0242 H   0  0  0  0  0  0  0  0  0  0  0  0
   44.9166    7.0879   10.5894 H   0  0  0  0  0  0  0  0  0  0  0  0
   52.1487   13.9459   13.3325 H   0  0  0  0  0  0  0  0  0  0  0  0
   45.3236    2.8879   13.2042 H   0  0  0  0  0  0  0  0  0  0  0  0
   42.9867    5.5593   10.7827 H   0  0  0  0  0  0  0  0  0  0  0  0
   53.5710   10.0271   12.2958 H   0  0  0  0  0  0  0  0  0  0  0  0
   53.9433   12.4746   12.4573 H   0  0  0  0  0  0  0  0  0  0  0  0
   43.1814    3.4593   12.0894 H   0  0  0  0  0  0  0  0  0  0  0  0
   50.3848    8.3567   10.9974 H   0  0  0  0  0  0  0  0  0  0  0  0
   49.7711    6.4769   12.5048 H   0  0  0  0  0  0  0  0  0  0  0  0
   51.9063   10.1864   14.3084 H   0  0  0  0  0  0  0  0  0  0  0  0
   47.7991    7.8534   14.1823 H   0  0  0  0  0  0  0  0  0  0  0  0
   45.6611    7.5347   13.9645 H   0  0  0  0  0  0  0  0  0  0  0  0
   45.2745    8.4044   12.4946 H   0  0  0  0  0  0  0  0  0  0  0  0
   54.2092   11.5088   12.1852 H   0  0  0  0  0  0  0  0  0  0  0  0
   49.2729   10.3205   14.9642 H   0  0  0  0  0  0  0  0  0  0  0  0
   48.6674   11.8910   14.4256 H   0  0  0  0  0  0  0  0  0  0  0  0
   50.2383   11.7764   15.2186 H   0  0  0  0  0  0  0  0  0  0  0  0
   50.9572   12.4243   11.5461 H   0  0  0  0  0  0  0  0  0  0  0  0
   49.6403   13.0897   12.5153 H   0  0  0  0  0  0  0  0  0  0  0  0
   51.2694   13.0231   13.1839 H   0  0  0  0  0  0  0  0  0  0  0  0
   45.1336    5.1001   14.2157 H   0  0  0  0  0  0  0  0  0  0  0  0
   44.0799    7.2693   10.6341 H   0  0  0  0  0  0  0  0  0  0  0  0
   43.5866    3.2919   13.5612 H   0  0  0  0  0  0  0  0  0  0  0  0
   42.5320    5.4538   10.0032 H   0  0  0  0  0  0  0  0  0  0  0  0
   42.2761    3.4660   11.4649 H   0  0  0  0  0  0  0  0  0  0  0  0
   47.7411    7.7919   12.7971 H   0  0  0  0  0  0  0  0  0  0  0  0
   48.7960    8.8666   13.0455 H   0  0  0  0  0  0  0  0  0  0  0  0
   47.7228    7.8041   12.7868 H   0  0  0  0  0  0  0  0  0  0  0  0
   48.8058    8.8461   13.0537 H   0  0  0  0  0  0  0  0  0  0  0  0
   47.7412    7.7917   12.7972 H   0  0  0  0  0  0  0  0  0  0  0  0
   48.7961    8.8667   13.0455 H   0  0  0  0  0  0  0  0  0  0  0  0
  3  2  1  0
  4  2  1  0
  5  3  1  0
  6  2  1  0
  3  7  1  0
  8  6  1  0
  5  9  1  0
  6 10  1  0
 11  9  1  0
 12  4  2  0
 13 10  2  0
 14 11  2  0
 15 11  1  0
 16 10  1  0
 17  8  1  0
 18  8  1  0
 19 15  1  0
 20 19  2  0
 21 19  1  0
 22 20  1  0
 23 21  2  0
 24 23  1  0
  7  8  1  0
  4  5  1  0
 24 22  2  0
 26 32  1  0
 27 30  1  0
 28 29  1  0
 29 25  1  0
 30 26  1  0
 31 25  1  0
 32 31  1  0
 33 27  2  0
 34 27  1  0
 35 28  2  0
 36 28  1  0
 37 33  1  0
 38 35  1  0
 39 36  2  0
 40 34  2  0
 41 37  2  0
 42 39  1  0
 42 38  2  0
 40 41  1  0
 44 43  1  0
 45 43  1  0
 46 44  1  0
 47 43  1  0
 44 48  1  0
 49 47  1  0
 46 50  1  0
 47 51  1  0
 52 50  1  0
 53 45  2  0
 54 51  2  0
 55 52  2  0
 56 52  1  0
 57 51  1  0
 58 49  1  0
 59 49  1  0
 60 56  1  0
 61 60  2  0
 62 60  1  0
 63 61  1  0
 64 62  2  0
 65 64  1  0
 48 49  1  0
 45 46  1  0
 65 63  2  0
  1 69  1  0
  1 70  1  0
  3 71  1  1
  5 72  1  6
  6 73  1  6
  9 74  1  0
 15 75  1  0
 15 76  1  0
 16 77  1  0
 17 78  1  0
 17 79  1  0
 17 80  1  0
 18 81  1  0
 18 82  1  0
 18 83  1  0
 20 84  1  0
 21 85  1  0
 22 86  1  0
 23 87  1  0
 24 88  1  0
 25 89  1  0
 26 90  1  0
 29 91  1  0
 29 92  1  0
 30 93  1  0
 30 94  1  0
 31 95  1  0
 31 96  1  0
 32 97  1  0
 32 98  1  0
 33 99  1  0
 34100  1  0
 35101  1  0
 36102  1  0
 37103  1  0
 38104  1  0
 39105  1  0
 40106  1  0
 41107  1  0
 42108  1  0
 44109  1  1
 46110  1  1
 47111  1  6
 50112  1  0
 56113  1  0
 56114  1  0
 57115  1  0
 58116  1  0
 58117  1  0
 58118  1  0
 59119  1  0
 59120  1  0
 59121  1  0
 61122  1  0
 62123  1  0
 63124  1  0
 64125  1  0
 65126  1  0
 66127  1  0
 66128  1  0
 67129  1  0
 67130  1  0
 68131  1  0
 68132  1  0
M  END
> <Uni-Dock RESULT> 
ENERGY=   -7.868  LOWER_BOUND=    1.225  UPPER_BOUND=    2.679
INTER + INTRA:          -7.868
INTER:                  -7.868
INTRA:                   0.000
UNBOUND:                 0.000

$$$$

     RDKit          3D

132133  0  0  0  0  0  0  0  0999 V2000
   49.1723    8.7547   19.5032 O   0  0  0  0  0  0  0  0  0  0  0  0
   47.7762   11.3181   20.0151 N   0  0  0  0  0  0  0  0  0  0  0  0
   47.8141    9.9455   20.5636 C   0  0  1  0  0  0  0  0  0  0  0  0
   47.7160   10.8904   18.7156 C   0  0  0  0  0  0  0  0  0  0  0  0
   47.4833    9.4249   19.1429 C   0  0  1  0  0  0  0  0  0  0  0  0
   48.8409   12.2397   20.4112 C   0  0  2  0  0  0  0  0  0  0  0  0
   49.5440    9.7827   21.1756 S   0  0  0  0  0  0  0  0  0  0  0  0
   49.6166   11.5954   21.5763 C   0  0  0  0  0  0  0  0  0  0  0  0
   48.4020    8.4175   18.5488 N   0  0  0  0  0  0  0  0  0  0  0  0
   48.2546   13.6055   20.7423 C   0  0  0  0  0  0  0  0  0  0  0  0
   48.4004    7.1122   18.9976 C   0  0  0  0  0  0  0  0  0  0  0  0
   47.9352   11.4753   17.6795 O   0  0  0  0  0  0  0  0  0  0  0  0
   47.1235   13.8541   21.1273 O   0  0  0  0  0  0  0  0  0  0  0  0
   47.6032    6.7259   19.8494 O   0  0  0  0  0  0  0  0  0  0  0  0
   49.4821    6.2354   18.3896 C   0  0  0  0  0  0  0  0  0  0  0  0
   49.1559   14.6015   20.6107 O   0  0  0  0  0  0  0  0  0  0  0  0
   51.0834   12.0317   21.6012 C   0  0  0  0  0  0  0  0  0  0  0  0
   48.9804   11.8085   22.9577 C   0  0  0  0  0  0  0  0  0  0  0  0
   48.9646    4.9268   17.8453 C   0  0  0  0  0  0  0  0  0  0  0  0
   48.7604    3.8353   18.7004 C   0  0  0  0  0  0  0  0  0  0  0  0
   48.6727    4.7843   16.4807 C   0  0  0  0  0  0  0  0  0  0  0  0
   48.2946    2.6198   18.1972 C   0  0  0  0  0  0  0  0  0  0  0  0
   48.2079    3.5666   15.9805 C   0  0  0  0  0  0  0  0  0  0  0  0
   48.0224    2.4837   16.8376 C   0  0  0  0  0  0  0  0  0  0  0  0
   47.9024    7.7999   19.6105 N   0  0  0  0  0  0  0  0  0  0  0  0
   49.7497   10.0145   19.6524 N   0  0  0  0  0  0  0  0  0  0  0  0
   49.1075   12.0480   20.8483 C   0  0  0  0  0  0  0  0  0  0  0  0
   48.4148    5.4301   19.0038 C   0  0  0  0  0  0  0  0  0  0  0  0
   48.6880    6.5990   19.9220 C   0  0  0  0  0  0  0  0  0  0  0  0
   48.9032   11.2096   19.6090 C   0  0  0  0  0  0  0  0  0  0  0  0
   48.2968    8.4263   18.3364 C   0  0  0  0  0  0  0  0  0  0  0  0
   49.6257    9.2102   18.4249 C   0  0  0  0  0  0  0  0  0  0  0  0
   49.9096   13.1975   20.8128 C   0  0  0  0  0  0  0  0  0  0  0  0
   48.5153   11.6704   22.0631 C   0  0  0  0  0  0  0  0  0  0  0  0
   47.1057    4.9655   18.8089 C   0  0  0  0  0  0  0  0  0  0  0  0
   49.4696    4.7747   18.3533 C   0  0  0  0  0  0  0  0  0  0  0  0
   50.1006   13.9613   21.9660 C   0  0  0  0  0  0  0  0  0  0  0  0
   46.8548    3.8789   17.9703 C   0  0  0  0  0  0  0  0  0  0  0  0
   49.2175    3.6882   17.5130 C   0  0  0  0  0  0  0  0  0  0  0  0
   48.7068   12.4356   23.2136 C   0  0  0  0  0  0  0  0  0  0  0  0
   49.4971   13.5822   23.1648 C   0  0  0  0  0  0  0  0  0  0  0  0
   47.9112    3.2419   17.3206 C   0  0  0  0  0  0  0  0  0  0  0  0
   47.8812   10.4355   21.9000 N   0  0  0  0  0  0  0  0  0  0  0  0
   48.7965    9.3141   21.6205 C   0  0  1  0  0  0  0  0  0  0  0  0
   46.9628   10.0365   20.9721 C   0  0  0  0  0  0  0  0  0  0  0  0
   47.6346    8.6521   20.8264 C   0  0  1  0  0  0  0  0  0  0  0  0
   48.4474   11.7765   21.8904 C   0  0  2  0  0  0  0  0  0  0  0  0
   50.1713   10.0516   20.6400 S   0  0  0  0  0  0  0  0  0  0  0  0
   49.5977   11.8015   20.8561 C   0  0  0  0  0  0  0  0  0  0  0  0
   47.9117    8.2044   19.4348 N   0  0  0  0  0  0  0  0  0  0  0  0
   48.8899   12.0918   23.3169 C   0  0  0  0  0  0  0  0  0  0  0  0
   48.7060    7.1014   19.1954 C   0  0  0  0  0  0  0  0  0  0  0  0
   46.0710   10.6416   20.4236 O   0  0  0  0  0  0  0  0  0  0  0  0
   49.3427   11.3145   24.1414 O   0  0  0  0  0  0  0  0  0  0  0  0
   49.1610    6.4233   20.1117 O   0  0  0  0  0  0  0  0  0  0  0  0
   48.9958    6.8468   17.7264 C   0  0  0  0  0  0  0  0  0  0  0  0
   48.7701   13.4025   23.6199 O   0  0  0  0  0  0  0  0  0  0  0  0
   49.0941   12.2892   19.4875 C   0  0  0  0  0  0  0  0  0  0  0  0
   50.8088   12.6525   21.2605 C   0  0  0  0  0  0  0  0  0  0  0  0
   48.8393    5.4017   17.3231 C   0  0  0  0  0  0  0  0  0  0  0  0
   47.6027    4.9120   16.8783 C   0  0  0  0  0  0  0  0  0  0  0  0
   49.9275    4.5210   17.4064 C   0  0  0  0  0  0  0  0  0  0  0  0
   47.4642    3.5729   16.5071 C   0  0  0  0  0  0  0  0  0  0  0  0
   49.7869    3.1833   17.0344 C   0  0  0  0  0  0  0  0  0  0  0  0
   48.5569    2.7112   16.5807 C   0  0  0  0  0  0  0  0  0  0  0  0
   49.1721    8.7525   19.5023 O   0  0  0  0  0  0  0  0  0  0  0  0
   49.1732    8.7636   19.5069 O   0  0  0  0  0  0  0  0  0  0  0  0
   49.1722    8.7524   19.5021 O   0  0  0  0  0  0  0  0  0  0  0  0
   48.6979    9.4379   19.9993 H   0  0  0  0  0  0  0  0  0  0  0  0
   48.5258    8.0382   19.4165 H   0  0  0  0  0  0  0  0  0  0  0  0
   47.0399    9.7741   21.3176 H   0  0  0  0  0  0  0  0  0  0  0  0
   46.4350    9.1275   19.0083 H   0  0  0  0  0  0  0  0  0  0  0  0
   49.4990   12.3786   19.5404 H   0  0  0  0  0  0  0  0  0  0  0  0
   49.1603    8.7303   17.9486 H   0  0  0  0  0  0  0  0  0  0  0  0
   50.2325    6.0450   19.1661 H   0  0  0  0  0  0  0  0  0  0  0  0
   50.0091    6.7754   17.5937 H   0  0  0  0  0  0  0  0  0  0  0  0
   48.6463   15.4134   20.8168 H   0  0  0  0  0  0  0  0  0  0  0  0
   51.1664   13.1019   21.8228 H   0  0  0  0  0  0  0  0  0  0  0  0
   51.5776   11.8578   20.6372 H   0  0  0  0  0  0  0  0  0  0  0  0
   51.6519   11.4971   22.3720 H   0  0  0  0  0  0  0  0  0  0  0  0
   49.0467   12.8601   23.2594 H   0  0  0  0  0  0  0  0  0  0  0  0
   47.9204   11.5297   22.9766 H   0  0  0  0  0  0  0  0  0  0  0  0
   49.4973   11.2240   23.7294 H   0  0  0  0  0  0  0  0  0  0  0  0
   48.9571    3.9292   19.7669 H   0  0  0  0  0  0  0  0  0  0  0  0
   48.8083    5.6175   15.7948 H   0  0  0  0  0  0  0  0  0  0  0  0
   48.1408    1.7793   18.8690 H   0  0  0  0  0  0  0  0  0  0  0  0
   47.9897    3.4617   14.9206 H   0  0  0  0  0  0  0  0  0  0  0  0
   47.6594    1.5367   16.4470 H   0  0  0  0  0  0  0  0  0  0  0  0
   48.1273    8.4907   20.3351 H   0  0  0  0  0  0  0  0  0  0  0  0
   50.7179   10.3218   19.7510 H   0  0  0  0  0  0  0  0  0  0  0  0
   49.7586    6.8334   19.9443 H   0  0  0  0  0  0  0  0  0  0  0  0
   48.4321    6.2795   20.9399 H   0  0  0  0  0  0  0  0  0  0  0  0
   49.1320   11.8124   18.7208 H   0  0  0  0  0  0  0  0  0  0  0  0
   47.8421   10.9423   19.5448 H   0  0  0  0  0  0  0  0  0  0  0  0
   48.3393    7.7006   17.5166 H   0  0  0  0  0  0  0  0  0  0  0  0
   47.4988    9.1288   18.0682 H   0  0  0  0  0  0  0  0  0  0  0  0
   50.4514    8.4884   18.4208 H   0  0  0  0  0  0  0  0  0  0  0  0
   49.7572    9.8323   17.5323 H   0  0  0  0  0  0  0  0  0  0  0  0
   50.3894   13.5066   19.8873 H   0  0  0  0  0  0  0  0  0  0  0  0
   47.9041   10.7724   22.1133 H   0  0  0  0  0  0  0  0  0  0  0  0
   46.2764    5.4636   19.3076 H   0  0  0  0  0  0  0  0  0  0  0  0
   50.4950    5.1064   18.4957 H   0  0  0  0  0  0  0  0  0  0  0  0
   50.7205   14.8538   21.9304 H   0  0  0  0  0  0  0  0  0  0  0  0
   45.8348    3.5350   17.8201 H   0  0  0  0  0  0  0  0  0  0  0  0
   50.0399    3.1878   17.0090 H   0  0  0  0  0  0  0  0  0  0  0  0
   48.2410   12.1359   24.1485 H   0  0  0  0  0  0  0  0  0  0  0  0
   49.6479   14.1775   24.0619 H   0  0  0  0  0  0  0  0  0  0  0  0
   47.7134    2.3977   16.6645 H   0  0  0  0  0  0  0  0  0  0  0  0
   49.1081    8.7833   22.5249 H   0  0  0  0  0  0  0  0  0  0  0  0
   47.0922    7.8779   21.3850 H   0  0  0  0  0  0  0  0  0  0  0  0
   47.6499   12.4828   21.6231 H   0  0  0  0  0  0  0  0  0  0  0  0
   47.6471    8.8032   18.6586 H   0  0  0  0  0  0  0  0  0  0  0  0
   48.3463    7.4660   17.0956 H   0  0  0  0  0  0  0  0  0  0  0  0
   50.0203    7.1866   17.5271 H   0  0  0  0  0  0  0  0  0  0  0  0
   49.0780   13.4600   24.5498 H   0  0  0  0  0  0  0  0  0  0  0  0
   48.2683   11.6821   19.1014 H   0  0  0  0  0  0  0  0  0  0  0  0
   49.8911   12.2780   18.7344 H   0  0  0  0  0  0  0  0  0  0  0  0
   48.7340   13.3222   19.5594 H   0  0  0  0  0  0  0  0  0  0  0  0
   51.2819   12.2949   22.1818 H   0  0  0  0  0  0  0  0  0  0  0  0
   51.5793   12.6520   20.4787 H   0  0  0  0  0  0  0  0  0  0  0  0
   50.5138   13.6960   21.4168 H   0  0  0  0  0  0  0  0  0  0  0  0
   46.7377    5.5677   16.8171 H   0  0  0  0  0  0  0  0  0  0  0  0
   50.8906    4.8715   17.7722 H   0  0  0  0  0  0  0  0  0  0  0  0
   46.5037    3.1996   16.1625 H   0  0  0  0  0  0  0  0  0  0  0  0
   50.6368    2.5094   17.1042 H   0  0  0  0  0  0  0  0  0  0  0  0
   48.4485    1.6689   16.2928 H   0  0  0  0  0  0  0  0  0  0  0  0
   48.5215    8.0390   19.4185 H   0  0  0  0  0  0  0  0  0  0  0  0
   48.7024    9.4394   19.9982 H   0  0  0  0  0  0  0  0  0  0  0  0
   48.5429    8.0343   19.4082 H   0  0  0  0  0  0  0  0  0  0  0  0
   48.6798    9.4330   20.0039 H   0  0  0  0  0  0  0  0  0  0  0  0
   48.5213    8.0390   19.4186 H   0  0  0  0  0  0  0  0  0  0  0  0
   48.7024    9.4394   19.9982 H   0  0  0  0  0  0  0  0  0  0  0  0
  3  2  1  0
  4  2  1  0
  5  3  1  0
  6  2  1  0
  3  7  1  0
  8  6  1  0
  5  9  1  0
  6 10  1  0
 11  9  1  0
 12  4  2  0
 13 10  2  0
 14 11  2  0
 15 11  1  0
 16 10  1  0
 17  8  1  0
 18  8  1  0
 19 15  1  0
 20 19  2  0
 21 19  1  0
 22 20  1  0
 23 21  2  0
 24 23  1  0
  7  8  1  0
  4  5  1  0
 24 22  2  0
 26 32  1  0
 27 30  1  0
 28 29  1  0
 29 25  1  0
 30 26  1  0
 31 25  1  0
 32 31  1  0
 33 27  2  0
 34 27  1  0
 35 28  2  0
 36 28  1  0
 37 33  1  0
 38 35  1  0
 39 36  2  0
 40 34  2  0
 41 37  2  0
 42 39  1  0
 42 38  2  0
 40 41  1  0
 44 43  1  0
 45 43  1  0
 46 44  1  0
 47 43  1  0
 44 48  1  0
 49 47  1  0
 46 50  1  0
 47 51  1  0
 52 50  1  0
 53 45  2  0
 54 51  2  0
 55 52  2  0
 56 52  1  0
 57 51  1  0
 58 49  1  0
 59 49  1  0
 60 56  1  0
 61 60  2  0
 62 60  1  0
 63 61  1  0
 64 62  2  0
 65 64  1  0
 48 49  1  0
 45 46  1  0
 65 63  2  0
  1 69  1  0
  1 70  1  0
  3 71  1  1
  5 72  1  6
  6 73  1  6
  9 74  1  0
 15 75  1  0
 15 76  1  0
 16 77  1  0
 17 78  1  0
 17 79  1  0
 17 80  1  0
 18 81  1  0
 18 82  1  0
 18 83  1  0
 20 84  1  0
 21 85  1  0
 22 86  1  0
 23 87  1  0
 24 88  1  0
 25 89  1  0
 26 90  1  0
 29 91  1  0
 29 92  1  0
 30 93  1  0
 30 94  1  0
 31 95  1  0
 31 96  1  0
 32 97  1  0
 32 98  1  0
 33 99  1  0
 34100  1  0
 35101  1  0
 36102  1  0
 37103  1  0
 38104  1  0
 39105  1  0
 40106  1  0
 41107  1  0
 42108  1  0
 44109  1  1
 46110  1  1
 47111  1  6
 50112  1  0
 56113  1  0
 56114  1  0
 57115  1  0
 58116  1  0
 58117  1  0
 58118  1  0
 59119  1  0
 59120  1  0
 59121  1  0
 61122  1  0
 62123  1  0
 63124  1  0
 64125  1  0
 65126  1  0
 66127  1  0
 66128  1  0
 67129  1  0
 67130  1  0
 68131  1  0
 68132  1  0
M  END
> <Uni-Dock RESULT> 
ENERGY=   -7.349  LOWER_BOUND=    5.990  UPPER_BOUND=    7.655
INTER + INTRA:          -7.349
INTER:                  -7.349
INTRA:                   0.000
UNBOUND:                 0.000

$$$$

     RDKit          3D

132133  0  0  0  0  0  0  0  0999 V2000
   48.7258    7.0925   18.0952 O   0  0  0  0  0  0  0  0  0  0  0  0
   50.1649    7.2158   20.6829 N   0  0  0  0  0  0  0  0  0  0  0  0
   49.4166    8.1207   19.7842 C   0  0  1  0  0  0  0  0  0  0  0  0
   50.8839    6.6546   19.6614 C   0  0  0  0  0  0  0  0  0  0  0  0
   50.3839    7.7066   18.6477 C   0  0  1  0  0  0  0  0  0  0  0  0
   49.3933    6.3458   21.5704 C   0  0  2  0  0  0  0  0  0  0  0  0
   47.7166    7.4110   19.7899 S   0  0  0  0  0  0  0  0  0  0  0  0
   47.9263    6.8162   21.5376 C   0  0  0  0  0  0  0  0  0  0  0  0
   49.7847    7.1737   17.3952 N   0  0  0  0  0  0  0  0  0  0  0  0
   50.0078    6.3421   22.9637 C   0  0  0  0  0  0  0  0  0  0  0  0
   49.1454    8.0151   16.5072 C   0  0  0  0  0  0  0  0  0  0  0  0
   51.5191    5.6261   19.6134 O   0  0  0  0  0  0  0  0  0  0  0  0
   50.6792    7.2201   23.4810 O   0  0  0  0  0  0  0  0  0  0  0  0
   49.1064    9.2302   16.6869 O   0  0  0  0  0  0  0  0  0  0  0  0
   48.4708    7.3083   15.3436 C   0  0  0  0  0  0  0  0  0  0  0  0
   49.7005    5.2287   23.6620 O   0  0  0  0  0  0  0  0  0  0  0  0
   46.9479    5.6649   21.7822 C   0  0  0  0  0  0  0  0  0  0  0  0
   47.6124    7.9841   22.4841 C   0  0  0  0  0  0  0  0  0  0  0  0
   48.8194    7.8928   13.9970 C   0  0  0  0  0  0  0  0  0  0  0  0
   48.1417    9.0222   13.5182 C   0  0  0  0  0  0  0  0  0  0  0  0
   49.8298    7.3221   13.2088 C   0  0  0  0  0  0  0  0  0  0  0  0
   48.4532    9.5566   12.2671 C   0  0  0  0  0  0  0  0  0  0  0  0
   50.1380    7.8586   11.9573 C   0  0  0  0  0  0  0  0  0  0  0  0
   49.4476    8.9730   11.4850 C   0  0  0  0  0  0  0  0  0  0  0  0
   49.3322    8.4186   17.4553 N   0  0  0  0  0  0  0  0  0  0  0  0
   48.5606    6.2500   19.1933 N   0  0  0  0  0  0  0  0  0  0  0  0
   48.8750    6.5168   21.6032 C   0  0  0  0  0  0  0  0  0  0  0  0
   48.6593    8.7417   15.0701 C   0  0  0  0  0  0  0  0  0  0  0  0
   48.2237    8.6073   16.5110 C   0  0  0  0  0  0  0  0  0  0  0  0
   49.5487    6.2668   20.2750 C   0  0  0  0  0  0  0  0  0  0  0  0
   49.9949    7.1111   17.3047 C   0  0  0  0  0  0  0  0  0  0  0  0
   49.1772    5.9388   17.8926 C   0  0  0  0  0  0  0  0  0  0  0  0
   48.6255    5.4608   22.4912 C   0  0  0  0  0  0  0  0  0  0  0  0
   48.4647    7.8117   21.9554 C   0  0  0  0  0  0  0  0  0  0  0  0
   49.6170    9.6973   14.6993 C   0  0  0  0  0  0  0  0  0  0  0  0
   48.0925    7.9308   14.0769 C   0  0  0  0  0  0  0  0  0  0  0  0
   47.9934    5.7000   23.7131 C   0  0  0  0  0  0  0  0  0  0  0  0
   50.0105    9.8292   13.3672 C   0  0  0  0  0  0  0  0  0  0  0  0
   48.4881    8.0623   12.7441 C   0  0  0  0  0  0  0  0  0  0  0  0
   47.8343    8.0482   23.1770 C   0  0  0  0  0  0  0  0  0  0  0  0
   47.6009    6.9934   24.0570 C   0  0  0  0  0  0  0  0  0  0  0  0
   49.4473    9.0096   12.3901 C   0  0  0  0  0  0  0  0  0  0  0  0
   48.6874    8.6726   20.8770 N   0  0  0  0  0  0  0  0  0  0  0  0
   47.8665    8.3822   19.6874 C   0  0  1  0  0  0  0  0  0  0  0  0
   49.8224    8.8954   20.1519 C   0  0  0  0  0  0  0  0  0  0  0  0
   49.0260    8.9627   18.8288 C   0  0  1  0  0  0  0  0  0  0  0  0
   48.6504    7.7060   21.9648 C   0  0  2  0  0  0  0  0  0  0  0  0
   47.6552    6.5517   19.6870 S   0  0  0  0  0  0  0  0  0  0  0  0
   48.4384    6.3025   21.3491 C   0  0  0  0  0  0  0  0  0  0  0  0
   49.5462    8.1297   17.7110 N   0  0  0  0  0  0  0  0  0  0  0  0
   47.5393    8.1387   22.9179 C   0  0  0  0  0  0  0  0  0  0  0  0
   48.7954    7.9362   16.5692 C   0  0  0  0  0  0  0  0  0  0  0  0
   50.9873    8.8930   20.4762 O   0  0  0  0  0  0  0  0  0  0  0  0
   46.4822    8.6755   22.6290 O   0  0  0  0  0  0  0  0  0  0  0  0
   47.7083    8.4840   16.4117 O   0  0  0  0  0  0  0  0  0  0  0  0
   49.4075    6.9639   15.5759 C   0  0  0  0  0  0  0  0  0  0  0  0
   47.8103    7.8313   24.2048 O   0  0  0  0  0  0  0  0  0  0  0  0
   49.7845    5.5959   21.1183 C   0  0  0  0  0  0  0  0  0  0  0  0
   47.5336    5.3710   22.1664 C   0  0  0  0  0  0  0  0  0  0  0  0
   49.3646    7.4529   14.1495 C   0  0  0  0  0  0  0  0  0  0  0  0
   50.4143    8.2197   13.6234 C   0  0  0  0  0  0  0  0  0  0  0  0
   48.2614    7.1625   13.3338 C   0  0  0  0  0  0  0  0  0  0  0  0
   50.3682    8.6700   12.3022 C   0  0  0  0  0  0  0  0  0  0  0  0
   48.2177    7.6131   12.0138 C   0  0  0  0  0  0  0  0  0  0  0  0
   49.2729    8.3625   11.4975 C   0  0  0  0  0  0  0  0  0  0  0  0
   48.7259    7.0930   18.0929 O   0  0  0  0  0  0  0  0  0  0  0  0
   48.7253    7.0903   18.1047 O   0  0  0  0  0  0  0  0  0  0  0  0
   48.7258    7.0929   18.0927 O   0  0  0  0  0  0  0  0  0  0  0  0
   48.9652    7.4114   18.9778 H   0  0  0  0  0  0  0  0  0  0  0  0
   49.0563    7.7823   17.5005 H   0  0  0  0  0  0  0  0  0  0  0  0
   49.4805    9.1677   20.0958 H   0  0  0  0  0  0  0  0  0  0  0  0
   51.1585    8.4523   18.4257 H   0  0  0  0  0  0  0  0  0  0  0  0
   49.4776    5.3195   21.1827 H   0  0  0  0  0  0  0  0  0  0  0  0
   49.6782    6.1689   17.2843 H   0  0  0  0  0  0  0  0  0  0  0  0
   47.3873    7.3624   15.5038 H   0  0  0  0  0  0  0  0  0  0  0  0
   48.7188    6.2401   15.3498 H   0  0  0  0  0  0  0  0  0  0  0  0
   50.1794    5.3393   24.5104 H   0  0  0  0  0  0  0  0  0  0  0  0
   47.0512    5.2780   22.8025 H   0  0  0  0  0  0  0  0  0  0  0  0
   47.1228    4.8274   21.0954 H   0  0  0  0  0  0  0  0  0  0  0  0
   45.9061    5.9864   21.6625 H   0  0  0  0  0  0  0  0  0  0  0  0
   47.6738    7.6649   23.5308 H   0  0  0  0  0  0  0  0  0  0  0  0
   48.3071    8.8226   22.3572 H   0  0  0  0  0  0  0  0  0  0  0  0
   46.5942    8.3622   22.3271 H   0  0  0  0  0  0  0  0  0  0  0  0
   47.3706    9.4967   14.1223 H   0  0  0  0  0  0  0  0  0  0  0  0
   50.3824    6.4533   13.5594 H   0  0  0  0  0  0  0  0  0  0  0  0
   47.9206   10.4321   11.9049 H   0  0  0  0  0  0  0  0  0  0  0  0
   50.9180    7.4072   11.3491 H   0  0  0  0  0  0  0  0  0  0  0  0
   49.6895    9.3903   10.5111 H   0  0  0  0  0  0  0  0  0  0  0  0
   48.9166    8.4072   18.3933 H   0  0  0  0  0  0  0  0  0  0  0  0
   47.8700    5.5315   19.4131 H   0  0  0  0  0  0  0  0  0  0  0  0
   47.4835    7.8061   16.6198 H   0  0  0  0  0  0  0  0  0  0  0  0
   47.7011    9.5337   16.7803 H   0  0  0  0  0  0  0  0  0  0  0  0
   50.0914    5.3136   20.3166 H   0  0  0  0  0  0  0  0  0  0  0  0
   50.2982    7.0506   20.1157 H   0  0  0  0  0  0  0  0  0  0  0  0
   50.2610    6.9020   16.2627 H   0  0  0  0  0  0  0  0  0  0  0  0
   50.9463    7.1738   17.8460 H   0  0  0  0  0  0  0  0  0  0  0  0
   48.3663    5.7010   17.1935 H   0  0  0  0  0  0  0  0  0  0  0  0
   49.8000    5.0394   17.9578 H   0  0  0  0  0  0  0  0  0  0  0  0
   48.9229    4.4459   22.2385 H   0  0  0  0  0  0  0  0  0  0  0  0
   48.6346    8.6400   21.2716 H   0  0  0  0  0  0  0  0  0  0  0  0
   50.0655   10.3347   15.4590 H   0  0  0  0  0  0  0  0  0  0  0  0
   47.3397    7.1900   14.3344 H   0  0  0  0  0  0  0  0  0  0  0  0
   47.8067    4.8771   24.3988 H   0  0  0  0  0  0  0  0  0  0  0  0
   50.7607   10.5669   13.0948 H   0  0  0  0  0  0  0  0  0  0  0  0
   48.0473    7.4274   11.9804 H   0  0  0  0  0  0  0  0  0  0  0  0
   47.5235    9.0554   23.4413 H   0  0  0  0  0  0  0  0  0  0  0  0
   47.1079    7.1774   25.0083 H   0  0  0  0  0  0  0  0  0  0  0  0
   49.7580    9.1113   11.3530 H   0  0  0  0  0  0  0  0  0  0  0  0
   46.9342    8.9541   19.6637 H   0  0  0  0  0  0  0  0  0  0  0  0
   48.8688    9.9994   18.5031 H   0  0  0  0  0  0  0  0  0  0  0  0
   49.6020    7.7673   22.5097 H   0  0  0  0  0  0  0  0  0  0  0  0
   50.3844    7.5747   17.8537 H   0  0  0  0  0  0  0  0  0  0  0  0
   50.4474    6.7442   15.8470 H   0  0  0  0  0  0  0  0  0  0  0  0
   48.8665    6.0132   15.6666 H   0  0  0  0  0  0  0  0  0  0  0  0
   47.0301    8.1649   24.6976 H   0  0  0  0  0  0  0  0  0  0  0  0
   50.4613    6.1760   20.4819 H   0  0  0  0  0  0  0  0  0  0  0  0
   49.6519    4.6139   20.6487 H   0  0  0  0  0  0  0  0  0  0  0  0
   50.2967    5.4294   22.0732 H   0  0  0  0  0  0  0  0  0  0  0  0
   46.5200    5.7701   22.2838 H   0  0  0  0  0  0  0  0  0  0  0  0
   47.4411    4.3844   21.6939 H   0  0  0  0  0  0  0  0  0  0  0  0
   47.9490    5.2076   23.1669 H   0  0  0  0  0  0  0  0  0  0  0  0
   51.2758    8.4728   14.2363 H   0  0  0  0  0  0  0  0  0  0  0  0
   47.4234    6.5905   13.7273 H   0  0  0  0  0  0  0  0  0  0  0  0
   51.1850    9.2630   11.8999 H   0  0  0  0  0  0  0  0  0  0  0  0
   47.3572    7.3831   11.3911 H   0  0  0  0  0  0  0  0  0  0  0  0
   49.2368    8.7140   10.4697 H   0  0  0  0  0  0  0  0  0  0  0  0
   49.0585    7.7860   17.5026 H   0  0  0  0  0  0  0  0  0  0  0  0
   48.9629    7.4071   18.9780 H   0  0  0  0  0  0  0  0  0  0  0  0
   49.0476    7.7675   17.4913 H   0  0  0  0  0  0  0  0  0  0  0  0
   48.9744    7.4284   18.9777 H   0  0  0  0  0  0  0  0  0  0  0  0
   49.0586    7.7862   17.5026 H   0  0  0  0  0  0  0  0  0  0  0  0
   48.9629    7.4071   18.9781 H   0  0  0  0  0  0  0  0  0  0  0  0
  3  2  1  0
  4  2  1  0
  5  3  1  0
  6  2  1  0
  3  7  1  0
  8  6  1  0
  5  9  1  0
  6 10  1  0
 11  9  1  0
 12  4  2  0
 13 10  2  0
 14 11  2  0
 15 11  1  0
 16 10  1  0
 17  8  1  0
 18  8  1  0
 19 15  1  0
 20 19  2  0
 21 19  1  0
 22 20  1  0
 23 21  2  0
 24 23  1  0
  7  8  1  0
  4  5  1  0
 24 22  2  0
 26 32  1  0
 27 30  1  0
 28 29  1  0
 29 25  1  0
 30 26  1  0
 31 25  1  0
 32 31  1  0
 33 27  2  0
 34 27  1  0
 35 28  2  0
 36 28  1  0
 37 33  1  0
 38 35  1  0
 39 36  2  0
 40 34  2  0
 41 37  2  0
 42 39  1  0
 42 38  2  0
 40 41  1  0
 44 43  1  0
 45 43  1  0
 46 44  1  0
 47 43  1  0
 44 48  1  0
 49 47  1  0
 46 50  1  0
 47 51  1  0
 52 50  1  0
 53 45  2  0
 54 51  2  0
 55 52  2  0
 56 52  1  0
 57 51  1  0
 58 49  1  0
 59 49  1  0
 60 56  1  0
 61 60  2  0
 62 60  1  0
 63 61  1  0
 64 62  2  0
 65 64  1  0
 48 49  1  0
 45 46  1  0
 65 63  2  0
  1 69  1  0
  1 70  1  0
  3 71  1  1
  5 72  1  6
  6 73  1  6
  9 74  1  0
 15 75  1  0
 15 76  1  0
 16 77  1  0
 17 78  1  0
 17 79  1  0
 17 80  1  0
 18 81  1  0
 18 82  1  0
 18 83  1  0
 20 84  1  0
 21 85  1  0
 22 86  1  0
 23 87  1  0
 24 88  1  0
 25 89  1  0
 26 90  1  0
 29 91  1  0
 29 92  1  0
 30 93  1  0
 30 94  1  0
 31 95  1  0
 31 96  1  0
 32 97  1  0
 32 98  1  0
 33 99  1  0
 34100  1  0
 35101  1  0
 36102  1  0
 37103  1  0
 38104  1  0
 39105  1  0
 40106  1  0
 41107  1  0
 42108  1  0
 44109  1  1
 46110  1  1
 47111  1  6
 50112  1  0
 56113  1  0
 56114  1  0
 57115  1  0
 58116  1  0
 58117  1  0
 58118  1  0
 59119  1  0
 59120  1  0
 59121  1  0
 61122  1  0
 62123  1  0
 63124  1  0
 64125  1  0
 65126  1  0
 66127  1  0
 66128  1  0
 67129  1  0
 67130  1  0
 68131  1  0
 68132  1  0
M  END
> <Uni-Dock RESULT> 
ENERGY=   -7.346  LOWER_BOUND=    5.637  UPPER_BOUND=    7.606
INTER + INTRA:          -7.346
INTER:                  -7.346
INTRA:                   0.000
UNBOUND:                 0.000

$$$$

     RDKit          3D

132133  0  0  0  0  0  0  0  0999 V2000
   44.2121   11.2007   11.6077 O   0  0  0  0  0  0  0  0  0  0  0  0
   42.8904   12.3020    9.1948 N   0  0  0  0  0  0  0  0  0  0  0  0
   42.9640   11.0241    9.9350 C   0  0  1  0  0  0  0  0  0  0  0  0
   44.2434   12.5078    9.2429 C   0  0  0  0  0  0  0  0  0  0  0  0
   44.5040   11.0845    9.7821 C   0  0  1  0  0  0  0  0  0  0  0  0
   41.9953   13.3376    9.7107 C   0  0  2  0  0  0  0  0  0  0  0  0
   42.2290   11.4412   11.5720 S   0  0  0  0  0  0  0  0  0  0  0  0
   41.1042   12.6981   10.7930 C   0  0  0  0  0  0  0  0  0  0  0  0
   45.3218   10.9950   11.0210 N   0  0  0  0  0  0  0  0  0  0  0  0
   41.2156   13.9727    8.5671 C   0  0  0  0  0  0  0  0  0  0  0  0
   45.4626    9.7937   11.6863 C   0  0  0  0  0  0  0  0  0  0  0  0
   44.8976   13.5102    9.0672 O   0  0  0  0  0  0  0  0  0  0  0  0
   40.9324   13.4689    7.4922 O   0  0  0  0  0  0  0  0  0  0  0  0
   44.9758    8.7544   11.2469 O   0  0  0  0  0  0  0  0  0  0  0  0
   46.2147    9.8870   13.0032 C   0  0  0  0  0  0  0  0  0  0  0  0
   40.7870   15.2182    8.8617 O   0  0  0  0  0  0  0  0  0  0  0  0
   40.6854   13.7086   11.8635 C   0  0  0  0  0  0  0  0  0  0  0  0
   39.8692   11.9661   10.2479 C   0  0  0  0  0  0  0  0  0  0  0  0
   47.3236    8.8730   13.1392 C   0  0  0  0  0  0  0  0  0  0  0  0
   47.0404    7.5656   13.5576 C   0  0  0  0  0  0  0  0  0  0  0  0
   48.6502    9.2186   12.8422 C   0  0  0  0  0  0  0  0  0  0  0  0
   48.0662    6.6297   13.6971 C   0  0  0  0  0  0  0  0  0  0  0  0
   49.6740    8.2802   12.9838 C   0  0  0  0  0  0  0  0  0  0  0  0
   49.3828    6.9873   13.4146 C   0  0  0  0  0  0  0  0  0  0  0  0
   44.6993    9.8253   10.9700 N   0  0  0  0  0  0  0  0  0  0  0  0
   43.4692   12.3764   11.5153 N   0  0  0  0  0  0  0  0  0  0  0  0
   41.6438   13.1248   10.0713 C   0  0  0  0  0  0  0  0  0  0  0  0
   46.1550    8.5016   12.5112 C   0  0  0  0  0  0  0  0  0  0  0  0
   44.8045    9.1318   12.2600 C   0  0  0  0  0  0  0  0  0  0  0  0
   43.1348   12.9208   10.1968 C   0  0  0  0  0  0  0  0  0  0  0  0
   45.5242   11.0448   10.9078 C   0  0  0  0  0  0  0  0  0  0  0  0
   44.9237   12.2311   11.6954 C   0  0  0  0  0  0  0  0  0  0  0  0
   41.0796   14.4006   10.2130 C   0  0  0  0  0  0  0  0  0  0  0  0
   40.7976   12.0304    9.8361 C   0  0  0  0  0  0  0  0  0  0  0  0
   46.7152    7.6167   11.5780 C   0  0  0  0  0  0  0  0  0  0  0  0
   46.8570    8.7713   13.6943 C   0  0  0  0  0  0  0  0  0  0  0  0
   39.6989   14.5782   10.1049 C   0  0  0  0  0  0  0  0  0  0  0  0
   47.9568    7.0259   11.8153 C   0  0  0  0  0  0  0  0  0  0  0  0
   48.1002    8.1808   13.9305 C   0  0  0  0  0  0  0  0  0  0  0  0
   39.4186   12.2106    9.7275 C   0  0  0  0  0  0  0  0  0  0  0  0
   38.8694   13.4844    9.8592 C   0  0  0  0  0  0  0  0  0  0  0  0
   48.6501    7.3102   12.9911 C   0  0  0  0  0  0  0  0  0  0  0  0
   41.5509   10.8534    9.8659 N   0  0  0  0  0  0  0  0  0  0  0  0
   42.1344   10.5380   11.1825 C   0  0  1  0  0  0  0  0  0  0  0  0
   42.6842   10.5194    9.1821 C   0  0  0  0  0  0  0  0  0  0  0  0
   43.2927    9.8296   10.4242 C   0  0  1  0  0  0  0  0  0  0  0  0
   40.9184   12.1554    9.7116 C   0  0  2  0  0  0  0  0  0  0  0  0
   42.5058   12.1736   11.9456 S   0  0  0  0  0  0  0  0  0  0  0  0
   41.6676   13.1605   10.6183 C   0  0  0  0  0  0  0  0  0  0  0  0
   44.6873   10.2176   10.7685 N   0  0  0  0  0  0  0  0  0  0  0  0
   39.4422   11.9864   10.0615 C   0  0  0  0  0  0  0  0  0  0  0  0
   45.2448    9.8424   11.9741 C   0  0  0  0  0  0  0  0  0  0  0  0
   43.0552   10.8071    8.0677 O   0  0  0  0  0  0  0  0  0  0  0  0
   38.9595   11.2413   10.8987 O   0  0  0  0  0  0  0  0  0  0  0  0
   44.6381    9.1349   12.7728 O   0  0  0  0  0  0  0  0  0  0  0  0
   46.6265   10.4186   12.2299 C   0  0  0  0  0  0  0  0  0  0  0  0
   38.6423   12.8090    9.3491 O   0  0  0  0  0  0  0  0  0  0  0  0
   42.7665   13.8947    9.8323 C   0  0  0  0  0  0  0  0  0  0  0  0
   40.7730   14.2064   11.2966 C   0  0  0  0  0  0  0  0  0  0  0  0
   47.6129    9.4069   12.7581 C   0  0  0  0  0  0  0  0  0  0  0  0
   48.3970    8.6449   11.8799 C   0  0  0  0  0  0  0  0  0  0  0  0
   47.7453    9.2003   14.1389 C   0  0  0  0  0  0  0  0  0  0  0  0
   49.3079    7.7093   12.3752 C   0  0  0  0  0  0  0  0  0  0  0  0
   48.6565    8.2652   14.6317 C   0  0  0  0  0  0  0  0  0  0  0  0
   49.4403    7.5237   13.7499 C   0  0  0  0  0  0  0  0  0  0  0  0
   44.2139   11.1993   11.6085 O   0  0  0  0  0  0  0  0  0  0  0  0
   44.2049   11.2063   11.6046 O   0  0  0  0  0  0  0  0  0  0  0  0
   44.2140   11.1993   11.6087 O   0  0  0  0  0  0  0  0  0  0  0  0
   43.5521   11.2905   10.9047 H   0  0  0  0  0  0  0  0  0  0  0  0
   44.6828   10.3842   11.3827 H   0  0  0  0  0  0  0  0  0  0  0  0
   42.4721   10.2034    9.4041 H   0  0  0  0  0  0  0  0  0  0  0  0
   44.9021   10.4241    9.0006 H   0  0  0  0  0  0  0  0  0  0  0  0
   42.6225   14.1297   10.1465 H   0  0  0  0  0  0  0  0  0  0  0  0
   45.6191   11.8505   11.4824 H   0  0  0  0  0  0  0  0  0  0  0  0
   45.4871    9.7540   13.8127 H   0  0  0  0  0  0  0  0  0  0  0  0
   46.6269   10.8944   13.1372 H   0  0  0  0  0  0  0  0  0  0  0  0
   40.3389   15.5164    8.0422 H   0  0  0  0  0  0  0  0  0  0  0  0
   40.0289   14.4759   11.4373 H   0  0  0  0  0  0  0  0  0  0  0  0
   41.5504   14.2235   12.2998 H   0  0  0  0  0  0  0  0  0  0  0  0
   40.1329   13.2279   12.6801 H   0  0  0  0  0  0  0  0  0  0  0  0
   39.1510   12.6766    9.8228 H   0  0  0  0  0  0  0  0  0  0  0  0
   40.1236   11.2480    9.4597 H   0  0  0  0  0  0  0  0  0  0  0  0
   39.3442   11.4225   11.0436 H   0  0  0  0  0  0  0  0  0  0  0  0
   46.0156    7.2674   13.7707 H   0  0  0  0  0  0  0  0  0  0  0  0
   48.8991   10.2215   12.5024 H   0  0  0  0  0  0  0  0  0  0  0  0
   47.8357    5.6189   14.0234 H   0  0  0  0  0  0  0  0  0  0  0  0
   50.7008    8.5570   12.7579 H   0  0  0  0  0  0  0  0  0  0  0  0
   50.1807    6.2575   13.5233 H   0  0  0  0  0  0  0  0  0  0  0  0
   43.7286   10.1484   10.8917 H   0  0  0  0  0  0  0  0  0  0  0  0
   43.1110   13.0226   12.2193 H   0  0  0  0  0  0  0  0  0  0  0  0
   44.5301    9.8027   13.0823 H   0  0  0  0  0  0  0  0  0  0  0  0
   44.0615    8.3245   12.2741 H   0  0  0  0  0  0  0  0  0  0  0  0
   43.6474   13.8774   10.0330 H   0  0  0  0  0  0  0  0  0  0  0  0
   43.4592   12.2471    9.3953 H   0  0  0  0  0  0  0  0  0  0  0  0
   46.5556   10.8609   11.2283 H   0  0  0  0  0  0  0  0  0  0  0  0
   45.5894   11.3297    9.8510 H   0  0  0  0  0  0  0  0  0  0  0  0
   45.1069   12.0623   12.7634 H   0  0  0  0  0  0  0  0  0  0  0  0
   45.4465   13.1590   11.4371 H   0  0  0  0  0  0  0  0  0  0  0  0
   41.7112   15.2643   10.4068 H   0  0  0  0  0  0  0  0  0  0  0  0
   41.2159   11.0312    9.7407 H   0  0  0  0  0  0  0  0  0  0  0  0
   46.1819    7.3969   10.6551 H   0  0  0  0  0  0  0  0  0  0  0  0
   46.4409    9.4441   14.4400 H   0  0  0  0  0  0  0  0  0  0  0  0
   39.2686   15.5710   10.2118 H   0  0  0  0  0  0  0  0  0  0  0  0
   48.3841    6.3497   11.0796 H   0  0  0  0  0  0  0  0  0  0  0  0
   48.6403    8.3978   14.8480 H   0  0  0  0  0  0  0  0  0  0  0  0
   38.7726   11.3567    9.5421 H   0  0  0  0  0  0  0  0  0  0  0  0
   37.7944   13.6245    9.7765 H   0  0  0  0  0  0  0  0  0  0  0  0
   49.6193    6.8518   13.1726 H   0  0  0  0  0  0  0  0  0  0  0  0
   41.4980    9.8823   11.7841 H   0  0  0  0  0  0  0  0  0  0  0  0
   43.1931    8.7375   10.3704 H   0  0  0  0  0  0  0  0  0  0  0  0
   40.9811   12.4431    8.6535 H   0  0  0  0  0  0  0  0  0  0  0  0
   45.1733   10.8921   10.1855 H   0  0  0  0  0  0  0  0  0  0  0  0
   47.0301   10.8660   11.3134 H   0  0  0  0  0  0  0  0  0  0  0  0
   46.5139   11.2454   12.9430 H   0  0  0  0  0  0  0  0  0  0  0  0
   37.7388   12.5939    9.6656 H   0  0  0  0  0  0  0  0  0  0  0  0
   43.4867   13.2086    9.3738 H   0  0  0  0  0  0  0  0  0  0  0  0
   43.3302   14.5848   10.4713 H   0  0  0  0  0  0  0  0  0  0  0  0
   42.3248   14.4912    9.0256 H   0  0  0  0  0  0  0  0  0  0  0  0
   40.0257   13.7523   11.9568 H   0  0  0  0  0  0  0  0  0  0  0  0
   41.3618   14.9050   11.9051 H   0  0  0  0  0  0  0  0  0  0  0  0
   40.2416   14.8050   10.5484 H   0  0  0  0  0  0  0  0  0  0  0  0
   48.3059    8.7727   10.8041 H   0  0  0  0  0  0  0  0  0  0  0  0
   47.1299    9.7616   14.8393 H   0  0  0  0  0  0  0  0  0  0  0  0
   49.9133    7.1225   11.6898 H   0  0  0  0  0  0  0  0  0  0  0  0
   48.7498    8.1126   15.7037 H   0  0  0  0  0  0  0  0  0  0  0  0
   50.1484    6.7948   14.1351 H   0  0  0  0  0  0  0  0  0  0  0  0
   44.6813   10.3819   11.3788 H   0  0  0  0  0  0  0  0  0  0  0  0
   43.5518   11.2941   10.9079 H   0  0  0  0  0  0  0  0  0  0  0  0
   44.6894   10.3928   11.3989 H   0  0  0  0  0  0  0  0  0  0  0  0
   43.5527   11.2763   10.8917 H   0  0  0  0  0  0  0  0  0  0  0  0
   44.6813   10.3818   11.3786 H   0  0  0  0  0  0  0  0  0  0  0  0
   43.5517   11.2942   10.9078 H   0  0  0  0  0  0  0  0  0  0  0  0
  3  2  1  0
  4  2  1  0
  5  3  1  0
  6  2  1  0
  3  7  1  0
  8  6  1  0
  5  9  1  0
  6 10  1  0
 11  9  1  0
 12  4  2  0
 13 10  2  0
 14 11  2  0
 15 11  1  0
 16 10  1  0
 17  8  1  0
 18  8  1  0
 19 15  1  0
 20 19  2  0
 21 19  1  0
 22 20  1  0
 23 21  2  0
 24 23  1  0
  7  8  1  0
  4  5  1  0
 24 22  2  0
 26 32  1  0
 27 30  1  0
 28 29  1  0
 29 25  1  0
 30 26  1  0
 31 25  1  0
 32 31  1  0
 33 27  2  0
 34 27  1  0
 35 28  2  0
 36 28  1  0
 37 33  1  0
 38 35  1  0
 39 36  2  0
 40 34  2  0
 41 37  2  0
 42 39  1  0
 42 38  2  0
 40 41  1  0
 44 43  1  0
 45 43  1  0
 46 44  1  0
 47 43  1  0
 44 48  1  0
 49 47  1  0
 46 50  1  0
 47 51  1  0
 52 50  1  0
 53 45  2  0
 54 51  2  0
 55 52  2  0
 56 52  1  0
 57 51  1  0
 58 49  1  0
 59 49  1  0
 60 56  1  0
 61 60  2  0
 62 60  1  0
 63 61  1  0
 64 62  2  0
 65 64  1  0
 48 49  1  0
 45 46  1  0
 65 63  2  0
  1 69  1  0
  1 70  1  0
  3 71  1  1
  5 72  1  6
  6 73  1  6
  9 74  1  0
 15 75  1  0
 15 76  1  0
 16 77  1  0
 17 78  1  0
 17 79  1  0
 17 80  1  0
 18 81  1  0
 18 82  1  0
 18 83  1  0
 20 84  1  0
 21 85  1  0
 22 86  1  0
 23 87  1  0
 24 88  1  0
 25 89  1  0
 26 90  1  0
 29 91  1  0
 29 92  1  0
 30 93  1  0
 30 94  1  0
 31 95  1  0
 31 96  1  0
 32 97  1  0
 32 98  1  0
 33 99  1  0
 34100  1  0
 35101  1  0
 36102  1  0
 37103  1  0
 38104  1  0
 39105  1  0
 40106  1  0
 41107  1  0
 42108  1  0
 44109  1  1
 46110  1  1
 47111  1  6
 50112  1  0
 56113  1  0
 56114  1  0
 57115  1  0
 58116  1  0
 58117  1  0
 58118  1  0
 59119  1  0
 59120  1  0
 59121  1  0
 61122  1  0
 62123  1  0
 63124  1  0
 64125  1  0
 65126  1  0
 66127  1  0
 66128  1  0
 67129  1  0
 67130  1  0
 68131  1  0
 68132  1  0
M  END
> <Uni-Dock RESULT> 
ENERGY=   -7.308  LOWER_BOUND=    5.151  UPPER_BOUND=    8.168
INTER + INTRA:          -7.308
INTER:                  -7.308
INTRA:                   0.000
UNBOUND:                 0.000

$$$$

     RDKit          3D

132133  0  0  0  0  0  0  0  0999 V2000
   48.5586    9.0423   17.3724 O   0  0  0  0  0  0  0  0  0  0  0  0
   50.5774    9.3917   15.2313 N   0  0  0  0  0  0  0  0  0  0  0  0
   50.0686    8.3197   16.1136 C   0  0  1  0  0  0  0  0  0  0  0  0
   50.6661   10.3053   16.2475 C   0  0  0  0  0  0  0  0  0  0  0  0
   50.4009    9.2289   17.3225 C   0  0  1  0  0  0  0  0  0  0  0  0
   49.7931    9.7253   14.0424 C   0  0  2  0  0  0  0  0  0  0  0  0
   48.3069    8.1518   15.6017 S   0  0  0  0  0  0  0  0  0  0  0  0
   48.7257    8.6297   13.8557 C   0  0  0  0  0  0  0  0  0  0  0  0
   49.3048    9.5221   18.2840 N   0  0  0  0  0  0  0  0  0  0  0  0
   50.7124    9.9004   12.8411 C   0  0  0  0  0  0  0  0  0  0  0  0
   48.8655    8.5559   19.1664 C   0  0  0  0  0  0  0  0  0  0  0  0
   50.7576   11.5114   16.2210 O   0  0  0  0  0  0  0  0  0  0  0  0
   51.8107    9.3975   12.6675 O   0  0  0  0  0  0  0  0  0  0  0  0
   49.4028    7.4526   19.2321 O   0  0  0  0  0  0  0  0  0  0  0  0
   47.6552    8.9596   19.9916 C   0  0  0  0  0  0  0  0  0  0  0  0
   50.1691   10.6804   11.8829 O   0  0  0  0  0  0  0  0  0  0  0  0
   47.4620    9.1675   13.1802 C   0  0  0  0  0  0  0  0  0  0  0  0
   49.2233    7.3767   13.1203 C   0  0  0  0  0  0  0  0  0  0  0  0
   47.8246    8.7182   21.4713 C   0  0  0  0  0  0  0  0  0  0  0  0
   47.5910    7.4467   22.0128 C   0  0  0  0  0  0  0  0  0  0  0  0
   48.2252    9.7567   22.3249 C   0  0  0  0  0  0  0  0  0  0  0  0
   47.7340    7.2242   23.3831 C   0  0  0  0  0  0  0  0  0  0  0  0
   48.3662    9.5309   23.6953 C   0  0  0  0  0  0  0  0  0  0  0  0
   48.1171    8.2662   24.2248 C   0  0  0  0  0  0  0  0  0  0  0  0
   49.4662    8.2095   18.3817 N   0  0  0  0  0  0  0  0  0  0  0  0
   48.3661    9.6170   16.1172 N   0  0  0  0  0  0  0  0  0  0  0  0
   49.4306    9.3303   13.9349 C   0  0  0  0  0  0  0  0  0  0  0  0
   48.3534    7.8074   20.5832 C   0  0  0  0  0  0  0  0  0  0  0  0
   48.3287    7.6042   19.0858 C   0  0  0  0  0  0  0  0  0  0  0  0
   49.5270    9.9739   15.2977 C   0  0  0  0  0  0  0  0  0  0  0  0
   49.4329    9.6826   18.4026 C   0  0  0  0  0  0  0  0  0  0  0  0
   48.3950   10.2856   17.4292 C   0  0  0  0  0  0  0  0  0  0  0  0
   49.0150   10.0710   12.8193 C   0  0  0  0  0  0  0  0  0  0  0  0
   49.7320    7.9695   13.7727 C   0  0  0  0  0  0  0  0  0  0  0  0
   49.4800    7.4427   21.3352 C   0  0  0  0  0  0  0  0  0  0  0  0
   47.2393    8.3392   21.2475 C   0  0  0  0  0  0  0  0  0  0  0  0
   48.9197    9.4651   11.5649 C   0  0  0  0  0  0  0  0  0  0  0  0
   49.4983    7.6196   22.7191 C   0  0  0  0  0  0  0  0  0  0  0  0
   47.2590    8.5174   22.6324 C   0  0  0  0  0  0  0  0  0  0  0  0
   49.6369    7.3667   12.5183 C   0  0  0  0  0  0  0  0  0  0  0  0
   49.2334    8.1147   11.4141 C   0  0  0  0  0  0  0  0  0  0  0  0
   48.3880    8.1594   23.3671 C   0  0  0  0  0  0  0  0  0  0  0  0
   49.9873    7.4037   15.0250 N   0  0  0  0  0  0  0  0  0  0  0  0
   48.8224    7.3746   15.9280 C   0  0  1  0  0  0  0  0  0  0  0  0
   50.8524    7.7963   16.0054 C   0  0  0  0  0  0  0  0  0  0  0  0
   49.8240    7.4746   17.1136 C   0  0  1  0  0  0  0  0  0  0  0  0
   49.8488    8.1484   13.7819 C   0  0  2  0  0  0  0  0  0  0  0  0
   47.8573    8.8885   15.5131 S   0  0  0  0  0  0  0  0  0  0  0  0
   48.8923    9.3364   14.0413 C   0  0  0  0  0  0  0  0  0  0  0  0
   49.5984    8.5427   18.1246 N   0  0  0  0  0  0  0  0  0  0  0  0
   49.3492    7.1708   12.7213 C   0  0  0  0  0  0  0  0  0  0  0  0
   48.5486    8.4571   19.0165 C   0  0  0  0  0  0  0  0  0  0  0  0
   51.9430    8.3148   15.9436 O   0  0  0  0  0  0  0  0  0  0  0  0
   48.5899    6.2289   12.8804 O   0  0  0  0  0  0  0  0  0  0  0  0
   47.8054    7.4807   19.0458 O   0  0  0  0  0  0  0  0  0  0  0  0
   48.3776    9.6806   19.8999 C   0  0  0  0  0  0  0  0  0  0  0  0
   49.8136    7.4620   11.4870 O   0  0  0  0  0  0  0  0  0  0  0  0
   49.6803   10.6054   14.4063 C   0  0  0  0  0  0  0  0  0  0  0  0
   47.9474    9.6679   12.8786 C   0  0  0  0  0  0  0  0  0  0  0  0
   48.1474    9.3473   21.3529 C   0  0  0  0  0  0  0  0  0  0  0  0
   49.2283    9.2045   22.2350 C   0  0  0  0  0  0  0  0  0  0  0  0
   46.8457    9.1558   21.8384 C   0  0  0  0  0  0  0  0  0  0  0  0
   49.0085    8.8951   23.5790 C   0  0  0  0  0  0  0  0  0  0  0  0
   46.6284    8.8471   23.1819 C   0  0  0  0  0  0  0  0  0  0  0  0
   47.7093    8.7215   24.0521 C   0  0  0  0  0  0  0  0  0  0  0  0
   48.5583    9.0420   17.3748 O   0  0  0  0  0  0  0  0  0  0  0  0
   48.5599    9.0432   17.3629 O   0  0  0  0  0  0  0  0  0  0  0  0
   48.5581    9.0421   17.3749 O   0  0  0  0  0  0  0  0  0  0  0  0
   49.1498    8.8004   16.6445 H   0  0  0  0  0  0  0  0  0  0  0  0
   48.9697    8.6377   18.1509 H   0  0  0  0  0  0  0  0  0  0  0  0
   50.6596    7.4017   16.0411 H   0  0  0  0  0  0  0  0  0  0  0  0
   51.3225    8.9515   17.8509 H   0  0  0  0  0  0  0  0  0  0  0  0
   49.3167   10.7004   14.2233 H   0  0  0  0  0  0  0  0  0  0  0  0
   48.7520   10.3665   18.1640 H   0  0  0  0  0  0  0  0  0  0  0  0
   46.7934    8.3937   19.6182 H   0  0  0  0  0  0  0  0  0  0  0  0
   47.4126   10.0157   19.8226 H   0  0  0  0  0  0  0  0  0  0  0  0
   50.8671   10.7364   11.1966 H   0  0  0  0  0  0  0  0  0  0  0  0
   47.6731    9.4725   12.1488 H   0  0  0  0  0  0  0  0  0  0  0  0
   47.0598   10.0432   13.7047 H   0  0  0  0  0  0  0  0  0  0  0  0
   46.6714    8.4084   13.1373 H   0  0  0  0  0  0  0  0  0  0  0  0
   49.4349    7.6004   12.0684 H   0  0  0  0  0  0  0  0  0  0  0  0
   50.1429    6.9725   13.5595 H   0  0  0  0  0  0  0  0  0  0  0  0
   48.4668    6.5819   13.1295 H   0  0  0  0  0  0  0  0  0  0  0  0
   47.3026    6.6196   21.3667 H   0  0  0  0  0  0  0  0  0  0  0  0
   48.4267   10.7508   21.9321 H   0  0  0  0  0  0  0  0  0  0  0  0
   47.5492    6.2345   23.7927 H   0  0  0  0  0  0  0  0  0  0  0  0
   48.6709   10.3421   24.3518 H   0  0  0  0  0  0  0  0  0  0  0  0
   48.2285    8.0915   25.2917 H   0  0  0  0  0  0  0  0  0  0  0  0
   49.3693    7.9486   17.3941 H   0  0  0  0  0  0  0  0  0  0  0  0
   47.5277    9.9099   15.6144 H   0  0  0  0  0  0  0  0  0  0  0  0
   47.3809    7.9559   18.6618 H   0  0  0  0  0  0  0  0  0  0  0  0
   48.3526    6.5224   18.9043 H   0  0  0  0  0  0  0  0  0  0  0  0
   49.5966   11.0631   15.1810 H   0  0  0  0  0  0  0  0  0  0  0  0
   50.4610    9.6460   15.7684 H   0  0  0  0  0  0  0  0  0  0  0  0
   49.2777   10.0766   19.4131 H   0  0  0  0  0  0  0  0  0  0  0  0
   50.4294   10.0264   18.1011 H   0  0  0  0  0  0  0  0  0  0  0  0
   47.3997   10.1745   17.8761 H   0  0  0  0  0  0  0  0  0  0  0  0
   48.5632   11.3628   17.3179 H   0  0  0  0  0  0  0  0  0  0  0  0
   48.7646   11.1245   12.9191 H   0  0  0  0  0  0  0  0  0  0  0  0
   50.0393    7.3753   14.6300 H   0  0  0  0  0  0  0  0  0  0  0  0
   50.3523    7.0279   20.8338 H   0  0  0  0  0  0  0  0  0  0  0  0
   46.3486    8.6195   20.6909 H   0  0  0  0  0  0  0  0  0  0  0  0
   48.6007   10.0465   10.7033 H   0  0  0  0  0  0  0  0  0  0  0  0
   50.3812    7.3420   23.2888 H   0  0  0  0  0  0  0  0  0  0  0  0
   46.3932    8.9340   23.1398 H   0  0  0  0  0  0  0  0  0  0  0  0
   49.8758    6.3129   12.4031 H   0  0  0  0  0  0  0  0  0  0  0  0
   49.1575    7.6444   10.4368 H   0  0  0  0  0  0  0  0  0  0  0  0
   48.4055    8.3000   24.4452 H   0  0  0  0  0  0  0  0  0  0  0  0
   48.2600    6.4382   15.8674 H   0  0  0  0  0  0  0  0  0  0  0  0
   50.0408    6.5149   17.6011 H   0  0  0  0  0  0  0  0  0  0  0  0
   50.8459    8.4932   13.4766 H   0  0  0  0  0  0  0  0  0  0  0  0
   50.1208    9.4107   18.0548 H   0  0  0  0  0  0  0  0  0  0  0  0
   49.2529   10.3366   19.8183 H   0  0  0  0  0  0  0  0  0  0  0  0
   47.5318   10.2584   19.5054 H   0  0  0  0  0  0  0  0  0  0  0  0
   49.4257    6.7639   10.9169 H   0  0  0  0  0  0  0  0  0  0  0  0
   50.3301   10.4624   15.2763 H   0  0  0  0  0  0  0  0  0  0  0  0
   49.0136   11.4472   14.6283 H   0  0  0  0  0  0  0  0  0  0  0  0
   50.3183   10.9122   13.5693 H   0  0  0  0  0  0  0  0  0  0  0  0
   47.2812    8.8341   12.6307 H   0  0  0  0  0  0  0  0  0  0  0  0
   47.3124   10.5326   13.1109 H   0  0  0  0  0  0  0  0  0  0  0  0
   48.5166    9.9231   11.9779 H   0  0  0  0  0  0  0  0  0  0  0  0
   50.2493    9.3327   21.8842 H   0  0  0  0  0  0  0  0  0  0  0  0
   45.9924    9.2365   21.1678 H   0  0  0  0  0  0  0  0  0  0  0  0
   49.8500    8.7866   24.2578 H   0  0  0  0  0  0  0  0  0  0  0  0
   45.6154    8.6997   23.5468 H   0  0  0  0  0  0  0  0  0  0  0  0
   47.5387    8.4796   25.0979 H   0  0  0  0  0  0  0  0  0  0  0  0
   48.9737    8.6352   18.1502 H   0  0  0  0  0  0  0  0  0  0  0  0
   49.1461    8.8030   16.6429 H   0  0  0  0  0  0  0  0  0  0  0  0
   48.9533    8.6474   18.1549 H   0  0  0  0  0  0  0  0  0  0  0  0
   49.1649    8.7897   16.6500 H   0  0  0  0  0  0  0  0  0  0  0  0
   48.9739    8.6351   18.1502 H   0  0  0  0  0  0  0  0  0  0  0  0
   49.1461    8.8031   16.6428 H   0  0  0  0  0  0  0  0  0  0  0  0
  3  2  1  0
  4  2  1  0
  5  3  1  0
  6  2  1  0
  3  7  1  0
  8  6  1  0
  5  9  1  0
  6 10  1  0
 11  9  1  0
 12  4  2  0
 13 10  2  0
 14 11  2  0
 15 11  1  0
 16 10  1  0
 17  8  1  0
 18  8  1  0
 19 15  1  0
 20 19  2  0
 21 19  1  0
 22 20  1  0
 23 21  2  0
 24 23  1  0
  7  8  1  0
  4  5  1  0
 24 22  2  0
 26 32  1  0
 27 30  1  0
 28 29  1  0
 29 25  1  0
 30 26  1  0
 31 25  1  0
 32 31  1  0
 33 27  2  0
 34 27  1  0
 35 28  2  0
 36 28  1  0
 37 33  1  0
 38 35  1  0
 39 36  2  0
 40 34  2  0
 41 37  2  0
 42 39  1  0
 42 38  2  0
 40 41  1  0
 44 43  1  0
 45 43  1  0
 46 44  1  0
 47 43  1  0
 44 48  1  0
 49 47  1  0
 46 50  1  0
 47 51  1  0
 52 50  1  0
 53 45  2  0
 54 51  2  0
 55 52  2  0
 56 52  1  0
 57 51  1  0
 58 49  1  0
 59 49  1  0
 60 56  1  0
 61 60  2  0
 62 60  1  0
 63 61  1  0
 64 62  2  0
 65 64  1  0
 48 49  1  0
 45 46  1  0
 65 63  2  0
  1 69  1  0
  1 70  1  0
  3 71  1  1
  5 72  1  6
  6 73  1  6
  9 74  1  0
 15 75  1  0
 15 76  1  0
 16 77  1  0
 17 78  1  0
 17 79  1  0
 17 80  1  0
 18 81  1  0
 18 82  1  0
 18 83  1  0
 20 84  1  0
 21 85  1  0
 22 86  1  0
 23 87  1  0
 24 88  1  0
 25 89  1  0
 26 90  1  0
 29 91  1  0
 29 92  1  0
 30 93  1  0
 30 94  1  0
 31 95  1  0
 31 96  1  0
 32 97  1  0
 32 98  1  0
 33 99  1  0
 34100  1  0
 35101  1  0
 36102  1  0
 37103  1  0
 38104  1  0
 39105  1  0
 40106  1  0
 41107  1  0
 42108  1  0
 44109  1  1
 46110  1  1
 47111  1  6
 50112  1  0
 56113  1  0
 56114  1  0
 57115  1  0
 58116  1  0
 58117  1  0
 58118  1  0
 59119  1  0
 59120  1  0
 59121  1  0
 61122  1  0
 62123  1  0
 63124  1  0
 64125  1  0
 65126  1  0
 66127  1  0
 66128  1  0
 67129  1  0
 67130  1  0
 68131  1  0
 68132  1  0
M  END
> <Uni-Dock RESULT> 
ENERGY=   -7.182  LOWER_BOUND=    4.716  UPPER_BOUND=    7.565
INTER + INTRA:          -7.182
INTER:                  -7.182
INTRA:                   0.000
UNBOUND:                 0.000

$$$$

     RDKit          3D

132133  0  0  0  0  0  0  0  0999 V2000
   42.1255   13.6380   10.6935 O   0  0  0  0  0  0  0  0  0  0  0  0
   44.8955   12.9942    9.8597 N   0  0  0  0  0  0  0  0  0  0  0  0
   43.6576   12.2825   10.2439 C   0  0  1  0  0  0  0  0  0  0  0  0
   44.8089   13.8843   10.8967 C   0  0  0  0  0  0  0  0  0  0  0  0
   43.6656   13.0904   11.5652 C   0  0  1  0  0  0  0  0  0  0  0  0
   44.9917   13.5039    8.4919 C   0  0  2  0  0  0  0  0  0  0  0  0
   42.4647   12.7685    8.9269 S   0  0  0  0  0  0  0  0  0  0  0  0
   43.8334   12.8967    7.6770 C   0  0  0  0  0  0  0  0  0  0  0  0
   42.4427   13.8661   11.9040 N   0  0  0  0  0  0  0  0  0  0  0  0
   46.3705   13.2063    7.9182 C   0  0  0  0  0  0  0  0  0  0  0  0
   41.2992   13.2245   12.3352 C   0  0  0  0  0  0  0  0  0  0  0  0
   45.3484   14.9535   11.0684 O   0  0  0  0  0  0  0  0  0  0  0  0
   47.1279   12.3039    8.2367 O   0  0  0  0  0  0  0  0  0  0  0  0
   41.2724   12.0091   12.5146 O   0  0  0  0  0  0  0  0  0  0  0  0
   40.0956   14.1344   12.5145 C   0  0  0  0  0  0  0  0  0  0  0  0
   46.7105   14.0518    6.9226 O   0  0  0  0  0  0  0  0  0  0  0  0
   43.3777   13.8234    6.5474 C   0  0  0  0  0  0  0  0  0  0  0  0
   44.1136   11.4914    7.1247 C   0  0  0  0  0  0  0  0  0  0  0  0
   39.4086   13.9724   13.8480 C   0  0  0  0  0  0  0  0  0  0  0  0
   38.4793   12.9420   14.0454 C   0  0  0  0  0  0  0  0  0  0  0  0
   39.6938   14.8425   14.9107 C   0  0  0  0  0  0  0  0  0  0  0  0
   37.8326   12.7983   15.2737 C   0  0  0  0  0  0  0  0  0  0  0  0
   39.0442   14.6965   16.1377 C   0  0  0  0  0  0  0  0  0  0  0  0
   38.1113   13.6773   16.3181 C   0  0  0  0  0  0  0  0  0  0  0  0
   42.0263   12.6071   11.9031 N   0  0  0  0  0  0  0  0  0  0  0  0
   42.8095   14.1339    9.5848 N   0  0  0  0  0  0  0  0  0  0  0  0
   44.6114   13.2730    8.1742 C   0  0  0  0  0  0  0  0  0  0  0  0
   39.9175   12.8562   13.2212 C   0  0  0  0  0  0  0  0  0  0  0  0
   40.5590   12.5525   11.8869 C   0  0  0  0  0  0  0  0  0  0  0  0
   44.2583   13.9417    9.4814 C   0  0  0  0  0  0  0  0  0  0  0  0
   42.5453   13.9738   12.0888 C   0  0  0  0  0  0  0  0  0  0  0  0
   42.4380   14.8474   10.8185 C   0  0  0  0  0  0  0  0  0  0  0  0
   45.1142   14.0196    7.0991 C   0  0  0  0  0  0  0  0  0  0  0  0
   44.4147   11.8934    8.0098 C   0  0  0  0  0  0  0  0  0  0  0  0
   40.2932   12.1481   14.3723 C   0  0  0  0  0  0  0  0  0  0  0  0
   38.9169   13.8328   13.3236 C   0  0  0  0  0  0  0  0  0  0  0  0
   45.4289   13.3942    5.8909 C   0  0  0  0  0  0  0  0  0  0  0  0
   39.6925   12.4206   15.6019 C   0  0  0  0  0  0  0  0  0  0  0  0
   38.3173   14.1059   14.5549 C   0  0  0  0  0  0  0  0  0  0  0  0
   44.7307   11.2708    6.8022 C   0  0  0  0  0  0  0  0  0  0  0  0
   45.2402   12.0203    5.7438 C   0  0  0  0  0  0  0  0  0  0  0  0
   38.7060   13.4015   15.6930 C   0  0  0  0  0  0  0  0  0  0  0  0
   43.7848   11.3811    9.1475 N   0  0  0  0  0  0  0  0  0  0  0  0
   42.4152   11.8828    9.3622 C   0  0  1  0  0  0  0  0  0  0  0  0
   44.1283   11.4888   10.4643 C   0  0  0  0  0  0  0  0  0  0  0  0
   42.6545   11.6864   10.8863 C   0  0  1  0  0  0  0  0  0  0  0  0
   44.5692   12.0130    8.0967 C   0  0  2  0  0  0  0  0  0  0  0  0
   42.4334   13.6115    8.7245 S   0  0  0  0  0  0  0  0  0  0  0  0
   44.1391   13.4964    8.0064 C   0  0  0  0  0  0  0  0  0  0  0  0
   42.3823   12.8399   11.7859 N   0  0  0  0  0  0  0  0  0  0  0  0
   44.3312   11.2199    6.8144 C   0  0  0  0  0  0  0  0  0  0  0  0
   41.0873   13.2440   12.0397 C   0  0  0  0  0  0  0  0  0  0  0  0
   45.2097   11.5363   11.0034 O   0  0  0  0  0  0  0  0  0  0  0  0
   43.3022   10.6634    6.4672 O   0  0  0  0  0  0  0  0  0  0  0  0
   40.1218   12.6388   11.5836 O   0  0  0  0  0  0  0  0  0  0  0  0
   40.9793   14.5081   12.8746 C   0  0  0  0  0  0  0  0  0  0  0  0
   45.4133   11.2024    6.0064 O   0  0  0  0  0  0  0  0  0  0  0  0
   45.0557   14.3863    8.8622 C   0  0  0  0  0  0  0  0  0  0  0  0
   44.0956   14.0687    6.5834 C   0  0  0  0  0  0  0  0  0  0  0  0
   39.9573   14.4146   13.9801 C   0  0  0  0  0  0  0  0  0  0  0  0
   40.3167   13.9389   15.2495 C   0  0  0  0  0  0  0  0  0  0  0  0
   38.6249   14.7849   13.7466 C   0  0  0  0  0  0  0  0  0  0  0  0
   39.3657   13.8540   16.2686 C   0  0  0  0  0  0  0  0  0  0  0  0
   37.6763   14.6997   14.7667 C   0  0  0  0  0  0  0  0  0  0  0  0
   38.0481   14.2387   16.0280 C   0  0  0  0  0  0  0  0  0  0  0  0
   42.1240   13.6381   10.6954 O   0  0  0  0  0  0  0  0  0  0  0  0
   42.1316   13.6376   10.6859 O   0  0  0  0  0  0  0  0  0  0  0  0
   42.1239   13.6383   10.6954 O   0  0  0  0  0  0  0  0  0  0  0  0
   42.8567   13.1250   10.3190 H   0  0  0  0  0  0  0  0  0  0  0  0
   41.9120   13.1732   11.5163 H   0  0  0  0  0  0  0  0  0  0  0  0
   43.8108   11.2045   10.3527 H   0  0  0  0  0  0  0  0  0  0  0  0
   44.0236   12.5230   12.4344 H   0  0  0  0  0  0  0  0  0  0  0  0
   44.8965   14.5990    8.5396 H   0  0  0  0  0  0  0  0  0  0  0  0
   42.3866   14.8454   11.6378 H   0  0  0  0  0  0  0  0  0  0  0  0
   39.3902   13.9178   11.7034 H   0  0  0  0  0  0  0  0  0  0  0  0
   40.3868   15.1835   12.3823 H   0  0  0  0  0  0  0  0  0  0  0  0
   47.6171   13.7743    6.6730 H   0  0  0  0  0  0  0  0  0  0  0  0
   44.1663   13.9341    5.7942 H   0  0  0  0  0  0  0  0  0  0  0  0
   43.1340   14.8275    6.9161 H   0  0  0  0  0  0  0  0  0  0  0  0
   42.4926   13.4298    6.0329 H   0  0  0  0  0  0  0  0  0  0  0  0
   44.8820   11.5256    6.3439 H   0  0  0  0  0  0  0  0  0  0  0  0
   44.4661   10.8009    7.8997 H   0  0  0  0  0  0  0  0  0  0  0  0
   43.2160   11.0562    6.6674 H   0  0  0  0  0  0  0  0  0  0  0  0
   38.2595   12.2400   13.2431 H   0  0  0  0  0  0  0  0  0  0  0  0
   40.4202   15.6433   14.7919 H   0  0  0  0  0  0  0  0  0  0  0  0
   37.1128   11.9964   15.4157 H   0  0  0  0  0  0  0  0  0  0  0  0
   39.2657   15.3785   16.9550 H   0  0  0  0  0  0  0  0  0  0  0  0
   37.6072   13.5642   17.2743 H   0  0  0  0  0  0  0  0  0  0  0  0
   42.3384   12.3216   10.9683 H   0  0  0  0  0  0  0  0  0  0  0  0
   42.5100   14.6853    8.7800 H   0  0  0  0  0  0  0  0  0  0  0  0
   40.1571   13.2070   11.1048 H   0  0  0  0  0  0  0  0  0  0  0  0
   40.2594   11.5350   11.6064 H   0  0  0  0  0  0  0  0  0  0  0  0
   44.7811   14.9044    9.5498 H   0  0  0  0  0  0  0  0  0  0  0  0
   44.6355   13.3183   10.3003 H   0  0  0  0  0  0  0  0  0  0  0  0
   42.0743   14.4811   12.9380 H   0  0  0  0  0  0  0  0  0  0  0  0
   43.6050   13.8772   12.3528 H   0  0  0  0  0  0  0  0  0  0  0  0
   41.3953   15.1694   10.7100 H   0  0  0  0  0  0  0  0  0  0  0  0
   43.0309   15.7614   10.9378 H   0  0  0  0  0  0  0  0  0  0  0  0
   45.2658   15.0920    7.1956 H   0  0  0  0  0  0  0  0  0  0  0  0
   44.0094   11.3014    8.8271 H   0  0  0  0  0  0  0  0  0  0  0  0
   41.0680   11.3865   14.3085 H   0  0  0  0  0  0  0  0  0  0  0  0
   38.5981   14.3884   12.4453 H   0  0  0  0  0  0  0  0  0  0  0  0
   45.8223   13.9786    5.0628 H   0  0  0  0  0  0  0  0  0  0  0  0
   39.9998   11.8715   16.4881 H   0  0  0  0  0  0  0  0  0  0  0  0
   37.5453   14.8672   14.6273 H   0  0  0  0  0  0  0  0  0  0  0  0
   44.5776   10.2012    6.6866 H   0  0  0  0  0  0  0  0  0  0  0  0
   45.4847   11.5354    4.8019 H   0  0  0  0  0  0  0  0  0  0  0  0
   38.2417   13.6151   16.6528 H   0  0  0  0  0  0  0  0  0  0  0  0
   41.6510   11.2364    8.9207 H   0  0  0  0  0  0  0  0  0  0  0  0
   42.2227   10.7628   11.2938 H   0  0  0  0  0  0  0  0  0  0  0  0
   45.6317   11.9168    8.3579 H   0  0  0  0  0  0  0  0  0  0  0  0
   43.1536   13.4279   12.0866 H   0  0  0  0  0  0  0  0  0  0  0  0
   41.9533   14.7637   13.3094 H   0  0  0  0  0  0  0  0  0  0  0  0
   40.7279   15.3331   12.1956 H   0  0  0  0  0  0  0  0  0  0  0  0
   45.1266   10.6639    5.2378 H   0  0  0  0  0  0  0  0  0  0  0  0
   45.0829   14.0766    9.9125 H   0  0  0  0  0  0  0  0  0  0  0  0
   44.7409   15.4363    8.8367 H   0  0  0  0  0  0  0  0  0  0  0  0
   46.0842   14.3495    8.4844 H   0  0  0  0  0  0  0  0  0  0  0  0
   43.3809   13.5410    5.9423 H   0  0  0  0  0  0  0  0  0  0  0  0
   43.8091   15.1284    6.5851 H   0  0  0  0  0  0  0  0  0  0  0  0
   45.0820   14.0059    6.1106 H   0  0  0  0  0  0  0  0  0  0  0  0
   41.3387   13.6308   15.4559 H   0  0  0  0  0  0  0  0  0  0  0  0
   38.3164   15.1333   12.7629 H   0  0  0  0  0  0  0  0  0  0  0  0
   39.6504   13.4854   17.2503 H   0  0  0  0  0  0  0  0  0  0  0  0
   36.6464   14.9883   14.5741 H   0  0  0  0  0  0  0  0  0  0  0  0
   37.3080   14.1715   16.8209 H   0  0  0  0  0  0  0  0  0  0  0  0
   41.9146   13.1692   11.5173 H   0  0  0  0  0  0  0  0  0  0  0  0
   42.8555   13.1288   10.3161 H   0  0  0  0  0  0  0  0  0  0  0  0
   41.9008   13.1887   11.5130 H   0  0  0  0  0  0  0  0  0  0  0  0
   42.8618   13.1098   10.3298 H   0  0  0  0  0  0  0  0  0  0  0  0
   41.9147   13.1691   11.5174 H   0  0  0  0  0  0  0  0  0  0  0  0
   42.8556   13.1288   10.3161 H   0  0  0  0  0  0  0  0  0  0  0  0
  3  2  1  0
  4  2  1  0
  5  3  1  0
  6  2  1  0
  3  7  1  0
  8  6  1  0
  5  9  1  0
  6 10  1  0
 11  9  1  0
 12  4  2  0
 13 10  2  0
 14 11  2  0
 15 11  1  0
 16 10  1  0
 17  8  1  0
 18  8  1  0
 19 15  1  0
 20 19  2  0
 21 19  1  0
 22 20  1  0
 23 21  2  0
 24 23  1  0
  7  8  1  0
  4  5  1  0
 24 22  2  0
 26 32  1  0
 27 30  1  0
 28 29  1  0
 29 25  1  0
 30 26  1  0
 31 25  1  0
 32 31  1  0
 33 27  2  0
 34 27  1  0
 35 28  2  0
 36 28  1  0
 37 33  1  0
 38 35  1  0
 39 36  2  0
 40 34  2  0
 41 37  2  0
 42 39  1  0
 42 38  2  0
 40 41  1  0
 44 43  1  0
 45 43  1  0
 46 44  1  0
 47 43  1  0
 44 48  1  0
 49 47  1  0
 46 50  1  0
 47 51  1  0
 52 50  1  0
 53 45  2  0
 54 51  2  0
 55 52  2  0
 56 52  1  0
 57 51  1  0
 58 49  1  0
 59 49  1  0
 60 56  1  0
 61 60  2  0
 62 60  1  0
 63 61  1  0
 64 62  2  0
 65 64  1  0
 48 49  1  0
 45 46  1  0
 65 63  2  0
  1 69  1  0
  1 70  1  0
  3 71  1  1
  5 72  1  6
  6 73  1  6
  9 74  1  0
 15 75  1  0
 15 76  1  0
 16 77  1  0
 17 78  1  0
 17 79  1  0
 17 80  1  0
 18 81  1  0
 18 82  1  0
 18 83  1  0
 20 84  1  0
 21 85  1  0
 22 86  1  0
 23 87  1  0
 24 88  1  0
 25 89  1  0
 26 90  1  0
 29 91  1  0
 29 92  1  0
 30 93  1  0
 30 94  1  0
 31 95  1  0
 31 96  1  0
 32 97  1  0
 32 98  1  0
 33 99  1  0
 34100  1  0
 35101  1  0
 36102  1  0
 37103  1  0
 38104  1  0
 39105  1  0
 40106  1  0
 41107  1  0
 42108  1  0
 44109  1  1
 46110  1  1
 47111  1  6
 50112  1  0
 56113  1  0
 56114  1  0
 57115  1  0
 58116  1  0
 58117  1  0
 58118  1  0
 59119  1  0
 59120  1  0
 59121  1  0
 61122  1  0
 62123  1  0
 63124  1  0
 64125  1  0
 65126  1  0
 66127  1  0
 66128  1  0
 67129  1  0
 67130  1  0
 68131  1  0
 68132  1  0
M  END
> <Uni-Dock RESULT> 
ENERGY=   -6.959  LOWER_BOUND=    7.461  UPPER_BOUND=    9.496
INTER + INTRA:          -6.959
INTER:                  -6.959
INTRA:                   0.000
UNBOUND:                 0.000

$$$$

     RDKit          3D

132133  0  0  0  0  0  0  0  0999 V2000
   48.5862    8.6477   16.5801 O   0  0  0  0  0  0  0  0  0  0  0  0
   50.2544   10.5347   15.0186 N   0  0  0  0  0  0  0  0  0  0  0  0
   50.2419    9.1009   15.3800 C   0  0  1  0  0  0  0  0  0  0  0  0
   49.9753   10.9478   16.2940 C   0  0  0  0  0  0  0  0  0  0  0  0
   50.1895    9.5301   16.8672 C   0  0  1  0  0  0  0  0  0  0  0  0
   49.3857   10.9692   13.9248 C   0  0  2  0  0  0  0  0  0  0  0  0
   48.6966    8.4802   14.5923 S   0  0  0  0  0  0  0  0  0  0  0  0
   48.8584    9.7105   13.2094 C   0  0  0  0  0  0  0  0  0  0  0  0
   49.0831    8.9883   17.7004 N   0  0  0  0  0  0  0  0  0  0  0  0
   50.1357   11.9286   13.0104 C   0  0  0  0  0  0  0  0  0  0  0  0
   49.0905    7.6701   18.1096 C   0  0  0  0  0  0  0  0  0  0  0  0
   49.5644   12.0069   16.7102 O   0  0  0  0  0  0  0  0  0  0  0  0
   51.3411   11.9933   12.8310 O   0  0  0  0  0  0  0  0  0  0  0  0
   50.0335    6.9236   17.8571 O   0  0  0  0  0  0  0  0  0  0  0  0
   47.8328    7.2297   18.8395 C   0  0  0  0  0  0  0  0  0  0  0  0
   49.3072   12.7426   12.3229 O   0  0  0  0  0  0  0  0  0  0  0  0
   47.4759    9.9365   12.5928 C   0  0  0  0  0  0  0  0  0  0  0  0
   49.8152    9.1294   12.1582 C   0  0  0  0  0  0  0  0  0  0  0  0
   48.1069    6.5255   20.1454 C   0  0  0  0  0  0  0  0  0  0  0  0
   48.4223    5.1600   20.1612 C   0  0  0  0  0  0  0  0  0  0  0  0
   48.0588    7.2255   21.3601 C   0  0  0  0  0  0  0  0  0  0  0  0
   48.6631    4.5035   21.3690 C   0  0  0  0  0  0  0  0  0  0  0  0
   48.2991    6.5654   22.5665 C   0  0  0  0  0  0  0  0  0  0  0  0
   48.5975    5.2042   22.5714 C   0  0  0  0  0  0  0  0  0  0  0  0
   49.7693    7.9095   17.3490 N   0  0  0  0  0  0  0  0  0  0  0  0
   48.1576    9.5372   15.5963 N   0  0  0  0  0  0  0  0  0  0  0  0
   49.2154   10.5394   13.6331 C   0  0  0  0  0  0  0  0  0  0  0  0
   48.9499    6.3025   19.0789 C   0  0  0  0  0  0  0  0  0  0  0  0
   48.9896    6.6951   17.6200 C   0  0  0  0  0  0  0  0  0  0  0  0
   49.0587   10.5959   15.1340 C   0  0  0  0  0  0  0  0  0  0  0  0
   49.1358    9.1270   17.8855 C   0  0  0  0  0  0  0  0  0  0  0  0
   47.9285    9.6084   17.0494 C   0  0  0  0  0  0  0  0  0  0  0  0
   48.5173   11.4295   12.8047 C   0  0  0  0  0  0  0  0  0  0  0  0
   50.0455    9.5731   13.0446 C   0  0  0  0  0  0  0  0  0  0  0  0
   50.1374    6.1402   19.8077 C   0  0  0  0  0  0  0  0  0  0  0  0
   47.7252    6.0682   19.7196 C   0  0  0  0  0  0  0  0  0  0  0  0
   48.6609   11.3636   11.4174 C   0  0  0  0  0  0  0  0  0  0  0  0
   50.1011    5.7664   21.1515 C   0  0  0  0  0  0  0  0  0  0  0  0
   47.6895    5.6956   21.0649 C   0  0  0  0  0  0  0  0  0  0  0  0
   50.1882    9.5099   11.6584 C   0  0  0  0  0  0  0  0  0  0  0  0
   49.4982   10.4064   10.8449 C   0  0  0  0  0  0  0  0  0  0  0  0
   48.8763    5.5465   21.7804 C   0  0  0  0  0  0  0  0  0  0  0  0
   50.5277    8.7163   14.0380 N   0  0  0  0  0  0  0  0  0  0  0  0
   49.4897    7.8996   14.6930 C   0  0  1  0  0  0  0  0  0  0  0  0
   51.1697    9.0028   15.2082 C   0  0  0  0  0  0  0  0  0  0  0  0
   50.3790    7.9141   15.9689 C   0  0  1  0  0  0  0  0  0  0  0  0
   50.0789    9.7648   13.1334 C   0  0  2  0  0  0  0  0  0  0  0  0
   47.9835    8.9610   14.7064 S   0  0  0  0  0  0  0  0  0  0  0  0
   48.7234   10.2974   13.6554 C   0  0  0  0  0  0  0  0  0  0  0  0
   49.7498    8.3387   17.2487 N   0  0  0  0  0  0  0  0  0  0  0  0
   50.0088    9.1573   11.7349 C   0  0  0  0  0  0  0  0  0  0  0  0
   48.8399    7.5229   17.8901 C   0  0  0  0  0  0  0  0  0  0  0  0
   51.9512    9.8804   15.4930 O   0  0  0  0  0  0  0  0  0  0  0  0
   49.7043    8.0135   11.4379 O   0  0  0  0  0  0  0  0  0  0  0  0
   48.5623    6.4060   17.4635 O   0  0  0  0  0  0  0  0  0  0  0  0
   48.1951    8.1478   19.1150 C   0  0  0  0  0  0  0  0  0  0  0  0
   50.2958   10.0524   10.7651 O   0  0  0  0  0  0  0  0  0  0  0  0
   48.9274   11.5266   14.5566 C   0  0  0  0  0  0  0  0  0  0  0  0
   47.7095   10.6586   12.5618 C   0  0  0  0  0  0  0  0  0  0  0  0
   48.1420    7.2234   20.3058 C   0  0  0  0  0  0  0  0  0  0  0  0
   49.1987    7.1803   21.2267 C   0  0  0  0  0  0  0  0  0  0  0  0
   47.0399    6.3776   20.4977 C   0  0  0  0  0  0  0  0  0  0  0  0
   49.1439    6.3217   22.3268 C   0  0  0  0  0  0  0  0  0  0  0  0
   46.9870    5.5208   21.5980 C   0  0  0  0  0  0  0  0  0  0  0  0
   48.0366    5.4966   22.5141 C   0  0  0  0  0  0  0  0  0  0  0  0
   48.5860    8.6464   16.5822 O   0  0  0  0  0  0  0  0  0  0  0  0
   48.5868    8.6526   16.5718 O   0  0  0  0  0  0  0  0  0  0  0  0
   48.5858    8.6464   16.5823 O   0  0  0  0  0  0  0  0  0  0  0  0
   49.2144    8.9495   15.9076 H   0  0  0  0  0  0  0  0  0  0  0  0
   49.1378    8.1673   17.2155 H   0  0  0  0  0  0  0  0  0  0  0  0
   51.1560    8.5835   15.0734 H   0  0  0  0  0  0  0  0  0  0  0  0
   51.1512    9.4480   17.3906 H   0  0  0  0  0  0  0  0  0  0  0  0
   48.5543   11.5371   14.3685 H   0  0  0  0  0  0  0  0  0  0  0  0
   48.2312    9.5321   17.8087 H   0  0  0  0  0  0  0  0  0  0  0  0
   47.2733    6.5664   18.1691 H   0  0  0  0  0  0  0  0  0  0  0  0
   47.1765    8.0891   19.0224 H   0  0  0  0  0  0  0  0  0  0  0  0
   49.9112   13.3199   11.8099 H   0  0  0  0  0  0  0  0  0  0  0  0
   47.5290   10.6685   11.7787 H   0  0  0  0  0  0  0  0  0  0  0  0
   46.7576   10.3178   13.3293 H   0  0  0  0  0  0  0  0  0  0  0  0
   47.0652    9.0118   12.1695 H   0  0  0  0  0  0  0  0  0  0  0  0
   49.9018    9.8011   11.2964 H   0  0  0  0  0  0  0  0  0  0  0  0
   50.8257    8.9742   12.5539 H   0  0  0  0  0  0  0  0  0  0  0  0
   49.4509    8.1677   11.7753 H   0  0  0  0  0  0  0  0  0  0  0  0
   48.4891    4.6013   19.2295 H   0  0  0  0  0  0  0  0  0  0  0  0
   47.8299    8.2887   21.3787 H   0  0  0  0  0  0  0  0  0  0  0  0
   48.9057    3.4440   21.3699 H   0  0  0  0  0  0  0  0  0  0  0  0
   48.2540    7.1129   23.5046 H   0  0  0  0  0  0  0  0  0  0  0  0
   48.7856    4.6919   23.5112 H   0  0  0  0  0  0  0  0  0  0  0  0
   49.7740    8.0309   16.3301 H   0  0  0  0  0  0  0  0  0  0  0  0
   47.2658    9.6543   15.1141 H   0  0  0  0  0  0  0  0  0  0  0  0
   47.9752    6.7896   17.2156 H   0  0  0  0  0  0  0  0  0  0  0  0
   49.4521    5.8644   17.0724 H   0  0  0  0  0  0  0  0  0  0  0  0
   48.6745   11.5828   15.4223 H   0  0  0  0  0  0  0  0  0  0  0  0
   50.0516   10.4983   15.5881 H   0  0  0  0  0  0  0  0  0  0  0  0
   48.8470    9.0120   18.9361 H   0  0  0  0  0  0  0  0  0  0  0  0
   49.8997    9.9134   17.8732 H   0  0  0  0  0  0  0  0  0  0  0  0
   47.0724    8.9624   17.2787 H   0  0  0  0  0  0  0  0  0  0  0  0
   47.6390   10.6210   17.3527 H   0  0  0  0  0  0  0  0  0  0  0  0
   47.8587   12.1809   13.2339 H   0  0  0  0  0  0  0  0  0  0  0  0
   50.5813    8.8635   13.6706 H   0  0  0  0  0  0  0  0  0  0  0  0
   51.0960    6.3178   19.3239 H   0  0  0  0  0  0  0  0  0  0  0  0
   46.7901    6.1753   19.1756 H   0  0  0  0  0  0  0  0  0  0  0  0
   48.1197   12.0597   10.7812 H   0  0  0  0  0  0  0  0  0  0  0  0
   51.0281    5.6536   21.7074 H   0  0  0  0  0  0  0  0  0  0  0  0
   46.7362    5.5197   21.5558 H   0  0  0  0  0  0  0  0  0  0  0  0
   50.8361    8.7598   11.2132 H   0  0  0  0  0  0  0  0  0  0  0  0
   49.6079   10.3559    9.7645 H   0  0  0  0  0  0  0  0  0  0  0  0
   48.8498    5.2589   22.8287 H   0  0  0  0  0  0  0  0  0  0  0  0
   49.3595    6.9201   14.2237 H   0  0  0  0  0  0  0  0  0  0  0  0
   50.9767    7.0040   16.1106 H   0  0  0  0  0  0  0  0  0  0  0  0
   50.8429   10.5537   13.1182 H   0  0  0  0  0  0  0  0  0  0  0  0
   49.8697    9.2952   17.5675 H   0  0  0  0  0  0  0  0  0  0  0  0
   48.7235    9.0661   19.3989 H   0  0  0  0  0  0  0  0  0  0  0  0
   47.1813    8.4601   18.8327 H   0  0  0  0  0  0  0  0  0  0  0  0
   50.2199    9.5349    9.9348 H   0  0  0  0  0  0  0  0  0  0  0  0
   49.5909   11.3226   15.4038 H   0  0  0  0  0  0  0  0  0  0  0  0
   47.9775   11.8937   14.9632 H   0  0  0  0  0  0  0  0  0  0  0  0
   49.3720   12.3494   13.9845 H   0  0  0  0  0  0  0  0  0  0  0  0
   47.4399    9.7972   11.9408 H   0  0  0  0  0  0  0  0  0  0  0  0
   46.7792   11.0531   12.9908 H   0  0  0  0  0  0  0  0  0  0  0  0
   48.1114   11.4361   11.9027 H   0  0  0  0  0  0  0  0  0  0  0  0
   50.0726    7.8138   21.0962 H   0  0  0  0  0  0  0  0  0  0  0  0
   46.2191    6.3749   19.7831 H   0  0  0  0  0  0  0  0  0  0  0  0
   49.9654    6.2935   23.0374 H   0  0  0  0  0  0  0  0  0  0  0  0
   46.1285    4.8688   21.7360 H   0  0  0  0  0  0  0  0  0  0  0  0
   47.9947    4.8278   23.3697 H   0  0  0  0  0  0  0  0  0  0  0  0
   49.1425    8.1671   17.2145 H   0  0  0  0  0  0  0  0  0  0  0  0
   49.2098    8.9510   15.9066 H   0  0  0  0  0  0  0  0  0  0  0  0
   49.1189    8.1677   17.2203 H   0  0  0  0  0  0  0  0  0  0  0  0
   49.2326    8.9443   15.9111 H   0  0  0  0  0  0  0  0  0  0  0  0
   49.1427    8.1671   17.2145 H   0  0  0  0  0  0  0  0  0  0  0  0
   49.2098    8.9510   15.9065 H   0  0  0  0  0  0  0  0  0  0  0  0
  3  2  1  0
  4  2  1  0
  5  3  1  0
  6  2  1  0
  3  7  1  0
  8  6  1  0
  5  9  1  0
  6 10  1  0
 11  9  1  0
 12  4  2  0
 13 10  2  0
 14 11  2  0
 15 11  1  0
 16 10  1  0
 17  8  1  0
 18  8  1  0
 19 15  1  0
 20 19  2  0
 21 19  1  0
 22 20  1  0
 23 21  2  0
 24 23  1  0
  7  8  1  0
  4  5  1  0
 24 22  2  0
 26 32  1  0
 27 30  1  0
 28 29  1  0
 29 25  1  0
 30 26  1  0
 31 25  1  0
 32 31  1  0
 33 27  2  0
 34 27  1  0
 35 28  2  0
 36 28  1  0
 37 33  1  0
 38 35  1  0
 39 36  2  0
 40 34  2  0
 41 37  2  0
 42 39  1  0
 42 38  2  0
 40 41  1  0
 44 43  1  0
 45 43  1  0
 46 44  1  0
 47 43  1  0
 44 48  1  0
 49 47  1  0
 46 50  1  0
 47 51  1  0
 52 50  1  0
 53 45  2  0
 54 51  2  0
 55 52  2  0
 56 52  1  0
 57 51  1  0
 58 49  1  0
 59 49  1  0
 60 56  1  0
 61 60  2  0
 62 60  1  0
 63 61  1  0
 64 62  2  0
 65 64  1  0
 48 49  1  0
 45 46  1  0
 65 63  2  0
  1 69  1  0
  1 70  1  0
  3 71  1  1
  5 72  1  6
  6 73  1  6
  9 74  1  0
 15 75  1  0
 15 76  1  0
 16 77  1  0
 17 78  1  0
 17 79  1  0
 17 80  1  0
 18 81  1  0
 18 82  1  0
 18 83  1  0
 20 84  1  0
 21 85  1  0
 22 86  1  0
 23 87  1  0
 24 88  1  0
 25 89  1  0
 26 90  1  0
 29 91  1  0
 29 92  1  0
 30 93  1  0
 30 94  1  0
 31 95  1  0
 31 96  1  0
 32 97  1  0
 32 98  1  0
 33 99  1  0
 34100  1  0
 35101  1  0
 36102  1  0
 37103  1  0
 38104  1  0
 39105  1  0
 40106  1  0
 41107  1  0
 42108  1  0
 44109  1  1
 46110  1  1
 47111  1  6
 50112  1  0
 56113  1  0
 56114  1  0
 57115  1  0
 58116  1  0
 58117  1  0
 58118  1  0
 59119  1  0
 59120  1  0
 59121  1  0
 61122  1  0
 62123  1  0
 63124  1  0
 64125  1  0
 65126  1  0
 66127  1  0
 66128  1  0
 67129  1  0
 67130  1  0
 68131  1  0
 68132  1  0
M  END
> <Uni-Dock RESULT> 
ENERGY=   -6.653  LOWER_BOUND=    4.368  UPPER_BOUND=    6.585
INTER + INTRA:          -6.653
INTER:                  -6.653
INTRA:                   0.000
UNBOUND:                 0.000

$$$$
