
     RDKit          3D

132133  0  0  0  0  0  0  0  0999 V2000
   48.7588    5.1501   16.0954 O   0  0  0  0  0  0  0  0  0  0  0  0
   50.8483    6.5929   17.6847 N   0  0  0  0  0  0  0  0  0  0  0  0
   49.4240    6.7075   17.3133 C   0  0  1  0  0  0  0  0  0  0  0  0
   51.2856    7.2344   16.5570 C   0  0  0  0  0  0  0  0  0  0  0  0
   49.8520    7.6622   16.1737 C   0  0  1  0  0  0  0  0  0  0  0  0
   51.3744    5.2606   17.9885 C   0  0  2  0  0  0  0  0  0  0  0  0
   48.9613    4.9826   16.8710 S   0  0  0  0  0  0  0  0  0  0  0  0
   50.1730    4.2983   18.1029 C   0  0  0  0  0  0  0  0  0  0  0  0
   49.4065    7.3170   14.7964 N   0  0  0  0  0  0  0  0  0  0  0  0
   52.2835    5.2359   19.2150 C   0  0  0  0  0  0  0  0  0  0  0  0
   48.1421    7.6562   14.3652 C   0  0  0  0  0  0  0  0  0  0  0  0
   52.3780    7.2738   16.0398 O   0  0  0  0  0  0  0  0  0  0  0  0
   52.8613    4.2482   19.6456 O   0  0  0  0  0  0  0  0  0  0  0  0
   47.3759    8.3273   15.0534 O   0  0  0  0  0  0  0  0  0  0  0  0
   47.7849    7.1429   12.9825 C   0  0  0  0  0  0  0  0  0  0  0  0
   52.4134    6.4188   19.8487 O   0  0  0  0  0  0  0  0  0  0  0  0
   50.5364    2.8723   17.6806 C   0  0  0  0  0  0  0  0  0  0  0  0
   49.4969    4.2891   19.4818 C   0  0  0  0  0  0  0  0  0  0  0  0
   46.7278    6.0690   13.0203 C   0  0  0  0  0  0  0  0  0  0  0  0
   45.3695    6.4158   13.0340 C   0  0  0  0  0  0  0  0  0  0  0  0
   47.0839    4.7144   13.0731 C   0  0  0  0  0  0  0  0  0  0  0  0
   44.3861    5.4267   13.0805 C   0  0  0  0  0  0  0  0  0  0  0  0
   46.0984    3.7266   13.1211 C   0  0  0  0  0  0  0  0  0  0  0  0
   44.7509    4.0824   13.1217 C   0  0  0  0  0  0  0  0  0  0  0  0
   49.9461    4.8441   17.3649 N   0  0  0  0  0  0  0  0  0  0  0  0
   46.9535    5.1387   15.0451 N   0  0  0  0  0  0  0  0  0  0  0  0
   46.2949    6.3120   13.0017 C   0  0  0  0  0  0  0  0  0  0  0  0
   51.7982    5.0850   18.9513 C   0  0  0  0  0  0  0  0  0  0  0  0
   50.8441    5.7951   18.0201 C   0  0  0  0  0  0  0  0  0  0  0  0
   47.4296    5.6791   13.7739 C   0  0  0  0  0  0  0  0  0  0  0  0
   48.9652    5.5351   16.5247 C   0  0  0  0  0  0  0  0  0  0  0  0
   48.0241    4.5244   15.8352 C   0  0  0  0  0  0  0  0  0  0  0  0
   46.2524    7.6981   12.7938 C   0  0  0  0  0  0  0  0  0  0  0  0
   45.2607    5.5182   12.4836 C   0  0  0  0  0  0  0  0  0  0  0  0
   51.7152    5.2662   20.3394 C   0  0  0  0  0  0  0  0  0  0  0  0
   52.7822    4.2264   18.4385 C   0  0  0  0  0  0  0  0  0  0  0  0
   45.2021    8.2751   12.0765 C   0  0  0  0  0  0  0  0  0  0  0  0
   52.6033    4.6098   21.1937 C   0  0  0  0  0  0  0  0  0  0  0  0
   53.6680    3.5701   19.2939 C   0  0  0  0  0  0  0  0  0  0  0  0
   44.2113    6.0965   11.7680 C   0  0  0  0  0  0  0  0  0  0  0  0
   44.1830    7.4744   11.5635 C   0  0  0  0  0  0  0  0  0  0  0  0
   53.5795    3.7632   20.6709 C   0  0  0  0  0  0  0  0  0  0  0  0
   49.6971    6.3667   18.8059 N   0  0  0  0  0  0  0  0  0  0  0  0
   48.7177    5.5235   18.0960 C   0  0  1  0  0  0  0  0  0  0  0  0
   49.7052    7.3303   17.8397 C   0  0  0  0  0  0  0  0  0  0  0  0
   48.4440    6.7387   17.1670 C   0  0  1  0  0  0  0  0  0  0  0  0
   50.9222    5.7214   19.2609 C   0  0  2  0  0  0  0  0  0  0  0  0
   49.7027    4.1311   17.3988 S   0  0  0  0  0  0  0  0  0  0  0  0
   51.2799    4.6155   18.2424 C   0  0  0  0  0  0  0  0  0  0  0  0
   48.5293    6.5245   15.6973 N   0  0  0  0  0  0  0  0  0  0  0  0
   50.6677    5.2071   20.6752 C   0  0  0  0  0  0  0  0  0  0  0  0
   47.5702    5.7831   15.0363 C   0  0  0  0  0  0  0  0  0  0  0  0
   50.5047    8.2025   17.5908 O   0  0  0  0  0  0  0  0  0  0  0  0
   49.6046    4.8449   21.1555 O   0  0  0  0  0  0  0  0  0  0  0  0
   46.5999    5.3147   15.6232 O   0  0  0  0  0  0  0  0  0  0  0  0
   47.8614    5.5617   13.5613 C   0  0  0  0  0  0  0  0  0  0  0  0
   51.7948    5.1501   21.4190 O   0  0  0  0  0  0  0  0  0  0  0  0
   51.9010    3.3530   18.8538 C   0  0  0  0  0  0  0  0  0  0  0  0
   52.2325    5.1492   17.1592 C   0  0  0  0  0  0  0  0  0  0  0  0
   46.6545    5.7341   12.6744 C   0  0  0  0  0  0  0  0  0  0  0  0
   45.8031    4.6509   12.4153 C   0  0  0  0  0  0  0  0  0  0  0  0
   46.3550    6.9825   12.1103 C   0  0  0  0  0  0  0  0  0  0  0  0
   44.6892    4.8063   11.5894 C   0  0  0  0  0  0  0  0  0  0  0  0
   45.2398    7.1358   11.2845 C   0  0  0  0  0  0  0  0  0  0  0  0
   44.4086    6.0475   11.0214 C   0  0  0  0  0  0  0  0  0  0  0  0
   48.7579    5.1507   16.0943 O   0  0  0  0  0  0  0  0  0  0  0  0
   48.7591    5.1499   16.0958 O   0  0  0  0  0  0  0  0  0  0  0  0
   48.7583    5.1505   16.0948 O   0  0  0  0  0  0  0  0  0  0  0  0
   49.4276    5.6028   16.6311 H   0  0  0  0  0  0  0  0  0  0  0  0
   48.3788    5.8554   15.5504 H   0  0  0  0  0  0  0  0  0  0  0  0
   48.8172    7.1612   18.1025 H   0  0  0  0  0  0  0  0  0  0  0  0
   49.6823    8.7249   16.3913 H   0  0  0  0  0  0  0  0  0  0  0  0
   52.0162    4.9614   17.1462 H   0  0  0  0  0  0  0  0  0  0  0  0
   49.9508    6.6590   14.2491 H   0  0  0  0  0  0  0  0  0  0  0  0
   48.6785    6.7663   12.4693 H   0  0  0  0  0  0  0  0  0  0  0  0
   47.4405    7.9967   12.3844 H   0  0  0  0  0  0  0  0  0  0  0  0
   53.0460    6.2436   20.5764 H   0  0  0  0  0  0  0  0  0  0  0  0
   51.2607    2.4326   18.3741 H   0  0  0  0  0  0  0  0  0  0  0  0
   49.6570    2.2167   17.6735 H   0  0  0  0  0  0  0  0  0  0  0  0
   50.9843    2.8457   16.6797 H   0  0  0  0  0  0  0  0  0  0  0  0
   48.5737    3.6966   19.4705 H   0  0  0  0  0  0  0  0  0  0  0  0
   49.2461    5.2984   19.8287 H   0  0  0  0  0  0  0  0  0  0  0  0
   50.1504    3.8389   20.2375 H   0  0  0  0  0  0  0  0  0  0  0  0
   45.0698    7.4622   13.0179 H   0  0  0  0  0  0  0  0  0  0  0  0
   48.1287    4.4159   13.0811 H   0  0  0  0  0  0  0  0  0  0  0  0
   43.3357    5.7067   13.0920 H   0  0  0  0  0  0  0  0  0  0  0  0
   46.3819    2.6780   13.1630 H   0  0  0  0  0  0  0  0  0  0  0  0
   43.9842    3.3130   13.1629 H   0  0  0  0  0  0  0  0  0  0  0  0
   49.4673    4.3002   18.0831 H   0  0  0  0  0  0  0  0  0  0  0  0
   46.5000    5.8799   15.5757 H   0  0  0  0  0  0  0  0  0  0  0  0
   51.4330    6.3433   17.2740 H   0  0  0  0  0  0  0  0  0  0  0  0
   50.2666    6.5386   18.5838 H   0  0  0  0  0  0  0  0  0  0  0  0
   48.2144    6.4270   13.9357 H   0  0  0  0  0  0  0  0  0  0  0  0
   47.8647    4.8847   13.1558 H   0  0  0  0  0  0  0  0  0  0  0  0
   48.3680    6.2231   17.1358 H   0  0  0  0  0  0  0  0  0  0  0  0
   49.4919    6.1255   15.7667 H   0  0  0  0  0  0  0  0  0  0  0  0
   47.5400    3.9153   16.6091 H   0  0  0  0  0  0  0  0  0  0  0  0
   48.5997    3.8249   15.2155 H   0  0  0  0  0  0  0  0  0  0  0  0
   47.0384    8.3390   13.1871 H   0  0  0  0  0  0  0  0  0  0  0  0
   45.2707    4.4426   12.6470 H   0  0  0  0  0  0  0  0  0  0  0  0
   50.9593    5.9216   20.7651 H   0  0  0  0  0  0  0  0  0  0  0  0
   52.8523    4.0633   17.3646 H   0  0  0  0  0  0  0  0  0  0  0  0
   45.1783    9.3502   11.9186 H   0  0  0  0  0  0  0  0  0  0  0  0
   52.5331    4.7578   22.2678 H   0  0  0  0  0  0  0  0  0  0  0  0
   54.4247    2.9064   18.8847 H   0  0  0  0  0  0  0  0  0  0  0  0
   43.4154    5.4707   11.3729 H   0  0  0  0  0  0  0  0  0  0  0  0
   43.3656    7.9245   11.0064 H   0  0  0  0  0  0  0  0  0  0  0  0
   54.2692    3.2512   21.3368 H   0  0  0  0  0  0  0  0  0  0  0  0
   47.8783    5.2204   18.7288 H   0  0  0  0  0  0  0  0  0  0  0  0
   47.5429    7.3094   17.4252 H   0  0  0  0  0  0  0  0  0  0  0  0
   51.7071    6.4855   19.3206 H   0  0  0  0  0  0  0  0  0  0  0  0
   49.3702    6.8033   15.2019 H   0  0  0  0  0  0  0  0  0  0  0  0
   48.2658    4.5467   13.4528 H   0  0  0  0  0  0  0  0  0  0  0  0
   48.6527    6.2413   13.2224 H   0  0  0  0  0  0  0  0  0  0  0  0
   51.4882    4.8154   22.2890 H   0  0  0  0  0  0  0  0  0  0  0  0
   52.8336    3.5927   19.3759 H   0  0  0  0  0  0  0  0  0  0  0  0
   51.2322    2.8620   19.5700 H   0  0  0  0  0  0  0  0  0  0  0  0
   52.1487    2.6127   18.0828 H   0  0  0  0  0  0  0  0  0  0  0  0
   52.4753    4.3774   16.4184 H   0  0  0  0  0  0  0  0  0  0  0  0
   53.1784    5.4742   17.6078 H   0  0  0  0  0  0  0  0  0  0  0  0
   51.8191    6.0061   16.6171 H   0  0  0  0  0  0  0  0  0  0  0  0
   46.0003    3.6788   12.8626 H   0  0  0  0  0  0  0  0  0  0  0  0
   46.9889    7.8450   12.3061 H   0  0  0  0  0  0  0  0  0  0  0  0
   44.0360    3.9601   11.3953 H   0  0  0  0  0  0  0  0  0  0  0  0
   45.0154    8.1058   10.8483 H   0  0  0  0  0  0  0  0  0  0  0  0
   43.5391    6.1688   10.3808 H   0  0  0  0  0  0  0  0  0  0  0  0
   48.3800    5.8579   15.5509 H   0  0  0  0  0  0  0  0  0  0  0  0
   49.4273    5.5997   16.6316 H   0  0  0  0  0  0  0  0  0  0  0  0
   48.3784    5.8548   15.5501 H   0  0  0  0  0  0  0  0  0  0  0  0
   49.4277    5.6036   16.6310 H   0  0  0  0  0  0  0  0  0  0  0  0
   49.4273    5.6010   16.6313 H   0  0  0  0  0  0  0  0  0  0  0  0
   48.3796    5.8570   15.5508 H   0  0  0  0  0  0  0  0  0  0  0  0
  3  2  1  0
  4  2  1  0
  5  3  1  0
  6  2  1  0
  3  7  1  0
  8  6  1  0
  5  9  1  0
  6 10  1  0
 11  9  1  0
 12  4  2  0
 13 10  2  0
 14 11  2  0
 15 11  1  0
 16 10  1  0
 17  8  1  0
 18  8  1  0
 19 15  1  0
 20 19  2  0
 21 19  1  0
 22 20  1  0
 23 21  2  0
 24 23  1  0
  7  8  1  0
  4  5  1  0
 24 22  2  0
 26 32  1  0
 27 30  1  0
 28 29  1  0
 29 25  1  0
 30 26  1  0
 31 25  1  0
 32 31  1  0
 33 27  2  0
 34 27  1  0
 35 28  2  0
 36 28  1  0
 37 33  1  0
 38 35  1  0
 39 36  2  0
 40 34  2  0
 41 37  2  0
 42 39  1  0
 42 38  2  0
 40 41  1  0
 44 43  1  0
 45 43  1  0
 46 44  1  0
 47 43  1  0
 44 48  1  0
 49 47  1  0
 46 50  1  0
 47 51  1  0
 52 50  1  0
 53 45  2  0
 54 51  2  0
 55 52  2  0
 56 52  1  0
 57 51  1  0
 58 49  1  0
 59 49  1  0
 60 56  1  0
 61 60  2  0
 62 60  1  0
 63 61  1  0
 64 62  2  0
 65 64  1  0
 48 49  1  0
 45 46  1  0
 65 63  2  0
  1 69  1  0
  1 70  1  0
  3 71  1  1
  5 72  1  1
  6 73  1  6
  9 74  1  0
 15 75  1  0
 15 76  1  0
 16 77  1  0
 17 78  1  0
 17 79  1  0
 17 80  1  0
 18 81  1  0
 18 82  1  0
 18 83  1  0
 20 84  1  0
 21 85  1  0
 22 86  1  0
 23 87  1  0
 24 88  1  0
 25 89  1  0
 26 90  1  0
 29 91  1  0
 29 92  1  0
 30 93  1  0
 30 94  1  0
 31 95  1  0
 31 96  1  0
 32 97  1  0
 32 98  1  0
 33 99  1  0
 34100  1  0
 35101  1  0
 36102  1  0
 37103  1  0
 38104  1  0
 39105  1  0
 40106  1  0
 41107  1  0
 42108  1  0
 44109  1  1
 46110  1  1
 47111  1  6
 50112  1  0
 56113  1  0
 56114  1  0
 57115  1  0
 58116  1  0
 58117  1  0
 58118  1  0
 59119  1  0
 59120  1  0
 59121  1  0
 61122  1  0
 62123  1  0
 63124  1  0
 64125  1  0
 65126  1  0
 66127  1  0
 66128  1  0
 67129  1  0
 67130  1  0
 68131  1  0
 68132  1  0
M  END
> <Uni-Dock RESULT> 
ENERGY=   -7.109  LOWER_BOUND=    0.000  UPPER_BOUND=    0.000
INTER + INTRA:          -7.109
INTER:                  -7.109
INTRA:                   0.000
UNBOUND:                 0.000

$$$$

     RDKit          3D

132133  0  0  0  0  0  0  0  0999 V2000
   41.9822   13.8023   11.4413 O   0  0  0  0  0  0  0  0  0  0  0  0
   42.5249   11.4184    9.7104 N   0  0  0  0  0  0  0  0  0  0  0  0
   41.3912   12.1789   10.2723 C   0  0  1  0  0  0  0  0  0  0  0  0
   42.6563   10.6244   10.8180 C   0  0  0  0  0  0  0  0  0  0  0  0
   41.3298   11.1404   11.4173 C   0  0  1  0  0  0  0  0  0  0  0  0
   43.6895   12.1696    9.2376 C   0  0  2  0  0  0  0  0  0  0  0  0
   42.1246   13.8268   10.6353 S   0  0  0  0  0  0  0  0  0  0  0  0
   43.3013   13.6632    9.2061 C   0  0  0  0  0  0  0  0  0  0  0  0
   41.3934   11.6615   12.8097 N   0  0  0  0  0  0  0  0  0  0  0  0
   44.2347   11.6618    7.9047 C   0  0  0  0  0  0  0  0  0  0  0  0
   40.2603   12.1455   13.4275 C   0  0  0  0  0  0  0  0  0  0  0  0
   43.5711    9.9262   11.1897 O   0  0  0  0  0  0  0  0  0  0  0  0
   45.2149   12.1090    7.3267 O   0  0  0  0  0  0  0  0  0  0  0  0
   39.1519   12.0830   12.8996 O   0  0  0  0  0  0  0  0  0  0  0  0
   40.4948   12.7474   14.8007 C   0  0  0  0  0  0  0  0  0  0  0  0
   43.5343   10.6502    7.3538 O   0  0  0  0  0  0  0  0  0  0  0  0
   44.5035   14.5751    9.4648 C   0  0  0  0  0  0  0  0  0  0  0  0
   42.5661   14.1007    7.9307 C   0  0  0  0  0  0  0  0  0  0  0  0
   40.2986   14.2419   14.8174 C   0  0  0  0  0  0  0  0  0  0  0  0
   39.0197   14.7837   15.0082 C   0  0  0  0  0  0  0  0  0  0  0  0
   41.3805   15.1091   14.6130 C   0  0  0  0  0  0  0  0  0  0  0  0
   38.8295   16.1663   15.0133 C   0  0  0  0  0  0  0  0  0  0  0  0
   41.1877   16.4919   14.6171 C   0  0  0  0  0  0  0  0  0  0  0  0
   39.9140   17.0198   14.8201 C   0  0  0  0  0  0  0  0  0  0  0  0
   42.9080   13.3521   10.0078 N   0  0  0  0  0  0  0  0  0  0  0  0
   40.7263   14.8817   12.7141 N   0  0  0  0  0  0  0  0  0  0  0  0
   39.8153   14.3085   14.9112 C   0  0  0  0  0  0  0  0  0  0  0  0
   43.9826   12.0703    8.2169 C   0  0  0  0  0  0  0  0  0  0  0  0
   42.9478   12.0630    9.3172 C   0  0  0  0  0  0  0  0  0  0  0  0
   40.9703   14.1426   13.9506 C   0  0  0  0  0  0  0  0  0  0  0  0
   41.8497   13.3778   11.0201 C   0  0  0  0  0  0  0  0  0  0  0  0
   41.8169   14.7399   11.7456 C   0  0  0  0  0  0  0  0  0  0  0  0
   38.9849   13.2246   15.2304 C   0  0  0  0  0  0  0  0  0  0  0  0
   39.5537   15.5564   15.4963 C   0  0  0  0  0  0  0  0  0  0  0  0
   43.5992   11.9986    6.8700 C   0  0  0  0  0  0  0  0  0  0  0  0
   45.3481   12.1541    8.5283 C   0  0  0  0  0  0  0  0  0  0  0  0
   37.9215   13.3851   16.1215 C   0  0  0  0  0  0  0  0  0  0  0  0
   44.5617   12.0015    5.8585 C   0  0  0  0  0  0  0  0  0  0  0  0
   46.3085   12.1583    7.5161 C   0  0  0  0  0  0  0  0  0  0  0  0
   38.4899   15.7153   16.3856 C   0  0  0  0  0  0  0  0  0  0  0  0
   37.6751   14.6295   16.6990 C   0  0  0  0  0  0  0  0  0  0  0  0
   45.9153   12.0802    6.1818 C   0  0  0  0  0  0  0  0  0  0  0  0
   41.5842   12.3110    8.7348 N   0  0  0  0  0  0  0  0  0  0  0  0
   41.4243   13.5622    9.4984 C   0  0  1  0  0  0  0  0  0  0  0  0
   41.1608   11.5212    9.7639 C   0  0  0  0  0  0  0  0  0  0  0  0
   40.6229   12.7421   10.5472 C   0  0  1  0  0  0  0  0  0  0  0  0
   42.8657   12.0954    8.0749 C   0  0  2  0  0  0  0  0  0  0  0  0
   43.1374   14.0683    9.9504 S   0  0  0  0  0  0  0  0  0  0  0  0
   43.9623   12.7455    8.9486 C   0  0  0  0  0  0  0  0  0  0  0  0
   41.0403   12.8373   11.9719 N   0  0  0  0  0  0  0  0  0  0  0  0
   42.7590   12.6825    6.6701 C   0  0  0  0  0  0  0  0  0  0  0  0
   40.8280   13.9958   12.6926 C   0  0  0  0  0  0  0  0  0  0  0  0
   41.3066   10.3395    9.9736 O   0  0  0  0  0  0  0  0  0  0  0  0
   42.0658   13.6200    6.3058 O   0  0  0  0  0  0  0  0  0  0  0  0
   40.2553   14.9638   12.2026 O   0  0  0  0  0  0  0  0  0  0  0  0
   41.4126   13.9727   14.0952 C   0  0  0  0  0  0  0  0  0  0  0  0
   43.5681   12.0612    5.7835 O   0  0  0  0  0  0  0  0  0  0  0  0
   45.1135   13.3888    8.1648 C   0  0  0  0  0  0  0  0  0  0  0  0
   44.5571   11.7278    9.9365 C   0  0  0  0  0  0  0  0  0  0  0  0
   40.4933   14.5475   15.1427 C   0  0  0  0  0  0  0  0  0  0  0  0
   40.5094   15.9205   15.4254 C   0  0  0  0  0  0  0  0  0  0  0  0
   39.5966   13.7224   15.8367 C   0  0  0  0  0  0  0  0  0  0  0  0
   39.6643   16.4540   16.3992 C   0  0  0  0  0  0  0  0  0  0  0  0
   38.7517   14.2584   16.8104 C   0  0  0  0  0  0  0  0  0  0  0  0
   38.7875   15.6232   17.0940 C   0  0  0  0  0  0  0  0  0  0  0  0
   41.9813   13.8024   11.4425 O   0  0  0  0  0  0  0  0  0  0  0  0
   41.9825   13.8023   11.4409 O   0  0  0  0  0  0  0  0  0  0  0  0
   41.9816   13.8023   11.4420 O   0  0  0  0  0  0  0  0  0  0  0  0
   42.1572   13.0470   10.8599 H   0  0  0  0  0  0  0  0  0  0  0  0
   41.3438   13.4595   12.0846 H   0  0  0  0  0  0  0  0  0  0  0  0
   40.5229   12.1956    9.6068 H   0  0  0  0  0  0  0  0  0  0  0  0
   40.5282   10.3983   11.3073 H   0  0  0  0  0  0  0  0  0  0  0  0
   44.5009   12.0077    9.9630 H   0  0  0  0  0  0  0  0  0  0  0  0
   42.2980   11.8496   13.2284 H   0  0  0  0  0  0  0  0  0  0  0  0
   41.5011   12.5011   15.1618 H   0  0  0  0  0  0  0  0  0  0  0  0
   39.8037   12.2637   15.5033 H   0  0  0  0  0  0  0  0  0  0  0  0
   44.0271   10.4209    6.5383 H   0  0  0  0  0  0  0  0  0  0  0  0
   45.2318   14.5011    8.6506 H   0  0  0  0  0  0  0  0  0  0  0  0
   44.2041   15.6280    9.5355 H   0  0  0  0  0  0  0  0  0  0  0  0
   45.0234   14.3099   10.3936 H   0  0  0  0  0  0  0  0  0  0  0  0
   42.1950   15.1295    8.0162 H   0  0  0  0  0  0  0  0  0  0  0  0
   41.7130   13.4521    7.6994 H   0  0  0  0  0  0  0  0  0  0  0  0
   43.2355   14.0787    7.0634 H   0  0  0  0  0  0  0  0  0  0  0  0
   38.1608   14.1290   15.1449 H   0  0  0  0  0  0  0  0  0  0  0  0
   42.3804   14.7180   14.4455 H   0  0  0  0  0  0  0  0  0  0  0  0
   37.8333   16.5758   15.1608 H   0  0  0  0  0  0  0  0  0  0  0  0
   42.0312   17.1585   14.4568 H   0  0  0  0  0  0  0  0  0  0  0  0
   39.7639   18.0964   14.8194 H   0  0  0  0  0  0  0  0  0  0  0  0
   42.7476   14.0865    9.3180 H   0  0  0  0  0  0  0  0  0  0  0  0
   39.8460   14.5723   12.3067 H   0  0  0  0  0  0  0  0  0  0  0  0
   43.1966   11.2586   10.0206 H   0  0  0  0  0  0  0  0  0  0  0  0
   41.9635   11.8271    8.8935 H   0  0  0  0  0  0  0  0  0  0  0  0
   41.1167   13.0757   13.7466 H   0  0  0  0  0  0  0  0  0  0  0  0
   41.8811   14.5042   14.4427 H   0  0  0  0  0  0  0  0  0  0  0  0
   40.8759   13.1988   10.5478 H   0  0  0  0  0  0  0  0  0  0  0  0
   42.0261   12.5768   11.7467 H   0  0  0  0  0  0  0  0  0  0  0  0
   41.6828   15.5305   10.9962 H   0  0  0  0  0  0  0  0  0  0  0  0
   42.7819   14.9410   12.2283 H   0  0  0  0  0  0  0  0  0  0  0  0
   39.1612   12.2461   14.7891 H   0  0  0  0  0  0  0  0  0  0  0  0
   40.1797   16.4113   15.2496 H   0  0  0  0  0  0  0  0  0  0  0  0
   42.5480   11.9382    6.5990 H   0  0  0  0  0  0  0  0  0  0  0  0
   45.6631   12.2242    9.5679 H   0  0  0  0  0  0  0  0  0  0  0  0
   37.2840   12.5389   16.3645 H   0  0  0  0  0  0  0  0  0  0  0  0
   44.2556   11.9435    4.8175 H   0  0  0  0  0  0  0  0  0  0  0  0
   47.3628   12.2252    7.7701 H   0  0  0  0  0  0  0  0  0  0  0  0
   38.2969   16.6877   16.8311 H   0  0  0  0  0  0  0  0  0  0  0  0
   36.8466   14.7537   17.3914 H   0  0  0  0  0  0  0  0  0  0  0  0
   46.6637   12.0843    5.3936 H   0  0  0  0  0  0  0  0  0  0  0  0
   40.8489   14.3203    8.9589 H   0  0  0  0  0  0  0  0  0  0  0  0
   39.5333   12.8339   10.4541 H   0  0  0  0  0  0  0  0  0  0  0  0
   43.0181   11.0137    7.9731 H   0  0  0  0  0  0  0  0  0  0  0  0
   41.6106   12.1000   12.3737 H   0  0  0  0  0  0  0  0  0  0  0  0
   42.3540   14.5371   14.0704 H   0  0  0  0  0  0  0  0  0  0  0  0
   41.6807   12.9480   14.3799 H   0  0  0  0  0  0  0  0  0  0  0  0
   43.3952   12.5274    4.9375 H   0  0  0  0  0  0  0  0  0  0  0  0
   45.6256   12.6443    7.5457 H   0  0  0  0  0  0  0  0  0  0  0  0
   44.7720   14.1953    7.5059 H   0  0  0  0  0  0  0  0  0  0  0  0
   45.8674   13.8176    8.8366 H   0  0  0  0  0  0  0  0  0  0  0  0
   45.3215   12.1851   10.5768 H   0  0  0  0  0  0  0  0  0  0  0  0
   45.0399   10.9060    9.3951 H   0  0  0  0  0  0  0  0  0  0  0  0
   43.8014   11.2841   10.5932 H   0  0  0  0  0  0  0  0  0  0  0  0
   41.1781   16.5848   14.8817 H   0  0  0  0  0  0  0  0  0  0  0  0
   39.5507   12.6555   15.6278 H   0  0  0  0  0  0  0  0  0  0  0  0
   39.6851   17.5195   16.6101 H   0  0  0  0  0  0  0  0  0  0  0  0
   38.0612   13.6124   17.3465 H   0  0  0  0  0  0  0  0  0  0  0  0
   38.1271   16.0397   17.8500 H   0  0  0  0  0  0  0  0  0  0  0  0
   41.3432   13.4567   12.0841 H   0  0  0  0  0  0  0  0  0  0  0  0
   42.1588   13.0496   10.8592 H   0  0  0  0  0  0  0  0  0  0  0  0
   41.3439   13.4601   12.0849 H   0  0  0  0  0  0  0  0  0  0  0  0
   42.1569   13.0463   10.8600 H   0  0  0  0  0  0  0  0  0  0  0  0
   42.1581   13.0486   10.8596 H   0  0  0  0  0  0  0  0  0  0  0  0
   41.3434   13.4577   12.0843 H   0  0  0  0  0  0  0  0  0  0  0  0
  3  2  1  0
  4  2  1  0
  5  3  1  0
  6  2  1  0
  3  7  1  0
  8  6  1  0
  5  9  1  0
  6 10  1  0
 11  9  1  0
 12  4  2  0
 13 10  2  0
 14 11  2  0
 15 11  1  0
 16 10  1  0
 17  8  1  0
 18  8  1  0
 19 15  1  0
 20 19  2  0
 21 19  1  0
 22 20  1  0
 23 21  2  0
 24 23  1  0
  7  8  1  0
  4  5  1  0
 24 22  2  0
 26 32  1  0
 27 30  1  0
 28 29  1  0
 29 25  1  0
 30 26  1  0
 31 25  1  0
 32 31  1  0
 33 27  2  0
 34 27  1  0
 35 28  2  0
 36 28  1  0
 37 33  1  0
 38 35  1  0
 39 36  2  0
 40 34  2  0
 41 37  2  0
 42 39  1  0
 42 38  2  0
 40 41  1  0
 44 43  1  0
 45 43  1  0
 46 44  1  0
 47 43  1  0
 44 48  1  0
 49 47  1  0
 46 50  1  0
 47 51  1  0
 52 50  1  0
 53 45  2  0
 54 51  2  0
 55 52  2  0
 56 52  1  0
 57 51  1  0
 58 49  1  0
 59 49  1  0
 60 56  1  0
 61 60  2  0
 62 60  1  0
 63 61  1  0
 64 62  2  0
 65 64  1  0
 48 49  1  0
 45 46  1  0
 65 63  2  0
  1 69  1  0
  1 70  1  0
  3 71  1  1
  5 72  1  1
  6 73  1  6
  9 74  1  0
 15 75  1  0
 15 76  1  0
 16 77  1  0
 17 78  1  0
 17 79  1  0
 17 80  1  0
 18 81  1  0
 18 82  1  0
 18 83  1  0
 20 84  1  0
 21 85  1  0
 22 86  1  0
 23 87  1  0
 24 88  1  0
 25 89  1  0
 26 90  1  0
 29 91  1  0
 29 92  1  0
 30 93  1  0
 30 94  1  0
 31 95  1  0
 31 96  1  0
 32 97  1  0
 32 98  1  0
 33 99  1  0
 34100  1  0
 35101  1  0
 36102  1  0
 37103  1  0
 38104  1  0
 39105  1  0
 40106  1  0
 41107  1  0
 42108  1  0
 44109  1  1
 46110  1  1
 47111  1  6
 50112  1  0
 56113  1  0
 56114  1  0
 57115  1  0
 58116  1  0
 58117  1  0
 58118  1  0
 59119  1  0
 59120  1  0
 59121  1  0
 61122  1  0
 62123  1  0
 63124  1  0
 64125  1  0
 65126  1  0
 66127  1  0
 66128  1  0
 67129  1  0
 67130  1  0
 68131  1  0
 68132  1  0
M  END
> <Uni-Dock RESULT> 
ENERGY=   -6.902  LOWER_BOUND=   10.269  UPPER_BOUND=   13.203
INTER + INTRA:          -6.902
INTER:                  -6.902
INTRA:                   0.000
UNBOUND:                 0.000

$$$$

     RDKit          3D

132133  0  0  0  0  0  0  0  0999 V2000
   48.6939   11.3482   16.4704 O   0  0  0  0  0  0  0  0  0  0  0  0
   48.5025   14.1503   15.4290 N   0  0  0  0  0  0  0  0  0  0  0  0
   49.1105   13.3909   16.5394 C   0  0  1  0  0  0  0  0  0  0  0  0
   47.3142   14.3296   16.0848 C   0  0  0  0  0  0  0  0  0  0  0  0
   47.8986   13.7964   17.4112 C   0  0  1  0  0  0  0  0  0  0  0  0
   48.4901   13.5344   14.1006 C   0  0  2  0  0  0  0  0  0  0  0  0
   49.1746   11.6703   15.8910 S   0  0  0  0  0  0  0  0  0  0  0  0
   49.4019   12.2900   14.1537 C   0  0  0  0  0  0  0  0  0  0  0  0
   47.1411   12.6992   18.0721 N   0  0  0  0  0  0  0  0  0  0  0  0
   48.8619   14.5049   12.9819 C   0  0  0  0  0  0  0  0  0  0  0  0
   47.5872   12.1579   19.2586 C   0  0  0  0  0  0  0  0  0  0  0  0
   46.2209   14.6440   15.6744 O   0  0  0  0  0  0  0  0  0  0  0  0
   48.8922   14.2308   11.7908 O   0  0  0  0  0  0  0  0  0  0  0  0
   48.5595   12.6117   19.8583 O   0  0  0  0  0  0  0  0  0  0  0  0
   46.7805   10.9735   19.7580 C   0  0  0  0  0  0  0  0  0  0  0  0
   49.1914   15.7457   13.3936 O   0  0  0  0  0  0  0  0  0  0  0  0
   48.9388   11.1965   13.1874 C   0  0  0  0  0  0  0  0  0  0  0  0
   50.8940   12.5877   13.9451 C   0  0  0  0  0  0  0  0  0  0  0  0
   47.5489    9.6788   19.6841 C   0  0  0  0  0  0  0  0  0  0  0  0
   48.3971    9.3006   20.7343 C   0  0  0  0  0  0  0  0  0  0  0  0
   47.4523    8.8513   18.5570 C   0  0  0  0  0  0  0  0  0  0  0  0
   49.1202    8.1088   20.6670 C   0  0  0  0  0  0  0  0  0  0  0  0
   48.1776    7.6602   18.4911 C   0  0  0  0  0  0  0  0  0  0  0  0
   49.0083    7.2880   19.5464 C   0  0  0  0  0  0  0  0  0  0  0  0
   48.9409   12.2584   14.9786 N   0  0  0  0  0  0  0  0  0  0  0  0
   49.0280   10.0044   18.0341 N   0  0  0  0  0  0  0  0  0  0  0  0
   47.7930    9.6476   20.1157 C   0  0  0  0  0  0  0  0  0  0  0  0
   48.9757   14.0407   13.2972 C   0  0  0  0  0  0  0  0  0  0  0  0
   48.8156   13.6995   14.7599 C   0  0  0  0  0  0  0  0  0  0  0  0
   47.7110   10.0609   18.6642 C   0  0  0  0  0  0  0  0  0  0  0  0
   48.8692   11.9313   16.4046 C   0  0  0  0  0  0  0  0  0  0  0  0
   48.9992   10.4092   16.6259 C   0  0  0  0  0  0  0  0  0  0  0  0
   47.5694   10.5776   21.1412 C   0  0  0  0  0  0  0  0  0  0  0  0
   48.1000    8.3226   20.4592 C   0  0  0  0  0  0  0  0  0  0  0  0
   50.0869   14.7680   12.8469 C   0  0  0  0  0  0  0  0  0  0  0  0
   48.0129   13.6288   12.3635 C   0  0  0  0  0  0  0  0  0  0  0  0
   47.6438   10.1873   22.4801 C   0  0  0  0  0  0  0  0  0  0  0  0
   50.2260   15.0834   11.4940 C   0  0  0  0  0  0  0  0  0  0  0  0
   48.1543   13.9437   11.0115 C   0  0  0  0  0  0  0  0  0  0  0  0
   48.1752    7.9346   21.7977 C   0  0  0  0  0  0  0  0  0  0  0  0
   47.9457    8.8666   22.8076 C   0  0  0  0  0  0  0  0  0  0  0  0
   49.2596   14.6723   10.5773 C   0  0  0  0  0  0  0  0  0  0  0  0
   50.1108   13.9416   15.4836 N   0  0  0  0  0  0  0  0  0  0  0  0
   50.2385   12.5182   15.8468 C   0  0  1  0  0  0  0  0  0  0  0  0
   49.2979   14.2329   16.5402 C   0  0  0  0  0  0  0  0  0  0  0  0
   49.6163   12.8821   17.2235 C   0  0  1  0  0  0  0  0  0  0  0  0
   49.7278   14.2443   14.1103 C   0  0  2  0  0  0  0  0  0  0  0  0
   49.1676   11.6208   14.6456 S   0  0  0  0  0  0  0  0  0  0  0  0
   48.7877   13.1187   13.6229 C   0  0  0  0  0  0  0  0  0  0  0  0
   48.4429   12.0940   17.6872 N   0  0  0  0  0  0  0  0  0  0  0  0
   51.0131   14.3778   13.2980 C   0  0  0  0  0  0  0  0  0  0  0  0
   48.5887   10.7792   18.0830 C   0  0  0  0  0  0  0  0  0  0  0  0
   48.5430   15.1573   16.7337 O   0  0  0  0  0  0  0  0  0  0  0  0
   52.0803   13.8176   13.4959 O   0  0  0  0  0  0  0  0  0  0  0  0
   49.6862   10.2314   18.1071 O   0  0  0  0  0  0  0  0  0  0  0  0
   47.2812   10.0811   18.4185 C   0  0  0  0  0  0  0  0  0  0  0  0
   50.8766   15.2085   12.2405 O   0  0  0  0  0  0  0  0  0  0  0  0
   48.9480   12.7401   12.1449 C   0  0  0  0  0  0  0  0  0  0  0  0
   47.3145   13.4819   13.8738 C   0  0  0  0  0  0  0  0  0  0  0  0
   47.3504    9.2346   19.6642 C   0  0  0  0  0  0  0  0  0  0  0  0
   47.7602    7.8959   19.5911 C   0  0  0  0  0  0  0  0  0  0  0  0
   47.0239    9.7769   20.9154 C   0  0  0  0  0  0  0  0  0  0  0  0
   47.8186    7.1084   20.7416 C   0  0  0  0  0  0  0  0  0  0  0  0
   47.0834    8.9872   22.0653 C   0  0  0  0  0  0  0  0  0  0  0  0
   47.4776    7.6525   21.9783 C   0  0  0  0  0  0  0  0  0  0  0  0
   48.6936   11.3476   16.4718 O   0  0  0  0  0  0  0  0  0  0  0  0
   48.6940   11.3483   16.4698 O   0  0  0  0  0  0  0  0  0  0  0  0
   48.6937   11.3479   16.4712 O   0  0  0  0  0  0  0  0  0  0  0  0
   48.6540   12.2505   16.1191 H   0  0  0  0  0  0  0  0  0  0  0  0
   48.4684   11.4514   17.4070 H   0  0  0  0  0  0  0  0  0  0  0  0
   50.0740   13.8025   16.8545 H   0  0  0  0  0  0  0  0  0  0  0  0
   48.1047   14.6153   18.1128 H   0  0  0  0  0  0  0  0  0  0  0  0
   47.4537   13.2317   13.8889 H   0  0  0  0  0  0  0  0  0  0  0  0
   46.4171   12.2136   17.5536 H   0  0  0  0  0  0  0  0  0  0  0  0
   45.8433   10.8815   19.1950 H   0  0  0  0  0  0  0  0  0  0  0  0
   46.4818   11.1816   20.7938 H   0  0  0  0  0  0  0  0  0  0  0  0
   49.3633   16.2448   12.5679 H   0  0  0  0  0  0  0  0  0  0  0  0
   49.0435   11.5244   12.1480 H   0  0  0  0  0  0  0  0  0  0  0  0
   49.5328   10.2811   13.2986 H   0  0  0  0  0  0  0  0  0  0  0  0
   47.8850   10.9351   13.3431 H   0  0  0  0  0  0  0  0  0  0  0  0
   51.5084   11.6971   14.1263 H   0  0  0  0  0  0  0  0  0  0  0  0
   51.2547   13.3865   14.6036 H   0  0  0  0  0  0  0  0  0  0  0  0
   51.0922   12.9022   12.9142 H   0  0  0  0  0  0  0  0  0  0  0  0
   48.5065    9.9393   21.6090 H   0  0  0  0  0  0  0  0  0  0  0  0
   46.8162    9.1268   17.7201 H   0  0  0  0  0  0  0  0  0  0  0  0
   49.7760    7.8257   21.4865 H   0  0  0  0  0  0  0  0  0  0  0  0
   48.0987    7.0239   17.6133 H   0  0  0  0  0  0  0  0  0  0  0  0
   49.5757    6.3624   19.4929 H   0  0  0  0  0  0  0  0  0  0  0  0
   49.8333   11.9469   14.5947 H   0  0  0  0  0  0  0  0  0  0  0  0
   49.6762   10.5882   18.5591 H   0  0  0  0  0  0  0  0  0  0  0  0
   47.8317   14.0537   15.0919 H   0  0  0  0  0  0  0  0  0  0  0  0
   49.5677   14.2410   15.3474 H   0  0  0  0  0  0  0  0  0  0  0  0
   47.2901   11.0710   18.6020 H   0  0  0  0  0  0  0  0  0  0  0  0
   47.0105    9.3884   18.1547 H   0  0  0  0  0  0  0  0  0  0  0  0
   49.6739   12.4432   16.9466 H   0  0  0  0  0  0  0  0  0  0  0  0
   47.9127   12.2825   16.8075 H   0  0  0  0  0  0  0  0  0  0  0  0
   49.9423   10.0714   16.1776 H   0  0  0  0  0  0  0  0  0  0  0  0
   48.2023    9.8744   16.0933 H   0  0  0  0  0  0  0  0  0  0  0  0
   47.3332   11.6128   20.9050 H   0  0  0  0  0  0  0  0  0  0  0  0
   48.2896    7.5910   19.6765 H   0  0  0  0  0  0  0  0  0  0  0  0
   50.8513   15.0957   13.5472 H   0  0  0  0  0  0  0  0  0  0  0  0
   47.1510   13.0516   12.6933 H   0  0  0  0  0  0  0  0  0  0  0  0
   47.4673   10.9146   23.2684 H   0  0  0  0  0  0  0  0  0  0  0  0
   51.0892   15.6493   11.1543 H   0  0  0  0  0  0  0  0  0  0  0  0
   47.4026   13.6175   10.2979 H   0  0  0  0  0  0  0  0  0  0  0  0
   48.4152    6.9053   22.0506 H   0  0  0  0  0  0  0  0  0  0  0  0
   48.0045    8.5641   23.8498 H   0  0  0  0  0  0  0  0  0  0  0  0
   49.3697   14.9167    9.5241 H   0  0  0  0  0  0  0  0  0  0  0  0
   51.2777   12.1780   15.8787 H   0  0  0  0  0  0  0  0  0  0  0  0
   50.3490   13.0009   18.0319 H   0  0  0  0  0  0  0  0  0  0  0  0
   49.2271   15.2204   14.1042 H   0  0  0  0  0  0  0  0  0  0  0  0
   47.5102   12.4789   17.5773 H   0  0  0  0  0  0  0  0  0  0  0  0
   47.0075    9.4593   17.5560 H   0  0  0  0  0  0  0  0  0  0  0  0
   46.4746   10.8156   18.5312 H   0  0  0  0  0  0  0  0  0  0  0  0
   51.7635   15.2055   11.8206 H   0  0  0  0  0  0  0  0  0  0  0  0
   48.7444   13.6012   11.4992 H   0  0  0  0  0  0  0  0  0  0  0  0
   49.9558   12.3774   11.9125 H   0  0  0  0  0  0  0  0  0  0  0  0
   48.2448   11.9501   11.8535 H   0  0  0  0  0  0  0  0  0  0  0  0
   46.6396   12.6795   13.5512 H   0  0  0  0  0  0  0  0  0  0  0  0
   47.0402   14.3802   13.3085 H   0  0  0  0  0  0  0  0  0  0  0  0
   47.1024   13.6850   14.9287 H   0  0  0  0  0  0  0  0  0  0  0  0
   48.0435    7.4603   18.6351 H   0  0  0  0  0  0  0  0  0  0  0  0
   46.7173   10.8170   21.0052 H   0  0  0  0  0  0  0  0  0  0  0  0
   48.1377    6.0722   20.6735 H   0  0  0  0  0  0  0  0  0  0  0  0
   46.8259    9.4134   23.0315 H   0  0  0  0  0  0  0  0  0  0  0  0
   47.5264    7.0397   22.8745 H   0  0  0  0  0  0  0  0  0  0  0  0
   48.4679   11.4542   17.4077 H   0  0  0  0  0  0  0  0  0  0  0  0
   48.6548   12.2482   16.1170 H   0  0  0  0  0  0  0  0  0  0  0  0
   48.4685   11.4508   17.4070 H   0  0  0  0  0  0  0  0  0  0  0  0
   48.6538   12.2511   16.1195 H   0  0  0  0  0  0  0  0  0  0  0  0
   48.6545   12.2490   16.1179 H   0  0  0  0  0  0  0  0  0  0  0  0
   48.4681   11.4533   17.4074 H   0  0  0  0  0  0  0  0  0  0  0  0
  3  2  1  0
  4  2  1  0
  5  3  1  0
  6  2  1  0
  3  7  1  0
  8  6  1  0
  5  9  1  0
  6 10  1  0
 11  9  1  0
 12  4  2  0
 13 10  2  0
 14 11  2  0
 15 11  1  0
 16 10  1  0
 17  8  1  0
 18  8  1  0
 19 15  1  0
 20 19  2  0
 21 19  1  0
 22 20  1  0
 23 21  2  0
 24 23  1  0
  7  8  1  0
  4  5  1  0
 24 22  2  0
 26 32  1  0
 27 30  1  0
 28 29  1  0
 29 25  1  0
 30 26  1  0
 31 25  1  0
 32 31  1  0
 33 27  2  0
 34 27  1  0
 35 28  2  0
 36 28  1  0
 37 33  1  0
 38 35  1  0
 39 36  2  0
 40 34  2  0
 41 37  2  0
 42 39  1  0
 42 38  2  0
 40 41  1  0
 44 43  1  0
 45 43  1  0
 46 44  1  0
 47 43  1  0
 44 48  1  0
 49 47  1  0
 46 50  1  0
 47 51  1  0
 52 50  1  0
 53 45  2  0
 54 51  2  0
 55 52  2  0
 56 52  1  0
 57 51  1  0
 58 49  1  0
 59 49  1  0
 60 56  1  0
 61 60  2  0
 62 60  1  0
 63 61  1  0
 64 62  2  0
 65 64  1  0
 48 49  1  0
 45 46  1  0
 65 63  2  0
  1 69  1  0
  1 70  1  0
  3 71  1  1
  5 72  1  1
  6 73  1  6
  9 74  1  0
 15 75  1  0
 15 76  1  0
 16 77  1  0
 17 78  1  0
 17 79  1  0
 17 80  1  0
 18 81  1  0
 18 82  1  0
 18 83  1  0
 20 84  1  0
 21 85  1  0
 22 86  1  0
 23 87  1  0
 24 88  1  0
 25 89  1  0
 26 90  1  0
 29 91  1  0
 29 92  1  0
 30 93  1  0
 30 94  1  0
 31 95  1  0
 31 96  1  0
 32 97  1  0
 32 98  1  0
 33 99  1  0
 34100  1  0
 35101  1  0
 36102  1  0
 37103  1  0
 38104  1  0
 39105  1  0
 40106  1  0
 41107  1  0
 42108  1  0
 44109  1  1
 46110  1  1
 47111  1  6
 50112  1  0
 56113  1  0
 56114  1  0
 57115  1  0
 58116  1  0
 58117  1  0
 58118  1  0
 59119  1  0
 59120  1  0
 59121  1  0
 61122  1  0
 62123  1  0
 63124  1  0
 64125  1  0
 65126  1  0
 66127  1  0
 66128  1  0
 67129  1  0
 67130  1  0
 68131  1  0
 68132  1  0
M  END
> <Uni-Dock RESULT> 
ENERGY=   -6.680  LOWER_BOUND=    5.442  UPPER_BOUND=    9.280
INTER + INTRA:          -6.680
INTER:                  -6.680
INTRA:                   0.000
UNBOUND:                 0.000

$$$$

     RDKit          3D

132133  0  0  0  0  0  0  0  0999 V2000
   43.8826   10.9278   11.6607 O   0  0  0  0  0  0  0  0  0  0  0  0
   43.2091   13.7896   11.0864 N   0  0  0  0  0  0  0  0  0  0  0  0
   44.0396   12.6903   10.5561 C   0  0  1  0  0  0  0  0  0  0  0  0
   44.1695   14.2088   11.9674 C   0  0  0  0  0  0  0  0  0  0  0  0
   45.2357   13.2887   11.3336 C   0  0  1  0  0  0  0  0  0  0  0  0
   41.8772   13.4599   11.5976 C   0  0  2  0  0  0  0  0  0  0  0  0
   43.2314   11.1832   11.2348 S   0  0  0  0  0  0  0  0  0  0  0  0
   41.5653   12.0052   11.1863 C   0  0  0  0  0  0  0  0  0  0  0  0
   45.9619   12.3820   12.2637 N   0  0  0  0  0  0  0  0  0  0  0  0
   40.8010   14.4517   11.1621 C   0  0  0  0  0  0  0  0  0  0  0  0
   46.9295   11.5229   11.7891 C   0  0  0  0  0  0  0  0  0  0  0  0
   44.0950   14.9176   12.9445 O   0  0  0  0  0  0  0  0  0  0  0  0
   39.6231   14.4025   11.4862 O   0  0  0  0  0  0  0  0  0  0  0  0
   47.2931   11.5339   10.6149 O   0  0  0  0  0  0  0  0  0  0  0  0
   47.5052   10.5796   12.8292 C   0  0  0  0  0  0  0  0  0  0  0  0
   41.2310   15.4313   10.3418 O   0  0  0  0  0  0  0  0  0  0  0  0
   40.6528   11.3051   12.1968 C   0  0  0  0  0  0  0  0  0  0  0  0
   41.0008   11.8548    9.7659 C   0  0  0  0  0  0  0  0  0  0  0  0
   47.1044    9.1457   12.5934 C   0  0  0  0  0  0  0  0  0  0  0  0
   47.8512    8.3379   11.7245 C   0  0  0  0  0  0  0  0  0  0  0  0
   45.9670    8.6085   13.2117 C   0  0  0  0  0  0  0  0  0  0  0  0
   47.4788    7.0129   11.4930 C   0  0  0  0  0  0  0  0  0  0  0  0
   45.5955    7.2833   12.9776 C   0  0  0  0  0  0  0  0  0  0  0  0
   46.3524    6.4855   12.1215 C   0  0  0  0  0  0  0  0  0  0  0  0
   42.4754   11.9700   11.4403 N   0  0  0  0  0  0  0  0  0  0  0  0
   45.1629    9.2868   11.4858 N   0  0  0  0  0  0  0  0  0  0  0  0
   47.4511    8.9622   12.2886 C   0  0  0  0  0  0  0  0  0  0  0  0
   41.0279   13.9261   11.1516 C   0  0  0  0  0  0  0  0  0  0  0  0
   42.4402   13.3927   11.1012 C   0  0  0  0  0  0  0  0  0  0  0  0
   46.1205    9.6364   12.5324 C   0  0  0  0  0  0  0  0  0  0  0  0
   43.8305   11.4288   11.3123 C   0  0  0  0  0  0  0  0  0  0  0  0
   43.8590    9.9286   11.6746 C   0  0  0  0  0  0  0  0  0  0  0  0
   48.5854    9.7134   11.9488 C   0  0  0  0  0  0  0  0  0  0  0  0
   47.5695    7.5685   12.3946 C   0  0  0  0  0  0  0  0  0  0  0  0
   40.3742   14.3392    9.9818 C   0  0  0  0  0  0  0  0  0  0  0  0
   40.3455   14.0117   12.3744 C   0  0  0  0  0  0  0  0  0  0  0  0
   49.8122    9.0835   11.7281 C   0  0  0  0  0  0  0  0  0  0  0  0
   39.0702   14.8352   10.0367 C   0  0  0  0  0  0  0  0  0  0  0  0
   39.0418   14.5064   12.4272 C   0  0  0  0  0  0  0  0  0  0  0  0
   48.7959    6.9405   12.1725 C   0  0  0  0  0  0  0  0  0  0  0  0
   49.9171    7.6982   11.8407 C   0  0  0  0  0  0  0  0  0  0  0  0
   38.4052   14.9196   11.2588 C   0  0  0  0  0  0  0  0  0  0  0  0
   42.8167   13.0830    9.6792 N   0  0  0  0  0  0  0  0  0  0  0  0
   42.9918   11.6499    9.9788 C   0  0  1  0  0  0  0  0  0  0  0  0
   44.0737   13.4169   10.0925 C   0  0  0  0  0  0  0  0  0  0  0  0
   44.5127   11.9338   10.1238 C   0  0  1  0  0  0  0  0  0  0  0  0
   41.6297   13.7338   10.2193 C   0  0  2  0  0  0  0  0  0  0  0  0
   42.0335   11.3650   11.5266 S   0  0  0  0  0  0  0  0  0  0  0  0
   41.2995   13.0659   11.5732 C   0  0  0  0  0  0  0  0  0  0  0  0
   45.1897   11.4811   11.3687 N   0  0  0  0  0  0  0  0  0  0  0  0
   40.5244   13.6045    9.1748 C   0  0  0  0  0  0  0  0  0  0  0  0
   45.4018   10.1377   11.6070 C   0  0  0  0  0  0  0  0  0  0  0  0
   44.5493   14.4795   10.4187 O   0  0  0  0  0  0  0  0  0  0  0  0
   40.3777   12.7130    8.3528 O   0  0  0  0  0  0  0  0  0  0  0  0
   45.0816    9.2798   10.7904 O   0  0  0  0  0  0  0  0  0  0  0  0
   46.0001    9.8339   12.9705 C   0  0  0  0  0  0  0  0  0  0  0  0
   39.6273   14.6134    9.2387 O   0  0  0  0  0  0  0  0  0  0  0  0
   39.8017   12.9308   11.8767 C   0  0  0  0  0  0  0  0  0  0  0  0
   41.9645   13.8190   12.7377 C   0  0  0  0  0  0  0  0  0  0  0  0
   47.0940    8.7971   12.9331 C   0  0  0  0  0  0  0  0  0  0  0  0
   46.7843    7.4340   13.0398 C   0  0  0  0  0  0  0  0  0  0  0  0
   48.4341    9.1779   12.7734 C   0  0  0  0  0  0  0  0  0  0  0  0
   47.7954    6.4728   13.0123 C   0  0  0  0  0  0  0  0  0  0  0  0
   49.4441    8.2144   12.7458 C   0  0  0  0  0  0  0  0  0  0  0  0
   49.1256    6.8624   12.8683 C   0  0  0  0  0  0  0  0  0  0  0  0
   43.8839   10.9271   11.6608 O   0  0  0  0  0  0  0  0  0  0  0  0
   43.8820   10.9280   11.6607 O   0  0  0  0  0  0  0  0  0  0  0  0
   43.8834   10.9274   11.6607 O   0  0  0  0  0  0  0  0  0  0  0  0
   43.6446   11.8454   11.4593 H   0  0  0  0  0  0  0  0  0  0  0  0
   44.8510   10.9247   11.6289 H   0  0  0  0  0  0  0  0  0  0  0  0
   44.1283   12.7163    9.4659 H   0  0  0  0  0  0  0  0  0  0  0  0
   45.9350   13.8608   10.7099 H   0  0  0  0  0  0  0  0  0  0  0  0
   41.9177   13.5395   12.6943 H   0  0  0  0  0  0  0  0  0  0  0  0
   45.6076   12.2492   13.2048 H   0  0  0  0  0  0  0  0  0  0  0  0
   47.2031   10.8884   13.8377 H   0  0  0  0  0  0  0  0  0  0  0  0
   48.5983   10.6791   12.8064 H   0  0  0  0  0  0  0  0  0  0  0  0
   40.4424   15.9928   10.1894 H   0  0  0  0  0  0  0  0  0  0  0  0
   39.6601   11.7666   12.2112 H   0  0  0  0  0  0  0  0  0  0  0  0
   40.5130   10.2459   11.9486 H   0  0  0  0  0  0  0  0  0  0  0  0
   41.0546   11.3620   13.2159 H   0  0  0  0  0  0  0  0  0  0  0  0
   40.9251   10.7997    9.4754 H   0  0  0  0  0  0  0  0  0  0  0  0
   41.6160   12.3679    9.0175 H   0  0  0  0  0  0  0  0  0  0  0  0
   39.9902   12.2732    9.6978 H   0  0  0  0  0  0  0  0  0  0  0  0
   48.7244    8.7408   11.2145 H   0  0  0  0  0  0  0  0  0  0  0  0
   45.3588    9.2157   13.8768 H   0  0  0  0  0  0  0  0  0  0  0  0
   48.0643    6.3956   10.8163 H   0  0  0  0  0  0  0  0  0  0  0  0
   44.7115    6.8736   13.4597 H   0  0  0  0  0  0  0  0  0  0  0  0
   46.0604    5.4549   11.9366 H   0  0  0  0  0  0  0  0  0  0  0  0
   41.8410   11.4706   10.8166 H   0  0  0  0  0  0  0  0  0  0  0  0
   45.5530    9.5338   10.5783 H   0  0  0  0  0  0  0  0  0  0  0  0
   43.0531   13.9700   11.8047 H   0  0  0  0  0  0  0  0  0  0  0  0
   42.8587   13.5564   10.1002 H   0  0  0  0  0  0  0  0  0  0  0  0
   46.2711   10.7210   12.5791 H   0  0  0  0  0  0  0  0  0  0  0  0
   45.7503    9.3202   13.5150 H   0  0  0  0  0  0  0  0  0  0  0  0
   44.1886   11.5568   10.2833 H   0  0  0  0  0  0  0  0  0  0  0  0
   44.5039   11.9818   11.9765 H   0  0  0  0  0  0  0  0  0  0  0  0
   43.1469    9.4005   11.0278 H   0  0  0  0  0  0  0  0  0  0  0  0
   43.5056    9.7752   12.7024 H   0  0  0  0  0  0  0  0  0  0  0  0
   48.5228   10.7953   11.8556 H   0  0  0  0  0  0  0  0  0  0  0  0
   46.6966    6.9689   12.6442 H   0  0  0  0  0  0  0  0  0  0  0  0
   40.8767   14.2793    9.0195 H   0  0  0  0  0  0  0  0  0  0  0  0
   40.8326   13.6827   13.2906 H   0  0  0  0  0  0  0  0  0  0  0  0
   50.6867    9.6739   11.4669 H   0  0  0  0  0  0  0  0  0  0  0  0
   38.5722   15.1551    9.1254 H   0  0  0  0  0  0  0  0  0  0  0  0
   38.5233   14.5662   13.3802 H   0  0  0  0  0  0  0  0  0  0  0  0
   48.8742    5.8597   12.2564 H   0  0  0  0  0  0  0  0  0  0  0  0
   50.8719    7.2088   11.6677 H   0  0  0  0  0  0  0  0  0  0  0  0
   37.3895   15.3041   11.3003 H   0  0  0  0  0  0  0  0  0  0  0  0
   42.7148   11.0025    9.1416 H   0  0  0  0  0  0  0  0  0  0  0  0
   45.1067   11.6694    9.2398 H   0  0  0  0  0  0  0  0  0  0  0  0
   41.8519   14.8015   10.3386 H   0  0  0  0  0  0  0  0  0  0  0  0
   45.3681   12.1511   12.1099 H   0  0  0  0  0  0  0  0  0  0  0  0
   45.1836    9.4958   13.6220 H   0  0  0  0  0  0  0  0  0  0  0  0
   46.3932   10.7502   13.4274 H   0  0  0  0  0  0  0  0  0  0  0  0
   38.9900   14.4100    8.5207 H   0  0  0  0  0  0  0  0  0  0  0  0
   39.3205   13.9144   11.9025 H   0  0  0  0  0  0  0  0  0  0  0  0
   39.2773   12.3201   11.1330 H   0  0  0  0  0  0  0  0  0  0  0  0
   39.6300   12.4663   12.8557 H   0  0  0  0  0  0  0  0  0  0  0  0
   41.7542   13.3398   13.7018 H   0  0  0  0  0  0  0  0  0  0  0  0
   41.5827   14.8448   12.7977 H   0  0  0  0  0  0  0  0  0  0  0  0
   43.0527   13.8833   12.6335 H   0  0  0  0  0  0  0  0  0  0  0  0
   45.7494    7.1125   13.1384 H   0  0  0  0  0  0  0  0  0  0  0  0
   48.7032   10.2273   12.6726 H   0  0  0  0  0  0  0  0  0  0  0  0
   47.5441    5.4191   13.0957 H   0  0  0  0  0  0  0  0  0  0  0  0
   50.4811    8.5170   12.6246 H   0  0  0  0  0  0  0  0  0  0  0  0
   49.9124    6.1132   12.8436 H   0  0  0  0  0  0  0  0  0  0  0  0
   44.8521   10.9273   11.6283 H   0  0  0  0  0  0  0  0  0  0  0  0
   43.6422   11.8434   11.4598 H   0  0  0  0  0  0  0  0  0  0  0  0
   44.8509   10.9240   11.6290 H   0  0  0  0  0  0  0  0  0  0  0  0
   43.6452   11.8459   11.4592 H   0  0  0  0  0  0  0  0  0  0  0  0
   43.6432   11.8441   11.4596 H   0  0  0  0  0  0  0  0  0  0  0  0
   44.8516   10.9264   11.6285 H   0  0  0  0  0  0  0  0  0  0  0  0
  3  2  1  0
  4  2  1  0
  5  3  1  0
  6  2  1  0
  3  7  1  0
  8  6  1  0
  5  9  1  0
  6 10  1  0
 11  9  1  0
 12  4  2  0
 13 10  2  0
 14 11  2  0
 15 11  1  0
 16 10  1  0
 17  8  1  0
 18  8  1  0
 19 15  1  0
 20 19  2  0
 21 19  1  0
 22 20  1  0
 23 21  2  0
 24 23  1  0
  7  8  1  0
  4  5  1  0
 24 22  2  0
 26 32  1  0
 27 30  1  0
 28 29  1  0
 29 25  1  0
 30 26  1  0
 31 25  1  0
 32 31  1  0
 33 27  2  0
 34 27  1  0
 35 28  2  0
 36 28  1  0
 37 33  1  0
 38 35  1  0
 39 36  2  0
 40 34  2  0
 41 37  2  0
 42 39  1  0
 42 38  2  0
 40 41  1  0
 44 43  1  0
 45 43  1  0
 46 44  1  0
 47 43  1  0
 44 48  1  0
 49 47  1  0
 46 50  1  0
 47 51  1  0
 52 50  1  0
 53 45  2  0
 54 51  2  0
 55 52  2  0
 56 52  1  0
 57 51  1  0
 58 49  1  0
 59 49  1  0
 60 56  1  0
 61 60  2  0
 62 60  1  0
 63 61  1  0
 64 62  2  0
 65 64  1  0
 48 49  1  0
 45 46  1  0
 65 63  2  0
  1 69  1  0
  1 70  1  0
  3 71  1  1
  5 72  1  1
  6 73  1  6
  9 74  1  0
 15 75  1  0
 15 76  1  0
 16 77  1  0
 17 78  1  0
 17 79  1  0
 17 80  1  0
 18 81  1  0
 18 82  1  0
 18 83  1  0
 20 84  1  0
 21 85  1  0
 22 86  1  0
 23 87  1  0
 24 88  1  0
 25 89  1  0
 26 90  1  0
 29 91  1  0
 29 92  1  0
 30 93  1  0
 30 94  1  0
 31 95  1  0
 31 96  1  0
 32 97  1  0
 32 98  1  0
 33 99  1  0
 34100  1  0
 35101  1  0
 36102  1  0
 37103  1  0
 38104  1  0
 39105  1  0
 40106  1  0
 41107  1  0
 42108  1  0
 44109  1  1
 46110  1  1
 47111  1  6
 50112  1  0
 56113  1  0
 56114  1  0
 57115  1  0
 58116  1  0
 58117  1  0
 58118  1  0
 59119  1  0
 59120  1  0
 59121  1  0
 61122  1  0
 62123  1  0
 63124  1  0
 64125  1  0
 65126  1  0
 66127  1  0
 66128  1  0
 67129  1  0
 67130  1  0
 68131  1  0
 68132  1  0
M  END
> <Uni-Dock RESULT> 
ENERGY=   -6.575  LOWER_BOUND=    6.364  UPPER_BOUND=   11.263
INTER + INTRA:          -6.575
INTER:                  -6.575
INTRA:                   0.000
UNBOUND:                 0.000

$$$$

     RDKit          3D

132133  0  0  0  0  0  0  0  0999 V2000
   48.7265   10.8628   15.9239 O   0  0  0  0  0  0  0  0  0  0  0  0
   48.9443   13.2998   14.1956 N   0  0  0  0  0  0  0  0  0  0  0  0
   49.5224   12.7257   15.4267 C   0  0  1  0  0  0  0  0  0  0  0  0
   47.8931   13.8797   14.8535 C   0  0  0  0  0  0  0  0  0  0  0  0
   48.5150   13.5777   16.2345 C   0  0  1  0  0  0  0  0  0  0  0  0
   48.6658   12.3936   13.0796 C   0  0  2  0  0  0  0  0  0  0  0  0
   49.1897   10.9247   15.2514 S   0  0  0  0  0  0  0  0  0  0  0  0
   49.3291   11.0375   13.4016 C   0  0  0  0  0  0  0  0  0  0  0  0
   47.6463   12.8602   17.2067 N   0  0  0  0  0  0  0  0  0  0  0  0
   49.0823   12.9598   11.7240 C   0  0  0  0  0  0  0  0  0  0  0  0
   48.1158   12.5452   18.4638 C   0  0  0  0  0  0  0  0  0  0  0  0
   46.8382   14.3059   14.4436 O   0  0  0  0  0  0  0  0  0  0  0  0
   48.9249   12.4018   10.6475 O   0  0  0  0  0  0  0  0  0  0  0  0
   49.2176   12.9179   18.8613 O   0  0  0  0  0  0  0  0  0  0  0  0
   47.1643   11.7160   19.3065 C   0  0  0  0  0  0  0  0  0  0  0  0
   49.6825   14.1659   11.7732 O   0  0  0  0  0  0  0  0  0  0  0  0
   48.5628    9.8627   12.7880 C   0  0  0  0  0  0  0  0  0  0  0  0
   50.8169   10.9550   13.0298 C   0  0  0  0  0  0  0  0  0  0  0  0
   47.6639   10.3113   19.5284 C   0  0  0  0  0  0  0  0  0  0  0  0
   48.5407   10.0329   20.5863 C   0  0  0  0  0  0  0  0  0  0  0  0
   47.2865    9.2719   18.6671 C   0  0  0  0  0  0  0  0  0  0  0  0
   49.0159    8.7366   20.7904 C   0  0  0  0  0  0  0  0  0  0  0  0
   47.7643    7.9762   18.8722 C   0  0  0  0  0  0  0  0  0  0  0  0
   48.6256    7.7084   19.9346 C   0  0  0  0  0  0  0  0  0  0  0  0
   48.9674   11.3066   14.2328 N   0  0  0  0  0  0  0  0  0  0  0  0
   48.9798    9.9044   17.7623 N   0  0  0  0  0  0  0  0  0  0  0  0
   47.9454   10.3364   19.9369 C   0  0  0  0  0  0  0  0  0  0  0  0
   49.1426   12.5738   12.1427 C   0  0  0  0  0  0  0  0  0  0  0  0
   49.0894   12.6432   13.6506 C   0  0  0  0  0  0  0  0  0  0  0  0
   47.7771   10.3887   18.4358 C   0  0  0  0  0  0  0  0  0  0  0  0
   48.9990   11.3618   15.6961 C   0  0  0  0  0  0  0  0  0  0  0  0
   48.8668    9.9481   16.3018 C   0  0  0  0  0  0  0  0  0  0  0  0
   48.0179   11.5150   20.6933 C   0  0  0  0  0  0  0  0  0  0  0  0
   48.0367    9.1022   20.5974 C   0  0  0  0  0  0  0  0  0  0  0  0
   50.3113   12.9186   11.4487 C   0  0  0  0  0  0  0  0  0  0  0  0
   48.0197   12.1570   11.4120 C   0  0  0  0  0  0  0  0  0  0  0  0
   48.1703   11.4584   22.0804 C   0  0  0  0  0  0  0  0  0  0  0  0
   50.3517   12.8562   10.0545 C   0  0  0  0  0  0  0  0  0  0  0  0
   48.0623   12.0938   10.0187 C   0  0  0  0  0  0  0  0  0  0  0  0
   48.1902    9.0474   21.9835 C   0  0  0  0  0  0  0  0  0  0  0  0
   48.2555   10.2254   22.7246 C   0  0  0  0  0  0  0  0  0  0  0  0
   49.2275   12.4450    9.3403 C   0  0  0  0  0  0  0  0  0  0  0  0
   50.4809   12.7781   14.2032 N   0  0  0  0  0  0  0  0  0  0  0  0
   50.3811   11.4932   14.9196 C   0  0  1  0  0  0  0  0  0  0  0  0
   49.8626   13.4835   15.1942 C   0  0  0  0  0  0  0  0  0  0  0  0
   49.9989   12.3058   16.1879 C   0  0  1  0  0  0  0  0  0  0  0  0
   50.0072   12.8082   12.8252 C   0  0  2  0  0  0  0  0  0  0  0  0
   49.0315   10.5739   14.0660 S   0  0  0  0  0  0  0  0  0  0  0  0
   48.8241   11.8205   12.7107 C   0  0  0  0  0  0  0  0  0  0  0  0
   48.7596   11.9198   16.9146 N   0  0  0  0  0  0  0  0  0  0  0  0
   51.1937   12.4656   11.9282 C   0  0  0  0  0  0  0  0  0  0  0  0
   48.7015   10.7419   17.6327 C   0  0  0  0  0  0  0  0  0  0  0  0
   49.3207   14.5643   15.1840 O   0  0  0  0  0  0  0  0  0  0  0  0
   52.1529   11.7600   12.1999 O   0  0  0  0  0  0  0  0  0  0  0  0
   49.6728    9.9990   17.7319 O   0  0  0  0  0  0  0  0  0  0  0  0
   47.3335   10.4378   18.2207 C   0  0  0  0  0  0  0  0  0  0  0  0
   51.0950   13.0211   10.6999 O   0  0  0  0  0  0  0  0  0  0  0  0
   48.7413   11.0661   11.3774 C   0  0  0  0  0  0  0  0  0  0  0  0
   47.4830   12.5350   12.9481 C   0  0  0  0  0  0  0  0  0  0  0  0
   47.3850    9.9276   19.6384 C   0  0  0  0  0  0  0  0  0  0  0  0
   47.5265    8.5567   19.8951 C   0  0  0  0  0  0  0  0  0  0  0  0
   47.3103   10.8163   20.7206 C   0  0  0  0  0  0  0  0  0  0  0  0
   47.5676    8.0812   21.2063 C   0  0  0  0  0  0  0  0  0  0  0  0
   47.3519   10.3384   22.0318 C   0  0  0  0  0  0  0  0  0  0  0  0
   47.4774    8.9711   22.2750 C   0  0  0  0  0  0  0  0  0  0  0  0
   48.7263   10.8627   15.9254 O   0  0  0  0  0  0  0  0  0  0  0  0
   48.7265   10.8628   15.9233 O   0  0  0  0  0  0  0  0  0  0  0  0
   48.7264   10.8628   15.9248 O   0  0  0  0  0  0  0  0  0  0  0  0
   48.8161   11.6390   15.3506 H   0  0  0  0  0  0  0  0  0  0  0  0
   48.6325   11.2376   16.8125 H   0  0  0  0  0  0  0  0  0  0  0  0
   50.5753   12.9904   15.5619 H   0  0  0  0  0  0  0  0  0  0  0  0
   48.9491   14.4815   16.6817 H   0  0  0  0  0  0  0  0  0  0  0  0
   47.5738   12.2726   13.0198 H   0  0  0  0  0  0  0  0  0  0  0  0
   46.7900   12.4254   16.8803 H   0  0  0  0  0  0  0  0  0  0  0  0
   46.1685   11.6875   18.8468 H   0  0  0  0  0  0  0  0  0  0  0  0
   47.0299   12.2297   20.2674 H   0  0  0  0  0  0  0  0  0  0  0  0
   49.8493   14.3997   10.8363 H   0  0  0  0  0  0  0  0  0  0  0  0
   48.6077    9.8961   11.6945 H   0  0  0  0  0  0  0  0  0  0  0  0
   48.9841    8.8990   13.0991 H   0  0  0  0  0  0  0  0  0  0  0  0
   47.5034    9.8746   13.0722 H   0  0  0  0  0  0  0  0  0  0  0  0
   51.2707   10.0276   13.4005 H   0  0  0  0  0  0  0  0  0  0  0  0
   51.3931   11.7969   13.4311 H   0  0  0  0  0  0  0  0  0  0  0  0
   50.9514   10.9583   11.9422 H   0  0  0  0  0  0  0  0  0  0  0  0
   48.8664   10.8290   21.2535 H   0  0  0  0  0  0  0  0  0  0  0  0
   46.6219    9.4609   17.8284 H   0  0  0  0  0  0  0  0  0  0  0  0
   49.6964    8.5320   21.6131 H   0  0  0  0  0  0  0  0  0  0  0  0
   47.4683    7.1752   18.1996 H   0  0  0  0  0  0  0  0  0  0  0  0
   49.0003    6.7002   20.0915 H   0  0  0  0  0  0  0  0  0  0  0  0
   49.7363   10.7304   13.8897 H   0  0  0  0  0  0  0  0  0  0  0  0
   49.7812   10.4497   18.0738 H   0  0  0  0  0  0  0  0  0  0  0  0
   48.2333   13.2664   13.9382 H   0  0  0  0  0  0  0  0  0  0  0  0
   49.9914   13.1420   14.0270 H   0  0  0  0  0  0  0  0  0  0  0  0
   47.5481   11.4178   18.1362 H   0  0  0  0  0  0  0  0  0  0  0  0
   46.9099    9.7743   18.1658 H   0  0  0  0  0  0  0  0  0  0  0  0
   49.9416   11.8104   16.0333 H   0  0  0  0  0  0  0  0  0  0  0  0
   48.1772   11.9937   16.0510 H   0  0  0  0  0  0  0  0  0  0  0  0
   49.6728    9.3206   15.9006 H   0  0  0  0  0  0  0  0  0  0  0  0
   47.9286    9.4786   15.9793 H   0  0  0  0  0  0  0  0  0  0  0  0
   47.9539   12.4864   20.2081 H   0  0  0  0  0  0  0  0  0  0  0  0
   47.9958    8.1780   20.0247 H   0  0  0  0  0  0  0  0  0  0  0  0
   51.1983   13.2402   11.9892 H   0  0  0  0  0  0  0  0  0  0  0  0
   47.1085   11.8725   11.9350 H   0  0  0  0  0  0  0  0  0  0  0  0
   48.2237   12.3771   22.6589 H   0  0  0  0  0  0  0  0  0  0  0  0
   51.2609   13.1273    9.5249 H   0  0  0  0  0  0  0  0  0  0  0  0
   47.1866   11.7678    9.4643 H   0  0  0  0  0  0  0  0  0  0  0  0
   48.2610    8.0848   22.4830 H   0  0  0  0  0  0  0  0  0  0  0  0
   48.3752   10.1824   23.8040 H   0  0  0  0  0  0  0  0  0  0  0  0
   49.2604   12.3949    8.2551 H   0  0  0  0  0  0  0  0  0  0  0  0
   51.3352   10.9610   14.9753 H   0  0  0  0  0  0  0  0  0  0  0  0
   50.8282   12.4627   16.8893 H   0  0  0  0  0  0  0  0  0  0  0  0
   49.7002   13.8356   12.5935 H   0  0  0  0  0  0  0  0  0  0  0  0
   47.9088   12.4529   16.7654 H   0  0  0  0  0  0  0  0  0  0  0  0
   46.8520    9.6952   17.5710 H   0  0  0  0  0  0  0  0  0  0  0  0
   46.6965   11.3299   18.1859 H   0  0  0  0  0  0  0  0  0  0  0  0
   51.9120   12.7292   10.2413 H   0  0  0  0  0  0  0  0  0  0  0  0
   48.6298   11.7655   10.5418 H   0  0  0  0  0  0  0  0  0  0  0  0
   49.6303   10.4543   11.1866 H   0  0  0  0  0  0  0  0  0  0  0  0
   47.8743   10.3944   11.3485 H   0  0  0  0  0  0  0  0  0  0  0  0
   46.6378   11.8380   12.8907 H   0  0  0  0  0  0  0  0  0  0  0  0
   47.3187   13.3041   12.1844 H   0  0  0  0  0  0  0  0  0  0  0  0
   47.4343   13.0304   13.9234 H   0  0  0  0  0  0  0  0  0  0  0  0
   47.6125    7.8504   19.0718 H   0  0  0  0  0  0  0  0  0  0  0  0
   47.2157   11.8871   20.5522 H   0  0  0  0  0  0  0  0  0  0  0  0
   47.6776    7.0168   21.3937 H   0  0  0  0  0  0  0  0  0  0  0  0
   47.2906   11.0327   22.8658 H   0  0  0  0  0  0  0  0  0  0  0  0
   47.5127    8.6006   23.2960 H   0  0  0  0  0  0  0  0  0  0  0  0
   48.6326   11.2405   16.8124 H   0  0  0  0  0  0  0  0  0  0  0  0
   48.8162   11.6362   15.3491 H   0  0  0  0  0  0  0  0  0  0  0  0
   48.6325   11.2369   16.8126 H   0  0  0  0  0  0  0  0  0  0  0  0
   48.8160   11.6398   15.3509 H   0  0  0  0  0  0  0  0  0  0  0  0
   48.8161   11.6373   15.3498 H   0  0  0  0  0  0  0  0  0  0  0  0
   48.6326   11.2395   16.8124 H   0  0  0  0  0  0  0  0  0  0  0  0
  3  2  1  0
  4  2  1  0
  5  3  1  0
  6  2  1  0
  3  7  1  0
  8  6  1  0
  5  9  1  0
  6 10  1  0
 11  9  1  0
 12  4  2  0
 13 10  2  0
 14 11  2  0
 15 11  1  0
 16 10  1  0
 17  8  1  0
 18  8  1  0
 19 15  1  0
 20 19  2  0
 21 19  1  0
 22 20  1  0
 23 21  2  0
 24 23  1  0
  7  8  1  0
  4  5  1  0
 24 22  2  0
 26 32  1  0
 27 30  1  0
 28 29  1  0
 29 25  1  0
 30 26  1  0
 31 25  1  0
 32 31  1  0
 33 27  2  0
 34 27  1  0
 35 28  2  0
 36 28  1  0
 37 33  1  0
 38 35  1  0
 39 36  2  0
 40 34  2  0
 41 37  2  0
 42 39  1  0
 42 38  2  0
 40 41  1  0
 44 43  1  0
 45 43  1  0
 46 44  1  0
 47 43  1  0
 44 48  1  0
 49 47  1  0
 46 50  1  0
 47 51  1  0
 52 50  1  0
 53 45  2  0
 54 51  2  0
 55 52  2  0
 56 52  1  0
 57 51  1  0
 58 49  1  0
 59 49  1  0
 60 56  1  0
 61 60  2  0
 62 60  1  0
 63 61  1  0
 64 62  2  0
 65 64  1  0
 48 49  1  0
 45 46  1  0
 65 63  2  0
  1 69  1  0
  1 70  1  0
  3 71  1  1
  5 72  1  1
  6 73  1  6
  9 74  1  0
 15 75  1  0
 15 76  1  0
 16 77  1  0
 17 78  1  0
 17 79  1  0
 17 80  1  0
 18 81  1  0
 18 82  1  0
 18 83  1  0
 20 84  1  0
 21 85  1  0
 22 86  1  0
 23 87  1  0
 24 88  1  0
 25 89  1  0
 26 90  1  0
 29 91  1  0
 29 92  1  0
 30 93  1  0
 30 94  1  0
 31 95  1  0
 31 96  1  0
 32 97  1  0
 32 98  1  0
 33 99  1  0
 34100  1  0
 35101  1  0
 36102  1  0
 37103  1  0
 38104  1  0
 39105  1  0
 40106  1  0
 41107  1  0
 42108  1  0
 44109  1  1
 46110  1  1
 47111  1  6
 50112  1  0
 56113  1  0
 56114  1  0
 57115  1  0
 58116  1  0
 58117  1  0
 58118  1  0
 59119  1  0
 59120  1  0
 59121  1  0
 61122  1  0
 62123  1  0
 63124  1  0
 64125  1  0
 65126  1  0
 66127  1  0
 66128  1  0
 67129  1  0
 67130  1  0
 68131  1  0
 68132  1  0
M  END
> <Uni-Dock RESULT> 
ENERGY=   -6.307  LOWER_BOUND=    4.965  UPPER_BOUND=    9.045
INTER + INTRA:          -6.307
INTER:                  -6.307
INTRA:                   0.000
UNBOUND:                 0.000

$$$$

     RDKit          3D

132133  0  0  0  0  0  0  0  0999 V2000
   47.8680   14.3119   16.8967 O   0  0  0  0  0  0  0  0  0  0  0  0
   49.1066   16.1827   14.9119 N   0  0  0  0  0  0  0  0  0  0  0  0
   49.4394   14.9778   15.6974 C   0  0  1  0  0  0  0  0  0  0  0  0
   49.4563   17.0432   15.9177 C   0  0  0  0  0  0  0  0  0  0  0  0
   50.0918   15.9069   16.7483 C   0  0  1  0  0  0  0  0  0  0  0  0
   47.7639   16.2783   14.3355 C   0  0  2  0  0  0  0  0  0  0  0  0
   47.7920   14.2550   16.0833 S   0  0  0  0  0  0  0  0  0  0  0  0
   47.0908   14.8974   14.4866 C   0  0  0  0  0  0  0  0  0  0  0  0
   49.6225   15.7755   18.1543 N   0  0  0  0  0  0  0  0  0  0  0  0
   47.7593   16.7955   12.8988 C   0  0  0  0  0  0  0  0  0  0  0  0
   50.1310   14.7890   18.9717 C   0  0  0  0  0  0  0  0  0  0  0  0
   49.1936   18.2111   16.0899 O   0  0  0  0  0  0  0  0  0  0  0  0
   46.7600   16.9871   12.2209 O   0  0  0  0  0  0  0  0  0  0  0  0
   51.0436   14.0486   18.6110 O   0  0  0  0  0  0  0  0  0  0  0  0
   49.4808   14.7017   20.3401 C   0  0  0  0  0  0  0  0  0  0  0  0
   48.9799   17.0280   12.3758 O   0  0  0  0  0  0  0  0  0  0  0  0
   45.5717   15.0120   14.6388 C   0  0  0  0  0  0  0  0  0  0  0  0
   47.4404   13.8965   13.3755 C   0  0  0  0  0  0  0  0  0  0  0  0
   48.6586   13.4498   20.5102 C   0  0  0  0  0  0  0  0  0  0  0  0
   49.2656   12.2590   20.9333 C   0  0  0  0  0  0  0  0  0  0  0  0
   47.2874   13.4480   20.2202 C   0  0  0  0  0  0  0  0  0  0  0  0
   48.5122   11.0936   21.0817 C   0  0  0  0  0  0  0  0  0  0  0  0
   46.5359   12.2806   20.3681 C   0  0  0  0  0  0  0  0  0  0  0  0
   47.1472   11.1055   20.8013 C   0  0  0  0  0  0  0  0  0  0  0  0
   47.5433   15.0110   15.3091 N   0  0  0  0  0  0  0  0  0  0  0  0
   48.0442   12.9017   18.4273 N   0  0  0  0  0  0  0  0  0  0  0  0
   48.9763   13.1077   20.6800 C   0  0  0  0  0  0  0  0  0  0  0  0
   47.6667   16.3764   13.2779 C   0  0  0  0  0  0  0  0  0  0  0  0
   48.3909   15.9008   14.5153 C   0  0  0  0  0  0  0  0  0  0  0  0
   48.2652   13.8128   19.5479 C   0  0  0  0  0  0  0  0  0  0  0  0
   48.2690   14.4816   16.4659 C   0  0  0  0  0  0  0  0  0  0  0  0
   47.3666   13.5465   17.2991 C   0  0  0  0  0  0  0  0  0  0  0  0
   50.2907   13.4513   21.0276 C   0  0  0  0  0  0  0  0  0  0  0  0
   48.3301   12.0914   21.3993 C   0  0  0  0  0  0  0  0  0  0  0  0
   48.0842   15.9724   12.0017 C   0  0  0  0  0  0  0  0  0  0  0  0
   46.5583   17.2293   13.3889 C   0  0  0  0  0  0  0  0  0  0  0  0
   50.9400   12.7973   22.0770 C   0  0  0  0  0  0  0  0  0  0  0  0
   47.4126   16.4196   10.8622 C   0  0  0  0  0  0  0  0  0  0  0  0
   45.8873   17.6741   12.2491 C   0  0  0  0  0  0  0  0  0  0  0  0
   48.9808   11.4381   22.4469 C   0  0  0  0  0  0  0  0  0  0  0  0
   50.2849   11.7921   22.7863 C   0  0  0  0  0  0  0  0  0  0  0  0
   46.3156   17.2706   10.9862 C   0  0  0  0  0  0  0  0  0  0  0  0
   49.2988   14.7551   14.1647 N   0  0  0  0  0  0  0  0  0  0  0  0
   48.5625   13.8293   15.0451 C   0  0  1  0  0  0  0  0  0  0  0  0
   50.0713   15.2478   15.1759 C   0  0  0  0  0  0  0  0  0  0  0  0
   49.6402   14.1083   16.1293 C   0  0  1  0  0  0  0  0  0  0  0  0
   48.5060   15.6260   13.3061 C   0  0  2  0  0  0  0  0  0  0  0  0
   46.9079   14.6058   15.2780 S   0  0  0  0  0  0  0  0  0  0  0  0
   47.2005   15.9698   14.0582 C   0  0  0  0  0  0  0  0  0  0  0  0
   49.1771   14.5285   17.4791 N   0  0  0  0  0  0  0  0  0  0  0  0
   48.2895   14.8901   11.9865 C   0  0  0  0  0  0  0  0  0  0  0  0
   48.5433   13.6328   18.3173 C   0  0  0  0  0  0  0  0  0  0  0  0
   50.7152   16.2674   15.2625 O   0  0  0  0  0  0  0  0  0  0  0  0
   48.2285   13.6833   11.8086 O   0  0  0  0  0  0  0  0  0  0  0  0
   48.3785   12.4591   18.0001 O   0  0  0  0  0  0  0  0  0  0  0  0
   48.0314   14.2451   19.6106 C   0  0  0  0  0  0  0  0  0  0  0  0
   48.1319   15.7320   10.9409 O   0  0  0  0  0  0  0  0  0  0  0  0
   45.9564   16.0887   13.1683 C   0  0  0  0  0  0  0  0  0  0  0  0
   47.3511   17.2744   14.8585 C   0  0  0  0  0  0  0  0  0  0  0  0
   48.2933   13.3941   20.8272 C   0  0  0  0  0  0  0  0  0  0  0  0
   47.3731   12.4112   21.2177 C   0  0  0  0  0  0  0  0  0  0  0  0
   49.4675   13.5598   21.5756 C   0  0  0  0  0  0  0  0  0  0  0  0
   47.6098   11.6269   22.3472 C   0  0  0  0  0  0  0  0  0  0  0  0
   49.7025   12.7737   22.7052 C   0  0  0  0  0  0  0  0  0  0  0  0
   48.7727   11.8096   23.0931 C   0  0  0  0  0  0  0  0  0  0  0  0
   47.8685   14.3114   16.8980 O   0  0  0  0  0  0  0  0  0  0  0  0
   47.8677   14.3120   16.8962 O   0  0  0  0  0  0  0  0  0  0  0  0
   47.8683   14.3116   16.8975 O   0  0  0  0  0  0  0  0  0  0  0  0
   48.2600   14.9013   16.2349 H   0  0  0  0  0  0  0  0  0  0  0  0
   48.5363   14.2686   17.5969 H   0  0  0  0  0  0  0  0  0  0  0  0
   50.1267   14.3080   15.1720 H   0  0  0  0  0  0  0  0  0  0  0  0
   51.1880   15.9418   16.6972 H   0  0  0  0  0  0  0  0  0  0  0  0
   47.2104   17.0313   14.9163 H   0  0  0  0  0  0  0  0  0  0  0  0
   48.7895   16.2740   18.4481 H   0  0  0  0  0  0  0  0  0  0  0  0
   48.8559   15.5842   20.5260 H   0  0  0  0  0  0  0  0  0  0  0  0
   50.2770   14.7411   21.0949 H   0  0  0  0  0  0  0  0  0  0  0  0
   48.8034   17.3841   11.4799 H   0  0  0  0  0  0  0  0  0  0  0  0
   45.1159   15.4002   13.7221 H   0  0  0  0  0  0  0  0  0  0  0  0
   45.1113   14.0371   14.8406 H   0  0  0  0  0  0  0  0  0  0  0  0
   45.2943   15.6907   15.4546 H   0  0  0  0  0  0  0  0  0  0  0  0
   47.0490   12.8967   13.6005 H   0  0  0  0  0  0  0  0  0  0  0  0
   48.5221   13.8087   13.2202 H   0  0  0  0  0  0  0  0  0  0  0  0
   46.9986   14.1995   12.4195 H   0  0  0  0  0  0  0  0  0  0  0  0
   50.3337   12.2308   21.1411 H   0  0  0  0  0  0  0  0  0  0  0  0
   46.7929   14.3515   19.8740 H   0  0  0  0  0  0  0  0  0  0  0  0
   48.9931   10.1753   21.4092 H   0  0  0  0  0  0  0  0  0  0  0  0
   45.4730   12.2862   20.1403 H   0  0  0  0  0  0  0  0  0  0  0  0
   46.5624   10.1960   20.9125 H   0  0  0  0  0  0  0  0  0  0  0  0
   47.2294   14.2438   14.7143 H   0  0  0  0  0  0  0  0  0  0  0  0
   48.9369   12.5121   18.1309 H   0  0  0  0  0  0  0  0  0  0  0  0
   48.6824   16.7793   15.1045 H   0  0  0  0  0  0  0  0  0  0  0  0
   49.3157   15.3870   14.2244 H   0  0  0  0  0  0  0  0  0  0  0  0
   48.8588   14.6800   19.2364 H   0  0  0  0  0  0  0  0  0  0  0  0
   47.3105   14.1958   19.9277 H   0  0  0  0  0  0  0  0  0  0  0  0
   49.1519   13.9236   16.1303 H   0  0  0  0  0  0  0  0  0  0  0  0
   48.6118   15.3151   17.0890 H   0  0  0  0  0  0  0  0  0  0  0  0
   46.9999   12.7440   16.6465 H   0  0  0  0  0  0  0  0  0  0  0  0
   46.4755   14.0838   17.6482 H   0  0  0  0  0  0  0  0  0  0  0  0
   50.8182   14.2327   20.4851 H   0  0  0  0  0  0  0  0  0  0  0  0
   47.3150   11.8028   21.1343 H   0  0  0  0  0  0  0  0  0  0  0  0
   48.9369   15.3078   11.8858 H   0  0  0  0  0  0  0  0  0  0  0  0
   46.2120   17.5420   14.3723 H   0  0  0  0  0  0  0  0  0  0  0  0
   51.9582   13.0714   22.3407 H   0  0  0  0  0  0  0  0  0  0  0  0
   47.7444   16.1031    9.8771 H   0  0  0  0  0  0  0  0  0  0  0  0
   45.0292   18.3331   12.3483 H   0  0  0  0  0  0  0  0  0  0  0  0
   48.4695   10.6514   22.9955 H   0  0  0  0  0  0  0  0  0  0  0  0
   50.7913   11.2830   23.6020 H   0  0  0  0  0  0  0  0  0  0  0  0
   45.7923   17.6167   10.0987 H   0  0  0  0  0  0  0  0  0  0  0  0
   48.5390   12.8048   14.6620 H   0  0  0  0  0  0  0  0  0  0  0  0
   50.4125   13.3326   16.2071 H   0  0  0  0  0  0  0  0  0  0  0  0
   49.0986   16.5244   13.0930 H   0  0  0  0  0  0  0  0  0  0  0  0
   49.1992   15.5121   17.7289 H   0  0  0  0  0  0  0  0  0  0  0  0
   46.9526   14.4117   19.4933 H   0  0  0  0  0  0  0  0  0  0  0  0
   48.4762   15.2355   19.7659 H   0  0  0  0  0  0  0  0  0  0  0  0
   48.0108   15.1347   10.1718 H   0  0  0  0  0  0  0  0  0  0  0  0
   46.0881   16.8780   12.4202 H   0  0  0  0  0  0  0  0  0  0  0  0
   45.7312   15.1570   12.6369 H   0  0  0  0  0  0  0  0  0  0  0  0
   45.0664   16.3502   13.7541 H   0  0  0  0  0  0  0  0  0  0  0  0
   46.4364   17.5159   15.4140 H   0  0  0  0  0  0  0  0  0  0  0  0
   47.5505   18.1159   14.1848 H   0  0  0  0  0  0  0  0  0  0  0  0
   48.1730   17.2352   15.5809 H   0  0  0  0  0  0  0  0  0  0  0  0
   46.4672   12.2465   20.6379 H   0  0  0  0  0  0  0  0  0  0  0  0
   50.2072   14.3041   21.2877 H   0  0  0  0  0  0  0  0  0  0  0  0
   46.8900   10.8680   22.6408 H   0  0  0  0  0  0  0  0  0  0  0  0
   50.6135   12.9096   23.2824 H   0  0  0  0  0  0  0  0  0  0  0  0
   48.9582   11.1963   23.9708 H   0  0  0  0  0  0  0  0  0  0  0  0
   48.5387   14.2702   17.5963 H   0  0  0  0  0  0  0  0  0  0  0  0
   48.2572   14.9002   16.2341 H   0  0  0  0  0  0  0  0  0  0  0  0
   48.5358   14.2682   17.5971 H   0  0  0  0  0  0  0  0  0  0  0  0
   48.2608   14.9016   16.2350 H   0  0  0  0  0  0  0  0  0  0  0  0
   48.2583   14.9006   16.2345 H   0  0  0  0  0  0  0  0  0  0  0  0
   48.5378   14.2697   17.5964 H   0  0  0  0  0  0  0  0  0  0  0  0
  3  2  1  0
  4  2  1  0
  5  3  1  0
  6  2  1  0
  3  7  1  0
  8  6  1  0
  5  9  1  0
  6 10  1  0
 11  9  1  0
 12  4  2  0
 13 10  2  0
 14 11  2  0
 15 11  1  0
 16 10  1  0
 17  8  1  0
 18  8  1  0
 19 15  1  0
 20 19  2  0
 21 19  1  0
 22 20  1  0
 23 21  2  0
 24 23  1  0
  7  8  1  0
  4  5  1  0
 24 22  2  0
 26 32  1  0
 27 30  1  0
 28 29  1  0
 29 25  1  0
 30 26  1  0
 31 25  1  0
 32 31  1  0
 33 27  2  0
 34 27  1  0
 35 28  2  0
 36 28  1  0
 37 33  1  0
 38 35  1  0
 39 36  2  0
 40 34  2  0
 41 37  2  0
 42 39  1  0
 42 38  2  0
 40 41  1  0
 44 43  1  0
 45 43  1  0
 46 44  1  0
 47 43  1  0
 44 48  1  0
 49 47  1  0
 46 50  1  0
 47 51  1  0
 52 50  1  0
 53 45  2  0
 54 51  2  0
 55 52  2  0
 56 52  1  0
 57 51  1  0
 58 49  1  0
 59 49  1  0
 60 56  1  0
 61 60  2  0
 62 60  1  0
 63 61  1  0
 64 62  2  0
 65 64  1  0
 48 49  1  0
 45 46  1  0
 65 63  2  0
  1 69  1  0
  1 70  1  0
  3 71  1  1
  5 72  1  1
  6 73  1  6
  9 74  1  0
 15 75  1  0
 15 76  1  0
 16 77  1  0
 17 78  1  0
 17 79  1  0
 17 80  1  0
 18 81  1  0
 18 82  1  0
 18 83  1  0
 20 84  1  0
 21 85  1  0
 22 86  1  0
 23 87  1  0
 24 88  1  0
 25 89  1  0
 26 90  1  0
 29 91  1  0
 29 92  1  0
 30 93  1  0
 30 94  1  0
 31 95  1  0
 31 96  1  0
 32 97  1  0
 32 98  1  0
 33 99  1  0
 34100  1  0
 35101  1  0
 36102  1  0
 37103  1  0
 38104  1  0
 39105  1  0
 40106  1  0
 41107  1  0
 42108  1  0
 44109  1  1
 46110  1  1
 47111  1  6
 50112  1  0
 56113  1  0
 56114  1  0
 57115  1  0
 58116  1  0
 58117  1  0
 58118  1  0
 59119  1  0
 59120  1  0
 59121  1  0
 61122  1  0
 62123  1  0
 63124  1  0
 64125  1  0
 65126  1  0
 66127  1  0
 66128  1  0
 67129  1  0
 67130  1  0
 68131  1  0
 68132  1  0
M  END
> <Uni-Dock RESULT> 
ENERGY=   -6.295  LOWER_BOUND=    7.767  UPPER_BOUND=   11.612
INTER + INTRA:          -6.295
INTER:                  -6.295
INTRA:                   0.000
UNBOUND:                 0.000

$$$$

     RDKit          3D

132133  0  0  0  0  0  0  0  0999 V2000
   50.4781    6.3089   16.3512 O   0  0  0  0  0  0  0  0  0  0  0  0
   52.9020    6.6833   18.0709 N   0  0  0  0  0  0  0  0  0  0  0  0
   51.6164    7.3402   17.7625 C   0  0  1  0  0  0  0  0  0  0  0  0
   53.5618    7.2901   17.0361 C   0  0  0  0  0  0  0  0  0  0  0  0
   52.3771    8.2420   16.7618 C   0  0  1  0  0  0  0  0  0  0  0  0
   52.9229    5.2221   18.1618 C   0  0  2  0  0  0  0  0  0  0  0  0
   50.5913    5.9695   17.0878 S   0  0  0  0  0  0  0  0  0  0  0  0
   51.4589    4.7331   18.1706 C   0  0  0  0  0  0  0  0  0  0  0  0
   51.8713    8.2797   15.3628 N   0  0  0  0  0  0  0  0  0  0  0  0
   53.7375    4.7025   19.3443 C   0  0  0  0  0  0  0  0  0  0  0  0
   50.8151    9.0977   15.0231 C   0  0  0  0  0  0  0  0  0  0  0  0
   54.6111    7.0218   16.4980 O   0  0  0  0  0  0  0  0  0  0  0  0
   53.9240    3.5236   19.6092 O   0  0  0  0  0  0  0  0  0  0  0  0
   50.3155    9.8850   15.8240 O   0  0  0  0  0  0  0  0  0  0  0  0
   50.3335    8.9497   13.5916 C   0  0  0  0  0  0  0  0  0  0  0  0
   54.2571    5.6593   20.1392 O   0  0  0  0  0  0  0  0  0  0  0  0
   51.3115    3.3482   17.5347 C   0  0  0  0  0  0  0  0  0  0  0  0
   50.7902    4.7579   19.5529 C   0  0  0  0  0  0  0  0  0  0  0  0
   48.9676    8.3184   13.5040 C   0  0  0  0  0  0  0  0  0  0  0  0
   47.8158    9.1108   13.6083 C   0  0  0  0  0  0  0  0  0  0  0  0
   48.8272    6.9325   13.3486 C   0  0  0  0  0  0  0  0  0  0  0  0
   46.5482    8.5310   13.5395 C   0  0  0  0  0  0  0  0  0  0  0  0
   47.5581    6.3544   13.2815 C   0  0  0  0  0  0  0  0  0  0  0  0
   46.4199    7.1533   13.3738 C   0  0  0  0  0  0  0  0  0  0  0  0
   51.4540    5.4257   17.5269 N   0  0  0  0  0  0  0  0  0  0  0  0
   48.8073    7.0815   15.3643 N   0  0  0  0  0  0  0  0  0  0  0  0
   48.6472    8.6969   13.5338 C   0  0  0  0  0  0  0  0  0  0  0  0
   53.2362    4.7705   19.0759 C   0  0  0  0  0  0  0  0  0  0  0  0
   52.6120    5.8970   18.2867 C   0  0  0  0  0  0  0  0  0  0  0  0
   49.4715    7.6024   14.1718 C   0  0  0  0  0  0  0  0  0  0  0  0
   50.7958    6.5304   16.8257 C   0  0  0  0  0  0  0  0  0  0  0  0
   49.5774    6.0239   16.0245 C   0  0  0  0  0  0  0  0  0  0  0  0
   49.0960   10.0254   13.5312 C   0  0  0  0  0  0  0  0  0  0  0  0
   47.4135    8.3985   12.9366 C   0  0  0  0  0  0  0  0  0  0  0  0
   53.1894    4.7637   20.4774 C   0  0  0  0  0  0  0  0  0  0  0  0
   53.8704    3.7080   18.4147 C   0  0  0  0  0  0  0  0  0  0  0  0
   48.3301   11.0308   12.9369 C   0  0  0  0  0  0  0  0  0  0  0  0
   53.7725    3.7212   21.2004 C   0  0  0  0  0  0  0  0  0  0  0  0
   54.4513    2.6662   19.1389 C   0  0  0  0  0  0  0  0  0  0  0  0
   46.6488    9.4045   12.3442 C   0  0  0  0  0  0  0  0  0  0  0  0
   47.1079   10.7200   12.3433 C   0  0  0  0  0  0  0  0  0  0  0  0
   54.4038    2.6739   20.5313 C   0  0  0  0  0  0  0  0  0  0  0  0
   51.7185    6.7107   19.1809 N   0  0  0  0  0  0  0  0  0  0  0  0
   50.5233    6.3754   18.3852 C   0  0  1  0  0  0  0  0  0  0  0  0
   52.0849    7.7416   18.3653 C   0  0  0  0  0  0  0  0  0  0  0  0
   50.7126    7.7321   17.6514 C   0  0  1  0  0  0  0  0  0  0  0  0
   52.6304    5.6196   19.5006 C   0  0  2  0  0  0  0  0  0  0  0  0
   50.9764    4.8454   17.4639 S   0  0  0  0  0  0  0  0  0  0  0  0
   52.6034    4.6205   18.3219 C   0  0  0  0  0  0  0  0  0  0  0  0
   50.7519    7.7196   16.1643 N   0  0  0  0  0  0  0  0  0  0  0  0
   52.1796    5.0247   20.8319 C   0  0  0  0  0  0  0  0  0  0  0  0
   49.6101    7.4645   15.4311 C   0  0  0  0  0  0  0  0  0  0  0  0
   53.1440    8.3070   18.2225 O   0  0  0  0  0  0  0  0  0  0  0  0
   51.0461    4.9894   21.2857 O   0  0  0  0  0  0  0  0  0  0  0  0
   48.5240    7.2829   15.9721 O   0  0  0  0  0  0  0  0  0  0  0  0
   49.8399    7.3743   13.9316 C   0  0  0  0  0  0  0  0  0  0  0  0
   53.1984    4.4700   21.5258 O   0  0  0  0  0  0  0  0  0  0  0  0
   52.7304    3.1456   18.7244 C   0  0  0  0  0  0  0  0  0  0  0  0
   53.7072    4.9415   17.3002 C   0  0  0  0  0  0  0  0  0  0  0  0
   48.7901    8.0846   13.1155 C   0  0  0  0  0  0  0  0  0  0  0  0
   47.6205    7.4166   12.7268 C   0  0  0  0  0  0  0  0  0  0  0  0
   48.9584    9.4275   12.7482 C   0  0  0  0  0  0  0  0  0  0  0  0
   46.6504    8.0697   11.9657 C   0  0  0  0  0  0  0  0  0  0  0  0
   47.9862   10.0791   11.9869 C   0  0  0  0  0  0  0  0  0  0  0  0
   46.8339    9.3999   11.5929 C   0  0  0  0  0  0  0  0  0  0  0  0
   50.4774    6.3099   16.3502 O   0  0  0  0  0  0  0  0  0  0  0  0
   50.4783    6.3085   16.3515 O   0  0  0  0  0  0  0  0  0  0  0  0
   50.4777    6.3095   16.3506 O   0  0  0  0  0  0  0  0  0  0  0  0
   51.2501    6.4164   16.9270 H   0  0  0  0  0  0  0  0  0  0  0  0
   50.3808    7.1742   15.9261 H   0  0  0  0  0  0  0  0  0  0  0  0
   51.1878    7.8559   18.6270 H   0  0  0  0  0  0  0  0  0  0  0  0
   52.5838    9.2530   17.1366 H   0  0  0  0  0  0  0  0  0  0  0  0
   53.4394    4.8449   17.2664 H   0  0  0  0  0  0  0  0  0  0  0  0
   52.1643    7.5612   14.7096 H   0  0  0  0  0  0  0  0  0  0  0  0
   51.0512    8.3649   13.0028 H   0  0  0  0  0  0  0  0  0  0  0  0
   50.3228    9.9479   13.1346 H   0  0  0  0  0  0  0  0  0  0  0  0
   54.7717    5.1699   20.8146 H   0  0  0  0  0  0  0  0  0  0  0  0
   51.8205    2.5871   18.1350 H   0  0  0  0  0  0  0  0  0  0  0  0
   50.2591    3.0488   17.4583 H   0  0  0  0  0  0  0  0  0  0  0  0
   51.7452    3.3143   16.5278 H   0  0  0  0  0  0  0  0  0  0  0  0
   49.7188    4.5328   19.4828 H   0  0  0  0  0  0  0  0  0  0  0  0
   50.8994    5.7288   20.0503 H   0  0  0  0  0  0  0  0  0  0  0  0
   51.2277    4.0026   20.2154 H   0  0  0  0  0  0  0  0  0  0  0  0
   47.9006   10.1863   13.7535 H   0  0  0  0  0  0  0  0  0  0  0  0
   49.7017    6.2908   13.2822 H   0  0  0  0  0  0  0  0  0  0  0  0
   45.6616    9.1546   13.6228 H   0  0  0  0  0  0  0  0  0  0  0  0
   47.4568    5.2787   13.1620 H   0  0  0  0  0  0  0  0  0  0  0  0
   45.4322    6.7022   13.3253 H   0  0  0  0  0  0  0  0  0  0  0  0
   50.7989    4.9837   18.1722 H   0  0  0  0  0  0  0  0  0  0  0  0
   48.6287    7.8479   16.0104 H   0  0  0  0  0  0  0  0  0  0  0  0
   53.3722    6.3087   17.6111 H   0  0  0  0  0  0  0  0  0  0  0  0
   52.3172    6.7039   18.9693 H   0  0  0  0  0  0  0  0  0  0  0  0
   50.4639    7.9975   14.4174 H   0  0  0  0  0  0  0  0  0  0  0  0
   49.6162    6.8059   13.4320 H   0  0  0  0  0  0  0  0  0  0  0  0
   50.4622    7.2859   17.5477 H   0  0  0  0  0  0  0  0  0  0  0  0
   51.5129    7.0047   16.1463 H   0  0  0  0  0  0  0  0  0  0  0  0
   48.8933    5.5151   16.7156 H   0  0  0  0  0  0  0  0  0  0  0  0
   49.8870    5.2666   15.2929 H   0  0  0  0  0  0  0  0  0  0  0  0
   50.0469   10.2872   13.9901 H   0  0  0  0  0  0  0  0  0  0  0  0
   47.0437    7.3753   12.9414 H   0  0  0  0  0  0  0  0  0  0  0  0
   52.7001    5.5714   21.0162 H   0  0  0  0  0  0  0  0  0  0  0  0
   53.9042    3.6900   17.3269 H   0  0  0  0  0  0  0  0  0  0  0  0
   48.6867   12.0576   12.9380 H   0  0  0  0  0  0  0  0  0  0  0  0
   53.7333    3.7252   22.2863 H   0  0  0  0  0  0  0  0  0  0  0  0
   54.9382    1.8481   18.6152 H   0  0  0  0  0  0  0  0  0  0  0  0
   45.6940    9.1605   11.8860 H   0  0  0  0  0  0  0  0  0  0  0  0
   46.5121   11.5032   11.8821 H   0  0  0  0  0  0  0  0  0  0  0  0
   54.8557    1.8619   21.0949 H   0  0  0  0  0  0  0  0  0  0  0  0
   49.6164    6.2946   18.9917 H   0  0  0  0  0  0  0  0  0  0  0  0
   50.0615    8.5366   18.0165 H   0  0  0  0  0  0  0  0  0  0  0  0
   53.6311    6.0447   19.6476 H   0  0  0  0  0  0  0  0  0  0  0  0
   51.6485    7.7574   15.6900 H   0  0  0  0  0  0  0  0  0  0  0  0
   49.8672    6.3097   13.6647 H   0  0  0  0  0  0  0  0  0  0  0  0
   50.8263    7.7774   13.6720 H   0  0  0  0  0  0  0  0  0  0  0  0
   52.7740    4.1395   22.3465 H   0  0  0  0  0  0  0  0  0  0  0  0
   53.6756    2.9659   19.2479 H   0  0  0  0  0  0  0  0  0  0  0  0
   51.9159    2.8191   19.3810 H   0  0  0  0  0  0  0  0  0  0  0  0
   52.7220    2.4870   17.8469 H   0  0  0  0  0  0  0  0  0  0  0  0
   53.6827    4.2510   16.4480 H   0  0  0  0  0  0  0  0  0  0  0  0
   54.6964    4.8468   17.7630 H   0  0  0  0  0  0  0  0  0  0  0  0
   53.6317    5.9583   16.9009 H   0  0  0  0  0  0  0  0  0  0  0  0
   47.4556    6.3823   13.0219 H   0  0  0  0  0  0  0  0  0  0  0  0
   49.8487    9.9763   13.0485 H   0  0  0  0  0  0  0  0  0  0  0  0
   45.7477    7.5424   11.6700 H   0  0  0  0  0  0  0  0  0  0  0  0
   48.1247   11.1193   11.7032 H   0  0  0  0  0  0  0  0  0  0  0  0
   46.0766    9.9091   11.0028 H   0  0  0  0  0  0  0  0  0  0  0  0
   50.3829    7.1760   15.9269 H   0  0  0  0  0  0  0  0  0  0  0  0
   51.2487    6.4135   16.9270 H   0  0  0  0  0  0  0  0  0  0  0  0
   50.3803    7.1738   15.9258 H   0  0  0  0  0  0  0  0  0  0  0  0
   51.2505    6.4171   16.9270 H   0  0  0  0  0  0  0  0  0  0  0  0
   51.2492    6.4147   16.9269 H   0  0  0  0  0  0  0  0  0  0  0  0
   50.3822    7.1753   15.9267 H   0  0  0  0  0  0  0  0  0  0  0  0
  3  2  1  0
  4  2  1  0
  5  3  1  0
  6  2  1  0
  3  7  1  0
  8  6  1  0
  5  9  1  0
  6 10  1  0
 11  9  1  0
 12  4  2  0
 13 10  2  0
 14 11  2  0
 15 11  1  0
 16 10  1  0
 17  8  1  0
 18  8  1  0
 19 15  1  0
 20 19  2  0
 21 19  1  0
 22 20  1  0
 23 21  2  0
 24 23  1  0
  7  8  1  0
  4  5  1  0
 24 22  2  0
 26 32  1  0
 27 30  1  0
 28 29  1  0
 29 25  1  0
 30 26  1  0
 31 25  1  0
 32 31  1  0
 33 27  2  0
 34 27  1  0
 35 28  2  0
 36 28  1  0
 37 33  1  0
 38 35  1  0
 39 36  2  0
 40 34  2  0
 41 37  2  0
 42 39  1  0
 42 38  2  0
 40 41  1  0
 44 43  1  0
 45 43  1  0
 46 44  1  0
 47 43  1  0
 44 48  1  0
 49 47  1  0
 46 50  1  0
 47 51  1  0
 52 50  1  0
 53 45  2  0
 54 51  2  0
 55 52  2  0
 56 52  1  0
 57 51  1  0
 58 49  1  0
 59 49  1  0
 60 56  1  0
 61 60  2  0
 62 60  1  0
 63 61  1  0
 64 62  2  0
 65 64  1  0
 48 49  1  0
 45 46  1  0
 65 63  2  0
  1 69  1  0
  1 70  1  0
  3 71  1  1
  5 72  1  1
  6 73  1  6
  9 74  1  0
 15 75  1  0
 15 76  1  0
 16 77  1  0
 17 78  1  0
 17 79  1  0
 17 80  1  0
 18 81  1  0
 18 82  1  0
 18 83  1  0
 20 84  1  0
 21 85  1  0
 22 86  1  0
 23 87  1  0
 24 88  1  0
 25 89  1  0
 26 90  1  0
 29 91  1  0
 29 92  1  0
 30 93  1  0
 30 94  1  0
 31 95  1  0
 31 96  1  0
 32 97  1  0
 32 98  1  0
 33 99  1  0
 34100  1  0
 35101  1  0
 36102  1  0
 37103  1  0
 38104  1  0
 39105  1  0
 40106  1  0
 41107  1  0
 42108  1  0
 44109  1  1
 46110  1  1
 47111  1  6
 50112  1  0
 56113  1  0
 56114  1  0
 57115  1  0
 58116  1  0
 58117  1  0
 58118  1  0
 59119  1  0
 59120  1  0
 59121  1  0
 61122  1  0
 62123  1  0
 63124  1  0
 64125  1  0
 65126  1  0
 66127  1  0
 66128  1  0
 67129  1  0
 67130  1  0
 68131  1  0
 68132  1  0
M  END
> <Uni-Dock RESULT> 
ENERGY=   -6.268  LOWER_BOUND=    1.717  UPPER_BOUND=    2.610
INTER + INTRA:          -6.268
INTER:                  -6.268
INTRA:                   0.000
UNBOUND:                 0.000

$$$$

     RDKit          3D

132133  0  0  0  0  0  0  0  0999 V2000
   49.4783    8.0994   17.5585 O   0  0  0  0  0  0  0  0  0  0  0  0
   50.2514   10.5317   15.9903 N   0  0  0  0  0  0  0  0  0  0  0  0
   50.5914    9.8358   17.2470 C   0  0  1  0  0  0  0  0  0  0  0  0
   49.2272   11.2419   16.5568 C   0  0  0  0  0  0  0  0  0  0  0  0
   49.6327   10.8030   17.9809 C   0  0  1  0  0  0  0  0  0  0  0  0
   49.9750    9.7162   14.8060 C   0  0  2  0  0  0  0  0  0  0  0  0
   50.0208    8.1129   16.9453 S   0  0  0  0  0  0  0  0  0  0  0  0
   50.3900    8.2652   15.1302 C   0  0  0  0  0  0  0  0  0  0  0  0
   48.5607   10.1934   18.8137 N   0  0  0  0  0  0  0  0  0  0  0  0
   50.6253   10.2578   13.5350 C   0  0  0  0  0  0  0  0  0  0  0  0
   48.8291    9.7689   20.0974 C   0  0  0  0  0  0  0  0  0  0  0  0
   48.3013   11.8365   16.0551 O   0  0  0  0  0  0  0  0  0  0  0  0
   50.5143    9.7665   12.4209 O   0  0  0  0  0  0  0  0  0  0  0  0
   49.9197    9.9568   20.6323 O   0  0  0  0  0  0  0  0  0  0  0  0
   47.6745    9.0657   20.7870 C   0  0  0  0  0  0  0  0  0  0  0  0
   51.3860   11.3567   13.7111 O   0  0  0  0  0  0  0  0  0  0  0  0
   49.5365    7.2413   14.3772 C   0  0  0  0  0  0  0  0  0  0  0  0
   51.8827    7.9706   14.9210 C   0  0  0  0  0  0  0  0  0  0  0  0
   47.9333    7.5948   20.9913 C   0  0  0  0  0  0  0  0  0  0  0  0
   48.6303    7.1515   22.1241 C   0  0  0  0  0  0  0  0  0  0  0  0
   47.5106    6.6541   20.0422 C   0  0  0  0  0  0  0  0  0  0  0  0
   48.8831    5.7921   22.3134 C   0  0  0  0  0  0  0  0  0  0  0  0
   47.7658    5.2948   20.2330 C   0  0  0  0  0  0  0  0  0  0  0  0
   48.4487    4.8642   21.3689 C   0  0  0  0  0  0  0  0  0  0  0  0
   49.9773    8.5580   15.9290 N   0  0  0  0  0  0  0  0  0  0  0  0
   49.3721    7.0526   19.3628 N   0  0  0  0  0  0  0  0  0  0  0  0
   48.1658    7.5633   21.4292 C   0  0  0  0  0  0  0  0  0  0  0  0
   50.5790    9.8533   13.9377 C   0  0  0  0  0  0  0  0  0  0  0  0
   50.3611    9.8794   15.4322 C   0  0  0  0  0  0  0  0  0  0  0  0
   48.1833    7.6908   19.9232 C   0  0  0  0  0  0  0  0  0  0  0  0
   49.8457    8.5587   17.3878 C   0  0  0  0  0  0  0  0  0  0  0  0
   49.4378    7.1619   17.9029 C   0  0  0  0  0  0  0  0  0  0  0  0
   48.3217    8.6913   22.2475 C   0  0  0  0  0  0  0  0  0  0  0  0
   47.9974    6.3081   22.0324 C   0  0  0  0  0  0  0  0  0  0  0  0
   51.8586   10.0401   13.3952 C   0  0  0  0  0  0  0  0  0  0  0  0
   49.5001    9.6362   13.0675 C   0  0  0  0  0  0  0  0  0  0  0  0
   48.3014    8.5659   23.6384 C   0  0  0  0  0  0  0  0  0  0  0  0
   52.0516   10.0190   12.0126 C   0  0  0  0  0  0  0  0  0  0  0  0
   49.6951    9.6139   11.6860 C   0  0  0  0  0  0  0  0  0  0  0  0
   47.9785    6.1843   23.4224 C   0  0  0  0  0  0  0  0  0  0  0  0
   48.1291    7.3133   24.2249 C   0  0  0  0  0  0  0  0  0  0  0  0
   50.9703    9.8070   11.1589 C   0  0  0  0  0  0  0  0  0  0  0  0
   51.6834    9.7833   16.1409 N   0  0  0  0  0  0  0  0  0  0  0  0
   51.3132    8.5051   16.7761 C   0  0  1  0  0  0  0  0  0  0  0  0
   51.0639   10.5407   17.0921 C   0  0  0  0  0  0  0  0  0  0  0  0
   50.9091    9.3232   18.0339 C   0  0  1  0  0  0  0  0  0  0  0  0
   51.3831    9.9309   14.7224 C   0  0  2  0  0  0  0  0  0  0  0  0
   49.9522    7.8300   15.7334 S   0  0  0  0  0  0  0  0  0  0  0  0
   50.0894    9.1384   14.4283 C   0  0  0  0  0  0  0  0  0  0  0  0
   49.5504    9.1054   18.5991 N   0  0  0  0  0  0  0  0  0  0  0  0
   52.6029    9.4428   13.9456 C   0  0  0  0  0  0  0  0  0  0  0  0
   49.2367    7.9265   19.2458 C   0  0  0  0  0  0  0  0  0  0  0  0
   50.6914   11.6908   17.0769 O   0  0  0  0  0  0  0  0  0  0  0  0
   53.4099    8.5912   14.2853 O   0  0  0  0  0  0  0  0  0  0  0  0
   50.0703    7.0421   19.4139 O   0  0  0  0  0  0  0  0  0  0  0  0
   47.7798    7.8137   19.6633 C   0  0  0  0  0  0  0  0  0  0  0  0
   52.7307   10.0476   12.7435 O   0  0  0  0  0  0  0  0  0  0  0  0
   50.0528    8.4503   13.0576 C   0  0  0  0  0  0  0  0  0  0  0  0
   48.8492   10.0395   14.5521 C   0  0  0  0  0  0  0  0  0  0  0  0
   47.5902    7.2544   21.0504 C   0  0  0  0  0  0  0  0  0  0  0  0
   47.4981    5.8701   21.2514 C   0  0  0  0  0  0  0  0  0  0  0  0
   47.5210    8.1074   22.1613 C   0  0  0  0  0  0  0  0  0  0  0  0
   47.3158    5.3502   22.5334 C   0  0  0  0  0  0  0  0  0  0  0  0
   47.3389    7.5850   23.4432 C   0  0  0  0  0  0  0  0  0  0  0  0
   47.2331    6.2071   23.6292 C   0  0  0  0  0  0  0  0  0  0  0  0
   49.4779    8.0993   17.5600 O   0  0  0  0  0  0  0  0  0  0  0  0
   49.4784    8.0994   17.5580 O   0  0  0  0  0  0  0  0  0  0  0  0
   49.4781    8.0994   17.5594 O   0  0  0  0  0  0  0  0  0  0  0  0
   49.7470    8.8719   17.0387 H   0  0  0  0  0  0  0  0  0  0  0  0
   49.3374    8.4541   18.4491 H   0  0  0  0  0  0  0  0  0  0  0  0
   51.6488    9.9332   17.5107 H   0  0  0  0  0  0  0  0  0  0  0  0
   50.1396   11.6152   18.5183 H   0  0  0  0  0  0  0  0  0  0  0  0
   48.8915    9.7641   14.6201 H   0  0  0  0  0  0  0  0  0  0  0  0
   47.6939    9.9045   18.3733 H   0  0  0  0  0  0  0  0  0  0  0  0
   46.7458    9.2039   20.2195 H   0  0  0  0  0  0  0  0  0  0  0  0
   47.5058    9.5613   21.7519 H   0  0  0  0  0  0  0  0  0  0  0  0
   51.6935   11.5938   12.8112 H   0  0  0  0  0  0  0  0  0  0  0  0
   49.7130    7.3041   13.2984 H   0  0  0  0  0  0  0  0  0  0  0  0
   49.7727    6.2150   14.6838 H   0  0  0  0  0  0  0  0  0  0  0  0
   48.4645    7.4040   14.5430 H   0  0  0  0  0  0  0  0  0  0  0  0
   52.1492    6.9733   15.2921 H   0  0  0  0  0  0  0  0  0  0  0  0
   52.5254    8.7016   15.4255 H   0  0  0  0  0  0  0  0  0  0  0  0
   52.1422    7.9899   13.8565 H   0  0  0  0  0  0  0  0  0  0  0  0
   48.9892    7.8663   22.8625 H   0  0  0  0  0  0  0  0  0  0  0  0
   46.9832    6.9696   19.1459 H   0  0  0  0  0  0  0  0  0  0  0  0
   49.4256    5.4593   23.1948 H   0  0  0  0  0  0  0  0  0  0  0  0
   47.4360    4.5709   19.4921 H   0  0  0  0  0  0  0  0  0  0  0  0
   48.6505    3.8061   21.5150 H   0  0  0  0  0  0  0  0  0  0  0  0
   50.6880    7.8838   15.6440 H   0  0  0  0  0  0  0  0  0  0  0  0
   50.2030    7.4594   19.7880 H   0  0  0  0  0  0  0  0  0  0  0  0
   49.5781   10.6151   15.6547 H   0  0  0  0  0  0  0  0  0  0  0  0
   51.2764   10.2229   15.9304 H   0  0  0  0  0  0  0  0  0  0  0  0
   48.1442    8.7522   19.6526 H   0  0  0  0  0  0  0  0  0  0  0  0
   47.2727    7.2243   19.5285 H   0  0  0  0  0  0  0  0  0  0  0  0
   50.7982    8.8478   17.8491 H   0  0  0  0  0  0  0  0  0  0  0  0
   49.0899    9.2956   17.6814 H   0  0  0  0  0  0  0  0  0  0  0  0
   50.1842    6.4333   17.5618 H   0  0  0  0  0  0  0  0  0  0  0  0
   48.4850    6.8511   17.4556 H   0  0  0  0  0  0  0  0  0  0  0  0
   48.4580    9.6770   21.8080 H   0  0  0  0  0  0  0  0  0  0  0  0
   47.8884    5.4205   21.4127 H   0  0  0  0  0  0  0  0  0  0  0  0
   52.7140   10.2052   14.0458 H   0  0  0  0  0  0  0  0  0  0  0  0
   48.5023    9.4757   13.4717 H   0  0  0  0  0  0  0  0  0  0  0  0
   48.4212    9.4460   24.2649 H   0  0  0  0  0  0  0  0  0  0  0  0
   53.0463   10.1667   11.6009 H   0  0  0  0  0  0  0  0  0  0  0  0
   48.8518    9.4432   11.0226 H   0  0  0  0  0  0  0  0  0  0  0  0
   47.8485    5.2059   23.8774 H   0  0  0  0  0  0  0  0  0  0  0  0
   48.1145    7.2165   25.3072 H   0  0  0  0  0  0  0  0  0  0  0  0
   51.1219    9.7889   10.0828 H   0  0  0  0  0  0  0  0  0  0  0  0
   52.1658    7.8328   16.9097 H   0  0  0  0  0  0  0  0  0  0  0  0
   51.6650    9.3291   18.8296 H   0  0  0  0  0  0  0  0  0  0  0  0
   51.2593   11.0002   14.5105 H   0  0  0  0  0  0  0  0  0  0  0  0
   48.8103    9.7660   18.3841 H   0  0  0  0  0  0  0  0  0  0  0  0
   47.2736    7.1749   18.9277 H   0  0  0  0  0  0  0  0  0  0  0  0
   47.2890    8.7927   19.6036 H   0  0  0  0  0  0  0  0  0  0  0  0
   53.5439    9.6508   12.3637 H   0  0  0  0  0  0  0  0  0  0  0  0
   50.1434    9.1861   12.2512 H   0  0  0  0  0  0  0  0  0  0  0  0
   50.8586    7.7176   12.9353 H   0  0  0  0  0  0  0  0  0  0  0  0
   49.1060    7.9191   12.8993 H   0  0  0  0  0  0  0  0  0  0  0  0
   47.9234    9.4809   14.3667 H   0  0  0  0  0  0  0  0  0  0  0  0
   48.8898   10.8497   13.8149 H   0  0  0  0  0  0  0  0  0  0  0  0
   48.7603   10.5036   15.5399 H   0  0  0  0  0  0  0  0  0  0  0  0
   47.5750    5.1869   20.4080 H   0  0  0  0  0  0  0  0  0  0  0  0
   47.6048    9.1852   22.0379 H   0  0  0  0  0  0  0  0  0  0  0  0
   47.2458    4.2757   22.6778 H   0  0  0  0  0  0  0  0  0  0  0  0
   47.2832    8.2524   24.2994 H   0  0  0  0  0  0  0  0  0  0  0  0
   47.0944    5.8016   24.6279 H   0  0  0  0  0  0  0  0  0  0  0  0
   49.3379    8.4570   18.4493 H   0  0  0  0  0  0  0  0  0  0  0  0
   49.7469    8.8691   17.0371 H   0  0  0  0  0  0  0  0  0  0  0  0
   49.3372    8.4535   18.4492 H   0  0  0  0  0  0  0  0  0  0  0  0
   49.7471    8.8726   17.0390 H   0  0  0  0  0  0  0  0  0  0  0  0
   49.7469    8.8701   17.0378 H   0  0  0  0  0  0  0  0  0  0  0  0
   49.3377    8.4560   18.4491 H   0  0  0  0  0  0  0  0  0  0  0  0
  3  2  1  0
  4  2  1  0
  5  3  1  0
  6  2  1  0
  3  7  1  0
  8  6  1  0
  5  9  1  0
  6 10  1  0
 11  9  1  0
 12  4  2  0
 13 10  2  0
 14 11  2  0
 15 11  1  0
 16 10  1  0
 17  8  1  0
 18  8  1  0
 19 15  1  0
 20 19  2  0
 21 19  1  0
 22 20  1  0
 23 21  2  0
 24 23  1  0
  7  8  1  0
  4  5  1  0
 24 22  2  0
 26 32  1  0
 27 30  1  0
 28 29  1  0
 29 25  1  0
 30 26  1  0
 31 25  1  0
 32 31  1  0
 33 27  2  0
 34 27  1  0
 35 28  2  0
 36 28  1  0
 37 33  1  0
 38 35  1  0
 39 36  2  0
 40 34  2  0
 41 37  2  0
 42 39  1  0
 42 38  2  0
 40 41  1  0
 44 43  1  0
 45 43  1  0
 46 44  1  0
 47 43  1  0
 44 48  1  0
 49 47  1  0
 46 50  1  0
 47 51  1  0
 52 50  1  0
 53 45  2  0
 54 51  2  0
 55 52  2  0
 56 52  1  0
 57 51  1  0
 58 49  1  0
 59 49  1  0
 60 56  1  0
 61 60  2  0
 62 60  1  0
 63 61  1  0
 64 62  2  0
 65 64  1  0
 48 49  1  0
 45 46  1  0
 65 63  2  0
  1 69  1  0
  1 70  1  0
  3 71  1  1
  5 72  1  1
  6 73  1  6
  9 74  1  0
 15 75  1  0
 15 76  1  0
 16 77  1  0
 17 78  1  0
 17 79  1  0
 17 80  1  0
 18 81  1  0
 18 82  1  0
 18 83  1  0
 20 84  1  0
 21 85  1  0
 22 86  1  0
 23 87  1  0
 24 88  1  0
 25 89  1  0
 26 90  1  0
 29 91  1  0
 29 92  1  0
 30 93  1  0
 30 94  1  0
 31 95  1  0
 31 96  1  0
 32 97  1  0
 32 98  1  0
 33 99  1  0
 34100  1  0
 35101  1  0
 36102  1  0
 37103  1  0
 38104  1  0
 39105  1  0
 40106  1  0
 41107  1  0
 42108  1  0
 44109  1  1
 46110  1  1
 47111  1  6
 50112  1  0
 56113  1  0
 56114  1  0
 57115  1  0
 58116  1  0
 58117  1  0
 58118  1  0
 59119  1  0
 59120  1  0
 59121  1  0
 61122  1  0
 62123  1  0
 63124  1  0
 64125  1  0
 65126  1  0
 66127  1  0
 66128  1  0
 67129  1  0
 67130  1  0
 68131  1  0
 68132  1  0
M  END
> <Uni-Dock RESULT> 
ENERGY=   -6.046  LOWER_BOUND=    3.674  UPPER_BOUND=    7.553
INTER + INTRA:          -6.046
INTER:                  -6.046
INTRA:                   0.000
UNBOUND:                 0.000

$$$$

     RDKit          3D

132133  0  0  0  0  0  0  0  0999 V2000
   48.9808    7.7325   17.6643 O   0  0  0  0  0  0  0  0  0  0  0  0
   50.1148    8.0194   20.4220 N   0  0  0  0  0  0  0  0  0  0  0  0
   49.8827    8.8166   19.2013 C   0  0  1  0  0  0  0  0  0  0  0  0
   51.3252    7.5472   19.9904 C   0  0  0  0  0  0  0  0  0  0  0  0
   51.3473    8.5262   18.7962 C   0  0  1  0  0  0  0  0  0  0  0  0
   49.0842    7.0595   20.8224 C   0  0  2  0  0  0  0  0  0  0  0  0
   48.5456    7.8923   18.3394 S   0  0  0  0  0  0  0  0  0  0  0  0
   47.8323    7.3310   19.9612 C   0  0  0  0  0  0  0  0  0  0  0  0
   51.5732    7.9247   17.4540 N   0  0  0  0  0  0  0  0  0  0  0  0
   48.7967    7.0729   22.3220 C   0  0  0  0  0  0  0  0  0  0  0  0
   51.6067    8.7196   16.3284 C   0  0  0  0  0  0  0  0  0  0  0  0
   51.9902    6.6091   20.3649 O   0  0  0  0  0  0  0  0  0  0  0  0
   48.0004    6.3430   22.8946 O   0  0  0  0  0  0  0  0  0  0  0  0
   51.5457    9.9456   16.3932 O   0  0  0  0  0  0  0  0  0  0  0  0
   51.7313    7.9609   15.0200 C   0  0  0  0  0  0  0  0  0  0  0  0
   49.4891    7.9923   23.0240 O   0  0  0  0  0  0  0  0  0  0  0  0
   47.0172    6.0587   19.7147 C   0  0  0  0  0  0  0  0  0  0  0  0
   46.9252    8.4492   20.4954 C   0  0  0  0  0  0  0  0  0  0  0  0
   50.4775    8.0365   14.1868 C   0  0  0  0  0  0  0  0  0  0  0  0
   50.2706    9.1184   13.3195 C   0  0  0  0  0  0  0  0  0  0  0  0
   49.4892    7.0477   14.2876 C   0  0  0  0  0  0  0  0  0  0  0  0
   49.1066    9.2002   12.5539 C   0  0  0  0  0  0  0  0  0  0  0  0
   48.3250    7.1323   13.5218 C   0  0  0  0  0  0  0  0  0  0  0  0
   48.1354    8.2059   12.6536 C   0  0  0  0  0  0  0  0  0  0  0  0
   48.5448    7.4251   19.3467 N   0  0  0  0  0  0  0  0  0  0  0  0
   48.8386    8.3626   15.6781 N   0  0  0  0  0  0  0  0  0  0  0  0
   50.5289    8.4467   13.9114 C   0  0  0  0  0  0  0  0  0  0  0  0
   48.6307    7.1658   21.7819 C   0  0  0  0  0  0  0  0  0  0  0  0
   49.3115    7.7266   20.5557 C   0  0  0  0  0  0  0  0  0  0  0  0
   50.0503    7.7352   15.1559 C   0  0  0  0  0  0  0  0  0  0  0  0
   49.1570    8.0375   18.1654 C   0  0  0  0  0  0  0  0  0  0  0  0
   48.3437    7.7120   16.8944 C   0  0  0  0  0  0  0  0  0  0  0  0
   51.7275    9.1747   13.9160 C   0  0  0  0  0  0  0  0  0  0  0  0
   49.7749    8.3926   12.7297 C   0  0  0  0  0  0  0  0  0  0  0  0
   48.0815    8.0175   22.7511 C   0  0  0  0  0  0  0  0  0  0  0  0
   48.5338    5.7784   21.9670 C   0  0  0  0  0  0  0  0  0  0  0  0
   52.1647    9.8269   12.7610 C   0  0  0  0  0  0  0  0  0  0  0  0
   47.4576    7.4919   23.8841 C   0  0  0  0  0  0  0  0  0  0  0  0
   47.9086    5.2548   23.0993 C   0  0  0  0  0  0  0  0  0  0  0  0
   50.2126    9.0460   11.5767 C   0  0  0  0  0  0  0  0  0  0  0  0
   51.4079    9.7617   11.5923 C   0  0  0  0  0  0  0  0  0  0  0  0
   47.3723    6.1115   24.0583 C   0  0  0  0  0  0  0  0  0  0  0  0
   48.9894    9.1886   20.4188 N   0  0  0  0  0  0  0  0  0  0  0  0
   48.3069    8.9747   19.1294 C   0  0  1  0  0  0  0  0  0  0  0  0
   50.2299    9.2600   19.8547 C   0  0  0  0  0  0  0  0  0  0  0  0
   49.6323    9.3921   18.4339 C   0  0  1  0  0  0  0  0  0  0  0  0
   48.6847    8.2532   21.4942 C   0  0  2  0  0  0  0  0  0  0  0  0
   47.8697    7.1848   19.1114 S   0  0  0  0  0  0  0  0  0  0  0  0
   48.4107    6.8726   20.8560 C   0  0  0  0  0  0  0  0  0  0  0  0
   50.1950    8.4789   17.4030 N   0  0  0  0  0  0  0  0  0  0  0  0
   47.5035    8.8247   22.2737 C   0  0  0  0  0  0  0  0  0  0  0  0
   49.5781    8.3355   16.1761 C   0  0  0  0  0  0  0  0  0  0  0  0
   51.3320    9.1277   20.3338 O   0  0  0  0  0  0  0  0  0  0  0  0
   46.6072    9.5382   21.8499 O   0  0  0  0  0  0  0  0  0  0  0  0
   48.5781    8.9809   15.8782 O   0  0  0  0  0  0  0  0  0  0  0  0
   50.2102    7.2830   15.2804 C   0  0  0  0  0  0  0  0  0  0  0  0
   47.4985    8.4380   23.5688 O   0  0  0  0  0  0  0  0  0  0  0  0
   47.3220    6.0457   21.5522 C   0  0  0  0  0  0  0  0  0  0  0  0
   49.6949    6.0287   20.7924 C   0  0  0  0  0  0  0  0  0  0  0  0
   50.3484    7.7166   13.8431 C   0  0  0  0  0  0  0  0  0  0  0  0
   49.3020    7.5062   12.9342 C   0  0  0  0  0  0  0  0  0  0  0  0
   51.5164    8.3521   13.3978 C   0  0  0  0  0  0  0  0  0  0  0  0
   49.4301    7.9005   11.6018 C   0  0  0  0  0  0  0  0  0  0  0  0
   51.6423    8.7460   12.0643 C   0  0  0  0  0  0  0  0  0  0  0  0
   50.6009    8.5177   11.1656 C   0  0  0  0  0  0  0  0  0  0  0  0
   48.9814    7.7329   17.6630 O   0  0  0  0  0  0  0  0  0  0  0  0
   48.9805    7.7323   17.6648 O   0  0  0  0  0  0  0  0  0  0  0  0
   48.9811    7.7327   17.6635 O   0  0  0  0  0  0  0  0  0  0  0  0
   49.3235    7.8325   18.5653 H   0  0  0  0  0  0  0  0  0  0  0  0
   49.6748    8.1140   17.1061 H   0  0  0  0  0  0  0  0  0  0  0  0
   49.6548    9.8644   19.4184 H   0  0  0  0  0  0  0  0  0  0  0  0
   52.0369    9.3608   18.9786 H   0  0  0  0  0  0  0  0  0  0  0  0
   49.4739    6.0524   20.6112 H   0  0  0  0  0  0  0  0  0  0  0  0
   51.4989    6.9194   17.3418 H   0  0  0  0  0  0  0  0  0  0  0  0
   51.9899    6.9112   15.2072 H   0  0  0  0  0  0  0  0  0  0  0  0
   52.5827    8.3793   14.4674 H   0  0  0  0  0  0  0  0  0  0  0  0
   49.2225    7.8470   23.9558 H   0  0  0  0  0  0  0  0  0  0  0  0
   46.5867    5.6839   20.6490 H   0  0  0  0  0  0  0  0  0  0  0  0
   46.1836    6.2403   19.0251 H   0  0  0  0  0  0  0  0  0  0  0  0
   47.6337    5.2553   19.2934 H   0  0  0  0  0  0  0  0  0  0  0  0
   46.1290    8.6935   19.7815 H   0  0  0  0  0  0  0  0  0  0  0  0
   47.4814    9.3694   20.7089 H   0  0  0  0  0  0  0  0  0  0  0  0
   46.4315    8.1449   21.4253 H   0  0  0  0  0  0  0  0  0  0  0  0
   51.0134    9.9104   13.2427 H   0  0  0  0  0  0  0  0  0  0  0  0
   49.6140    6.2064   14.9640 H   0  0  0  0  0  0  0  0  0  0  0  0
   48.9557   10.0442   11.8854 H   0  0  0  0  0  0  0  0  0  0  0  0
   47.5622    6.3624   13.6059 H   0  0  0  0  0  0  0  0  0  0  0  0
   47.2270    8.2732   12.0605 H   0  0  0  0  0  0  0  0  0  0  0  0
   47.5945    7.7761   19.4675 H   0  0  0  0  0  0  0  0  0  0  0  0
   49.0198    9.3495   15.8509 H   0  0  0  0  0  0  0  0  0  0  0  0
   50.3174    7.2933   20.4900 H   0  0  0  0  0  0  0  0  0  0  0  0
   49.4348    8.8110   20.6683 H   0  0  0  0  0  0  0  0  0  0  0  0
   50.8505    7.7452   15.9050 H   0  0  0  0  0  0  0  0  0  0  0  0
   49.8618    6.6856   14.9004 H   0  0  0  0  0  0  0  0  0  0  0  0
   49.2062    9.1262   18.2914 H   0  0  0  0  0  0  0  0  0  0  0  0
   50.1807    7.6629   18.0544 H   0  0  0  0  0  0  0  0  0  0  0  0
   47.3123    8.0564   17.0433 H   0  0  0  0  0  0  0  0  0  0  0  0
   48.2817    6.6263   16.7459 H   0  0  0  0  0  0  0  0  0  0  0  0
   52.3311    9.2375   14.8187 H   0  0  0  0  0  0  0  0  0  0  0  0
   48.8358    7.8435   12.7120 H   0  0  0  0  0  0  0  0  0  0  0  0
   48.1373    9.0967   22.6313 H   0  0  0  0  0  0  0  0  0  0  0  0
   48.9424    5.1023   21.2182 H   0  0  0  0  0  0  0  0  0  0  0  0
   53.0959   10.3874   12.7732 H   0  0  0  0  0  0  0  0  0  0  0  0
   47.0366    8.1594   24.6311 H   0  0  0  0  0  0  0  0  0  0  0  0
   47.8384    4.1786   23.2304 H   0  0  0  0  0  0  0  0  0  0  0  0
   49.6186    8.9974   10.6679 H   0  0  0  0  0  0  0  0  0  0  0  0
   51.7484   10.2705   10.6944 H   0  0  0  0  0  0  0  0  0  0  0  0
   46.8847    5.7033   24.9397 H   0  0  0  0  0  0  0  0  0  0  0  0
   47.4639    9.6547   18.9754 H   0  0  0  0  0  0  0  0  0  0  0  0
   49.6493   10.4319   18.0833 H   0  0  0  0  0  0  0  0  0  0  0  0
   49.5469    8.2216   22.1718 H   0  0  0  0  0  0  0  0  0  0  0  0
   50.9532    7.8524   17.6539 H   0  0  0  0  0  0  0  0  0  0  0  0
   49.5892    6.3797   15.3427 H   0  0  0  0  0  0  0  0  0  0  0  0
   51.1978    6.9993   15.6636 H   0  0  0  0  0  0  0  0  0  0  0  0
   46.7043    8.8756   23.9439 H   0  0  0  0  0  0  0  0  0  0  0  0
   47.5932    5.8456   22.5944 H   0  0  0  0  0  0  0  0  0  0  0  0
   46.3483    6.5487   21.5495 H   0  0  0  0  0  0  0  0  0  0  0  0
   47.1843    5.0718   21.0662 H   0  0  0  0  0  0  0  0  0  0  0  0
   49.5156    5.0546   20.3208 H   0  0  0  0  0  0  0  0  0  0  0  0
   50.0745    5.8328   21.8020 H   0  0  0  0  0  0  0  0  0  0  0  0
   50.4976    6.5211   20.2338 H   0  0  0  0  0  0  0  0  0  0  0  0
   48.3760    7.0386   13.2623 H   0  0  0  0  0  0  0  0  0  0  0  0
   52.3391    8.5426   14.0840 H   0  0  0  0  0  0  0  0  0  0  0  0
   48.6129    7.7327   10.9059 H   0  0  0  0  0  0  0  0  0  0  0  0
   52.5517    9.2354   11.7254 H   0  0  0  0  0  0  0  0  0  0  0  0
   50.6989    8.8275   10.1285 H   0  0  0  0  0  0  0  0  0  0  0  0
   49.6770    8.1150   17.1077 H   0  0  0  0  0  0  0  0  0  0  0  0
   49.3206    7.8311   18.5650 H   0  0  0  0  0  0  0  0  0  0  0  0
   49.6743    8.1138   17.1056 H   0  0  0  0  0  0  0  0  0  0  0  0
   49.3242    7.8329   18.5654 H   0  0  0  0  0  0  0  0  0  0  0  0
   49.3218    7.8317   18.5650 H   0  0  0  0  0  0  0  0  0  0  0  0
   49.6762    8.1146   17.1072 H   0  0  0  0  0  0  0  0  0  0  0  0
  3  2  1  0
  4  2  1  0
  5  3  1  0
  6  2  1  0
  3  7  1  0
  8  6  1  0
  5  9  1  0
  6 10  1  0
 11  9  1  0
 12  4  2  0
 13 10  2  0
 14 11  2  0
 15 11  1  0
 16 10  1  0
 17  8  1  0
 18  8  1  0
 19 15  1  0
 20 19  2  0
 21 19  1  0
 22 20  1  0
 23 21  2  0
 24 23  1  0
  7  8  1  0
  4  5  1  0
 24 22  2  0
 26 32  1  0
 27 30  1  0
 28 29  1  0
 29 25  1  0
 30 26  1  0
 31 25  1  0
 32 31  1  0
 33 27  2  0
 34 27  1  0
 35 28  2  0
 36 28  1  0
 37 33  1  0
 38 35  1  0
 39 36  2  0
 40 34  2  0
 41 37  2  0
 42 39  1  0
 42 38  2  0
 40 41  1  0
 44 43  1  0
 45 43  1  0
 46 44  1  0
 47 43  1  0
 44 48  1  0
 49 47  1  0
 46 50  1  0
 47 51  1  0
 52 50  1  0
 53 45  2  0
 54 51  2  0
 55 52  2  0
 56 52  1  0
 57 51  1  0
 58 49  1  0
 59 49  1  0
 60 56  1  0
 61 60  2  0
 62 60  1  0
 63 61  1  0
 64 62  2  0
 65 64  1  0
 48 49  1  0
 45 46  1  0
 65 63  2  0
  1 69  1  0
  1 70  1  0
  3 71  1  1
  5 72  1  1
  6 73  1  6
  9 74  1  0
 15 75  1  0
 15 76  1  0
 16 77  1  0
 17 78  1  0
 17 79  1  0
 17 80  1  0
 18 81  1  0
 18 82  1  0
 18 83  1  0
 20 84  1  0
 21 85  1  0
 22 86  1  0
 23 87  1  0
 24 88  1  0
 25 89  1  0
 26 90  1  0
 29 91  1  0
 29 92  1  0
 30 93  1  0
 30 94  1  0
 31 95  1  0
 31 96  1  0
 32 97  1  0
 32 98  1  0
 33 99  1  0
 34100  1  0
 35101  1  0
 36102  1  0
 37103  1  0
 38104  1  0
 39105  1  0
 40106  1  0
 41107  1  0
 42108  1  0
 44109  1  1
 46110  1  1
 47111  1  6
 50112  1  0
 56113  1  0
 56114  1  0
 57115  1  0
 58116  1  0
 58117  1  0
 58118  1  0
 59119  1  0
 59120  1  0
 59121  1  0
 61122  1  0
 62123  1  0
 63124  1  0
 64125  1  0
 65126  1  0
 66127  1  0
 66128  1  0
 67129  1  0
 67130  1  0
 68131  1  0
 68132  1  0
M  END
> <Uni-Dock RESULT> 
ENERGY=   -5.868  LOWER_BOUND=    2.967  UPPER_BOUND=    4.740
INTER + INTRA:          -5.868
INTER:                  -5.868
INTRA:                   0.000
UNBOUND:                 0.000

$$$$
