
     RDKit          3D

132133  0  0  0  0  0  0  0  0999 V2000
   50.5491    7.1065   17.1047 O   0  0  0  0  0  0  0  0  0  0  0  0
   50.9664    4.6533   18.7989 N   0  0  0  0  0  0  0  0  0  0  0  0
   51.3326    5.4624   17.6231 C   0  0  1  0  0  0  0  0  0  0  0  0
   49.6252    4.8381   18.6221 C   0  0  0  0  0  0  0  0  0  0  0  0
   49.8398    5.3925   17.1940 C   0  0  1  0  0  0  0  0  0  0  0  0
   51.6296    4.9698   20.0564 C   0  0  2  0  0  0  0  0  0  0  0  0
   51.9317    7.0626   18.3146 S   0  0  0  0  0  0  0  0  0  0  0  0
   51.9093    6.4903   20.0782 C   0  0  0  0  0  0  0  0  0  0  0  0
   49.1547    6.6734   16.8741 N   0  0  0  0  0  0  0  0  0  0  0  0
   52.8887    4.1106   20.1373 C   0  0  0  0  0  0  0  0  0  0  0  0
   49.4707    7.3651   15.7213 C   0  0  0  0  0  0  0  0  0  0  0  0
   48.6961    4.7094   19.3856 O   0  0  0  0  0  0  0  0  0  0  0  0
   53.6050    3.7529   19.2168 O   0  0  0  0  0  0  0  0  0  0  0  0
   50.2630    6.9148   14.8982 O   0  0  0  0  0  0  0  0  0  0  0  0
   48.7970    8.7215   15.6028 C   0  0  0  0  0  0  0  0  0  0  0  0
   53.2097    3.7819   21.4090 O   0  0  0  0  0  0  0  0  0  0  0  0
   53.2419    6.8939   20.7224 C   0  0  0  0  0  0  0  0  0  0  0  0
   50.7751    7.2471   20.7895 C   0  0  0  0  0  0  0  0  0  0  0  0
   48.2815    9.0220   14.2176 C   0  0  0  0  0  0  0  0  0  0  0  0
   46.9843    8.6451   13.8416 C   0  0  0  0  0  0  0  0  0  0  0  0
   49.1009    9.6662   13.2804 C   0  0  0  0  0  0  0  0  0  0  0  0
   46.5110    8.9267   12.5591 C   0  0  0  0  0  0  0  0  0  0  0  0
   48.6241    9.9468   11.9985 C   0  0  0  0  0  0  0  0  0  0  0  0
   47.3288    9.5798   11.6392 C   0  0  0  0  0  0  0  0  0  0  0  0
   49.4423    6.6628   19.0086 N   0  0  0  0  0  0  0  0  0  0  0  0
   48.4943    6.6934   16.2729 N   0  0  0  0  0  0  0  0  0  0  0  0
   48.5063    7.4690   13.9060 C   0  0  0  0  0  0  0  0  0  0  0  0
   51.1780    6.3427   20.7651 C   0  0  0  0  0  0  0  0  0  0  0  0
   49.8793    7.0011   20.3593 C   0  0  0  0  0  0  0  0  0  0  0  0
   48.1786    6.3660   14.8867 C   0  0  0  0  0  0  0  0  0  0  0  0
   50.2579    7.2823   17.9606 C   0  0  0  0  0  0  0  0  0  0  0  0
   49.9332    6.7351   16.5477 C   0  0  0  0  0  0  0  0  0  0  0  0
   47.7648    8.6601   13.8953 C   0  0  0  0  0  0  0  0  0  0  0  0
   49.5637    7.3202   12.9964 C   0  0  0  0  0  0  0  0  0  0  0  0
   52.3455    7.1053   20.9185 C   0  0  0  0  0  0  0  0  0  0  0  0
   51.2397    4.9586   20.9897 C   0  0  0  0  0  0  0  0  0  0  0  0
   48.0783    9.6806   12.9958 C   0  0  0  0  0  0  0  0  0  0  0  0
   53.5477    6.4977   21.2849 C   0  0  0  0  0  0  0  0  0  0  0  0
   52.4435    4.3523   21.3561 C   0  0  0  0  0  0  0  0  0  0  0  0
   49.8743    8.3420   12.0979 C   0  0  0  0  0  0  0  0  0  0  0  0
   49.1327    9.5215   12.0977 C   0  0  0  0  0  0  0  0  0  0  0  0
   53.5966    5.1218   21.5021 C   0  0  0  0  0  0  0  0  0  0  0  0
   49.2193    9.2959   15.7632 N   0  0  0  0  0  0  0  0  0  0  0  0
   50.3897    8.4590   16.0946 C   0  0  1  0  0  0  0  0  0  0  0  0
   48.7222    9.2573   17.0397 C   0  0  0  0  0  0  0  0  0  0  0  0
   50.0153    8.6196   17.5882 C   0  0  1  0  0  0  0  0  0  0  0  0
   48.3615    8.8683   14.6559 C   0  0  2  0  0  0  0  0  0  0  0  0
   50.0133    6.8598   15.2633 S   0  0  0  0  0  0  0  0  0  0  0  0
   49.0982    7.7418   13.9034 C   0  0  0  0  0  0  0  0  0  0  0  0
   49.8529    7.3757   18.3887 N   0  0  0  0  0  0  0  0  0  0  0  0
   47.9298   10.0179   13.7499 C   0  0  0  0  0  0  0  0  0  0  0  0
   50.9616    6.6679   18.8093 C   0  0  0  0  0  0  0  0  0  0  0  0
   47.6197    9.5066   17.4720 O   0  0  0  0  0  0  0  0  0  0  0  0
   47.2017    9.9156   12.7726 O   0  0  0  0  0  0  0  0  0  0  0  0
   52.1007    7.0701   18.5831 O   0  0  0  0  0  0  0  0  0  0  0  0
   50.6433    5.3583   19.5111 C   0  0  0  0  0  0  0  0  0  0  0  0
   48.4226   11.2261   14.0916 O   0  0  0  0  0  0  0  0  0  0  0  0
   50.1299    8.2317   12.8781 C   0  0  0  0  0  0  0  0  0  0  0  0
   48.1292    6.7534   13.2502 C   0  0  0  0  0  0  0  0  0  0  0  0
   51.5051    5.0896   20.7195 C   0  0  0  0  0  0  0  0  0  0  0  0
   52.8097    4.5984   20.5646 C   0  0  0  0  0  0  0  0  0  0  0  0
   51.0223    5.3349   22.0137 C   0  0  0  0  0  0  0  0  0  0  0  0
   53.6088    4.3429   21.6802 C   0  0  0  0  0  0  0  0  0  0  0  0
   51.8233    5.0758   23.1279 C   0  0  0  0  0  0  0  0  0  0  0  0
   53.1143    4.5771   22.9614 C   0  0  0  0  0  0  0  0  0  0  0  0
   50.5490    7.1065   17.1046 O   0  0  0  0  0  0  0  0  0  0  0  0
   50.5471    7.1082   17.1004 O   0  0  0  0  0  0  0  0  0  0  0  0
   50.5469    7.1084   17.1000 O   0  0  0  0  0  0  0  0  0  0  0  0
   50.2669    6.7583   17.9639 H   0  0  0  0  0  0  0  0  0  0  0  0
   49.7170    7.2802   16.6400 H   0  0  0  0  0  0  0  0  0  0  0  0
   52.0364    4.9572   16.9558 H   0  0  0  0  0  0  0  0  0  0  0  0
   49.6286    4.6345   16.4282 H   0  0  0  0  0  0  0  0  0  0  0  0
   50.9656    4.6689   20.8767 H   0  0  0  0  0  0  0  0  0  0  0  0
   48.5963    7.1311   17.5882 H   0  0  0  0  0  0  0  0  0  0  0  0
   49.5256    9.4822   15.9083 H   0  0  0  0  0  0  0  0  0  0  0  0
   47.9669    8.7980   16.3157 H   0  0  0  0  0  0  0  0  0  0  0  0
   54.0158    3.2303   21.3121 H   0  0  0  0  0  0  0  0  0  0  0  0
   53.3726    7.9838   20.7322 H   0  0  0  0  0  0  0  0  0  0  0  0
   54.1056    6.4694   20.1985 H   0  0  0  0  0  0  0  0  0  0  0  0
   53.2842    6.5578   21.7647 H   0  0  0  0  0  0  0  0  0  0  0  0
   50.7156    6.9416   21.8424 H   0  0  0  0  0  0  0  0  0  0  0  0
   49.7961    7.0579   20.3404 H   0  0  0  0  0  0  0  0  0  0  0  0
   50.9394    8.3302   20.7785 H   0  0  0  0  0  0  0  0  0  0  0  0
   46.3326    8.1308   14.5433 H   0  0  0  0  0  0  0  0  0  0  0  0
   50.1193    9.9468   13.5411 H   0  0  0  0  0  0  0  0  0  0  0  0
   45.5032    8.6331   12.2750 H   0  0  0  0  0  0  0  0  0  0  0  0
   49.2675   10.4462   11.2784 H   0  0  0  0  0  0  0  0  0  0  0  0
   46.9605    9.7966   10.6399 H   0  0  0  0  0  0  0  0  0  0  0  0
   49.4285    5.6536   18.8760 H   0  0  0  0  0  0  0  0  0  0  0  0
   48.0713    7.5812   16.5370 H   0  0  0  0  0  0  0  0  0  0  0  0
   49.1034    6.6801   21.0645 H   0  0  0  0  0  0  0  0  0  0  0  0
   49.9433    8.0900   20.4763 H   0  0  0  0  0  0  0  0  0  0  0  0
   48.6704    5.4296   14.5961 H   0  0  0  0  0  0  0  0  0  0  0  0
   47.1030    6.1608   14.8147 H   0  0  0  0  0  0  0  0  0  0  0  0
   51.3267    7.1189   18.1333 H   0  0  0  0  0  0  0  0  0  0  0  0
   50.0810    8.3651   17.9687 H   0  0  0  0  0  0  0  0  0  0  0  0
   50.3396    5.7204   16.4613 H   0  0  0  0  0  0  0  0  0  0  0  0
   50.4611    7.3685   15.8253 H   0  0  0  0  0  0  0  0  0  0  0  0
   46.9380    8.7964   14.5884 H   0  0  0  0  0  0  0  0  0  0  0  0
   50.1544    6.4070   12.9869 H   0  0  0  0  0  0  0  0  0  0  0  0
   52.3237    8.1798   20.7491 H   0  0  0  0  0  0  0  0  0  0  0  0
   50.3466    4.3470   20.8831 H   0  0  0  0  0  0  0  0  0  0  0  0
   47.4981   10.6009   12.9949 H   0  0  0  0  0  0  0  0  0  0  0  0
   54.4464    7.0986   21.4012 H   0  0  0  0  0  0  0  0  0  0  0  0
   52.4802    3.2800   21.5289 H   0  0  0  0  0  0  0  0  0  0  0  0
   50.6955    8.2176   11.3971 H   0  0  0  0  0  0  0  0  0  0  0  0
   49.3755   10.3173   11.3987 H   0  0  0  0  0  0  0  0  0  0  0  0
   54.5329    4.6494   21.7871 H   0  0  0  0  0  0  0  0  0  0  0  0
   51.3354    8.9221   15.7972 H   0  0  0  0  0  0  0  0  0  0  0  0
   50.6263    9.3559   18.1274 H   0  0  0  0  0  0  0  0  0  0  0  0
   47.4288    8.4825   15.0949 H   0  0  0  0  0  0  0  0  0  0  0  0
   48.9314    6.9596   18.4845 H   0  0  0  0  0  0  0  0  0  0  0  0
   50.7646    4.5508   18.7807 H   0  0  0  0  0  0  0  0  0  0  0  0
   49.5871    5.3420   19.8096 H   0  0  0  0  0  0  0  0  0  0  0  0
   48.0018   11.8490   13.4646 H   0  0  0  0  0  0  0  0  0  0  0  0
   50.7166    7.3965   12.4737 H   0  0  0  0  0  0  0  0  0  0  0  0
   49.6399    8.7136   12.0252 H   0  0  0  0  0  0  0  0  0  0  0  0
   50.8289    8.9602   13.3036 H   0  0  0  0  0  0  0  0  0  0  0  0
   48.6574    5.8959   12.8128 H   0  0  0  0  0  0  0  0  0  0  0  0
   47.3960    6.3648   13.9665 H   0  0  0  0  0  0  0  0  0  0  0  0
   47.5692    7.2328   12.4394 H   0  0  0  0  0  0  0  0  0  0  0  0
   53.2157    4.4228   19.5695 H   0  0  0  0  0  0  0  0  0  0  0  0
   50.0179    5.7254   22.1669 H   0  0  0  0  0  0  0  0  0  0  0  0
   54.6191    3.9639   21.5476 H   0  0  0  0  0  0  0  0  0  0  0  0
   51.4406    5.2635   24.1272 H   0  0  0  0  0  0  0  0  0  0  0  0
   53.7379    4.3788   23.8294 H   0  0  0  0  0  0  0  0  0  0  0  0
   49.7166    7.2801   16.6402 H   0  0  0  0  0  0  0  0  0  0  0  0
   50.2675    6.7584   17.9638 H   0  0  0  0  0  0  0  0  0  0  0  0
   49.7090    7.2779   16.6453 H   0  0  0  0  0  0  0  0  0  0  0  0
   50.2770    6.7589   17.9628 H   0  0  0  0  0  0  0  0  0  0  0  0
   49.7083    7.2779   16.6453 H   0  0  0  0  0  0  0  0  0  0  0  0
   50.2778    6.7588   17.9632 H   0  0  0  0  0  0  0  0  0  0  0  0
  3  2  1  0
  4  2  1  0
  5  3  1  0
  6  2  1  0
  3  7  1  0
  8  6  1  0
  5  9  1  0
  6 10  1  0
 11  9  1  0
 12  4  2  0
 13 10  2  0
 14 11  2  0
 15 11  1  0
 16 10  1  0
 17  8  1  0
 18  8  1  0
 19 15  1  0
 20 19  2  0
 21 19  1  0
 22 20  1  0
 23 21  2  0
 24 23  1  0
  7  8  1  0
  4  5  1  0
 24 22  2  0
 26 32  1  0
 27 30  1  0
 28 29  1  0
 29 25  1  0
 30 26  1  0
 31 25  1  0
 32 31  1  0
 33 27  2  0
 34 27  1  0
 35 28  2  0
 36 28  1  0
 37 33  1  0
 38 35  1  0
 39 36  2  0
 40 34  2  0
 41 37  2  0
 42 39  1  0
 42 38  2  0
 40 41  1  0
 44 43  1  0
 45 43  1  0
 46 44  1  0
 47 43  1  0
 44 48  1  0
 49 47  1  0
 46 50  1  0
 47 51  1  0
 52 50  1  0
 53 45  2  0
 54 51  2  0
 55 52  2  0
 56 52  1  0
 57 51  1  0
 58 49  1  0
 59 49  1  0
 60 56  1  0
 61 60  2  0
 62 60  1  0
 63 61  1  0
 64 62  2  0
 65 64  1  0
 48 49  1  0
 45 46  1  0
 65 63  2  0
  1 69  1  0
  1 70  1  0
  3 71  1  6
  5 72  1  6
  6 73  1  1
  9 74  1  0
 15 75  1  0
 15 76  1  0
 16 77  1  0
 17 78  1  0
 17 79  1  0
 17 80  1  0
 18 81  1  0
 18 82  1  0
 18 83  1  0
 20 84  1  0
 21 85  1  0
 22 86  1  0
 23 87  1  0
 24 88  1  0
 25 89  1  0
 26 90  1  0
 29 91  1  0
 29 92  1  0
 30 93  1  0
 30 94  1  0
 31 95  1  0
 31 96  1  0
 32 97  1  0
 32 98  1  0
 33 99  1  0
 34100  1  0
 35101  1  0
 36102  1  0
 37103  1  0
 38104  1  0
 39105  1  0
 40106  1  0
 41107  1  0
 42108  1  0
 44109  1  6
 46110  1  1
 47111  1  6
 50112  1  0
 56113  1  0
 56114  1  0
 57115  1  0
 58116  1  0
 58117  1  0
 58118  1  0
 59119  1  0
 59120  1  0
 59121  1  0
 61122  1  0
 62123  1  0
 63124  1  0
 64125  1  0
 65126  1  0
 66127  1  0
 66128  1  0
 67129  1  0
 67130  1  0
 68131  1  0
 68132  1  0
M  END
> <Uni-Dock RESULT> 
ENERGY=   -6.187  LOWER_BOUND=    0.000  UPPER_BOUND=    0.000
INTER + INTRA:          -6.187
INTER:                  -6.187
INTRA:                   0.000
UNBOUND:                 0.000

$$$$

     RDKit          3D

132133  0  0  0  0  0  0  0  0999 V2000
   48.4065   10.1735   19.4586 O   0  0  0  0  0  0  0  0  0  0  0  0
   49.9879   11.5359   17.2893 N   0  0  0  0  0  0  0  0  0  0  0  0
   49.0631   10.4674   17.7070 C   0  0  1  0  0  0  0  0  0  0  0  0
   50.7835   11.4031   18.3909 C   0  0  0  0  0  0  0  0  0  0  0  0
   50.1251   10.0542   18.7648 C   0  0  1  0  0  0  0  0  0  0  0  0
   49.4001   12.8138   16.9117 C   0  0  2  0  0  0  0  0  0  0  0  0
   47.5656   11.3483   18.3228 S   0  0  0  0  0  0  0  0  0  0  0  0
   48.1290   13.0249   17.7662 C   0  0  0  0  0  0  0  0  0  0  0  0
   49.6727    9.9096   20.1744 N   0  0  0  0  0  0  0  0  0  0  0  0
   49.1319   12.7669   15.4097 C   0  0  0  0  0  0  0  0  0  0  0  0
   48.8681    8.8497   20.5440 C   0  0  0  0  0  0  0  0  0  0  0  0
   51.5880   12.1571   18.8878 O   0  0  0  0  0  0  0  0  0  0  0  0
   48.8084   11.7983   14.7422 O   0  0  0  0  0  0  0  0  0  0  0  0
   48.5647    7.9649   19.7484 O   0  0  0  0  0  0  0  0  0  0  0  0
   48.3706    8.9143   21.9779 C   0  0  0  0  0  0  0  0  0  0  0  0
   49.2422   13.9818   14.8265 O   0  0  0  0  0  0  0  0  0  0  0  0
   46.9605   13.6962   17.0330 C   0  0  0  0  0  0  0  0  0  0  0  0
   48.4461   13.8427   19.0294 C   0  0  0  0  0  0  0  0  0  0  0  0
   48.4075    7.5860   22.6915 C   0  0  0  0  0  0  0  0  0  0  0  0
   49.5539    7.1836   23.3914 C   0  0  0  0  0  0  0  0  0  0  0  0
   47.3009    6.7269   22.6480 C   0  0  0  0  0  0  0  0  0  0  0  0
   49.5829    5.9542   24.0516 C   0  0  0  0  0  0  0  0  0  0  0  0
   47.3330    5.4980   23.3098 C   0  0  0  0  0  0  0  0  0  0  0  0
   48.4724    5.1133   24.0137 C   0  0  0  0  0  0  0  0  0  0  0  0
   49.6509   12.0211   19.7502 N   0  0  0  0  0  0  0  0  0  0  0  0
   50.0732    9.3252   20.7185 N   0  0  0  0  0  0  0  0  0  0  0  0
   49.3243    7.0763   21.4836 C   0  0  0  0  0  0  0  0  0  0  0  0
   48.8020   13.6978   18.1166 C   0  0  0  0  0  0  0  0  0  0  0  0
   49.2139   13.3975   19.5396 C   0  0  0  0  0  0  0  0  0  0  0  0
   50.4145    7.9132   20.8537 C   0  0  0  0  0  0  0  0  0  0  0  0
   48.5555   11.0489   19.7032 C   0  0  0  0  0  0  0  0  0  0  0  0
   49.0566    9.5826   19.6949 C   0  0  0  0  0  0  0  0  0  0  0  0
   49.0001    7.2276   22.8403 C   0  0  0  0  0  0  0  0  0  0  0  0
   48.6146    6.1402   20.7170 C   0  0  0  0  0  0  0  0  0  0  0  0
   47.4554   13.9303   17.7991 C   0  0  0  0  0  0  0  0  0  0  0  0
   49.7570   13.7436   17.0891 C   0  0  0  0  0  0  0  0  0  0  0  0
   47.9849    6.4609   23.4149 C   0  0  0  0  0  0  0  0  0  0  0  0
   47.0720   14.1994   16.4841 C   0  0  0  0  0  0  0  0  0  0  0  0
   49.3714   14.0128   15.7738 C   0  0  0  0  0  0  0  0  0  0  0  0
   47.6005    5.3746   21.2946 C   0  0  0  0  0  0  0  0  0  0  0  0
   47.2854    5.5350   22.6423 C   0  0  0  0  0  0  0  0  0  0  0  0
   48.0295   14.2391   15.4720 C   0  0  0  0  0  0  0  0  0  0  0  0
   47.6806    9.1404   22.0600 N   0  0  0  0  0  0  0  0  0  0  0  0
   47.4790    9.3461   20.6118 C   0  0  1  0  0  0  0  0  0  0  0  0
   48.1597   10.4086   22.2607 C   0  0  0  0  0  0  0  0  0  0  0  0
   47.7486   10.8531   20.8419 C   0  0  1  0  0  0  0  0  0  0  0  0
   48.4956    8.0000   22.4842 C   0  0  2  0  0  0  0  0  0  0  0  0
   48.8083    8.3235   19.8518 S   0  0  0  0  0  0  0  0  0  0  0  0
   48.7158    7.0999   21.2516 C   0  0  0  0  0  0  0  0  0  0  0  0
   48.8079   11.4911   20.0142 N   0  0  0  0  0  0  0  0  0  0  0  0
   47.9112    7.2538   23.6802 C   0  0  0  0  0  0  0  0  0  0  0  0
   48.5655   11.8025   18.6909 C   0  0  0  0  0  0  0  0  0  0  0  0
   48.7914   10.8846   23.1765 O   0  0  0  0  0  0  0  0  0  0  0  0
   48.4154    6.2819   24.2250 O   0  0  0  0  0  0  0  0  0  0  0  0
   47.4633   11.6132   18.1809 O   0  0  0  0  0  0  0  0  0  0  0  0
   49.7729   12.3365   17.9384 C   0  0  0  0  0  0  0  0  0  0  0  0
   46.7376    7.7394   24.1342 O   0  0  0  0  0  0  0  0  0  0  0  0
   47.5624    6.1308   20.9584 C   0  0  0  0  0  0  0  0  0  0  0  0
   50.0426    6.3402   21.3204 C   0  0  0  0  0  0  0  0  0  0  0  0
   49.4562   13.4885   17.0177 C   0  0  0  0  0  0  0  0  0  0  0  0
   48.8764   13.2539   15.7623 C   0  0  0  0  0  0  0  0  0  0  0  0
   49.7257   14.8102   17.4037 C   0  0  0  0  0  0  0  0  0  0  0  0
   48.5869   14.3164   14.9047 C   0  0  0  0  0  0  0  0  0  0  0  0
   49.4373   15.8708   16.5423 C   0  0  0  0  0  0  0  0  0  0  0  0
   48.8714   15.6240   15.2926 C   0  0  0  0  0  0  0  0  0  0  0  0
   48.4066   10.1735   19.4587 O   0  0  0  0  0  0  0  0  0  0  0  0
   48.4064   10.1695   19.4616 O   0  0  0  0  0  0  0  0  0  0  0  0
   48.4064   10.1691   19.4619 O   0  0  0  0  0  0  0  0  0  0  0  0
   48.9205   10.9854   19.3326 H   0  0  0  0  0  0  0  0  0  0  0  0
   48.8297    9.7466   20.2183 H   0  0  0  0  0  0  0  0  0  0  0  0
   48.8732    9.7314   16.9208 H   0  0  0  0  0  0  0  0  0  0  0  0
   50.7480    9.2012   18.4648 H   0  0  0  0  0  0  0  0  0  0  0  0
   50.1452   13.5986   17.0944 H   0  0  0  0  0  0  0  0  0  0  0  0
   49.7980   10.6839   20.8193 H   0  0  0  0  0  0  0  0  0  0  0  0
   47.3455    9.3037   21.9567 H   0  0  0  0  0  0  0  0  0  0  0  0
   48.9563    9.6429   22.5518 H   0  0  0  0  0  0  0  0  0  0  0  0
   49.0596   13.8042   13.8785 H   0  0  0  0  0  0  0  0  0  0  0  0
   46.0979   13.8428   17.6959 H   0  0  0  0  0  0  0  0  0  0  0  0
   46.6129   13.1104   16.1747 H   0  0  0  0  0  0  0  0  0  0  0  0
   47.2531   14.6866   16.6659 H   0  0  0  0  0  0  0  0  0  0  0  0
   48.7892   14.8489   18.7552 H   0  0  0  0  0  0  0  0  0  0  0  0
   49.2305   13.3871   19.6403 H   0  0  0  0  0  0  0  0  0  0  0  0
   47.5630   13.9672   19.6657 H   0  0  0  0  0  0  0  0  0  0  0  0
   50.4319    7.8234   23.4289 H   0  0  0  0  0  0  0  0  0  0  0  0
   46.4089    7.0066   22.0913 H   0  0  0  0  0  0  0  0  0  0  0  0
   50.4748    5.6493   24.5940 H   0  0  0  0  0  0  0  0  0  0  0  0
   46.4699    4.8381   23.2698 H   0  0  0  0  0  0  0  0  0  0  0  0
   48.4965    4.1550   24.5259 H   0  0  0  0  0  0  0  0  0  0  0  0
   50.3645   11.7614   19.0722 H   0  0  0  0  0  0  0  0  0  0  0  0
   49.7626    9.7061   21.6103 H   0  0  0  0  0  0  0  0  0  0  0  0
   50.0424   14.0670   19.7996 H   0  0  0  0  0  0  0  0  0  0  0  0
   48.4074   13.6511   20.2387 H   0  0  0  0  0  0  0  0  0  0  0  0
   50.7091    7.4989   19.8817 H   0  0  0  0  0  0  0  0  0  0  0  0
   51.3085    7.8310   21.4848 H   0  0  0  0  0  0  0  0  0  0  0  0
   47.9354   11.1842   18.8110 H   0  0  0  0  0  0  0  0  0  0  0  0
   47.9134   11.1972   20.5806 H   0  0  0  0  0  0  0  0  0  0  0  0
   49.4830    9.3621   18.7091 H   0  0  0  0  0  0  0  0  0  0  0  0
   48.1794    8.9392   19.8303 H   0  0  0  0  0  0  0  0  0  0  0  0
   49.5396    7.9442   23.4553 H   0  0  0  0  0  0  0  0  0  0  0  0
   48.8462    6.0062   19.6628 H   0  0  0  0  0  0  0  0  0  0  0  0
   46.6961   13.8993   18.5778 H   0  0  0  0  0  0  0  0  0  0  0  0
   50.8079   13.5727   17.3113 H   0  0  0  0  0  0  0  0  0  0  0  0
   47.7402    6.5854   24.4676 H   0  0  0  0  0  0  0  0  0  0  0  0
   46.0255   14.3784   16.2495 H   0  0  0  0  0  0  0  0  0  0  0  0
   50.1190   14.0472   14.9857 H   0  0  0  0  0  0  0  0  0  0  0  0
   47.0559    4.6522   20.6926 H   0  0  0  0  0  0  0  0  0  0  0  0
   46.4951    4.9396   23.0913 H   0  0  0  0  0  0  0  0  0  0  0  0
   47.7303   14.4483   14.4485 H   0  0  0  0  0  0  0  0  0  0  0  0
   46.4637    9.0966   20.2891 H   0  0  0  0  0  0  0  0  0  0  0  0
   46.8421   11.4728   20.8644 H   0  0  0  0  0  0  0  0  0  0  0  0
   49.4585    8.3996   22.8373 H   0  0  0  0  0  0  0  0  0  0  0  0
   49.7568   11.5463   20.3724 H   0  0  0  0  0  0  0  0  0  0  0  0
   50.2006   11.5076   17.3637 H   0  0  0  0  0  0  0  0  0  0  0  0
   50.5493   12.6454   18.6501 H   0  0  0  0  0  0  0  0  0  0  0  0
   46.5409    7.2027   24.9289 H   0  0  0  0  0  0  0  0  0  0  0  0
   47.7096    5.6151   20.0004 H   0  0  0  0  0  0  0  0  0  0  0  0
   47.4959    5.3531   21.7269 H   0  0  0  0  0  0  0  0  0  0  0  0
   46.5905    6.6355   20.9240 H   0  0  0  0  0  0  0  0  0  0  0  0
   50.2440    5.7898   20.3919 H   0  0  0  0  0  0  0  0  0  0  0  0
   50.8899    7.0116   21.5019 H   0  0  0  0  0  0  0  0  0  0  0  0
   50.0304    5.6049   22.1329 H   0  0  0  0  0  0  0  0  0  0  0  0
   48.6356   12.2389   15.4499 H   0  0  0  0  0  0  0  0  0  0  0  0
   50.1661   15.0260   18.3754 H   0  0  0  0  0  0  0  0  0  0  0  0
   48.1360   14.1225   13.9347 H   0  0  0  0  0  0  0  0  0  0  0  0
   49.6536   16.8912   16.8463 H   0  0  0  0  0  0  0  0  0  0  0  0
   48.6446   16.4507   14.6243 H   0  0  0  0  0  0  0  0  0  0  0  0
   48.8301    9.7468   20.2185 H   0  0  0  0  0  0  0  0  0  0  0  0
   48.9200   10.9853   19.3322 H   0  0  0  0  0  0  0  0  0  0  0  0
   48.8373    9.7517   20.2219 H   0  0  0  0  0  0  0  0  0  0  0  0
   48.9129   10.9842   19.3259 H   0  0  0  0  0  0  0  0  0  0  0  0
   48.8378    9.7517   20.2224 H   0  0  0  0  0  0  0  0  0  0  0  0
   48.9124   10.9846   19.3252 H   0  0  0  0  0  0  0  0  0  0  0  0
  3  2  1  0
  4  2  1  0
  5  3  1  0
  6  2  1  0
  3  7  1  0
  8  6  1  0
  5  9  1  0
  6 10  1  0
 11  9  1  0
 12  4  2  0
 13 10  2  0
 14 11  2  0
 15 11  1  0
 16 10  1  0
 17  8  1  0
 18  8  1  0
 19 15  1  0
 20 19  2  0
 21 19  1  0
 22 20  1  0
 23 21  2  0
 24 23  1  0
  7  8  1  0
  4  5  1  0
 24 22  2  0
 26 32  1  0
 27 30  1  0
 28 29  1  0
 29 25  1  0
 30 26  1  0
 31 25  1  0
 32 31  1  0
 33 27  2  0
 34 27  1  0
 35 28  2  0
 36 28  1  0
 37 33  1  0
 38 35  1  0
 39 36  2  0
 40 34  2  0
 41 37  2  0
 42 39  1  0
 42 38  2  0
 40 41  1  0
 44 43  1  0
 45 43  1  0
 46 44  1  0
 47 43  1  0
 44 48  1  0
 49 47  1  0
 46 50  1  0
 47 51  1  0
 52 50  1  0
 53 45  2  0
 54 51  2  0
 55 52  2  0
 56 52  1  0
 57 51  1  0
 58 49  1  0
 59 49  1  0
 60 56  1  0
 61 60  2  0
 62 60  1  0
 63 61  1  0
 64 62  2  0
 65 64  1  0
 48 49  1  0
 45 46  1  0
 65 63  2  0
  1 69  1  0
  1 70  1  0
  3 71  1  6
  5 72  1  6
  6 73  1  1
  9 74  1  0
 15 75  1  0
 15 76  1  0
 16 77  1  0
 17 78  1  0
 17 79  1  0
 17 80  1  0
 18 81  1  0
 18 82  1  0
 18 83  1  0
 20 84  1  0
 21 85  1  0
 22 86  1  0
 23 87  1  0
 24 88  1  0
 25 89  1  0
 26 90  1  0
 29 91  1  0
 29 92  1  0
 30 93  1  0
 30 94  1  0
 31 95  1  0
 31 96  1  0
 32 97  1  0
 32 98  1  0
 33 99  1  0
 34100  1  0
 35101  1  0
 36102  1  0
 37103  1  0
 38104  1  0
 39105  1  0
 40106  1  0
 41107  1  0
 42108  1  0
 44109  1  6
 46110  1  1
 47111  1  6
 50112  1  0
 56113  1  0
 56114  1  0
 57115  1  0
 58116  1  0
 58117  1  0
 58118  1  0
 59119  1  0
 59120  1  0
 59121  1  0
 61122  1  0
 62123  1  0
 63124  1  0
 64125  1  0
 65126  1  0
 66127  1  0
 66128  1  0
 67129  1  0
 67130  1  0
 68131  1  0
 68132  1  0
M  END
> <Uni-Dock RESULT> 
ENERGY=   -6.087  LOWER_BOUND=    3.813  UPPER_BOUND=    8.624
INTER + INTRA:          -6.087
INTER:                  -6.087
INTRA:                   0.000
UNBOUND:                 0.000

$$$$

     RDKit          3D

132133  0  0  0  0  0  0  0  0999 V2000
   49.6996    8.4292   20.4688 O   0  0  0  0  0  0  0  0  0  0  0  0
   50.3100    6.8811   17.9602 N   0  0  0  0  0  0  0  0  0  0  0  0
   50.7242    7.3563   19.2920 C   0  0  1  0  0  0  0  0  0  0  0  0
   49.7449    8.0736   17.6099 C   0  0  0  0  0  0  0  0  0  0  0  0
   50.4203    8.7988   18.7976 C   0  0  1  0  0  0  0  0  0  0  0  0
   49.5680    5.6291   17.9022 C   0  0  2  0  0  0  0  0  0  0  0  0
   49.5181    6.6004   20.4631 S   0  0  0  0  0  0  0  0  0  0  0  0
   48.7155    5.5204   19.1874 C   0  0  0  0  0  0  0  0  0  0  0  0
   49.5357    9.6443   19.6432 N   0  0  0  0  0  0  0  0  0  0  0  0
   50.5853    4.5026   17.7406 C   0  0  0  0  0  0  0  0  0  0  0  0
   49.9876   10.1361   20.8520 C   0  0  0  0  0  0  0  0  0  0  0  0
   48.9355    8.3507   16.7550 O   0  0  0  0  0  0  0  0  0  0  0  0
   51.7136    4.4481   18.2015 O   0  0  0  0  0  0  0  0  0  0  0  0
   51.1423    9.9551   21.2285 O   0  0  0  0  0  0  0  0  0  0  0  0
   48.9286   10.8590   21.6667 C   0  0  0  0  0  0  0  0  0  0  0  0
   50.0956    3.4615   17.0303 O   0  0  0  0  0  0  0  0  0  0  0  0
   48.6015    4.1059   19.7705 C   0  0  0  0  0  0  0  0  0  0  0  0
   47.2972    6.0669   18.9533 C   0  0  0  0  0  0  0  0  0  0  0  0
   49.4283   12.1208   22.3248 C   0  0  0  0  0  0  0  0  0  0  0  0
   49.3651   13.3495   21.6523 C   0  0  0  0  0  0  0  0  0  0  0  0
   49.9809   12.0780   23.6122 C   0  0  0  0  0  0  0  0  0  0  0  0
   49.8273   14.5149   22.2659 C   0  0  0  0  0  0  0  0  0  0  0  0
   50.4419   13.2456   24.2233 C   0  0  0  0  0  0  0  0  0  0  0  0
   50.3624   14.4638   23.5514 C   0  0  0  0  0  0  0  0  0  0  0  0
   48.2678    8.1430   18.7614 N   0  0  0  0  0  0  0  0  0  0  0  0
   49.6383   10.5316   19.6560 N   0  0  0  0  0  0  0  0  0  0  0  0
   50.7031   11.9961   21.3663 C   0  0  0  0  0  0  0  0  0  0  0  0
   48.0513    5.6835   18.4386 C   0  0  0  0  0  0  0  0  0  0  0  0
   47.3560    7.0181   18.5797 C   0  0  0  0  0  0  0  0  0  0  0  0
   50.6176   11.5816   19.9149 C   0  0  0  0  0  0  0  0  0  0  0  0
   48.9068    8.1671   20.0799 C   0  0  0  0  0  0  0  0  0  0  0  0
   50.0380    9.2217   20.1775 C   0  0  0  0  0  0  0  0  0  0  0  0
   49.6491   12.6952   21.9738 C   0  0  0  0  0  0  0  0  0  0  0  0
   51.8365   11.6801   22.1299 C   0  0  0  0  0  0  0  0  0  0  0  0
   47.9630    4.7232   19.4576 C   0  0  0  0  0  0  0  0  0  0  0  0
   48.8007    5.3842   17.2901 C   0  0  0  0  0  0  0  0  0  0  0  0
   49.7275   13.0658   23.3174 C   0  0  0  0  0  0  0  0  0  0  0  0
   48.6115    3.4934   19.3327 C   0  0  0  0  0  0  0  0  0  0  0  0
   49.4491    4.1531   17.1671 C   0  0  0  0  0  0  0  0  0  0  0  0
   51.9123   12.0526   23.4729 C   0  0  0  0  0  0  0  0  0  0  0  0
   50.8586   12.7445   24.0665 C   0  0  0  0  0  0  0  0  0  0  0  0
   49.3552    3.2094   18.1886 C   0  0  0  0  0  0  0  0  0  0  0  0
   48.6403   10.4743   22.2171 N   0  0  0  0  0  0  0  0  0  0  0  0
   49.4425    9.2714   21.9177 C   0  0  1  0  0  0  0  0  0  0  0  0
   47.6207   10.1085   21.3777 C   0  0  0  0  0  0  0  0  0  0  0  0
   48.2074    8.6951   21.1835 C   0  0  1  0  0  0  0  0  0  0  0  0
   49.2721   11.7830   22.0356 C   0  0  2  0  0  0  0  0  0  0  0  0
   50.8332    9.9327   20.9082 S   0  0  0  0  0  0  0  0  0  0  0  0
   50.7825   11.5477   21.8325 C   0  0  0  0  0  0  0  0  0  0  0  0
   48.3978    8.2438   19.7784 N   0  0  0  0  0  0  0  0  0  0  0  0
   48.9599   12.7640   23.1622 C   0  0  0  0  0  0  0  0  0  0  0  0
   49.0345    7.0480   19.5106 C   0  0  0  0  0  0  0  0  0  0  0  0
   46.7173   10.7531   20.8952 O   0  0  0  0  0  0  0  0  0  0  0  0
   49.3567   13.9189   23.2271 O   0  0  0  0  0  0  0  0  0  0  0  0
   49.4090    6.3061   20.4161 O   0  0  0  0  0  0  0  0  0  0  0  0
   49.2651    6.7745   18.0338 C   0  0  0  0  0  0  0  0  0  0  0  0
   48.1842   12.2682   24.1480 O   0  0  0  0  0  0  0  0  0  0  0  0
   51.5790   11.3747   23.1329 C   0  0  0  0  0  0  0  0  0  0  0  0
   51.4231   12.6278   20.9576 C   0  0  0  0  0  0  0  0  0  0  0  0
   49.0067    5.3439   17.6315 C   0  0  0  0  0  0  0  0  0  0  0  0
   49.9660    4.3523   17.8842 C   0  0  0  0  0  0  0  0  0  0  0  0
   47.8031    4.9799   17.0094 C   0  0  0  0  0  0  0  0  0  0  0  0
   49.7336    3.0282   17.5086 C   0  0  0  0  0  0  0  0  0  0  0  0
   47.5747    3.6548   16.6325 C   0  0  0  0  0  0  0  0  0  0  0  0
   48.5405    2.6804   16.8789 C   0  0  0  0  0  0  0  0  0  0  0  0
   49.6996    8.4293   20.4688 O   0  0  0  0  0  0  0  0  0  0  0  0
   49.7005    8.4334   20.4713 O   0  0  0  0  0  0  0  0  0  0  0  0
   49.7006    8.4339   20.4715 O   0  0  0  0  0  0  0  0  0  0  0  0
   49.2380    8.1140   19.6772 H   0  0  0  0  0  0  0  0  0  0  0  0
   49.5440    9.3853   20.4630 H   0  0  0  0  0  0  0  0  0  0  0  0
   51.7744    7.1487   19.5153 H   0  0  0  0  0  0  0  0  0  0  0  0
   51.3088    9.3597   18.4788 H   0  0  0  0  0  0  0  0  0  0  0  0
   48.9413    5.6461   17.0014 H   0  0  0  0  0  0  0  0  0  0  0  0
   48.5460    9.7040   19.4238 H   0  0  0  0  0  0  0  0  0  0  0  0
   48.5572   10.1589   22.4249 H   0  0  0  0  0  0  0  0  0  0  0  0
   48.0649   11.1044   21.0366 H   0  0  0  0  0  0  0  0  0  0  0  0
   50.8451    2.8285   16.9951 H   0  0  0  0  0  0  0  0  0  0  0  0
   47.9647    4.0872   20.6645 H   0  0  0  0  0  0  0  0  0  0  0  0
   49.5744    3.6919   20.0578 H   0  0  0  0  0  0  0  0  0  0  0  0
   48.1491    3.4234   19.0419 H   0  0  0  0  0  0  0  0  0  0  0  0
   46.7758    5.4620   18.1999 H   0  0  0  0  0  0  0  0  0  0  0  0
   47.2976    7.1007   18.5967 H   0  0  0  0  0  0  0  0  0  0  0  0
   46.6925    6.0332   19.8664 H   0  0  0  0  0  0  0  0  0  0  0  0
   48.9554   13.4094   20.6472 H   0  0  0  0  0  0  0  0  0  0  0  0
   50.0627   11.1326   24.1445 H   0  0  0  0  0  0  0  0  0  0  0  0
   49.7735   15.4647   21.7390 H   0  0  0  0  0  0  0  0  0  0  0  0
   50.8696   13.2022   25.2219 H   0  0  0  0  0  0  0  0  0  0  0  0
   50.7244   15.3712   24.0277 H   0  0  0  0  0  0  0  0  0  0  0  0
   48.9833    8.1481   18.0373 H   0  0  0  0  0  0  0  0  0  0  0  0
   48.7293   10.7870   20.0373 H   0  0  0  0  0  0  0  0  0  0  0  0
   46.7702    7.1915   17.6691 H   0  0  0  0  0  0  0  0  0  0  0  0
   46.6217    6.9889   19.3942 H   0  0  0  0  0  0  0  0  0  0  0  0
   51.6033   11.2829   19.5379 H   0  0  0  0  0  0  0  0  0  0  0  0
   50.3409   12.4667   19.3283 H   0  0  0  0  0  0  0  0  0  0  0  0
   49.3466    7.1965   20.3318 H   0  0  0  0  0  0  0  0  0  0  0  0
   48.1463    8.3947   20.8373 H   0  0  0  0  0  0  0  0  0  0  0  0
   50.9036    8.8631   19.6079 H   0  0  0  0  0  0  0  0  0  0  0  0
   50.3343    9.2831   21.2311 H   0  0  0  0  0  0  0  0  0  0  0  0
   48.7622   12.9547   21.4005 H   0  0  0  0  0  0  0  0  0  0  0  0
   52.6656   11.1370   21.6820 H   0  0  0  0  0  0  0  0  0  0  0  0
   47.3889    4.9318   20.3580 H   0  0  0  0  0  0  0  0  0  0  0  0
   48.8790    6.1099   16.4839 H   0  0  0  0  0  0  0  0  0  0  0  0
   48.9053   13.6073   23.7802 H   0  0  0  0  0  0  0  0  0  0  0  0
   48.5359    2.7565   20.1286 H   0  0  0  0  0  0  0  0  0  0  0  0
   50.0258    3.9308   16.2732 H   0  0  0  0  0  0  0  0  0  0  0  0
   52.7943   11.8031   24.0566 H   0  0  0  0  0  0  0  0  0  0  0  0
   50.9174   13.0334   25.1124 H   0  0  0  0  0  0  0  0  0  0  0  0
   49.8600    2.2519   18.0922 H   0  0  0  0  0  0  0  0  0  0  0  0
   49.7439    8.7317   22.8206 H   0  0  0  0  0  0  0  0  0  0  0  0
   47.6491    7.9477   21.7632 H   0  0  0  0  0  0  0  0  0  0  0  0
   48.8350   12.2346   21.1320 H   0  0  0  0  0  0  0  0  0  0  0  0
   48.2089    8.8882   19.0164 H   0  0  0  0  0  0  0  0  0  0  0  0
   50.3015    7.0446   17.8028 H   0  0  0  0  0  0  0  0  0  0  0  0
   48.6356    7.4395   17.4284 H   0  0  0  0  0  0  0  0  0  0  0  0
   48.0254   13.0301   24.7419 H   0  0  0  0  0  0  0  0  0  0  0  0
   52.6156   11.0764   22.9280 H   0  0  0  0  0  0  0  0  0  0  0  0
   51.6275   12.3144   23.6935 H   0  0  0  0  0  0  0  0  0  0  0  0
   51.1371   10.6240   23.7973 H   0  0  0  0  0  0  0  0  0  0  0  0
   52.4706   12.3939   20.7257 H   0  0  0  0  0  0  0  0  0  0  0  0
   50.8905   12.7546   20.0079 H   0  0  0  0  0  0  0  0  0  0  0  0
   51.4161   13.5982   21.4666 H   0  0  0  0  0  0  0  0  0  0  0  0
   50.8979    4.6055   18.3875 H   0  0  0  0  0  0  0  0  0  0  0  0
   47.0347    5.7242   16.8086 H   0  0  0  0  0  0  0  0  0  0  0  0
   50.4838    2.2679   17.7111 H   0  0  0  0  0  0  0  0  0  0  0  0
   46.6422    3.3816   16.1466 H   0  0  0  0  0  0  0  0  0  0  0  0
   48.3602    1.6487   16.5879 H   0  0  0  0  0  0  0  0  0  0  0  0
   49.5437    9.3855   20.4626 H   0  0  0  0  0  0  0  0  0  0  0  0
   49.2383    8.1136   19.6776 H   0  0  0  0  0  0  0  0  0  0  0  0
   49.5385    9.3883   20.4553 H   0  0  0  0  0  0  0  0  0  0  0  0
   49.2426    8.1066   19.6825 H   0  0  0  0  0  0  0  0  0  0  0  0
   49.5382    9.3889   20.4550 H   0  0  0  0  0  0  0  0  0  0  0  0
   49.2427    8.1057   19.6826 H   0  0  0  0  0  0  0  0  0  0  0  0
  3  2  1  0
  4  2  1  0
  5  3  1  0
  6  2  1  0
  3  7  1  0
  8  6  1  0
  5  9  1  0
  6 10  1  0
 11  9  1  0
 12  4  2  0
 13 10  2  0
 14 11  2  0
 15 11  1  0
 16 10  1  0
 17  8  1  0
 18  8  1  0
 19 15  1  0
 20 19  2  0
 21 19  1  0
 22 20  1  0
 23 21  2  0
 24 23  1  0
  7  8  1  0
  4  5  1  0
 24 22  2  0
 26 32  1  0
 27 30  1  0
 28 29  1  0
 29 25  1  0
 30 26  1  0
 31 25  1  0
 32 31  1  0
 33 27  2  0
 34 27  1  0
 35 28  2  0
 36 28  1  0
 37 33  1  0
 38 35  1  0
 39 36  2  0
 40 34  2  0
 41 37  2  0
 42 39  1  0
 42 38  2  0
 40 41  1  0
 44 43  1  0
 45 43  1  0
 46 44  1  0
 47 43  1  0
 44 48  1  0
 49 47  1  0
 46 50  1  0
 47 51  1  0
 52 50  1  0
 53 45  2  0
 54 51  2  0
 55 52  2  0
 56 52  1  0
 57 51  1  0
 58 49  1  0
 59 49  1  0
 60 56  1  0
 61 60  2  0
 62 60  1  0
 63 61  1  0
 64 62  2  0
 65 64  1  0
 48 49  1  0
 45 46  1  0
 65 63  2  0
  1 69  1  0
  1 70  1  0
  3 71  1  6
  5 72  1  6
  6 73  1  1
  9 74  1  0
 15 75  1  0
 15 76  1  0
 16 77  1  0
 17 78  1  0
 17 79  1  0
 17 80  1  0
 18 81  1  0
 18 82  1  0
 18 83  1  0
 20 84  1  0
 21 85  1  0
 22 86  1  0
 23 87  1  0
 24 88  1  0
 25 89  1  0
 26 90  1  0
 29 91  1  0
 29 92  1  0
 30 93  1  0
 30 94  1  0
 31 95  1  0
 31 96  1  0
 32 97  1  0
 32 98  1  0
 33 99  1  0
 34100  1  0
 35101  1  0
 36102  1  0
 37103  1  0
 38104  1  0
 39105  1  0
 40106  1  0
 41107  1  0
 42108  1  0
 44109  1  6
 46110  1  1
 47111  1  6
 50112  1  0
 56113  1  0
 56114  1  0
 57115  1  0
 58116  1  0
 58117  1  0
 58118  1  0
 59119  1  0
 59120  1  0
 59121  1  0
 61122  1  0
 62123  1  0
 63124  1  0
 64125  1  0
 65126  1  0
 66127  1  0
 66128  1  0
 67129  1  0
 67130  1  0
 68131  1  0
 68132  1  0
M  END
> <Uni-Dock RESULT> 
ENERGY=   -6.012  LOWER_BOUND=    3.877  UPPER_BOUND=    6.898
INTER + INTRA:          -6.012
INTER:                  -6.012
INTRA:                   0.000
UNBOUND:                 0.000

$$$$

     RDKit          3D

132133  0  0  0  0  0  0  0  0999 V2000
   49.0483    7.6972   17.6133 O   0  0  0  0  0  0  0  0  0  0  0  0
   50.3472    7.0130   14.9851 N   0  0  0  0  0  0  0  0  0  0  0  0
   49.2828    6.7754   15.9759 C   0  0  1  0  0  0  0  0  0  0  0  0
   51.3225    7.1502   15.9307 C   0  0  0  0  0  0  0  0  0  0  0  0
   50.4048    6.5695   17.0323 C   0  0  1  0  0  0  0  0  0  0  0  0
   50.1010    8.0349   13.9769 C   0  0  2  0  0  0  0  0  0  0  0  0
   48.3411    8.3582   16.0512 S   0  0  0  0  0  0  0  0  0  0  0  0
   49.2242    9.1353   14.6178 C   0  0  0  0  0  0  0  0  0  0  0  0
   50.3138    7.3513   18.2945 N   0  0  0  0  0  0  0  0  0  0  0  0
   49.4495    7.3475   12.7798 C   0  0  0  0  0  0  0  0  0  0  0  0
   49.3494    7.0480   19.2354 C   0  0  0  0  0  0  0  0  0  0  0  0
   52.4192    7.6571   15.8760 O   0  0  0  0  0  0  0  0  0  0  0  0
   48.6832    6.3983   12.7940 O   0  0  0  0  0  0  0  0  0  0  0  0
   48.5938    6.0902   19.0958 O   0  0  0  0  0  0  0  0  0  0  0  0
   49.2874    8.0201   20.4011 C   0  0  0  0  0  0  0  0  0  0  0  0
   49.7697    7.9386   11.6066 O   0  0  0  0  0  0  0  0  0  0  0  0
   48.1681    9.7451   13.6870 C   0  0  0  0  0  0  0  0  0  0  0  0
   50.0938   10.2725   15.1795 C   0  0  0  0  0  0  0  0  0  0  0  0
   49.1013    7.3493   21.7391 C   0  0  0  0  0  0  0  0  0  0  0  0
   50.2107    6.9373   22.4912 C   0  0  0  0  0  0  0  0  0  0  0  0
   47.8140    7.1115   22.2401 C   0  0  0  0  0  0  0  0  0  0  0  0
   50.0337    6.3183   23.7296 C   0  0  0  0  0  0  0  0  0  0  0  0
   47.6405    6.4925   23.4794 C   0  0  0  0  0  0  0  0  0  0  0  0
   48.7499    6.0988   24.2250 C   0  0  0  0  0  0  0  0  0  0  0  0
   50.8285    8.7617   16.7502 N   0  0  0  0  0  0  0  0  0  0  0  0
   50.6439    7.0190   19.0551 N   0  0  0  0  0  0  0  0  0  0  0  0
   49.4703    5.9833   20.9926 C   0  0  0  0  0  0  0  0  0  0  0  0
   50.1375    9.5586   14.4945 C   0  0  0  0  0  0  0  0  0  0  0  0
   50.7939    9.8831   15.8169 C   0  0  0  0  0  0  0  0  0  0  0  0
   50.5602    5.8706   19.9509 C   0  0  0  0  0  0  0  0  0  0  0  0
   49.5160    8.4312   17.3118 C   0  0  0  0  0  0  0  0  0  0  0  0
   49.5247    7.1048   18.1130 C   0  0  0  0  0  0  0  0  0  0  0  0
   49.5734    6.9137   22.0378 C   0  0  0  0  0  0  0  0  0  0  0  0
   48.3345    5.1631   20.9243 C   0  0  0  0  0  0  0  0  0  0  0  0
   48.8926   10.1137   14.1624 C   0  0  0  0  0  0  0  0  0  0  0  0
   50.7582    8.6936   13.5800 C   0  0  0  0  0  0  0  0  0  0  0  0
   48.5591    7.0223   22.9909 C   0  0  0  0  0  0  0  0  0  0  0  0
   48.2808    9.8085   12.9453 C   0  0  0  0  0  0  0  0  0  0  0  0
   50.1445    8.3892   12.3627 C   0  0  0  0  0  0  0  0  0  0  0  0
   47.3224    5.2736   21.8791 C   0  0  0  0  0  0  0  0  0  0  0  0
   47.4342    6.2027   22.9113 C   0  0  0  0  0  0  0  0  0  0  0  0
   48.9061    8.9455   12.0468 C   0  0  0  0  0  0  0  0  0  0  0  0
   48.7460    8.5100   20.3717 N   0  0  0  0  0  0  0  0  0  0  0  0
   48.2467    8.0165   19.0728 C   0  0  1  0  0  0  0  0  0  0  0  0
   49.6246    9.3907   19.7968 C   0  0  0  0  0  0  0  0  0  0  0  0
   49.0140    9.1784   18.3961 C   0  0  1  0  0  0  0  0  0  0  0  0
   49.2545    7.5263   21.3300 C   0  0  2  0  0  0  0  0  0  0  0  0
   48.9535    6.3196   18.9668 S   0  0  0  0  0  0  0  0  0  0  0  0
   48.8597    6.1271   20.8158 C   0  0  0  0  0  0  0  0  0  0  0  0
   49.9634    8.8259   17.3058 N   0  0  0  0  0  0  0  0  0  0  0  0
   48.8031    7.7925   22.7633 C   0  0  0  0  0  0  0  0  0  0  0  0
   49.4915    8.4926   16.0515 C   0  0  0  0  0  0  0  0  0  0  0  0
   50.5873    9.9654   20.2520 O   0  0  0  0  0  0  0  0  0  0  0  0
   49.1098    7.1226   23.7394 O   0  0  0  0  0  0  0  0  0  0  0  0
   48.2914    8.5300   15.7890 O   0  0  0  0  0  0  0  0  0  0  0  0
   50.5642    8.0393   15.0753 C   0  0  0  0  0  0  0  0  0  0  0  0
   47.9950    8.8618   22.9147 O   0  0  0  0  0  0  0  0  0  0  0  0
   47.4309    5.6977   21.1758 C   0  0  0  0  0  0  0  0  0  0  0  0
   49.8606    5.0508   21.2430 C   0  0  0  0  0  0  0  0  0  0  0  0
   50.3862    8.5824   13.6794 C   0  0  0  0  0  0  0  0  0  0  0  0
   49.4562    8.0002   12.8055 C   0  0  0  0  0  0  0  0  0  0  0  0
   51.1375    9.6812   13.2360 C   0  0  0  0  0  0  0  0  0  0  0  0
   49.2922    8.4958   11.5110 C   0  0  0  0  0  0  0  0  0  0  0  0
   50.9729   10.1730   11.9394 C   0  0  0  0  0  0  0  0  0  0  0  0
   50.0534    9.5787   11.0765 C   0  0  0  0  0  0  0  0  0  0  0  0
   49.0484    7.6971   17.6134 O   0  0  0  0  0  0  0  0  0  0  0  0
   49.0478    7.6957   17.6180 O   0  0  0  0  0  0  0  0  0  0  0  0
   49.0477    7.6955   17.6185 O   0  0  0  0  0  0  0  0  0  0  0  0
   49.7342    8.0497   17.0264 H   0  0  0  0  0  0  0  0  0  0  0  0
   49.5034    7.5852   18.4611 H   0  0  0  0  0  0  0  0  0  0  0  0
   48.6790    5.8908   15.7546 H   0  0  0  0  0  0  0  0  0  0  0  0
   50.6365    5.5167   17.2406 H   0  0  0  0  0  0  0  0  0  0  0  0
   51.0708    8.4304   13.6490 H   0  0  0  0  0  0  0  0  0  0  0  0
   50.8332    8.2196   18.3808 H   0  0  0  0  0  0  0  0  0  0  0  0
   48.4621    8.7166   20.2094 H   0  0  0  0  0  0  0  0  0  0  0  0
   50.1960    8.6338   20.4341 H   0  0  0  0  0  0  0  0  0  0  0  0
   49.3010    7.3968   10.9355 H   0  0  0  0  0  0  0  0  0  0  0  0
   47.5957   10.5363   14.1884 H   0  0  0  0  0  0  0  0  0  0  0  0
   47.4470    9.0021   13.3285 H   0  0  0  0  0  0  0  0  0  0  0  0
   48.6430   10.2009   12.8107 H   0  0  0  0  0  0  0  0  0  0  0  0
   50.6440   10.7671   14.3683 H   0  0  0  0  0  0  0  0  0  0  0  0
   50.8322    9.9193   15.9048 H   0  0  0  0  0  0  0  0  0  0  0  0
   49.4890   11.0416   15.6724 H   0  0  0  0  0  0  0  0  0  0  0  0
   51.2201    7.0954   22.1199 H   0  0  0  0  0  0  0  0  0  0  0  0
   46.9375    7.4005   21.6639 H   0  0  0  0  0  0  0  0  0  0  0  0
   50.8987    6.0029   24.3083 H   0  0  0  0  0  0  0  0  0  0  0  0
   46.6380    6.3118   23.8593 H   0  0  0  0  0  0  0  0  0  0  0  0
   48.6127    5.6145   25.1883 H   0  0  0  0  0  0  0  0  0  0  0  0
   51.2258    7.9357   16.3072 H   0  0  0  0  0  0  0  0  0  0  0  0
   50.7083    7.8849   19.5872 H   0  0  0  0  0  0  0  0  0  0  0  0
   51.8251   10.1961   15.6140 H   0  0  0  0  0  0  0  0  0  0  0  0
   50.3151   10.7521   16.2848 H   0  0  0  0  0  0  0  0  0  0  0  0
   50.4500    4.9450   19.3726 H   0  0  0  0  0  0  0  0  0  0  0  0
   51.5183    5.7695   20.4764 H   0  0  0  0  0  0  0  0  0  0  0  0
   48.7568    8.3316   16.5291 H   0  0  0  0  0  0  0  0  0  0  0  0
   49.2020    9.2440   17.9787 H   0  0  0  0  0  0  0  0  0  0  0  0
   49.5908    6.2680   17.4076 H   0  0  0  0  0  0  0  0  0  0  0  0
   48.5601    7.0309   18.6286 H   0  0  0  0  0  0  0  0  0  0  0  0
   50.4467    7.5573   22.1135 H   0  0  0  0  0  0  0  0  0  0  0  0
   48.2308    4.4357   20.1224 H   0  0  0  0  0  0  0  0  0  0  0  0
   48.3908   10.7862   14.8549 H   0  0  0  0  0  0  0  0  0  0  0  0
   51.7263    8.2557   13.8122 H   0  0  0  0  0  0  0  0  0  0  0  0
   48.6475    7.7468   23.7976 H   0  0  0  0  0  0  0  0  0  0  0  0
   47.3161   10.2446   12.6981 H   0  0  0  0  0  0  0  0  0  0  0  0
   50.6342    7.7192   11.6610 H   0  0  0  0  0  0  0  0  0  0  0  0
   46.4460    4.6340   21.8177 H   0  0  0  0  0  0  0  0  0  0  0  0
   46.6456    6.2892   23.6539 H   0  0  0  0  0  0  0  0  0  0  0  0
   48.4292    8.7082   11.0996 H   0  0  0  0  0  0  0  0  0  0  0  0
   47.1565    8.0678   18.9945 H   0  0  0  0  0  0  0  0  0  0  0  0
   48.3791   10.0258   18.1045 H   0  0  0  0  0  0  0  0  0  0  0  0
   50.3504    7.6261   21.3506 H   0  0  0  0  0  0  0  0  0  0  0  0
   50.9425    8.6702   17.5263 H   0  0  0  0  0  0  0  0  0  0  0  0
   50.5528    6.9441   15.0527 H   0  0  0  0  0  0  0  0  0  0  0  0
   51.5552    8.3253   15.4507 H   0  0  0  0  0  0  0  0  0  0  0  0
   47.8581    8.9309   23.8816 H   0  0  0  0  0  0  0  0  0  0  0  0
   47.1584    4.7605   20.6731 H   0  0  0  0  0  0  0  0  0  0  0  0
   47.3328    5.5172   22.2517 H   0  0  0  0  0  0  0  0  0  0  0  0
   46.6862    6.4544   20.9054 H   0  0  0  0  0  0  0  0  0  0  0  0
   49.6348    4.0804   20.7817 H   0  0  0  0  0  0  0  0  0  0  0  0
   50.8891    5.3181   20.9736 H   0  0  0  0  0  0  0  0  0  0  0  0
   49.8366    4.9034   22.3286 H   0  0  0  0  0  0  0  0  0  0  0  0
   48.8441    7.1618   13.1345 H   0  0  0  0  0  0  0  0  0  0  0  0
   51.8600   10.1613   13.8933 H   0  0  0  0  0  0  0  0  0  0  0  0
   48.5671    8.0374   10.8432 H   0  0  0  0  0  0  0  0  0  0  0  0
   51.5620   11.0210   11.6016 H   0  0  0  0  0  0  0  0  0  0  0  0
   49.9241    9.9645   10.0685 H   0  0  0  0  0  0  0  0  0  0  0  0
   49.5039    7.5853   18.4612 H   0  0  0  0  0  0  0  0  0  0  0  0
   49.7336    8.0496   17.0262 H   0  0  0  0  0  0  0  0  0  0  0  0
   49.5129    7.5879   18.4608 H   0  0  0  0  0  0  0  0  0  0  0  0
   49.7251    8.0485   17.0219 H   0  0  0  0  0  0  0  0  0  0  0  0
   49.5135    7.5879   18.4612 H   0  0  0  0  0  0  0  0  0  0  0  0
   49.7247    8.0486   17.0211 H   0  0  0  0  0  0  0  0  0  0  0  0
  3  2  1  0
  4  2  1  0
  5  3  1  0
  6  2  1  0
  3  7  1  0
  8  6  1  0
  5  9  1  0
  6 10  1  0
 11  9  1  0
 12  4  2  0
 13 10  2  0
 14 11  2  0
 15 11  1  0
 16 10  1  0
 17  8  1  0
 18  8  1  0
 19 15  1  0
 20 19  2  0
 21 19  1  0
 22 20  1  0
 23 21  2  0
 24 23  1  0
  7  8  1  0
  4  5  1  0
 24 22  2  0
 26 32  1  0
 27 30  1  0
 28 29  1  0
 29 25  1  0
 30 26  1  0
 31 25  1  0
 32 31  1  0
 33 27  2  0
 34 27  1  0
 35 28  2  0
 36 28  1  0
 37 33  1  0
 38 35  1  0
 39 36  2  0
 40 34  2  0
 41 37  2  0
 42 39  1  0
 42 38  2  0
 40 41  1  0
 44 43  1  0
 45 43  1  0
 46 44  1  0
 47 43  1  0
 44 48  1  0
 49 47  1  0
 46 50  1  0
 47 51  1  0
 52 50  1  0
 53 45  2  0
 54 51  2  0
 55 52  2  0
 56 52  1  0
 57 51  1  0
 58 49  1  0
 59 49  1  0
 60 56  1  0
 61 60  2  0
 62 60  1  0
 63 61  1  0
 64 62  2  0
 65 64  1  0
 48 49  1  0
 45 46  1  0
 65 63  2  0
  1 69  1  0
  1 70  1  0
  3 71  1  6
  5 72  1  6
  6 73  1  1
  9 74  1  0
 15 75  1  0
 15 76  1  0
 16 77  1  0
 17 78  1  0
 17 79  1  0
 17 80  1  0
 18 81  1  0
 18 82  1  0
 18 83  1  0
 20 84  1  0
 21 85  1  0
 22 86  1  0
 23 87  1  0
 24 88  1  0
 25 89  1  0
 26 90  1  0
 29 91  1  0
 29 92  1  0
 30 93  1  0
 30 94  1  0
 31 95  1  0
 31 96  1  0
 32 97  1  0
 32 98  1  0
 33 99  1  0
 34100  1  0
 35101  1  0
 36102  1  0
 37103  1  0
 38104  1  0
 39105  1  0
 40106  1  0
 41107  1  0
 42108  1  0
 44109  1  6
 46110  1  1
 47111  1  6
 50112  1  0
 56113  1  0
 56114  1  0
 57115  1  0
 58116  1  0
 58117  1  0
 58118  1  0
 59119  1  0
 59120  1  0
 59121  1  0
 61122  1  0
 62123  1  0
 63124  1  0
 64125  1  0
 65126  1  0
 66127  1  0
 66128  1  0
 67129  1  0
 67130  1  0
 68131  1  0
 68132  1  0
M  END
> <Uni-Dock RESULT> 
ENERGY=   -5.939  LOWER_BOUND=    2.111  UPPER_BOUND=    7.600
INTER + INTRA:          -5.939
INTER:                  -5.939
INTRA:                   0.000
UNBOUND:                 0.000

$$$$

     RDKit          3D

132133  0  0  0  0  0  0  0  0999 V2000
   49.9169    7.5736   16.4480 O   0  0  0  0  0  0  0  0  0  0  0  0
   47.7513    7.7055   18.5349 N   0  0  0  0  0  0  0  0  0  0  0  0
   48.2707    7.1400   17.2773 C   0  0  1  0  0  0  0  0  0  0  0  0
   48.1410    8.9781   18.2300 C   0  0  0  0  0  0  0  0  0  0  0  0
   48.3982    8.5980   16.7527 C   0  0  1  0  0  0  0  0  0  0  0  0
   48.1517    7.0518   19.7733 C   0  0  2  0  0  0  0  0  0  0  0  0
   49.8310    6.2804   17.7510 S   0  0  0  0  0  0  0  0  0  0  0  0
   49.5787    6.4905   19.5760 C   0  0  0  0  0  0  0  0  0  0  0  0
   49.7083    9.0129   16.1836 N   0  0  0  0  0  0  0  0  0  0  0  0
   47.1068    5.9833   20.0840 C   0  0  0  0  0  0  0  0  0  0  0  0
   50.1269    8.5198   14.9634 C   0  0  0  0  0  0  0  0  0  0  0  0
   48.3121    9.9482   18.9316 O   0  0  0  0  0  0  0  0  0  0  0  0
   46.4760    5.3069   19.2885 O   0  0  0  0  0  0  0  0  0  0  0  0
   49.4092    7.7908   14.2842 O   0  0  0  0  0  0  0  0  0  0  0  0
   51.5422    8.9183   14.5816 C   0  0  0  0  0  0  0  0  0  0  0  0
   46.9459    5.7882   21.4123 O   0  0  0  0  0  0  0  0  0  0  0  0
   49.8398    5.1360   20.2475 C   0  0  0  0  0  0  0  0  0  0  0  0
   50.6359    7.4917   20.0708 C   0  0  0  0  0  0  0  0  0  0  0  0
   51.6916    9.3045   13.1313 C   0  0  0  0  0  0  0  0  0  0  0  0
   51.4955   10.6312   12.7222 C   0  0  0  0  0  0  0  0  0  0  0  0
   52.0104    8.3364   12.1690 C   0  0  0  0  0  0  0  0  0  0  0  0
   51.6363   10.9842   11.3792 C   0  0  0  0  0  0  0  0  0  0  0  0
   52.1510    8.6929   10.8265 C   0  0  0  0  0  0  0  0  0  0  0  0
   51.9669   10.0167   10.4324 C   0  0  0  0  0  0  0  0  0  0  0  0
   50.0076    8.8292   18.3087 N   0  0  0  0  0  0  0  0  0  0  0  0
   49.7444    9.6297   15.5385 N   0  0  0  0  0  0  0  0  0  0  0  0
   50.0935    9.3641   13.0867 C   0  0  0  0  0  0  0  0  0  0  0  0
   49.6831    7.2667   20.2201 C   0  0  0  0  0  0  0  0  0  0  0  0
   50.4855    8.3975   19.6182 C   0  0  0  0  0  0  0  0  0  0  0  0
   49.2493    9.9388   14.2014 C   0  0  0  0  0  0  0  0  0  0  0  0
   50.2843    7.8645   17.2409 C   0  0  0  0  0  0  0  0  0  0  0  0
   49.5732    8.2229   15.9115 C   0  0  0  0  0  0  0  0  0  0  0  0
   51.3791    9.8652   12.8318 C   0  0  0  0  0  0  0  0  0  0  0  0
   49.6057    8.3141   12.2948 C   0  0  0  0  0  0  0  0  0  0  0  0
   50.2387    5.9840   20.3393 C   0  0  0  0  0  0  0  0  0  0  0  0
   48.3687    7.4786   20.6644 C   0  0  0  0  0  0  0  0  0  0  0  0
   52.1597    9.3237   11.8090 C   0  0  0  0  0  0  0  0  0  0  0  0
   49.4962    4.9365   20.8871 C   0  0  0  0  0  0  0  0  0  0  0  0
   47.6272    6.4292   21.2121 C   0  0  0  0  0  0  0  0  0  0  0  0
   50.3883    7.7752   11.2724 C   0  0  0  0  0  0  0  0  0  0  0  0
   51.6644    8.2791   11.0298 C   0  0  0  0  0  0  0  0  0  0  0  0
   48.1907    5.1590   21.3218 C   0  0  0  0  0  0  0  0  0  0  0  0
   52.0503    8.4025   14.6808 N   0  0  0  0  0  0  0  0  0  0  0  0
   51.0853    7.4280   15.2280 C   0  0  1  0  0  0  0  0  0  0  0  0
   52.3181    8.9550   15.9060 C   0  0  0  0  0  0  0  0  0  0  0  0
   51.5608    7.8323   16.6448 C   0  0  1  0  0  0  0  0  0  0  0  0
   51.6025    9.2749   13.5931 C   0  0  2  0  0  0  0  0  0  0  0  0
   49.4624    8.0626   14.6334 S   0  0  0  0  0  0  0  0  0  0  0  0
   50.2513    8.7317   13.0859 C   0  0  0  0  0  0  0  0  0  0  0  0
   50.5199    8.2634   17.6169 N   0  0  0  0  0  0  0  0  0  0  0  0
   52.6408    9.4396   12.4869 C   0  0  0  0  0  0  0  0  0  0  0  0
   49.7062    7.3291   18.2268 C   0  0  0  0  0  0  0  0  0  0  0  0
   52.8305   10.0087   16.2087 O   0  0  0  0  0  0  0  0  0  0  0  0
   52.5069   10.1290   11.4857 O   0  0  0  0  0  0  0  0  0  0  0  0
   49.8534    6.1253   18.0270 O   0  0  0  0  0  0  0  0  0  0  0  0
   48.6129    7.9211   19.1003 C   0  0  0  0  0  0  0  0  0  0  0  0
   53.7810    8.7428   12.6701 O   0  0  0  0  0  0  0  0  0  0  0  0
   50.3675    7.5807   12.0774 C   0  0  0  0  0  0  0  0  0  0  0  0
   49.3568    9.8399   12.5253 C   0  0  0  0  0  0  0  0  0  0  0  0
   48.4023    7.1812   20.3978 C   0  0  0  0  0  0  0  0  0  0  0  0
   47.6660    5.9876   20.4218 C   0  0  0  0  0  0  0  0  0  0  0  0
   48.9456    7.6668   21.5967 C   0  0  0  0  0  0  0  0  0  0  0  0
   47.4638    5.3026   21.6210 C   0  0  0  0  0  0  0  0  0  0  0  0
   48.7393    6.9805   22.7953 C   0  0  0  0  0  0  0  0  0  0  0  0
   47.9962    5.8012   22.8080 C   0  0  0  0  0  0  0  0  0  0  0  0
   49.9169    7.5737   16.4479 O   0  0  0  0  0  0  0  0  0  0  0  0
   49.9182    7.5750   16.4434 O   0  0  0  0  0  0  0  0  0  0  0  0
   49.9183    7.5751   16.4429 O   0  0  0  0  0  0  0  0  0  0  0  0
   49.7754    7.9551   17.3275 H   0  0  0  0  0  0  0  0  0  0  0  0
   50.1559    8.3358   15.9000 H   0  0  0  0  0  0  0  0  0  0  0  0
   47.5419    6.5152   16.7534 H   0  0  0  0  0  0  0  0  0  0  0  0
   47.5719    8.9142   16.1023 H   0  0  0  0  0  0  0  0  0  0  0  0
   48.1180    7.7972   20.5781 H   0  0  0  0  0  0  0  0  0  0  0  0
   50.3729    9.5062   16.7721 H   0  0  0  0  0  0  0  0  0  0  0  0
   52.2005    8.0733   14.8175 H   0  0  0  0  0  0  0  0  0  0  0  0
   51.8860    9.7502   15.2085 H   0  0  0  0  0  0  0  0  0  0  0  0
   46.2502    5.0976   21.4651 H   0  0  0  0  0  0  0  0  0  0  0  0
   50.8743    4.8018   20.0951 H   0  0  0  0  0  0  0  0  0  0  0  0
   49.1849    4.3455   19.8642 H   0  0  0  0  0  0  0  0  0  0  0  0
   49.6828    5.2053   21.3300 H   0  0  0  0  0  0  0  0  0  0  0  0
   50.5287    7.6555   21.1511 H   0  0  0  0  0  0  0  0  0  0  0  0
   50.5523    8.4675   19.5843 H   0  0  0  0  0  0  0  0  0  0  0  0
   51.6543    7.1248   19.9015 H   0  0  0  0  0  0  0  0  0  0  0  0
   51.2326   11.3996   13.4448 H   0  0  0  0  0  0  0  0  0  0  0  0
   52.1437    7.2961   12.4586 H   0  0  0  0  0  0  0  0  0  0  0  0
   51.4845   12.0155   11.0694 H   0  0  0  0  0  0  0  0  0  0  0  0
   52.3977    7.9347   10.0874 H   0  0  0  0  0  0  0  0  0  0  0  0
   52.0740   10.2918    9.3864 H   0  0  0  0  0  0  0  0  0  0  0  0
   49.0096    9.0279   18.3363 H   0  0  0  0  0  0  0  0  0  0  0  0
   50.7254    9.8884   15.6263 H   0  0  0  0  0  0  0  0  0  0  0  0
   50.4330    9.2512   20.3043 H   0  0  0  0  0  0  0  0  0  0  0  0
   51.5491    8.1337   19.5664 H   0  0  0  0  0  0  0  0  0  0  0  0
   48.2044    9.6206   14.1004 H   0  0  0  0  0  0  0  0  0  0  0  0
   49.2312   11.0294   14.0813 H   0  0  0  0  0  0  0  0  0  0  0  0
   49.9635    6.8549   17.5177 H   0  0  0  0  0  0  0  0  0  0  0  0
   51.3668    7.8333   17.0645 H   0  0  0  0  0  0  0  0  0  0  0  0
   48.5023    8.0125   16.0175 H   0  0  0  0  0  0  0  0  0  0  0  0
   49.9701    7.5525   15.1403 H   0  0  0  0  0  0  0  0  0  0  0  0
   51.7767   10.6817   13.4301 H   0  0  0  0  0  0  0  0  0  0  0  0
   48.6131    7.9073   12.4743 H   0  0  0  0  0  0  0  0  0  0  0  0
   51.2553    5.7942   20.0013 H   0  0  0  0  0  0  0  0  0  0  0  0
   47.9182    8.4656   20.5882 H   0  0  0  0  0  0  0  0  0  0  0  0
   53.1554    9.7185   11.6189 H   0  0  0  0  0  0  0  0  0  0  0  0
   49.9369    3.9465   20.9749 H   0  0  0  0  0  0  0  0  0  0  0  0
   46.6106    6.6041   21.5542 H   0  0  0  0  0  0  0  0  0  0  0  0
   50.0019    6.9616   10.6643 H   0  0  0  0  0  0  0  0  0  0  0  0
   52.2738    7.8586   10.2344 H   0  0  0  0  0  0  0  0  0  0  0  0
   47.6131    4.3430   21.7479 H   0  0  0  0  0  0  0  0  0  0  0  0
   51.3142    6.3992   14.9338 H   0  0  0  0  0  0  0  0  0  0  0  0
   52.2560    7.1179   17.1057 H   0  0  0  0  0  0  0  0  0  0  0  0
   51.4702   10.2826   14.0155 H   0  0  0  0  0  0  0  0  0  0  0  0
   50.2981    9.2504   17.7070 H   0  0  0  0  0  0  0  0  0  0  0  0
   47.6850    7.9221   18.5178 H   0  0  0  0  0  0  0  0  0  0  0  0
   48.8371    8.9736   19.3167 H   0  0  0  0  0  0  0  0  0  0  0  0
   54.3541    9.0092   11.9225 H   0  0  0  0  0  0  0  0  0  0  0  0
   49.3844    7.1451   11.8555 H   0  0  0  0  0  0  0  0  0  0  0  0
   50.7782    7.9314   11.1244 H   0  0  0  0  0  0  0  0  0  0  0  0
   51.0201    6.7762   12.4343 H   0  0  0  0  0  0  0  0  0  0  0  0
   48.3570    9.4645   12.2701 H   0  0  0  0  0  0  0  0  0  0  0  0
   49.2329   10.6650   13.2363 H   0  0  0  0  0  0  0  0  0  0  0  0
   49.7846   10.2617   11.6089 H   0  0  0  0  0  0  0  0  0  0  0  0
   47.2547    5.5778   19.5005 H   0  0  0  0  0  0  0  0  0  0  0  0
   49.5301    8.5849   21.6097 H   0  0  0  0  0  0  0  0  0  0  0  0
   46.8928    4.3776   21.6269 H   0  0  0  0  0  0  0  0  0  0  0  0
   49.1589    7.3655   23.7205 H   0  0  0  0  0  0  0  0  0  0  0  0
   47.8390    5.2663   23.7411 H   0  0  0  0  0  0  0  0  0  0  0  0
   50.1559    8.3363   15.9002 H   0  0  0  0  0  0  0  0  0  0  0  0
   49.7754    7.9545   17.3274 H   0  0  0  0  0  0  0  0  0  0  0  0
   50.1560    8.3443   15.9050 H   0  0  0  0  0  0  0  0  0  0  0  0
   49.7740    7.9451   17.3271 H   0  0  0  0  0  0  0  0  0  0  0  0
   50.1562    8.3451   15.9049 H   0  0  0  0  0  0  0  0  0  0  0  0
   49.7738    7.9443   17.3276 H   0  0  0  0  0  0  0  0  0  0  0  0
  3  2  1  0
  4  2  1  0
  5  3  1  0
  6  2  1  0
  3  7  1  0
  8  6  1  0
  5  9  1  0
  6 10  1  0
 11  9  1  0
 12  4  2  0
 13 10  2  0
 14 11  2  0
 15 11  1  0
 16 10  1  0
 17  8  1  0
 18  8  1  0
 19 15  1  0
 20 19  2  0
 21 19  1  0
 22 20  1  0
 23 21  2  0
 24 23  1  0
  7  8  1  0
  4  5  1  0
 24 22  2  0
 26 32  1  0
 27 30  1  0
 28 29  1  0
 29 25  1  0
 30 26  1  0
 31 25  1  0
 32 31  1  0
 33 27  2  0
 34 27  1  0
 35 28  2  0
 36 28  1  0
 37 33  1  0
 38 35  1  0
 39 36  2  0
 40 34  2  0
 41 37  2  0
 42 39  1  0
 42 38  2  0
 40 41  1  0
 44 43  1  0
 45 43  1  0
 46 44  1  0
 47 43  1  0
 44 48  1  0
 49 47  1  0
 46 50  1  0
 47 51  1  0
 52 50  1  0
 53 45  2  0
 54 51  2  0
 55 52  2  0
 56 52  1  0
 57 51  1  0
 58 49  1  0
 59 49  1  0
 60 56  1  0
 61 60  2  0
 62 60  1  0
 63 61  1  0
 64 62  2  0
 65 64  1  0
 48 49  1  0
 45 46  1  0
 65 63  2  0
  1 69  1  0
  1 70  1  0
  3 71  1  6
  5 72  1  6
  6 73  1  1
  9 74  1  0
 15 75  1  0
 15 76  1  0
 16 77  1  0
 17 78  1  0
 17 79  1  0
 17 80  1  0
 18 81  1  0
 18 82  1  0
 18 83  1  0
 20 84  1  0
 21 85  1  0
 22 86  1  0
 23 87  1  0
 24 88  1  0
 25 89  1  0
 26 90  1  0
 29 91  1  0
 29 92  1  0
 30 93  1  0
 30 94  1  0
 31 95  1  0
 31 96  1  0
 32 97  1  0
 32 98  1  0
 33 99  1  0
 34100  1  0
 35101  1  0
 36102  1  0
 37103  1  0
 38104  1  0
 39105  1  0
 40106  1  0
 41107  1  0
 42108  1  0
 44109  1  6
 46110  1  1
 47111  1  6
 50112  1  0
 56113  1  0
 56114  1  0
 57115  1  0
 58116  1  0
 58117  1  0
 58118  1  0
 59119  1  0
 59120  1  0
 59121  1  0
 61122  1  0
 62123  1  0
 63124  1  0
 64125  1  0
 65126  1  0
 66127  1  0
 66128  1  0
 67129  1  0
 67130  1  0
 68131  1  0
 68132  1  0
M  END
> <Uni-Dock RESULT> 
ENERGY=   -5.838  LOWER_BOUND=    2.224  UPPER_BOUND=    3.708
INTER + INTRA:          -5.838
INTER:                  -5.838
INTRA:                   0.000
UNBOUND:                 0.000

$$$$

     RDKit          3D

132133  0  0  0  0  0  0  0  0999 V2000
   51.2174    7.0934   17.1581 O   0  0  0  0  0  0  0  0  0  0  0  0
   49.4169    9.3387   16.2754 N   0  0  0  0  0  0  0  0  0  0  0  0
   50.7681    8.8437   16.5922 C   0  0  1  0  0  0  0  0  0  0  0  0
   48.8373    8.7073   17.3382 C   0  0  0  0  0  0  0  0  0  0  0  0
   50.2143    8.4214   17.9823 C   0  0  1  0  0  0  0  0  0  0  0  0
   48.9417    9.1479   14.9118 C   0  0  2  0  0  0  0  0  0  0  0  0
   51.0806    7.4990   15.3709 S   0  0  0  0  0  0  0  0  0  0  0  0
   49.5541    7.8345   14.3731 C   0  0  0  0  0  0  0  0  0  0  0  0
   50.4577    7.0221   18.4242 N   0  0  0  0  0  0  0  0  0  0  0  0
   49.3392   10.3862   14.1125 C   0  0  0  0  0  0  0  0  0  0  0  0
   51.7266    6.6156   18.7878 C   0  0  0  0  0  0  0  0  0  0  0  0
   47.6849    8.4138   17.5584 O   0  0  0  0  0  0  0  0  0  0  0  0
   50.3386   11.0718   14.2519 O   0  0  0  0  0  0  0  0  0  0  0  0
   52.6673    7.4039   18.8279 O   0  0  0  0  0  0  0  0  0  0  0  0
   51.8471    5.1290   19.0760 C   0  0  0  0  0  0  0  0  0  0  0  0
   48.4579   10.6705   13.1272 O   0  0  0  0  0  0  0  0  0  0  0  0
   49.9555    7.8671   12.8927 C   0  0  0  0  0  0  0  0  0  0  0  0
   48.5961    6.6516   14.5925 C   0  0  0  0  0  0  0  0  0  0  0  0
   52.6939    4.8134   20.2835 C   0  0  0  0  0  0  0  0  0  0  0  0
   52.1178    4.7401   21.5597 C   0  0  0  0  0  0  0  0  0  0  0  0
   54.0738    4.6078   20.1476 C   0  0  0  0  0  0  0  0  0  0  0  0
   52.9052    4.4463   22.6740 C   0  0  0  0  0  0  0  0  0  0  0  0
   54.8584    4.3137   21.2643 C   0  0  0  0  0  0  0  0  0  0  0  0
   54.2737    4.2300   22.5264 C   0  0  0  0  0  0  0  0  0  0  0  0
   49.0010    6.9074   16.8419 N   0  0  0  0  0  0  0  0  0  0  0  0
   50.5405    6.8318   19.2930 N   0  0  0  0  0  0  0  0  0  0  0  0
   52.5812    6.3681   20.6437 C   0  0  0  0  0  0  0  0  0  0  0  0
   48.5676    7.6373   14.5009 C   0  0  0  0  0  0  0  0  0  0  0  0
   48.3319    6.6058   15.5804 C   0  0  0  0  0  0  0  0  0  0  0  0
   51.3095    7.1704   20.4856 C   0  0  0  0  0  0  0  0  0  0  0  0
   50.4551    6.7352   16.7853 C   0  0  0  0  0  0  0  0  0  0  0  0
   51.1716    7.2775   18.0478 C   0  0  0  0  0  0  0  0  0  0  0  0
   52.5301    4.9991   20.9472 C   0  0  0  0  0  0  0  0  0  0  0  0
   53.8326    6.9805   20.4811 C   0  0  0  0  0  0  0  0  0  0  0  0
   49.3568    7.3300   13.3825 C   0  0  0  0  0  0  0  0  0  0  0  0
   48.0064    8.9199   14.6012 C   0  0  0  0  0  0  0  0  0  0  0  0
   53.7066    4.2597   21.0808 C   0  0  0  0  0  0  0  0  0  0  0  0
   49.5825    8.2840   12.3888 C   0  0  0  0  0  0  0  0  0  0  0  0
   48.2335    9.8733   13.6059 C   0  0  0  0  0  0  0  0  0  0  0  0
   55.0071    6.2387   20.6160 C   0  0  0  0  0  0  0  0  0  0  0  0
   54.9445    4.8793   20.9151 C   0  0  0  0  0  0  0  0  0  0  0  0
   49.0222    9.5553   12.5015 C   0  0  0  0  0  0  0  0  0  0  0  0
   52.1450    4.7296   18.5414 N   0  0  0  0  0  0  0  0  0  0  0  0
   52.3083    5.8888   17.6415 C   0  0  1  0  0  0  0  0  0  0  0  0
   50.8794    4.4521   18.0947 C   0  0  0  0  0  0  0  0  0  0  0  0
   51.0100    5.4472   16.9232 C   0  0  1  0  0  0  0  0  0  0  0  0
   52.3602    4.9380   19.9749 C   0  0  2  0  0  0  0  0  0  0  0  0
   52.2301    7.3270   18.7886 S   0  0  0  0  0  0  0  0  0  0  0  0
   53.0072    6.3265   20.1523 C   0  0  0  0  0  0  0  0  0  0  0  0
   49.9266    6.4584   16.7887 N   0  0  0  0  0  0  0  0  0  0  0  0
   53.1533    3.8134   20.6346 C   0  0  0  0  0  0  0  0  0  0  0  0
   50.0266    7.4663   15.8500 C   0  0  0  0  0  0  0  0  0  0  0  0
   49.9950    3.7812   18.5765 O   0  0  0  0  0  0  0  0  0  0  0  0
   53.4446    3.7524   21.8207 O   0  0  0  0  0  0  0  0  0  0  0  0
   50.9764    7.5237   15.0721 O   0  0  0  0  0  0  0  0  0  0  0  0
   48.9082    8.4934   15.9076 C   0  0  0  0  0  0  0  0  0  0  0  0
   53.5493    2.8318   19.7986 O   0  0  0  0  0  0  0  0  0  0  0  0
   54.5283    6.3492   19.9491 C   0  0  0  0  0  0  0  0  0  0  0  0
   52.6415    6.9673   21.4932 C   0  0  0  0  0  0  0  0  0  0  0  0
   48.4042    8.9218   14.5520 C   0  0  0  0  0  0  0  0  0  0  0  0
   49.1199    9.8599   13.7936 C   0  0  0  0  0  0  0  0  0  0  0  0
   47.2209    8.3841   14.0239 C   0  0  0  0  0  0  0  0  0  0  0  0
   48.6543   10.2635   12.5412 C   0  0  0  0  0  0  0  0  0  0  0  0
   46.7563    8.7919   12.7717 C   0  0  0  0  0  0  0  0  0  0  0  0
   47.4707    9.7333   12.0324 C   0  0  0  0  0  0  0  0  0  0  0  0
   51.2174    7.0933   17.1582 O   0  0  0  0  0  0  0  0  0  0  0  0
   51.2200    7.0916   17.1619 O   0  0  0  0  0  0  0  0  0  0  0  0
   51.2203    7.0914   17.1623 O   0  0  0  0  0  0  0  0  0  0  0  0
   50.2965    7.2244   16.8864 H   0  0  0  0  0  0  0  0  0  0  0  0
   51.1452    6.6846   18.0333 H   0  0  0  0  0  0  0  0  0  0  0  0
   51.5229    9.6348   16.6088 H   0  0  0  0  0  0  0  0  0  0  0  0
   50.4404    9.1309   18.7892 H   0  0  0  0  0  0  0  0  0  0  0  0
   47.8455    9.1029   14.9364 H   0  0  0  0  0  0  0  0  0  0  0  0
   49.7364    6.3219   18.2803 H   0  0  0  0  0  0  0  0  0  0  0  0
   52.2682    4.6506   18.1834 H   0  0  0  0  0  0  0  0  0  0  0  0
   50.8531    4.6857   19.2129 H   0  0  0  0  0  0  0  0  0  0  0  0
   48.8246   11.4805   12.7113 H   0  0  0  0  0  0  0  0  0  0  0  0
   50.3586    6.9012   12.5617 H   0  0  0  0  0  0  0  0  0  0  0  0
   50.7183    8.6250   12.6824 H   0  0  0  0  0  0  0  0  0  0  0  0
   49.0858    8.0832   12.2617 H   0  0  0  0  0  0  0  0  0  0  0  0
   47.6694    6.8017   14.0232 H   0  0  0  0  0  0  0  0  0  0  0  0
   48.3160    6.5254   15.6421 H   0  0  0  0  0  0  0  0  0  0  0  0
   49.0324    5.7062   14.2515 H   0  0  0  0  0  0  0  0  0  0  0  0
   51.0528    4.9102   21.6962 H   0  0  0  0  0  0  0  0  0  0  0  0
   54.5476    4.6833   19.1710 H   0  0  0  0  0  0  0  0  0  0  0  0
   52.4512    4.3893   23.6606 H   0  0  0  0  0  0  0  0  0  0  0  0
   55.9280    4.1565   21.1489 H   0  0  0  0  0  0  0  0  0  0  0  0
   54.8868    4.0037   23.3949 H   0  0  0  0  0  0  0  0  0  0  0  0
   48.7829    7.8532   17.1488 H   0  0  0  0  0  0  0  0  0  0  0  0
   50.3705    5.8288   19.2487 H   0  0  0  0  0  0  0  0  0  0  0  0
   47.2526    6.5516   15.7658 H   0  0  0  0  0  0  0  0  0  0  0  0
   48.6153    5.6056   15.2299 H   0  0  0  0  0  0  0  0  0  0  0  0
   51.5241    8.2458   20.5065 H   0  0  0  0  0  0  0  0  0  0  0  0
   50.6830    6.9845   21.3672 H   0  0  0  0  0  0  0  0  0  0  0  0
   50.8879    7.2500   15.9212 H   0  0  0  0  0  0  0  0  0  0  0  0
   50.6808    5.6663   16.6834 H   0  0  0  0  0  0  0  0  0  0  0  0
   51.1581    8.3734   18.0166 H   0  0  0  0  0  0  0  0  0  0  0  0
   52.2177    6.9550   17.9908 H   0  0  0  0  0  0  0  0  0  0  0  0
   51.5714    4.5038   21.0818 H   0  0  0  0  0  0  0  0  0  0  0  0
   53.8980    8.0398   20.2436 H   0  0  0  0  0  0  0  0  0  0  0  0
   49.8036    6.3430   13.2824 H   0  0  0  0  0  0  0  0  0  0  0  0
   47.3859    9.1799   15.4557 H   0  0  0  0  0  0  0  0  0  0  0  0
   53.6573    3.1987   21.3158 H   0  0  0  0  0  0  0  0  0  0  0  0
   50.1956    8.0348   11.5261 H   0  0  0  0  0  0  0  0  0  0  0  0
   47.7934   10.8631   13.6925 H   0  0  0  0  0  0  0  0  0  0  0  0
   55.9721    6.7218   20.4878 H   0  0  0  0  0  0  0  0  0  0  0  0
   55.8591    4.3018   21.0190 H   0  0  0  0  0  0  0  0  0  0  0  0
   49.1985   10.2976   11.7276 H   0  0  0  0  0  0  0  0  0  0  0  0
   53.2198    5.8283   17.0392 H   0  0  0  0  0  0  0  0  0  0  0  0
   51.1789    4.9246   15.9721 H   0  0  0  0  0  0  0  0  0  0  0  0
   51.3726    4.9164   20.4604 H   0  0  0  0  0  0  0  0  0  0  0  0
   49.1964    6.5055   17.4931 H   0  0  0  0  0  0  0  0  0  0  0  0
   49.2832    9.3638   16.4572 H   0  0  0  0  0  0  0  0  0  0  0  0
   48.0701    8.0997   16.4969 H   0  0  0  0  0  0  0  0  0  0  0  0
   53.9749    2.1702   20.3812 H   0  0  0  0  0  0  0  0  0  0  0  0
   54.9149    7.3768   19.9521 H   0  0  0  0  0  0  0  0  0  0  0  0
   55.0421    5.8178   20.7575 H   0  0  0  0  0  0  0  0  0  0  0  0
   54.8316    5.8775   19.0079 H   0  0  0  0  0  0  0  0  0  0  0  0
   53.0126    7.9982   21.5652 H   0  0  0  0  0  0  0  0  0  0  0  0
   51.5574    6.9900   21.6541 H   0  0  0  0  0  0  0  0  0  0  0  0
   53.0823    6.4088   22.3266 H   0  0  0  0  0  0  0  0  0  0  0  0
   50.0538   10.2736   14.1714 H   0  0  0  0  0  0  0  0  0  0  0  0
   46.6479    7.6469   14.5833 H   0  0  0  0  0  0  0  0  0  0  0  0
   49.2185   10.9900   11.9618 H   0  0  0  0  0  0  0  0  0  0  0  0
   45.8364    8.3748   12.3716 H   0  0  0  0  0  0  0  0  0  0  0  0
   47.1097   10.0476   11.0564 H   0  0  0  0  0  0  0  0  0  0  0  0
   51.1448    6.6845   18.0336 H   0  0  0  0  0  0  0  0  0  0  0  0
   50.2969    7.2245   16.8860 H   0  0  0  0  0  0  0  0  0  0  0  0
   51.1359    6.6833   18.0363 H   0  0  0  0  0  0  0  0  0  0  0  0
   50.3033    7.2275   16.8795 H   0  0  0  0  0  0  0  0  0  0  0  0
   51.1355    6.6830   18.0369 H   0  0  0  0  0  0  0  0  0  0  0  0
   50.3034    7.2279   16.8787 H   0  0  0  0  0  0  0  0  0  0  0  0
  3  2  1  0
  4  2  1  0
  5  3  1  0
  6  2  1  0
  3  7  1  0
  8  6  1  0
  5  9  1  0
  6 10  1  0
 11  9  1  0
 12  4  2  0
 13 10  2  0
 14 11  2  0
 15 11  1  0
 16 10  1  0
 17  8  1  0
 18  8  1  0
 19 15  1  0
 20 19  2  0
 21 19  1  0
 22 20  1  0
 23 21  2  0
 24 23  1  0
  7  8  1  0
  4  5  1  0
 24 22  2  0
 26 32  1  0
 27 30  1  0
 28 29  1  0
 29 25  1  0
 30 26  1  0
 31 25  1  0
 32 31  1  0
 33 27  2  0
 34 27  1  0
 35 28  2  0
 36 28  1  0
 37 33  1  0
 38 35  1  0
 39 36  2  0
 40 34  2  0
 41 37  2  0
 42 39  1  0
 42 38  2  0
 40 41  1  0
 44 43  1  0
 45 43  1  0
 46 44  1  0
 47 43  1  0
 44 48  1  0
 49 47  1  0
 46 50  1  0
 47 51  1  0
 52 50  1  0
 53 45  2  0
 54 51  2  0
 55 52  2  0
 56 52  1  0
 57 51  1  0
 58 49  1  0
 59 49  1  0
 60 56  1  0
 61 60  2  0
 62 60  1  0
 63 61  1  0
 64 62  2  0
 65 64  1  0
 48 49  1  0
 45 46  1  0
 65 63  2  0
  1 69  1  0
  1 70  1  0
  3 71  1  6
  5 72  1  6
  6 73  1  1
  9 74  1  0
 15 75  1  0
 15 76  1  0
 16 77  1  0
 17 78  1  0
 17 79  1  0
 17 80  1  0
 18 81  1  0
 18 82  1  0
 18 83  1  0
 20 84  1  0
 21 85  1  0
 22 86  1  0
 23 87  1  0
 24 88  1  0
 25 89  1  0
 26 90  1  0
 29 91  1  0
 29 92  1  0
 30 93  1  0
 30 94  1  0
 31 95  1  0
 31 96  1  0
 32 97  1  0
 32 98  1  0
 33 99  1  0
 34100  1  0
 35101  1  0
 36102  1  0
 37103  1  0
 38104  1  0
 39105  1  0
 40106  1  0
 41107  1  0
 42108  1  0
 44109  1  6
 46110  1  1
 47111  1  6
 50112  1  0
 56113  1  0
 56114  1  0
 57115  1  0
 58116  1  0
 58117  1  0
 58118  1  0
 59119  1  0
 59120  1  0
 59121  1  0
 61122  1  0
 62123  1  0
 63124  1  0
 64125  1  0
 65126  1  0
 66127  1  0
 66128  1  0
 67129  1  0
 67130  1  0
 68131  1  0
 68132  1  0
M  END
> <Uni-Dock RESULT> 
ENERGY=   -5.616  LOWER_BOUND=    0.861  UPPER_BOUND=    7.912
INTER + INTRA:          -5.616
INTER:                  -5.616
INTRA:                   0.000
UNBOUND:                 0.000

$$$$

     RDKit          3D

132133  0  0  0  0  0  0  0  0999 V2000
   49.1627   10.5932   18.6142 O   0  0  0  0  0  0  0  0  0  0  0  0
   47.0759    8.7998   19.8353 N   0  0  0  0  0  0  0  0  0  0  0  0
   47.8900    9.1923   18.6716 C   0  0  1  0  0  0  0  0  0  0  0  0
   46.8099   10.0886   20.1990 C   0  0  0  0  0  0  0  0  0  0  0  0
   47.3200   10.6287   18.8422 C   0  0  1  0  0  0  0  0  0  0  0  0
   47.6609    7.8415   20.7631 C   0  0  2  0  0  0  0  0  0  0  0  0
   49.6350    8.9154   19.1966 S   0  0  0  0  0  0  0  0  0  0  0  0
   49.1892    8.0738   20.7876 C   0  0  0  0  0  0  0  0  0  0  0  0
   48.2924   11.7526   18.9034 N   0  0  0  0  0  0  0  0  0  0  0  0
   47.2574    6.4463   20.2931 C   0  0  0  0  0  0  0  0  0  0  0  0
   48.9809   12.1424   17.7713 C   0  0  0  0  0  0  0  0  0  0  0  0
   46.4345   10.5587   21.2481 O   0  0  0  0  0  0  0  0  0  0  0  0
   47.0957    6.0665   19.1451 O   0  0  0  0  0  0  0  0  0  0  0  0
   48.7617   11.6298   16.6772 O   0  0  0  0  0  0  0  0  0  0  0  0
   50.0400   13.2028   18.0192 C   0  0  0  0  0  0  0  0  0  0  0  0
   47.1235    5.5741   21.3176 O   0  0  0  0  0  0  0  0  0  0  0  0
   50.0358    6.7994   20.9008 C   0  0  0  0  0  0  0  0  0  0  0  0
   49.5820    9.0232   21.9320 C   0  0  0  0  0  0  0  0  0  0  0  0
   50.0783   14.2783   16.9626 C   0  0  0  0  0  0  0  0  0  0  0  0
   49.2840   15.4273   17.0847 C   0  0  0  0  0  0  0  0  0  0  0  0
   50.8958   14.1340   15.8332 C   0  0  0  0  0  0  0  0  0  0  0  0
   49.3238   16.4208   16.1051 C   0  0  0  0  0  0  0  0  0  0  0  0
   50.9337   15.1297   14.8553 C   0  0  0  0  0  0  0  0  0  0  0  0
   50.1503   16.2739   14.9929 C   0  0  0  0  0  0  0  0  0  0  0  0
   48.4986   10.6781   20.7586 N   0  0  0  0  0  0  0  0  0  0  0  0
   48.0645   12.5626   18.6036 N   0  0  0  0  0  0  0  0  0  0  0  0
   48.6643   13.7100   16.4758 C   0  0  0  0  0  0  0  0  0  0  0  0
   48.8549    8.3961   21.6892 C   0  0  0  0  0  0  0  0  0  0  0  0
   49.0371    9.8868   21.8603 C   0  0  0  0  0  0  0  0  0  0  0  0
   47.5733   13.2659   17.4236 C   0  0  0  0  0  0  0  0  0  0  0  0
   49.2851   10.5718   19.5268 C   0  0  0  0  0  0  0  0  0  0  0  0
   48.5816   11.2233   18.3095 C   0  0  0  0  0  0  0  0  0  0  0  0
   49.5517   14.7352   16.8367 C   0  0  0  0  0  0  0  0  0  0  0  0
   48.8100   13.0968   15.2227 C   0  0  0  0  0  0  0  0  0  0  0  0
   49.9594    7.5677   21.4398 C   0  0  0  0  0  0  0  0  0  0  0  0
   47.5793    7.8164   21.7711 C   0  0  0  0  0  0  0  0  0  0  0  0
   50.5648   15.1341   15.9631 C   0  0  0  0  0  0  0  0  0  0  0  0
   49.7921    6.1920   21.2730 C   0  0  0  0  0  0  0  0  0  0  0  0
   47.4138    6.4395   21.6037 C   0  0  0  0  0  0  0  0  0  0  0  0
   49.8235   13.4983   14.3511 C   0  0  0  0  0  0  0  0  0  0  0  0
   50.7006   14.5158   14.7210 C   0  0  0  0  0  0  0  0  0  0  0  0
   48.5196    5.6287   21.3535 C   0  0  0  0  0  0  0  0  0  0  0  0
   50.7278   12.9576   18.0475 N   0  0  0  0  0  0  0  0  0  0  0  0
   50.3315   11.5500   17.8439 C   0  0  1  0  0  0  0  0  0  0  0  0
   50.6060   12.8846   19.4106 C   0  0  0  0  0  0  0  0  0  0  0  0
   50.4499   11.3503   19.3745 C   0  0  1  0  0  0  0  0  0  0  0  0
   49.9841   13.9914   17.3243 C   0  0  2  0  0  0  0  0  0  0  0  0
   48.6507   11.6881   17.1049 S   0  0  0  0  0  0  0  0  0  0  0  0
   49.1119   13.2849   16.2670 C   0  0  0  0  0  0  0  0  0  0  0  0
   49.2684   10.7875   20.0828 N   0  0  0  0  0  0  0  0  0  0  0  0
   50.8798   15.0797   16.7392 C   0  0  0  0  0  0  0  0  0  0  0  0
   48.9794    9.4401   19.9943 C   0  0  0  0  0  0  0  0  0  0  0  0
   50.5129   13.7526   20.2486 O   0  0  0  0  0  0  0  0  0  0  0  0
   50.4927   16.0543   16.1101 O   0  0  0  0  0  0  0  0  0  0  0  0
   49.7121    8.6679   19.3798 O   0  0  0  0  0  0  0  0  0  0  0  0
   47.6799    9.0295   20.6665 C   0  0  0  0  0  0  0  0  0  0  0  0
   52.1998   14.9050   16.9540 O   0  0  0  0  0  0  0  0  0  0  0  0
   49.8466   12.9414   14.9640 C   0  0  0  0  0  0  0  0  0  0  0  0
   47.8287   14.0619   15.9635 C   0  0  0  0  0  0  0  0  0  0  0  0
   47.7726    7.7320   21.4303 C   0  0  0  0  0  0  0  0  0  0  0  0
   47.7179    6.5052   20.7527 C   0  0  0  0  0  0  0  0  0  0  0  0
   47.9248    7.7300   22.8250 C   0  0  0  0  0  0  0  0  0  0  0  0
   47.7976    5.3021   21.4558 C   0  0  0  0  0  0  0  0  0  0  0  0
   48.0015    6.5246   23.5259 C   0  0  0  0  0  0  0  0  0  0  0  0
   47.9347    5.3116   22.8422 C   0  0  0  0  0  0  0  0  0  0  0  0
   49.1627   10.5933   18.6142 O   0  0  0  0  0  0  0  0  0  0  0  0
   49.1634   10.5971   18.6111 O   0  0  0  0  0  0  0  0  0  0  0  0
   49.1635   10.5975   18.6108 O   0  0  0  0  0  0  0  0  0  0  0  0
   48.7929   10.3962   19.4880 H   0  0  0  0  0  0  0  0  0  0  0  0
   49.0329   11.5482   18.5171 H   0  0  0  0  0  0  0  0  0  0  0  0
   47.5995    8.6788   17.7507 H   0  0  0  0  0  0  0  0  0  0  0  0
   46.4912   10.8658   18.1620 H   0  0  0  0  0  0  0  0  0  0  0  0
   47.2110    8.0053   21.7506 H   0  0  0  0  0  0  0  0  0  0  0  0
   48.5874   12.1069   19.8082 H   0  0  0  0  0  0  0  0  0  0  0  0
   51.0107   12.6956   18.0777 H   0  0  0  0  0  0  0  0  0  0  0  0
   49.8874   13.6719   18.9990 H   0  0  0  0  0  0  0  0  0  0  0  0
   46.8550    4.7376   20.8797 H   0  0  0  0  0  0  0  0  0  0  0  0
   51.1086    7.0287   20.9398 H   0  0  0  0  0  0  0  0  0  0  0  0
   49.8813    6.1179   20.0569 H   0  0  0  0  0  0  0  0  0  0  0  0
   49.7921    6.2546   21.8201 H   0  0  0  0  0  0  0  0  0  0  0  0
   49.3353    8.5723   22.9021 H   0  0  0  0  0  0  0  0  0  0  0  0
   49.0630    9.9843   21.8789 H   0  0  0  0  0  0  0  0  0  0  0  0
   50.6580    9.2292   21.9383 H   0  0  0  0  0  0  0  0  0  0  0  0
   48.6293   15.5584   17.9426 H   0  0  0  0  0  0  0  0  0  0  0  0
   51.5030   13.2403   15.7043 H   0  0  0  0  0  0  0  0  0  0  0  0
   48.7063   17.3101   16.2073 H   0  0  0  0  0  0  0  0  0  0  0  0
   51.5704   15.0083   13.9826 H   0  0  0  0  0  0  0  0  0  0  0  0
   50.1790   17.0466   14.2292 H   0  0  0  0  0  0  0  0  0  0  0  0
   47.5325   10.4204   20.5678 H   0  0  0  0  0  0  0  0  0  0  0  0
   48.7834   13.1095   19.0737 H   0  0  0  0  0  0  0  0  0  0  0  0
   48.5256   10.1857   22.7831 H   0  0  0  0  0  0  0  0  0  0  0  0
   50.0938   10.1324   22.0234 H   0  0  0  0  0  0  0  0  0  0  0  0
   46.8291   12.6541   16.8992 H   0  0  0  0  0  0  0  0  0  0  0  0
   47.0300   14.1604   17.7535 H   0  0  0  0  0  0  0  0  0  0  0  0
   49.4837    9.5273   19.2651 H   0  0  0  0  0  0  0  0  0  0  0  0
   50.2525   11.0660   19.6812 H   0  0  0  0  0  0  0  0  0  0  0  0
   47.7478   10.5820   18.0001 H   0  0  0  0  0  0  0  0  0  0  0  0
   49.3079   11.2453   17.4886 H   0  0  0  0  0  0  0  0  0  0  0  0
   49.4554   15.2280   17.8014 H   0  0  0  0  0  0  0  0  0  0  0  0
   48.1357   12.2985   14.9211 H   0  0  0  0  0  0  0  0  0  0  0  0
   50.9583    7.9933   21.3709 H   0  0  0  0  0  0  0  0  0  0  0  0
   46.7084    8.4369   21.9696 H   0  0  0  0  0  0  0  0  0  0  0  0
   51.2485   15.9296   16.2517 H   0  0  0  0  0  0  0  0  0  0  0  0
   50.6552    5.5594   21.0805 H   0  0  0  0  0  0  0  0  0  0  0  0
   46.4219    6.0005   21.6702 H   0  0  0  0  0  0  0  0  0  0  0  0
   49.9288   13.0171   13.3825 H   0  0  0  0  0  0  0  0  0  0  0  0
   51.4903   14.8274   14.0427 H   0  0  0  0  0  0  0  0  0  0  0  0
   48.3901    4.5576   21.2233 H   0  0  0  0  0  0  0  0  0  0  0  0
   51.0555   10.9922   17.2421 H   0  0  0  0  0  0  0  0  0  0  0  0
   51.3733   10.8473   19.6914 H   0  0  0  0  0  0  0  0  0  0  0  0
   49.3456   14.5079   18.0572 H   0  0  0  0  0  0  0  0  0  0  0  0
   48.5848   11.4169   20.4930 H   0  0  0  0  0  0  0  0  0  0  0  0
   46.9131    8.9490   19.8882 H   0  0  0  0  0  0  0  0  0  0  0  0
   47.3430    9.8245   21.3442 H   0  0  0  0  0  0  0  0  0  0  0  0
   52.6173   15.7089   16.5830 H   0  0  0  0  0  0  0  0  0  0  0  0
   49.2218   12.3234   14.3058 H   0  0  0  0  0  0  0  0  0  0  0  0
   50.0954   13.8475   14.4010 H   0  0  0  0  0  0  0  0  0  0  0  0
   50.7842   12.4033   15.1419 H   0  0  0  0  0  0  0  0  0  0  0  0
   47.1622   13.5002   15.2958 H   0  0  0  0  0  0  0  0  0  0  0  0
   47.2677   14.2979   16.8752 H   0  0  0  0  0  0  0  0  0  0  0  0
   48.0552   15.0117   15.4660 H   0  0  0  0  0  0  0  0  0  0  0  0
   47.6245    6.4808   19.6679 H   0  0  0  0  0  0  0  0  0  0  0  0
   47.9804    8.6654   23.3787 H   0  0  0  0  0  0  0  0  0  0  0  0
   47.7558    4.3573   20.9196 H   0  0  0  0  0  0  0  0  0  0  0  0
   48.1141    6.5311   24.6064 H   0  0  0  0  0  0  0  0  0  0  0  0
   47.9977    4.3740   23.3886 H   0  0  0  0  0  0  0  0  0  0  0  0
   49.0327   11.5486   18.5174 H   0  0  0  0  0  0  0  0  0  0  0  0
   48.7931   10.3958   19.4876 H   0  0  0  0  0  0  0  0  0  0  0  0
   49.0285   11.5524   18.5249 H   0  0  0  0  0  0  0  0  0  0  0  0
   48.7966   10.3881   19.4831 H   0  0  0  0  0  0  0  0  0  0  0  0
   49.0283   11.5531   18.5252 H   0  0  0  0  0  0  0  0  0  0  0  0
   48.7968   10.3872   19.4832 H   0  0  0  0  0  0  0  0  0  0  0  0
  3  2  1  0
  4  2  1  0
  5  3  1  0
  6  2  1  0
  3  7  1  0
  8  6  1  0
  5  9  1  0
  6 10  1  0
 11  9  1  0
 12  4  2  0
 13 10  2  0
 14 11  2  0
 15 11  1  0
 16 10  1  0
 17  8  1  0
 18  8  1  0
 19 15  1  0
 20 19  2  0
 21 19  1  0
 22 20  1  0
 23 21  2  0
 24 23  1  0
  7  8  1  0
  4  5  1  0
 24 22  2  0
 26 32  1  0
 27 30  1  0
 28 29  1  0
 29 25  1  0
 30 26  1  0
 31 25  1  0
 32 31  1  0
 33 27  2  0
 34 27  1  0
 35 28  2  0
 36 28  1  0
 37 33  1  0
 38 35  1  0
 39 36  2  0
 40 34  2  0
 41 37  2  0
 42 39  1  0
 42 38  2  0
 40 41  1  0
 44 43  1  0
 45 43  1  0
 46 44  1  0
 47 43  1  0
 44 48  1  0
 49 47  1  0
 46 50  1  0
 47 51  1  0
 52 50  1  0
 53 45  2  0
 54 51  2  0
 55 52  2  0
 56 52  1  0
 57 51  1  0
 58 49  1  0
 59 49  1  0
 60 56  1  0
 61 60  2  0
 62 60  1  0
 63 61  1  0
 64 62  2  0
 65 64  1  0
 48 49  1  0
 45 46  1  0
 65 63  2  0
  1 69  1  0
  1 70  1  0
  3 71  1  6
  5 72  1  6
  6 73  1  1
  9 74  1  0
 15 75  1  0
 15 76  1  0
 16 77  1  0
 17 78  1  0
 17 79  1  0
 17 80  1  0
 18 81  1  0
 18 82  1  0
 18 83  1  0
 20 84  1  0
 21 85  1  0
 22 86  1  0
 23 87  1  0
 24 88  1  0
 25 89  1  0
 26 90  1  0
 29 91  1  0
 29 92  1  0
 30 93  1  0
 30 94  1  0
 31 95  1  0
 31 96  1  0
 32 97  1  0
 32 98  1  0
 33 99  1  0
 34100  1  0
 35101  1  0
 36102  1  0
 37103  1  0
 38104  1  0
 39105  1  0
 40106  1  0
 41107  1  0
 42108  1  0
 44109  1  6
 46110  1  1
 47111  1  6
 50112  1  0
 56113  1  0
 56114  1  0
 57115  1  0
 58116  1  0
 58117  1  0
 58118  1  0
 59119  1  0
 59120  1  0
 59121  1  0
 61122  1  0
 62123  1  0
 63124  1  0
 64125  1  0
 65126  1  0
 66127  1  0
 66128  1  0
 67129  1  0
 67130  1  0
 68131  1  0
 68132  1  0
M  END
> <Uni-Dock RESULT> 
ENERGY=   -5.573  LOWER_BOUND=    3.916  UPPER_BOUND=    5.430
INTER + INTRA:          -5.573
INTER:                  -5.573
INTRA:                   0.000
UNBOUND:                 0.000

$$$$

     RDKit          3D

132133  0  0  0  0  0  0  0  0999 V2000
   48.8378    7.9440   17.6366 O   0  0  0  0  0  0  0  0  0  0  0  0
   48.8934    8.8390   20.5104 N   0  0  0  0  0  0  0  0  0  0  0  0
   48.1871    8.7533   19.2201 C   0  0  1  0  0  0  0  0  0  0  0  0
   50.0949    9.1411   19.9364 C   0  0  0  0  0  0  0  0  0  0  0  0
   49.4253    9.4361   18.5735 C   0  0  1  0  0  0  0  0  0  0  0  0
   48.7371    7.7199   21.4294 C   0  0  2  0  0  0  0  0  0  0  0  0
   47.9708    6.9484   18.9150 S   0  0  0  0  0  0  0  0  0  0  0  0
   48.5780    6.4318   20.5892 C   0  0  0  0  0  0  0  0  0  0  0  0
   50.0317    8.7786   17.3850 N   0  0  0  0  0  0  0  0  0  0  0  0
   47.5367    8.0259   22.3213 C   0  0  0  0  0  0  0  0  0  0  0  0
   49.3730    8.7862   16.1711 C   0  0  0  0  0  0  0  0  0  0  0  0
   51.2236    9.0635   20.3638 O   0  0  0  0  0  0  0  0  0  0  0  0
   46.5212    8.6306   22.0193 O   0  0  0  0  0  0  0  0  0  0  0  0
   48.3151    9.3905   16.0176 O   0  0  0  0  0  0  0  0  0  0  0  0
   50.0444    7.9548   15.0915 C   0  0  0  0  0  0  0  0  0  0  0  0
   47.6651    7.4988   23.5599 O   0  0  0  0  0  0  0  0  0  0  0  0
   47.5858    5.4080   21.1559 C   0  0  0  0  0  0  0  0  0  0  0  0
   49.9347    5.7362   20.3882 C   0  0  0  0  0  0  0  0  0  0  0  0
   50.0560    8.6177   13.7368 C   0  0  0  0  0  0  0  0  0  0  0  0
   51.1112    9.4628   13.3649 C   0  0  0  0  0  0  0  0  0  0  0  0
   49.0004    8.4121   12.8378 C   0  0  0  0  0  0  0  0  0  0  0  0
   51.1184   10.0729   12.1096 C   0  0  0  0  0  0  0  0  0  0  0  0
   49.0109    9.0236   11.5827 C   0  0  0  0  0  0  0  0  0  0  0  0
   50.0710    9.8511   11.2178 C   0  0  0  0  0  0  0  0  0  0  0  0
   50.5151    7.5315   19.0732 N   0  0  0  0  0  0  0  0  0  0  0  0
   50.4375    9.2679   16.7574 N   0  0  0  0  0  0  0  0  0  0  0  0
   49.6399    9.9599   14.5015 C   0  0  0  0  0  0  0  0  0  0  0  0
   49.4938    6.3599   21.0186 C   0  0  0  0  0  0  0  0  0  0  0  0
   50.6042    6.4027   19.9939 C   0  0  0  0  0  0  0  0  0  0  0  0
   50.2232   10.3759   15.8328 C   0  0  0  0  0  0  0  0  0  0  0  0
   49.4224    7.4078   18.1046 C   0  0  0  0  0  0  0  0  0  0  0  0
   49.1935    8.7069   17.2915 C   0  0  0  0  0  0  0  0  0  0  0  0
   50.4023    9.2173   13.5872 C   0  0  0  0  0  0  0  0  0  0  0  0
   48.3227   10.3043   14.1641 C   0  0  0  0  0  0  0  0  0  0  0  0
   48.5051    5.3666   20.9560 C   0  0  0  0  0  0  0  0  0  0  0  0
   49.4296    7.3146   22.0455 C   0  0  0  0  0  0  0  0  0  0  0  0
   49.8557    8.8253   12.3640 C   0  0  0  0  0  0  0  0  0  0  0  0
   47.4741    5.3305   21.8964 C   0  0  0  0  0  0  0  0  0  0  0  0
   48.3971    7.2770   22.9855 C   0  0  0  0  0  0  0  0  0  0  0  0
   47.7792    9.9115   12.9401 C   0  0  0  0  0  0  0  0  0  0  0  0
   48.5447    9.1723   12.0408 C   0  0  0  0  0  0  0  0  0  0  0  0
   47.4196    6.2862   22.9096 C   0  0  0  0  0  0  0  0  0  0  0  0
   49.7422    7.3013   14.9664 N   0  0  0  0  0  0  0  0  0  0  0  0
   48.7144    7.4742   16.0122 C   0  0  1  0  0  0  0  0  0  0  0  0
   50.6541    6.7558   15.8319 C   0  0  0  0  0  0  0  0  0  0  0  0
   49.6006    6.6191   16.9504 C   0  0  1  0  0  0  0  0  0  0  0  0
   50.1262    8.4760   14.1808 C   0  0  2  0  0  0  0  0  0  0  0  0
   48.6735    9.2975   16.2656 S   0  0  0  0  0  0  0  0  0  0  0  0
   49.1032    9.5908   14.4783 C   0  0  0  0  0  0  0  0  0  0  0  0
   49.9572    7.2030   18.2718 N   0  0  0  0  0  0  0  0  0  0  0  0
   50.2812    8.1803   12.6916 C   0  0  0  0  0  0  0  0  0  0  0  0
   49.0265    7.2406   19.2913 C   0  0  0  0  0  0  0  0  0  0  0  0
   51.8514    6.6077   15.7368 O   0  0  0  0  0  0  0  0  0  0  0  0
   50.6101    8.9919   11.8380 O   0  0  0  0  0  0  0  0  0  0  0  0
   47.9080    6.7498   19.1545 O   0  0  0  0  0  0  0  0  0  0  0  0
   49.4900    7.9719   20.5401 C   0  0  0  0  0  0  0  0  0  0  0  0
   50.0165    6.9067   12.3351 O   0  0  0  0  0  0  0  0  0  0  0  0
   47.8088    9.5005   13.6587 C   0  0  0  0  0  0  0  0  0  0  0  0
   49.7164   10.9872   14.3496 C   0  0  0  0  0  0  0  0  0  0  0  0
   49.0946    7.2910   21.8267 C   0  0  0  0  0  0  0  0  0  0  0  0
   47.7914    7.4243   22.3278 C   0  0  0  0  0  0  0  0  0  0  0  0
   50.0170    6.5074   22.5363 C   0  0  0  0  0  0  0  0  0  0  0  0
   47.4227    6.8007   23.5209 C   0  0  0  0  0  0  0  0  0  0  0  0
   49.6458    5.8870   23.7311 C   0  0  0  0  0  0  0  0  0  0  0  0
   48.3508    6.0362   24.2247 C   0  0  0  0  0  0  0  0  0  0  0  0
   48.8379    7.9441   17.6366 O   0  0  0  0  0  0  0  0  0  0  0  0
   48.8383    7.9456   17.6319 O   0  0  0  0  0  0  0  0  0  0  0  0
   48.8383    7.9457   17.6314 O   0  0  0  0  0  0  0  0  0  0  0  0
   49.3827    7.8182   18.4281 H   0  0  0  0  0  0  0  0  0  0  0  0
   49.4617    8.2810   16.9766 H   0  0  0  0  0  0  0  0  0  0  0  0
   47.2633    9.3381   19.1959 H   0  0  0  0  0  0  0  0  0  0  0  0
   49.3055   10.5144   18.4048 H   0  0  0  0  0  0  0  0  0  0  0  0
   49.6277    7.6779   22.0693 H   0  0  0  0  0  0  0  0  0  0  0  0
   50.8332    8.1675   17.5089 H   0  0  0  0  0  0  0  0  0  0  0  0
   49.5190    6.9935   15.0375 H   0  0  0  0  0  0  0  0  0  0  0  0
   51.0756    7.7169   15.3800 H   0  0  0  0  0  0  0  0  0  0  0  0
   46.8440    7.7781   24.0197 H   0  0  0  0  0  0  0  0  0  0  0  0
   47.5349    4.5061   20.5322 H   0  0  0  0  0  0  0  0  0  0  0  0
   46.5683    5.8078   21.2300 H   0  0  0  0  0  0  0  0  0  0  0  0
   47.8930    5.0865   22.1576 H   0  0  0  0  0  0  0  0  0  0  0  0
   50.3426    5.4112   21.3543 H   0  0  0  0  0  0  0  0  0  0  0  0
   50.6788    6.3901   19.9247 H   0  0  0  0  0  0  0  0  0  0  0  0
   49.8446    4.8424   19.7610 H   0  0  0  0  0  0  0  0  0  0  0  0
   51.9352    9.6520   14.0482 H   0  0  0  0  0  0  0  0  0  0  0  0
   48.1588    7.7798   13.1131 H   0  0  0  0  0  0  0  0  0  0  0  0
   51.9411   10.7257   11.8272 H   0  0  0  0  0  0  0  0  0  0  0  0
   48.1873    8.8585   10.8926 H   0  0  0  0  0  0  0  0  0  0  0  0
   50.0759   10.3285   10.2414 H   0  0  0  0  0  0  0  0  0  0  0  0
   50.4185    8.4068   19.5837 H   0  0  0  0  0  0  0  0  0  0  0  0
   50.9807    8.5300   16.3131 H   0  0  0  0  0  0  0  0  0  0  0  0
   51.5574    6.4696   20.5317 H   0  0  0  0  0  0  0  0  0  0  0  0
   50.6533    5.4598   19.4353 H   0  0  0  0  0  0  0  0  0  0  0  0
   49.6035   11.1489   16.3035 H   0  0  0  0  0  0  0  0  0  0  0  0
   51.1894   10.8592   15.6401 H   0  0  0  0  0  0  0  0  0  0  0  0
   48.4752    7.1622   18.5958 H   0  0  0  0  0  0  0  0  0  0  0  0
   49.6576    6.5929   17.4086 H   0  0  0  0  0  0  0  0  0  0  0  0
   48.7206    9.4512   17.9431 H   0  0  0  0  0  0  0  0  0  0  0  0
   48.4851    8.4673   16.4899 H   0  0  0  0  0  0  0  0  0  0  0  0
   51.4272    8.9423   13.8253 H   0  0  0  0  0  0  0  0  0  0  0  0
   47.7111   10.8777   14.8571 H   0  0  0  0  0  0  0  0  0  0  0  0
   48.5324    4.6158   20.1690 H   0  0  0  0  0  0  0  0  0  0  0  0
   50.1880    8.0908   22.1185 H   0  0  0  0  0  0  0  0  0  0  0  0
   50.4542    8.2494   11.6615 H   0  0  0  0  0  0  0  0  0  0  0  0
   46.7133    4.5559   21.8385 H   0  0  0  0  0  0  0  0  0  0  0  0
   48.3573    8.0202   23.7773 H   0  0  0  0  0  0  0  0  0  0  0  0
   46.7576   10.1828   12.6876 H   0  0  0  0  0  0  0  0  0  0  0  0
   48.1209    8.8657   11.0883 H   0  0  0  0  0  0  0  0  0  0  0  0
   46.6166    6.2576   23.6412 H   0  0  0  0  0  0  0  0  0  0  0  0
   47.7552    7.0251   15.7372 H   0  0  0  0  0  0  0  0  0  0  0  0
   49.2658    5.5787   17.0589 H   0  0  0  0  0  0  0  0  0  0  0  0
   51.1280    8.7822   14.5188 H   0  0  0  0  0  0  0  0  0  0  0  0
   50.8257    7.7201   18.3719 H   0  0  0  0  0  0  0  0  0  0  0  0
   49.0691    8.9829   20.5097 H   0  0  0  0  0  0  0  0  0  0  0  0
   50.5803    8.0957   20.5169 H   0  0  0  0  0  0  0  0  0  0  0  0
   50.2269    6.8706   11.3798 H   0  0  0  0  0  0  0  0  0  0  0  0
   47.0665   10.2316   14.0051 H   0  0  0  0  0  0  0  0  0  0  0  0
   47.9954    9.7190   12.6017 H   0  0  0  0  0  0  0  0  0  0  0  0
   47.3512    8.5062   13.7077 H   0  0  0  0  0  0  0  0  0  0  0  0
   49.0158   11.7694   14.6704 H   0  0  0  0  0  0  0  0  0  0  0  0
   50.6294   11.0902   14.9474 H   0  0  0  0  0  0  0  0  0  0  0  0
   49.9831   11.2027   13.3088 H   0  0  0  0  0  0  0  0  0  0  0  0
   47.0506    8.0074   21.7827 H   0  0  0  0  0  0  0  0  0  0  0  0
   51.0330    6.3763   22.1686 H   0  0  0  0  0  0  0  0  0  0  0  0
   46.4092    6.9098   23.8987 H   0  0  0  0  0  0  0  0  0  0  0  0
   50.3672    5.2859   24.2776 H   0  0  0  0  0  0  0  0  0  0  0  0
   48.0622    5.5501   25.1532 H   0  0  0  0  0  0  0  0  0  0  0  0
   49.4621    8.2811   16.9767 H   0  0  0  0  0  0  0  0  0  0  0  0
   49.3821    7.8180   18.4281 H   0  0  0  0  0  0  0  0  0  0  0  0
   49.4709    8.2820   16.9800 H   0  0  0  0  0  0  0  0  0  0  0  0
   49.3729    7.8157   18.4294 H   0  0  0  0  0  0  0  0  0  0  0  0
   49.4716    8.2822   16.9798 H   0  0  0  0  0  0  0  0  0  0  0  0
   49.3723    7.8153   18.4300 H   0  0  0  0  0  0  0  0  0  0  0  0
  3  2  1  0
  4  2  1  0
  5  3  1  0
  6  2  1  0
  3  7  1  0
  8  6  1  0
  5  9  1  0
  6 10  1  0
 11  9  1  0
 12  4  2  0
 13 10  2  0
 14 11  2  0
 15 11  1  0
 16 10  1  0
 17  8  1  0
 18  8  1  0
 19 15  1  0
 20 19  2  0
 21 19  1  0
 22 20  1  0
 23 21  2  0
 24 23  1  0
  7  8  1  0
  4  5  1  0
 24 22  2  0
 26 32  1  0
 27 30  1  0
 28 29  1  0
 29 25  1  0
 30 26  1  0
 31 25  1  0
 32 31  1  0
 33 27  2  0
 34 27  1  0
 35 28  2  0
 36 28  1  0
 37 33  1  0
 38 35  1  0
 39 36  2  0
 40 34  2  0
 41 37  2  0
 42 39  1  0
 42 38  2  0
 40 41  1  0
 44 43  1  0
 45 43  1  0
 46 44  1  0
 47 43  1  0
 44 48  1  0
 49 47  1  0
 46 50  1  0
 47 51  1  0
 52 50  1  0
 53 45  2  0
 54 51  2  0
 55 52  2  0
 56 52  1  0
 57 51  1  0
 58 49  1  0
 59 49  1  0
 60 56  1  0
 61 60  2  0
 62 60  1  0
 63 61  1  0
 64 62  2  0
 65 64  1  0
 48 49  1  0
 45 46  1  0
 65 63  2  0
  1 69  1  0
  1 70  1  0
  3 71  1  6
  5 72  1  6
  6 73  1  1
  9 74  1  0
 15 75  1  0
 15 76  1  0
 16 77  1  0
 17 78  1  0
 17 79  1  0
 17 80  1  0
 18 81  1  0
 18 82  1  0
 18 83  1  0
 20 84  1  0
 21 85  1  0
 22 86  1  0
 23 87  1  0
 24 88  1  0
 25 89  1  0
 26 90  1  0
 29 91  1  0
 29 92  1  0
 30 93  1  0
 30 94  1  0
 31 95  1  0
 31 96  1  0
 32 97  1  0
 32 98  1  0
 33 99  1  0
 34100  1  0
 35101  1  0
 36102  1  0
 37103  1  0
 38104  1  0
 39105  1  0
 40106  1  0
 41107  1  0
 42108  1  0
 44109  1  6
 46110  1  1
 47111  1  6
 50112  1  0
 56113  1  0
 56114  1  0
 57115  1  0
 58116  1  0
 58117  1  0
 58118  1  0
 59119  1  0
 59120  1  0
 59121  1  0
 61122  1  0
 62123  1  0
 63124  1  0
 64125  1  0
 65126  1  0
 66127  1  0
 66128  1  0
 67129  1  0
 67130  1  0
 68131  1  0
 68132  1  0
M  END
> <Uni-Dock RESULT> 
ENERGY=   -5.560  LOWER_BOUND=    2.132  UPPER_BOUND=    3.825
INTER + INTRA:          -5.560
INTER:                  -5.560
INTRA:                   0.000
UNBOUND:                 0.000

$$$$

     RDKit          3D

132133  0  0  0  0  0  0  0  0999 V2000
   45.0966   12.7806    9.9956 O   0  0  0  0  0  0  0  0  0  0  0  0
   42.7499   11.0574    9.2300 N   0  0  0  0  0  0  0  0  0  0  0  0
   44.0656   11.1967    9.8787 C   0  0  1  0  0  0  0  0  0  0  0  0
   43.0974   11.8237    8.1546 C   0  0  0  0  0  0  0  0  0  0  0  0
   44.5968   11.7567    8.5291 C   0  0  1  0  0  0  0  0  0  0  0  0
   41.5752   11.3513   10.0393 C   0  0  2  0  0  0  0  0  0  0  0  0
   43.7981   12.4084   11.2417 S   0  0  0  0  0  0  0  0  0  0  0  0
   41.9550   12.4624   11.0450 C   0  0  0  0  0  0  0  0  0  0  0  0
   45.3269   13.0522    8.5609 N   0  0  0  0  0  0  0  0  0  0  0  0
   41.1376   10.0463   10.6993 C   0  0  0  0  0  0  0  0  0  0  0  0
   46.5924   13.1270    9.1090 C   0  0  0  0  0  0  0  0  0  0  0  0
   42.4198   12.4012    7.3361 O   0  0  0  0  0  0  0  0  0  0  0  0
   41.8485    9.1311   11.0805 O   0  0  0  0  0  0  0  0  0  0  0  0
   47.1771   12.1265    9.5153 O   0  0  0  0  0  0  0  0  0  0  0  0
   47.1503   14.5370    9.2011 C   0  0  0  0  0  0  0  0  0  0  0  0
   39.8003    9.9865   10.8905 O   0  0  0  0  0  0  0  0  0  0  0  0
   41.3273   12.3172   12.4373 C   0  0  0  0  0  0  0  0  0  0  0  0
   41.5955   13.8511   10.4906 C   0  0  0  0  0  0  0  0  0  0  0  0
   48.6063   14.6375    8.8209 C   0  0  0  0  0  0  0  0  0  0  0  0
   48.9821   14.8647    7.4893 C   0  0  0  0  0  0  0  0  0  0  0  0
   49.6050   14.4859    9.7927 C   0  0  0  0  0  0  0  0  0  0  0  0
   50.3308   14.9586    7.1424 C   0  0  0  0  0  0  0  0  0  0  0  0
   50.9531   14.5808    9.4425 C   0  0  0  0  0  0  0  0  0  0  0  0
   51.3156   14.8200    8.1184 C   0  0  0  0  0  0  0  0  0  0  0  0
   43.2581   13.5193    8.9366 N   0  0  0  0  0  0  0  0  0  0  0  0
   45.9691   13.2224    7.9638 N   0  0  0  0  0  0  0  0  0  0  0  0
   48.4464   13.1651    8.2161 C   0  0  0  0  0  0  0  0  0  0  0  0
   41.3267   12.9041   10.3828 C   0  0  0  0  0  0  0  0  0  0  0  0
   42.0219   13.9703    9.5676 C   0  0  0  0  0  0  0  0  0  0  0  0
   47.2309   12.7098    7.4409 C   0  0  0  0  0  0  0  0  0  0  0  0
   44.3560   13.3171    9.8859 C   0  0  0  0  0  0  0  0  0  0  0  0
   45.5824   12.6213    9.2432 C   0  0  0  0  0  0  0  0  0  0  0  0
   48.8614   14.5048    8.1735 C   0  0  0  0  0  0  0  0  0  0  0  0
   49.1734   12.2545    8.9969 C   0  0  0  0  0  0  0  0  0  0  0  0
   41.2841   12.9923   11.7823 C   0  0  0  0  0  0  0  0  0  0  0  0
   40.7175   11.8062    9.7553 C   0  0  0  0  0  0  0  0  0  0  0  0
   49.9774   14.9232    8.9001 C   0  0  0  0  0  0  0  0  0  0  0  0
   40.6498   12.0042   12.5373 C   0  0  0  0  0  0  0  0  0  0  0  0
   40.0835   10.8184   10.5125 C   0  0  0  0  0  0  0  0  0  0  0  0
   50.2893   12.6757    9.7218 C   0  0  0  0  0  0  0  0  0  0  0  0
   50.6909   14.0090    9.6740 C   0  0  0  0  0  0  0  0  0  0  0  0
   40.0513   10.9173   11.9025 C   0  0  0  0  0  0  0  0  0  0  0  0
   47.1185   14.8435    9.8636 N   0  0  0  0  0  0  0  0  0  0  0  0
   46.4563   13.6735   10.4740 C   0  0  1  0  0  0  0  0  0  0  0  0
   45.9355   15.4289    9.4949 C   0  0  0  0  0  0  0  0  0  0  0  0
   45.1103   14.4237   10.3246 C   0  0  1  0  0  0  0  0  0  0  0  0
   48.1370   14.5990    8.8401 C   0  0  2  0  0  0  0  0  0  0  0  0
   46.8366   12.3113    9.2950 S   0  0  0  0  0  0  0  0  0  0  0  0
   48.4697   13.0935    8.8634 C   0  0  0  0  0  0  0  0  0  0  0  0
   44.0117   13.7188    9.6101 N   0  0  0  0  0  0  0  0  0  0  0  0
   49.3661   15.4914    8.9882 C   0  0  0  0  0  0  0  0  0  0  0  0
   43.3064   12.7109   10.2375 C   0  0  0  0  0  0  0  0  0  0  0  0
   45.6969   16.3058    8.6958 O   0  0  0  0  0  0  0  0  0  0  0  0
   50.3395   15.4863    8.2479 O   0  0  0  0  0  0  0  0  0  0  0  0
   43.5277   12.4084   11.4080 O   0  0  0  0  0  0  0  0  0  0  0  0
   42.2983   12.0010    9.3493 C   0  0  0  0  0  0  0  0  0  0  0  0
   49.3325   16.3340   10.0409 O   0  0  0  0  0  0  0  0  0  0  0  0
   49.4890   12.6846    9.9355 C   0  0  0  0  0  0  0  0  0  0  0  0
   48.9074   12.5770    7.4908 C   0  0  0  0  0  0  0  0  0  0  0  0
   40.9872   11.7032   10.0332 C   0  0  0  0  0  0  0  0  0  0  0  0
   40.8739   10.6084   10.9026 C   0  0  0  0  0  0  0  0  0  0  0  0
   39.8657   12.5188    9.8204 C   0  0  0  0  0  0  0  0  0  0  0  0
   39.6612   10.3256   11.5332 C   0  0  0  0  0  0  0  0  0  0  0  0
   38.6531   12.2318   10.4508 C   0  0  0  0  0  0  0  0  0  0  0  0
   38.5501   11.1342   11.3039 C   0  0  0  0  0  0  0  0  0  0  0  0
   45.0967   12.7807    9.9955 O   0  0  0  0  0  0  0  0  0  0  0  0
   45.1013   12.7817    9.9945 O   0  0  0  0  0  0  0  0  0  0  0  0
   45.1018   12.7818    9.9944 O   0  0  0  0  0  0  0  0  0  0  0  0
   44.2049   12.8850    9.6309 H   0  0  0  0  0  0  0  0  0  0  0  0
   45.6678   13.2014    9.3360 H   0  0  0  0  0  0  0  0  0  0  0  0
   44.4945   10.2403   10.1908 H   0  0  0  0  0  0  0  0  0  0  0  0
   45.1352   11.0196    7.9188 H   0  0  0  0  0  0  0  0  0  0  0  0
   40.7699   11.6727    9.3665 H   0  0  0  0  0  0  0  0  0  0  0  0
   44.8263   13.9111    8.3534 H   0  0  0  0  0  0  0  0  0  0  0  0
   47.0034   14.8859   10.2304 H   0  0  0  0  0  0  0  0  0  0  0  0
   46.5693   15.2186    8.5677 H   0  0  0  0  0  0  0  0  0  0  0  0
   39.6617    9.1066   11.3031 H   0  0  0  0  0  0  0  0  0  0  0  0
   41.6117   13.1468   13.0976 H   0  0  0  0  0  0  0  0  0  0  0  0
   41.6268   11.3891   12.9368 H   0  0  0  0  0  0  0  0  0  0  0  0
   40.2334   12.3233   12.3700 H   0  0  0  0  0  0  0  0  0  0  0  0
   40.5098   13.9359   10.3515 H   0  0  0  0  0  0  0  0  0  0  0  0
   42.0638   14.0526    9.5231 H   0  0  0  0  0  0  0  0  0  0  0  0
   41.8948   14.6523   11.1752 H   0  0  0  0  0  0  0  0  0  0  0  0
   48.2291   14.9710    6.7126 H   0  0  0  0  0  0  0  0  0  0  0  0
   49.3386   14.2850   10.8284 H   0  0  0  0  0  0  0  0  0  0  0  0
   50.6150   15.1367    6.1079 H   0  0  0  0  0  0  0  0  0  0  0  0
   51.7204   14.4610   10.2033 H   0  0  0  0  0  0  0  0  0  0  0  0
   52.3657   14.8907    7.8473 H   0  0  0  0  0  0  0  0  0  0  0  0
   43.1026   12.6621    8.4101 H   0  0  0  0  0  0  0  0  0  0  0  0
   46.0062   14.2354    8.0609 H   0  0  0  0  0  0  0  0  0  0  0  0
   41.3316   14.2975    8.7810 H   0  0  0  0  0  0  0  0  0  0  0  0
   42.2100   14.8632   10.1765 H   0  0  0  0  0  0  0  0  0  0  0  0
   47.1989   11.6152    7.3772 H   0  0  0  0  0  0  0  0  0  0  0  0
   47.3437   13.0554    6.4055 H   0  0  0  0  0  0  0  0  0  0  0  0
   44.0442   12.7025   10.7368 H   0  0  0  0  0  0  0  0  0  0  0  0
   44.6692   14.2932   10.2772 H   0  0  0  0  0  0  0  0  0  0  0  0
   45.3415   11.5643    9.0792 H   0  0  0  0  0  0  0  0  0  0  0  0
   46.4004   12.6679    9.9715 H   0  0  0  0  0  0  0  0  0  0  0  0
   48.3158   15.2279    7.5717 H   0  0  0  0  0  0  0  0  0  0  0  0
   48.8702   11.2112    9.0476 H   0  0  0  0  0  0  0  0  0  0  0  0
   41.7498   13.8331   12.2921 H   0  0  0  0  0  0  0  0  0  0  0  0
   40.7319   11.7187    8.6713 H   0  0  0  0  0  0  0  0  0  0  0  0
   50.2916   15.9640    8.8613 H   0  0  0  0  0  0  0  0  0  0  0  0
   40.6226   12.0830   13.6214 H   0  0  0  0  0  0  0  0  0  0  0  0
   39.6137    9.9730   10.0168 H   0  0  0  0  0  0  0  0  0  0  0  0
   50.8460   11.9629   10.3242 H   0  0  0  0  0  0  0  0  0  0  0  0
   51.5591   14.3368   10.2393 H   0  0  0  0  0  0  0  0  0  0  0  0
   39.5579   10.1483   12.4909 H   0  0  0  0  0  0  0  0  0  0  0  0
   46.7811   13.4963   11.5038 H   0  0  0  0  0  0  0  0  0  0  0  0
   44.7445   14.8788   11.2548 H   0  0  0  0  0  0  0  0  0  0  0  0
   47.6975   14.8740    7.8692 H   0  0  0  0  0  0  0  0  0  0  0  0
   43.8904   13.8639    8.6122 H   0  0  0  0  0  0  0  0  0  0  0  0
   42.7576   11.0685    9.0033 H   0  0  0  0  0  0  0  0  0  0  0  0
   42.1084   12.5989    8.4486 H   0  0  0  0  0  0  0  0  0  0  0  0
   50.1462   16.8709    9.9515 H   0  0  0  0  0  0  0  0  0  0  0  0
   49.5852   11.5926    9.9974 H   0  0  0  0  0  0  0  0  0  0  0  0
   50.4853   13.0751    9.7016 H   0  0  0  0  0  0  0  0  0  0  0  0
   49.2212   13.0565   10.9307 H   0  0  0  0  0  0  0  0  0  0  0  0
   49.0343   11.4864    7.4889 H   0  0  0  0  0  0  0  0  0  0  0  0
   48.1834   12.8309    6.7079 H   0  0  0  0  0  0  0  0  0  0  0  0
   49.8694   13.0124    7.1978 H   0  0  0  0  0  0  0  0  0  0  0  0
   41.7367    9.9747   11.1028 H   0  0  0  0  0  0  0  0  0  0  0  0
   39.9241   13.3816    9.1594 H   0  0  0  0  0  0  0  0  0  0  0  0
   39.5859    9.4753   12.2063 H   0  0  0  0  0  0  0  0  0  0  0  0
   37.7877   12.8651   10.2770 H   0  0  0  0  0  0  0  0  0  0  0  0
   37.6064   10.9137   11.7964 H   0  0  0  0  0  0  0  0  0  0  0  0
   45.6677   13.2016    9.3356 H   0  0  0  0  0  0  0  0  0  0  0  0
   44.2049   12.8847    9.6315 H   0  0  0  0  0  0  0  0  0  0  0  0
   45.6628   13.2051    9.3283 H   0  0  0  0  0  0  0  0  0  0  0  0
   44.2051   12.8801    9.6399 H   0  0  0  0  0  0  0  0  0  0  0  0
   45.6629   13.2055    9.3277 H   0  0  0  0  0  0  0  0  0  0  0  0
   44.2046   12.8797    9.6405 H   0  0  0  0  0  0  0  0  0  0  0  0
  3  2  1  0
  4  2  1  0
  5  3  1  0
  6  2  1  0
  3  7  1  0
  8  6  1  0
  5  9  1  0
  6 10  1  0
 11  9  1  0
 12  4  2  0
 13 10  2  0
 14 11  2  0
 15 11  1  0
 16 10  1  0
 17  8  1  0
 18  8  1  0
 19 15  1  0
 20 19  2  0
 21 19  1  0
 22 20  1  0
 23 21  2  0
 24 23  1  0
  7  8  1  0
  4  5  1  0
 24 22  2  0
 26 32  1  0
 27 30  1  0
 28 29  1  0
 29 25  1  0
 30 26  1  0
 31 25  1  0
 32 31  1  0
 33 27  2  0
 34 27  1  0
 35 28  2  0
 36 28  1  0
 37 33  1  0
 38 35  1  0
 39 36  2  0
 40 34  2  0
 41 37  2  0
 42 39  1  0
 42 38  2  0
 40 41  1  0
 44 43  1  0
 45 43  1  0
 46 44  1  0
 47 43  1  0
 44 48  1  0
 49 47  1  0
 46 50  1  0
 47 51  1  0
 52 50  1  0
 53 45  2  0
 54 51  2  0
 55 52  2  0
 56 52  1  0
 57 51  1  0
 58 49  1  0
 59 49  1  0
 60 56  1  0
 61 60  2  0
 62 60  1  0
 63 61  1  0
 64 62  2  0
 65 64  1  0
 48 49  1  0
 45 46  1  0
 65 63  2  0
  1 69  1  0
  1 70  1  0
  3 71  1  6
  5 72  1  6
  6 73  1  1
  9 74  1  0
 15 75  1  0
 15 76  1  0
 16 77  1  0
 17 78  1  0
 17 79  1  0
 17 80  1  0
 18 81  1  0
 18 82  1  0
 18 83  1  0
 20 84  1  0
 21 85  1  0
 22 86  1  0
 23 87  1  0
 24 88  1  0
 25 89  1  0
 26 90  1  0
 29 91  1  0
 29 92  1  0
 30 93  1  0
 30 94  1  0
 31 95  1  0
 31 96  1  0
 32 97  1  0
 32 98  1  0
 33 99  1  0
 34100  1  0
 35101  1  0
 36102  1  0
 37103  1  0
 38104  1  0
 39105  1  0
 40106  1  0
 41107  1  0
 42108  1  0
 44109  1  6
 46110  1  1
 47111  1  6
 50112  1  0
 56113  1  0
 56114  1  0
 57115  1  0
 58116  1  0
 58117  1  0
 58118  1  0
 59119  1  0
 59120  1  0
 59121  1  0
 61122  1  0
 62123  1  0
 63124  1  0
 64125  1  0
 65126  1  0
 66127  1  0
 66128  1  0
 67129  1  0
 67130  1  0
 68131  1  0
 68132  1  0
M  END
> <Uni-Dock RESULT> 
ENERGY=   -5.531  LOWER_BOUND=   10.321  UPPER_BOUND=   12.368
INTER + INTRA:          -5.531
INTER:                  -5.531
INTRA:                   0.000
UNBOUND:                 0.000

$$$$
