
     RDKit          3D

132133  0  0  0  0  0  0  0  0999 V2000
   48.2705    5.1428   16.1039 O   0  0  0  0  0  0  0  0  0  0  0  0
   48.6693    5.2525   18.7607 N   0  0  0  0  0  0  0  0  0  0  0  0
   48.8485    4.1967   17.7469 C   0  0  1  0  0  0  0  0  0  0  0  0
   47.5713    5.7824   18.1417 C   0  0  0  0  0  0  0  0  0  0  0  0
   47.4173    4.5355   17.2405 C   0  0  1  0  0  0  0  0  0  0  0  0
   49.8287    6.0783   19.0726 C   0  0  2  0  0  0  0  0  0  0  0  0
   50.2663    4.7617   16.7107 S   0  0  0  0  0  0  0  0  0  0  0  0
   50.6838    6.2096   17.7915 C   0  0  0  0  0  0  0  0  0  0  0  0
   47.2440    4.7955   15.7897 N   0  0  0  0  0  0  0  0  0  0  0  0
   50.5639    5.4205   20.2371 C   0  0  0  0  0  0  0  0  0  0  0  0
   47.3112    3.7713   14.8729 C   0  0  0  0  0  0  0  0  0  0  0  0
   47.0698    6.8775   18.2282 O   0  0  0  0  0  0  0  0  0  0  0  0
   50.7484    4.2293   20.4230 O   0  0  0  0  0  0  0  0  0  0  0  0
   47.4827    2.6013   15.2074 O   0  0  0  0  0  0  0  0  0  0  0  0
   47.2205    4.2044   13.4218 C   0  0  0  0  0  0  0  0  0  0  0  0
   51.0717    6.3268   21.1003 O   0  0  0  0  0  0  0  0  0  0  0  0
   50.3168    7.4846   17.0147 C   0  0  0  0  0  0  0  0  0  0  0  0
   52.2010    6.2074   18.0278 C   0  0  0  0  0  0  0  0  0  0  0  0
   45.9160    4.8782   13.0738 C   0  0  0  0  0  0  0  0  0  0  0  0
   45.8788    6.2398   12.7417 C   0  0  0  0  0  0  0  0  0  0  0  0
   44.7212    4.1456   13.0756 C   0  0  0  0  0  0  0  0  0  0  0  0
   44.6675    6.8543   12.4201 C   0  0  0  0  0  0  0  0  0  0  0  0
   43.5119    4.7625   12.7524 C   0  0  0  0  0  0  0  0  0  0  0  0
   43.4859    6.1162   12.4258 C   0  0  0  0  0  0  0  0  0  0  0  0
   49.5804    6.2925   17.0654 N   0  0  0  0  0  0  0  0  0  0  0  0
   46.4508    4.8700   15.3714 N   0  0  0  0  0  0  0  0  0  0  0  0
   45.6525    4.4357   13.1006 C   0  0  0  0  0  0  0  0  0  0  0  0
   50.4418    6.6141   19.3255 C   0  0  0  0  0  0  0  0  0  0  0  0
   49.2109    6.5730   18.4511 C   0  0  0  0  0  0  0  0  0  0  0  0
   46.8561    4.6944   13.9762 C   0  0  0  0  0  0  0  0  0  0  0  0
   48.4222    6.2329   16.1689 C   0  0  0  0  0  0  0  0  0  0  0  0
   47.5950    4.9326   16.2883 C   0  0  0  0  0  0  0  0  0  0  0  0
   44.7928    5.4872   12.7494 C   0  0  0  0  0  0  0  0  0  0  0  0
   45.3605    3.1415   12.6467 C   0  0  0  0  0  0  0  0  0  0  0  0
   50.7670    5.5341   20.1593 C   0  0  0  0  0  0  0  0  0  0  0  0
   51.2968    7.7252   19.2916 C   0  0  0  0  0  0  0  0  0  0  0  0
   43.6759    5.2524   11.9465 C   0  0  0  0  0  0  0  0  0  0  0  0
   51.9159    5.5739   20.9518 C   0  0  0  0  0  0  0  0  0  0  0  0
   52.4444    7.7631   20.0840 C   0  0  0  0  0  0  0  0  0  0  0  0
   44.2405    2.9077   11.8469 C   0  0  0  0  0  0  0  0  0  0  0  0
   43.4007    3.9633   11.4944 C   0  0  0  0  0  0  0  0  0  0  0  0
   52.7530    6.6880   20.9152 C   0  0  0  0  0  0  0  0  0  0  0  0
   48.7356    4.7561   18.8176 N   0  0  0  0  0  0  0  0  0  0  0  0
   49.1110    4.4349   17.4273 C   0  0  1  0  0  0  0  0  0  0  0  0
   47.4044    4.8842   18.5211 C   0  0  0  0  0  0  0  0  0  0  0  0
   47.6042    4.3040   17.1042 C   0  0  1  0  0  0  0  0  0  0  0  0
   49.4306    5.8654   19.4741 C   0  0  2  0  0  0  0  0  0  0  0  0
   49.9976    5.9475   16.8683 S   0  0  0  0  0  0  0  0  0  0  0  0
   50.6280    6.2604   18.5888 C   0  0  0  0  0  0  0  0  0  0  0  0
   47.0777    5.1112   15.9716 N   0  0  0  0  0  0  0  0  0  0  0  0
   49.8058    5.4838   20.9009 C   0  0  0  0  0  0  0  0  0  0  0  0
   47.3148    4.7180   14.6718 C   0  0  0  0  0  0  0  0  0  0  0  0
   46.4976    5.3928   19.1401 O   0  0  0  0  0  0  0  0  0  0  0  0
   49.7512    4.3779   21.4172 O   0  0  0  0  0  0  0  0  0  0  0  0
   47.8991    3.6682   14.4059 O   0  0  0  0  0  0  0  0  0  0  0  0
   46.7824    5.6651   13.6117 C   0  0  0  0  0  0  0  0  0  0  0  0
   50.2427    6.5352   21.6269 O   0  0  0  0  0  0  0  0  0  0  0  0
   50.9789    7.7451   18.7121 C   0  0  0  0  0  0  0  0  0  0  0  0
   51.8814    5.4009   18.7988 C   0  0  0  0  0  0  0  0  0  0  0  0
   45.6333    5.0766   12.8325 C   0  0  0  0  0  0  0  0  0  0  0  0
   45.7787    4.7768   11.4712 C   0  0  0  0  0  0  0  0  0  0  0  0
   44.4048    4.8188   13.4562 C   0  0  0  0  0  0  0  0  0  0  0  0
   44.7166    4.2316   10.7490 C   0  0  0  0  0  0  0  0  0  0  0  0
   43.3445    4.2705   12.7329 C   0  0  0  0  0  0  0  0  0  0  0  0
   43.5011    3.9777   11.3792 C   0  0  0  0  0  0  0  0  0  0  0  0
   48.2252    5.1320   16.0603 O   0  0  0  0  0  0  0  0  0  0  0  0
   48.1983    5.1294   16.0389 O   0  0  0  0  0  0  0  0  0  0  0  0
   48.2708    5.1426   16.1040 O   0  0  0  0  0  0  0  0  0  0  0  0
   48.4090    5.7249   16.8654 H   0  0  0  0  0  0  0  0  0  0  0  0
   47.3911    5.3859   15.7774 H   0  0  0  0  0  0  0  0  0  0  0  0
   48.9679    3.2003   18.1815 H   0  0  0  0  0  0  0  0  0  0  0  0
   46.6372    3.8589   17.6143 H   0  0  0  0  0  0  0  0  0  0  0  0
   49.4664    7.0560   19.4166 H   0  0  0  0  0  0  0  0  0  0  0  0
   46.9850    5.7221   15.4677 H   0  0  0  0  0  0  0  0  0  0  0  0
   48.0711    4.8647   13.2132 H   0  0  0  0  0  0  0  0  0  0  0  0
   47.3498    3.3229   12.7822 H   0  0  0  0  0  0  0  0  0  0  0  0
   51.5027    5.7867   21.7959 H   0  0  0  0  0  0  0  0  0  0  0  0
   50.5278    8.3748   17.6181 H   0  0  0  0  0  0  0  0  0  0  0  0
   50.8969    7.5782   16.0883 H   0  0  0  0  0  0  0  0  0  0  0  0
   49.2570    7.5231   16.7438 H   0  0  0  0  0  0  0  0  0  0  0  0
   52.4911    7.0362   18.6837 H   0  0  0  0  0  0  0  0  0  0  0  0
   52.5524    5.2766   18.4866 H   0  0  0  0  0  0  0  0  0  0  0  0
   52.7532    6.3341   17.0884 H   0  0  0  0  0  0  0  0  0  0  0  0
   46.7916    6.8319   12.7211 H   0  0  0  0  0  0  0  0  0  0  0  0
   44.7265    3.0857   13.3261 H   0  0  0  0  0  0  0  0  0  0  0  0
   44.6452    7.9103   12.1617 H   0  0  0  0  0  0  0  0  0  0  0  0
   42.5911    4.1857   12.7534 H   0  0  0  0  0  0  0  0  0  0  0  0
   42.5441    6.5945   12.1685 H   0  0  0  0  0  0  0  0  0  0  0  0
   50.1054    5.4206   17.0280 H   0  0  0  0  0  0  0  0  0  0  0  0
   45.8623    4.0771   15.6296 H   0  0  0  0  0  0  0  0  0  0  0  0
   48.6987    7.5390   18.5235 H   0  0  0  0  0  0  0  0  0  0  0  0
   48.5206    5.8168   18.8400 H   0  0  0  0  0  0  0  0  0  0  0  0
   47.5596    3.8589   13.8793 H   0  0  0  0  0  0  0  0  0  0  0  0
   47.3660    5.5883   13.5989 H   0  0  0  0  0  0  0  0  0  0  0  0
   48.8193    6.3131   15.1505 H   0  0  0  0  0  0  0  0  0  0  0  0
   47.7803    7.1095   16.3155 H   0  0  0  0  0  0  0  0  0  0  0  0
   47.1907    4.8617   17.3036 H   0  0  0  0  0  0  0  0  0  0  0  0
   48.2387    4.0550   16.1492 H   0  0  0  0  0  0  0  0  0  0  0  0
   44.9941    6.4947   13.1070 H   0  0  0  0  0  0  0  0  0  0  0  0
   46.0043    2.3065   12.9134 H   0  0  0  0  0  0  0  0  0  0  0  0
   50.1274    4.6555   20.1976 H   0  0  0  0  0  0  0  0  0  0  0  0
   51.0707    8.5628   18.6344 H   0  0  0  0  0  0  0  0  0  0  0  0
   43.0191    6.0753   11.6777 H   0  0  0  0  0  0  0  0  0  0  0  0
   52.1612    4.7338   21.5962 H   0  0  0  0  0  0  0  0  0  0  0  0
   53.0995    8.6297   20.0480 H   0  0  0  0  0  0  0  0  0  0  0  0
   44.0231    1.9023   11.4963 H   0  0  0  0  0  0  0  0  0  0  0  0
   42.5294    3.7809   10.8715 H   0  0  0  0  0  0  0  0  0  0  0  0
   53.6490    6.7171   21.5298 H   0  0  0  0  0  0  0  0  0  0  0  0
   49.6852    3.5076   17.3501 H   0  0  0  0  0  0  0  0  0  0  0  0
   47.2472    3.2671   17.0425 H   0  0  0  0  0  0  0  0  0  0  0  0
   48.7188    6.6994   19.5560 H   0  0  0  0  0  0  0  0  0  0  0  0
   46.6558    6.0166   16.1509 H   0  0  0  0  0  0  0  0  0  0  0  0
   46.4613    6.6119   14.0619 H   0  0  0  0  0  0  0  0  0  0  0  0
   47.6211    5.9124   12.9513 H   0  0  0  0  0  0  0  0  0  0  0  0
   50.4365    6.1418   22.5042 H   0  0  0  0  0  0  0  0  0  0  0  0
   51.7418    8.0419   17.9817 H   0  0  0  0  0  0  0  0  0  0  0  0
   51.3806    7.9718   19.7047 H   0  0  0  0  0  0  0  0  0  0  0  0
   50.1032    8.3880   18.5625 H   0  0  0  0  0  0  0  0  0  0  0  0
   51.6738    4.3279   18.7223 H   0  0  0  0  0  0  0  0  0  0  0  0
   52.6598    5.6410   18.0645 H   0  0  0  0  0  0  0  0  0  0  0  0
   52.3184    5.5767   19.7876 H   0  0  0  0  0  0  0  0  0  0  0  0
   46.7239    4.9574   10.9631 H   0  0  0  0  0  0  0  0  0  0  0  0
   44.2630    5.0349   14.5130 H   0  0  0  0  0  0  0  0  0  0  0  0
   44.8409    3.9989    9.6942 H   0  0  0  0  0  0  0  0  0  0  0  0
   42.3980    4.0663   13.2254 H   0  0  0  0  0  0  0  0  0  0  0  0
   42.6764    3.5460   10.8175 H   0  0  0  0  0  0  0  0  0  0  0  0
   48.5014    5.6429   16.8352 H   0  0  0  0  0  0  0  0  0  0  0  0
   47.3441    5.4788   15.8513 H   0  0  0  0  0  0  0  0  0  0  0  0
   48.5461    5.5965   16.8127 H   0  0  0  0  0  0  0  0  0  0  0  0
   47.3262    5.5277   15.8951 H   0  0  0  0  0  0  0  0  0  0  0  0
   47.3915    5.3856   15.7772 H   0  0  0  0  0  0  0  0  0  0  0  0
   48.4084    5.7255   16.8656 H   0  0  0  0  0  0  0  0  0  0  0  0
  3  2  1  0
  4  2  1  0
  5  3  1  0
  6  2  1  0
  3  7  1  0
  8  6  1  0
  5  9  1  0
  6 10  1  0
 11  9  1  0
 12  4  2  0
 13 10  2  0
 14 11  2  0
 15 11  1  0
 16 10  1  0
 17  8  1  0
 18  8  1  0
 19 15  1  0
 20 19  2  0
 21 19  1  0
 22 20  1  0
 23 21  2  0
 24 23  1  0
  7  8  1  0
  4  5  1  0
 24 22  2  0
 26 32  1  0
 27 30  1  0
 28 29  1  0
 29 25  1  0
 30 26  1  0
 31 25  1  0
 32 31  1  0
 33 27  2  0
 34 27  1  0
 35 28  2  0
 36 28  1  0
 37 33  1  0
 38 35  1  0
 39 36  2  0
 40 34  2  0
 41 37  2  0
 42 39  1  0
 42 38  2  0
 40 41  1  0
 44 43  1  0
 45 43  1  0
 46 44  1  0
 47 43  1  0
 44 48  1  0
 49 47  1  0
 46 50  1  0
 47 51  1  0
 52 50  1  0
 53 45  2  0
 54 51  2  0
 55 52  2  0
 56 52  1  0
 57 51  1  0
 58 49  1  0
 59 49  1  0
 60 56  1  0
 61 60  2  0
 62 60  1  0
 63 61  1  0
 64 62  2  0
 65 64  1  0
 48 49  1  0
 45 46  1  0
 65 63  2  0
  1 69  1  0
  1 70  1  0
  3 71  1  1
  5 72  1  1
  6 73  1  6
  9 74  1  0
 15 75  1  0
 15 76  1  0
 16 77  1  0
 17 78  1  0
 17 79  1  0
 17 80  1  0
 18 81  1  0
 18 82  1  0
 18 83  1  0
 20 84  1  0
 21 85  1  0
 22 86  1  0
 23 87  1  0
 24 88  1  0
 25 89  1  0
 26 90  1  0
 29 91  1  0
 29 92  1  0
 30 93  1  0
 30 94  1  0
 31 95  1  0
 31 96  1  0
 32 97  1  0
 32 98  1  0
 33 99  1  0
 34100  1  0
 35101  1  0
 36102  1  0
 37103  1  0
 38104  1  0
 39105  1  0
 40106  1  0
 41107  1  0
 42108  1  0
 44109  1  1
 46110  1  1
 47111  1  6
 50112  1  0
 56113  1  0
 56114  1  0
 57115  1  0
 58116  1  0
 58117  1  0
 58118  1  0
 59119  1  0
 59120  1  0
 59121  1  0
 61122  1  0
 62123  1  0
 63124  1  0
 64125  1  0
 65126  1  0
 66127  1  0
 66128  1  0
 67129  1  0
 67130  1  0
 68131  1  0
 68132  1  0
M  END
> <Uni-Dock RESULT> 
ENERGY=   -7.902  LOWER_BOUND=    0.000  UPPER_BOUND=    0.000
INTER + INTRA:          -7.902
INTER:                  -7.902
INTRA:                   0.000
UNBOUND:                 0.000

$$$$

     RDKit          3D

132133  0  0  0  0  0  0  0  0999 V2000
   49.0003   10.1168   18.0343 O   0  0  0  0  0  0  0  0  0  0  0  0
   48.0152   10.5812   20.4926 N   0  0  0  0  0  0  0  0  0  0  0  0
   48.8647    9.5206   19.9197 C   0  0  1  0  0  0  0  0  0  0  0  0
   47.2847   10.7363   19.3472 C   0  0  0  0  0  0  0  0  0  0  0  0
   47.8317    9.4140   18.7616 C   0  0  1  0  0  0  0  0  0  0  0  0
   48.6922   11.7131   21.1121 C   0  0  2  0  0  0  0  0  0  0  0  0
   50.4722   10.3437   19.5437 S   0  0  0  0  0  0  0  0  0  0  0  0
   50.0233   11.9464   20.3615 C   0  0  0  0  0  0  0  0  0  0  0  0
   48.3469    9.4790   17.3714 N   0  0  0  0  0  0  0  0  0  0  0  0
   48.8706   11.3900   22.5930 C   0  0  0  0  0  0  0  0  0  0  0  0
   49.0476    8.4280   16.8250 C   0  0  0  0  0  0  0  0  0  0  0  0
   46.6087   11.6600   18.9629 O   0  0  0  0  0  0  0  0  0  0  0  0
   49.1614   10.3150   23.0903 O   0  0  0  0  0  0  0  0  0  0  0  0
   49.2506    7.3840   17.4406 O   0  0  0  0  0  0  0  0  0  0  0  0
   49.6006    8.6811   15.4352 C   0  0  0  0  0  0  0  0  0  0  0  0
   48.7076   12.4769   23.3781 O   0  0  0  0  0  0  0  0  0  0  0  0
   49.8513   12.9967   19.2520 C   0  0  0  0  0  0  0  0  0  0  0  0
   51.1983   12.3732   21.2531 C   0  0  0  0  0  0  0  0  0  0  0  0
   48.5343    8.9446   14.4005 C   0  0  0  0  0  0  0  0  0  0  0  0
   48.4082   10.2085   13.8071 C   0  0  0  0  0  0  0  0  0  0  0  0
   47.6556    7.9223   14.0169 C   0  0  0  0  0  0  0  0  0  0  0  0
   47.4194   10.4427   12.8500 C   0  0  0  0  0  0  0  0  0  0  0  0
   46.6690    8.1591   13.0589 C   0  0  0  0  0  0  0  0  0  0  0  0
   46.5511    9.4190   12.4769 C   0  0  0  0  0  0  0  0  0  0  0  0
   49.4253   11.6613   19.2158 N   0  0  0  0  0  0  0  0  0  0  0  0
   47.8634    9.2983   16.6343 N   0  0  0  0  0  0  0  0  0  0  0  0
   48.3806    8.4523   14.3984 C   0  0  0  0  0  0  0  0  0  0  0  0
   48.9884   12.4150   21.4948 C   0  0  0  0  0  0  0  0  0  0  0  0
   48.3781   11.9629   20.1893 C   0  0  0  0  0  0  0  0  0  0  0  0
   48.9259    9.1059   15.6465 C   0  0  0  0  0  0  0  0  0  0  0  0
   48.8914   11.2088   17.9278 C   0  0  0  0  0  0  0  0  0  0  0  0
   48.3749    9.7519   17.9329 C   0  0  0  0  0  0  0  0  0  0  0  0
   47.6229    9.1967   13.4820 C   0  0  0  0  0  0  0  0  0  0  0  0
   48.5997    7.0901   14.1478 C   0  0  0  0  0  0  0  0  0  0  0  0
   49.0600   11.5459   22.5934 C   0  0  0  0  0  0  0  0  0  0  0  0
   49.5222   13.7062   21.6166 C   0  0  0  0  0  0  0  0  0  0  0  0
   47.1112    8.5962   12.3311 C   0  0  0  0  0  0  0  0  0  0  0  0
   49.6409   11.9671   23.7912 C   0  0  0  0  0  0  0  0  0  0  0  0
   50.1024   14.1251   22.8141 C   0  0  0  0  0  0  0  0  0  0  0  0
   48.0836    6.4900   12.9979 C   0  0  0  0  0  0  0  0  0  0  0  0
   47.3427    7.2436   12.0886 C   0  0  0  0  0  0  0  0  0  0  0  0
   50.1603   13.2561   23.9018 C   0  0  0  0  0  0  0  0  0  0  0  0
   48.1375   10.1284   20.6773 N   0  0  0  0  0  0  0  0  0  0  0  0
   49.1997    9.7890   19.7111 C   0  0  1  0  0  0  0  0  0  0  0  0
   47.1264    9.8664   19.7910 C   0  0  0  0  0  0  0  0  0  0  0  0
   48.1013    9.2291   18.7773 C   0  0  1  0  0  0  0  0  0  0  0  0
   48.1968   11.4405   21.3250 C   0  0  2  0  0  0  0  0  0  0  0  0
   49.9422   11.4236   19.3070 S   0  0  0  0  0  0  0  0  0  0  0  0
   49.5750   12.0559   21.0161 C   0  0  0  0  0  0  0  0  0  0  0  0
   48.0566    9.7545   17.3867 N   0  0  0  0  0  0  0  0  0  0  0  0
   47.8881   11.3107   22.8115 C   0  0  0  0  0  0  0  0  0  0  0  0
   48.9703    9.3175   16.4516 C   0  0  0  0  0  0  0  0  0  0  0  0
   45.9553   10.1699   19.8088 O   0  0  0  0  0  0  0  0  0  0  0  0
   47.7974   10.2848   23.4687 O   0  0  0  0  0  0  0  0  0  0  0  0
   49.7962    8.4422   16.7084 O   0  0  0  0  0  0  0  0  0  0  0  0
   48.8586    9.9822   15.0914 C   0  0  0  0  0  0  0  0  0  0  0  0
   47.7046   12.5047   23.4149 O   0  0  0  0  0  0  0  0  0  0  0  0
   49.5323   13.5851   20.9666 C   0  0  0  0  0  0  0  0  0  0  0  0
   50.7006   11.5875   21.9475 C   0  0  0  0  0  0  0  0  0  0  0  0
   48.3747    9.0361   14.0215 C   0  0  0  0  0  0  0  0  0  0  0  0
   49.2229    8.6584   12.9718 C   0  0  0  0  0  0  0  0  0  0  0  0
   47.0724    8.5191   14.0605 C   0  0  0  0  0  0  0  0  0  0  0  0
   48.7770    7.7826   11.9814 C   0  0  0  0  0  0  0  0  0  0  0  0
   46.6291    7.6407   13.0707 C   0  0  0  0  0  0  0  0  0  0  0  0
   47.4819    7.2733   12.0312 C   0  0  0  0  0  0  0  0  0  0  0  0
   48.9851   10.0901   17.9783 O   0  0  0  0  0  0  0  0  0  0  0  0
   48.9732   10.0785   17.9481 O   0  0  0  0  0  0  0  0  0  0  0  0
   49.0006   10.1168   18.0345 O   0  0  0  0  0  0  0  0  0  0  0  0
   48.6344   10.7843   18.6329 H   0  0  0  0  0  0  0  0  0  0  0  0
   48.3665   10.0833   17.3019 H   0  0  0  0  0  0  0  0  0  0  0  0
   48.9413    8.6386   20.5616 H   0  0  0  0  0  0  0  0  0  0  0  0
   47.1126    8.5918   18.8760 H   0  0  0  0  0  0  0  0  0  0  0  0
   48.0305   12.5861   21.0387 H   0  0  0  0  0  0  0  0  0  0  0  0
   48.1094   10.2674   16.7787 H   0  0  0  0  0  0  0  0  0  0  0  0
   50.3016    9.5222   15.4992 H   0  0  0  0  0  0  0  0  0  0  0  0
   50.1910    7.8098   15.1268 H   0  0  0  0  0  0  0  0  0  0  0  0
   48.8351   12.1406   24.2903 H   0  0  0  0  0  0  0  0  0  0  0  0
   49.5664   13.9640   19.6813 H   0  0  0  0  0  0  0  0  0  0  0  0
   50.7815   13.1539   18.6922 H   0  0  0  0  0  0  0  0  0  0  0  0
   49.0754   12.7240   18.5297 H   0  0  0  0  0  0  0  0  0  0  0  0
   50.9666   13.3078   21.7766 H   0  0  0  0  0  0  0  0  0  0  0  0
   51.4481   11.6184   22.0071 H   0  0  0  0  0  0  0  0  0  0  0  0
   52.1050   12.5533   20.6624 H   0  0  0  0  0  0  0  0  0  0  0  0
   49.0828   11.0188   14.0766 H   0  0  0  0  0  0  0  0  0  0  0  0
   47.7376    6.9314   14.4613 H   0  0  0  0  0  0  0  0  0  0  0  0
   47.3276   11.4246   12.3920 H   0  0  0  0  0  0  0  0  0  0  0  0
   45.9943    7.3595   12.7656 H   0  0  0  0  0  0  0  0  0  0  0  0
   45.7858    9.6009   11.7265 H   0  0  0  0  0  0  0  0  0  0  0  0
   50.0551   10.9625   19.6060 H   0  0  0  0  0  0  0  0  0  0  0  0
   47.3861    8.4049   16.7600 H   0  0  0  0  0  0  0  0  0  0  0  0
   47.7243   12.7587   19.8152 H   0  0  0  0  0  0  0  0  0  0  0  0
   47.7431   11.0899   20.3743 H   0  0  0  0  0  0  0  0  0  0  0  0
   49.7298    8.4841   16.0582 H   0  0  0  0  0  0  0  0  0  0  0  0
   49.3758   10.0638   15.3607 H   0  0  0  0  0  0  0  0  0  0  0  0
   49.7136   11.2953   17.2084 H   0  0  0  0  0  0  0  0  0  0  0  0
   48.1077   11.8912   17.5783 H   0  0  0  0  0  0  0  0  0  0  0  0
   47.5463    9.6719   18.6445 H   0  0  0  0  0  0  0  0  0  0  0  0
   49.1566    9.0696   18.2900 H   0  0  0  0  0  0  0  0  0  0  0  0
   47.4282   10.2506   13.6691 H   0  0  0  0  0  0  0  0  0  0  0  0
   49.1743    6.4874   14.8474 H   0  0  0  0  0  0  0  0  0  0  0  0
   48.6633   10.5358   22.5237 H   0  0  0  0  0  0  0  0  0  0  0  0
   49.4939   14.3862   20.7672 H   0  0  0  0  0  0  0  0  0  0  0  0
   46.5289    9.1837   11.6265 H   0  0  0  0  0  0  0  0  0  0  0  0
   49.6922   11.2885   24.6387 H   0  0  0  0  0  0  0  0  0  0  0  0
   50.5134   15.1281   22.8954 H   0  0  0  0  0  0  0  0  0  0  0  0
   48.2608    5.4345   12.8093 H   0  0  0  0  0  0  0  0  0  0  0  0
   46.9416    6.7761   11.1936 H   0  0  0  0  0  0  0  0  0  0  0  0
   50.6153   13.5823   24.8334 H   0  0  0  0  0  0  0  0  0  0  0  0
   49.9013    9.0464   20.1008 H   0  0  0  0  0  0  0  0  0  0  0  0
   48.0239    8.1335   18.7823 H   0  0  0  0  0  0  0  0  0  0  0  0
   47.3935   12.0571   20.8968 H   0  0  0  0  0  0  0  0  0  0  0  0
   47.4385   10.5265   17.1589 H   0  0  0  0  0  0  0  0  0  0  0  0
   48.1855   10.8467   15.1352 H   0  0  0  0  0  0  0  0  0  0  0  0
   49.8492   10.3813   14.8464 H   0  0  0  0  0  0  0  0  0  0  0  0
   47.5135   12.2627   24.3460 H   0  0  0  0  0  0  0  0  0  0  0  0
   50.4836   14.0046   20.6161 H   0  0  0  0  0  0  0  0  0  0  0  0
   49.3441   14.0043   21.9599 H   0  0  0  0  0  0  0  0  0  0  0  0
   48.7393   13.9526   20.3043 H   0  0  0  0  0  0  0  0  0  0  0  0
   50.7645   10.4959   22.0150 H   0  0  0  0  0  0  0  0  0  0  0  0
   51.6776   11.9565   21.6127 H   0  0  0  0  0  0  0  0  0  0  0  0
   50.5540   11.9671   22.9644 H   0  0  0  0  0  0  0  0  0  0  0  0
   50.2422    9.0365   12.9210 H   0  0  0  0  0  0  0  0  0  0  0  0
   46.3924    8.7887   14.8659 H   0  0  0  0  0  0  0  0  0  0  0  0
   49.4443    7.4926   11.1734 H   0  0  0  0  0  0  0  0  0  0  0  0
   45.6210    7.2382   13.1124 H   0  0  0  0  0  0  0  0  0  0  0  0
   47.1376    6.5852   11.2631 H   0  0  0  0  0  0  0  0  0  0  0  0
   48.7434   10.7276   18.6660 H   0  0  0  0  0  0  0  0  0  0  0  0
   48.2727   10.1667   17.3250 H   0  0  0  0  0  0  0  0  0  0  0  0
   48.8011   10.6929   18.6766 H   0  0  0  0  0  0  0  0  0  0  0  0
   48.2268   10.2131   17.3444 H   0  0  0  0  0  0  0  0  0  0  0  0
   48.3669   10.0831   17.3020 H   0  0  0  0  0  0  0  0  0  0  0  0
   48.6337   10.7847   18.6328 H   0  0  0  0  0  0  0  0  0  0  0  0
  3  2  1  0
  4  2  1  0
  5  3  1  0
  6  2  1  0
  3  7  1  0
  8  6  1  0
  5  9  1  0
  6 10  1  0
 11  9  1  0
 12  4  2  0
 13 10  2  0
 14 11  2  0
 15 11  1  0
 16 10  1  0
 17  8  1  0
 18  8  1  0
 19 15  1  0
 20 19  2  0
 21 19  1  0
 22 20  1  0
 23 21  2  0
 24 23  1  0
  7  8  1  0
  4  5  1  0
 24 22  2  0
 26 32  1  0
 27 30  1  0
 28 29  1  0
 29 25  1  0
 30 26  1  0
 31 25  1  0
 32 31  1  0
 33 27  2  0
 34 27  1  0
 35 28  2  0
 36 28  1  0
 37 33  1  0
 38 35  1  0
 39 36  2  0
 40 34  2  0
 41 37  2  0
 42 39  1  0
 42 38  2  0
 40 41  1  0
 44 43  1  0
 45 43  1  0
 46 44  1  0
 47 43  1  0
 44 48  1  0
 49 47  1  0
 46 50  1  0
 47 51  1  0
 52 50  1  0
 53 45  2  0
 54 51  2  0
 55 52  2  0
 56 52  1  0
 57 51  1  0
 58 49  1  0
 59 49  1  0
 60 56  1  0
 61 60  2  0
 62 60  1  0
 63 61  1  0
 64 62  2  0
 65 64  1  0
 48 49  1  0
 45 46  1  0
 65 63  2  0
  1 69  1  0
  1 70  1  0
  3 71  1  1
  5 72  1  1
  6 73  1  6
  9 74  1  0
 15 75  1  0
 15 76  1  0
 16 77  1  0
 17 78  1  0
 17 79  1  0
 17 80  1  0
 18 81  1  0
 18 82  1  0
 18 83  1  0
 20 84  1  0
 21 85  1  0
 22 86  1  0
 23 87  1  0
 24 88  1  0
 25 89  1  0
 26 90  1  0
 29 91  1  0
 29 92  1  0
 30 93  1  0
 30 94  1  0
 31 95  1  0
 31 96  1  0
 32 97  1  0
 32 98  1  0
 33 99  1  0
 34100  1  0
 35101  1  0
 36102  1  0
 37103  1  0
 38104  1  0
 39105  1  0
 40106  1  0
 41107  1  0
 42108  1  0
 44109  1  1
 46110  1  1
 47111  1  6
 50112  1  0
 56113  1  0
 56114  1  0
 57115  1  0
 58116  1  0
 58117  1  0
 58118  1  0
 59119  1  0
 59120  1  0
 59121  1  0
 61122  1  0
 62123  1  0
 63124  1  0
 64125  1  0
 65126  1  0
 66127  1  0
 66128  1  0
 67129  1  0
 67130  1  0
 68131  1  0
 68132  1  0
M  END
> <Uni-Dock RESULT> 
ENERGY=   -7.672  LOWER_BOUND=    4.352  UPPER_BOUND=    5.699
INTER + INTRA:          -7.672
INTER:                  -7.672
INTRA:                   0.000
UNBOUND:                 0.000

$$$$

     RDKit          3D

132133  0  0  0  0  0  0  0  0999 V2000
   48.7496    8.0882   13.1309 O   0  0  0  0  0  0  0  0  0  0  0  0
   51.0782    9.0873   12.2314 N   0  0  0  0  0  0  0  0  0  0  0  0
   49.7460    9.6710   12.4749 C   0  0  1  0  0  0  0  0  0  0  0  0
   50.5733    7.8803   11.8341 C   0  0  0  0  0  0  0  0  0  0  0  0
   49.1509    8.4686   11.6877 C   0  0  1  0  0  0  0  0  0  0  0  0
   52.0508    9.1767   13.3127 C   0  0  2  0  0  0  0  0  0  0  0  0
   49.5456    9.6617   14.3087 S   0  0  0  0  0  0  0  0  0  0  0  0
   51.2849    9.1188   14.6541 C   0  0  0  0  0  0  0  0  0  0  0  0
   48.0565    7.6992   12.3301 N   0  0  0  0  0  0  0  0  0  0  0  0
   52.8449   10.4647   13.1138 C   0  0  0  0  0  0  0  0  0  0  0  0
   46.7921    8.2295   12.4491 C   0  0  0  0  0  0  0  0  0  0  0  0
   51.0872    6.7887   11.7856 O   0  0  0  0  0  0  0  0  0  0  0  0
   52.4247   11.5483   12.7439 O   0  0  0  0  0  0  0  0  0  0  0  0
   46.5011    9.3382   12.0060 O   0  0  0  0  0  0  0  0  0  0  0  0
   45.8078    7.3706   13.2204 C   0  0  0  0  0  0  0  0  0  0  0  0
   54.1476   10.3193   13.4395 O   0  0  0  0  0  0  0  0  0  0  0  0
   51.2199    7.6785   15.1878 C   0  0  0  0  0  0  0  0  0  0  0  0
   51.8552   10.0187   15.7599 C   0  0  0  0  0  0  0  0  0  0  0  0
   45.5477    6.0290   12.5808 C   0  0  0  0  0  0  0  0  0  0  0  0
   45.9735    4.8452   13.1997 C   0  0  0  0  0  0  0  0  0  0  0  0
   44.8709    5.9507   11.3559 C   0  0  0  0  0  0  0  0  0  0  0  0
   45.7274    3.6085   12.6011 C   0  0  0  0  0  0  0  0  0  0  0  0
   44.6253    4.7128   10.7606 C   0  0  0  0  0  0  0  0  0  0  0  0
   45.0543    3.5430   11.3830 C   0  0  0  0  0  0  0  0  0  0  0  0
   50.4590    8.2203   14.1420 N   0  0  0  0  0  0  0  0  0  0  0  0
   47.5553    7.0756   11.9183 N   0  0  0  0  0  0  0  0  0  0  0  0
   45.2742    6.2380   12.1968 C   0  0  0  0  0  0  0  0  0  0  0  0
   52.6885    9.1759   13.8786 C   0  0  0  0  0  0  0  0  0  0  0  0
   51.6454    8.2559   13.2897 C   0  0  0  0  0  0  0  0  0  0  0  0
   46.4245    6.9750   12.8417 C   0  0  0  0  0  0  0  0  0  0  0  0
   49.4062    7.3468   13.6154 C   0  0  0  0  0  0  0  0  0  0  0  0
   48.6227    7.9458   12.4251 C   0  0  0  0  0  0  0  0  0  0  0  0
   45.3183    4.8433   12.0522 C   0  0  0  0  0  0  0  0  0  0  0  0
   44.1586    6.9345   11.7104 C   0  0  0  0  0  0  0  0  0  0  0  0
   52.8909   10.4611   13.3548 C   0  0  0  0  0  0  0  0  0  0  0  0
   53.4507    8.7664   14.9823 C   0  0  0  0  0  0  0  0  0  0  0  0
   44.2616    4.1585   11.4511 C   0  0  0  0  0  0  0  0  0  0  0  0
   53.8460   11.3110   13.9162 C   0  0  0  0  0  0  0  0  0  0  0  0
   54.4044    9.6170   15.5421 C   0  0  0  0  0  0  0  0  0  0  0  0
   43.1041    6.2482   11.1056 C   0  0  0  0  0  0  0  0  0  0  0  0
   43.1543    4.8607   10.9792 C   0  0  0  0  0  0  0  0  0  0  0  0
   54.6030   10.8886   15.0079 C   0  0  0  0  0  0  0  0  0  0  0  0
   50.8836    9.5264   12.0785 N   0  0  0  0  0  0  0  0  0  0  0  0
   49.6738    9.5240   12.9231 C   0  0  1  0  0  0  0  0  0  0  0  0
   50.3757    8.6100   11.1961 C   0  0  0  0  0  0  0  0  0  0  0  0
   48.9659    8.7046   11.8189 C   0  0  1  0  0  0  0  0  0  0  0  0
   52.1694    9.2574   12.7258 C   0  0  2  0  0  0  0  0  0  0  0  0
   50.2228    8.6490   14.4461 S   0  0  0  0  0  0  0  0  0  0  0  0
   51.9491    9.3099   14.2497 C   0  0  0  0  0  0  0  0  0  0  0  0
   48.3276    7.4240   12.2242 N   0  0  0  0  0  0  0  0  0  0  0  0
   53.2314   10.2224   12.2131 C   0  0  0  0  0  0  0  0  0  0  0  0
   47.1199    7.4322   12.8889 C   0  0  0  0  0  0  0  0  0  0  0  0
   50.9195    7.9275   10.3579 O   0  0  0  0  0  0  0  0  0  0  0  0
   53.0660   11.2186   11.5254 O   0  0  0  0  0  0  0  0  0  0  0  0
   46.5034    8.4749   13.1054 O   0  0  0  0  0  0  0  0  0  0  0  0
   46.6119    6.0638   13.3056 C   0  0  0  0  0  0  0  0  0  0  0  0
   54.4797    9.8814   12.5992 O   0  0  0  0  0  0  0  0  0  0  0  0
   52.9080    8.3896   15.0089 C   0  0  0  0  0  0  0  0  0  0  0  0
   51.9873   10.7227   14.8466 C   0  0  0  0  0  0  0  0  0  0  0  0
   45.3828    5.6434   12.5397 C   0  0  0  0  0  0  0  0  0  0  0  0
   44.1505    5.5094   13.1936 C   0  0  0  0  0  0  0  0  0  0  0  0
   45.4526    5.3823   11.1643 C   0  0  0  0  0  0  0  0  0  0  0  0
   43.0123    5.1212   12.4862 C   0  0  0  0  0  0  0  0  0  0  0  0
   44.3123    4.9970   10.4578 C   0  0  0  0  0  0  0  0  0  0  0  0
   43.0926    4.8663   11.1196 C   0  0  0  0  0  0  0  0  0  0  0  0
   48.6970    8.0578   13.1112 O   0  0  0  0  0  0  0  0  0  0  0  0
   48.6715    8.0382   13.0989 O   0  0  0  0  0  0  0  0  0  0  0  0
   48.7496    8.0885   13.1311 O   0  0  0  0  0  0  0  0  0  0  0  0
   49.7088    7.9609   13.0912 H   0  0  0  0  0  0  0  0  0  0  0  0
   48.3895    7.3173   12.6671 H   0  0  0  0  0  0  0  0  0  0  0  0
   49.6140   10.6497   12.0052 H   0  0  0  0  0  0  0  0  0  0  0  0
   48.9108    8.6929   10.6398 H   0  0  0  0  0  0  0  0  0  0  0  0
   52.7492    8.3355   13.2115 H   0  0  0  0  0  0  0  0  0  0  0  0
   48.2095    6.7359   12.6091 H   0  0  0  0  0  0  0  0  0  0  0  0
   46.1920    7.2511   14.2407 H   0  0  0  0  0  0  0  0  0  0  0  0
   44.8596    7.9146   13.3093 H   0  0  0  0  0  0  0  0  0  0  0  0
   54.5436   11.1984   13.2610 H   0  0  0  0  0  0  0  0  0  0  0  0
   52.2279    7.3001   15.3924 H   0  0  0  0  0  0  0  0  0  0  0  0
   50.6557    7.6170   16.1266 H   0  0  0  0  0  0  0  0  0  0  0  0
   50.7540    6.9866   14.4789 H   0  0  0  0  0  0  0  0  0  0  0  0
   52.8940    9.7478   15.9811 H   0  0  0  0  0  0  0  0  0  0  0  0
   51.8349   11.0801   15.4887 H   0  0  0  0  0  0  0  0  0  0  0  0
   51.2906    9.9124   16.6944 H   0  0  0  0  0  0  0  0  0  0  0  0
   46.4916    4.8736   14.1563 H   0  0  0  0  0  0  0  0  0  0  0  0
   44.5270    6.8567   10.8590 H   0  0  0  0  0  0  0  0  0  0  0  0
   46.0586    2.6938   13.0867 H   0  0  0  0  0  0  0  0  0  0  0  0
   44.0971    4.6618    9.8124 H   0  0  0  0  0  0  0  0  0  0  0  0
   44.8573    2.5787   10.9212 H   0  0  0  0  0  0  0  0  0  0  0  0
   50.1069    9.1678   14.2668 H   0  0  0  0  0  0  0  0  0  0  0  0
   47.2081    7.4559   11.0370 H   0  0  0  0  0  0  0  0  0  0  0  0
   52.0781    7.2539   13.1926 H   0  0  0  0  0  0  0  0  0  0  0  0
   51.3988    8.5955   12.2780 H   0  0  0  0  0  0  0  0  0  0  0  0
   46.0871    7.9713   13.1512 H   0  0  0  0  0  0  0  0  0  0  0  0
   46.7071    6.4349   13.7527 H   0  0  0  0  0  0  0  0  0  0  0  0
   48.7142    7.1667   14.4460 H   0  0  0  0  0  0  0  0  0  0  0  0
   49.8209    6.3682   13.3467 H   0  0  0  0  0  0  0  0  0  0  0  0
   49.3152    8.1139   11.5935 H   0  0  0  0  0  0  0  0  0  0  0  0
   48.2141    8.9287   12.6913 H   0  0  0  0  0  0  0  0  0  0  0  0
   46.1838    4.2884   12.4080 H   0  0  0  0  0  0  0  0  0  0  0  0
   44.1039    8.0171   11.7997 H   0  0  0  0  0  0  0  0  0  0  0  0
   52.3067   10.8084   12.5058 H   0  0  0  0  0  0  0  0  0  0  0  0
   53.2917    7.7802   15.4145 H   0  0  0  0  0  0  0  0  0  0  0  0
   44.3051    3.0777   11.3480 H   0  0  0  0  0  0  0  0  0  0  0  0
   53.9980   12.3053   13.5045 H   0  0  0  0  0  0  0  0  0  0  0  0
   54.9881    9.2882   16.3980 H   0  0  0  0  0  0  0  0  0  0  0  0
   42.2414    6.7952   10.7344 H   0  0  0  0  0  0  0  0  0  0  0  0
   42.3330    4.3271   10.5088 H   0  0  0  0  0  0  0  0  0  0  0  0
   55.3441   11.5518   15.4467 H   0  0  0  0  0  0  0  0  0  0  0  0
   49.2726   10.5280   13.0863 H   0  0  0  0  0  0  0  0  0  0  0  0
   48.2883    9.2947   11.1872 H   0  0  0  0  0  0  0  0  0  0  0  0
   52.4916    8.2528   12.4163 H   0  0  0  0  0  0  0  0  0  0  0  0
   48.8388    6.5527   12.1271 H   0  0  0  0  0  0  0  0  0  0  0  0
   47.3913    5.3035   13.1760 H   0  0  0  0  0  0  0  0  0  0  0  0
   46.4094    6.1101   14.3815 H   0  0  0  0  0  0  0  0  0  0  0  0
   55.0410   10.5779   12.1970 H   0  0  0  0  0  0  0  0  0  0  0  0
   52.6551    8.3337   16.0750 H   0  0  0  0  0  0  0  0  0  0  0  0
   53.9374    8.7557   14.9428 H   0  0  0  0  0  0  0  0  0  0  0  0
   52.9009    7.3688   14.6085 H   0  0  0  0  0  0  0  0  0  0  0  0
   51.3161   11.4168   14.3290 H   0  0  0  0  0  0  0  0  0  0  0  0
   51.7057   10.7178   15.9066 H   0  0  0  0  0  0  0  0  0  0  0  0
   52.9960   11.1461   14.7924 H   0  0  0  0  0  0  0  0  0  0  0  0
   44.0645    5.7148   14.2589 H   0  0  0  0  0  0  0  0  0  0  0  0
   46.3935    5.4835   10.6275 H   0  0  0  0  0  0  0  0  0  0  0  0
   42.0600    5.0241   13.0021 H   0  0  0  0  0  0  0  0  0  0  0  0
   44.3730    4.8041    9.3905 H   0  0  0  0  0  0  0  0  0  0  0  0
   42.2036    4.5709   10.5677 H   0  0  0  0  0  0  0  0  0  0  0  0
   49.6646    8.0646   13.1502 H   0  0  0  0  0  0  0  0  0  0  0  0
   48.4863    7.2440   12.6278 H   0  0  0  0  0  0  0  0  0  0  0  0
   49.6332    8.1174   13.1800 H   0  0  0  0  0  0  0  0  0  0  0  0
   48.5431    7.2108   12.6104 H   0  0  0  0  0  0  0  0  0  0  0  0
   48.3893    7.3177   12.6674 H   0  0  0  0  0  0  0  0  0  0  0  0
   49.7091    7.9603   13.0909 H   0  0  0  0  0  0  0  0  0  0  0  0
  3  2  1  0
  4  2  1  0
  5  3  1  0
  6  2  1  0
  3  7  1  0
  8  6  1  0
  5  9  1  0
  6 10  1  0
 11  9  1  0
 12  4  2  0
 13 10  2  0
 14 11  2  0
 15 11  1  0
 16 10  1  0
 17  8  1  0
 18  8  1  0
 19 15  1  0
 20 19  2  0
 21 19  1  0
 22 20  1  0
 23 21  2  0
 24 23  1  0
  7  8  1  0
  4  5  1  0
 24 22  2  0
 26 32  1  0
 27 30  1  0
 28 29  1  0
 29 25  1  0
 30 26  1  0
 31 25  1  0
 32 31  1  0
 33 27  2  0
 34 27  1  0
 35 28  2  0
 36 28  1  0
 37 33  1  0
 38 35  1  0
 39 36  2  0
 40 34  2  0
 41 37  2  0
 42 39  1  0
 42 38  2  0
 40 41  1  0
 44 43  1  0
 45 43  1  0
 46 44  1  0
 47 43  1  0
 44 48  1  0
 49 47  1  0
 46 50  1  0
 47 51  1  0
 52 50  1  0
 53 45  2  0
 54 51  2  0
 55 52  2  0
 56 52  1  0
 57 51  1  0
 58 49  1  0
 59 49  1  0
 60 56  1  0
 61 60  2  0
 62 60  1  0
 63 61  1  0
 64 62  2  0
 65 64  1  0
 48 49  1  0
 45 46  1  0
 65 63  2  0
  1 69  1  0
  1 70  1  0
  3 71  1  1
  5 72  1  1
  6 73  1  6
  9 74  1  0
 15 75  1  0
 15 76  1  0
 16 77  1  0
 17 78  1  0
 17 79  1  0
 17 80  1  0
 18 81  1  0
 18 82  1  0
 18 83  1  0
 20 84  1  0
 21 85  1  0
 22 86  1  0
 23 87  1  0
 24 88  1  0
 25 89  1  0
 26 90  1  0
 29 91  1  0
 29 92  1  0
 30 93  1  0
 30 94  1  0
 31 95  1  0
 31 96  1  0
 32 97  1  0
 32 98  1  0
 33 99  1  0
 34100  1  0
 35101  1  0
 36102  1  0
 37103  1  0
 38104  1  0
 39105  1  0
 40106  1  0
 41107  1  0
 42108  1  0
 44109  1  1
 46110  1  1
 47111  1  6
 50112  1  0
 56113  1  0
 56114  1  0
 57115  1  0
 58116  1  0
 58117  1  0
 58118  1  0
 59119  1  0
 59120  1  0
 59121  1  0
 61122  1  0
 62123  1  0
 63124  1  0
 64125  1  0
 65126  1  0
 66127  1  0
 66128  1  0
 67129  1  0
 67130  1  0
 68131  1  0
 68132  1  0
M  END
> <Uni-Dock RESULT> 
ENERGY=   -7.271  LOWER_BOUND=    4.244  UPPER_BOUND=    5.868
INTER + INTRA:          -7.271
INTER:                  -7.271
INTRA:                   0.000
UNBOUND:                 0.000

$$$$

     RDKit          3D

132133  0  0  0  0  0  0  0  0999 V2000
   48.5570    7.7798   13.6092 O   0  0  0  0  0  0  0  0  0  0  0  0
   49.6605    9.1145   15.6659 N   0  0  0  0  0  0  0  0  0  0  0  0
   49.7934    7.7365   15.1577 C   0  0  1  0  0  0  0  0  0  0  0  0
   48.3367    9.2023   15.3350 C   0  0  0  0  0  0  0  0  0  0  0  0
   48.2397    7.6745   15.1180 C   0  0  1  0  0  0  0  0  0  0  0  0
   50.6231   10.0966   15.1840 C   0  0  2  0  0  0  0  0  0  0  0  0
   50.6730    7.9026   13.5446 S   0  0  0  0  0  0  0  0  0  0  0  0
   51.0167    9.7145   13.7387 C   0  0  0  0  0  0  0  0  0  0  0  0
   47.6004    7.2337   13.8534 N   0  0  0  0  0  0  0  0  0  0  0  0
   51.7980   10.1078   16.1580 C   0  0  0  0  0  0  0  0  0  0  0  0
   47.6495    5.9171   13.4555 C   0  0  0  0  0  0  0  0  0  0  0  0
   47.6301   10.1660   15.1617 O   0  0  0  0  0  0  0  0  0  0  0  0
   52.3122    9.1521   16.7146 O   0  0  0  0  0  0  0  0  0  0  0  0
   48.1892    5.0461   14.1340 O   0  0  0  0  0  0  0  0  0  0  0  0
   47.0446    5.6374   12.0926 C   0  0  0  0  0  0  0  0  0  0  0  0
   52.2949   11.3493   16.3475 O   0  0  0  0  0  0  0  0  0  0  0  0
   50.1438   10.4605   12.7164 C   0  0  0  0  0  0  0  0  0  0  0  0
   52.4908    9.9613   13.3870 C   0  0  0  0  0  0  0  0  0  0  0  0
   45.5721    5.9559   12.0095 C   0  0  0  0  0  0  0  0  0  0  0  0
   45.1109    7.0105   11.2090 C   0  0  0  0  0  0  0  0  0  0  0  0
   44.6437    5.1949   12.7329 C   0  0  0  0  0  0  0  0  0  0  0  0
   43.7467    7.2971   11.1375 C   0  0  0  0  0  0  0  0  0  0  0  0
   43.2804    5.4831   12.6583 C   0  0  0  0  0  0  0  0  0  0  0  0
   42.8331    6.5342   11.8615 C   0  0  0  0  0  0  0  0  0  0  0  0
   49.7661    9.3568   13.4944 N   0  0  0  0  0  0  0  0  0  0  0  0
   46.7275    7.0366   13.7594 N   0  0  0  0  0  0  0  0  0  0  0  0
   45.4432    5.5508   12.3014 C   0  0  0  0  0  0  0  0  0  0  0  0
   51.1331   10.7436   14.9645 C   0  0  0  0  0  0  0  0  0  0  0  0
   49.7522   10.1970   14.6899 C   0  0  0  0  0  0  0  0  0  0  0  0
   46.7463    6.2885   12.5018 C   0  0  0  0  0  0  0  0  0  0  0  0
   48.4507    8.7905   13.1817 C   0  0  0  0  0  0  0  0  0  0  0  0
   48.0349    7.6133   14.0932 C   0  0  0  0  0  0  0  0  0  0  0  0
   44.2900    6.2445   11.9057 C   0  0  0  0  0  0  0  0  0  0  0  0
   45.3579    4.1701   12.5312 C   0  0  0  0  0  0  0  0  0  0  0  0
   51.9362   10.1924   15.9738 C   0  0  0  0  0  0  0  0  0  0  0  0
   51.6452   11.7942   14.1894 C   0  0  0  0  0  0  0  0  0  0  0  0
   43.0823    5.5691   11.7258 C   0  0  0  0  0  0  0  0  0  0  0  0
   53.2181   10.6933   16.2096 C   0  0  0  0  0  0  0  0  0  0  0  0
   52.9263   12.2931   14.4263 C   0  0  0  0  0  0  0  0  0  0  0  0
   44.1479    3.4966   12.3547 C   0  0  0  0  0  0  0  0  0  0  0  0
   43.0118    4.1954   11.9490 C   0  0  0  0  0  0  0  0  0  0  0  0
   53.7120   11.7436   15.4375 C   0  0  0  0  0  0  0  0  0  0  0  0
   49.8591    8.7060   15.8844 N   0  0  0  0  0  0  0  0  0  0  0  0
   49.8871    7.8282   14.6988 C   0  0  1  0  0  0  0  0  0  0  0  0
   48.5094    8.5611   16.0683 C   0  0  0  0  0  0  0  0  0  0  0  0
   48.4303    7.4250   15.0255 C   0  0  1  0  0  0  0  0  0  0  0  0
   50.4210   10.0518   15.7515 C   0  0  2  0  0  0  0  0  0  0  0  0
   50.1803    9.0007   13.3111 S   0  0  0  0  0  0  0  0  0  0  0  0
   51.1809   10.1145   14.4128 C   0  0  0  0  0  0  0  0  0  0  0  0
   47.4215    7.5804   13.9439 N   0  0  0  0  0  0  0  0  0  0  0  0
   51.2701   10.3928   16.9700 C   0  0  0  0  0  0  0  0  0  0  0  0
   47.3648    6.6665   12.9134 C   0  0  0  0  0  0  0  0  0  0  0  0
   47.7225    9.2070   16.7221 O   0  0  0  0  0  0  0  0  0  0  0  0
   51.6366    9.6397   17.8595 O   0  0  0  0  0  0  0  0  0  0  0  0
   48.0858    5.6697   12.8873 O   0  0  0  0  0  0  0  0  0  0  0  0
   46.3373    6.9782   11.8403 C   0  0  0  0  0  0  0  0  0  0  0  0
   51.6267   11.6945   17.0126 O   0  0  0  0  0  0  0  0  0  0  0  0
   51.1798   11.5203   13.8076 C   0  0  0  0  0  0  0  0  0  0  0  0
   52.6118    9.5640   14.4708 C   0  0  0  0  0  0  0  0  0  0  0  0
   45.1926    5.9965   11.8308 C   0  0  0  0  0  0  0  0  0  0  0  0
   45.0106    5.1293   10.7450 C   0  0  0  0  0  0  0  0  0  0  0  0
   44.2955    5.9345   12.9060 C   0  0  0  0  0  0  0  0  0  0  0  0
   43.9524    4.2199   10.7350 C   0  0  0  0  0  0  0  0  0  0  0  0
   43.2395    5.0221   12.8956 C   0  0  0  0  0  0  0  0  0  0  0  0
   43.0683    4.1654   11.8095 C   0  0  0  0  0  0  0  0  0  0  0  0
   48.5051    7.7463   13.5931 O   0  0  0  0  0  0  0  0  0  0  0  0
   48.4747    7.7318   13.5858 O   0  0  0  0  0  0  0  0  0  0  0  0
   48.5574    7.7797   13.6091 O   0  0  0  0  0  0  0  0  0  0  0  0
   48.7616    8.6532   13.9741 H   0  0  0  0  0  0  0  0  0  0  0  0
   47.5894    7.7657   13.5581 H   0  0  0  0  0  0  0  0  0  0  0  0
   50.2711    7.0600   15.8718 H   0  0  0  0  0  0  0  0  0  0  0  0
   47.7885    7.1700   15.9830 H   0  0  0  0  0  0  0  0  0  0  0  0
   50.1478   11.0855   15.2234 H   0  0  0  0  0  0  0  0  0  0  0  0
   47.0425    7.8860   13.3126 H   0  0  0  0  0  0  0  0  0  0  0  0
   47.6123    6.2086   11.3481 H   0  0  0  0  0  0  0  0  0  0  0  0
   47.1960    4.5785   11.8505 H   0  0  0  0  0  0  0  0  0  0  0  0
   53.0251   11.2247   16.9900 H   0  0  0  0  0  0  0  0  0  0  0  0
   50.2953   11.5426   12.8007 H   0  0  0  0  0  0  0  0  0  0  0  0
   50.3932   10.1794   11.6858 H   0  0  0  0  0  0  0  0  0  0  0  0
   49.0747   10.2731   12.8582 H   0  0  0  0  0  0  0  0  0  0  0  0
   52.7456   11.0201   13.5108 H   0  0  0  0  0  0  0  0  0  0  0  0
   53.1745    9.3755   14.0114 H   0  0  0  0  0  0  0  0  0  0  0  0
   52.7028    9.7010   12.3425 H   0  0  0  0  0  0  0  0  0  0  0  0
   45.8067    7.6120   10.6273 H   0  0  0  0  0  0  0  0  0  0  0  0
   44.9785    4.3682   13.3579 H   0  0  0  0  0  0  0  0  0  0  0  0
   43.3949    8.1152   10.5135 H   0  0  0  0  0  0  0  0  0  0  0  0
   42.5678    4.8855   13.2204 H   0  0  0  0  0  0  0  0  0  0  0  0
   41.7702    6.7542   11.7996 H   0  0  0  0  0  0  0  0  0  0  0  0
   50.4543    8.6154   13.6132 H   0  0  0  0  0  0  0  0  0  0  0  0
   46.4491    6.3946   14.5025 H   0  0  0  0  0  0  0  0  0  0  0  0
   49.0630   11.0387   14.5590 H   0  0  0  0  0  0  0  0  0  0  0  0
   49.4080    9.6371   15.5660 H   0  0  0  0  0  0  0  0  0  0  0  0
   47.5739    5.5693   12.4911 H   0  0  0  0  0  0  0  0  0  0  0  0
   46.8931    6.9589   11.6472 H   0  0  0  0  0  0  0  0  0  0  0  0
   48.5076    8.4388   12.1452 H   0  0  0  0  0  0  0  0  0  0  0  0
   47.6844    9.5744   13.1959 H   0  0  0  0  0  0  0  0  0  0  0  0
   47.9683    7.9711   15.1261 H   0  0  0  0  0  0  0  0  0  0  0  0
   48.8054    6.8321   14.0852 H   0  0  0  0  0  0  0  0  0  0  0  0
   44.3336    7.3189   11.7398 H   0  0  0  0  0  0  0  0  0  0  0  0
   46.2342    3.6100   12.8494 H   0  0  0  0  0  0  0  0  0  0  0  0
   51.5684    9.3703   16.5833 H   0  0  0  0  0  0  0  0  0  0  0  0
   51.0435   12.2193   13.3882 H   0  0  0  0  0  0  0  0  0  0  0  0
   42.1964    6.1163   11.4154 H   0  0  0  0  0  0  0  0  0  0  0  0
   53.8344   10.2619   16.9940 H   0  0  0  0  0  0  0  0  0  0  0  0
   53.3119   13.1070   13.8179 H   0  0  0  0  0  0  0  0  0  0  0  0
   44.0910    2.4258   12.5315 H   0  0  0  0  0  0  0  0  0  0  0  0
   42.0704    3.6706   11.8113 H   0  0  0  0  0  0  0  0  0  0  0  0
   54.7112   12.1309   15.6193 H   0  0  0  0  0  0  0  0  0  0  0  0
   50.6229    7.0243   14.7878 H   0  0  0  0  0  0  0  0  0  0  0  0
   48.3343    6.4437   15.5096 H   0  0  0  0  0  0  0  0  0  0  0  0
   49.5817   10.7621   15.7531 H   0  0  0  0  0  0  0  0  0  0  0  0
   46.8613    8.4252   13.8943 H   0  0  0  0  0  0  0  0  0  0  0  0
   45.9380    7.9915   11.9668 H   0  0  0  0  0  0  0  0  0  0  0  0
   46.8652    6.9778   10.8801 H   0  0  0  0  0  0  0  0  0  0  0  0
   52.1533   11.7598   17.8375 H   0  0  0  0  0  0  0  0  0  0  0  0
   51.6054   11.5251   12.7964 H   0  0  0  0  0  0  0  0  0  0  0  0
   51.7810   12.2074   14.4113 H   0  0  0  0  0  0  0  0  0  0  0  0
   50.1689   11.9411   13.7481 H   0  0  0  0  0  0  0  0  0  0  0  0
   52.6588    8.5580   14.9020 H   0  0  0  0  0  0  0  0  0  0  0  0
   53.0644    9.5183   13.4728 H   0  0  0  0  0  0  0  0  0  0  0  0
   53.2571   10.2076   15.0783 H   0  0  0  0  0  0  0  0  0  0  0  0
   45.6971    5.1485    9.9008 H   0  0  0  0  0  0  0  0  0  0  0  0
   44.4141    6.5903   13.7660 H   0  0  0  0  0  0  0  0  0  0  0  0
   43.8223    3.5486    9.8896 H   0  0  0  0  0  0  0  0  0  0  0  0
   42.5531    4.9748   13.7363 H   0  0  0  0  0  0  0  0  0  0  0  0
   42.2484    3.4515   11.8041 H   0  0  0  0  0  0  0  0  0  0  0  0
   48.8586    8.5754   13.9470 H   0  0  0  0  0  0  0  0  0  0  0  0
   47.5443    7.8770   13.6013 H   0  0  0  0  0  0  0  0  0  0  0  0
   48.9048    8.5283   13.9300 H   0  0  0  0  0  0  0  0  0  0  0  0
   47.5284    7.9386   13.6256 H   0  0  0  0  0  0  0  0  0  0  0  0
   47.5897    7.7654   13.5580 H   0  0  0  0  0  0  0  0  0  0  0  0
   48.7610    8.6537   13.9743 H   0  0  0  0  0  0  0  0  0  0  0  0
  3  2  1  0
  4  2  1  0
  5  3  1  0
  6  2  1  0
  3  7  1  0
  8  6  1  0
  5  9  1  0
  6 10  1  0
 11  9  1  0
 12  4  2  0
 13 10  2  0
 14 11  2  0
 15 11  1  0
 16 10  1  0
 17  8  1  0
 18  8  1  0
 19 15  1  0
 20 19  2  0
 21 19  1  0
 22 20  1  0
 23 21  2  0
 24 23  1  0
  7  8  1  0
  4  5  1  0
 24 22  2  0
 26 32  1  0
 27 30  1  0
 28 29  1  0
 29 25  1  0
 30 26  1  0
 31 25  1  0
 32 31  1  0
 33 27  2  0
 34 27  1  0
 35 28  2  0
 36 28  1  0
 37 33  1  0
 38 35  1  0
 39 36  2  0
 40 34  2  0
 41 37  2  0
 42 39  1  0
 42 38  2  0
 40 41  1  0
 44 43  1  0
 45 43  1  0
 46 44  1  0
 47 43  1  0
 44 48  1  0
 49 47  1  0
 46 50  1  0
 47 51  1  0
 52 50  1  0
 53 45  2  0
 54 51  2  0
 55 52  2  0
 56 52  1  0
 57 51  1  0
 58 49  1  0
 59 49  1  0
 60 56  1  0
 61 60  2  0
 62 60  1  0
 63 61  1  0
 64 62  2  0
 65 64  1  0
 48 49  1  0
 45 46  1  0
 65 63  2  0
  1 69  1  0
  1 70  1  0
  3 71  1  1
  5 72  1  1
  6 73  1  6
  9 74  1  0
 15 75  1  0
 15 76  1  0
 16 77  1  0
 17 78  1  0
 17 79  1  0
 17 80  1  0
 18 81  1  0
 18 82  1  0
 18 83  1  0
 20 84  1  0
 21 85  1  0
 22 86  1  0
 23 87  1  0
 24 88  1  0
 25 89  1  0
 26 90  1  0
 29 91  1  0
 29 92  1  0
 30 93  1  0
 30 94  1  0
 31 95  1  0
 31 96  1  0
 32 97  1  0
 32 98  1  0
 33 99  1  0
 34100  1  0
 35101  1  0
 36102  1  0
 37103  1  0
 38104  1  0
 39105  1  0
 40106  1  0
 41107  1  0
 42108  1  0
 44109  1  1
 46110  1  1
 47111  1  6
 50112  1  0
 56113  1  0
 56114  1  0
 57115  1  0
 58116  1  0
 58117  1  0
 58118  1  0
 59119  1  0
 59120  1  0
 59121  1  0
 61122  1  0
 62123  1  0
 63124  1  0
 64125  1  0
 65126  1  0
 66127  1  0
 66128  1  0
 67129  1  0
 67130  1  0
 68131  1  0
 68132  1  0
M  END
> <Uni-Dock RESULT> 
ENERGY=   -6.727  LOWER_BOUND=    3.371  UPPER_BOUND=    4.333
INTER + INTRA:          -6.727
INTER:                  -6.727
INTRA:                   0.000
UNBOUND:                 0.000

$$$$

     RDKit          3D

132133  0  0  0  0  0  0  0  0999 V2000
   49.6106    6.0347   16.4633 O   0  0  0  0  0  0  0  0  0  0  0  0
   50.2132    6.3395   19.0658 N   0  0  0  0  0  0  0  0  0  0  0  0
   49.4144    5.3536   18.3143 C   0  0  1  0  0  0  0  0  0  0  0  0
   49.8632    7.3775   18.2476 C   0  0  0  0  0  0  0  0  0  0  0  0
   48.7182    6.5548   17.6129 C   0  0  1  0  0  0  0  0  0  0  0  0
   51.6121    6.0136   19.3110 C   0  0  2  0  0  0  0  0  0  0  0  0
   50.6418    4.3948   17.3257 S   0  0  0  0  0  0  0  0  0  0  0  0
   52.1259    5.1738   18.1192 C   0  0  0  0  0  0  0  0  0  0  0  0
   48.6629    6.5483   16.1299 N   0  0  0  0  0  0  0  0  0  0  0  0
   51.6890    5.2886   20.6518 C   0  0  0  0  0  0  0  0  0  0  0  0
   47.8273    5.6876   15.4553 C   0  0  0  0  0  0  0  0  0  0  0  0
   50.3952    8.4446   18.0570 O   0  0  0  0  0  0  0  0  0  0  0  0
   50.9097    4.4626   21.0968 O   0  0  0  0  0  0  0  0  0  0  0  0
   47.0710    4.9147   16.0393 O   0  0  0  0  0  0  0  0  0  0  0  0
   47.9571    5.7224   13.9442 C   0  0  0  0  0  0  0  0  0  0  0  0
   52.7926    5.6251   21.3540 O   0  0  0  0  0  0  0  0  0  0  0  0
   52.7947    6.0696   17.0639 C   0  0  0  0  0  0  0  0  0  0  0  0
   53.1080    4.0554   18.4964 C   0  0  0  0  0  0  0  0  0  0  0  0
   47.6140    7.0618   13.3401 C   0  0  0  0  0  0  0  0  0  0  0  0
   48.6027    7.8481   12.7318 C   0  0  0  0  0  0  0  0  0  0  0  0
   46.2955    7.5358   13.3777 C   0  0  0  0  0  0  0  0  0  0  0  0
   48.2757    9.0855   12.1746 C   0  0  0  0  0  0  0  0  0  0  0  0
   45.9716    8.7726   12.8186 C   0  0  0  0  0  0  0  0  0  0  0  0
   46.9618    9.5467   12.2184 C   0  0  0  0  0  0  0  0  0  0  0  0
   51.4185    5.9228   17.2885 N   0  0  0  0  0  0  0  0  0  0  0  0
   48.1762    7.1170   15.6305 N   0  0  0  0  0  0  0  0  0  0  0  0
   47.1102    7.0014   13.4321 C   0  0  0  0  0  0  0  0  0  0  0  0
   52.4368    5.9194   19.5057 C   0  0  0  0  0  0  0  0  0  0  0  0
   51.5388    6.6609   18.5440 C   0  0  0  0  0  0  0  0  0  0  0  0
   48.1582    6.4132   14.3475 C   0  0  0  0  0  0  0  0  0  0  0  0
   50.5500    6.5926   16.3159 C   0  0  0  0  0  0  0  0  0  0  0  0
   49.0401    6.4640   16.6208 C   0  0  0  0  0  0  0  0  0  0  0  0
   47.3382    8.2276   12.7898 C   0  0  0  0  0  0  0  0  0  0  0  0
   45.8863    6.3477   13.2294 C   0  0  0  0  0  0  0  0  0  0  0  0
   51.8969    5.1855   20.5721 C   0  0  0  0  0  0  0  0  0  0  0  0
   53.8276    5.9295   19.3258 C   0  0  0  0  0  0  0  0  0  0  0  0
   46.3708    8.7786   11.9486 C   0  0  0  0  0  0  0  0  0  0  0  0
   52.7339    4.4895   21.4466 C   0  0  0  0  0  0  0  0  0  0  0  0
   54.6623    5.2333   20.2004 C   0  0  0  0  0  0  0  0  0  0  0  0
   44.9180    6.9025   12.3907 C   0  0  0  0  0  0  0  0  0  0  0  0
   45.1617    8.1155   11.7483 C   0  0  0  0  0  0  0  0  0  0  0  0
   54.1154    4.5147   21.2617 C   0  0  0  0  0  0  0  0  0  0  0  0
   49.8797    5.9992   19.2303 N   0  0  0  0  0  0  0  0  0  0  0  0
   49.7315    5.2310   17.9793 C   0  0  1  0  0  0  0  0  0  0  0  0
   49.1059    7.0387   18.7864 C   0  0  0  0  0  0  0  0  0  0  0  0
   48.6451    6.2429   17.5461 C   0  0  1  0  0  0  0  0  0  0  0  0
   51.2370    6.2726   19.7074 C   0  0  2  0  0  0  0  0  0  0  0  0
   51.3979    5.3527   17.2081 S   0  0  0  0  0  0  0  0  0  0  0  0
   52.2094    5.4109   18.8796 C   0  0  0  0  0  0  0  0  0  0  0  0
   48.8182    6.9048   16.2257 N   0  0  0  0  0  0  0  0  0  0  0  0
   51.3243    6.0455   21.2117 C   0  0  0  0  0  0  0  0  0  0  0  0
   48.5362    6.2177   15.0643 C   0  0  0  0  0  0  0  0  0  0  0  0
   48.9845    8.1707   19.1963 O   0  0  0  0  0  0  0  0  0  0  0  0
   50.4923    5.5225   21.9376 O   0  0  0  0  0  0  0  0  0  0  0  0
   48.0733    5.0776   15.0788 O   0  0  0  0  0  0  0  0  0  0  0  0
   48.8203    6.9838   13.7850 C   0  0  0  0  0  0  0  0  0  0  0  0
   52.4807    6.4964   21.7436 O   0  0  0  0  0  0  0  0  0  0  0  0
   53.5837    6.0670   18.7267 C   0  0  0  0  0  0  0  0  0  0  0  0
   52.3637    3.9698   19.3828 C   0  0  0  0  0  0  0  0  0  0  0  0
   47.5633    7.3499   13.0368 C   0  0  0  0  0  0  0  0  0  0  0  0
   47.2888    6.7774   11.7874 C   0  0  0  0  0  0  0  0  0  0  0  0
   46.6503    8.2652   13.5786 C   0  0  0  0  0  0  0  0  0  0  0  0
   46.1258    7.1146   11.0943 C   0  0  0  0  0  0  0  0  0  0  0  0
   45.4859    8.5989   12.8851 C   0  0  0  0  0  0  0  0  0  0  0  0
   45.2247    8.0235   11.6428 C   0  0  0  0  0  0  0  0  0  0  0  0
   49.5692    6.0541   16.4187 O   0  0  0  0  0  0  0  0  0  0  0  0
   49.5481    6.0688   16.3958 O   0  0  0  0  0  0  0  0  0  0  0  0
   49.6107    6.0344   16.4634 O   0  0  0  0  0  0  0  0  0  0  0  0
   50.2214    6.4375   17.0977 H   0  0  0  0  0  0  0  0  0  0  0  0
   49.2080    6.7908   16.0100 H   0  0  0  0  0  0  0  0  0  0  0  0
   48.7685    4.7468   18.9549 H   0  0  0  0  0  0  0  0  0  0  0  0
   47.7424    6.8204   18.0412 H   0  0  0  0  0  0  0  0  0  0  0  0
   52.1680    6.9554   19.4088 H   0  0  0  0  0  0  0  0  0  0  0  0
   49.1781    7.2432   15.5999 H   0  0  0  0  0  0  0  0  0  0  0  0
   48.9814    5.4266   13.6869 H   0  0  0  0  0  0  0  0  0  0  0  0
   47.2981    4.9573   13.5162 H   0  0  0  0  0  0  0  0  0  0  0  0
   52.7203    5.1090   22.1846 H   0  0  0  0  0  0  0  0  0  0  0  0
   53.6721    6.5712   17.4879 H   0  0  0  0  0  0  0  0  0  0  0  0
   53.1409    5.4910   16.1987 H   0  0  0  0  0  0  0  0  0  0  0  0
   52.1265    6.8517   16.6897 H   0  0  0  0  0  0  0  0  0  0  0  0
   53.9936    4.4696   18.9917 H   0  0  0  0  0  0  0  0  0  0  0  0
   52.6616    3.3149   19.1694 H   0  0  0  0  0  0  0  0  0  0  0  0
   53.4607    3.5153   17.6089 H   0  0  0  0  0  0  0  0  0  0  0  0
   49.6328    7.5018   12.6776 H   0  0  0  0  0  0  0  0  0  0  0  0
   45.5103    6.9402   13.8411 H   0  0  0  0  0  0  0  0  0  0  0  0
   49.0464    9.6900   11.7027 H   0  0  0  0  0  0  0  0  0  0  0  0
   44.9461    9.1304   12.8498 H   0  0  0  0  0  0  0  0  0  0  0  0
   46.7072   10.5076   11.7780 H   0  0  0  0  0  0  0  0  0  0  0  0
   51.0776    4.9830   17.4830 H   0  0  0  0  0  0  0  0  0  0  0  0
   47.2209    7.1412   15.9888 H   0  0  0  0  0  0  0  0  0  0  0  0
   51.9635    7.6550   18.3652 H   0  0  0  0  0  0  0  0  0  0  0  0
   50.5603    6.8123   19.0121 H   0  0  0  0  0  0  0  0  0  0  0  0
   47.9522    5.3462   14.4938 H   0  0  0  0  0  0  0  0  0  0  0  0
   49.1295    6.4863   13.8448 H   0  0  0  0  0  0  0  0  0  0  0  0
   50.7610    6.1274   15.3462 H   0  0  0  0  0  0  0  0  0  0  0  0
   50.8315    7.6474   16.2154 H   0  0  0  0  0  0  0  0  0  0  0  0
   48.8315    6.9397   17.5850 H   0  0  0  0  0  0  0  0  0  0  0  0
   48.7598    5.4087   16.7290 H   0  0  0  0  0  0  0  0  0  0  0  0
   48.2750    8.7573   12.9492 H   0  0  0  0  0  0  0  0  0  0  0  0
   45.6793    5.4014   13.7239 H   0  0  0  0  0  0  0  0  0  0  0  0
   50.8214    5.1519   20.7292 H   0  0  0  0  0  0  0  0  0  0  0  0
   54.2618    6.4765   18.4910 H   0  0  0  0  0  0  0  0  0  0  0  0
   46.5601    9.7271   11.4534 H   0  0  0  0  0  0  0  0  0  0  0  0
   52.3086    3.9237   22.2713 H   0  0  0  0  0  0  0  0  0  0  0  0
   55.7386    5.2483   20.0496 H   0  0  0  0  0  0  0  0  0  0  0  0
   43.9734    6.3877   12.2362 H   0  0  0  0  0  0  0  0  0  0  0  0
   44.4078    8.5465   11.0952 H   0  0  0  0  0  0  0  0  0  0  0  0
   54.7663    3.9699   21.9407 H   0  0  0  0  0  0  0  0  0  0  0  0
   49.3751    4.2117   18.1512 H   0  0  0  0  0  0  0  0  0  0  0  0
   47.6168    5.8756   17.6658 H   0  0  0  0  0  0  0  0  0  0  0  0
   51.4349    7.3420   19.5460 H   0  0  0  0  0  0  0  0  0  0  0  0
   49.2643    7.8148   16.1723 H   0  0  0  0  0  0  0  0  0  0  0  0
   49.3891    7.8970   13.9966 H   0  0  0  0  0  0  0  0  0  0  0  0
   49.4748    6.3541   13.1719 H   0  0  0  0  0  0  0  0  0  0  0  0
   52.3891    6.2886   22.6977 H   0  0  0  0  0  0  0  0  0  0  0  0
   54.2213    5.5112   18.0280 H   0  0  0  0  0  0  0  0  0  0  0  0
   54.1113    6.0994   19.6852 H   0  0  0  0  0  0  0  0  0  0  0  0
   53.5081    7.0990   18.3636 H   0  0  0  0  0  0  0  0  0  0  0  0
   51.4008    3.4628   19.5099 H   0  0  0  0  0  0  0  0  0  0  0  0
   52.9672    3.3669   18.6935 H   0  0  0  0  0  0  0  0  0  0  0  0
   52.8743    3.9434   20.3515 H   0  0  0  0  0  0  0  0  0  0  0  0
   47.9748    6.0566   11.3467 H   0  0  0  0  0  0  0  0  0  0  0  0
   46.8323    8.7218   14.5492 H   0  0  0  0  0  0  0  0  0  0  0  0
   45.9202    6.6616   10.1274 H   0  0  0  0  0  0  0  0  0  0  0  0
   44.7795    9.3031   13.3153 H   0  0  0  0  0  0  0  0  0  0  0  0
   44.3151    8.2801   11.1053 H   0  0  0  0  0  0  0  0  0  0  0  0
   50.2139    6.3105   17.0942 H   0  0  0  0  0  0  0  0  0  0  0  0
   49.2569    6.8984   16.0583 H   0  0  0  0  0  0  0  0  0  0  0  0
   50.2043    6.2435   17.0862 H   0  0  0  0  0  0  0  0  0  0  0  0
   49.2876    6.9508   16.0891 H   0  0  0  0  0  0  0  0  0  0  0  0
   49.2080    6.7903   16.0100 H   0  0  0  0  0  0  0  0  0  0  0  0
   50.2215    6.4383   17.0978 H   0  0  0  0  0  0  0  0  0  0  0  0
  3  2  1  0
  4  2  1  0
  5  3  1  0
  6  2  1  0
  3  7  1  0
  8  6  1  0
  5  9  1  0
  6 10  1  0
 11  9  1  0
 12  4  2  0
 13 10  2  0
 14 11  2  0
 15 11  1  0
 16 10  1  0
 17  8  1  0
 18  8  1  0
 19 15  1  0
 20 19  2  0
 21 19  1  0
 22 20  1  0
 23 21  2  0
 24 23  1  0
  7  8  1  0
  4  5  1  0
 24 22  2  0
 26 32  1  0
 27 30  1  0
 28 29  1  0
 29 25  1  0
 30 26  1  0
 31 25  1  0
 32 31  1  0
 33 27  2  0
 34 27  1  0
 35 28  2  0
 36 28  1  0
 37 33  1  0
 38 35  1  0
 39 36  2  0
 40 34  2  0
 41 37  2  0
 42 39  1  0
 42 38  2  0
 40 41  1  0
 44 43  1  0
 45 43  1  0
 46 44  1  0
 47 43  1  0
 44 48  1  0
 49 47  1  0
 46 50  1  0
 47 51  1  0
 52 50  1  0
 53 45  2  0
 54 51  2  0
 55 52  2  0
 56 52  1  0
 57 51  1  0
 58 49  1  0
 59 49  1  0
 60 56  1  0
 61 60  2  0
 62 60  1  0
 63 61  1  0
 64 62  2  0
 65 64  1  0
 48 49  1  0
 45 46  1  0
 65 63  2  0
  1 69  1  0
  1 70  1  0
  3 71  1  1
  5 72  1  1
  6 73  1  6
  9 74  1  0
 15 75  1  0
 15 76  1  0
 16 77  1  0
 17 78  1  0
 17 79  1  0
 17 80  1  0
 18 81  1  0
 18 82  1  0
 18 83  1  0
 20 84  1  0
 21 85  1  0
 22 86  1  0
 23 87  1  0
 24 88  1  0
 25 89  1  0
 26 90  1  0
 29 91  1  0
 29 92  1  0
 30 93  1  0
 30 94  1  0
 31 95  1  0
 31 96  1  0
 32 97  1  0
 32 98  1  0
 33 99  1  0
 34100  1  0
 35101  1  0
 36102  1  0
 37103  1  0
 38104  1  0
 39105  1  0
 40106  1  0
 41107  1  0
 42108  1  0
 44109  1  1
 46110  1  1
 47111  1  6
 50112  1  0
 56113  1  0
 56114  1  0
 57115  1  0
 58116  1  0
 58117  1  0
 58118  1  0
 59119  1  0
 59120  1  0
 59121  1  0
 61122  1  0
 62123  1  0
 63124  1  0
 64125  1  0
 65126  1  0
 66127  1  0
 66128  1  0
 67129  1  0
 67130  1  0
 68131  1  0
 68132  1  0
M  END
> <Uni-Dock RESULT> 
ENERGY=   -6.700  LOWER_BOUND=    1.838  UPPER_BOUND=    2.735
INTER + INTRA:          -6.700
INTER:                  -6.700
INTRA:                   0.000
UNBOUND:                 0.000

$$$$

     RDKit          3D

132133  0  0  0  0  0  0  0  0999 V2000
   44.0381   11.1742   11.2583 O   0  0  0  0  0  0  0  0  0  0  0  0
   42.7542   12.2742    9.1677 N   0  0  0  0  0  0  0  0  0  0  0  0
   42.5040   11.0873   10.0064 C   0  0  1  0  0  0  0  0  0  0  0  0
   44.1135   12.1408    9.2309 C   0  0  0  0  0  0  0  0  0  0  0  0
   43.9952   10.7030    9.7871 C   0  0  1  0  0  0  0  0  0  0  0  0
   42.1011   13.5159    9.5612 C   0  0  2  0  0  0  0  0  0  0  0  0
   42.0397   11.7579   11.6610 S   0  0  0  0  0  0  0  0  0  0  0  0
   41.9741   13.5248   11.1018 C   0  0  0  0  0  0  0  0  0  0  0  0
   44.8114   10.3981   10.9884 N   0  0  0  0  0  0  0  0  0  0  0  0
   40.7610   13.5832    8.8340 C   0  0  0  0  0  0  0  0  0  0  0  0
   44.6279    9.2298   11.6924 C   0  0  0  0  0  0  0  0  0  0  0  0
   44.9938   12.9454    9.0419 O   0  0  0  0  0  0  0  0  0  0  0  0
   39.9831   12.6682    8.6214 O   0  0  0  0  0  0  0  0  0  0  0  0
   43.8133    8.3768   11.3475 O   0  0  0  0  0  0  0  0  0  0  0  0
   45.4598    9.1060   12.9550 C   0  0  0  0  0  0  0  0  0  0  0  0
   40.4525   14.8386    8.4427 O   0  0  0  0  0  0  0  0  0  0  0  0
   43.1630   14.2558   11.7466 C   0  0  0  0  0  0  0  0  0  0  0  0
   40.6763   14.1472   11.6367 C   0  0  0  0  0  0  0  0  0  0  0  0
   46.9471    9.1117   12.7003 C   0  0  0  0  0  0  0  0  0  0  0  0
   47.7441   10.1815   13.1314 C   0  0  0  0  0  0  0  0  0  0  0  0
   47.5519    8.0401   12.0292 C   0  0  0  0  0  0  0  0  0  0  0  0
   49.1193   10.1775   12.8922 C   0  0  0  0  0  0  0  0  0  0  0  0
   48.9272    8.0384   11.7927 C   0  0  0  0  0  0  0  0  0  0  0  0
   49.7095    9.1072   12.2236 C   0  0  0  0  0  0  0  0  0  0  0  0
   43.1686   12.9638   11.2019 N   0  0  0  0  0  0  0  0  0  0  0  0
   45.6373   10.0415   10.9726 N   0  0  0  0  0  0  0  0  0  0  0  0
   46.9383    8.6382   12.4960 C   0  0  0  0  0  0  0  0  0  0  0  0
   41.7686   14.2878    9.7051 C   0  0  0  0  0  0  0  0  0  0  0  0
   43.0631   13.5244    9.8565 C   0  0  0  0  0  0  0  0  0  0  0  0
   45.7674    9.5825   12.3561 C   0  0  0  0  0  0  0  0  0  0  0  0
   44.4051   12.2033   11.4058 C   0  0  0  0  0  0  0  0  0  0  0  0
   44.4057   10.8061   10.7446 C   0  0  0  0  0  0  0  0  0  0  0  0
   48.2508    9.1336   12.5059 C   0  0  0  0  0  0  0  0  0  0  0  0
   46.7360    7.2540   12.5923 C   0  0  0  0  0  0  0  0  0  0  0  0
   40.6828   13.7306    9.0139 C   0  0  0  0  0  0  0  0  0  0  0  0
   41.6242   15.5572   10.2833 C   0  0  0  0  0  0  0  0  0  0  0  0
   49.3361    8.2652   12.6280 C   0  0  0  0  0  0  0  0  0  0  0  0
   39.4843   14.4368    8.8931 C   0  0  0  0  0  0  0  0  0  0  0  0
   40.4259   16.2612   10.1618 C   0  0  0  0  0  0  0  0  0  0  0  0
   47.8231    6.3863   12.7104 C   0  0  0  0  0  0  0  0  0  0  0  0
   49.1221    6.8921   12.7315 C   0  0  0  0  0  0  0  0  0  0  0  0
   39.3566   15.7016    9.4653 C   0  0  0  0  0  0  0  0  0  0  0  0
   42.4463   11.8825    9.0916 N   0  0  0  0  0  0  0  0  0  0  0  0
   42.5298   11.2870   10.4390 C   0  0  1  0  0  0  0  0  0  0  0  0
   43.6785   11.4178    8.7145 C   0  0  0  0  0  0  0  0  0  0  0  0
   43.7900   10.5239    9.9685 C   0  0  1  0  0  0  0  0  0  0  0  0
   42.1636   13.3161    8.9945 C   0  0  2  0  0  0  0  0  0  0  0  0
   42.7503   12.7489   11.5348 S   0  0  0  0  0  0  0  0  0  0  0  0
   41.7367   13.8072   10.3910 C   0  0  0  0  0  0  0  0  0  0  0  0
   45.0222   10.6731   10.7876 N   0  0  0  0  0  0  0  0  0  0  0  0
   41.1390   13.5797    7.8979 C   0  0  0  0  0  0  0  0  0  0  0  0
   45.1471    9.9939   11.9807 C   0  0  0  0  0  0  0  0  0  0  0  0
   44.4013   11.7356    7.7976 O   0  0  0  0  0  0  0  0  0  0  0  0
   40.4646   12.7600    7.2930 O   0  0  0  0  0  0  0  0  0  0  0  0
   44.2910    9.2007   12.3706 O   0  0  0  0  0  0  0  0  0  0  0  0
   46.4220   10.2868   12.7509 C   0  0  0  0  0  0  0  0  0  0  0  0
   41.0077   14.8920    7.6078 O   0  0  0  0  0  0  0  0  0  0  0  0
   42.1085   15.2723   10.6320 C   0  0  0  0  0  0  0  0  0  0  0  0
   40.2557   13.5760   10.7180 C   0  0  0  0  0  0  0  0  0  0  0  0
   47.3576    9.1050   12.7948 C   0  0  0  0  0  0  0  0  0  0  0  0
   47.6230    8.4546   14.0075 C   0  0  0  0  0  0  0  0  0  0  0  0
   47.9741    8.6379   11.6258 C   0  0  0  0  0  0  0  0  0  0  0  0
   48.4879    7.3606   14.0496 C   0  0  0  0  0  0  0  0  0  0  0  0
   48.8365    7.5414   11.6694 C   0  0  0  0  0  0  0  0  0  0  0  0
   49.0932    6.9036   12.8818 C   0  0  0  0  0  0  0  0  0  0  0  0
   44.0858   11.1342   11.2727 O   0  0  0  0  0  0  0  0  0  0  0  0
   44.1141   11.1154   11.2777 O   0  0  0  0  0  0  0  0  0  0  0  0
   44.0377   11.1742   11.2584 O   0  0  0  0  0  0  0  0  0  0  0  0
   43.9098   11.9798   10.7364 H   0  0  0  0  0  0  0  0  0  0  0  0
   44.9767   10.9635   11.1411 H   0  0  0  0  0  0  0  0  0  0  0  0
   41.7741   10.3998    9.5700 H   0  0  0  0  0  0  0  0  0  0  0  0
   44.1540    9.9506    9.0029 H   0  0  0  0  0  0  0  0  0  0  0  0
   42.7169   14.3516    9.2034 H   0  0  0  0  0  0  0  0  0  0  0  0
   45.5763   11.0106   11.2509 H   0  0  0  0  0  0  0  0  0  0  0  0
   45.1740    9.9230   13.6286 H   0  0  0  0  0  0  0  0  0  0  0  0
   45.1878    8.1747   13.4664 H   0  0  0  0  0  0  0  0  0  0  0  0
   39.5892   14.7470    7.9868 H   0  0  0  0  0  0  0  0  0  0  0  0
   43.1824   15.3059   11.4334 H   0  0  0  0  0  0  0  0  0  0  0  0
   43.1011   14.2472   12.8418 H   0  0  0  0  0  0  0  0  0  0  0  0
   44.1276   13.8191   11.4689 H   0  0  0  0  0  0  0  0  0  0  0  0
   40.5839   15.1891   11.3094 H   0  0  0  0  0  0  0  0  0  0  0  0
   39.7835   13.6085   11.3004 H   0  0  0  0  0  0  0  0  0  0  0  0
   40.6569   14.1532   12.7336 H   0  0  0  0  0  0  0  0  0  0  0  0
   47.3047   11.0222   13.6646 H   0  0  0  0  0  0  0  0  0  0  0  0
   46.9534    7.1963   11.6890 H   0  0  0  0  0  0  0  0  0  0  0  0
   49.7325   11.0093   13.2306 H   0  0  0  0  0  0  0  0  0  0  0  0
   49.3877    7.2018   11.2743 H   0  0  0  0  0  0  0  0  0  0  0  0
   50.7818    9.1022   12.0439 H   0  0  0  0  0  0  0  0  0  0  0  0
   42.3557   12.3788   11.3865 H   0  0  0  0  0  0  0  0  0  0  0  0
   45.6335    9.2191   10.3680 H   0  0  0  0  0  0  0  0  0  0  0  0
   43.8967   14.2076    9.6592 H   0  0  0  0  0  0  0  0  0  0  0  0
   43.1073   12.7397    9.0937 H   0  0  0  0  0  0  0  0  0  0  0  0
   44.8525    9.0744   12.6834 H   0  0  0  0  0  0  0  0  0  0  0  0
   45.9269   10.4262   13.0373 H   0  0  0  0  0  0  0  0  0  0  0  0
   44.5174   12.0871   12.4898 H   0  0  0  0  0  0  0  0  0  0  0  0
   45.2713   12.7856   11.0704 H   0  0  0  0  0  0  0  0  0  0  0  0
   44.3045   10.9268    9.6608 H   0  0  0  0  0  0  0  0  0  0  0  0
   43.5346   10.2260   11.0742 H   0  0  0  0  0  0  0  0  0  0  0  0
   48.4273   10.2033   12.4145 H   0  0  0  0  0  0  0  0  0  0  0  0
   45.7294    6.8425   12.5760 H   0  0  0  0  0  0  0  0  0  0  0  0
   40.7635   12.7437    8.5644 H   0  0  0  0  0  0  0  0  0  0  0  0
   42.4497   15.9953   10.8413 H   0  0  0  0  0  0  0  0  0  0  0  0
   50.3481    8.6607   12.6383 H   0  0  0  0  0  0  0  0  0  0  0  0
   38.6473   13.9993    8.3553 H   0  0  0  0  0  0  0  0  0  0  0  0
   40.3264   17.2439   10.6154 H   0  0  0  0  0  0  0  0  0  0  0  0
   47.6576    5.3150   12.7881 H   0  0  0  0  0  0  0  0  0  0  0  0
   49.9678    6.2163   12.8239 H   0  0  0  0  0  0  0  0  0  0  0  0
   38.4223   16.2494    9.3739 H   0  0  0  0  0  0  0  0  0  0  0  0
   41.6670   10.6583   10.6754 H   0  0  0  0  0  0  0  0  0  0  0  0
   43.6100    9.4682    9.7245 H   0  0  0  0  0  0  0  0  0  0  0  0
   43.0902   13.8149    8.6760 H   0  0  0  0  0  0  0  0  0  0  0  0
   45.7146   11.3706   10.5346 H   0  0  0  0  0  0  0  0  0  0  0  0
   46.9499   11.1447   12.3176 H   0  0  0  0  0  0  0  0  0  0  0  0
   46.1247   10.5921   13.7604 H   0  0  0  0  0  0  0  0  0  0  0  0
   40.3323   14.9019    6.8967 H   0  0  0  0  0  0  0  0  0  0  0  0
   41.9215   15.5708   11.6711 H   0  0  0  0  0  0  0  0  0  0  0  0
   41.5152   15.9369    9.9962 H   0  0  0  0  0  0  0  0  0  0  0  0
   43.1642   15.4698   10.4111 H   0  0  0  0  0  0  0  0  0  0  0  0
   39.9456   12.5379   10.5554 H   0  0  0  0  0  0  0  0  0  0  0  0
   40.0312   13.8293   11.7612 H   0  0  0  0  0  0  0  0  0  0  0  0
   39.6118   14.2077   10.0966 H   0  0  0  0  0  0  0  0  0  0  0  0
   47.1512    8.7893   14.9293 H   0  0  0  0  0  0  0  0  0  0  0  0
   47.7833    9.1178   10.6682 H   0  0  0  0  0  0  0  0  0  0  0  0
   48.6839    6.8604   14.9950 H   0  0  0  0  0  0  0  0  0  0  0  0
   49.3042    7.1806   10.7577 H   0  0  0  0  0  0  0  0  0  0  0  0
   49.7613    6.0465   12.9144 H   0  0  0  0  0  0  0  0  0  0  0  0
   43.8093   11.9317   10.7979 H   0  0  0  0  0  0  0  0  0  0  0  0
   45.0294   11.0517   11.0653 H   0  0  0  0  0  0  0  0  0  0  0  0
   43.7606   11.8999   10.8336 H   0  0  0  0  0  0  0  0  0  0  0  0
   45.0498   11.1023   11.0245 H   0  0  0  0  0  0  0  0  0  0  0  0
   44.9763   10.9633   11.1413 H   0  0  0  0  0  0  0  0  0  0  0  0
   43.9104   11.9801   10.7360 H   0  0  0  0  0  0  0  0  0  0  0  0
  3  2  1  0
  4  2  1  0
  5  3  1  0
  6  2  1  0
  3  7  1  0
  8  6  1  0
  5  9  1  0
  6 10  1  0
 11  9  1  0
 12  4  2  0
 13 10  2  0
 14 11  2  0
 15 11  1  0
 16 10  1  0
 17  8  1  0
 18  8  1  0
 19 15  1  0
 20 19  2  0
 21 19  1  0
 22 20  1  0
 23 21  2  0
 24 23  1  0
  7  8  1  0
  4  5  1  0
 24 22  2  0
 26 32  1  0
 27 30  1  0
 28 29  1  0
 29 25  1  0
 30 26  1  0
 31 25  1  0
 32 31  1  0
 33 27  2  0
 34 27  1  0
 35 28  2  0
 36 28  1  0
 37 33  1  0
 38 35  1  0
 39 36  2  0
 40 34  2  0
 41 37  2  0
 42 39  1  0
 42 38  2  0
 40 41  1  0
 44 43  1  0
 45 43  1  0
 46 44  1  0
 47 43  1  0
 44 48  1  0
 49 47  1  0
 46 50  1  0
 47 51  1  0
 52 50  1  0
 53 45  2  0
 54 51  2  0
 55 52  2  0
 56 52  1  0
 57 51  1  0
 58 49  1  0
 59 49  1  0
 60 56  1  0
 61 60  2  0
 62 60  1  0
 63 61  1  0
 64 62  2  0
 65 64  1  0
 48 49  1  0
 45 46  1  0
 65 63  2  0
  1 69  1  0
  1 70  1  0
  3 71  1  1
  5 72  1  1
  6 73  1  6
  9 74  1  0
 15 75  1  0
 15 76  1  0
 16 77  1  0
 17 78  1  0
 17 79  1  0
 17 80  1  0
 18 81  1  0
 18 82  1  0
 18 83  1  0
 20 84  1  0
 21 85  1  0
 22 86  1  0
 23 87  1  0
 24 88  1  0
 25 89  1  0
 26 90  1  0
 29 91  1  0
 29 92  1  0
 30 93  1  0
 30 94  1  0
 31 95  1  0
 31 96  1  0
 32 97  1  0
 32 98  1  0
 33 99  1  0
 34100  1  0
 35101  1  0
 36102  1  0
 37103  1  0
 38104  1  0
 39105  1  0
 40106  1  0
 41107  1  0
 42108  1  0
 44109  1  1
 46110  1  1
 47111  1  6
 50112  1  0
 56113  1  0
 56114  1  0
 57115  1  0
 58116  1  0
 58117  1  0
 58118  1  0
 59119  1  0
 59120  1  0
 59121  1  0
 61122  1  0
 62123  1  0
 63124  1  0
 64125  1  0
 65126  1  0
 66127  1  0
 66128  1  0
 67129  1  0
 67130  1  0
 68131  1  0
 68132  1  0
M  END
> <Uni-Dock RESULT> 
ENERGY=   -6.640  LOWER_BOUND=    7.545  UPPER_BOUND=   11.435
INTER + INTRA:          -6.640
INTER:                  -6.640
INTRA:                   0.000
UNBOUND:                 0.000

$$$$

     RDKit          3D

132133  0  0  0  0  0  0  0  0999 V2000
   52.7912    4.2482   19.9677 O   0  0  0  0  0  0  0  0  0  0  0  0
   54.9432    4.5251   18.3798 N   0  0  0  0  0  0  0  0  0  0  0  0
   54.7436    4.5650   19.8404 C   0  0  1  0  0  0  0  0  0  0  0  0
   53.7302    5.0959   18.1103 C   0  0  0  0  0  0  0  0  0  0  0  0
   53.5553    5.5351   19.5824 C   0  0  1  0  0  0  0  0  0  0  0  0
   55.3184    3.2443   17.7949 C   0  0  2  0  0  0  0  0  0  0  0  0
   54.3299    2.8313   20.3160 S   0  0  0  0  0  0  0  0  0  0  0  0
   54.6667    2.1227   18.6357 C   0  0  0  0  0  0  0  0  0  0  0  0
   52.2511    5.2086   20.2109 N   0  0  0  0  0  0  0  0  0  0  0  0
   56.8429    3.1808   17.7623 C   0  0  0  0  0  0  0  0  0  0  0  0
   52.0602    5.3567   21.5658 C   0  0  0  0  0  0  0  0  0  0  0  0
   53.0601    5.0851   17.1058 O   0  0  0  0  0  0  0  0  0  0  0  0
   57.6225    3.5766   18.6128 O   0  0  0  0  0  0  0  0  0  0  0  0
   52.9372    5.7921   22.3084 O   0  0  0  0  0  0  0  0  0  0  0  0
   50.7124    4.8844   22.0776 C   0  0  0  0  0  0  0  0  0  0  0  0
   57.3069    2.5703   16.6504 O   0  0  0  0  0  0  0  0  0  0  0  0
   53.3159    1.7005   18.0352 C   0  0  0  0  0  0  0  0  0  0  0  0
   55.5312    0.8660   18.8119 C   0  0  0  0  0  0  0  0  0  0  0  0
   49.5459    5.6412   21.4919 C   0  0  0  0  0  0  0  0  0  0  0  0
   48.6419    5.0079   20.6273 C   0  0  0  0  0  0  0  0  0  0  0  0
   49.3501    6.9921   21.8100 C   0  0  0  0  0  0  0  0  0  0  0  0
   47.5650    5.7158   20.0912 C   0  0  0  0  0  0  0  0  0  0  0  0
   48.2718    7.6968   21.2734 C   0  0  0  0  0  0  0  0  0  0  0  0
   47.3808    7.0586   20.4139 C   0  0  0  0  0  0  0  0  0  0  0  0
   53.5780    2.8621   18.7754 N   0  0  0  0  0  0  0  0  0  0  0  0
   51.5405    5.7598   20.2379 N   0  0  0  0  0  0  0  0  0  0  0  0
   49.6536    6.0659   21.7639 C   0  0  0  0  0  0  0  0  0  0  0  0
   55.5376    2.5468   17.3563 C   0  0  0  0  0  0  0  0  0  0  0  0
   54.3363    3.4125   17.6540 C   0  0  0  0  0  0  0  0  0  0  0  0
   50.7423    5.1312   21.2911 C   0  0  0  0  0  0  0  0  0  0  0  0
   52.4012    3.6670   19.1159 C   0  0  0  0  0  0  0  0  0  0  0  0
   52.7251    4.9710   19.8801 C   0  0  0  0  0  0  0  0  0  0  0  0
   48.5090    6.2744   20.9800 C   0  0  0  0  0  0  0  0  0  0  0  0
   49.7792    6.7579   22.9770 C   0  0  0  0  0  0  0  0  0  0  0  0
   56.8222    2.9363   17.7630 C   0  0  0  0  0  0  0  0  0  0  0  0
   55.3795    1.3211   16.6934 C   0  0  0  0  0  0  0  0  0  0  0  0
   47.5037    7.1419   21.4089 C   0  0  0  0  0  0  0  0  0  0  0  0
   57.9249    2.1217   17.4981 C   0  0  0  0  0  0  0  0  0  0  0  0
   56.4823    0.5084   16.4297 C   0  0  0  0  0  0  0  0  0  0  0  0
   48.7744    7.6286   23.4026 C   0  0  0  0  0  0  0  0  0  0  0  0
   47.6359    7.8176   22.6204 C   0  0  0  0  0  0  0  0  0  0  0  0
   57.7552    0.9096   16.8308 C   0  0  0  0  0  0  0  0  0  0  0  0
   55.2476    4.6941   18.7442 N   0  0  0  0  0  0  0  0  0  0  0  0
   54.5075    4.1548   19.9011 C   0  0  1  0  0  0  0  0  0  0  0  0
   54.3624    5.7203   18.5451 C   0  0  0  0  0  0  0  0  0  0  0  0
   53.6435    5.4374   19.8820 C   0  0  1  0  0  0  0  0  0  0  0  0
   55.5440    3.7821   17.6373 C   0  0  2  0  0  0  0  0  0  0  0  0
   53.7765    2.5976   19.2472 S   0  0  0  0  0  0  0  0  0  0  0  0
   55.2252    2.3505   18.1088 C   0  0  0  0  0  0  0  0  0  0  0  0
   52.1677    5.2639   19.8231 N   0  0  0  0  0  0  0  0  0  0  0  0
   56.9774    3.9793   17.1594 C   0  0  0  0  0  0  0  0  0  0  0  0
   51.4677    4.8983   20.9530 C   0  0  0  0  0  0  0  0  0  0  0  0
   54.1883    6.4463   17.5929 O   0  0  0  0  0  0  0  0  0  0  0  0
   57.8612    4.6296   17.6968 O   0  0  0  0  0  0  0  0  0  0  0  0
   52.0175    4.7726   22.0467 O   0  0  0  0  0  0  0  0  0  0  0  0
   49.9793    4.6884   20.7412 C   0  0  0  0  0  0  0  0  0  0  0  0
   57.2375    3.3339   16.0021 O   0  0  0  0  0  0  0  0  0  0  0  0
   54.7856    1.4425   16.9577 C   0  0  0  0  0  0  0  0  0  0  0  0
   56.3502    1.6826   18.9102 C   0  0  0  0  0  0  0  0  0  0  0  0
   49.1423    5.7410   21.4234 C   0  0  0  0  0  0  0  0  0  0  0  0
   48.3106    5.3996   22.4985 C   0  0  0  0  0  0  0  0  0  0  0  0
   49.1839    7.0751   20.9953 C   0  0  0  0  0  0  0  0  0  0  0  0
   47.5361    6.3725   23.1311 C   0  0  0  0  0  0  0  0  0  0  0  0
   48.4107    8.0475   21.6314 C   0  0  0  0  0  0  0  0  0  0  0  0
   47.5867    7.6953   22.6989 C   0  0  0  0  0  0  0  0  0  0  0  0
   52.7426    4.2812   19.9927 O   0  0  0  0  0  0  0  0  0  0  0  0
   52.7153    4.3002   20.0019 O   0  0  0  0  0  0  0  0  0  0  0  0
   52.7914    4.2480   19.9679 O   0  0  0  0  0  0  0  0  0  0  0  0
   53.1623    4.0713   19.0910 H   0  0  0  0  0  0  0  0  0  0  0  0
   52.0330    4.8254   19.7914 H   0  0  0  0  0  0  0  0  0  0  0  0
   55.5925    4.9968   20.3778 H   0  0  0  0  0  0  0  0  0  0  0  0
   53.8037    6.5958   19.7213 H   0  0  0  0  0  0  0  0  0  0  0  0
   54.9617    3.2277   16.7566 H   0  0  0  0  0  0  0  0  0  0  0  0
   51.4576    4.9563   19.6313 H   0  0  0  0  0  0  0  0  0  0  0  0
   50.6292    3.8111   21.8674 H   0  0  0  0  0  0  0  0  0  0  0  0
   50.6942    4.9875   23.1693 H   0  0  0  0  0  0  0  0  0  0  0  0
   58.2826    2.6024   16.7434 H   0  0  0  0  0  0  0  0  0  0  0  0
   53.4559    1.2891   17.0291 H   0  0  0  0  0  0  0  0  0  0  0  0
   52.8280    0.9233   18.6363 H   0  0  0  0  0  0  0  0  0  0  0  0
   52.6141    2.5359   17.9466 H   0  0  0  0  0  0  0  0  0  0  0  0
   55.7754    0.4253   17.8385 H   0  0  0  0  0  0  0  0  0  0  0  0
   56.4726    1.0744   19.3324 H   0  0  0  0  0  0  0  0  0  0  0  0
   55.0056    0.0955   19.3894 H   0  0  0  0  0  0  0  0  0  0  0  0
   48.7617    3.9572   20.3707 H   0  0  0  0  0  0  0  0  0  0  0  0
   50.0370    7.5036   22.4828 H   0  0  0  0  0  0  0  0  0  0  0  0
   46.8663    5.2188   19.4226 H   0  0  0  0  0  0  0  0  0  0  0  0
   48.1265    8.7431   21.5282 H   0  0  0  0  0  0  0  0  0  0  0  0
   46.5378    7.6070   20.0010 H   0  0  0  0  0  0  0  0  0  0  0  0
   54.1922    2.7694   19.5825 H   0  0  0  0  0  0  0  0  0  0  0  0
   51.8413    6.6748   20.5758 H   0  0  0  0  0  0  0  0  0  0  0  0
   53.7107    3.4627   16.7558 H   0  0  0  0  0  0  0  0  0  0  0  0
   54.6737    4.4331   17.8643 H   0  0  0  0  0  0  0  0  0  0  0  0
   51.3746    4.8530   22.1427 H   0  0  0  0  0  0  0  0  0  0  0  0
   50.2682    4.2113   20.9297 H   0  0  0  0  0  0  0  0  0  0  0  0
   51.7671    3.0311   19.7443 H   0  0  0  0  0  0  0  0  0  0  0  0
   51.8153    3.8867   18.2156 H   0  0  0  0  0  0  0  0  0  0  0  0
   53.3493    5.6084   19.2449 H   0  0  0  0  0  0  0  0  0  0  0  0
   53.3180    4.7521   20.7770 H   0  0  0  0  0  0  0  0  0  0  0  0
   48.4028    5.7592   20.0277 H   0  0  0  0  0  0  0  0  0  0  0  0
   50.6614    6.6231   23.5987 H   0  0  0  0  0  0  0  0  0  0  0  0
   56.9725    3.8768   18.2879 H   0  0  0  0  0  0  0  0  0  0  0  0
   54.3869    0.9938   16.3896 H   0  0  0  0  0  0  0  0  0  0  0  0
   46.6199    7.2926   20.7951 H   0  0  0  0  0  0  0  0  0  0  0  0
   58.9175    2.4303   17.8154 H   0  0  0  0  0  0  0  0  0  0  0  0
   56.3464   -0.4397   15.9160 H   0  0  0  0  0  0  0  0  0  0  0  0
   48.8778    8.1585   24.3457 H   0  0  0  0  0  0  0  0  0  0  0  0
   46.8540    8.4950   22.9524 H   0  0  0  0  0  0  0  0  0  0  0  0
   58.6134    0.2743   16.6277 H   0  0  0  0  0  0  0  0  0  0  0  0
   55.1393    4.0331   20.7852 H   0  0  0  0  0  0  0  0  0  0  0  0
   53.9187    6.1749   20.6481 H   0  0  0  0  0  0  0  0  0  0  0  0
   54.8972    4.0644   16.7942 H   0  0  0  0  0  0  0  0  0  0  0  0
   51.6924    5.2885   18.9268 H   0  0  0  0  0  0  0  0  0  0  0  0
   49.7365    4.6762   19.6720 H   0  0  0  0  0  0  0  0  0  0  0  0
   49.7390    3.6880   21.1183 H   0  0  0  0  0  0  0  0  0  0  0  0
   58.1762    3.5549   15.8237 H   0  0  0  0  0  0  0  0  0  0  0  0
   54.4348    0.4690   17.3225 H   0  0  0  0  0  0  0  0  0  0  0  0
   55.6169    1.2472   16.2731 H   0  0  0  0  0  0  0  0  0  0  0  0
   53.9777    1.8903   16.3668 H   0  0  0  0  0  0  0  0  0  0  0  0
   56.6981    2.3020   19.7441 H   0  0  0  0  0  0  0  0  0  0  0  0
   56.0297    0.7190   19.3243 H   0  0  0  0  0  0  0  0  0  0  0  0
   57.2183    1.4774   18.2745 H   0  0  0  0  0  0  0  0  0  0  0  0
   48.2653    4.3736   22.8585 H   0  0  0  0  0  0  0  0  0  0  0  0
   49.8243    7.3724   20.1675 H   0  0  0  0  0  0  0  0  0  0  0  0
   46.8971    6.0980   23.9670 H   0  0  0  0  0  0  0  0  0  0  0  0
   48.4545    9.0807   21.2987 H   0  0  0  0  0  0  0  0  0  0  0  0
   46.9884    8.4541   23.1972 H   0  0  0  0  0  0  0  0  0  0  0  0
   53.2191    4.0184   19.1918 H   0  0  0  0  0  0  0  0  0  0  0  0
   52.0249    4.8452   19.6656 H   0  0  0  0  0  0  0  0  0  0  0  0
   53.2438    3.9938   19.2505 H   0  0  0  0  0  0  0  0  0  0  0  0
   52.0274    4.8508   19.5978 H   0  0  0  0  0  0  0  0  0  0  0  0
   52.0332    4.8252   19.7918 H   0  0  0  0  0  0  0  0  0  0  0  0
   53.1620    4.0716   19.0903 H   0  0  0  0  0  0  0  0  0  0  0  0
  3  2  1  0
  4  2  1  0
  5  3  1  0
  6  2  1  0
  3  7  1  0
  8  6  1  0
  5  9  1  0
  6 10  1  0
 11  9  1  0
 12  4  2  0
 13 10  2  0
 14 11  2  0
 15 11  1  0
 16 10  1  0
 17  8  1  0
 18  8  1  0
 19 15  1  0
 20 19  2  0
 21 19  1  0
 22 20  1  0
 23 21  2  0
 24 23  1  0
  7  8  1  0
  4  5  1  0
 24 22  2  0
 26 32  1  0
 27 30  1  0
 28 29  1  0
 29 25  1  0
 30 26  1  0
 31 25  1  0
 32 31  1  0
 33 27  2  0
 34 27  1  0
 35 28  2  0
 36 28  1  0
 37 33  1  0
 38 35  1  0
 39 36  2  0
 40 34  2  0
 41 37  2  0
 42 39  1  0
 42 38  2  0
 40 41  1  0
 44 43  1  0
 45 43  1  0
 46 44  1  0
 47 43  1  0
 44 48  1  0
 49 47  1  0
 46 50  1  0
 47 51  1  0
 52 50  1  0
 53 45  2  0
 54 51  2  0
 55 52  2  0
 56 52  1  0
 57 51  1  0
 58 49  1  0
 59 49  1  0
 60 56  1  0
 61 60  2  0
 62 60  1  0
 63 61  1  0
 64 62  2  0
 65 64  1  0
 48 49  1  0
 45 46  1  0
 65 63  2  0
  1 69  1  0
  1 70  1  0
  3 71  1  1
  5 72  1  1
  6 73  1  6
  9 74  1  0
 15 75  1  0
 15 76  1  0
 16 77  1  0
 17 78  1  0
 17 79  1  0
 17 80  1  0
 18 81  1  0
 18 82  1  0
 18 83  1  0
 20 84  1  0
 21 85  1  0
 22 86  1  0
 23 87  1  0
 24 88  1  0
 25 89  1  0
 26 90  1  0
 29 91  1  0
 29 92  1  0
 30 93  1  0
 30 94  1  0
 31 95  1  0
 31 96  1  0
 32 97  1  0
 32 98  1  0
 33 99  1  0
 34100  1  0
 35101  1  0
 36102  1  0
 37103  1  0
 38104  1  0
 39105  1  0
 40106  1  0
 41107  1  0
 42108  1  0
 44109  1  1
 46110  1  1
 47111  1  6
 50112  1  0
 56113  1  0
 56114  1  0
 57115  1  0
 58116  1  0
 58117  1  0
 58118  1  0
 59119  1  0
 59120  1  0
 59121  1  0
 61122  1  0
 62123  1  0
 63124  1  0
 64125  1  0
 65126  1  0
 66127  1  0
 66128  1  0
 67129  1  0
 67130  1  0
 68131  1  0
 68132  1  0
M  END
> <Uni-Dock RESULT> 
ENERGY=   -6.408  LOWER_BOUND=    5.605  UPPER_BOUND=    8.194
INTER + INTRA:          -6.408
INTER:                  -6.408
INTRA:                   0.000
UNBOUND:                 0.000

$$$$

     RDKit          3D

132133  0  0  0  0  0  0  0  0999 V2000
   49.0011    8.0759   17.8797 O   0  0  0  0  0  0  0  0  0  0  0  0
   50.3601    6.8554   19.8528 N   0  0  0  0  0  0  0  0  0  0  0  0
   50.1970    8.2644   19.4490 C   0  0  1  0  0  0  0  0  0  0  0  0
   50.3198    6.3910   18.5674 C   0  0  0  0  0  0  0  0  0  0  0  0
   50.5197    7.8136   17.9957 C   0  0  1  0  0  0  0  0  0  0  0  0
   49.4463    6.3443   20.8663 C   0  0  2  0  0  0  0  0  0  0  0  0
   48.4404    8.6743   19.8353 S   0  0  0  0  0  0  0  0  0  0  0  0
   48.0929    7.0735   20.7047 C   0  0  0  0  0  0  0  0  0  0  0  0
   49.5802    8.2245   16.9228 N   0  0  0  0  0  0  0  0  0  0  0  0
   50.1009    6.5589   22.2282 C   0  0  0  0  0  0  0  0  0  0  0  0
   49.5243    9.5300   16.4910 C   0  0  0  0  0  0  0  0  0  0  0  0
   50.0715    5.2915   18.1343 O   0  0  0  0  0  0  0  0  0  0  0  0
   50.7510    7.5224   22.5978 O   0  0  0  0  0  0  0  0  0  0  0  0
   50.2624   10.4028   16.9425 O   0  0  0  0  0  0  0  0  0  0  0  0
   48.4443    9.8193   15.4657 C   0  0  0  0  0  0  0  0  0  0  0  0
   49.8581    5.5392   23.0800 O   0  0  0  0  0  0  0  0  0  0  0  0
   47.1361    6.2644   19.8139 C   0  0  0  0  0  0  0  0  0  0  0  0
   47.3727    7.3925   22.0227 C   0  0  0  0  0  0  0  0  0  0  0  0
   48.6126    9.0495   14.1788 C   0  0  0  0  0  0  0  0  0  0  0  0
   47.6961    8.0530   13.8147 C   0  0  0  0  0  0  0  0  0  0  0  0
   49.6909    9.3261   13.3273 C   0  0  0  0  0  0  0  0  0  0  0  0
   47.8594    7.3468   12.6217 C   0  0  0  0  0  0  0  0  0  0  0  0
   49.8506    8.6192   12.1347 C   0  0  0  0  0  0  0  0  0  0  0  0
   48.9355    7.6298   11.7833 C   0  0  0  0  0  0  0  0  0  0  0  0
   48.2296    7.0323   19.3889 N   0  0  0  0  0  0  0  0  0  0  0  0
   49.7346    8.1339   16.0410 N   0  0  0  0  0  0  0  0  0  0  0  0
   49.0178    9.3336   14.0336 C   0  0  0  0  0  0  0  0  0  0  0  0
   48.9643    5.9499   21.4485 C   0  0  0  0  0  0  0  0  0  0  0  0
   49.1487    6.0459   19.9525 C   0  0  0  0  0  0  0  0  0  0  0  0
   48.7328    9.0470   15.4893 C   0  0  0  0  0  0  0  0  0  0  0  0
   48.3685    7.1747   17.9366 C   0  0  0  0  0  0  0  0  0  0  0  0
   49.6147    7.9756   17.4950 C   0  0  0  0  0  0  0  0  0  0  0  0
   48.7267    8.3742   13.0525 C   0  0  0  0  0  0  0  0  0  0  0  0
   49.5992   10.5481   13.6422 C   0  0  0  0  0  0  0  0  0  0  0  0
   49.8755    6.5572   22.3250 C   0  0  0  0  0  0  0  0  0  0  0  0
   47.8570    5.2754   21.9830 C   0  0  0  0  0  0  0  0  0  0  0  0
   48.9942    8.6312   11.7073 C   0  0  0  0  0  0  0  0  0  0  0  0
   49.6879    6.4775   23.7063 C   0  0  0  0  0  0  0  0  0  0  0  0
   47.6712    5.1969   23.3634 C   0  0  0  0  0  0  0  0  0  0  0  0
   49.8700   10.8019   12.2965 C   0  0  0  0  0  0  0  0  0  0  0  0
   49.5645    9.8453   11.3295 C   0  0  0  0  0  0  0  0  0  0  0  0
   48.5876    5.7966   24.2250 C   0  0  0  0  0  0  0  0  0  0  0  0
   50.6243    7.2635   19.9857 N   0  0  0  0  0  0  0  0  0  0  0  0
   49.7209    8.2879   19.4276 C   0  0  1  0  0  0  0  0  0  0  0  0
   51.1332    6.9196   18.7613 C   0  0  0  0  0  0  0  0  0  0  0  0
   50.4528    8.1240   18.0751 C   0  0  1  0  0  0  0  0  0  0  0  0
   50.0372    6.2230   20.8326 C   0  0  2  0  0  0  0  0  0  0  0  0
   48.0542    7.5311   19.6179 S   0  0  0  0  0  0  0  0  0  0  0  0
   48.5915    6.6429   21.1600 C   0  0  0  0  0  0  0  0  0  0  0  0
   49.6183    7.8281   16.8803 N   0  0  0  0  0  0  0  0  0  0  0  0
   50.9117    5.9822   22.0570 C   0  0  0  0  0  0  0  0  0  0  0  0
   48.8888    8.8316   16.2794 C   0  0  0  0  0  0  0  0  0  0  0  0
   51.7619    5.9488   18.4061 O   0  0  0  0  0  0  0  0  0  0  0  0
   51.8574    6.6525   22.4431 O   0  0  0  0  0  0  0  0  0  0  0  0
   48.9542   10.0003   16.6589 O   0  0  0  0  0  0  0  0  0  0  0  0
   48.0273    8.3829   15.1128 C   0  0  0  0  0  0  0  0  0  0  0  0
   50.5465    4.8849   22.7543 O   0  0  0  0  0  0  0  0  0  0  0  0
   47.6690    5.4398   21.3706 C   0  0  0  0  0  0  0  0  0  0  0  0
   48.4668    7.6183   22.3376 C   0  0  0  0  0  0  0  0  0  0  0  0
   48.5181    8.9163   13.7904 C   0  0  0  0  0  0  0  0  0  0  0  0
   47.7527    9.8443   13.0714 C   0  0  0  0  0  0  0  0  0  0  0  0
   49.7458    8.4949   13.2613 C   0  0  0  0  0  0  0  0  0  0  0  0
   48.2058   10.3393   11.8481 C   0  0  0  0  0  0  0  0  0  0  0  0
   50.1988    8.9935   12.0390 C   0  0  0  0  0  0  0  0  0  0  0  0
   49.4280    9.9153   11.3328 C   0  0  0  0  0  0  0  0  0  0  0  0
   49.0058    8.0926   17.8183 O   0  0  0  0  0  0  0  0  0  0  0  0
   49.0093    8.0971   17.7843 O   0  0  0  0  0  0  0  0  0  0  0  0
   49.0010    8.0761   17.8800 O   0  0  0  0  0  0  0  0  0  0  0  0
   49.0807    7.2714   18.4129 H   0  0  0  0  0  0  0  0  0  0  0  0
   49.1710    7.7769   16.9737 H   0  0  0  0  0  0  0  0  0  0  0  0
   50.9336    8.9301   19.9074 H   0  0  0  0  0  0  0  0  0  0  0  0
   51.5612    7.9863   17.6931 H   0  0  0  0  0  0  0  0  0  0  0  0
   49.3410    5.2621   20.7137 H   0  0  0  0  0  0  0  0  0  0  0  0
   49.0308    7.5253   16.4344 H   0  0  0  0  0  0  0  0  0  0  0  0
   47.4736    9.6030   15.9282 H   0  0  0  0  0  0  0  0  0  0  0  0
   48.4479   10.8933   15.2434 H   0  0  0  0  0  0  0  0  0  0  0  0
   50.3329    5.7884   23.9009 H   0  0  0  0  0  0  0  0  0  0  0  0
   46.9108    5.2959   20.2748 H   0  0  0  0  0  0  0  0  0  0  0  0
   46.1800    6.7821   19.6677 H   0  0  0  0  0  0  0  0  0  0  0  0
   47.5537    6.0600   18.8230 H   0  0  0  0  0  0  0  0  0  0  0  0
   47.1676    6.4733   22.5833 H   0  0  0  0  0  0  0  0  0  0  0  0
   47.9564    8.0574   22.6691 H   0  0  0  0  0  0  0  0  0  0  0  0
   46.4067    7.8808   21.8438 H   0  0  0  0  0  0  0  0  0  0  0  0
   46.8430    7.8236   14.4500 H   0  0  0  0  0  0  0  0  0  0  0  0
   50.4128   10.0988   13.5876 H   0  0  0  0  0  0  0  0  0  0  0  0
   47.1444    6.5762   12.3438 H   0  0  0  0  0  0  0  0  0  0  0  0
   50.6881    8.8427   11.4794 H   0  0  0  0  0  0  0  0  0  0  0  0
   49.0576    7.0837   10.8512 H   0  0  0  0  0  0  0  0  0  0  0  0
   48.3748    7.9285   19.8505 H   0  0  0  0  0  0  0  0  0  0  0  0
   50.6574    8.5121   15.8239 H   0  0  0  0  0  0  0  0  0  0  0  0
   48.9672    5.0582   19.5141 H   0  0  0  0  0  0  0  0  0  0  0  0
   50.1909    6.3035   19.7360 H   0  0  0  0  0  0  0  0  0  0  0  0
   48.7195    9.9907   16.0475 H   0  0  0  0  0  0  0  0  0  0  0  0
   47.7268    8.6176   15.5614 H   0  0  0  0  0  0  0  0  0  0  0  0
   47.4673    7.6950   17.5927 H   0  0  0  0  0  0  0  0  0  0  0  0
   48.3553    6.1907   17.4535 H   0  0  0  0  0  0  0  0  0  0  0  0
   50.5131    7.4469   17.8307 H   0  0  0  0  0  0  0  0  0  0  0  0
   49.6321    8.9575   17.9844 H   0  0  0  0  0  0  0  0  0  0  0  0
   48.2914    7.4194   13.3399 H   0  0  0  0  0  0  0  0  0  0  0  0
   49.8452   11.3047   14.3837 H   0  0  0  0  0  0  0  0  0  0  0  0
   50.7374    7.0955   21.9378 H   0  0  0  0  0  0  0  0  0  0  0  0
   47.1289    4.8166   21.3166 H   0  0  0  0  0  0  0  0  0  0  0  0
   48.7610    7.8820   10.9557 H   0  0  0  0  0  0  0  0  0  0  0  0
   50.3986    6.9497   24.3796 H   0  0  0  0  0  0  0  0  0  0  0  0
   46.8084    4.6720   23.7651 H   0  0  0  0  0  0  0  0  0  0  0  0
   50.3176   11.7472   12.0010 H   0  0  0  0  0  0  0  0  0  0  0  0
   49.7750   10.0436   10.2822 H   0  0  0  0  0  0  0  0  0  0  0  0
   48.4403    5.7377   25.3003 H   0  0  0  0  0  0  0  0  0  0  0  0
   49.8431    9.2630   19.9070 H   0  0  0  0  0  0  0  0  0  0  0  0
   51.1762    8.9213   17.8571 H   0  0  0  0  0  0  0  0  0  0  0  0
   50.0468    5.2853   20.2587 H   0  0  0  0  0  0  0  0  0  0  0  0
   49.4840    6.8666   16.5845 H   0  0  0  0  0  0  0  0  0  0  0  0
   47.9810    7.2886   15.0618 H   0  0  0  0  0  0  0  0  0  0  0  0
   47.0055    8.7204   15.3194 H   0  0  0  0  0  0  0  0  0  0  0  0
   51.1907    4.8596   23.4934 H   0  0  0  0  0  0  0  0  0  0  0  0
   46.6206    5.7472   21.4701 H   0  0  0  0  0  0  0  0  0  0  0  0
   47.9325    4.8993   22.2853 H   0  0  0  0  0  0  0  0  0  0  0  0
   47.7317    4.7241   20.5421 H   0  0  0  0  0  0  0  0  0  0  0  0
   49.1149    8.4949   22.2287 H   0  0  0  0  0  0  0  0  0  0  0  0
   47.4375    7.9794   22.4518 H   0  0  0  0  0  0  0  0  0  0  0  0
   48.7349    7.1323   23.2818 H   0  0  0  0  0  0  0  0  0  0  0  0
   46.8001   10.1966   13.4623 H   0  0  0  0  0  0  0  0  0  0  0  0
   50.3655    7.7802   13.7988 H   0  0  0  0  0  0  0  0  0  0  0  0
   47.6062   11.0621   11.3000 H   0  0  0  0  0  0  0  0  0  0  0  0
   51.1551    8.6679   11.6395 H   0  0  0  0  0  0  0  0  0  0  0  0
   49.7837   10.3071   10.3830 H   0  0  0  0  0  0  0  0  0  0  0  0
   49.0532    7.3803   18.4726 H   0  0  0  0  0  0  0  0  0  0  0  0
   49.1938    7.6513   16.9755 H   0  0  0  0  0  0  0  0  0  0  0  0
   49.0387    7.4423   18.4971 H   0  0  0  0  0  0  0  0  0  0  0  0
   49.2048    7.5848   16.9849 H   0  0  0  0  0  0  0  0  0  0  0  0
   49.1709    7.7773   16.9740 H   0  0  0  0  0  0  0  0  0  0  0  0
   49.0809    7.2707   18.4125 H   0  0  0  0  0  0  0  0  0  0  0  0
  3  2  1  0
  4  2  1  0
  5  3  1  0
  6  2  1  0
  3  7  1  0
  8  6  1  0
  5  9  1  0
  6 10  1  0
 11  9  1  0
 12  4  2  0
 13 10  2  0
 14 11  2  0
 15 11  1  0
 16 10  1  0
 17  8  1  0
 18  8  1  0
 19 15  1  0
 20 19  2  0
 21 19  1  0
 22 20  1  0
 23 21  2  0
 24 23  1  0
  7  8  1  0
  4  5  1  0
 24 22  2  0
 26 32  1  0
 27 30  1  0
 28 29  1  0
 29 25  1  0
 30 26  1  0
 31 25  1  0
 32 31  1  0
 33 27  2  0
 34 27  1  0
 35 28  2  0
 36 28  1  0
 37 33  1  0
 38 35  1  0
 39 36  2  0
 40 34  2  0
 41 37  2  0
 42 39  1  0
 42 38  2  0
 40 41  1  0
 44 43  1  0
 45 43  1  0
 46 44  1  0
 47 43  1  0
 44 48  1  0
 49 47  1  0
 46 50  1  0
 47 51  1  0
 52 50  1  0
 53 45  2  0
 54 51  2  0
 55 52  2  0
 56 52  1  0
 57 51  1  0
 58 49  1  0
 59 49  1  0
 60 56  1  0
 61 60  2  0
 62 60  1  0
 63 61  1  0
 64 62  2  0
 65 64  1  0
 48 49  1  0
 45 46  1  0
 65 63  2  0
  1 69  1  0
  1 70  1  0
  3 71  1  1
  5 72  1  1
  6 73  1  6
  9 74  1  0
 15 75  1  0
 15 76  1  0
 16 77  1  0
 17 78  1  0
 17 79  1  0
 17 80  1  0
 18 81  1  0
 18 82  1  0
 18 83  1  0
 20 84  1  0
 21 85  1  0
 22 86  1  0
 23 87  1  0
 24 88  1  0
 25 89  1  0
 26 90  1  0
 29 91  1  0
 29 92  1  0
 30 93  1  0
 30 94  1  0
 31 95  1  0
 31 96  1  0
 32 97  1  0
 32 98  1  0
 33 99  1  0
 34100  1  0
 35101  1  0
 36102  1  0
 37103  1  0
 38104  1  0
 39105  1  0
 40106  1  0
 41107  1  0
 42108  1  0
 44109  1  1
 46110  1  1
 47111  1  6
 50112  1  0
 56113  1  0
 56114  1  0
 57115  1  0
 58116  1  0
 58117  1  0
 58118  1  0
 59119  1  0
 59120  1  0
 59121  1  0
 61122  1  0
 62123  1  0
 63124  1  0
 64125  1  0
 65126  1  0
 66127  1  0
 66128  1  0
 67129  1  0
 67130  1  0
 68131  1  0
 68132  1  0
M  END
> <Uni-Dock RESULT> 
ENERGY=   -6.377  LOWER_BOUND=    3.197  UPPER_BOUND=    5.034
INTER + INTRA:          -6.377
INTER:                  -6.377
INTRA:                   0.000
UNBOUND:                 0.000

$$$$

     RDKit          3D

132133  0  0  0  0  0  0  0  0999 V2000
   42.3285   12.6624   10.2732 O   0  0  0  0  0  0  0  0  0  0  0  0
   44.6677   13.2885    9.1046 N   0  0  0  0  0  0  0  0  0  0  0  0
   44.1968   12.1278    9.8830 C   0  0  1  0  0  0  0  0  0  0  0  0
   43.9206   14.1825    9.8203 C   0  0  0  0  0  0  0  0  0  0  0  0
   43.6447   13.1394   10.9278 C   0  0  1  0  0  0  0  0  0  0  0  0
   44.5559   13.2058    7.6541 C   0  0  2  0  0  0  0  0  0  0  0  0
   42.9695   11.2853    8.7936 S   0  0  0  0  0  0  0  0  0  0  0  0
   43.3124   12.3520    7.3159 C   0  0  0  0  0  0  0  0  0  0  0  0
   42.2291   12.9915   11.3478 N   0  0  0  0  0  0  0  0  0  0  0  0
   45.8632   12.6245    7.1228 C   0  0  0  0  0  0  0  0  0  0  0  0
   41.8362   11.9551   12.1638 C   0  0  0  0  0  0  0  0  0  0  0  0
   43.5483   15.2975    9.5442 O   0  0  0  0  0  0  0  0  0  0  0  0
   46.5338   11.7313    7.6129 O   0  0  0  0  0  0  0  0  0  0  0  0
   42.6324   11.1303   12.6065 O   0  0  0  0  0  0  0  0  0  0  0  0
   40.3434   11.8740   12.4214 C   0  0  0  0  0  0  0  0  0  0  0  0
   46.2378   13.1889    5.9544 O   0  0  0  0  0  0  0  0  0  0  0  0
   42.0786   13.2421    7.0948 C   0  0  0  0  0  0  0  0  0  0  0  0
   43.4736   11.4369    6.0935 C   0  0  0  0  0  0  0  0  0  0  0  0
   39.7868   13.0848   13.1292 C   0  0  0  0  0  0  0  0  0  0  0  0
   38.9062   13.9566   12.4734 C   0  0  0  0  0  0  0  0  0  0  0  0
   40.1435   13.3510   14.4583 C   0  0  0  0  0  0  0  0  0  0  0  0
   38.3955   15.0737   13.1366 C   0  0  0  0  0  0  0  0  0  0  0  0
   39.6302   14.4679   15.1190 C   0  0  0  0  0  0  0  0  0  0  0  0
   38.7576   15.3286   14.4575 C   0  0  0  0  0  0  0  0  0  0  0  0
   42.6598   12.9053    8.3256 N   0  0  0  0  0  0  0  0  0  0  0  0
   41.8472   13.4312   12.0337 N   0  0  0  0  0  0  0  0  0  0  0  0
   40.0094   12.9559   13.5762 C   0  0  0  0  0  0  0  0  0  0  0  0
   44.5338   13.2579    6.8034 C   0  0  0  0  0  0  0  0  0  0  0  0
   43.8047   13.7626    8.0260 C   0  0  0  0  0  0  0  0  0  0  0  0
   40.6476   12.6209   12.2485 C   0  0  0  0  0  0  0  0  0  0  0  0
   41.9159   13.3431    9.5104 C   0  0  0  0  0  0  0  0  0  0  0  0
   42.6085   13.0108   10.8517 C   0  0  0  0  0  0  0  0  0  0  0  0
   39.2729   14.1400   13.7296 C   0  0  0  0  0  0  0  0  0  0  0  0
   40.1627   12.1056   14.6806 C   0  0  0  0  0  0  0  0  0  0  0  0
   45.7372   12.5480    6.9267 C   0  0  0  0  0  0  0  0  0  0  0  0
   43.9983   13.4664    5.5241 C   0  0  0  0  0  0  0  0  0  0  0  0
   38.6871   14.4574   14.9556 C   0  0  0  0  0  0  0  0  0  0  0  0
   46.3958   12.0708    5.7917 C   0  0  0  0  0  0  0  0  0  0  0  0
   44.6577   12.9886    4.3913 C   0  0  0  0  0  0  0  0  0  0  0  0
   39.5794   12.4268   15.9076 C   0  0  0  0  0  0  0  0  0  0  0  0
   38.8393   13.6004   16.0438 C   0  0  0  0  0  0  0  0  0  0  0  0
   45.8572   12.2922    4.5252 C   0  0  0  0  0  0  0  0  0  0  0  0
   44.9290   12.9170    9.3231 N   0  0  0  0  0  0  0  0  0  0  0  0
   43.7971   12.0261    9.6429 C   0  0  1  0  0  0  0  0  0  0  0  0
   44.6531   13.7805   10.3500 C   0  0  0  0  0  0  0  0  0  0  0  0
   43.6140   12.8152   10.9603 C   0  0  1  0  0  0  0  0  0  0  0  0
   45.0235   13.4383    7.9578 C   0  0  2  0  0  0  0  0  0  0  0  0
   42.6145   12.3339    8.2670 S   0  0  0  0  0  0  0  0  0  0  0  0
   44.0129   12.6663    7.0882 C   0  0  0  0  0  0  0  0  0  0  0  0
   42.2643   13.3748   11.2373 N   0  0  0  0  0  0  0  0  0  0  0  0
   46.4624   13.3630    7.4617 C   0  0  0  0  0  0  0  0  0  0  0  0
   41.2499   12.5512   11.6764 C   0  0  0  0  0  0  0  0  0  0  0  0
   45.0267   14.9123   10.5588 O   0  0  0  0  0  0  0  0  0  0  0  0
   47.4034   12.7851    7.9843 O   0  0  0  0  0  0  0  0  0  0  0  0
   41.4378   11.3593   11.9177 O   0  0  0  0  0  0  0  0  0  0  0  0
   39.9061   13.2342   11.8554 C   0  0  0  0  0  0  0  0  0  0  0  0
   46.6536   14.0329    6.3049 O   0  0  0  0  0  0  0  0  0  0  0  0
   43.4774   13.5104    5.9291 C   0  0  0  0  0  0  0  0  0  0  0  0
   44.5260   11.3172    6.5680 C   0  0  0  0  0  0  0  0  0  0  0  0
   39.4939   13.3333   13.3026 C   0  0  0  0  0  0  0  0  0  0  0  0
   38.3872   12.6156   13.7760 C   0  0  0  0  0  0  0  0  0  0  0  0
   40.2107   14.1415   14.1958 C   0  0  0  0  0  0  0  0  0  0  0  0
   38.0051   12.7057   15.1149 C   0  0  0  0  0  0  0  0  0  0  0  0
   39.8288   14.2279   15.5354 C   0  0  0  0  0  0  0  0  0  0  0  0
   38.7256   13.5101   15.9941 C   0  0  0  0  0  0  0  0  0  0  0  0
   42.2953   12.6710   10.3271 O   0  0  0  0  0  0  0  0  0  0  0  0
   42.2780   12.6802   10.3554 O   0  0  0  0  0  0  0  0  0  0  0  0
   42.3286   12.6621   10.2730 O   0  0  0  0  0  0  0  0  0  0  0  0
   42.7627   13.2098    9.6027 H   0  0  0  0  0  0  0  0  0  0  0  0
   41.9604   13.3036   10.8997 H   0  0  0  0  0  0  0  0  0  0  0  0
   45.0111   11.4884   10.2350 H   0  0  0  0  0  0  0  0  0  0  0  0
   44.2990   13.2884   11.7972 H   0  0  0  0  0  0  0  0  0  0  0  0
   44.4614   14.2270    7.2621 H   0  0  0  0  0  0  0  0  0  0  0  0
   41.5513   13.7073   11.1081 H   0  0  0  0  0  0  0  0  0  0  0  0
   39.8429   11.7181   11.4580 H   0  0  0  0  0  0  0  0  0  0  0  0
   40.1378   10.9811   13.0242 H   0  0  0  0  0  0  0  0  0  0  0  0
   47.0820   12.7443    5.7280 H   0  0  0  0  0  0  0  0  0  0  0  0
   42.2359   13.9090    6.2394 H   0  0  0  0  0  0  0  0  0  0  0  0
   41.1813   12.6486    6.8801 H   0  0  0  0  0  0  0  0  0  0  0  0
   41.8546   13.8749    7.9595 H   0  0  0  0  0  0  0  0  0  0  0  0
   43.7017   12.0256    5.1975 H   0  0  0  0  0  0  0  0  0  0  0  0
   44.2736   10.6998    6.2242 H   0  0  0  0  0  0  0  0  0  0  0  0
   42.5514   10.8805    5.8848 H   0  0  0  0  0  0  0  0  0  0  0  0
   38.6025   13.7700   11.4452 H   0  0  0  0  0  0  0  0  0  0  0  0
   40.8226   12.6853   14.9891 H   0  0  0  0  0  0  0  0  0  0  0  0
   37.7116   15.7452   12.6232 H   0  0  0  0  0  0  0  0  0  0  0  0
   39.9100   14.6644   16.1504 H   0  0  0  0  0  0  0  0  0  0  0  0
   38.3538   16.1953   14.9751 H   0  0  0  0  0  0  0  0  0  0  0  0
   42.9802   11.9454    8.4403 H   0  0  0  0  0  0  0  0  0  0  0  0
   42.4399   13.3396   12.8595 H   0  0  0  0  0  0  0  0  0  0  0  0
   43.4751   14.7904    7.8368 H   0  0  0  0  0  0  0  0  0  0  0  0
   44.5034   13.8025    8.8685 H   0  0  0  0  0  0  0  0  0  0  0  0
   40.8925   11.5524   12.2248 H   0  0  0  0  0  0  0  0  0  0  0  0
   39.9068   12.7977   11.4602 H   0  0  0  0  0  0  0  0  0  0  0  0
   40.9477   12.8311    9.4702 H   0  0  0  0  0  0  0  0  0  0  0  0
   41.6962   14.4155    9.4487 H   0  0  0  0  0  0  0  0  0  0  0  0
   43.5703   13.5330   10.8930 H   0  0  0  0  0  0  0  0  0  0  0  0
   42.8354   11.9389   10.9104 H   0  0  0  0  0  0  0  0  0  0  0  0
   39.1583   14.8201   12.8882 H   0  0  0  0  0  0  0  0  0  0  0  0
   40.7380   11.1868   14.5921 H   0  0  0  0  0  0  0  0  0  0  0  0
   46.1698   12.3629    7.9071 H   0  0  0  0  0  0  0  0  0  0  0  0
   43.0545   13.9969    5.4119 H   0  0  0  0  0  0  0  0  0  0  0  0
   38.1157   15.3755   15.0616 H   0  0  0  0  0  0  0  0  0  0  0  0
   47.3284   11.5223    5.8948 H   0  0  0  0  0  0  0  0  0  0  0  0
   44.2318   13.1560    3.4054 H   0  0  0  0  0  0  0  0  0  0  0  0
   39.7001   11.7606   16.7578 H   0  0  0  0  0  0  0  0  0  0  0  0
   38.3852   13.8496   16.9988 H   0  0  0  0  0  0  0  0  0  0  0  0
   46.3686   11.9176    3.6422 H   0  0  0  0  0  0  0  0  0  0  0  0
   44.1035   10.9835    9.7643 H   0  0  0  0  0  0  0  0  0  0  0  0
   44.0140   12.3058   11.8475 H   0  0  0  0  0  0  0  0  0  0  0  0
   44.7660   14.5066    7.9933 H   0  0  0  0  0  0  0  0  0  0  0  0
   42.0541   14.3343   10.9821 H   0  0  0  0  0  0  0  0  0  0  0  0
   39.9194   14.2395   11.4178 H   0  0  0  0  0  0  0  0  0  0  0  0
   39.1743   12.6607   11.2754 H   0  0  0  0  0  0  0  0  0  0  0  0
   47.6075   13.8999    6.1194 H   0  0  0  0  0  0  0  0  0  0  0  0
   42.6639   12.9993    5.3993 H   0  0  0  0  0  0  0  0  0  0  0  0
   44.2632   13.7096    5.1937 H   0  0  0  0  0  0  0  0  0  0  0  0
   43.0983   14.4815    6.2691 H   0  0  0  0  0  0  0  0  0  0  0  0
   44.9227   10.6811    7.3668 H   0  0  0  0  0  0  0  0  0  0  0  0
   43.7327   10.7554    6.0602 H   0  0  0  0  0  0  0  0  0  0  0  0
   45.3288   11.4569    5.8360 H   0  0  0  0  0  0  0  0  0  0  0  0
   37.8178   11.9728   13.1075 H   0  0  0  0  0  0  0  0  0  0  0  0
   41.0780   14.7059   13.8598 H   0  0  0  0  0  0  0  0  0  0  0  0
   37.1473   12.1417   15.4731 H   0  0  0  0  0  0  0  0  0  0  0  0
   40.3942   14.8503   16.2232 H   0  0  0  0  0  0  0  0  0  0  0  0
   38.4315   13.5740   17.0388 H   0  0  0  0  0  0  0  0  0  0  0  0
   42.7672   13.0834    9.5888 H   0  0  0  0  0  0  0  0  0  0  0  0
   41.9892   13.4213   10.8596 H   0  0  0  0  0  0  0  0  0  0  0  0
   42.7652   13.0153    9.5885 H   0  0  0  0  0  0  0  0  0  0  0  0
   42.0084   13.4803   10.8317 H   0  0  0  0  0  0  0  0  0  0  0  0
   41.9604   13.3030   10.8997 H   0  0  0  0  0  0  0  0  0  0  0  0
   42.7627   13.2106    9.6027 H   0  0  0  0  0  0  0  0  0  0  0  0
  3  2  1  0
  4  2  1  0
  5  3  1  0
  6  2  1  0
  3  7  1  0
  8  6  1  0
  5  9  1  0
  6 10  1  0
 11  9  1  0
 12  4  2  0
 13 10  2  0
 14 11  2  0
 15 11  1  0
 16 10  1  0
 17  8  1  0
 18  8  1  0
 19 15  1  0
 20 19  2  0
 21 19  1  0
 22 20  1  0
 23 21  2  0
 24 23  1  0
  7  8  1  0
  4  5  1  0
 24 22  2  0
 26 32  1  0
 27 30  1  0
 28 29  1  0
 29 25  1  0
 30 26  1  0
 31 25  1  0
 32 31  1  0
 33 27  2  0
 34 27  1  0
 35 28  2  0
 36 28  1  0
 37 33  1  0
 38 35  1  0
 39 36  2  0
 40 34  2  0
 41 37  2  0
 42 39  1  0
 42 38  2  0
 40 41  1  0
 44 43  1  0
 45 43  1  0
 46 44  1  0
 47 43  1  0
 44 48  1  0
 49 47  1  0
 46 50  1  0
 47 51  1  0
 52 50  1  0
 53 45  2  0
 54 51  2  0
 55 52  2  0
 56 52  1  0
 57 51  1  0
 58 49  1  0
 59 49  1  0
 60 56  1  0
 61 60  2  0
 62 60  1  0
 63 61  1  0
 64 62  2  0
 65 64  1  0
 48 49  1  0
 45 46  1  0
 65 63  2  0
  1 69  1  0
  1 70  1  0
  3 71  1  1
  5 72  1  1
  6 73  1  6
  9 74  1  0
 15 75  1  0
 15 76  1  0
 16 77  1  0
 17 78  1  0
 17 79  1  0
 17 80  1  0
 18 81  1  0
 18 82  1  0
 18 83  1  0
 20 84  1  0
 21 85  1  0
 22 86  1  0
 23 87  1  0
 24 88  1  0
 25 89  1  0
 26 90  1  0
 29 91  1  0
 29 92  1  0
 30 93  1  0
 30 94  1  0
 31 95  1  0
 31 96  1  0
 32 97  1  0
 32 98  1  0
 33 99  1  0
 34100  1  0
 35101  1  0
 36102  1  0
 37103  1  0
 38104  1  0
 39105  1  0
 40106  1  0
 41107  1  0
 42108  1  0
 44109  1  1
 46110  1  1
 47111  1  6
 50112  1  0
 56113  1  0
 56114  1  0
 57115  1  0
 58116  1  0
 58117  1  0
 58118  1  0
 59119  1  0
 59120  1  0
 59121  1  0
 61122  1  0
 62123  1  0
 63124  1  0
 64125  1  0
 65126  1  0
 66127  1  0
 66128  1  0
 67129  1  0
 67130  1  0
 68131  1  0
 68132  1  0
M  END
> <Uni-Dock RESULT> 
ENERGY=   -6.304  LOWER_BOUND=   10.593  UPPER_BOUND=   12.856
INTER + INTRA:          -6.304
INTER:                  -6.304
INTRA:                   0.000
UNBOUND:                 0.000

$$$$
