
     RDKit          3D

 43 42  0  0  0  0  0  0  0  0999 V2000
   43.9701    3.2887    9.3967 C   0  0  0  0  0  0  0  0  0  0  0  0
   43.1239    4.5313   11.3485 N   0  0  0  0  0  0  0  0  0  0  0  0
   45.1469    2.9764    8.5010 C   0  0  0  0  0  0  0  0  0  0  0  0
   44.3453    4.1102   10.6476 C   0  0  1  0  0  0  0  0  0  0  0  0
   45.7162    3.9758    7.6996 C   0  0  0  0  0  0  0  0  0  0  0  0
   45.6895    1.6850    8.4634 C   0  0  0  0  0  0  0  0  0  0  0  0
   45.2131    3.3161   11.6246 C   0  0  0  0  0  0  0  0  0  0  0  0
   46.8081    3.6887    6.8790 C   0  0  0  0  0  0  0  0  0  0  0  0
   46.7817    1.3998    7.6423 C   0  0  0  0  0  0  0  0  0  0  0  0
   47.3408    2.4013    6.8510 C   0  0  0  0  0  0  0  0  0  0  0  0
   46.6783    2.9835    6.9120 C   0  0  0  0  0  0  0  0  0  0  0  0
   43.8365    3.4394   11.6401 C   0  0  0  0  0  0  0  0  0  0  0  0
   47.4153    3.8767    7.2916 O   0  0  0  0  0  0  0  0  0  0  0  0
   43.0994    2.5461   11.2604 O   0  0  0  0  0  0  0  0  0  0  0  0
   43.9067    3.7595   12.9473 O   0  0  0  0  0  0  0  0  0  0  0  0
   46.6081    2.6634    5.6048 O   0  0  0  0  0  0  0  0  0  0  0  0
   44.7266    4.3159   10.7996 C   0  0  0  0  0  0  0  0  0  0  0  0
   45.7881    2.1069    7.7525 C   0  0  0  0  0  0  0  0  0  0  0  0
   45.6854    2.5787    9.2035 C   0  0  0  0  0  0  0  0  0  0  0  0
   44.8293    3.8441    9.3486 C   0  0  0  0  0  0  0  0  0  0  0  0
   43.2337    3.8397    8.7952 H   0  0  0  0  0  0  0  0  0  0  0  0
   43.4694    2.3571    9.6928 H   0  0  0  0  0  0  0  0  0  0  0  0
   42.5710    5.1331   10.7392 H   0  0  0  0  0  0  0  0  0  0  0  0
   43.3747    5.0986   12.1578 H   0  0  0  0  0  0  0  0  0  0  0  0
   44.8917    5.0133   10.3503 H   0  0  0  0  0  0  0  0  0  0  0  0
   45.3096    4.9845    7.7077 H   0  0  0  0  0  0  0  0  0  0  0  0
   45.2658    0.8925    9.0764 H   0  0  0  0  0  0  0  0  0  0  0  0
   44.7194    2.3897   11.9390 H   0  0  0  0  0  0  0  0  0  0  0  0
   46.1751    3.0513   11.1741 H   0  0  0  0  0  0  0  0  0  0  0  0
   45.4307    3.9038   12.5238 H   0  0  0  0  0  0  0  0  0  0  0  0
   47.2423    4.4694    6.2602 H   0  0  0  0  0  0  0  0  0  0  0  0
   47.1959    0.3953    7.6205 H   0  0  0  0  0  0  0  0  0  0  0  0
   48.1906    2.1780    6.2115 H   0  0  0  0  0  0  0  0  0  0  0  0
   43.2838    3.1378   13.3788 H   0  0  0  0  0  0  0  0  0  0  0  0
   47.2309    3.2850    5.1733 H   0  0  0  0  0  0  0  0  0  0  0  0
   44.2978    5.3242   10.8165 H   0  0  0  0  0  0  0  0  0  0  0  0
   45.7231    4.3523   11.2533 H   0  0  0  0  0  0  0  0  0  0  0  0
   44.7917    2.0705    7.2988 H   0  0  0  0  0  0  0  0  0  0  0  0
   46.2169    1.0986    7.7355 H   0  0  0  0  0  0  0  0  0  0  0  0
   46.6865    2.7602    9.6131 H   0  0  0  0  0  0  0  0  0  0  0  0
   45.2419    1.7695    9.7948 H   0  0  0  0  0  0  0  0  0  0  0  0
   43.8282    3.6627    8.9389 H   0  0  0  0  0  0  0  0  0  0  0  0
   45.2728    4.6535    8.7573 H   0  0  0  0  0  0  0  0  0  0  0  0
  4  2  1  0
  3  1  1  0
  4  1  1  0
  5  3  2  0
  6  3  1  0
  4  7  1  0
  8  5  1  0
  9  6  2  0
 10  9  1  0
 10  8  2  0
 12 17  1  0
 13 11  2  0
 14 12  2  0
 15 12  1  0
 16 11  1  0
 17 20  1  0
 18 11  1  0
 19 18  1  0
 20 19  1  0
  1 21  1  0
  1 22  1  0
  2 23  1  0
  2 24  1  0
  4 25  1  6
  5 26  1  0
  6 27  1  0
  7 28  1  0
  7 29  1  0
  7 30  1  0
  8 31  1  0
  9 32  1  0
 10 33  1  0
 15 34  1  0
 16 35  1  0
 17 36  1  0
 17 37  1  0
 18 38  1  0
 18 39  1  0
 19 40  1  0
 19 41  1  0
 20 42  1  0
 20 43  1  0
M  END
> <Uni-Dock RESULT> 
ENERGY=   -7.645  LOWER_BOUND=    0.000  UPPER_BOUND=    0.000
INTER + INTRA:          -7.645
INTER:                  -7.645
INTRA:                   0.000
UNBOUND:                 0.000

$$$$

     RDKit          3D

 43 42  0  0  0  0  0  0  0  0999 V2000
   45.4360    4.6360    9.1476 C   0  0  0  0  0  0  0  0  0  0  0  0
   45.5317    3.6587    6.8882 N   0  0  0  0  0  0  0  0  0  0  0  0
   44.7360    4.6764   10.4867 C   0  0  0  0  0  0  0  0  0  0  0  0
   44.9436    3.5009    8.2259 C   0  0  1  0  0  0  0  0  0  0  0  0
   43.4165    5.1395   10.5864 C   0  0  0  0  0  0  0  0  0  0  0  0
   45.3937    4.2459   11.6468 C   0  0  0  0  0  0  0  0  0  0  0  0
   45.3187    2.1173    8.7581 C   0  0  0  0  0  0  0  0  0  0  0  0
   42.7680    5.1687   11.8219 C   0  0  0  0  0  0  0  0  0  0  0  0
   44.7434    4.2756   12.8815 C   0  0  0  0  0  0  0  0  0  0  0  0
   43.4312    4.7363   12.9688 C   0  0  0  0  0  0  0  0  0  0  0  0
   43.3906    5.1274   12.1769 C   0  0  0  0  0  0  0  0  0  0  0  0
   46.0311    2.8877    7.8584 C   0  0  0  0  0  0  0  0  0  0  0  0
   42.3872    4.5144   11.8564 O   0  0  0  0  0  0  0  0  0  0  0  0
   47.0345    3.5007    8.1789 O   0  0  0  0  0  0  0  0  0  0  0  0
   46.1145    1.8149    7.0470 O   0  0  0  0  0  0  0  0  0  0  0  0
   43.3071    6.2002   12.9883 O   0  0  0  0  0  0  0  0  0  0  0  0
   44.6074    3.1888    8.2452 C   0  0  0  0  0  0  0  0  0  0  0  0
   44.8143    4.8263   11.7901 C   0  0  0  0  0  0  0  0  0  0  0  0
   44.9233    3.7506   10.7087 C   0  0  0  0  0  0  0  0  0  0  0  0
   44.4984    4.2645    9.3266 C   0  0  0  0  0  0  0  0  0  0  0  0
   45.2754    5.6083    8.6612 H   0  0  0  0  0  0  0  0  0  0  0  0
   46.5213    4.5578    9.2966 H   0  0  0  0  0  0  0  0  0  0  0  0
   45.2234    4.5412    6.4817 H   0  0  0  0  0  0  0  0  0  0  0  0
   45.1812    2.9242    6.2739 H   0  0  0  0  0  0  0  0  0  0  0  0
   43.8530    3.5511    8.1228 H   0  0  0  0  0  0  0  0  0  0  0  0
   42.8867    5.4836    9.7011 H   0  0  0  0  0  0  0  0  0  0  0  0
   46.4174    3.8817   11.5953 H   0  0  0  0  0  0  0  0  0  0  0  0
   46.4012    2.0208    8.8987 H   0  0  0  0  0  0  0  0  0  0  0  0
   44.8331    1.9180    9.7188 H   0  0  0  0  0  0  0  0  0  0  0  0
   44.9973    1.3301    8.0666 H   0  0  0  0  0  0  0  0  0  0  0  0
   41.7455    5.5304   11.8900 H   0  0  0  0  0  0  0  0  0  0  0  0
   45.2617    3.9390   13.7754 H   0  0  0  0  0  0  0  0  0  0  0  0
   42.9261    4.7598   13.9307 H   0  0  0  0  0  0  0  0  0  0  0  0
   47.0729    1.7317    6.8595 H   0  0  0  0  0  0  0  0  0  0  0  0
   42.3488    6.2834   13.1759 H   0  0  0  0  0  0  0  0  0  0  0  0
   44.0934    3.5379    7.3426 H   0  0  0  0  0  0  0  0  0  0  0  0
   44.1270    2.2650    8.5857 H   0  0  0  0  0  0  0  0  0  0  0  0
   45.2947    5.7501   11.4497 H   0  0  0  0  0  0  0  0  0  0  0  0
   45.3283    4.4771   12.6927 H   0  0  0  0  0  0  0  0  0  0  0  0
   44.3172    2.8782   10.9817 H   0  0  0  0  0  0  0  0  0  0  0  0
   45.9653    3.4131   10.6670 H   0  0  0  0  0  0  0  0  0  0  0  0
   45.1044    5.1369    9.0536 H   0  0  0  0  0  0  0  0  0  0  0  0
   43.4563    4.6019    9.3682 H   0  0  0  0  0  0  0  0  0  0  0  0
  4  2  1  0
  3  1  1  0
  4  1  1  0
  5  3  2  0
  6  3  1  0
  4  7  1  0
  8  5  1  0
  9  6  2  0
 10  9  1  0
 10  8  2  0
 12 17  1  0
 13 11  2  0
 14 12  2  0
 15 12  1  0
 16 11  1  0
 17 20  1  0
 18 11  1  0
 19 18  1  0
 20 19  1  0
  1 21  1  0
  1 22  1  0
  2 23  1  0
  2 24  1  0
  4 25  1  6
  5 26  1  0
  6 27  1  0
  7 28  1  0
  7 29  1  0
  7 30  1  0
  8 31  1  0
  9 32  1  0
 10 33  1  0
 15 34  1  0
 16 35  1  0
 17 36  1  0
 17 37  1  0
 18 38  1  0
 18 39  1  0
 19 40  1  0
 19 41  1  0
 20 42  1  0
 20 43  1  0
M  END
> <Uni-Dock RESULT> 
ENERGY=   -5.719  LOWER_BOUND=    1.770  UPPER_BOUND=    5.098
INTER + INTRA:          -5.719
INTER:                  -5.719
INTRA:                   0.000
UNBOUND:                 0.000

$$$$

     RDKit          3D

 43 42  0  0  0  0  0  0  0  0999 V2000
   45.0947    5.3576   11.0018 C   0  0  0  0  0  0  0  0  0  0  0  0
   43.2875    3.7208   10.6494 N   0  0  0  0  0  0  0  0  0  0  0  0
   45.5945    6.5509   11.7834 C   0  0  0  0  0  0  0  0  0  0  0  0
   43.8029    4.7391   11.5755 C   0  0  1  0  0  0  0  0  0  0  0  0
   44.9381    7.7863   11.6932 C   0  0  0  0  0  0  0  0  0  0  0  0
   46.7176    6.4380   12.6139 C   0  0  0  0  0  0  0  0  0  0  0  0
   44.0292    4.0825   12.9378 C   0  0  0  0  0  0  0  0  0  0  0  0
   45.3953    8.8857   12.4216 C   0  0  0  0  0  0  0  0  0  0  0  0
   47.1732    7.5384   13.3417 C   0  0  0  0  0  0  0  0  0  0  0  0
   46.5121    8.7613   13.2459 C   0  0  0  0  0  0  0  0  0  0  0  0
   46.0387    8.5829   12.5209 C   0  0  0  0  0  0  0  0  0  0  0  0
   44.0771    3.4728   11.6983 C   0  0  0  0  0  0  0  0  0  0  0  0
   44.9863    8.8791   13.0595 O   0  0  0  0  0  0  0  0  0  0  0  0
   45.1295    3.1766   11.1596 O   0  0  0  0  0  0  0  0  0  0  0  0
   43.2551    2.5137   12.1681 O   0  0  0  0  0  0  0  0  0  0  0  0
   46.8606    9.5421   12.0510 O   0  0  0  0  0  0  0  0  0  0  0  0
   43.5093    4.8511   11.9103 C   0  0  0  0  0  0  0  0  0  0  0  0
   46.6065    7.2046   12.3088 C   0  0  0  0  0  0  0  0  0  0  0  0
   45.6101    6.0924   12.6384 C   0  0  0  0  0  0  0  0  0  0  0  0
   44.5056    5.9633   11.5808 C   0  0  0  0  0  0  0  0  0  0  0  0
   44.9234    5.6878    9.9677 H   0  0  0  0  0  0  0  0  0  0  0  0
   45.8833    4.5956   10.9400 H   0  0  0  0  0  0  0  0  0  0  0  0
   43.0509    4.1575    9.7592 H   0  0  0  0  0  0  0  0  0  0  0  0
   42.4182    3.3353   11.0175 H   0  0  0  0  0  0  0  0  0  0  0  0
   43.0352    5.5145   11.6853 H   0  0  0  0  0  0  0  0  0  0  0  0
   44.0674    7.9003   11.0516 H   0  0  0  0  0  0  0  0  0  0  0  0
   47.2437    5.4898   12.7011 H   0  0  0  0  0  0  0  0  0  0  0  0
   44.8049    3.3100   12.8876 H   0  0  0  0  0  0  0  0  0  0  0  0
   44.3338    4.8204   13.6870 H   0  0  0  0  0  0  0  0  0  0  0  0
   43.1095    3.6129   13.3052 H   0  0  0  0  0  0  0  0  0  0  0  0
   44.8810    9.8399   12.3447 H   0  0  0  0  0  0  0  0  0  0  0  0
   48.0447    7.4407   13.9836 H   0  0  0  0  0  0  0  0  0  0  0  0
   46.8681    9.6177   13.8124 H   0  0  0  0  0  0  0  0  0  0  0  0
   43.7227    1.6772   11.9623 H   0  0  0  0  0  0  0  0  0  0  0  0
   46.3931   10.3785   12.2568 H   0  0  0  0  0  0  0  0  0  0  0  0
   42.6380    4.9472   11.2526 H   0  0  0  0  0  0  0  0  0  0  0  0
   43.1746    4.9434   12.9493 H   0  0  0  0  0  0  0  0  0  0  0  0
   46.9411    7.1123   11.2698 H   0  0  0  0  0  0  0  0  0  0  0  0
   47.4777    7.1085   12.9665 H   0  0  0  0  0  0  0  0  0  0  0  0
   45.1607    6.2678   13.6234 H   0  0  0  0  0  0  0  0  0  0  0  0
   46.1626    5.1481   12.7047 H   0  0  0  0  0  0  0  0  0  0  0  0
   44.9550    5.7879   10.5957 H   0  0  0  0  0  0  0  0  0  0  0  0
   43.9531    6.9077   11.5144 H   0  0  0  0  0  0  0  0  0  0  0  0
  4  2  1  0
  3  1  1  0
  4  1  1  0
  5  3  2  0
  6  3  1  0
  4  7  1  0
  8  5  1  0
  9  6  2  0
 10  9  1  0
 10  8  2  0
 12 17  1  0
 13 11  2  0
 14 12  2  0
 15 12  1  0
 16 11  1  0
 17 20  1  0
 18 11  1  0
 19 18  1  0
 20 19  1  0
  1 21  1  0
  1 22  1  0
  2 23  1  0
  2 24  1  0
  4 25  1  6
  5 26  1  0
  6 27  1  0
  7 28  1  0
  7 29  1  0
  7 30  1  0
  8 31  1  0
  9 32  1  0
 10 33  1  0
 15 34  1  0
 16 35  1  0
 17 36  1  0
 17 37  1  0
 18 38  1  0
 18 39  1  0
 19 40  1  0
 19 41  1  0
 20 42  1  0
 20 43  1  0
M  END
> <Uni-Dock RESULT> 
ENERGY=   -5.417  LOWER_BOUND=    3.542  UPPER_BOUND=    5.612
INTER + INTRA:          -5.417
INTER:                  -5.417
INTRA:                   0.000
UNBOUND:                 0.000

$$$$

     RDKit          3D

 43 42  0  0  0  0  0  0  0  0999 V2000
   44.4511    4.6990   13.0375 C   0  0  0  0  0  0  0  0  0  0  0  0
   43.6040    2.4350   12.5624 N   0  0  0  0  0  0  0  0  0  0  0  0
   45.6229    5.6528   12.9950 C   0  0  0  0  0  0  0  0  0  0  0  0
   44.7103    3.3672   12.3031 C   0  0  1  0  0  0  0  0  0  0  0  0
   46.7609    5.4176   13.7792 C   0  0  0  0  0  0  0  0  0  0  0  0
   45.5911    6.7826   12.1666 C   0  0  0  0  0  0  0  0  0  0  0  0
   44.8397    3.5541   10.7909 C   0  0  0  0  0  0  0  0  0  0  0  0
   47.8459    6.2944   13.7332 C   0  0  0  0  0  0  0  0  0  0  0  0
   46.6772    7.6581   12.1217 C   0  0  0  0  0  0  0  0  0  0  0  0
   47.8040    7.4138   12.9042 C   0  0  0  0  0  0  0  0  0  0  0  0
   47.4438    6.8152   13.4460 C   0  0  0  0  0  0  0  0  0  0  0  0
   43.6952    3.2382   11.4987 C   0  0  0  0  0  0  0  0  0  0  0  0
   48.3158    5.9943   13.2200 O   0  0  0  0  0  0  0  0  0  0  0  0
   42.8232    4.0592   11.7248 O   0  0  0  0  0  0  0  0  0  0  0  0
   43.4747    2.2250   10.6379 O   0  0  0  0  0  0  0  0  0  0  0  0
   47.6644    7.8283   14.3069 O   0  0  0  0  0  0  0  0  0  0  0  0
   45.0736    3.1723   12.1010 C   0  0  0  0  0  0  0  0  0  0  0  0
   46.0654    6.8812   12.8437 C   0  0  0  0  0  0  0  0  0  0  0  0
   45.7109    5.6367   12.0288 C   0  0  0  0  0  0  0  0  0  0  0  0
   45.4282    4.4168   12.9159 C   0  0  0  0  0  0  0  0  0  0  0  0
   44.2216    4.5041   14.0944 H   0  0  0  0  0  0  0  0  0  0  0  0
   43.5570    5.1883   12.6283 H   0  0  0  0  0  0  0  0  0  0  0  0
   43.5554    2.2320   13.5602 H   0  0  0  0  0  0  0  0  0  0  0  0
   43.7928    1.5461   12.0998 H   0  0  0  0  0  0  0  0  0  0  0  0
   45.6329    2.9081   12.6780 H   0  0  0  0  0  0  0  0  0  0  0  0
   46.8073    4.5504   14.4339 H   0  0  0  0  0  0  0  0  0  0  0  0
   44.7197    6.9865   11.5482 H   0  0  0  0  0  0  0  0  0  0  0  0
   43.9480    4.0295   10.3671 H   0  0  0  0  0  0  0  0  0  0  0  0
   45.7059    4.1755   10.5417 H   0  0  0  0  0  0  0  0  0  0  0  0
   44.9798    2.5910   10.2866 H   0  0  0  0  0  0  0  0  0  0  0  0
   48.7234    6.1048   14.3455 H   0  0  0  0  0  0  0  0  0  0  0  0
   46.6433    8.5313   11.4756 H   0  0  0  0  0  0  0  0  0  0  0  0
   48.6488    8.0965   12.8691 H   0  0  0  0  0  0  0  0  0  0  0  0
   42.5558    2.3701   10.3294 H   0  0  0  0  0  0  0  0  0  0  0  0
   48.5833    7.6834   14.6153 H   0  0  0  0  0  0  0  0  0  0  0  0
   45.0979    2.2967   12.7595 H   0  0  0  0  0  0  0  0  0  0  0  0
   45.8067    3.0274   11.3000 H   0  0  0  0  0  0  0  0  0  0  0  0
   45.3323    7.0260   13.6448 H   0  0  0  0  0  0  0  0  0  0  0  0
   46.0411    7.7567   12.1852 H   0  0  0  0  0  0  0  0  0  0  0  0
   46.5192    5.4033   11.3252 H   0  0  0  0  0  0  0  0  0  0  0  0
   44.8225    5.8637   11.4283 H   0  0  0  0  0  0  0  0  0  0  0  0
   44.6199    4.6501   13.6196 H   0  0  0  0  0  0  0  0  0  0  0  0
   46.3166    4.1896   13.5164 H   0  0  0  0  0  0  0  0  0  0  0  0
  4  2  1  0
  3  1  1  0
  4  1  1  0
  5  3  2  0
  6  3  1  0
  4  7  1  0
  8  5  1  0
  9  6  2  0
 10  9  1  0
 10  8  2  0
 12 17  1  0
 13 11  2  0
 14 12  2  0
 15 12  1  0
 16 11  1  0
 17 20  1  0
 18 11  1  0
 19 18  1  0
 20 19  1  0
  1 21  1  0
  1 22  1  0
  2 23  1  0
  2 24  1  0
  4 25  1  6
  5 26  1  0
  6 27  1  0
  7 28  1  0
  7 29  1  0
  7 30  1  0
  8 31  1  0
  9 32  1  0
 10 33  1  0
 15 34  1  0
 16 35  1  0
 17 36  1  0
 17 37  1  0
 18 38  1  0
 18 39  1  0
 19 40  1  0
 19 41  1  0
 20 42  1  0
 20 43  1  0
M  END
> <Uni-Dock RESULT> 
ENERGY=   -5.377  LOWER_BOUND=    3.181  UPPER_BOUND=    5.498
INTER + INTRA:          -5.377
INTER:                  -5.377
INTRA:                   0.000
UNBOUND:                 0.000

$$$$

     RDKit          3D

 43 42  0  0  0  0  0  0  0  0999 V2000
   46.7993    6.3475   12.0136 C   0  0  0  0  0  0  0  0  0  0  0  0
   48.7666    7.1247   13.2764 N   0  0  0  0  0  0  0  0  0  0  0  0
   45.3136    6.0695   12.0191 C   0  0  0  0  0  0  0  0  0  0  0  0
   47.2977    7.0737   13.2803 C   0  0  1  0  0  0  0  0  0  0  0  0
   44.7815    5.0595   12.8329 C   0  0  0  0  0  0  0  0  0  0  0  0
   44.4460    6.8213   11.2155 C   0  0  0  0  0  0  0  0  0  0  0  0
   46.7652    8.5038   13.3768 C   0  0  0  0  0  0  0  0  0  0  0  0
   43.4085    4.8090   12.8436 C   0  0  0  0  0  0  0  0  0  0  0  0
   43.0732    6.5694   11.2278 C   0  0  0  0  0  0  0  0  0  0  0  0
   42.5548    5.5641   12.0418 C   0  0  0  0  0  0  0  0  0  0  0  0
   43.3165    5.1521   12.2198 C   0  0  0  0  0  0  0  0  0  0  0  0
   47.9653    8.0946   12.8266 C   0  0  0  0  0  0  0  0  0  0  0  0
   43.1418    5.2164   13.4243 O   0  0  0  0  0  0  0  0  0  0  0  0
   48.1401    8.0303   11.6222 O   0  0  0  0  0  0  0  0  0  0  0  0
   48.5916    9.0362   13.5597 O   0  0  0  0  0  0  0  0  0  0  0  0
   42.6902    4.2105   11.4868 O   0  0  0  0  0  0  0  0  0  0  0  0
   47.1088    7.1974   13.6801 C   0  0  0  0  0  0  0  0  0  0  0  0
   44.1730    6.0493   11.3663 C   0  0  0  0  0  0  0  0  0  0  0  0
   45.0554    6.9894   12.1886 C   0  0  0  0  0  0  0  0  0  0  0  0
   46.2264    6.2573   12.8578 C   0  0  0  0  0  0  0  0  0  0  0  0
   47.3157    5.3832   11.9084 H   0  0  0  0  0  0  0  0  0  0  0  0
   47.0674    6.9235   11.1177 H   0  0  0  0  0  0  0  0  0  0  0  0
   49.1412    6.1769   13.2973 H   0  0  0  0  0  0  0  0  0  0  0  0
   49.0933    7.5789   14.1289 H   0  0  0  0  0  0  0  0  0  0  0  0
   46.9819    6.5228   14.1744 H   0  0  0  0  0  0  0  0  0  0  0  0
   45.4351    4.4592   13.4615 H   0  0  0  0  0  0  0  0  0  0  0  0
   44.8345    7.6108   10.5760 H   0  0  0  0  0  0  0  0  0  0  0  0
   47.0373    9.0942   12.4946 H   0  0  0  0  0  0  0  0  0  0  0  0
   45.6743    8.5144   13.4683 H   0  0  0  0  0  0  0  0  0  0  0  0
   47.1664    9.0136   14.2602 H   0  0  0  0  0  0  0  0  0  0  0  0
   43.0050    4.0232   13.4767 H   0  0  0  0  0  0  0  0  0  0  0  0
   42.4083    7.1583   10.6015 H   0  0  0  0  0  0  0  0  0  0  0  0
   41.4859    5.3683   12.0500 H   0  0  0  0  0  0  0  0  0  0  0  0
   49.1180    9.5385   12.9030 H   0  0  0  0  0  0  0  0  0  0  0  0
   42.1638    3.7082   12.1434 H   0  0  0  0  0  0  0  0  0  0  0  0
   47.7850    6.5988   14.3009 H   0  0  0  0  0  0  0  0  0  0  0  0
   46.4874    7.8161   14.3367 H   0  0  0  0  0  0  0  0  0  0  0  0
   44.7944    5.4306   10.7097 H   0  0  0  0  0  0  0  0  0  0  0  0
   43.4969    6.6479   10.7455 H   0  0  0  0  0  0  0  0  0  0  0  0
   44.4547    7.5009   12.9505 H   0  0  0  0  0  0  0  0  0  0  0  0
   45.4456    7.7641   11.5186 H   0  0  0  0  0  0  0  0  0  0  0  0
   46.8272    5.7458   12.0960 H   0  0  0  0  0  0  0  0  0  0  0  0
   45.8362    5.4826   13.5279 H   0  0  0  0  0  0  0  0  0  0  0  0
  4  2  1  0
  3  1  1  0
  4  1  1  0
  5  3  2  0
  6  3  1  0
  4  7  1  0
  8  5  1  0
  9  6  2  0
 10  9  1  0
 10  8  2  0
 12 17  1  0
 13 11  2  0
 14 12  2  0
 15 12  1  0
 16 11  1  0
 17 20  1  0
 18 11  1  0
 19 18  1  0
 20 19  1  0
  1 21  1  0
  1 22  1  0
  2 23  1  0
  2 24  1  0
  4 25  1  6
  5 26  1  0
  6 27  1  0
  7 28  1  0
  7 29  1  0
  7 30  1  0
  8 31  1  0
  9 32  1  0
 10 33  1  0
 15 34  1  0
 16 35  1  0
 17 36  1  0
 17 37  1  0
 18 38  1  0
 18 39  1  0
 19 40  1  0
 19 41  1  0
 20 42  1  0
 20 43  1  0
M  END
> <Uni-Dock RESULT> 
ENERGY=   -5.210  LOWER_BOUND=    4.721  UPPER_BOUND=    6.218
INTER + INTRA:          -5.210
INTER:                  -5.210
INTRA:                   0.000
UNBOUND:                 0.000

$$$$

     RDKit          3D

 43 42  0  0  0  0  0  0  0  0999 V2000
   46.3989    6.9561   12.6107 C   0  0  0  0  0  0  0  0  0  0  0  0
   47.1762    9.0724   13.6040 N   0  0  0  0  0  0  0  0  0  0  0  0
   45.2247    6.1260   12.1450 C   0  0  0  0  0  0  0  0  0  0  0  0
   46.0234    8.4059   12.9816 C   0  0  1  0  0  0  0  0  0  0  0  0
   44.2696    5.6662   13.0624 C   0  0  0  0  0  0  0  0  0  0  0  0
   45.0706    5.8092   10.7886 C   0  0  0  0  0  0  0  0  0  0  0  0
   45.5929    9.2236   11.7633 C   0  0  0  0  0  0  0  0  0  0  0  0
   43.1812    4.9068   12.6305 C   0  0  0  0  0  0  0  0  0  0  0  0
   43.9813    5.0498   10.3585 C   0  0  0  0  0  0  0  0  0  0  0  0
   43.0370    4.5993   11.2789 C   0  0  0  0  0  0  0  0  0  0  0  0
   43.5086    4.7448   12.0124 C   0  0  0  0  0  0  0  0  0  0  0  0
   46.8607    9.1396   12.3074 C   0  0  0  0  0  0  0  0  0  0  0  0
   42.6243    5.4095   12.5238 O   0  0  0  0  0  0  0  0  0  0  0  0
   47.7451    8.4749   11.7960 O   0  0  0  0  0  0  0  0  0  0  0  0
   46.9244   10.4858   12.2988 O   0  0  0  0  0  0  0  0  0  0  0  0
   43.4449    3.3987   12.0211 O   0  0  0  0  0  0  0  0  0  0  0  0
   45.6308    8.6411   13.0187 C   0  0  0  0  0  0  0  0  0  0  0  0
   44.7385    5.2434   11.3011 C   0  0  0  0  0  0  0  0  0  0  0  0
   44.9469    6.7504   11.4561 C   0  0  0  0  0  0  0  0  0  0  0  0
   45.4224    7.1341   12.8638 C   0  0  0  0  0  0  0  0  0  0  0  0
   46.8372    6.4494   13.4818 H   0  0  0  0  0  0  0  0  0  0  0  0
   47.1847    6.9538   11.8434 H   0  0  0  0  0  0  0  0  0  0  0  0
   47.4256    8.5887   14.4660 H   0  0  0  0  0  0  0  0  0  0  0  0
   46.9155   10.0203   13.8745 H   0  0  0  0  0  0  0  0  0  0  0  0
   45.2022    8.4040   13.7083 H   0  0  0  0  0  0  0  0  0  0  0  0
   44.3701    5.8947   14.1210 H   0  0  0  0  0  0  0  0  0  0  0  0
   45.7979    6.1549   10.0573 H   0  0  0  0  0  0  0  0  0  0  0  0
   46.3738    9.2409   10.9947 H   0  0  0  0  0  0  0  0  0  0  0  0
   44.6832    8.8135   11.3129 H   0  0  0  0  0  0  0  0  0  0  0  0
   45.3731   10.2602   12.0436 H   0  0  0  0  0  0  0  0  0  0  0  0
   42.4464    4.5535   13.3489 H   0  0  0  0  0  0  0  0  0  0  0  0
   43.8702    4.8098    9.3044 H   0  0  0  0  0  0  0  0  0  0  0  0
   42.1898    4.0075   10.9431 H   0  0  0  0  0  0  0  0  0  0  0  0
   47.7610   10.6818   11.8272 H   0  0  0  0  0  0  0  0  0  0  0  0
   42.6084    3.2026   12.4927 H   0  0  0  0  0  0  0  0  0  0  0  0
   45.7539    8.8760   14.0820 H   0  0  0  0  0  0  0  0  0  0  0  0
   44.7561    9.1813   12.6405 H   0  0  0  0  0  0  0  0  0  0  0  0
   45.6133    4.7032   11.6794 H   0  0  0  0  0  0  0  0  0  0  0  0
   44.6154    5.0084   10.2379 H   0  0  0  0  0  0  0  0  0  0  0  0
   44.0193    7.2859   11.2199 H   0  0  0  0  0  0  0  0  0  0  0  0
   45.6940    7.0689   10.7201 H   0  0  0  0  0  0  0  0  0  0  0  0
   46.3500    6.5985   13.1000 H   0  0  0  0  0  0  0  0  0  0  0  0
   44.6753    6.8156   13.5999 H   0  0  0  0  0  0  0  0  0  0  0  0
  4  2  1  0
  3  1  1  0
  4  1  1  0
  5  3  2  0
  6  3  1  0
  4  7  1  0
  8  5  1  0
  9  6  2  0
 10  9  1  0
 10  8  2  0
 12 17  1  0
 13 11  2  0
 14 12  2  0
 15 12  1  0
 16 11  1  0
 17 20  1  0
 18 11  1  0
 19 18  1  0
 20 19  1  0
  1 21  1  0
  1 22  1  0
  2 23  1  0
  2 24  1  0
  4 25  1  6
  5 26  1  0
  6 27  1  0
  7 28  1  0
  7 29  1  0
  7 30  1  0
  8 31  1  0
  9 32  1  0
 10 33  1  0
 15 34  1  0
 16 35  1  0
 17 36  1  0
 17 37  1  0
 18 38  1  0
 18 39  1  0
 19 40  1  0
 19 41  1  0
 20 42  1  0
 20 43  1  0
M  END
> <Uni-Dock RESULT> 
ENERGY=   -5.210  LOWER_BOUND=    4.013  UPPER_BOUND=    6.019
INTER + INTRA:          -5.210
INTER:                  -5.210
INTRA:                   0.000
UNBOUND:                 0.000

$$$$

     RDKit          3D

 43 42  0  0  0  0  0  0  0  0999 V2000
   45.1415    5.4943   13.2826 C   0  0  0  0  0  0  0  0  0  0  0  0
   44.0890    3.3683   12.6182 N   0  0  0  0  0  0  0  0  0  0  0  0
   46.0463    6.6411   12.8939 C   0  0  0  0  0  0  0  0  0  0  0  0
   44.8023    4.5492   12.1113 C   0  0  1  0  0  0  0  0  0  0  0  0
   47.4090    6.4211   12.6493 C   0  0  0  0  0  0  0  0  0  0  0  0
   45.5347    7.9395   12.7666 C   0  0  0  0  0  0  0  0  0  0  0  0
   43.9274    5.2252   11.0549 C   0  0  0  0  0  0  0  0  0  0  0  0
   48.2421    7.4791   12.2824 C   0  0  0  0  0  0  0  0  0  0  0  0
   46.3694    8.9962   12.3993 C   0  0  0  0  0  0  0  0  0  0  0  0
   47.7222    8.7659   12.1569 C   0  0  0  0  0  0  0  0  0  0  0  0
   47.7736    7.9647   12.5272 C   0  0  0  0  0  0  0  0  0  0  0  0
   43.5036    4.4652   12.1289 C   0  0  0  0  0  0  0  0  0  0  0  0
   48.2525    7.4637   11.5248 O   0  0  0  0  0  0  0  0  0  0  0  0
   43.0247    4.9662   13.1313 O   0  0  0  0  0  0  0  0  0  0  0  0
   42.7323    3.7515   11.2850 O   0  0  0  0  0  0  0  0  0  0  0  0
   48.5450    8.6783   13.3710 O   0  0  0  0  0  0  0  0  0  0  0  0
   44.9384    4.5104   11.6745 C   0  0  0  0  0  0  0  0  0  0  0  0
   46.3388    7.9195   12.9816 C   0  0  0  0  0  0  0  0  0  0  0  0
   45.4852    6.9488   12.1645 C   0  0  0  0  0  0  0  0  0  0  0  0
   45.7920    5.4811   12.4916 C   0  0  0  0  0  0  0  0  0  0  0  0
   45.6446    4.9326   14.0821 H   0  0  0  0  0  0  0  0  0  0  0  0
   44.2187    5.8838   13.7333 H   0  0  0  0  0  0  0  0  0  0  0  0
   44.6907    2.8565   13.2624 H   0  0  0  0  0  0  0  0  0  0  0  0
   43.8926    2.7323   11.8457 H   0  0  0  0  0  0  0  0  0  0  0  0
   45.7259    4.2047   11.6308 H   0  0  0  0  0  0  0  0  0  0  0  0
   47.8305    5.4233   12.7465 H   0  0  0  0  0  0  0  0  0  0  0  0
   44.4806    8.1355   12.9505 H   0  0  0  0  0  0  0  0  0  0  0  0
   42.9963    5.6069   11.4888 H   0  0  0  0  0  0  0  0  0  0  0  0
   44.4511    6.0639   10.5851 H   0  0  0  0  0  0  0  0  0  0  0  0
   43.6636    4.5232   10.2555 H   0  0  0  0  0  0  0  0  0  0  0  0
   49.2976    7.2995   12.0958 H   0  0  0  0  0  0  0  0  0  0  0  0
   45.9632    9.9995   12.3026 H   0  0  0  0  0  0  0  0  0  0  0  0
   48.3713    9.5894   11.8717 H   0  0  0  0  0  0  0  0  0  0  0  0
   41.8407    3.7855   11.6905 H   0  0  0  0  0  0  0  0  0  0  0  0
   49.4366    8.6444   12.9655 H   0  0  0  0  0  0  0  0  0  0  0  0
   45.3453    3.4990   11.7848 H   0  0  0  0  0  0  0  0  0  0  0  0
   44.9687    4.7855   10.6145 H   0  0  0  0  0  0  0  0  0  0  0  0
   46.3085    7.6443   14.0415 H   0  0  0  0  0  0  0  0  0  0  0  0
   45.9319    8.9309   12.8712 H   0  0  0  0  0  0  0  0  0  0  0  0
   45.6320    7.1275   11.0923 H   0  0  0  0  0  0  0  0  0  0  0  0
   44.4310    7.1570   12.3800 H   0  0  0  0  0  0  0  0  0  0  0  0
   45.6453    5.3023   13.5637 H   0  0  0  0  0  0  0  0  0  0  0  0
   46.8463    5.2729   12.2760 H   0  0  0  0  0  0  0  0  0  0  0  0
  4  2  1  0
  3  1  1  0
  4  1  1  0
  5  3  2  0
  6  3  1  0
  4  7  1  0
  8  5  1  0
  9  6  2  0
 10  9  1  0
 10  8  2  0
 12 17  1  0
 13 11  2  0
 14 12  2  0
 15 12  1  0
 16 11  1  0
 17 20  1  0
 18 11  1  0
 19 18  1  0
 20 19  1  0
  1 21  1  0
  1 22  1  0
  2 23  1  0
  2 24  1  0
  4 25  1  6
  5 26  1  0
  6 27  1  0
  7 28  1  0
  7 29  1  0
  7 30  1  0
  8 31  1  0
  9 32  1  0
 10 33  1  0
 15 34  1  0
 16 35  1  0
 17 36  1  0
 17 37  1  0
 18 38  1  0
 18 39  1  0
 19 40  1  0
 19 41  1  0
 20 42  1  0
 20 43  1  0
M  END
> <Uni-Dock RESULT> 
ENERGY=   -4.886  LOWER_BOUND=    3.891  UPPER_BOUND=    5.748
INTER + INTRA:          -4.886
INTER:                  -4.886
INTRA:                   0.000
UNBOUND:                 0.000

$$$$

     RDKit          3D

 43 42  0  0  0  0  0  0  0  0999 V2000
   45.8321    7.5819   12.9430 C   0  0  0  0  0  0  0  0  0  0  0  0
   47.9928    8.7177   12.6108 N   0  0  0  0  0  0  0  0  0  0  0  0
   44.8844    6.4947   12.4904 C   0  0  0  0  0  0  0  0  0  0  0  0
   47.2150    7.5204   12.2619 C   0  0  1  0  0  0  0  0  0  0  0  0
   44.2865    6.5537   11.2238 C   0  0  0  0  0  0  0  0  0  0  0  0
   44.5947    5.4092   13.3280 C   0  0  0  0  0  0  0  0  0  0  0  0
   48.0143    6.2862   12.6818 C   0  0  0  0  0  0  0  0  0  0  0  0
   43.4180    5.5452   10.8034 C   0  0  0  0  0  0  0  0  0  0  0  0
   43.7261    4.4015   12.9056 C   0  0  0  0  0  0  0  0  0  0  0  0
   43.1386    4.4694   11.6439 C   0  0  0  0  0  0  0  0  0  0  0  0
   43.3154    5.3194   11.4770 C   0  0  0  0  0  0  0  0  0  0  0  0
   48.0633    7.5459   13.2486 C   0  0  0  0  0  0  0  0  0  0  0  0
   43.8547    5.0631   10.4146 O   0  0  0  0  0  0  0  0  0  0  0  0
   47.5240    7.8022   14.3111 O   0  0  0  0  0  0  0  0  0  0  0  0
   49.4072    7.5063   13.1553 O   0  0  0  0  0  0  0  0  0  0  0  0
   41.9716    5.3590   11.5703 O   0  0  0  0  0  0  0  0  0  0  0  0
   47.4010    7.2700   11.9249 C   0  0  0  0  0  0  0  0  0  0  0  0
   43.9777    5.5953   12.8008 C   0  0  0  0  0  0  0  0  0  0  0  0
   45.4931    5.7646   12.6853 C   0  0  0  0  0  0  0  0  0  0  0  0
   45.8856    7.1007   12.0404 C   0  0  0  0  0  0  0  0  0  0  0  0
   45.3533    8.5477   12.7296 H   0  0  0  0  0  0  0  0  0  0  0  0
   45.9467    7.5457   14.0348 H   0  0  0  0  0  0  0  0  0  0  0  0
   47.5149    9.5484   12.2632 H   0  0  0  0  0  0  0  0  0  0  0  0
   48.8944    8.6879   12.1354 H   0  0  0  0  0  0  0  0  0  0  0  0
   47.0934    7.5030   11.1722 H   0  0  0  0  0  0  0  0  0  0  0  0
   44.4917    7.3886   10.5578 H   0  0  0  0  0  0  0  0  0  0  0  0
   45.0466    5.3405   14.3151 H   0  0  0  0  0  0  0  0  0  0  0  0
   48.1479    6.2447   13.7686 H   0  0  0  0  0  0  0  0  0  0  0  0
   47.5143    5.3648   12.3664 H   0  0  0  0  0  0  0  0  0  0  0  0
   49.0084    6.2862   12.2200 H   0  0  0  0  0  0  0  0  0  0  0  0
   42.9581    5.5998    9.8203 H   0  0  0  0  0  0  0  0  0  0  0  0
   43.5081    3.5633   13.5621 H   0  0  0  0  0  0  0  0  0  0  0  0
   42.4619    3.6847   11.3163 H   0  0  0  0  0  0  0  0  0  0  0  0
   49.7153    7.7110   14.0630 H   0  0  0  0  0  0  0  0  0  0  0  0
   41.6634    5.1542   10.6627 H   0  0  0  0  0  0  0  0  0  0  0  0
   47.6151    8.1233   11.2714 H   0  0  0  0  0  0  0  0  0  0  0  0
   47.8459    6.3716   11.4834 H   0  0  0  0  0  0  0  0  0  0  0  0
   43.5328    6.4937   13.2422 H   0  0  0  0  0  0  0  0  0  0  0  0
   43.7636    4.7420   13.4542 H   0  0  0  0  0  0  0  0  0  0  0  0
   45.9228    4.9355   12.1099 H   0  0  0  0  0  0  0  0  0  0  0  0
   45.9206    5.7073   13.6928 H   0  0  0  0  0  0  0  0  0  0  0  0
   45.4559    7.9298   12.6157 H   0  0  0  0  0  0  0  0  0  0  0  0
   45.4581    7.1580   11.0327 H   0  0  0  0  0  0  0  0  0  0  0  0
  4  2  1  0
  3  1  1  0
  4  1  1  0
  5  3  2  0
  6  3  1  0
  4  7  1  0
  8  5  1  0
  9  6  2  0
 10  9  1  0
 10  8  2  0
 12 17  1  0
 13 11  2  0
 14 12  2  0
 15 12  1  0
 16 11  1  0
 17 20  1  0
 18 11  1  0
 19 18  1  0
 20 19  1  0
  1 21  1  0
  1 22  1  0
  2 23  1  0
  2 24  1  0
  4 25  1  6
  5 26  1  0
  6 27  1  0
  7 28  1  0
  7 29  1  0
  7 30  1  0
  8 31  1  0
  9 32  1  0
 10 33  1  0
 15 34  1  0
 16 35  1  0
 17 36  1  0
 17 37  1  0
 18 38  1  0
 18 39  1  0
 19 40  1  0
 19 41  1  0
 20 42  1  0
 20 43  1  0
M  END
> <Uni-Dock RESULT> 
ENERGY=   -4.835  LOWER_BOUND=    4.398  UPPER_BOUND=    5.875
INTER + INTRA:          -4.835
INTER:                  -4.835
INTRA:                   0.000
UNBOUND:                 0.000

$$$$

     RDKit          3D

 43 42  0  0  0  0  0  0  0  0999 V2000
   49.4180    4.8972   20.1648 C   0  0  0  0  0  0  0  0  0  0  0  0
   49.2855    5.2440   22.6003 N   0  0  0  0  0  0  0  0  0  0  0  0
   48.6978    4.5026   18.8958 C   0  0  0  0  0  0  0  0  0  0  0  0
   48.4841    5.0556   21.3827 C   0  0  1  0  0  0  0  0  0  0  0  0
   48.2200    3.1957   18.7258 C   0  0  0  0  0  0  0  0  0  0  0  0
   48.4922    5.4389   17.8737 C   0  0  0  0  0  0  0  0  0  0  0  0
   47.5386    6.2486   21.2376 C   0  0  0  0  0  0  0  0  0  0  0  0
   47.5478    2.8343   17.5572 C   0  0  0  0  0  0  0  0  0  0  0  0
   47.8195    5.0757   16.7059 C   0  0  0  0  0  0  0  0  0  0  0  0
   47.3473    3.7742   16.5481 C   0  0  0  0  0  0  0  0  0  0  0  0
   47.8097    3.4008   17.2025 C   0  0  0  0  0  0  0  0  0  0  0  0
   48.7723    6.2313   21.8608 C   0  0  0  0  0  0  0  0  0  0  0  0
   46.8133    2.9264   17.7197 O   0  0  0  0  0  0  0  0  0  0  0  0
   49.7687    6.7057   21.3435 O   0  0  0  0  0  0  0  0  0  0  0  0
   48.2093    6.8239   22.9323 O   0  0  0  0  0  0  0  0  0  0  0  0
   48.3726    2.8081   16.1310 O   0  0  0  0  0  0  0  0  0  0  0  0
   48.0390    4.9776   21.4638 C   0  0  0  0  0  0  0  0  0  0  0  0
   48.5430    4.6545   17.5995 C   0  0  0  0  0  0  0  0  0  0  0  0
   48.0589    5.2320   18.9301 C   0  0  0  0  0  0  0  0  0  0  0  0
   48.5231    4.4000   20.1331 C   0  0  0  0  0  0  0  0  0  0  0  0
   50.1724    4.1251   20.3706 H   0  0  0  0  0  0  0  0  0  0  0  0
   49.9838    5.8240   19.9996 H   0  0  0  0  0  0  0  0  0  0  0  0
   49.8627    4.4191   22.7600 H   0  0  0  0  0  0  0  0  0  0  0  0
   48.6661    5.3187   23.4068 H   0  0  0  0  0  0  0  0  0  0  0  0
   47.8829    4.1477   21.5119 H   0  0  0  0  0  0  0  0  0  0  0  0
   48.3717    2.4498   19.5026 H   0  0  0  0  0  0  0  0  0  0  0  0
   48.8530    6.4594   17.9823 H   0  0  0  0  0  0  0  0  0  0  0  0
   48.0909    7.1828   21.0855 H   0  0  0  0  0  0  0  0  0  0  0  0
   46.8596    6.1144   20.3894 H   0  0  0  0  0  0  0  0  0  0  0  0
   46.9158    6.3672   22.1317 H   0  0  0  0  0  0  0  0  0  0  0  0
   47.1818    1.8185   17.4334 H   0  0  0  0  0  0  0  0  0  0  0  0
   47.6644    5.8092   15.9191 H   0  0  0  0  0  0  0  0  0  0  0  0
   46.8244    3.4922   15.6381 H   0  0  0  0  0  0  0  0  0  0  0  0
   48.7756    7.6068   23.0967 H   0  0  0  0  0  0  0  0  0  0  0  0
   47.8064    2.0252   15.9666 H   0  0  0  0  0  0  0  0  0  0  0  0
   48.2083    4.2388   22.2552 H   0  0  0  0  0  0  0  0  0  0  0  0
   46.9662    5.1931   21.4107 H   0  0  0  0  0  0  0  0  0  0  0  0
   49.6158    4.4390   17.6526 H   0  0  0  0  0  0  0  0  0  0  0  0
   48.3737    5.3932   16.8081 H   0  0  0  0  0  0  0  0  0  0  0  0
   46.9647    5.3082   18.9328 H   0  0  0  0  0  0  0  0  0  0  0  0
   48.4487    6.2524   19.0211 H   0  0  0  0  0  0  0  0  0  0  0  0
   49.6172    4.3238   20.1305 H   0  0  0  0  0  0  0  0  0  0  0  0
   48.1333    3.3796   20.0422 H   0  0  0  0  0  0  0  0  0  0  0  0
  4  2  1  0
  3  1  1  0
  4  1  1  0
  5  3  2  0
  6  3  1  0
  4  7  1  0
  8  5  1  0
  9  6  2  0
 10  9  1  0
 10  8  2  0
 12 17  1  0
 13 11  2  0
 14 12  2  0
 15 12  1  0
 16 11  1  0
 17 20  1  0
 18 11  1  0
 19 18  1  0
 20 19  1  0
  1 21  1  0
  1 22  1  0
  2 23  1  0
  2 24  1  0
  4 25  1  6
  5 26  1  0
  6 27  1  0
  7 28  1  0
  7 29  1  0
  7 30  1  0
  8 31  1  0
  9 32  1  0
 10 33  1  0
 15 34  1  0
 16 35  1  0
 17 36  1  0
 17 37  1  0
 18 38  1  0
 18 39  1  0
 19 40  1  0
 19 41  1  0
 20 42  1  0
 20 43  1  0
M  END
> <Uni-Dock RESULT> 
ENERGY=   -4.749  LOWER_BOUND=    8.755  UPPER_BOUND=   11.081
INTER + INTRA:          -4.749
INTER:                  -4.749
INTRA:                   0.000
UNBOUND:                 0.000

$$$$
