
     RDKit          3D

 43 42  0  0  0  0  0  0  0  0999 V2000
   45.0798    3.2095    7.1592 C   0  0  0  0  0  0  0  0  0  0  0  0
   47.4821    3.9652    7.1086 N   0  0  0  0  0  0  0  0  0  0  0  0
   44.8362    3.4356    8.6345 C   0  0  0  0  0  0  0  0  0  0  0  0
   46.5392    2.8994    6.7490 C   0  0  1  0  0  0  0  0  0  0  0  0
   44.9199    4.7238    9.1818 C   0  0  0  0  0  0  0  0  0  0  0  0
   44.5210    2.3618    9.4783 C   0  0  0  0  0  0  0  0  0  0  0  0
   47.0478    1.5724    7.3108 C   0  0  0  0  0  0  0  0  0  0  0  0
   44.7020    4.9311   10.5448 C   0  0  0  0  0  0  0  0  0  0  0  0
   44.3036    2.5707   10.8411 C   0  0  0  0  0  0  0  0  0  0  0  0
   44.3953    3.8546   11.3742 C   0  0  0  0  0  0  0  0  0  0  0  0
   47.3875    2.6148    6.0354 C   0  0  0  0  0  0  0  0  0  0  0  0
   43.6583    3.9237   10.9845 C   0  0  0  0  0  0  0  0  0  0  0  0
   47.0970    3.5249    5.2788 O   0  0  0  0  0  0  0  0  0  0  0  0
   43.9488    3.0136   11.7412 O   0  0  0  0  0  0  0  0  0  0  0  0
   42.7455    4.8481   11.3424 O   0  0  0  0  0  0  0  0  0  0  0  0
   48.3003    1.6905    5.6776 O   0  0  0  0  0  0  0  0  0  0  0  0
   44.2103    4.1847    9.6092 C   0  0  0  0  0  0  0  0  0  0  0  0
   46.8356    2.3538    7.4107 C   0  0  0  0  0  0  0  0  0  0  0  0
   45.8014    3.4045    7.8113 C   0  0  0  0  0  0  0  0  0  0  0  0
   45.2444    3.1341    9.2086 C   0  0  0  0  0  0  0  0  0  0  0  0
   44.4285    2.3950    6.8147 H   0  0  0  0  0  0  0  0  0  0  0  0
   44.7364    4.0975    6.6107 H   0  0  0  0  0  0  0  0  0  0  0  0
   47.5216    4.0405    8.1269 H   0  0  0  0  0  0  0  0  0  0  0  0
   47.1246    4.8608    6.7804 H   0  0  0  0  0  0  0  0  0  0  0  0
   46.5526    2.8155    5.6552 H   0  0  0  0  0  0  0  0  0  0  0  0
   45.1531    5.5766    8.5486 H   0  0  0  0  0  0  0  0  0  0  0  0
   44.4440    1.3527    9.0795 H   0  0  0  0  0  0  0  0  0  0  0  0
   46.3640    0.7558    7.0559 H   0  0  0  0  0  0  0  0  0  0  0  0
   47.1562    1.5994    8.4003 H   0  0  0  0  0  0  0  0  0  0  0  0
   48.0287    1.3245    6.8891 H   0  0  0  0  0  0  0  0  0  0  0  0
   44.7695    5.9336   10.9593 H   0  0  0  0  0  0  0  0  0  0  0  0
   44.0620    1.7306   11.4870 H   0  0  0  0  0  0  0  0  0  0  0  0
   44.2252    4.0163   12.4353 H   0  0  0  0  0  0  0  0  0  0  0  0
   42.4666    4.5721   12.2407 H   0  0  0  0  0  0  0  0  0  0  0  0
   48.5791    1.9664    4.7793 H   0  0  0  0  0  0  0  0  0  0  0  0
   43.3766    4.1757    8.8985 H   0  0  0  0  0  0  0  0  0  0  0  0
   44.6707    5.1789    9.6082 H   0  0  0  0  0  0  0  0  0  0  0  0
   46.3751    1.3597    7.4117 H   0  0  0  0  0  0  0  0  0  0  0  0
   47.6692    2.3629    8.1215 H   0  0  0  0  0  0  0  0  0  0  0  0
   44.9818    3.4123    7.0818 H   0  0  0  0  0  0  0  0  0  0  0  0
   46.2581    4.4017    7.7818 H   0  0  0  0  0  0  0  0  0  0  0  0
   46.0641    3.1263    9.9382 H   0  0  0  0  0  0  0  0  0  0  0  0
   44.7878    2.1368    9.2381 H   0  0  0  0  0  0  0  0  0  0  0  0
  4  2  1  0
  3  1  1  0
  4  1  1  0
  5  3  2  0
  6  3  1  0
  4  7  1  0
  8  5  1  0
  9  6  2  0
 10  9  1  0
 10  8  2  0
 12 17  1  0
 13 11  2  0
 14 12  2  0
 15 12  1  0
 16 11  1  0
 17 20  1  0
 18 11  1  0
 19 18  1  0
 20 19  1  0
  1 21  1  0
  1 22  1  0
  2 23  1  0
  2 24  1  0
  4 25  1  6
  5 26  1  0
  6 27  1  0
  7 28  1  0
  7 29  1  0
  7 30  1  0
  8 31  1  0
  9 32  1  0
 10 33  1  0
 15 34  1  0
 16 35  1  0
 17 36  1  0
 17 37  1  0
 18 38  1  0
 18 39  1  0
 19 40  1  0
 19 41  1  0
 20 42  1  0
 20 43  1  0
M  END
> <Uni-Dock RESULT> 
ENERGY=   -8.213  LOWER_BOUND=    0.000  UPPER_BOUND=    0.000
INTER + INTRA:          -8.213
INTER:                  -8.213
INTRA:                   0.000
UNBOUND:                 0.000

$$$$
