
     RDKit          3D

 43 42  0  0  0  0  0  0  0  0999 V2000
   44.7069    3.6582    8.7351 C   0  0  0  0  0  0  0  0  0  0  0  0
   45.8873    5.4849    9.9586 N   0  0  0  0  0  0  0  0  0  0  0  0
   45.7744    3.0859    7.8299 C   0  0  0  0  0  0  0  0  0  0  0  0
   45.2495    4.1673   10.0887 C   0  0  1  0  0  0  0  0  0  0  0  0
   46.5875    3.9295    7.0620 C   0  0  0  0  0  0  0  0  0  0  0  0
   45.9740    1.7002    7.7543 C   0  0  0  0  0  0  0  0  0  0  0  0
   44.1166    4.2693   11.1120 C   0  0  0  0  0  0  0  0  0  0  0  0
   47.5746    3.3991    6.2297 C   0  0  0  0  0  0  0  0  0  0  0  0
   46.9610    1.1708    6.9205 C   0  0  0  0  0  0  0  0  0  0  0  0
   47.7601    2.0201    6.1577 C   0  0  0  0  0  0  0  0  0  0  0  0
   44.8773    3.7954   10.7056 C   0  0  0  0  0  0  0  0  0  0  0  0
   47.3945    1.9471    7.1154 C   0  0  0  0  0  0  0  0  0  0  0  0
   44.7624    2.5941   10.8739 O   0  0  0  0  0  0  0  0  0  0  0  0
   47.5463    2.2908    5.9560 O   0  0  0  0  0  0  0  0  0  0  0  0
   48.2459    1.0727    7.6867 O   0  0  0  0  0  0  0  0  0  0  0  0
   45.3808    4.5783   11.6799 O   0  0  0  0  0  0  0  0  0  0  0  0
   46.3254    2.3991    8.0744 C   0  0  0  0  0  0  0  0  0  0  0  0
   44.4939    4.5936    9.4877 C   0  0  0  0  0  0  0  0  0  0  0  0
   44.1336    3.7286    8.2783 C   0  0  0  0  0  0  0  0  0  0  0  0
   45.3283    3.3389    7.3996 C   0  0  0  0  0  0  0  0  0  0  0  0
   43.9538    2.8784    8.9119 H   0  0  0  0  0  0  0  0  0  0  0  0
   44.1711    4.4570    8.2045 H   0  0  0  0  0  0  0  0  0  0  0  0
   45.1946    6.1795    9.6831 H   0  0  0  0  0  0  0  0  0  0  0  0
   46.2435    5.7815   10.8664 H   0  0  0  0  0  0  0  0  0  0  0  0
   45.9968    3.4623   10.4729 H   0  0  0  0  0  0  0  0  0  0  0  0
   46.4613    5.0084    7.1189 H   0  0  0  0  0  0  0  0  0  0  0  0
   45.3617    1.0229    8.3445 H   0  0  0  0  0  0  0  0  0  0  0  0
   43.3339    4.9598   10.7780 H   0  0  0  0  0  0  0  0  0  0  0  0
   43.6544    3.2897   11.2753 H   0  0  0  0  0  0  0  0  0  0  0  0
   44.4900    4.6217   12.0800 H   0  0  0  0  0  0  0  0  0  0  0  0
   48.2013    4.0645    5.6423 H   0  0  0  0  0  0  0  0  0  0  0  0
   47.1073    0.0953    6.8680 H   0  0  0  0  0  0  0  0  0  0  0  0
   48.5298    1.6083    5.5109 H   0  0  0  0  0  0  0  0  0  0  0  0
   48.8811    0.8574    6.9722 H   0  0  0  0  0  0  0  0  0  0  0  0
   45.5746    3.9554   12.4118 H   0  0  0  0  0  0  0  0  0  0  0  0
   46.8219    2.9064    8.9073 H   0  0  0  0  0  0  0  0  0  0  0  0
   45.8046    1.5100    8.4456 H   0  0  0  0  0  0  0  0  0  0  0  0
   43.6160    5.1871    9.7692 H   0  0  0  0  0  0  0  0  0  0  0  0
   45.3089    5.2805    9.2353 H   0  0  0  0  0  0  0  0  0  0  0  0
   43.4471    4.3080    7.6475 H   0  0  0  0  0  0  0  0  0  0  0  0
   43.5874    2.8286    8.5839 H   0  0  0  0  0  0  0  0  0  0  0  0
   45.8462    4.2451    7.0606 H   0  0  0  0  0  0  0  0  0  0  0  0
   44.9387    2.8565    6.4936 H   0  0  0  0  0  0  0  0  0  0  0  0
  4  2  1  0
  3  1  1  0
  4  1  1  0
  5  3  2  0
  6  3  1  0
  4  7  1  0
  8  5  1  0
  9  6  2  0
 10  9  1  0
 10  8  2  0
 12 17  1  0
 13 11  2  0
 14 12  2  0
 15 12  1  0
 16 11  1  0
 17 20  1  0
 18 11  1  0
 19 18  1  0
 20 19  1  0
  1 21  1  0
  1 22  1  0
  2 23  1  0
  2 24  1  0
  4 25  1  1
  5 26  1  0
  6 27  1  0
  7 28  1  0
  7 29  1  0
  7 30  1  0
  8 31  1  0
  9 32  1  0
 10 33  1  0
 15 34  1  0
 16 35  1  0
 17 36  1  0
 17 37  1  0
 18 38  1  0
 18 39  1  0
 19 40  1  0
 19 41  1  0
 20 42  1  0
 20 43  1  0
M  END
> <Uni-Dock RESULT> 
ENERGY=   -6.575  LOWER_BOUND=    0.000  UPPER_BOUND=    0.000
INTER + INTRA:          -6.575
INTER:                  -6.575
INTRA:                   0.000
UNBOUND:                 0.000

$$$$

     RDKit          3D

 43 42  0  0  0  0  0  0  0  0999 V2000
   45.0575    3.5913    8.0880 C   0  0  0  0  0  0  0  0  0  0  0  0
   46.3928    1.4835    8.1272 N   0  0  0  0  0  0  0  0  0  0  0  0
   44.8047    3.8819    9.5502 C   0  0  0  0  0  0  0  0  0  0  0  0
   46.4217    2.9196    7.8163 C   0  0  1  0  0  0  0  0  0  0  0  0
   44.3558    2.8728   10.4119 C   0  0  0  0  0  0  0  0  0  0  0  0
   45.0272    5.1655   10.0685 C   0  0  0  0  0  0  0  0  0  0  0  0
   46.8194    3.0963    6.3494 C   0  0  0  0  0  0  0  0  0  0  0  0
   44.1263    3.1425   11.7621 C   0  0  0  0  0  0  0  0  0  0  0  0
   44.7963    5.4343   11.4190 C   0  0  0  0  0  0  0  0  0  0  0  0
   44.3449    4.4233   12.2651 C   0  0  0  0  0  0  0  0  0  0  0  0
   46.8606    3.3607    7.2964 C   0  0  0  0  0  0  0  0  0  0  0  0
   45.0455    4.5655   11.5268 C   0  0  0  0  0  0  0  0  0  0  0  0
   47.1351    4.5440    7.3908 O   0  0  0  0  0  0  0  0  0  0  0  0
   44.0329    4.2251   12.1134 O   0  0  0  0  0  0  0  0  0  0  0  0
   46.0525    5.1651   12.1919 O   0  0  0  0  0  0  0  0  0  0  0  0
   47.8311    2.4458    7.1041 O   0  0  0  0  0  0  0  0  0  0  0  0
   45.3629    4.3898   10.0655 C   0  0  0  0  0  0  0  0  0  0  0  0
   45.4956    2.7268    7.3480 C   0  0  0  0  0  0  0  0  0  0  0  0
   44.3912    3.6888    7.7900 C   0  0  0  0  0  0  0  0  0  0  0  0
   44.1909    3.7689    9.3082 C   0  0  0  0  0  0  0  0  0  0  0  0
   44.9989    4.5389    7.5355 H   0  0  0  0  0  0  0  0  0  0  0  0
   44.2358    2.9791    7.6922 H   0  0  0  0  0  0  0  0  0  0  0  0
   45.7440    1.0068    7.5027 H   0  0  0  0  0  0  0  0  0  0  0  0
   47.3108    1.0782    7.9484 H   0  0  0  0  0  0  0  0  0  0  0  0
   47.1923    3.3889    8.4399 H   0  0  0  0  0  0  0  0  0  0  0  0
   44.1935    1.8655   10.0344 H   0  0  0  0  0  0  0  0  0  0  0  0
   45.3821    5.9656    9.4235 H   0  0  0  0  0  0  0  0  0  0  0  0
   46.0799    2.6491    5.6756 H   0  0  0  0  0  0  0  0  0  0  0  0
   46.9052    4.1590    6.0979 H   0  0  0  0  0  0  0  0  0  0  0  0
   47.7902    2.6311    6.1452 H   0  0  0  0  0  0  0  0  0  0  0  0
   43.7820    2.3500   12.4208 H   0  0  0  0  0  0  0  0  0  0  0  0
   44.9707    6.4326   11.8110 H   0  0  0  0  0  0  0  0  0  0  0  0
   44.1677    4.6318   13.3165 H   0  0  0  0  0  0  0  0  0  0  0  0
   45.7277    5.2221   13.1147 H   0  0  0  0  0  0  0  0  0  0  0  0
   48.6562    2.9744    7.0739 H   0  0  0  0  0  0  0  0  0  0  0  0
   46.2451    3.7461    9.9943 H   0  0  0  0  0  0  0  0  0  0  0  0
   45.5943    5.3754    9.6477 H   0  0  0  0  0  0  0  0  0  0  0  0
   45.2749    2.3820    6.3309 H   0  0  0  0  0  0  0  0  0  0  0  0
   45.5279    1.8543    8.0094 H   0  0  0  0  0  0  0  0  0  0  0  0
   43.4466    3.3309    7.3604 H   0  0  0  0  0  0  0  0  0  0  0  0
   44.5549    4.6935    7.3830 H   0  0  0  0  0  0  0  0  0  0  0  0
   43.9843    2.7667    9.7049 H   0  0  0  0  0  0  0  0  0  0  0  0
   43.2869    4.3619    9.4992 H   0  0  0  0  0  0  0  0  0  0  0  0
  4  2  1  0
  3  1  1  0
  4  1  1  0
  5  3  2  0
  6  3  1  0
  4  7  1  0
  8  5  1  0
  9  6  2  0
 10  9  1  0
 10  8  2  0
 12 17  1  0
 13 11  2  0
 14 12  2  0
 15 12  1  0
 16 11  1  0
 17 20  1  0
 18 11  1  0
 19 18  1  0
 20 19  1  0
  1 21  1  0
  1 22  1  0
  2 23  1  0
  2 24  1  0
  4 25  1  1
  5 26  1  0
  6 27  1  0
  7 28  1  0
  7 29  1  0
  7 30  1  0
  8 31  1  0
  9 32  1  0
 10 33  1  0
 15 34  1  0
 16 35  1  0
 17 36  1  0
 17 37  1  0
 18 38  1  0
 18 39  1  0
 19 40  1  0
 19 41  1  0
 20 42  1  0
 20 43  1  0
M  END
> <Uni-Dock RESULT> 
ENERGY=   -6.396  LOWER_BOUND=    1.500  UPPER_BOUND=    4.796
INTER + INTRA:          -6.396
INTER:                  -6.396
INTRA:                   0.000
UNBOUND:                 0.000

$$$$

     RDKit          3D

 43 42  0  0  0  0  0  0  0  0999 V2000
   44.8281    5.3181   11.3805 C   0  0  0  0  0  0  0  0  0  0  0  0
   42.7527    5.1942   12.7605 N   0  0  0  0  0  0  0  0  0  0  0  0
   45.5255    6.5578   11.8937 C   0  0  0  0  0  0  0  0  0  0  0  0
   44.0426    4.5533   12.4686 C   0  0  1  0  0  0  0  0  0  0  0  0
   44.8185    7.7543   12.0693 C   0  0  0  0  0  0  0  0  0  0  0  0
   46.8904    6.5246   12.2129 C   0  0  0  0  0  0  0  0  0  0  0  0
   43.7853    3.1117   12.0254 C   0  0  0  0  0  0  0  0  0  0  0  0
   45.4637    8.8965   12.5463 C   0  0  0  0  0  0  0  0  0  0  0  0
   47.5348    7.6681   12.6890 C   0  0  0  0  0  0  0  0  0  0  0  0
   46.8218    8.8538   12.8545 C   0  0  0  0  0  0  0  0  0  0  0  0
   44.3002    3.7864   12.5234 C   0  0  0  0  0  0  0  0  0  0  0  0
   46.7193    7.8501   13.0500 C   0  0  0  0  0  0  0  0  0  0  0  0
   45.4485    3.4095   12.6774 O   0  0  0  0  0  0  0  0  0  0  0  0
   46.6044    8.9476   12.5326 O   0  0  0  0  0  0  0  0  0  0  0  0
   47.4310    7.6997   14.1843 O   0  0  0  0  0  0  0  0  0  0  0  0
   43.3224    3.3571   13.3451 O   0  0  0  0  0  0  0  0  0  0  0  0
   46.1292    6.5472   12.5797 C   0  0  0  0  0  0  0  0  0  0  0  0
   43.7720    4.7140   11.4612 C   0  0  0  0  0  0  0  0  0  0  0  0
   44.8708    5.4037   10.6503 C   0  0  0  0  0  0  0  0  0  0  0  0
   45.3793    6.7156   11.2598 C   0  0  0  0  0  0  0  0  0  0  0  0
   45.5864    4.6555   10.9418 H   0  0  0  0  0  0  0  0  0  0  0  0
   44.1702    5.5916   10.5444 H   0  0  0  0  0  0  0  0  0  0  0  0
   42.1529    5.1563   11.9377 H   0  0  0  0  0  0  0  0  0  0  0  0
   42.2700    4.6707   13.4898 H   0  0  0  0  0  0  0  0  0  0  0  0
   44.6291    4.5282   13.3951 H   0  0  0  0  0  0  0  0  0  0  0  0
   43.7550    7.7974   11.8444 H   0  0  0  0  0  0  0  0  0  0  0  0
   47.4616    5.6074   12.0926 H   0  0  0  0  0  0  0  0  0  0  0  0
   43.2044    3.0740   11.0969 H   0  0  0  0  0  0  0  0  0  0  0  0
   44.7308    2.5861   11.8529 H   0  0  0  0  0  0  0  0  0  0  0  0
   43.2355    2.5553   12.7928 H   0  0  0  0  0  0  0  0  0  0  0  0
   44.9029    9.8173   12.6818 H   0  0  0  0  0  0  0  0  0  0  0  0
   48.5932    7.6327   12.9326 H   0  0  0  0  0  0  0  0  0  0  0  0
   47.3226    9.7428   13.2275 H   0  0  0  0  0  0  0  0  0  0  0  0
   47.7578    8.6023   14.3818 H   0  0  0  0  0  0  0  0  0  0  0  0
   43.7815    2.7593   13.9721 H   0  0  0  0  0  0  0  0  0  0  0  0
   45.4495    6.1916   13.3602 H   0  0  0  0  0  0  0  0  0  0  0  0
   46.9475    5.8304   12.4527 H   0  0  0  0  0  0  0  0  0  0  0  0
   43.1690    4.0983   10.7833 H   0  0  0  0  0  0  0  0  0  0  0  0
   43.1172    5.4590   11.9259 H   0  0  0  0  0  0  0  0  0  0  0  0
   44.4534    5.6484    9.6650 H   0  0  0  0  0  0  0  0  0  0  0  0
   45.7137    4.7264   10.4694 H   0  0  0  0  0  0  0  0  0  0  0  0
   44.5381    7.4066   11.3987 H   0  0  0  0  0  0  0  0  0  0  0  0
   46.0448    7.1928   10.5285 H   0  0  0  0  0  0  0  0  0  0  0  0
  4  2  1  0
  3  1  1  0
  4  1  1  0
  5  3  2  0
  6  3  1  0
  4  7  1  0
  8  5  1  0
  9  6  2  0
 10  9  1  0
 10  8  2  0
 12 17  1  0
 13 11  2  0
 14 12  2  0
 15 12  1  0
 16 11  1  0
 17 20  1  0
 18 11  1  0
 19 18  1  0
 20 19  1  0
  1 21  1  0
  1 22  1  0
  2 23  1  0
  2 24  1  0
  4 25  1  1
  5 26  1  0
  6 27  1  0
  7 28  1  0
  7 29  1  0
  7 30  1  0
  8 31  1  0
  9 32  1  0
 10 33  1  0
 15 34  1  0
 16 35  1  0
 17 36  1  0
 17 37  1  0
 18 38  1  0
 18 39  1  0
 19 40  1  0
 19 41  1  0
 20 42  1  0
 20 43  1  0
M  END
> <Uni-Dock RESULT> 
ENERGY=   -5.311  LOWER_BOUND=    4.258  UPPER_BOUND=    6.062
INTER + INTRA:          -5.311
INTER:                  -5.311
INTRA:                   0.000
UNBOUND:                 0.000

$$$$

     RDKit          3D

 43 42  0  0  0  0  0  0  0  0999 V2000
   46.4148    7.0744   12.0398 C   0  0  0  0  0  0  0  0  0  0  0  0
   47.7011    6.9238   14.1729 N   0  0  0  0  0  0  0  0  0  0  0  0
   45.3777    5.9817   12.1696 C   0  0  0  0  0  0  0  0  0  0  0  0
   46.7767    7.7481   13.3819 C   0  0  1  0  0  0  0  0  0  0  0  0
   45.7427    4.6965   12.5906 C   0  0  0  0  0  0  0  0  0  0  0  0
   44.0307    6.2426   11.8807 C   0  0  0  0  0  0  0  0  0  0  0  0
   47.4241    9.1124   13.1352 C   0  0  0  0  0  0  0  0  0  0  0  0
   44.7830    3.6904   12.7129 C   0  0  0  0  0  0  0  0  0  0  0  0
   43.0718    5.2350   12.0023 C   0  0  0  0  0  0  0  0  0  0  0  0
   43.4483    3.9591   12.4172 C   0  0  0  0  0  0  0  0  0  0  0  0
   46.6463    8.5477   13.3463 C   0  0  0  0  0  0  0  0  0  0  0  0
   43.6172    4.9410   12.6692 C   0  0  0  0  0  0  0  0  0  0  0  0
   45.6173    9.1070   13.0106 O   0  0  0  0  0  0  0  0  0  0  0  0
   43.7634    3.8195   12.2151 O   0  0  0  0  0  0  0  0  0  0  0  0
   42.5262    5.2467   13.3988 O   0  0  0  0  0  0  0  0  0  0  0  0
   47.2389    8.8495   14.5183 O   0  0  0  0  0  0  0  0  0  0  0  0
   44.5505    6.1147   12.5347 C   0  0  0  0  0  0  0  0  0  0  0  0
   47.4189    7.5069   12.5797 C   0  0  0  0  0  0  0  0  0  0  0  0
   46.6722    6.9678   11.3581 C   0  0  0  0  0  0  0  0  0  0  0  0
   45.7512    5.7778   11.6529 C   0  0  0  0  0  0  0  0  0  0  0  0
   46.0302    7.8305   11.3420 H   0  0  0  0  0  0  0  0  0  0  0  0
   47.3118    6.6676   11.5535 H   0  0  0  0  0  0  0  0  0  0  0  0
   48.5904    6.8339   13.6837 H   0  0  0  0  0  0  0  0  0  0  0  0
   47.9064    7.3930   15.0541 H   0  0  0  0  0  0  0  0  0  0  0  0
   45.8654    7.9022   13.9724 H   0  0  0  0  0  0  0  0  0  0  0  0
   46.7794    4.4772   12.8367 H   0  0  0  0  0  0  0  0  0  0  0  0
   43.7187    7.2330   11.5584 H   0  0  0  0  0  0  0  0  0  0  0  0
   48.3412    9.0210   12.5423 H   0  0  0  0  0  0  0  0  0  0  0  0
   46.7379    9.7733   12.5947 H   0  0  0  0  0  0  0  0  0  0  0  0
   47.6783    9.6050   14.0804 H   0  0  0  0  0  0  0  0  0  0  0  0
   45.0786    2.6987   13.0443 H   0  0  0  0  0  0  0  0  0  0  0  0
   42.0305    5.4466   11.7751 H   0  0  0  0  0  0  0  0  0  0  0  0
   42.7017    3.1757   12.5144 H   0  0  0  0  0  0  0  0  0  0  0  0
   42.0071    4.4156   13.4104 H   0  0  0  0  0  0  0  0  0  0  0  0
   46.6596    9.5367   14.9098 H   0  0  0  0  0  0  0  0  0  0  0  0
   44.8831    6.3891   13.5406 H   0  0  0  0  0  0  0  0  0  0  0  0
   43.9891    6.9461   12.0953 H   0  0  0  0  0  0  0  0  0  0  0  0
   48.3419    7.9923   12.2413 H   0  0  0  0  0  0  0  0  0  0  0  0
   47.6871    6.6870   13.2546 H   0  0  0  0  0  0  0  0  0  0  0  0
   47.4225    6.6214   10.6356 H   0  0  0  0  0  0  0  0  0  0  0  0
   46.1053    7.7620   10.8583 H   0  0  0  0  0  0  0  0  0  0  0  0
   46.3322    4.9687   12.1136 H   0  0  0  0  0  0  0  0  0  0  0  0
   45.3912    5.3830   10.6937 H   0  0  0  0  0  0  0  0  0  0  0  0
  4  2  1  0
  3  1  1  0
  4  1  1  0
  5  3  2  0
  6  3  1  0
  4  7  1  0
  8  5  1  0
  9  6  2  0
 10  9  1  0
 10  8  2  0
 12 17  1  0
 13 11  2  0
 14 12  2  0
 15 12  1  0
 16 11  1  0
 17 20  1  0
 18 11  1  0
 19 18  1  0
 20 19  1  0
  1 21  1  0
  1 22  1  0
  2 23  1  0
  2 24  1  0
  4 25  1  1
  5 26  1  0
  6 27  1  0
  7 28  1  0
  7 29  1  0
  7 30  1  0
  8 31  1  0
  9 32  1  0
 10 33  1  0
 15 34  1  0
 16 35  1  0
 17 36  1  0
 17 37  1  0
 18 38  1  0
 18 39  1  0
 19 40  1  0
 19 41  1  0
 20 42  1  0
 20 43  1  0
M  END
> <Uni-Dock RESULT> 
ENERGY=   -5.156  LOWER_BOUND=    4.902  UPPER_BOUND=    6.323
INTER + INTRA:          -5.156
INTER:                  -5.156
INTRA:                   0.000
UNBOUND:                 0.000

$$$$

     RDKit          3D

 43 42  0  0  0  0  0  0  0  0999 V2000
   44.4285    4.6367   10.5068 C   0  0  0  0  0  0  0  0  0  0  0  0
   45.1803    2.3318    9.9155 N   0  0  0  0  0  0  0  0  0  0  0  0
   45.2580    4.9826   11.7229 C   0  0  0  0  0  0  0  0  0  0  0  0
   45.1651    3.7382    9.4890 C   0  0  1  0  0  0  0  0  0  0  0  0
   45.3858    4.0750   12.7823 C   0  0  0  0  0  0  0  0  0  0  0  0
   45.9221    6.2148   11.8029 C   0  0  0  0  0  0  0  0  0  0  0  0
   44.4946    3.8277    8.1167 C   0  0  0  0  0  0  0  0  0  0  0  0
   46.1548    4.3952   13.9023 C   0  0  0  0  0  0  0  0  0  0  0  0
   46.6902    6.5343   12.9243 C   0  0  0  0  0  0  0  0  0  0  0  0
   46.8054    5.6251   13.9740 C   0  0  0  0  0  0  0  0  0  0  0  0
   45.1911    4.0916    8.7597 C   0  0  0  0  0  0  0  0  0  0  0  0
   46.8409    5.6369   12.9470 C   0  0  0  0  0  0  0  0  0  0  0  0
   45.5972    5.2114    8.5034 O   0  0  0  0  0  0  0  0  0  0  0  0
   46.4514    5.4816   14.0914 O   0  0  0  0  0  0  0  0  0  0  0  0
   48.0960    6.0624   12.7034 O   0  0  0  0  0  0  0  0  0  0  0  0
   45.6635    3.0220    8.0902 O   0  0  0  0  0  0  0  0  0  0  0  0
   46.0731    5.3931   11.6750 C   0  0  0  0  0  0  0  0  0  0  0  0
   44.1499    3.7017    9.7754 C   0  0  0  0  0  0  0  0  0  0  0  0
   43.7524    4.8436   10.7127 C   0  0  0  0  0  0  0  0  0  0  0  0
   44.6326    4.9738   11.9615 C   0  0  0  0  0  0  0  0  0  0  0  0
   44.1288    5.5740   10.0188 H   0  0  0  0  0  0  0  0  0  0  0  0
   43.4880    4.1699   10.8298 H   0  0  0  0  0  0  0  0  0  0  0  0
   44.2294    1.9664    9.9382 H   0  0  0  0  0  0  0  0  0  0  0  0
   45.6843    1.7733    9.2278 H   0  0  0  0  0  0  0  0  0  0  0  0
   46.2038    4.0753    9.3864 H   0  0  0  0  0  0  0  0  0  0  0  0
   44.8932    3.1064   12.7329 H   0  0  0  0  0  0  0  0  0  0  0  0
   45.8456    6.9350   10.9921 H   0  0  0  0  0  0  0  0  0  0  0  0
   43.4478    3.5063    8.1588 H   0  0  0  0  0  0  0  0  0  0  0  0
   44.5162    4.8571    7.7427 H   0  0  0  0  0  0  0  0  0  0  0  0
   45.0131    3.2007    7.3827 H   0  0  0  0  0  0  0  0  0  0  0  0
   46.2490    3.6808   14.7155 H   0  0  0  0  0  0  0  0  0  0  0  0
   47.2003    7.4923   12.9776 H   0  0  0  0  0  0  0  0  0  0  0  0
   47.4052    5.8727   14.8454 H   0  0  0  0  0  0  0  0  0  0  0  0
   48.4834    6.1846   13.5952 H   0  0  0  0  0  0  0  0  0  0  0  0
   46.3110    3.4009    7.4591 H   0  0  0  0  0  0  0  0  0  0  0  0
   46.5944    4.6069   11.1201 H   0  0  0  0  0  0  0  0  0  0  0  0
   46.0807    6.3197   11.0912 H   0  0  0  0  0  0  0  0  0  0  0  0
   43.2653    3.3885    9.2084 H   0  0  0  0  0  0  0  0  0  0  0  0
   44.5122    2.8440   10.3523 H   0  0  0  0  0  0  0  0  0  0  0  0
   42.7296    4.6481   11.0602 H   0  0  0  0  0  0  0  0  0  0  0  0
   43.7199    5.8007   10.1792 H   0  0  0  0  0  0  0  0  0  0  0  0
   44.6271    4.0263   12.5153 H   0  0  0  0  0  0  0  0  0  0  0  0
   44.1696    5.7150   12.6260 H   0  0  0  0  0  0  0  0  0  0  0  0
  4  2  1  0
  3  1  1  0
  4  1  1  0
  5  3  2  0
  6  3  1  0
  4  7  1  0
  8  5  1  0
  9  6  2  0
 10  9  1  0
 10  8  2  0
 12 17  1  0
 13 11  2  0
 14 12  2  0
 15 12  1  0
 16 11  1  0
 17 20  1  0
 18 11  1  0
 19 18  1  0
 20 19  1  0
  1 21  1  0
  1 22  1  0
  2 23  1  0
  2 24  1  0
  4 25  1  1
  5 26  1  0
  6 27  1  0
  7 28  1  0
  7 29  1  0
  7 30  1  0
  8 31  1  0
  9 32  1  0
 10 33  1  0
 15 34  1  0
 16 35  1  0
 17 36  1  0
 17 37  1  0
 18 38  1  0
 18 39  1  0
 19 40  1  0
 19 41  1  0
 20 42  1  0
 20 43  1  0
M  END
> <Uni-Dock RESULT> 
ENERGY=   -4.941  LOWER_BOUND=    2.532  UPPER_BOUND=    5.379
INTER + INTRA:          -4.941
INTER:                  -4.941
INTRA:                   0.000
UNBOUND:                 0.000

$$$$

     RDKit          3D

 43 42  0  0  0  0  0  0  0  0999 V2000
   45.1038    5.7838   12.4771 C   0  0  0  0  0  0  0  0  0  0  0  0
   45.3934    4.8349   10.1873 N   0  0  0  0  0  0  0  0  0  0  0  0
   46.0211    6.9858   12.4849 C   0  0  0  0  0  0  0  0  0  0  0  0
   44.4584    5.5054   11.1017 C   0  0  1  0  0  0  0  0  0  0  0  0
   47.3355    6.8846   12.0112 C   0  0  0  0  0  0  0  0  0  0  0  0
   45.5649    8.2248   12.9567 C   0  0  0  0  0  0  0  0  0  0  0  0
   43.2162    4.6270   11.2645 C   0  0  0  0  0  0  0  0  0  0  0  0
   48.1794    7.9964   12.0162 C   0  0  0  0  0  0  0  0  0  0  0  0
   46.4104    9.3360   12.9622 C   0  0  0  0  0  0  0  0  0  0  0  0
   47.7175    9.2213   12.4932 C   0  0  0  0  0  0  0  0  0  0  0  0
   43.6495    5.5042   11.1588 C   0  0  0  0  0  0  0  0  0  0  0  0
   46.7667    8.9375   12.2255 C   0  0  0  0  0  0  0  0  0  0  0  0
   42.9483    6.3793   11.6351 O   0  0  0  0  0  0  0  0  0  0  0  0
   47.9089    8.9074   12.6495 O   0  0  0  0  0  0  0  0  0  0  0  0
   46.2786   10.0558   11.6537 O   0  0  0  0  0  0  0  0  0  0  0  0
   43.4112    5.0349    9.9184 O   0  0  0  0  0  0  0  0  0  0  0  0
   45.7536    7.8238   12.2370 C   0  0  0  0  0  0  0  0  0  0  0  0
   44.8160    4.8065   11.8071 C   0  0  0  0  0  0  0  0  0  0  0  0
   45.2665    5.4568   13.1166 C   0  0  0  0  0  0  0  0  0  0  0  0
   46.2934    6.5825   12.9445 C   0  0  0  0  0  0  0  0  0  0  0  0
   44.3164    5.9491   13.2249 H   0  0  0  0  0  0  0  0  0  0  0  0
   45.6558    4.9037   12.8340 H   0  0  0  0  0  0  0  0  0  0  0  0
   45.6312    3.9128   10.5497 H   0  0  0  0  0  0  0  0  0  0  0  0
   44.9380    4.6797    9.2887 H   0  0  0  0  0  0  0  0  0  0  0  0
   44.1511    6.4527   10.6421 H   0  0  0  0  0  0  0  0  0  0  0  0
   47.7043    5.9371   11.6244 H   0  0  0  0  0  0  0  0  0  0  0  0
   44.5473    8.3332   13.3237 H   0  0  0  0  0  0  0  0  0  0  0  0
   43.4624    3.6639   11.7258 H   0  0  0  0  0  0  0  0  0  0  0  0
   42.4725    5.1233   11.8972 H   0  0  0  0  0  0  0  0  0  0  0  0
   42.7437    4.4287   10.2959 H   0  0  0  0  0  0  0  0  0  0  0  0
   49.1956    7.9056   11.6423 H   0  0  0  0  0  0  0  0  0  0  0  0
   46.0479   10.2917   13.3309 H   0  0  0  0  0  0  0  0  0  0  0  0
   48.3745   10.0866   12.4950 H   0  0  0  0  0  0  0  0  0  0  0  0
   47.0198   10.6945   11.7088 H   0  0  0  0  0  0  0  0  0  0  0  0
   42.6334    5.5479    9.6134 H   0  0  0  0  0  0  0  0  0  0  0  0
   45.5069    7.5910   11.1965 H   0  0  0  0  0  0  0  0  0  0  0  0
   44.8579    8.1852   12.7534 H   0  0  0  0  0  0  0  0  0  0  0  0
   44.4866    3.7823   12.0185 H   0  0  0  0  0  0  0  0  0  0  0  0
   45.6493    4.7620   11.0976 H   0  0  0  0  0  0  0  0  0  0  0  0
   45.7425    4.6791   13.7278 H   0  0  0  0  0  0  0  0  0  0  0  0
   44.4083    5.8212   13.6934 H   0  0  0  0  0  0  0  0  0  0  0  0
   47.1694    6.2013   12.4045 H   0  0  0  0  0  0  0  0  0  0  0  0
   46.6534    6.8672   13.9419 H   0  0  0  0  0  0  0  0  0  0  0  0
  4  2  1  0
  3  1  1  0
  4  1  1  0
  5  3  2  0
  6  3  1  0
  4  7  1  0
  8  5  1  0
  9  6  2  0
 10  9  1  0
 10  8  2  0
 12 17  1  0
 13 11  2  0
 14 12  2  0
 15 12  1  0
 16 11  1  0
 17 20  1  0
 18 11  1  0
 19 18  1  0
 20 19  1  0
  1 21  1  0
  1 22  1  0
  2 23  1  0
  2 24  1  0
  4 25  1  1
  5 26  1  0
  6 27  1  0
  7 28  1  0
  7 29  1  0
  7 30  1  0
  8 31  1  0
  9 32  1  0
 10 33  1  0
 15 34  1  0
 16 35  1  0
 17 36  1  0
 17 37  1  0
 18 38  1  0
 18 39  1  0
 19 40  1  0
 19 41  1  0
 20 42  1  0
 20 43  1  0
M  END
> <Uni-Dock RESULT> 
ENERGY=   -4.424  LOWER_BOUND=    4.499  UPPER_BOUND=    6.449
INTER + INTRA:          -4.424
INTER:                  -4.424
INTRA:                   0.000
UNBOUND:                 0.000

$$$$

     RDKit          3D

 43 42  0  0  0  0  0  0  0  0999 V2000
   46.7617   11.3228   20.2993 C   0  0  0  0  0  0  0  0  0  0  0  0
   48.5478   12.2006   18.7938 N   0  0  0  0  0  0  0  0  0  0  0  0
   47.1197    9.8632   20.4659 C   0  0  0  0  0  0  0  0  0  0  0  0
   47.9890   12.2492   20.1522 C   0  0  1  0  0  0  0  0  0  0  0  0
   47.4434    9.0755   19.3537 C   0  0  0  0  0  0  0  0  0  0  0  0
   47.1439    9.2784   21.7400 C   0  0  0  0  0  0  0  0  0  0  0  0
   47.6062   13.6952   20.4740 C   0  0  0  0  0  0  0  0  0  0  0  0
   47.7768    7.7291   19.5103 C   0  0  0  0  0  0  0  0  0  0  0  0
   47.4765    7.9312   21.8952 C   0  0  0  0  0  0  0  0  0  0  0  0
   47.7917    7.1568   20.7805 C   0  0  0  0  0  0  0  0  0  0  0  0
   47.9862   12.8229   20.7251 C   0  0  0  0  0  0  0  0  0  0  0  0
   48.0018    8.0852   21.1679 C   0  0  0  0  0  0  0  0  0  0  0  0
   47.8938   12.6550   21.9284 O   0  0  0  0  0  0  0  0  0  0  0  0
   47.5231    7.1948   20.4871 O   0  0  0  0  0  0  0  0  0  0  0  0
   48.9602    7.8126   22.0750 O   0  0  0  0  0  0  0  0  0  0  0  0
   48.9945   13.5544   20.2113 O   0  0  0  0  0  0  0  0  0  0  0  0
   47.6630    9.5518   21.1315 C   0  0  0  0  0  0  0  0  0  0  0  0
   47.0616   12.3117   19.6521 C   0  0  0  0  0  0  0  0  0  0  0  0
   46.0392   11.2934   20.1602 C   0  0  0  0  0  0  0  0  0  0  0  0
   46.5312    9.8412   20.1475 C   0  0  0  0  0  0  0  0  0  0  0  0
   46.1713   11.6324   21.1723 H   0  0  0  0  0  0  0  0  0  0  0  0
   46.0838   11.4348   19.4423 H   0  0  0  0  0  0  0  0  0  0  0  0
   47.8698   12.5663   18.1269 H   0  0  0  0  0  0  0  0  0  0  0  0
   49.3611   12.8125   18.7385 H   0  0  0  0  0  0  0  0  0  0  0  0
   48.7710   11.9365   20.8548 H   0  0  0  0  0  0  0  0  0  0  0  0
   47.4478    9.5135   18.3579 H   0  0  0  0  0  0  0  0  0  0  0  0
   46.9036    9.8683   22.6210 H   0  0  0  0  0  0  0  0  0  0  0  0
   46.8208   14.0621   19.8034 H   0  0  0  0  0  0  0  0  0  0  0  0
   47.2369   13.7773   21.5020 H   0  0  0  0  0  0  0  0  0  0  0  0
   48.4707   14.3620   20.3813 H   0  0  0  0  0  0  0  0  0  0  0  0
   48.0298    7.1301   18.6398 H   0  0  0  0  0  0  0  0  0  0  0  0
   47.4915    7.4868   22.8867 H   0  0  0  0  0  0  0  0  0  0  0  0
   48.0531    6.1092   20.9015 H   0  0  0  0  0  0  0  0  0  0  0  0
   49.0867    6.8434   22.0039 H   0  0  0  0  0  0  0  0  0  0  0  0
   49.5090   13.8381   20.9961 H   0  0  0  0  0  0  0  0  0  0  0  0
   48.5683   10.0927   20.8391 H   0  0  0  0  0  0  0  0  0  0  0  0
   47.3645    9.8562   22.1403 H   0  0  0  0  0  0  0  0  0  0  0  0
   46.5245   13.1850   19.2634 H   0  0  0  0  0  0  0  0  0  0  0  0
   47.6559   11.8814   18.8388 H   0  0  0  0  0  0  0  0  0  0  0  0
   45.1646   11.3415   19.4986 H   0  0  0  0  0  0  0  0  0  0  0  0
   45.6830   11.5567   21.1631 H   0  0  0  0  0  0  0  0  0  0  0  0
   46.8461    9.5688   19.1321 H   0  0  0  0  0  0  0  0  0  0  0  0
   45.6773    9.1927   20.3834 H   0  0  0  0  0  0  0  0  0  0  0  0
  4  2  1  0
  3  1  1  0
  4  1  1  0
  5  3  2  0
  6  3  1  0
  4  7  1  0
  8  5  1  0
  9  6  2  0
 10  9  1  0
 10  8  2  0
 12 17  1  0
 13 11  2  0
 14 12  2  0
 15 12  1  0
 16 11  1  0
 17 20  1  0
 18 11  1  0
 19 18  1  0
 20 19  1  0
  1 21  1  0
  1 22  1  0
  2 23  1  0
  2 24  1  0
  4 25  1  1
  5 26  1  0
  6 27  1  0
  7 28  1  0
  7 29  1  0
  7 30  1  0
  8 31  1  0
  9 32  1  0
 10 33  1  0
 15 34  1  0
 16 35  1  0
 17 36  1  0
 17 37  1  0
 18 38  1  0
 18 39  1  0
 19 40  1  0
 19 41  1  0
 20 42  1  0
 20 43  1  0
M  END
> <Uni-Dock RESULT> 
ENERGY=   -4.333  LOWER_BOUND=   12.531  UPPER_BOUND=   14.407
INTER + INTRA:          -4.333
INTER:                  -4.333
INTRA:                   0.000
UNBOUND:                 0.000

$$$$

     RDKit          3D

 43 42  0  0  0  0  0  0  0  0999 V2000
   42.4539   10.6113   10.3076 C   0  0  0  0  0  0  0  0  0  0  0  0
   41.4347   12.4162   11.6971 N   0  0  0  0  0  0  0  0  0  0  0  0
   43.8107   10.3964   10.9394 C   0  0  0  0  0  0  0  0  0  0  0  0
   41.3530   10.9982   11.3197 C   0  0  1  0  0  0  0  0  0  0  0  0
   44.6340   11.4859   11.2517 C   0  0  0  0  0  0  0  0  0  0  0  0
   44.2609    9.1014   11.2330 C   0  0  0  0  0  0  0  0  0  0  0  0
   39.9678   10.7264   10.7294 C   0  0  0  0  0  0  0  0  0  0  0  0
   45.8848   11.2853   11.8380 C   0  0  0  0  0  0  0  0  0  0  0  0
   45.5127    8.9020   11.8185 C   0  0  0  0  0  0  0  0  0  0  0  0
   46.3246    9.9937   12.1197 C   0  0  0  0  0  0  0  0  0  0  0  0
   40.7366   10.4724   11.2887 C   0  0  0  0  0  0  0  0  0  0  0  0
   45.3419    9.7064   12.2089 C   0  0  0  0  0  0  0  0  0  0  0  0
   40.8039    9.2596   11.3848 O   0  0  0  0  0  0  0  0  0  0  0  0
   46.3598   10.2472   11.8129 O   0  0  0  0  0  0  0  0  0  0  0  0
   45.3637    8.9301   13.3101 O   0  0  0  0  0  0  0  0  0  0  0  0
   39.8982   11.1761   12.0745 O   0  0  0  0  0  0  0  0  0  0  0  0
   43.9628    9.7960   11.6114 C   0  0  0  0  0  0  0  0  0  0  0  0
   41.4939   11.3625   10.3392 C   0  0  0  0  0  0  0  0  0  0  0  0
   42.6168   10.6424    9.5901 C   0  0  0  0  0  0  0  0  0  0  0  0
   43.9608   10.6244   10.3281 C   0  0  0  0  0  0  0  0  0  0  0  0
   42.1669    9.6861    9.7897 H   0  0  0  0  0  0  0  0  0  0  0  0
   42.5381   11.3673    9.5152 H   0  0  0  0  0  0  0  0  0  0  0  0
   41.2521   13.0023   10.8839 H   0  0  0  0  0  0  0  0  0  0  0  0
   40.7031   12.6309   12.3736 H   0  0  0  0  0  0  0  0  0  0  0  0
   41.4629   10.3955   12.2294 H   0  0  0  0  0  0  0  0  0  0  0  0
   44.2970   12.5001   11.0485 H   0  0  0  0  0  0  0  0  0  0  0  0
   43.6394    8.2384   11.0074 H   0  0  0  0  0  0  0  0  0  0  0  0
   39.8023   11.3007    9.8109 H   0  0  0  0  0  0  0  0  0  0  0  0
   39.8525    9.6642   10.4881 H   0  0  0  0  0  0  0  0  0  0  0  0
   39.1773   10.9891   11.4413 H   0  0  0  0  0  0  0  0  0  0  0  0
   46.5121   12.1392   12.0790 H   0  0  0  0  0  0  0  0  0  0  0  0
   45.8531    7.8945   12.0413 H   0  0  0  0  0  0  0  0  0  0  0  0
   47.2975    9.8387   12.5778 H   0  0  0  0  0  0  0  0  0  0  0  0
   46.3003    8.9509   13.5976 H   0  0  0  0  0  0  0  0  0  0  0  0
   39.4598   10.4954   12.6274 H   0  0  0  0  0  0  0  0  0  0  0  0
   43.3078   10.2530   12.3596 H   0  0  0  0  0  0  0  0  0  0  0  0
   43.6193    8.7785   11.3967 H   0  0  0  0  0  0  0  0  0  0  0  0
   40.7635   11.7298    9.6086 H   0  0  0  0  0  0  0  0  0  0  0  0
   41.8931   12.2209   10.8902 H   0  0  0  0  0  0  0  0  0  0  0  0
   42.7783   11.1727    8.6427 H   0  0  0  0  0  0  0  0  0  0  0  0
   42.3239    9.6195    9.3258 H   0  0  0  0  0  0  0  0  0  0  0  0
   44.2708   11.6530   10.5522 H   0  0  0  0  0  0  0  0  0  0  0  0
   44.7181   10.2231    9.6420 H   0  0  0  0  0  0  0  0  0  0  0  0
  4  2  1  0
  3  1  1  0
  4  1  1  0
  5  3  2  0
  6  3  1  0
  4  7  1  0
  8  5  1  0
  9  6  2  0
 10  9  1  0
 10  8  2  0
 12 17  1  0
 13 11  2  0
 14 12  2  0
 15 12  1  0
 16 11  1  0
 17 20  1  0
 18 11  1  0
 19 18  1  0
 20 19  1  0
  1 21  1  0
  1 22  1  0
  2 23  1  0
  2 24  1  0
  4 25  1  1
  5 26  1  0
  6 27  1  0
  7 28  1  0
  7 29  1  0
  7 30  1  0
  8 31  1  0
  9 32  1  0
 10 33  1  0
 15 34  1  0
 16 35  1  0
 17 36  1  0
 17 37  1  0
 18 38  1  0
 18 39  1  0
 19 40  1  0
 19 41  1  0
 20 42  1  0
 20 43  1  0
M  END
> <Uni-Dock RESULT> 
ENERGY=   -4.296  LOWER_BOUND=    7.404  UPPER_BOUND=    8.599
INTER + INTRA:          -4.296
INTER:                  -4.296
INTRA:                   0.000
UNBOUND:                 0.000

$$$$

     RDKit          3D

 43 42  0  0  0  0  0  0  0  0999 V2000
   48.3326    7.4002   13.3817 C   0  0  0  0  0  0  0  0  0  0  0  0
   48.5148    7.6503   15.8579 N   0  0  0  0  0  0  0  0  0  0  0  0
   47.2522    6.3570   13.2060 C   0  0  0  0  0  0  0  0  0  0  0  0
   48.1182    8.3143   14.6082 C   0  0  1  0  0  0  0  0  0  0  0  0
   47.2736    5.1731   13.9545 C   0  0  0  0  0  0  0  0  0  0  0  0
   46.2046    6.5650   12.2976 C   0  0  0  0  0  0  0  0  0  0  0  0
   48.9281    9.6038   14.4592 C   0  0  0  0  0  0  0  0  0  0  0  0
   46.2733    4.2131   13.7931 C   0  0  0  0  0  0  0  0  0  0  0  0
   45.2051    5.6034   12.1362 C   0  0  0  0  0  0  0  0  0  0  0  0
   45.2403    4.4275   12.8830 C   0  0  0  0  0  0  0  0  0  0  0  0
   48.0902    9.0932   14.3847 C   0  0  0  0  0  0  0  0  0  0  0  0
   45.3673    5.4385   13.0166 C   0  0  0  0  0  0  0  0  0  0  0  0
   47.3737    9.5838   13.5300 O   0  0  0  0  0  0  0  0  0  0  0  0
   45.5985    4.2505   12.8726 O   0  0  0  0  0  0  0  0  0  0  0  0
   44.0983    5.8823   13.1083 O   0  0  0  0  0  0  0  0  0  0  0  0
   48.1234    9.6088   15.6291 O   0  0  0  0  0  0  0  0  0  0  0  0
   46.3648    6.5609   13.1275 C   0  0  0  0  0  0  0  0  0  0  0  0
   49.0257    7.9223   14.2384 C   0  0  0  0  0  0  0  0  0  0  0  0
   48.8559    7.1650   12.9199 C   0  0  0  0  0  0  0  0  0  0  0  0
   47.7966    6.0570   12.9576 C   0  0  0  0  0  0  0  0  0  0  0  0
   48.3692    8.0122   12.4703 H   0  0  0  0  0  0  0  0  0  0  0  0
   49.3114    6.9041   13.4316 H   0  0  0  0  0  0  0  0  0  0  0  0
   49.5167    7.4649   15.8490 H   0  0  0  0  0  0  0  0  0  0  0  0
   48.3476    8.2771   16.6441 H   0  0  0  0  0  0  0  0  0  0  0  0
   47.0574    8.5820   14.6852 H   0  0  0  0  0  0  0  0  0  0  0  0
   48.0676    4.9994   14.6776 H   0  0  0  0  0  0  0  0  0  0  0  0
   46.1597    7.4778   11.7088 H   0  0  0  0  0  0  0  0  0  0  0  0
   50.0008    9.3973   14.3724 H   0  0  0  0  0  0  0  0  0  0  0  0
   48.6174   10.1537   13.5643 H   0  0  0  0  0  0  0  0  0  0  0  0
   48.7781   10.2654   15.3198 H   0  0  0  0  0  0  0  0  0  0  0  0
   46.2993    3.3008   14.3827 H   0  0  0  0  0  0  0  0  0  0  0  0
   44.3979    5.7733   11.4289 H   0  0  0  0  0  0  0  0  0  0  0  0
   44.4612    3.6804   12.7593 H   0  0  0  0  0  0  0  0  0  0  0  0
   43.5555    5.0710   13.0211 H   0  0  0  0  0  0  0  0  0  0  0  0
   47.4951   10.3606   15.5940 H   0  0  0  0  0  0  0  0  0  0  0  0
   46.2378    7.0193   14.1131 H   0  0  0  0  0  0  0  0  0  0  0  0
   46.1355    7.2966   12.3493 H   0  0  0  0  0  0  0  0  0  0  0  0
   50.0425    8.3302   14.2808 H   0  0  0  0  0  0  0  0  0  0  0  0
   48.8899    7.2438   15.0875 H   0  0  0  0  0  0  0  0  0  0  0  0
   49.8147    6.6843   12.6864 H   0  0  0  0  0  0  0  0  0  0  0  0
   48.6453    7.8528   12.0926 H   0  0  0  0  0  0  0  0  0  0  0  0
   48.0358    5.3471   13.7596 H   0  0  0  0  0  0  0  0  0  0  0  0
   47.8674    5.4894   12.0205 H   0  0  0  0  0  0  0  0  0  0  0  0
  4  2  1  0
  3  1  1  0
  4  1  1  0
  5  3  2  0
  6  3  1  0
  4  7  1  0
  8  5  1  0
  9  6  2  0
 10  9  1  0
 10  8  2  0
 12 17  1  0
 13 11  2  0
 14 12  2  0
 15 12  1  0
 16 11  1  0
 17 20  1  0
 18 11  1  0
 19 18  1  0
 20 19  1  0
  1 21  1  0
  1 22  1  0
  2 23  1  0
  2 24  1  0
  4 25  1  1
  5 26  1  0
  6 27  1  0
  7 28  1  0
  7 29  1  0
  7 30  1  0
  8 31  1  0
  9 32  1  0
 10 33  1  0
 15 34  1  0
 16 35  1  0
 17 36  1  0
 17 37  1  0
 18 38  1  0
 18 39  1  0
 19 40  1  0
 19 41  1  0
 20 42  1  0
 20 43  1  0
M  END
> <Uni-Dock RESULT> 
ENERGY=   -4.146  LOWER_BOUND=    5.257  UPPER_BOUND=    7.221
INTER + INTRA:          -4.146
INTER:                  -4.146
INTRA:                   0.000
UNBOUND:                 0.000

$$$$
