
     RDKit          3D

 43 42  0  0  0  0  0  0  0  0999 V2000
   45.7488    3.3236    7.0820 C   0  0  0  0  0  0  0  0  0  0  0  0
   46.6486    1.0032    7.2667 N   0  0  0  0  0  0  0  0  0  0  0  0
   45.3113    3.6510    8.4918 C   0  0  0  0  0  0  0  0  0  0  0  0
   46.9925    2.4098    7.0151 C   0  0  1  0  0  0  0  0  0  0  0  0
   44.5463    2.7404    9.2321 C   0  0  0  0  0  0  0  0  0  0  0  0
   45.6754    4.8685    9.0842 C   0  0  0  0  0  0  0  0  0  0  0  0
   47.6567    2.5144    5.6408 C   0  0  0  0  0  0  0  0  0  0  0  0
   44.1465    3.0434   10.5346 C   0  0  0  0  0  0  0  0  0  0  0  0
   45.2739    5.1710   10.3867 C   0  0  0  0  0  0  0  0  0  0  0  0
   44.5088    4.2592   11.1112 C   0  0  0  0  0  0  0  0  0  0  0  0
   47.8410    2.4178    6.0282 C   0  0  0  0  0  0  0  0  0  0  0  0
   44.4508    4.4484    9.8789 C   0  0  0  0  0  0  0  0  0  0  0  0
   48.9716    2.8280    5.8271 O   0  0  0  0  0  0  0  0  0  0  0  0
   45.5179    5.0078   10.0609 O   0  0  0  0  0  0  0  0  0  0  0  0
   43.2915    5.1187   10.0296 O   0  0  0  0  0  0  0  0  0  0  0  0
   46.9668    2.2949    5.0121 O   0  0  0  0  0  0  0  0  0  0  0  0
   44.2210    3.0076    9.5068 C   0  0  0  0  0  0  0  0  0  0  0  0
   47.2860    1.9565    7.3462 C   0  0  0  0  0  0  0  0  0  0  0  0
   46.0192    2.7175    7.7292 C   0  0  0  0  0  0  0  0  0  0  0  0
   45.5066    2.2840    9.1058 C   0  0  0  0  0  0  0  0  0  0  0  0
   44.9072    2.8770    6.5352 H   0  0  0  0  0  0  0  0  0  0  0  0
   45.9590    4.2674    6.5607 H   0  0  0  0  0  0  0  0  0  0  0  0
   46.0375    0.6584    6.5278 H   0  0  0  0  0  0  0  0  0  0  0  0
   47.4932    0.4343    7.2274 H   0  0  0  0  0  0  0  0  0  0  0  0
   47.7199    2.7245    7.7731 H   0  0  0  0  0  0  0  0  0  0  0  0
   44.2678    1.7826    8.7981 H   0  0  0  0  0  0  0  0  0  0  0  0
   46.2745    5.5906    8.5346 H   0  0  0  0  0  0  0  0  0  0  0  0
   47.9773    3.5432    5.4440 H   0  0  0  0  0  0  0  0  0  0  0  0
   48.5459    1.8766    5.5830 H   0  0  0  0  0  0  0  0  0  0  0  0
   46.9718    2.2155    4.8393 H   0  0  0  0  0  0  0  0  0  0  0  0
   43.5567    2.3269   11.0997 H   0  0  0  0  0  0  0  0  0  0  0  0
   45.5601    6.1177   10.8368 H   0  0  0  0  0  0  0  0  0  0  0  0
   44.1985    4.4933   12.1257 H   0  0  0  0  0  0  0  0  0  0  0  0
   43.5713    6.0243   10.2796 H   0  0  0  0  0  0  0  0  0  0  0  0
   47.4701    2.6075    4.2308 H   0  0  0  0  0  0  0  0  0  0  0  0
   43.7905    2.5108   10.3836 H   0  0  0  0  0  0  0  0  0  0  0  0
   43.4947    2.9622    8.6880 H   0  0  0  0  0  0  0  0  0  0  0  0
   47.1008    0.8786    7.2845 H   0  0  0  0  0  0  0  0  0  0  0  0
   48.0593    2.1132    8.1074 H   0  0  0  0  0  0  0  0  0  0  0  0
   45.2385    2.5431    6.9787 H   0  0  0  0  0  0  0  0  0  0  0  0
   46.2255    3.7943    7.7196 H   0  0  0  0  0  0  0  0  0  0  0  0
   45.3050    1.2058    9.0843 H   0  0  0  0  0  0  0  0  0  0  0  0
   46.2846    2.4486    9.8611 H   0  0  0  0  0  0  0  0  0  0  0  0
  4  2  1  0
  3  1  1  0
  4  1  1  0
  5  3  2  0
  6  3  1  0
  4  7  1  0
  8  5  1  0
  9  6  2  0
 10  9  1  0
 10  8  2  0
 12 17  1  0
 13 11  2  0
 14 12  2  0
 15 12  1  0
 16 11  1  0
 17 20  1  0
 18 11  1  0
 19 18  1  0
 20 19  1  0
  1 21  1  0
  1 22  1  0
  2 23  1  0
  2 24  1  0
  4 25  1  6
  5 26  1  0
  6 27  1  0
  7 28  1  0
  7 29  1  0
  7 30  1  0
  8 31  1  0
  9 32  1  0
 10 33  1  0
 15 34  1  0
 16 35  1  0
 17 36  1  0
 17 37  1  0
 18 38  1  0
 18 39  1  0
 19 40  1  0
 19 41  1  0
 20 42  1  0
 20 43  1  0
M  END
> <Uni-Dock RESULT> 
ENERGY=   -8.149  LOWER_BOUND=    0.000  UPPER_BOUND=    0.000
INTER + INTRA:          -8.149
INTER:                  -8.149
INTRA:                   0.000
UNBOUND:                 0.000

$$$$

     RDKit          3D

 43 42  0  0  0  0  0  0  0  0999 V2000
   45.6271    4.9877    9.1795 C   0  0  0  0  0  0  0  0  0  0  0  0
   44.1615    3.5887    7.7227 N   0  0  0  0  0  0  0  0  0  0  0  0
   44.9214    4.9730   10.5166 C   0  0  0  0  0  0  0  0  0  0  0  0
   45.4722    3.6739    8.3820 C   0  0  1  0  0  0  0  0  0  0  0  0
   43.5438    5.2133   10.6000 C   0  0  0  0  0  0  0  0  0  0  0  0
   45.6348    4.7067   11.6939 C   0  0  0  0  0  0  0  0  0  0  0  0
   46.5653    3.5654    7.3171 C   0  0  0  0  0  0  0  0  0  0  0  0
   42.8938    5.1958   11.8351 C   0  0  0  0  0  0  0  0  0  0  0  0
   44.9838    4.6905   12.9288 C   0  0  0  0  0  0  0  0  0  0  0  0
   43.6139    4.9362   12.9994 C   0  0  0  0  0  0  0  0  0  0  0  0
   46.3519    3.2422    7.5254 C   0  0  0  0  0  0  0  0  0  0  0  0
   44.4109    5.4561   12.1919 C   0  0  0  0  0  0  0  0  0  0  0  0
   47.2045    2.3714    7.4843 O   0  0  0  0  0  0  0  0  0  0  0  0
   45.1377    4.5442   12.5452 O   0  0  0  0  0  0  0  0  0  0  0  0
   44.3725    6.6101   12.8867 O   0  0  0  0  0  0  0  0  0  0  0  0
   46.4823    4.3628    6.7911 O   0  0  0  0  0  0  0  0  0  0  0  0
   43.4632    5.4745   11.0219 C   0  0  0  0  0  0  0  0  0  0  0  0
   45.0688    3.1914    8.3060 C   0  0  0  0  0  0  0  0  0  0  0  0
   44.9276    4.3834    9.2492 C   0  0  0  0  0  0  0  0  0  0  0  0
   43.6493    4.2799   10.0863 C   0  0  0  0  0  0  0  0  0  0  0  0
   45.2724    5.8449    8.5912 H   0  0  0  0  0  0  0  0  0  0  0  0
   46.6930    5.1852    9.3571 H   0  0  0  0  0  0  0  0  0  0  0  0
   44.0773    4.3244    7.0227 H   0  0  0  0  0  0  0  0  0  0  0  0
   44.0911    2.7058    7.2186 H   0  0  0  0  0  0  0  0  0  0  0  0
   45.5688    2.8187    9.0619 H   0  0  0  0  0  0  0  0  0  0  0  0
   42.9679    5.4047    9.6972 H   0  0  0  0  0  0  0  0  0  0  0  0
   46.7035    4.5100   11.6572 H   0  0  0  0  0  0  0  0  0  0  0  0
   47.5578    3.5690    7.7806 H   0  0  0  0  0  0  0  0  0  0  0  0
   46.4715    2.6329    6.7492 H   0  0  0  0  0  0  0  0  0  0  0  0
   46.5209    4.4003    6.6087 H   0  0  0  0  0  0  0  0  0  0  0  0
   41.8242    5.3799   11.8859 H   0  0  0  0  0  0  0  0  0  0  0  0
   45.5455    4.4843   13.8358 H   0  0  0  0  0  0  0  0  0  0  0  0
   43.1068    4.9211   13.9601 H   0  0  0  0  0  0  0  0  0  0  0  0
   45.0119    6.4696   13.6164 H   0  0  0  0  0  0  0  0  0  0  0  0
   47.3393    4.2427    6.3303 H   0  0  0  0  0  0  0  0  0  0  0  0
   42.4457    5.4544   11.4283 H   0  0  0  0  0  0  0  0  0  0  0  0
   43.5994    6.4093   10.4672 H   0  0  0  0  0  0  0  0  0  0  0  0
   44.2352    3.1425    7.5969 H   0  0  0  0  0  0  0  0  0  0  0  0
   45.0648    2.2583    8.8815 H   0  0  0  0  0  0  0  0  0  0  0  0
   44.9098    5.3157    8.6715 H   0  0  0  0  0  0  0  0  0  0  0  0
   45.8080    4.4374    9.9005 H   0  0  0  0  0  0  0  0  0  0  0  0
   42.7869    4.2320    9.4098 H   0  0  0  0  0  0  0  0  0  0  0  0
   43.6562    3.3462   10.6618 H   0  0  0  0  0  0  0  0  0  0  0  0
  4  2  1  0
  3  1  1  0
  4  1  1  0
  5  3  2  0
  6  3  1  0
  4  7  1  0
  8  5  1  0
  9  6  2  0
 10  9  1  0
 10  8  2  0
 12 17  1  0
 13 11  2  0
 14 12  2  0
 15 12  1  0
 16 11  1  0
 17 20  1  0
 18 11  1  0
 19 18  1  0
 20 19  1  0
  1 21  1  0
  1 22  1  0
  2 23  1  0
  2 24  1  0
  4 25  1  6
  5 26  1  0
  6 27  1  0
  7 28  1  0
  7 29  1  0
  7 30  1  0
  8 31  1  0
  9 32  1  0
 10 33  1  0
 15 34  1  0
 16 35  1  0
 17 36  1  0
 17 37  1  0
 18 38  1  0
 18 39  1  0
 19 40  1  0
 19 41  1  0
 20 42  1  0
 20 43  1  0
M  END
> <Uni-Dock RESULT> 
ENERGY=   -6.822  LOWER_BOUND=    1.864  UPPER_BOUND=    2.709
INTER + INTRA:          -6.822
INTER:                  -6.822
INTRA:                   0.000
UNBOUND:                 0.000

$$$$

     RDKit          3D

 43 42  0  0  0  0  0  0  0  0999 V2000
   44.5519    4.0408    8.6737 C   0  0  0  0  0  0  0  0  0  0  0  0
   45.3543    1.6779    8.6527 N   0  0  0  0  0  0  0  0  0  0  0  0
   44.3135    4.3247   10.1396 C   0  0  0  0  0  0  0  0  0  0  0  0
   45.7312    3.0780    8.4124 C   0  0  1  0  0  0  0  0  0  0  0  0
   43.6056    3.4164   10.9373 C   0  0  0  0  0  0  0  0  0  0  0  0
   44.8085    5.4982   10.7259 C   0  0  0  0  0  0  0  0  0  0  0  0
   46.2197    3.2139    6.9689 C   0  0  0  0  0  0  0  0  0  0  0  0
   43.3897    3.6790   12.2911 C   0  0  0  0  0  0  0  0  0  0  0  0
   44.5909    5.7603   12.0798 C   0  0  0  0  0  0  0  0  0  0  0  0
   43.8808    4.8515   12.8618 C   0  0  0  0  0  0  0  0  0  0  0  0
   46.4469    3.0926    7.3254 C   0  0  0  0  0  0  0  0  0  0  0  0
   43.6760    5.0970   11.6554 C   0  0  0  0  0  0  0  0  0  0  0  0
   47.5613    3.4620    6.9958 O   0  0  0  0  0  0  0  0  0  0  0  0
   44.7833    5.6012   11.7193 O   0  0  0  0  0  0  0  0  0  0  0  0
   42.5790    5.8094   11.9797 O   0  0  0  0  0  0  0  0  0  0  0  0
   45.4458    3.0523    6.4265 O   0  0  0  0  0  0  0  0  0  0  0  0
   43.3312    3.6851   11.2616 C   0  0  0  0  0  0  0  0  0  0  0  0
   46.0421    2.5984    8.6855 C   0  0  0  0  0  0  0  0  0  0  0  0
   44.8727    3.3958    9.2572 C   0  0  0  0  0  0  0  0  0  0  0  0
   44.5187    2.9249   10.6710 C   0  0  0  0  0  0  0  0  0  0  0  0
   43.6270    3.6554    8.2235 H   0  0  0  0  0  0  0  0  0  0  0  0
   44.7397    4.9966    8.1659 H   0  0  0  0  0  0  0  0  0  0  0  0
   44.6384    1.3925    7.9862 H   0  0  0  0  0  0  0  0  0  0  0  0
   46.1586    1.0753    8.4832 H   0  0  0  0  0  0  0  0  0  0  0  0
   46.5635    3.3274    9.0817 H   0  0  0  0  0  0  0  0  0  0  0  0
   43.2280    2.4915   10.5068 H   0  0  0  0  0  0  0  0  0  0  0  0
   45.3672    6.2171   10.1315 H   0  0  0  0  0  0  0  0  0  0  0  0
   46.5622    4.2355    6.7716 H   0  0  0  0  0  0  0  0  0  0  0  0
   47.0624    2.5415    6.7727 H   0  0  0  0  0  0  0  0  0  0  0  0
   45.4248    2.9804    6.2516 H   0  0  0  0  0  0  0  0  0  0  0  0
   42.8424    2.9645   12.8998 H   0  0  0  0  0  0  0  0  0  0  0  0
   44.9775    6.6731   12.5248 H   0  0  0  0  0  0  0  0  0  0  0  0
   43.7137    5.0541   13.9160 H   0  0  0  0  0  0  0  0  0  0  0  0
   42.9319    6.6903   12.2257 H   0  0  0  0  0  0  0  0  0  0  0  0
   45.8602    3.3767    5.5993 H   0  0  0  0  0  0  0  0  0  0  0  0
   42.9920    3.1694   12.1671 H   0  0  0  0  0  0  0  0  0  0  0  0
   42.5054    3.7071   10.5421 H   0  0  0  0  0  0  0  0  0  0  0  0
   45.7986    1.5332    8.6073 H   0  0  0  0  0  0  0  0  0  0  0  0
   46.9126    2.6880    9.3460 H   0  0  0  0  0  0  0  0  0  0  0  0
   43.9954    3.2884    8.6076 H   0  0  0  0  0  0  0  0  0  0  0  0
   45.1280    4.4621    9.2620 H   0  0  0  0  0  0  0  0  0  0  0  0
   44.2640    1.8584   10.6347 H   0  0  0  0  0  0  0  0  0  0  0  0
   45.3935    3.0225   11.3254 H   0  0  0  0  0  0  0  0  0  0  0  0
  4  2  1  0
  3  1  1  0
  4  1  1  0
  5  3  2  0
  6  3  1  0
  4  7  1  0
  8  5  1  0
  9  6  2  0
 10  9  1  0
 10  8  2  0
 12 17  1  0
 13 11  2  0
 14 12  2  0
 15 12  1  0
 16 11  1  0
 17 20  1  0
 18 11  1  0
 19 18  1  0
 20 19  1  0
  1 21  1  0
  1 22  1  0
  2 23  1  0
  2 24  1  0
  4 25  1  6
  5 26  1  0
  6 27  1  0
  7 28  1  0
  7 29  1  0
  7 30  1  0
  8 31  1  0
  9 32  1  0
 10 33  1  0
 15 34  1  0
 16 35  1  0
 17 36  1  0
 17 37  1  0
 18 38  1  0
 18 39  1  0
 19 40  1  0
 19 41  1  0
 20 42  1  0
 20 43  1  0
M  END
> <Uni-Dock RESULT> 
ENERGY=   -6.806  LOWER_BOUND=    1.400  UPPER_BOUND=    2.025
INTER + INTRA:          -6.806
INTER:                  -6.806
INTRA:                   0.000
UNBOUND:                 0.000

$$$$

     RDKit          3D

 43 42  0  0  0  0  0  0  0  0999 V2000
   45.0787    5.0780   11.2829 C   0  0  0  0  0  0  0  0  0  0  0  0
   42.6390    5.2364   11.7834 N   0  0  0  0  0  0  0  0  0  0  0  0
   45.6741    6.2499   12.0302 C   0  0  0  0  0  0  0  0  0  0  0  0
   43.8602    4.4455   11.9909 C   0  0  1  0  0  0  0  0  0  0  0  0
   45.0978    7.5234   11.9377 C   0  0  0  0  0  0  0  0  0  0  0  0
   46.8072    6.0764   12.8374 C   0  0  0  0  0  0  0  0  0  0  0  0
   43.6202    3.0265   11.4717 C   0  0  0  0  0  0  0  0  0  0  0  0
   45.6471    8.6030   12.6312 C   0  0  0  0  0  0  0  0  0  0  0  0
   47.3565    7.1573   13.5297 C   0  0  0  0  0  0  0  0  0  0  0  0
   46.7772    8.4204   13.4256 C   0  0  0  0  0  0  0  0  0  0  0  0
   43.5229    3.1947   11.8662 C   0  0  0  0  0  0  0  0  0  0  0  0
   46.8307    7.5620   12.5212 C   0  0  0  0  0  0  0  0  0  0  0  0
   43.5844    2.1823   12.5432 O   0  0  0  0  0  0  0  0  0  0  0  0
   47.0965    6.8143   13.4457 O   0  0  0  0  0  0  0  0  0  0  0  0
   47.8033    8.2622   11.9050 O   0  0  0  0  0  0  0  0  0  0  0  0
   43.5248    3.1202   10.5223 O   0  0  0  0  0  0  0  0  0  0  0  0
   45.4733    7.8576   11.9403 C   0  0  0  0  0  0  0  0  0  0  0  0
   43.3860    4.5995   12.3816 C   0  0  0  0  0  0  0  0  0  0  0  0
   44.5014    5.5065   11.8682 C   0  0  0  0  0  0  0  0  0  0  0  0
   44.3863    6.9154   12.4577 C   0  0  0  0  0  0  0  0  0  0  0  0
   44.8171    5.3926   10.2634 H   0  0  0  0  0  0  0  0  0  0  0  0
   45.8628    4.3194   11.1550 H   0  0  0  0  0  0  0  0  0  0  0  0
   42.3896    5.2359   10.7954 H   0  0  0  0  0  0  0  0  0  0  0  0
   41.8616    4.7968   12.2742 H   0  0  0  0  0  0  0  0  0  0  0  0
   44.0514    4.3889   13.0694 H   0  0  0  0  0  0  0  0  0  0  0  0
   44.2080    7.6766   11.3310 H   0  0  0  0  0  0  0  0  0  0  0  0
   47.2706    5.0974   12.9325 H   0  0  0  0  0  0  0  0  0  0  0  0
   44.4932    2.3928   11.6619 H   0  0  0  0  0  0  0  0  0  0  0  0
   42.7627    2.5631   11.9725 H   0  0  0  0  0  0  0  0  0  0  0  0
   43.4276    3.0202   10.3930 H   0  0  0  0  0  0  0  0  0  0  0  0
   45.1883    9.5850   12.5542 H   0  0  0  0  0  0  0  0  0  0  0  0
   48.2355    7.0131   14.1519 H   0  0  0  0  0  0  0  0  0  0  0  0
   47.2030    9.2610   13.9663 H   0  0  0  0  0  0  0  0  0  0  0  0
   48.6217    7.9963   12.3747 H   0  0  0  0  0  0  0  0  0  0  0  0
   43.5960    2.1594   10.3408 H   0  0  0  0  0  0  0  0  0  0  0  0
   45.2174    8.8857   12.2205 H   0  0  0  0  0  0  0  0  0  0  0  0
   45.5320    7.7976   10.8480 H   0  0  0  0  0  0  0  0  0  0  0  0
   42.3992    4.9782   12.0935 H   0  0  0  0  0  0  0  0  0  0  0  0
   43.4141    4.5577   13.4767 H   0  0  0  0  0  0  0  0  0  0  0  0
   44.4596    5.5655   10.7736 H   0  0  0  0  0  0  0  0  0  0  0  0
   45.4731    5.0650   12.1194 H   0  0  0  0  0  0  0  0  0  0  0  0
   43.4085    7.3327   12.1872 H   0  0  0  0  0  0  0  0  0  0  0  0
   44.4201    6.8641   13.5528 H   0  0  0  0  0  0  0  0  0  0  0  0
  4  2  1  0
  3  1  1  0
  4  1  1  0
  5  3  2  0
  6  3  1  0
  4  7  1  0
  8  5  1  0
  9  6  2  0
 10  9  1  0
 10  8  2  0
 12 17  1  0
 13 11  2  0
 14 12  2  0
 15 12  1  0
 16 11  1  0
 17 20  1  0
 18 11  1  0
 19 18  1  0
 20 19  1  0
  1 21  1  0
  1 22  1  0
  2 23  1  0
  2 24  1  0
  4 25  1  6
  5 26  1  0
  6 27  1  0
  7 28  1  0
  7 29  1  0
  7 30  1  0
  8 31  1  0
  9 32  1  0
 10 33  1  0
 15 34  1  0
 16 35  1  0
 17 36  1  0
 17 37  1  0
 18 38  1  0
 18 39  1  0
 19 40  1  0
 19 41  1  0
 20 42  1  0
 20 43  1  0
M  END
> <Uni-Dock RESULT> 
ENERGY=   -5.413  LOWER_BOUND=    4.408  UPPER_BOUND=    5.911
INTER + INTRA:          -5.413
INTER:                  -5.413
INTRA:                   0.000
UNBOUND:                 0.000

$$$$

     RDKit          3D

 43 42  0  0  0  0  0  0  0  0999 V2000
   46.0362    3.6771    9.3677 C   0  0  0  0  0  0  0  0  0  0  0  0
   44.1311    2.2476   10.1126 N   0  0  0  0  0  0  0  0  0  0  0  0
   46.4403    3.0724    8.0420 C   0  0  0  0  0  0  0  0  0  0  0  0
   44.5208    3.5883    9.6536 C   0  0  1  0  0  0  0  0  0  0  0  0
   46.6078    1.6878    7.9098 C   0  0  0  0  0  0  0  0  0  0  0  0
   46.6424    3.8891    6.9205 C   0  0  0  0  0  0  0  0  0  0  0  0
   44.1197    4.6085   10.7209 C   0  0  0  0  0  0  0  0  0  0  0  0
   46.9775    1.1316    6.6842 C   0  0  0  0  0  0  0  0  0  0  0  0
   47.0133    3.3317    5.6954 C   0  0  0  0  0  0  0  0  0  0  0  0
   47.1819    1.9534    5.5777 C   0  0  0  0  0  0  0  0  0  0  0  0
   43.8758    4.4412   10.3955 C   0  0  0  0  0  0  0  0  0  0  0  0
   47.4396    2.6395    6.5879 C   0  0  0  0  0  0  0  0  0  0  0  0
   43.0997    5.3658   10.2229 O   0  0  0  0  0  0  0  0  0  0  0  0
   46.7534    3.4709    6.0200 O   0  0  0  0  0  0  0  0  0  0  0  0
   48.7578    2.5438    6.3249 O   0  0  0  0  0  0  0  0  0  0  0  0
   44.6794    4.4148   11.4750 O   0  0  0  0  0  0  0  0  0  0  0  0
   46.9931    1.6135    7.5956 C   0  0  0  0  0  0  0  0  0  0  0  0
   44.0175    3.2270    9.5216 C   0  0  0  0  0  0  0  0  0  0  0  0
   45.4506    3.0433    9.0289 C   0  0  0  0  0  0  0  0  0  0  0  0
   45.5629    1.8426    8.0847 C   0  0  0  0  0  0  0  0  0  0  0  0
   46.6133    3.2036   10.1736 H   0  0  0  0  0  0  0  0  0  0  0  0
   46.3493    4.7300    9.3734 H   0  0  0  0  0  0  0  0  0  0  0  0
   44.5728    2.0462   11.0085 H   0  0  0  0  0  0  0  0  0  0  0  0
   43.1258    2.2237   10.2783 H   0  0  0  0  0  0  0  0  0  0  0  0
   43.9611    3.8117    8.7372 H   0  0  0  0  0  0  0  0  0  0  0  0
   46.4389    1.0341    8.7627 H   0  0  0  0  0  0  0  0  0  0  0  0
   46.5126    4.9662    6.9935 H   0  0  0  0  0  0  0  0  0  0  0  0
   44.3455    5.6267   10.3862 H   0  0  0  0  0  0  0  0  0  0  0  0
   43.0445    4.5614   10.9271 H   0  0  0  0  0  0  0  0  0  0  0  0
   44.6539    4.4367   11.6622 H   0  0  0  0  0  0  0  0  0  0  0  0
   47.1004    0.0558    6.5938 H   0  0  0  0  0  0  0  0  0  0  0  0
   47.1688    3.9730    4.8322 H   0  0  0  0  0  0  0  0  0  0  0  0
   47.4679    1.5193    4.6237 H   0  0  0  0  0  0  0  0  0  0  0  0
   48.9184    3.2436    5.6574 H   0  0  0  0  0  0  0  0  0  0  0  0
   44.4613    5.2444   11.9499 H   0  0  0  0  0  0  0  0  0  0  0  0
   47.0510    0.6337    7.1084 H   0  0  0  0  0  0  0  0  0  0  0  0
   47.6852    1.6229    8.4447 H   0  0  0  0  0  0  0  0  0  0  0  0
   43.6745    2.3533   10.0864 H   0  0  0  0  0  0  0  0  0  0  0  0
   43.3425    3.3503    8.6666 H   0  0  0  0  0  0  0  0  0  0  0  0
   46.1228    2.8982    9.8835 H   0  0  0  0  0  0  0  0  0  0  0  0
   45.7815    3.9588    8.5244 H   0  0  0  0  0  0  0  0  0  0  0  0
   45.2303    0.9426    8.6165 H   0  0  0  0  0  0  0  0  0  0  0  0
   44.8880    1.9769    7.2306 H   0  0  0  0  0  0  0  0  0  0  0  0
  4  2  1  0
  3  1  1  0
  4  1  1  0
  5  3  2  0
  6  3  1  0
  4  7  1  0
  8  5  1  0
  9  6  2  0
 10  9  1  0
 10  8  2  0
 12 17  1  0
 13 11  2  0
 14 12  2  0
 15 12  1  0
 16 11  1  0
 17 20  1  0
 18 11  1  0
 19 18  1  0
 20 19  1  0
  1 21  1  0
  1 22  1  0
  2 23  1  0
  2 24  1  0
  4 25  1  6
  5 26  1  0
  6 27  1  0
  7 28  1  0
  7 29  1  0
  7 30  1  0
  8 31  1  0
  9 32  1  0
 10 33  1  0
 15 34  1  0
 16 35  1  0
 17 36  1  0
 17 37  1  0
 18 38  1  0
 18 39  1  0
 19 40  1  0
 19 41  1  0
 20 42  1  0
 20 43  1  0
M  END
> <Uni-Dock RESULT> 
ENERGY=   -5.297  LOWER_BOUND=    1.280  UPPER_BOUND=    4.847
INTER + INTRA:          -5.297
INTER:                  -5.297
INTRA:                   0.000
UNBOUND:                 0.000

$$$$

     RDKit          3D

 43 42  0  0  0  0  0  0  0  0999 V2000
   45.0038    6.2871   13.1041 C   0  0  0  0  0  0  0  0  0  0  0  0
   44.8671    4.8350   11.0792 N   0  0  0  0  0  0  0  0  0  0  0  0
   46.1158    7.2572   12.7744 C   0  0  0  0  0  0  0  0  0  0  0  0
   44.1723    5.8562   11.8757 C   0  0  1  0  0  0  0  0  0  0  0  0
   47.3312    6.7991   12.2497 C   0  0  0  0  0  0  0  0  0  0  0  0
   45.9421    8.6334   12.9785 C   0  0  0  0  0  0  0  0  0  0  0  0
   42.8190    5.2964   12.3186 C   0  0  0  0  0  0  0  0  0  0  0  0
   48.3550    7.6968   11.9428 C   0  0  0  0  0  0  0  0  0  0  0  0
   46.9673    9.5302   12.6723 C   0  0  0  0  0  0  0  0  0  0  0  0
   48.1738    9.0619   12.1557 C   0  0  0  0  0  0  0  0  0  0  0  0
   42.9234    5.4957   11.9408 C   0  0  0  0  0  0  0  0  0  0  0  0
   47.4523    8.4696   12.9842 C   0  0  0  0  0  0  0  0  0  0  0  0
   41.8399    5.9768   11.6550 O   0  0  0  0  0  0  0  0  0  0  0  0
   46.6159    9.2745   12.6137 O   0  0  0  0  0  0  0  0  0  0  0  0
   48.3156    8.7834   13.9702 O   0  0  0  0  0  0  0  0  0  0  0  0
   43.0292    4.5854   12.9267 O   0  0  0  0  0  0  0  0  0  0  0  0
   47.6955    7.0845   12.4460 C   0  0  0  0  0  0  0  0  0  0  0  0
   44.2282    5.7753   11.2500 C   0  0  0  0  0  0  0  0  0  0  0  0
   45.2950    6.2683   12.2242 C   0  0  0  0  0  0  0  0  0  0  0  0
   46.5959    6.6143   11.4937 C   0  0  0  0  0  0  0  0  0  0  0  0
   45.4258    5.4114   13.6157 H   0  0  0  0  0  0  0  0  0  0  0  0
   44.3451    6.7603   13.8450 H   0  0  0  0  0  0  0  0  0  0  0  0
   44.9751    3.9826   11.6269 H   0  0  0  0  0  0  0  0  0  0  0  0
   44.2957    4.5857   10.2729 H   0  0  0  0  0  0  0  0  0  0  0  0
   43.9905    6.7258   11.2326 H   0  0  0  0  0  0  0  0  0  0  0  0
   47.4807    5.7372   12.0670 H   0  0  0  0  0  0  0  0  0  0  0  0
   45.0064    9.0167   13.3781 H   0  0  0  0  0  0  0  0  0  0  0  0
   42.2493    6.0532   12.8688 H   0  0  0  0  0  0  0  0  0  0  0  0
   42.2155    4.9944   11.4553 H   0  0  0  0  0  0  0  0  0  0  0  0
   42.9387    4.4241   12.9711 H   0  0  0  0  0  0  0  0  0  0  0  0
   49.2917    7.3291   11.5327 H   0  0  0  0  0  0  0  0  0  0  0  0
   46.8236   10.5949   12.8351 H   0  0  0  0  0  0  0  0  0  0  0  0
   48.9707    9.7599   11.9149 H   0  0  0  0  0  0  0  0  0  0  0  0
   48.0665    9.6974   14.2222 H   0  0  0  0  0  0  0  0  0  0  0  0
   42.1119    4.4935   13.2604 H   0  0  0  0  0  0  0  0  0  0  0  0
   48.6488    7.1089   11.9062 H   0  0  0  0  0  0  0  0  0  0  0  0
   47.7873    6.3867   13.2856 H   0  0  0  0  0  0  0  0  0  0  0  0
   44.5487    4.8629   10.7353 H   0  0  0  0  0  0  0  0  0  0  0  0
   44.0436    6.5366   10.4830 H   0  0  0  0  0  0  0  0  0  0  0  0
   45.4953    5.4978   12.9788 H   0  0  0  0  0  0  0  0  0  0  0  0
   44.9160    7.1433   12.7655 H   0  0  0  0  0  0  0  0  0  0  0  0
   46.9531    5.7212   10.9661 H   0  0  0  0  0  0  0  0  0  0  0  0
   46.4025    7.3795   10.7321 H   0  0  0  0  0  0  0  0  0  0  0  0
  4  2  1  0
  3  1  1  0
  4  1  1  0
  5  3  2  0
  6  3  1  0
  4  7  1  0
  8  5  1  0
  9  6  2  0
 10  9  1  0
 10  8  2  0
 12 17  1  0
 13 11  2  0
 14 12  2  0
 15 12  1  0
 16 11  1  0
 17 20  1  0
 18 11  1  0
 19 18  1  0
 20 19  1  0
  1 21  1  0
  1 22  1  0
  2 23  1  0
  2 24  1  0
  4 25  1  6
  5 26  1  0
  6 27  1  0
  7 28  1  0
  7 29  1  0
  7 30  1  0
  8 31  1  0
  9 32  1  0
 10 33  1  0
 15 34  1  0
 16 35  1  0
 17 36  1  0
 17 37  1  0
 18 38  1  0
 18 39  1  0
 19 40  1  0
 19 41  1  0
 20 42  1  0
 20 43  1  0
M  END
> <Uni-Dock RESULT> 
ENERGY=   -5.229  LOWER_BOUND=    5.159  UPPER_BOUND=    6.690
INTER + INTRA:          -5.229
INTER:                  -5.229
INTRA:                   0.000
UNBOUND:                 0.000

$$$$

     RDKit          3D

 43 42  0  0  0  0  0  0  0  0999 V2000
   45.5452    5.6685   10.9639 C   0  0  0  0  0  0  0  0  0  0  0  0
   43.5028    5.9469   12.3706 N   0  0  0  0  0  0  0  0  0  0  0  0
   45.1930    4.5207   10.0448 C   0  0  0  0  0  0  0  0  0  0  0  0
   44.3395    6.5618   11.3305 C   0  0  1  0  0  0  0  0  0  0  0  0
   44.6191    3.3484   10.5535 C   0  0  0  0  0  0  0  0  0  0  0  0
   45.4255    4.6175    8.6656 C   0  0  0  0  0  0  0  0  0  0  0  0
   44.8199    7.9259   11.8299 C   0  0  0  0  0  0  0  0  0  0  0  0
   44.2916    2.2914    9.7027 C   0  0  0  0  0  0  0  0  0  0  0  0
   45.0985    3.5592    7.8157 C   0  0  0  0  0  0  0  0  0  0  0  0
   44.5329    2.3962    8.3344 C   0  0  0  0  0  0  0  0  0  0  0  0
   44.4419    7.8244   11.6292 C   0  0  0  0  0  0  0  0  0  0  0  0
   45.3761    3.1182    8.9047 C   0  0  0  0  0  0  0  0  0  0  0  0
   44.2017    8.8912   11.0895 O   0  0  0  0  0  0  0  0  0  0  0  0
   45.0480    3.9249    8.0524 O   0  0  0  0  0  0  0  0  0  0  0  0
   46.3366    2.2074    8.6522 O   0  0  0  0  0  0  0  0  0  0  0  0
   45.4086    7.7315   12.5613 O   0  0  0  0  0  0  0  0  0  0  0  0
   44.8073    2.9637   10.2903 C   0  0  0  0  0  0  0  0  0  0  0  0
   43.7109    6.5312   11.4028 C   0  0  0  0  0  0  0  0  0  0  0  0
   44.6555    5.4085   10.9813 C   0  0  0  0  0  0  0  0  0  0  0  0
   43.8861    4.1172   10.6877 C   0  0  0  0  0  0  0  0  0  0  0  0
   46.0275    5.2742   11.8687 H   0  0  0  0  0  0  0  0  0  0  0  0
   46.3160    6.2771   10.4718 H   0  0  0  0  0  0  0  0  0  0  0  0
   44.0325    5.8636   13.2371 H   0  0  0  0  0  0  0  0  0  0  0  0
   42.7129    6.5570   12.5764 H   0  0  0  0  0  0  0  0  0  0  0  0
   43.7174    6.7210   10.4414 H   0  0  0  0  0  0  0  0  0  0  0  0
   44.4140    3.2590   11.6181 H   0  0  0  0  0  0  0  0  0  0  0  0
   45.8635    5.5187    8.2432 H   0  0  0  0  0  0  0  0  0  0  0  0
   45.4017    8.4377   11.0556 H   0  0  0  0  0  0  0  0  0  0  0  0
   43.9732    8.5727   12.0857 H   0  0  0  0  0  0  0  0  0  0  0  0
   45.4534    7.8284   12.7187 H   0  0  0  0  0  0  0  0  0  0  0  0
   43.8433    1.3890   10.1093 H   0  0  0  0  0  0  0  0  0  0  0  0
   45.2836    3.6434    6.7483 H   0  0  0  0  0  0  0  0  0  0  0  0
   44.2760    1.5736    7.6728 H   0  0  0  0  0  0  0  0  0  0  0  0
   46.6120    2.4013    7.7316 H   0  0  0  0  0  0  0  0  0  0  0  0
   45.7723    8.6404   12.6133 H   0  0  0  0  0  0  0  0  0  0  0  0
   44.2352    2.0292   10.3038 H   0  0  0  0  0  0  0  0  0  0  0  0
   45.6317    2.8790   11.0068 H   0  0  0  0  0  0  0  0  0  0  0  0
   43.1707    6.2749   12.3207 H   0  0  0  0  0  0  0  0  0  0  0  0
   42.9633    6.7029   10.6195 H   0  0  0  0  0  0  0  0  0  0  0  0
   45.3901    5.2221   11.7744 H   0  0  0  0  0  0  0  0  0  0  0  0
   45.2239    5.7243   10.0984 H   0  0  0  0  0  0  0  0  0  0  0  0
   43.3320    3.8237   11.5878 H   0  0  0  0  0  0  0  0  0  0  0  0
   43.1442    4.2973    9.9002 H   0  0  0  0  0  0  0  0  0  0  0  0
  4  2  1  0
  3  1  1  0
  4  1  1  0
  5  3  2  0
  6  3  1  0
  4  7  1  0
  8  5  1  0
  9  6  2  0
 10  9  1  0
 10  8  2  0
 12 17  1  0
 13 11  2  0
 14 12  2  0
 15 12  1  0
 16 11  1  0
 17 20  1  0
 18 11  1  0
 19 18  1  0
 20 19  1  0
  1 21  1  0
  1 22  1  0
  2 23  1  0
  2 24  1  0
  4 25  1  6
  5 26  1  0
  6 27  1  0
  7 28  1  0
  7 29  1  0
  7 30  1  0
  8 31  1  0
  9 32  1  0
 10 33  1  0
 15 34  1  0
 16 35  1  0
 17 36  1  0
 17 37  1  0
 18 38  1  0
 18 39  1  0
 19 40  1  0
 19 41  1  0
 20 42  1  0
 20 43  1  0
M  END
> <Uni-Dock RESULT> 
ENERGY=   -5.215  LOWER_BOUND=    2.718  UPPER_BOUND=    5.400
INTER + INTRA:          -5.215
INTER:                  -5.215
INTRA:                   0.000
UNBOUND:                 0.000

$$$$

     RDKit          3D

 43 42  0  0  0  0  0  0  0  0999 V2000
   45.2635    7.6226   12.5030 C   0  0  0  0  0  0  0  0  0  0  0  0
   47.5848    7.3764   11.6206 N   0  0  0  0  0  0  0  0  0  0  0  0
   44.6058    6.3071   12.1520 C   0  0  0  0  0  0  0  0  0  0  0  0
   46.7666    7.4952   12.8357 C   0  0  1  0  0  0  0  0  0  0  0  0
   44.7322    5.7659   10.8661 C   0  0  0  0  0  0  0  0  0  0  0  0
   43.8679    5.6026   13.1137 C   0  0  0  0  0  0  0  0  0  0  0  0
   47.2413    8.7137   13.6299 C   0  0  0  0  0  0  0  0  0  0  0  0
   44.1272    4.5497   10.5454 C   0  0  0  0  0  0  0  0  0  0  0  0
   43.2622    4.3867   12.7914 C   0  0  0  0  0  0  0  0  0  0  0  0
   43.3908    3.8611   11.5073 C   0  0  0  0  0  0  0  0  0  0  0  0
   47.3990    8.3032   13.6364 C   0  0  0  0  0  0  0  0  0  0  0  0
   43.3207    5.0724   11.7995 C   0  0  0  0  0  0  0  0  0  0  0  0
   47.8396    8.2691   14.7729 O   0  0  0  0  0  0  0  0  0  0  0  0
   43.5729    4.6677   12.9208 O   0  0  0  0  0  0  0  0  0  0  0  0
   42.0489    5.1127   11.3557 O   0  0  0  0  0  0  0  0  0  0  0  0
   47.0165    9.4703   13.0855 O   0  0  0  0  0  0  0  0  0  0  0  0
   44.2947    5.5456   10.7533 C   0  0  0  0  0  0  0  0  0  0  0  0
   47.2698    7.1354   12.6996 C   0  0  0  0  0  0  0  0  0  0  0  0
   45.8390    6.9640   12.1959 C   0  0  0  0  0  0  0  0  0  0  0  0
   45.7111    5.7295   11.2984 C   0  0  0  0  0  0  0  0  0  0  0  0
   45.1048    8.3377   11.6844 H   0  0  0  0  0  0  0  0  0  0  0  0
   44.7327    8.0519   13.3637 H   0  0  0  0  0  0  0  0  0  0  0  0
   47.5158    8.2320   11.0714 H   0  0  0  0  0  0  0  0  0  0  0  0
   48.5660    7.2816   11.8793 H   0  0  0  0  0  0  0  0  0  0  0  0
   46.9321    6.6003   13.4478 H   0  0  0  0  0  0  0  0  0  0  0  0
   45.3149    6.2873   10.1098 H   0  0  0  0  0  0  0  0  0  0  0  0
   43.7595    5.9964   14.1214 H   0  0  0  0  0  0  0  0  0  0  0  0
   46.6887    8.8000   14.5718 H   0  0  0  0  0  0  0  0  0  0  0  0
   48.3051    8.6316   13.8796 H   0  0  0  0  0  0  0  0  0  0  0  0
   47.0952    9.6424   13.0670 H   0  0  0  0  0  0  0  0  0  0  0  0
   44.2360    4.1387    9.5454 H   0  0  0  0  0  0  0  0  0  0  0  0
   42.6913    3.8486   13.5433 H   0  0  0  0  0  0  0  0  0  0  0  0
   42.9217    2.9137   11.2571 H   0  0  0  0  0  0  0  0  0  0  0  0
   41.5229    4.7740   12.1105 H   0  0  0  0  0  0  0  0  0  0  0  0
   47.1764   10.1279   13.7949 H   0  0  0  0  0  0  0  0  0  0  0  0
   44.3127    4.7889    9.9609 H   0  0  0  0  0  0  0  0  0  0  0  0
   43.9318    6.4878   10.3283 H   0  0  0  0  0  0  0  0  0  0  0  0
   47.9706    7.2794   11.8699 H   0  0  0  0  0  0  0  0  0  0  0  0
   47.5843    6.2360   13.2418 H   0  0  0  0  0  0  0  0  0  0  0  0
   45.5322    7.8552   11.6347 H   0  0  0  0  0  0  0  0  0  0  0  0
   45.1592    6.8861   13.0526 H   0  0  0  0  0  0  0  0  0  0  0  0
   46.3977    5.8372   10.4495 H   0  0  0  0  0  0  0  0  0  0  0  0
   46.0231    4.8345   11.8503 H   0  0  0  0  0  0  0  0  0  0  0  0
  4  2  1  0
  3  1  1  0
  4  1  1  0
  5  3  2  0
  6  3  1  0
  4  7  1  0
  8  5  1  0
  9  6  2  0
 10  9  1  0
 10  8  2  0
 12 17  1  0
 13 11  2  0
 14 12  2  0
 15 12  1  0
 16 11  1  0
 17 20  1  0
 18 11  1  0
 19 18  1  0
 20 19  1  0
  1 21  1  0
  1 22  1  0
  2 23  1  0
  2 24  1  0
  4 25  1  6
  5 26  1  0
  6 27  1  0
  7 28  1  0
  7 29  1  0
  7 30  1  0
  8 31  1  0
  9 32  1  0
 10 33  1  0
 15 34  1  0
 16 35  1  0
 17 36  1  0
 17 37  1  0
 18 38  1  0
 18 39  1  0
 19 40  1  0
 19 41  1  0
 20 42  1  0
 20 43  1  0
M  END
> <Uni-Dock RESULT> 
ENERGY=   -5.179  LOWER_BOUND=    4.619  UPPER_BOUND=    6.313
INTER + INTRA:          -5.179
INTER:                  -5.179
INTRA:                   0.000
UNBOUND:                 0.000

$$$$
