
     RDKit          3D

 43 42  0  0  0  0  0  0  0  0999 V2000
   45.8170    4.0737    9.1146 C   0  0  0  0  0  0  0  0  0  0  0  0
   44.0679    2.6123   10.1307 N   0  0  0  0  0  0  0  0  0  0  0  0
   46.3273    3.2614    7.9459 C   0  0  0  0  0  0  0  0  0  0  0  0
   44.3142    3.8663    9.4048 C   0  0  1  0  0  0  0  0  0  0  0  0
   46.4674    3.8478    6.6801 C   0  0  0  0  0  0  0  0  0  0  0  0
   46.6569    1.9093    8.1053 C   0  0  0  0  0  0  0  0  0  0  0  0
   43.7666    5.0293   10.2346 C   0  0  0  0  0  0  0  0  0  0  0  0
   46.9362    3.0981    5.5997 C   0  0  0  0  0  0  0  0  0  0  0  0
   47.1244    1.1605    7.0241 C   0  0  0  0  0  0  0  0  0  0  0  0
   47.2657    1.7551    5.7720 C   0  0  0  0  0  0  0  0  0  0  0  0
   43.8797    3.7127   10.8373 C   0  0  0  0  0  0  0  0  0  0  0  0
   47.4743    2.4729    6.2467 C   0  0  0  0  0  0  0  0  0  0  0  0
   42.8719    3.2256   11.3201 O   0  0  0  0  0  0  0  0  0  0  0  0
   47.8761    1.3235    6.1865 O   0  0  0  0  0  0  0  0  0  0  0  0
   47.5911    3.3028    5.1939 O   0  0  0  0  0  0  0  0  0  0  0  0
   44.2853    4.9483   11.1848 O   0  0  0  0  0  0  0  0  0  0  0  0
   46.7863    3.1118    7.4184 C   0  0  0  0  0  0  0  0  0  0  0  0
   44.7795    3.0709    9.8208 C   0  0  0  0  0  0  0  0  0  0  0  0
   44.5020    3.6281    8.4289 C   0  0  0  0  0  0  0  0  0  0  0  0
   45.2784    2.9099    7.3238 C   0  0  0  0  0  0  0  0  0  0  0  0
   46.4206    3.8483   10.0044 H   0  0  0  0  0  0  0  0  0  0  0  0
   46.0065    5.1348    8.9028 H   0  0  0  0  0  0  0  0  0  0  0  0
   44.5029    2.6536   11.0511 H   0  0  0  0  0  0  0  0  0  0  0  0
   43.0675    2.5038   10.2924 H   0  0  0  0  0  0  0  0  0  0  0  0
   43.7598    3.8282    8.4592 H   0  0  0  0  0  0  0  0  0  0  0  0
   46.2123    4.8936    6.5267 H   0  0  0  0  0  0  0  0  0  0  0  0
   46.5391    1.4299    9.0747 H   0  0  0  0  0  0  0  0  0  0  0  0
   44.2888    5.1199   11.1938 H   0  0  0  0  0  0  0  0  0  0  0  0
   43.8835    5.9763    9.6966 H   0  0  0  0  0  0  0  0  0  0  0  0
   42.6984    4.8983   10.4405 H   0  0  0  0  0  0  0  0  0  0  0  0
   47.0424    3.5619    4.6227 H   0  0  0  0  0  0  0  0  0  0  0  0
   47.3729    0.1115    7.1601 H   0  0  0  0  0  0  0  0  0  0  0  0
   47.6281    1.1711    4.9306 H   0  0  0  0  0  0  0  0  0  0  0  0
   48.0339    2.7589    4.5088 H   0  0  0  0  0  0  0  0  0  0  0  0
   43.6149    5.2440   11.8361 H   0  0  0  0  0  0  0  0  0  0  0  0
   47.0456    4.1762    7.4480 H   0  0  0  0  0  0  0  0  0  0  0  0
   47.1976    2.6626    8.3286 H   0  0  0  0  0  0  0  0  0  0  0  0
   45.8184    3.2307   10.1280 H   0  0  0  0  0  0  0  0  0  0  0  0
   44.6027    1.9895    9.8495 H   0  0  0  0  0  0  0  0  0  0  0  0
   44.7300    4.7010    8.4030 H   0  0  0  0  0  0  0  0  0  0  0  0
   43.4294    3.5394    8.2134 H   0  0  0  0  0  0  0  0  0  0  0  0
   44.9241    3.2822    6.3540 H   0  0  0  0  0  0  0  0  0  0  0  0
   45.0446    1.8380    7.3420 H   0  0  0  0  0  0  0  0  0  0  0  0
  4  2  1  0
  3  1  1  0
  4  1  1  0
  5  3  2  0
  6  3  1  0
  4  7  1  0
  8  5  1  0
  9  6  2  0
 10  9  1  0
 10  8  2  0
 12 17  1  0
 13 11  2  0
 14 12  2  0
 15 12  1  0
 16 11  1  0
 17 20  1  0
 18 11  1  0
 19 18  1  0
 20 19  1  0
  1 21  1  0
  1 22  1  0
  2 23  1  0
  2 24  1  0
  4 25  1  6
  5 26  1  0
  6 27  1  0
  7 28  1  0
  7 29  1  0
  7 30  1  0
  8 31  1  0
  9 32  1  0
 10 33  1  0
 15 34  1  0
 16 35  1  0
 17 36  1  0
 17 37  1  0
 18 38  1  0
 18 39  1  0
 19 40  1  0
 19 41  1  0
 20 42  1  0
 20 43  1  0
M  END
> <Uni-Dock RESULT> 
ENERGY=   -6.597  LOWER_BOUND=    0.000  UPPER_BOUND=    0.000
INTER + INTRA:          -6.597
INTER:                  -6.597
INTRA:                   0.000
UNBOUND:                 0.000

$$$$

     RDKit          3D

 43 42  0  0  0  0  0  0  0  0999 V2000
   45.1211    3.1903    7.3270 C   0  0  0  0  0  0  0  0  0  0  0  0
   47.3325    2.0569    7.5566 N   0  0  0  0  0  0  0  0  0  0  0  0
   44.7072    3.4600    8.7561 C   0  0  0  0  0  0  0  0  0  0  0  0
   46.6463    3.2727    7.0972 C   0  0  1  0  0  0  0  0  0  0  0  0
   44.2370    4.7259    9.1329 C   0  0  0  0  0  0  0  0  0  0  0  0
   44.7973    2.4550    9.7278 C   0  0  0  0  0  0  0  0  0  0  0  0
   46.9507    3.4764    5.6116 C   0  0  0  0  0  0  0  0  0  0  0  0
   43.8567    4.9768   10.4526 C   0  0  0  0  0  0  0  0  0  0  0  0
   44.4179    2.7073   11.0471 C   0  0  0  0  0  0  0  0  0  0  0  0
   43.9461    3.9673   11.4091 C   0  0  0  0  0  0  0  0  0  0  0  0
   47.2966    2.2163    6.2455 C   0  0  0  0  0  0  0  0  0  0  0  0
   43.6098    3.9672   10.5900 C   0  0  0  0  0  0  0  0  0  0  0  0
   48.4566    1.8488    6.1731 O   0  0  0  0  0  0  0  0  0  0  0  0
   43.5445    3.2273   11.5567 O   0  0  0  0  0  0  0  0  0  0  0  0
   43.1219    5.2201   10.6433 O   0  0  0  0  0  0  0  0  0  0  0  0
   46.6098    2.5599    5.1400 O   0  0  0  0  0  0  0  0  0  0  0  0
   44.2419    3.6440    9.2670 C   0  0  0  0  0  0  0  0  0  0  0  0
   46.4853    2.3598    7.5009 C   0  0  0  0  0  0  0  0  0  0  0  0
   46.4027    3.8225    7.9235 C   0  0  0  0  0  0  0  0  0  0  0  0
   45.7181    4.0237    9.2766 C   0  0  0  0  0  0  0  0  0  0  0  0
   44.7322    2.2115    7.0151 H   0  0  0  0  0  0  0  0  0  0  0  0
   44.6131    3.9184    6.6802 H   0  0  0  0  0  0  0  0  0  0  0  0
   47.0326    1.2583    6.9995 H   0  0  0  0  0  0  0  0  0  0  0  0
   48.3352    2.1529    7.4011 H   0  0  0  0  0  0  0  0  0  0  0  0
   47.0553    4.1260    7.6517 H   0  0  0  0  0  0  0  0  0  0  0  0
   44.1633    5.5262    8.4005 H   0  0  0  0  0  0  0  0  0  0  0  0
   45.1760    1.4708    9.4608 H   0  0  0  0  0  0  0  0  0  0  0  0
   46.5593    2.6525    5.0043 H   0  0  0  0  0  0  0  0  0  0  0  0
   46.4994    4.4063    5.2489 H   0  0  0  0  0  0  0  0  0  0  0  0
   48.0301    3.5449    5.4360 H   0  0  0  0  0  0  0  0  0  0  0  0
   43.4925    5.9609   10.7347 H   0  0  0  0  0  0  0  0  0  0  0  0
   44.4964    1.9203   11.7922 H   0  0  0  0  0  0  0  0  0  0  0  0
   43.6526    4.1633   12.4366 H   0  0  0  0  0  0  0  0  0  0  0  0
   42.7620    5.2980   11.5518 H   0  0  0  0  0  0  0  0  0  0  0  0
   47.2515    2.4269    4.4108 H   0  0  0  0  0  0  0  0  0  0  0  0
   43.6993    4.1707    8.4737 H   0  0  0  0  0  0  0  0  0  0  0  0
   44.1015    2.5730    9.0862 H   0  0  0  0  0  0  0  0  0  0  0  0
   45.4951    1.9263    7.3248 H   0  0  0  0  0  0  0  0  0  0  0  0
   46.9622    1.7556    8.2812 H   0  0  0  0  0  0  0  0  0  0  0  0
   45.8799    4.4053    7.1549 H   0  0  0  0  0  0  0  0  0  0  0  0
   47.4172    4.2374    7.9828 H   0  0  0  0  0  0  0  0  0  0  0  0
   45.8181    5.0789    9.5614 H   0  0  0  0  0  0  0  0  0  0  0  0
   46.2451    3.4491   10.0486 H   0  0  0  0  0  0  0  0  0  0  0  0
  4  2  1  0
  3  1  1  0
  4  1  1  0
  5  3  2  0
  6  3  1  0
  4  7  1  0
  8  5  1  0
  9  6  2  0
 10  9  1  0
 10  8  2  0
 12 17  1  0
 13 11  2  0
 14 12  2  0
 15 12  1  0
 16 11  1  0
 17 20  1  0
 18 11  1  0
 19 18  1  0
 20 19  1  0
  1 21  1  0
  1 22  1  0
  2 23  1  0
  2 24  1  0
  4 25  1  6
  5 26  1  0
  6 27  1  0
  7 28  1  0
  7 29  1  0
  7 30  1  0
  8 31  1  0
  9 32  1  0
 10 33  1  0
 15 34  1  0
 16 35  1  0
 17 36  1  0
 17 37  1  0
 18 38  1  0
 18 39  1  0
 19 40  1  0
 19 41  1  0
 20 42  1  0
 20 43  1  0
M  END
> <Uni-Dock RESULT> 
ENERGY=   -6.373  LOWER_BOUND=    1.162  UPPER_BOUND=    5.048
INTER + INTRA:          -6.373
INTER:                  -6.373
INTRA:                   0.000
UNBOUND:                 0.000

$$$$

     RDKit          3D

 43 42  0  0  0  0  0  0  0  0999 V2000
   44.0967    3.2194    9.2019 C   0  0  0  0  0  0  0  0  0  0  0  0
   44.7627    5.3101   10.3907 N   0  0  0  0  0  0  0  0  0  0  0  0
   45.2945    2.9039    8.3346 C   0  0  0  0  0  0  0  0  0  0  0  0
   44.4634    3.8799   10.5491 C   0  0  1  0  0  0  0  0  0  0  0  0
   45.8289    1.6081    8.3052 C   0  0  0  0  0  0  0  0  0  0  0  0
   45.8959    3.9015    7.5566 C   0  0  0  0  0  0  0  0  0  0  0  0
   43.3142    3.7267   11.5475 C   0  0  0  0  0  0  0  0  0  0  0  0
   46.9363    1.3161    7.5067 C   0  0  0  0  0  0  0  0  0  0  0  0
   47.0037    3.6087    6.7596 C   0  0  0  0  0  0  0  0  0  0  0  0
   47.5227    2.3160    6.7332 C   0  0  0  0  0  0  0  0  0  0  0  0
   43.6333    5.0425   11.0220 C   0  0  0  0  0  0  0  0  0  0  0  0
   46.6756    2.0805    6.8382 C   0  0  0  0  0  0  0  0  0  0  0  0
   43.8778    5.9261   11.8254 O   0  0  0  0  0  0  0  0  0  0  0  0
   47.2942    2.7715    6.0469 O   0  0  0  0  0  0  0  0  0  0  0  0
   46.9130    0.7596    6.9364 O   0  0  0  0  0  0  0  0  0  0  0  0
   42.5067    4.3122   11.1188 O   0  0  0  0  0  0  0  0  0  0  0  0
   45.6345    2.5589    7.8086 C   0  0  0  0  0  0  0  0  0  0  0  0
   44.4979    4.6256    9.8672 C   0  0  0  0  0  0  0  0  0  0  0  0
   45.2693    3.3542   10.2044 C   0  0  0  0  0  0  0  0  0  0  0  0
   46.2827    2.9582    9.1292 C   0  0  0  0  0  0  0  0  0  0  0  0
   43.3955    3.8489    8.6372 H   0  0  0  0  0  0  0  0  0  0  0  0
   43.5530    2.2834    9.3884 H   0  0  0  0  0  0  0  0  0  0  0  0
   43.9285    5.8064   10.0810 H   0  0  0  0  0  0  0  0  0  0  0  0
   45.0121    5.7077   11.2954 H   0  0  0  0  0  0  0  0  0  0  0  0
   45.3504    3.3897   10.9685 H   0  0  0  0  0  0  0  0  0  0  0  0
   45.3860    0.8163    8.9045 H   0  0  0  0  0  0  0  0  0  0  0  0
   45.5082    4.9177    7.5781 H   0  0  0  0  0  0  0  0  0  0  0  0
   42.3952    4.1955   11.1780 H   0  0  0  0  0  0  0  0  0  0  0  0
   43.1016    2.6681   11.7322 H   0  0  0  0  0  0  0  0  0  0  0  0
   43.5652    4.1842   12.5110 H   0  0  0  0  0  0  0  0  0  0  0  0
   47.3426    0.3085    7.4898 H   0  0  0  0  0  0  0  0  0  0  0  0
   47.4634    4.3925    6.1638 H   0  0  0  0  0  0  0  0  0  0  0  0
   48.3860    2.0894    6.1138 H   0  0  0  0  0  0  0  0  0  0  0  0
   47.6126    0.5924    6.2702 H   0  0  0  0  0  0  0  0  0  0  0  0
   42.0512    4.6813   11.9045 H   0  0  0  0  0  0  0  0  0  0  0  0
   44.8899    1.7677    7.9524 H   0  0  0  0  0  0  0  0  0  0  0  0
   45.1119    3.4018    7.3440 H   0  0  0  0  0  0  0  0  0  0  0  0
   43.8606    4.4981    8.9857 H   0  0  0  0  0  0  0  0  0  0  0  0
   45.1850    5.4504    9.6456 H   0  0  0  0  0  0  0  0  0  0  0  0
   44.5698    2.5264   10.3755 H   0  0  0  0  0  0  0  0  0  0  0  0
   45.8062    3.4998   11.1506 H   0  0  0  0  0  0  0  0  0  0  0  0
   46.8784    2.1179    9.5080 H   0  0  0  0  0  0  0  0  0  0  0  0
   46.9889    3.7813    8.9631 H   0  0  0  0  0  0  0  0  0  0  0  0
  4  2  1  0
  3  1  1  0
  4  1  1  0
  5  3  2  0
  6  3  1  0
  4  7  1  0
  8  5  1  0
  9  6  2  0
 10  9  1  0
 10  8  2  0
 12 17  1  0
 13 11  2  0
 14 12  2  0
 15 12  1  0
 16 11  1  0
 17 20  1  0
 18 11  1  0
 19 18  1  0
 20 19  1  0
  1 21  1  0
  1 22  1  0
  2 23  1  0
  2 24  1  0
  4 25  1  6
  5 26  1  0
  6 27  1  0
  7 28  1  0
  7 29  1  0
  7 30  1  0
  8 31  1  0
  9 32  1  0
 10 33  1  0
 15 34  1  0
 16 35  1  0
 17 36  1  0
 17 37  1  0
 18 38  1  0
 18 39  1  0
 19 40  1  0
 19 41  1  0
 20 42  1  0
 20 43  1  0
M  END
> <Uni-Dock RESULT> 
ENERGY=   -5.444  LOWER_BOUND=    1.110  UPPER_BOUND=    2.060
INTER + INTRA:          -5.444
INTER:                  -5.444
INTRA:                   0.000
UNBOUND:                 0.000

$$$$

     RDKit          3D

 43 42  0  0  0  0  0  0  0  0999 V2000
   43.6122    4.0681   10.1519 C   0  0  0  0  0  0  0  0  0  0  0  0
   44.7022    6.0092   11.2795 N   0  0  0  0  0  0  0  0  0  0  0  0
   44.6830    3.5485    9.2194 C   0  0  0  0  0  0  0  0  0  0  0  0
   44.1676    4.6533   11.4690 C   0  0  1  0  0  0  0  0  0  0  0  0
   44.9802    2.1792    9.1714 C   0  0  0  0  0  0  0  0  0  0  0  0
   45.4024    4.4260    8.3980 C   0  0  0  0  0  0  0  0  0  0  0  0
   43.0704    4.7030   12.5341 C   0  0  0  0  0  0  0  0  0  0  0  0
   45.9704    1.6985    8.3125 C   0  0  0  0  0  0  0  0  0  0  0  0
   46.3930    3.9445    7.5406 C   0  0  0  0  0  0  0  0  0  0  0  0
   46.6757    2.5808    7.4965 C   0  0  0  0  0  0  0  0  0  0  0  0
   43.5828    5.9429   11.9782 C   0  0  0  0  0  0  0  0  0  0  0  0
   45.8082    2.4971    7.6531 C   0  0  0  0  0  0  0  0  0  0  0  0
   44.0249    6.7696   12.7574 O   0  0  0  0  0  0  0  0  0  0  0  0
   46.4901    3.0698    6.8204 O   0  0  0  0  0  0  0  0  0  0  0  0
   45.8166    1.1551    7.7500 O   0  0  0  0  0  0  0  0  0  0  0  0
   42.3537    5.4209   12.1476 O   0  0  0  0  0  0  0  0  0  0  0  0
   44.9259    3.1496    8.6778 C   0  0  0  0  0  0  0  0  0  0  0  0
   44.2915    5.3820   10.7790 C   0  0  0  0  0  0  0  0  0  0  0  0
   44.8474    3.9951   11.0830 C   0  0  0  0  0  0  0  0  0  0  0  0
   45.7107    3.4286    9.9544 C   0  0  0  0  0  0  0  0  0  0  0  0
   42.9996    4.8109    9.6230 H   0  0  0  0  0  0  0  0  0  0  0  0
   42.9253    3.2416   10.3789 H   0  0  0  0  0  0  0  0  0  0  0  0
   43.9507    6.6440   11.0143 H   0  0  0  0  0  0  0  0  0  0  0  0
   45.0703    6.3564   12.1642 H   0  0  0  0  0  0  0  0  0  0  0  0
   44.9786    4.0153   11.8407 H   0  0  0  0  0  0  0  0  0  0  0  0
   44.4420    1.4767    9.8031 H   0  0  0  0  0  0  0  0  0  0  0  0
   45.2001    5.4944    8.4322 H   0  0  0  0  0  0  0  0  0  0  0  0
   42.2272    5.3255   12.2143 H   0  0  0  0  0  0  0  0  0  0  0  0
   42.6874    3.6977   12.7412 H   0  0  0  0  0  0  0  0  0  0  0  0
   43.4539    5.1088   13.4769 H   0  0  0  0  0  0  0  0  0  0  0  0
   46.1927    0.6353    8.2818 H   0  0  0  0  0  0  0  0  0  0  0  0
   46.9465    4.6361    6.9115 H   0  0  0  0  0  0  0  0  0  0  0  0
   47.4480    2.2071    6.8301 H   0  0  0  0  0  0  0  0  0  0  0  0
   46.4356    0.8684    7.0458 H   0  0  0  0  0  0  0  0  0  0  0  0
   42.0169    5.8635   12.9549 H   0  0  0  0  0  0  0  0  0  0  0  0
   44.0643    2.5009    8.8724 H   0  0  0  0  0  0  0  0  0  0  0  0
   44.5320    4.0713    8.2363 H   0  0  0  0  0  0  0  0  0  0  0  0
   43.5907    5.3686    9.9375 H   0  0  0  0  0  0  0  0  0  0  0  0
   45.0977    6.0740   10.5098 H   0  0  0  0  0  0  0  0  0  0  0  0
   44.0255    3.3023   11.3026 H   0  0  0  0  0  0  0  0  0  0  0  0
   45.4565    4.0438   11.9948 H   0  0  0  0  0  0  0  0  0  0  0  0
   46.1718    2.4967   10.3060 H   0  0  0  0  0  0  0  0  0  0  0  0
   46.5388    4.1155    9.7395 H   0  0  0  0  0  0  0  0  0  0  0  0
  4  2  1  0
  3  1  1  0
  4  1  1  0
  5  3  2  0
  6  3  1  0
  4  7  1  0
  8  5  1  0
  9  6  2  0
 10  9  1  0
 10  8  2  0
 12 17  1  0
 13 11  2  0
 14 12  2  0
 15 12  1  0
 16 11  1  0
 17 20  1  0
 18 11  1  0
 19 18  1  0
 20 19  1  0
  1 21  1  0
  1 22  1  0
  2 23  1  0
  2 24  1  0
  4 25  1  6
  5 26  1  0
  6 27  1  0
  7 28  1  0
  7 29  1  0
  7 30  1  0
  8 31  1  0
  9 32  1  0
 10 33  1  0
 15 34  1  0
 16 35  1  0
 17 36  1  0
 17 37  1  0
 18 38  1  0
 18 39  1  0
 19 40  1  0
 19 41  1  0
 20 42  1  0
 20 43  1  0
M  END
> <Uni-Dock RESULT> 
ENERGY=   -5.369  LOWER_BOUND=    1.624  UPPER_BOUND=    2.777
INTER + INTRA:          -5.369
INTER:                  -5.369
INTRA:                   0.000
UNBOUND:                 0.000

$$$$

     RDKit          3D

 43 42  0  0  0  0  0  0  0  0999 V2000
   45.9868    7.6223   12.4320 C   0  0  0  0  0  0  0  0  0  0  0  0
   48.2750    6.6325   12.3234 N   0  0  0  0  0  0  0  0  0  0  0  0
   45.0939    6.5174   11.9141 C   0  0  0  0  0  0  0  0  0  0  0  0
   47.2130    7.1108   13.2197 C   0  0  1  0  0  0  0  0  0  0  0  0
   43.9290    6.1609   12.6081 C   0  0  0  0  0  0  0  0  0  0  0  0
   45.4212    5.8251   10.7411 C   0  0  0  0  0  0  0  0  0  0  0  0
   47.7807    8.2238   14.1029 C   0  0  0  0  0  0  0  0  0  0  0  0
   43.1051    5.1392   12.1321 C   0  0  0  0  0  0  0  0  0  0  0  0
   44.5973    4.8030   10.2668 C   0  0  0  0  0  0  0  0  0  0  0  0
   43.4387    4.4613   10.9612 C   0  0  0  0  0  0  0  0  0  0  0  0
   48.5467    7.7575   12.9605 C   0  0  0  0  0  0  0  0  0  0  0  0
   43.4147    5.3265   11.1482 C   0  0  0  0  0  0  0  0  0  0  0  0
   49.6813    7.3622   13.1664 O   0  0  0  0  0  0  0  0  0  0  0  0
   43.4777    4.6585   10.1303 O   0  0  0  0  0  0  0  0  0  0  0  0
   42.3381    5.2617   11.9528 O   0  0  0  0  0  0  0  0  0  0  0  0
   48.1451    8.9653   13.3987 O   0  0  0  0  0  0  0  0  0  0  0  0
   44.4772    6.2501   11.6700 C   0  0  0  0  0  0  0  0  0  0  0  0
   47.4597    7.0089   12.2445 C   0  0  0  0  0  0  0  0  0  0  0  0
   46.4809    6.3980   13.2414 C   0  0  0  0  0  0  0  0  0  0  0  0
   45.4339    5.4957   12.5860 C   0  0  0  0  0  0  0  0  0  0  0  0
   46.3000    8.2589   11.5933 H   0  0  0  0  0  0  0  0  0  0  0  0
   45.3837    8.2761   13.0765 H   0  0  0  0  0  0  0  0  0  0  0  0
   48.6333    7.4069   11.7666 H   0  0  0  0  0  0  0  0  0  0  0  0
   49.0598    6.2919   12.8772 H   0  0  0  0  0  0  0  0  0  0  0  0
   46.9118    6.2784   13.8673 H   0  0  0  0  0  0  0  0  0  0  0  0
   43.6548    6.6770   13.5249 H   0  0  0  0  0  0  0  0  0  0  0  0
   46.3296    6.0736   10.1966 H   0  0  0  0  0  0  0  0  0  0  0  0
   48.0953    9.0884   13.5078 H   0  0  0  0  0  0  0  0  0  0  0  0
   47.0298    8.5659   14.8233 H   0  0  0  0  0  0  0  0  0  0  0  0
   48.6468    7.8711   14.6739 H   0  0  0  0  0  0  0  0  0  0  0  0
   42.2038    4.8709   12.6765 H   0  0  0  0  0  0  0  0  0  0  0  0
   44.8644    4.2711    9.3578 H   0  0  0  0  0  0  0  0  0  0  0  0
   42.7989    3.6645   10.5922 H   0  0  0  0  0  0  0  0  0  0  0  0
   41.7447    4.6213   11.5070 H   0  0  0  0  0  0  0  0  0  0  0  0
   48.9377    9.3319   13.8442 H   0  0  0  0  0  0  0  0  0  0  0  0
   43.9986    7.0856   12.1935 H   0  0  0  0  0  0  0  0  0  0  0  0
   44.9976    6.6772   10.8061 H   0  0  0  0  0  0  0  0  0  0  0  0
   46.9644    7.6967   11.5510 H   0  0  0  0  0  0  0  0  0  0  0  0
   47.9321    6.2295   11.6355 H   0  0  0  0  0  0  0  0  0  0  0  0
   45.9804    7.1923   13.8092 H   0  0  0  0  0  0  0  0  0  0  0  0
   47.0398    5.8043   13.9762 H   0  0  0  0  0  0  0  0  0  0  0  0
   44.8595    4.9998   13.3789 H   0  0  0  0  0  0  0  0  0  0  0  0
   45.9323    4.6950   12.0252 H   0  0  0  0  0  0  0  0  0  0  0  0
  4  2  1  0
  3  1  1  0
  4  1  1  0
  5  3  2  0
  6  3  1  0
  4  7  1  0
  8  5  1  0
  9  6  2  0
 10  9  1  0
 10  8  2  0
 12 17  1  0
 13 11  2  0
 14 12  2  0
 15 12  1  0
 16 11  1  0
 17 20  1  0
 18 11  1  0
 19 18  1  0
 20 19  1  0
  1 21  1  0
  1 22  1  0
  2 23  1  0
  2 24  1  0
  4 25  1  6
  5 26  1  0
  6 27  1  0
  7 28  1  0
  7 29  1  0
  7 30  1  0
  8 31  1  0
  9 32  1  0
 10 33  1  0
 15 34  1  0
 16 35  1  0
 17 36  1  0
 17 37  1  0
 18 38  1  0
 18 39  1  0
 19 40  1  0
 19 41  1  0
 20 42  1  0
 20 43  1  0
M  END
> <Uni-Dock RESULT> 
ENERGY=   -5.058  LOWER_BOUND=    4.175  UPPER_BOUND=    6.421
INTER + INTRA:          -5.058
INTER:                  -5.058
INTRA:                   0.000
UNBOUND:                 0.000

$$$$

     RDKit          3D

 43 42  0  0  0  0  0  0  0  0999 V2000
   46.6899    6.5132   11.4841 C   0  0  0  0  0  0  0  0  0  0  0  0
   47.9822    6.3290   13.6109 N   0  0  0  0  0  0  0  0  0  0  0  0
   45.3379    5.9346   11.8356 C   0  0  0  0  0  0  0  0  0  0  0  0
   47.3679    7.2600   12.6538 C   0  0  1  0  0  0  0  0  0  0  0  0
   44.1618    6.6131   11.4861 C   0  0  0  0  0  0  0  0  0  0  0  0
   45.2382    4.7192   12.5250 C   0  0  0  0  0  0  0  0  0  0  0  0
   48.4488    8.2059   12.1266 C   0  0  0  0  0  0  0  0  0  0  0  0
   42.9130    6.0810   11.8122 C   0  0  0  0  0  0  0  0  0  0  0  0
   43.9891    4.1888   12.8516 C   0  0  0  0  0  0  0  0  0  0  0  0
   42.8267    4.8686   12.4937 C   0  0  0  0  0  0  0  0  0  0  0  0
   48.8366    7.0320   12.8889 C   0  0  0  0  0  0  0  0  0  0  0  0
   43.3033    5.1084   11.7869 C   0  0  0  0  0  0  0  0  0  0  0  0
   49.5249    7.2058   13.8799 O   0  0  0  0  0  0  0  0  0  0  0  0
   42.9979    4.0511   12.3116 O   0  0  0  0  0  0  0  0  0  0  0  0
   42.3650    5.9147   11.2577 O   0  0  0  0  0  0  0  0  0  0  0  0
   49.1967    7.5460   11.6980 O   0  0  0  0  0  0  0  0  0  0  0  0
   44.6881    5.6786   11.6815 C   0  0  0  0  0  0  0  0  0  0  0  0
   47.5390    6.2787   12.8275 C   0  0  0  0  0  0  0  0  0  0  0  0
   46.3578    7.2428   12.8090 C   0  0  0  0  0  0  0  0  0  0  0  0
   45.0020    6.5404   12.8990 C   0  0  0  0  0  0  0  0  0  0  0  0
   47.3393    5.7130   11.1037 H   0  0  0  0  0  0  0  0  0  0  0  0
   46.5585    7.2005   10.6374 H   0  0  0  0  0  0  0  0  0  0  0  0
   48.7397    5.8183   13.1600 H   0  0  0  0  0  0  0  0  0  0  0  0
   48.4070    6.8558   14.3730 H   0  0  0  0  0  0  0  0  0  0  0  0
   46.6205    7.8574   13.1900 H   0  0  0  0  0  0  0  0  0  0  0  0
   44.2102    7.5616   10.9567 H   0  0  0  0  0  0  0  0  0  0  0  0
   46.1383    4.1850   12.8213 H   0  0  0  0  0  0  0  0  0  0  0  0
   49.2243    7.6627   11.5749 H   0  0  0  0  0  0  0  0  0  0  0  0
   48.0141    8.9509   11.4513 H   0  0  0  0  0  0  0  0  0  0  0  0
   48.9322    8.7484   12.9467 H   0  0  0  0  0  0  0  0  0  0  0  0
   42.0071    6.6139   11.5360 H   0  0  0  0  0  0  0  0  0  0  0  0
   43.9256    3.2472   13.3900 H   0  0  0  0  0  0  0  0  0  0  0  0
   41.8549    4.4558   12.7498 H   0  0  0  0  0  0  0  0  0  0  0  0
   41.5239    5.4344   11.4095 H   0  0  0  0  0  0  0  0  0  0  0  0
   50.0412    8.0078   11.8843 H   0  0  0  0  0  0  0  0  0  0  0  0
   44.7672    6.2554   10.7529 H   0  0  0  0  0  0  0  0  0  0  0  0
   45.3855    4.8391   11.5903 H   0  0  0  0  0  0  0  0  0  0  0  0
   47.5556    5.6319   11.9440 H   0  0  0  0  0  0  0  0  0  0  0  0
   47.4901    5.6201   13.7023 H   0  0  0  0  0  0  0  0  0  0  0  0
   46.3939    7.8615   11.9036 H   0  0  0  0  0  0  0  0  0  0  0  0
   46.4464    7.9362   13.6553 H   0  0  0  0  0  0  0  0  0  0  0  0
   44.2229    7.3052   13.0109 H   0  0  0  0  0  0  0  0  0  0  0  0
   44.9604    5.9284   13.8088 H   0  0  0  0  0  0  0  0  0  0  0  0
  4  2  1  0
  3  1  1  0
  4  1  1  0
  5  3  2  0
  6  3  1  0
  4  7  1  0
  8  5  1  0
  9  6  2  0
 10  9  1  0
 10  8  2  0
 12 17  1  0
 13 11  2  0
 14 12  2  0
 15 12  1  0
 16 11  1  0
 17 20  1  0
 18 11  1  0
 19 18  1  0
 20 19  1  0
  1 21  1  0
  1 22  1  0
  2 23  1  0
  2 24  1  0
  4 25  1  6
  5 26  1  0
  6 27  1  0
  7 28  1  0
  7 29  1  0
  7 30  1  0
  8 31  1  0
  9 32  1  0
 10 33  1  0
 15 34  1  0
 16 35  1  0
 17 36  1  0
 17 37  1  0
 18 38  1  0
 18 39  1  0
 19 40  1  0
 19 41  1  0
 20 42  1  0
 20 43  1  0
M  END
> <Uni-Dock RESULT> 
ENERGY=   -5.006  LOWER_BOUND=    5.281  UPPER_BOUND=    6.592
INTER + INTRA:          -5.006
INTER:                  -5.006
INTRA:                   0.000
UNBOUND:                 0.000

$$$$

     RDKit          3D

 43 42  0  0  0  0  0  0  0  0999 V2000
   46.4721    5.8097   13.6035 C   0  0  0  0  0  0  0  0  0  0  0  0
   46.6513    8.1097   12.6520 N   0  0  0  0  0  0  0  0  0  0  0  0
   45.2808    5.2171   12.8852 C   0  0  0  0  0  0  0  0  0  0  0  0
   47.2933    6.7904   12.7377 C   0  0  1  0  0  0  0  0  0  0  0  0
   45.3579    3.9377   12.3170 C   0  0  0  0  0  0  0  0  0  0  0  0
   44.0866    5.9396   12.7658 C   0  0  0  0  0  0  0  0  0  0  0  0
   48.6982    6.9652   13.3180 C   0  0  0  0  0  0  0  0  0  0  0  0
   44.2593    3.3905   11.6515 C   0  0  0  0  0  0  0  0  0  0  0  0
   42.9894    5.3919   12.0992 C   0  0  0  0  0  0  0  0  0  0  0  0
   43.0751    4.1170   11.5437 C   0  0  0  0  0  0  0  0  0  0  0  0
   47.7623    8.0747   13.3661 C   0  0  0  0  0  0  0  0  0  0  0  0
   43.6014    3.9581   12.2379 C   0  0  0  0  0  0  0  0  0  0  0  0
   48.1127    9.1295   12.8654 O   0  0  0  0  0  0  0  0  0  0  0  0
   42.4683    4.3813   12.0847 O   0  0  0  0  0  0  0  0  0  0  0  0
   43.9258    2.7028   11.8780 O   0  0  0  0  0  0  0  0  0  0  0  0
   48.5344    7.4506   14.2751 O   0  0  0  0  0  0  0  0  0  0  0  0
   44.7693    4.7279   12.7836 C   0  0  0  0  0  0  0  0  0  0  0  0
   46.4981    7.3228   13.0641 C   0  0  0  0  0  0  0  0  0  0  0  0
   46.7785    6.1545   12.1252 C   0  0  0  0  0  0  0  0  0  0  0  0
   45.5114    5.4371   11.6567 C   0  0  0  0  0  0  0  0  0  0  0  0
   46.1333    6.2960   14.5283 H   0  0  0  0  0  0  0  0  0  0  0  0
   47.1173    4.9848   13.9349 H   0  0  0  0  0  0  0  0  0  0  0  0
   46.6248    8.5427   13.5739 H   0  0  0  0  0  0  0  0  0  0  0  0
   47.2133    8.7240   12.0641 H   0  0  0  0  0  0  0  0  0  0  0  0
   47.3890    6.3904   11.7209 H   0  0  0  0  0  0  0  0  0  0  0  0
   46.2748    3.3578   12.3889 H   0  0  0  0  0  0  0  0  0  0  0  0
   44.0110    6.9410   13.1840 H   0  0  0  0  0  0  0  0  0  0  0  0
   48.6650    7.3595   14.3399 H   0  0  0  0  0  0  0  0  0  0  0  0
   49.2273    6.0064   13.3440 H   0  0  0  0  0  0  0  0  0  0  0  0
   49.2943    7.6528   12.7078 H   0  0  0  0  0  0  0  0  0  0  0  0
   44.3285    2.3977   11.2153 H   0  0  0  0  0  0  0  0  0  0  0  0
   42.0701    5.9642   12.0101 H   0  0  0  0  0  0  0  0  0  0  0  0
   42.2211    3.6922   11.0236 H   0  0  0  0  0  0  0  0  0  0  0  0
   43.0886    2.3302   11.5296 H   0  0  0  0  0  0  0  0  0  0  0  0
   49.3135    8.0383   14.3685 H   0  0  0  0  0  0  0  0  0  0  0  0
   45.4287    4.0401   13.3251 H   0  0  0  0  0  0  0  0  0  0  0  0
   44.3815    5.4381   13.5216 H   0  0  0  0  0  0  0  0  0  0  0  0
   46.0570    6.9927   14.0106 H   0  0  0  0  0  0  0  0  0  0  0  0
   45.7886    8.0247   12.6108 H   0  0  0  0  0  0  0  0  0  0  0  0
   47.4510    5.4367   12.6114 H   0  0  0  0  0  0  0  0  0  0  0  0
   47.3149    6.5241   11.2417 H   0  0  0  0  0  0  0  0  0  0  0  0
   45.7925    4.7029   10.8909 H   0  0  0  0  0  0  0  0  0  0  0  0
   44.8415    6.1514   11.1618 H   0  0  0  0  0  0  0  0  0  0  0  0
  4  2  1  0
  3  1  1  0
  4  1  1  0
  5  3  2  0
  6  3  1  0
  4  7  1  0
  8  5  1  0
  9  6  2  0
 10  9  1  0
 10  8  2  0
 12 17  1  0
 13 11  2  0
 14 12  2  0
 15 12  1  0
 16 11  1  0
 17 20  1  0
 18 11  1  0
 19 18  1  0
 20 19  1  0
  1 21  1  0
  1 22  1  0
  2 23  1  0
  2 24  1  0
  4 25  1  6
  5 26  1  0
  6 27  1  0
  7 28  1  0
  7 29  1  0
  7 30  1  0
  8 31  1  0
  9 32  1  0
 10 33  1  0
 15 34  1  0
 16 35  1  0
 17 36  1  0
 17 37  1  0
 18 38  1  0
 18 39  1  0
 19 40  1  0
 19 41  1  0
 20 42  1  0
 20 43  1  0
M  END
> <Uni-Dock RESULT> 
ENERGY=   -4.732  LOWER_BOUND=    4.826  UPPER_BOUND=    6.490
INTER + INTRA:          -4.732
INTER:                  -4.732
INTRA:                   0.000
UNBOUND:                 0.000

$$$$

     RDKit          3D

 43 42  0  0  0  0  0  0  0  0999 V2000
   45.6620    6.1876   11.2089 C   0  0  0  0  0  0  0  0  0  0  0  0
   43.4212    6.2469   12.3055 N   0  0  0  0  0  0  0  0  0  0  0  0
   46.5647    6.8851   12.2014 C   0  0  0  0  0  0  0  0  0  0  0  0
   44.5234    5.3785   11.8684 C   0  0  1  0  0  0  0  0  0  0  0  0
   47.7936    6.3169   12.5656 C   0  0  0  0  0  0  0  0  0  0  0  0
   46.1838    8.1021   12.7810 C   0  0  0  0  0  0  0  0  0  0  0  0
   43.9715    4.3405   10.8892 C   0  0  0  0  0  0  0  0  0  0  0  0
   48.6268    6.9589   13.4837 C   0  0  0  0  0  0  0  0  0  0  0  0
   47.0171    8.7424   13.6996 C   0  0  0  0  0  0  0  0  0  0  0  0
   48.2391    8.1718   14.0496 C   0  0  0  0  0  0  0  0  0  0  0  0
   43.1451    5.4718   11.2718 C   0  0  0  0  0  0  0  0  0  0  0  0
   48.2362    7.8923   13.2094 C   0  0  0  0  0  0  0  0  0  0  0  0
   42.0489    5.2331   11.7486 O   0  0  0  0  0  0  0  0  0  0  0  0
   48.1289    8.9711   13.7671 O   0  0  0  0  0  0  0  0  0  0  0  0
   49.3717    7.1760   13.3008 O   0  0  0  0  0  0  0  0  0  0  0  0
   43.5210    4.9313   10.0977 O   0  0  0  0  0  0  0  0  0  0  0  0
   47.1734    7.1993   12.4067 C   0  0  0  0  0  0  0  0  0  0  0  0
   44.2097    6.3397   11.8787 C   0  0  0  0  0  0  0  0  0  0  0  0
   45.2878    5.4866   12.5381 C   0  0  0  0  0  0  0  0  0  0  0  0
   46.3242    6.3086   13.3062 C   0  0  0  0  0  0  0  0  0  0  0  0
   45.2575    6.9269   10.5044 H   0  0  0  0  0  0  0  0  0  0  0  0
   46.2801    5.5178   10.5958 H   0  0  0  0  0  0  0  0  0  0  0  0
   42.9862    6.6884   11.4969 H   0  0  0  0  0  0  0  0  0  0  0  0
   42.6967    5.6812   12.7460 H   0  0  0  0  0  0  0  0  0  0  0  0
   44.9109    4.8495   12.7476 H   0  0  0  0  0  0  0  0  0  0  0  0
   48.1109    5.3697   12.1363 H   0  0  0  0  0  0  0  0  0  0  0  0
   45.2266    8.5517   12.5258 H   0  0  0  0  0  0  0  0  0  0  0  0
   43.5730    4.8130    9.9844 H   0  0  0  0  0  0  0  0  0  0  0  0
   44.7572    3.6401   10.5855 H   0  0  0  0  0  0  0  0  0  0  0  0
   43.1680    3.7536   11.3480 H   0  0  0  0  0  0  0  0  0  0  0  0
   49.5779    6.5111   13.7588 H   0  0  0  0  0  0  0  0  0  0  0  0
   46.7082    9.6841   14.1450 H   0  0  0  0  0  0  0  0  0  0  0  0
   48.8863    8.6701   14.7660 H   0  0  0  0  0  0  0  0  0  0  0  0
   49.9597    7.7300   13.8562 H   0  0  0  0  0  0  0  0  0  0  0  0
   42.7475    4.3943    9.8249 H   0  0  0  0  0  0  0  0  0  0  0  0
   47.6499    6.6208   11.6071 H   0  0  0  0  0  0  0  0  0  0  0  0
   46.5705    7.9725   11.9188 H   0  0  0  0  0  0  0  0  0  0  0  0
   44.6189    6.9853   11.0944 H   0  0  0  0  0  0  0  0  0  0  0  0
   43.7303    6.9972   12.6131 H   0  0  0  0  0  0  0  0  0  0  0  0
   45.7913    4.8702   11.7829 H   0  0  0  0  0  0  0  0  0  0  0  0
   44.8139    4.7852   13.2369 H   0  0  0  0  0  0  0  0  0  0  0  0
   46.9789    5.6171   13.8519 H   0  0  0  0  0  0  0  0  0  0  0  0
   45.8236    6.9188   14.0684 H   0  0  0  0  0  0  0  0  0  0  0  0
  4  2  1  0
  3  1  1  0
  4  1  1  0
  5  3  2  0
  6  3  1  0
  4  7  1  0
  8  5  1  0
  9  6  2  0
 10  9  1  0
 10  8  2  0
 12 17  1  0
 13 11  2  0
 14 12  2  0
 15 12  1  0
 16 11  1  0
 17 20  1  0
 18 11  1  0
 19 18  1  0
 20 19  1  0
  1 21  1  0
  1 22  1  0
  2 23  1  0
  2 24  1  0
  4 25  1  6
  5 26  1  0
  6 27  1  0
  7 28  1  0
  7 29  1  0
  7 30  1  0
  8 31  1  0
  9 32  1  0
 10 33  1  0
 15 34  1  0
 16 35  1  0
 17 36  1  0
 17 37  1  0
 18 38  1  0
 18 39  1  0
 19 40  1  0
 19 41  1  0
 20 42  1  0
 20 43  1  0
M  END
> <Uni-Dock RESULT> 
ENERGY=   -4.664  LOWER_BOUND=    4.410  UPPER_BOUND=    6.628
INTER + INTRA:          -4.664
INTER:                  -4.664
INTRA:                   0.000
UNBOUND:                 0.000

$$$$

     RDKit          3D

 43 42  0  0  0  0  0  0  0  0999 V2000
   44.7238    6.5575   12.8737 C   0  0  0  0  0  0  0  0  0  0  0  0
   44.6067    4.2030   12.0551 N   0  0  0  0  0  0  0  0  0  0  0  0
   46.2002    6.8802   12.8254 C   0  0  0  0  0  0  0  0  0  0  0  0
   44.2614    5.5995   11.7538 C   0  0  1  0  0  0  0  0  0  0  0  0
   46.6479    8.0746   12.2433 C   0  0  0  0  0  0  0  0  0  0  0  0
   47.1441    5.9878   13.3497 C   0  0  0  0  0  0  0  0  0  0  0  0
   42.7472    5.6995   11.5590 C   0  0  0  0  0  0  0  0  0  0  0  0
   48.0111    8.3725   12.1960 C   0  0  0  0  0  0  0  0  0  0  0  0
   48.5068    6.2862   13.3007 C   0  0  0  0  0  0  0  0  0  0  0  0
   48.9401    7.4790   12.7256 C   0  0  0  0  0  0  0  0  0  0  0  0
   43.3173    4.4848   12.1146 C   0  0  0  0  0  0  0  0  0  0  0  0
   48.1827    7.7976   13.0556 C   0  0  0  0  0  0  0  0  0  0  0  0
   43.0658    3.4345   11.5492 O   0  0  0  0  0  0  0  0  0  0  0  0
   49.1463    7.2034   13.5080 O   0  0  0  0  0  0  0  0  0  0  0  0
   48.3134    9.0297   12.5308 O   0  0  0  0  0  0  0  0  0  0  0  0
   42.3318    5.3221   12.4883 O   0  0  0  0  0  0  0  0  0  0  0  0
   46.7772    7.2757   12.9738 C   0  0  0  0  0  0  0  0  0  0  0  0
   44.6832    5.0068   12.4561 C   0  0  0  0  0  0  0  0  0  0  0  0
   45.1167    6.0733   11.4563 C   0  0  0  0  0  0  0  0  0  0  0  0
   46.5597    6.5397   11.6568 C   0  0  0  0  0  0  0  0  0  0  0  0
   44.4735    6.1506   13.8629 H   0  0  0  0  0  0  0  0  0  0  0  0
   44.1648    7.5005   12.8035 H   0  0  0  0  0  0  0  0  0  0  0  0
   44.1009    3.8920   12.8831 H   0  0  0  0  0  0  0  0  0  0  0  0
   44.2985    3.6039   11.2904 H   0  0  0  0  0  0  0  0  0  0  0  0
   44.7481    5.8758   10.8106 H   0  0  0  0  0  0  0  0  0  0  0  0
   45.9374    8.7820   11.8226 H   0  0  0  0  0  0  0  0  0  0  0  0
   46.8197    5.0474   13.7900 H   0  0  0  0  0  0  0  0  0  0  0  0
   42.2057    5.4382   12.4752 H   0  0  0  0  0  0  0  0  0  0  0  0
   42.4605    6.7185   11.2773 H   0  0  0  0  0  0  0  0  0  0  0  0
   42.4072    5.0302   10.7609 H   0  0  0  0  0  0  0  0  0  0  0  0
   48.3481    9.3013   11.7437 H   0  0  0  0  0  0  0  0  0  0  0  0
   49.2290    5.5837   13.7075 H   0  0  0  0  0  0  0  0  0  0  0  0
   50.0010    7.7097   12.6864 H   0  0  0  0  0  0  0  0  0  0  0  0
   49.2668    9.2334   12.6338 H   0  0  0  0  0  0  0  0  0  0  0  0
   41.5120    4.8666   12.2027 H   0  0  0  0  0  0  0  0  0  0  0  0
   46.0784    8.1128   13.0836 H   0  0  0  0  0  0  0  0  0  0  0  0
   46.6179    6.6182   13.8350 H   0  0  0  0  0  0  0  0  0  0  0  0
   44.6611    5.3897   13.4819 H   0  0  0  0  0  0  0  0  0  0  0  0
   45.3792    4.1601   12.4482 H   0  0  0  0  0  0  0  0  0  0  0  0
   44.4393    6.9346   11.5105 H   0  0  0  0  0  0  0  0  0  0  0  0
   45.0195    5.6730   10.4389 H   0  0  0  0  0  0  0  0  0  0  0  0
   46.8279    7.2023   10.8239 H   0  0  0  0  0  0  0  0  0  0  0  0
   47.2398    5.6811   11.5936 H   0  0  0  0  0  0  0  0  0  0  0  0
  4  2  1  0
  3  1  1  0
  4  1  1  0
  5  3  2  0
  6  3  1  0
  4  7  1  0
  8  5  1  0
  9  6  2  0
 10  9  1  0
 10  8  2  0
 12 17  1  0
 13 11  2  0
 14 12  2  0
 15 12  1  0
 16 11  1  0
 17 20  1  0
 18 11  1  0
 19 18  1  0
 20 19  1  0
  1 21  1  0
  1 22  1  0
  2 23  1  0
  2 24  1  0
  4 25  1  6
  5 26  1  0
  6 27  1  0
  7 28  1  0
  7 29  1  0
  7 30  1  0
  8 31  1  0
  9 32  1  0
 10 33  1  0
 15 34  1  0
 16 35  1  0
 17 36  1  0
 17 37  1  0
 18 38  1  0
 18 39  1  0
 19 40  1  0
 19 41  1  0
 20 42  1  0
 20 43  1  0
M  END
> <Uni-Dock RESULT> 
ENERGY=   -4.545  LOWER_BOUND=    5.044  UPPER_BOUND=    6.174
INTER + INTRA:          -4.545
INTER:                  -4.545
INTRA:                   0.000
UNBOUND:                 0.000

$$$$
