
     RDKit          3D

 43 42  0  0  0  0  0  0  0  0999 V2000
   44.3783    3.5027    8.5599 C   0  0  0  0  0  0  0  0  0  0  0  0
   43.4567    5.1329   10.1607 N   0  0  0  0  0  0  0  0  0  0  0  0
   45.6082    2.9371    7.8874 C   0  0  0  0  0  0  0  0  0  0  0  0
   44.6964    4.4900    9.7020 C   0  0  1  0  0  0  0  0  0  0  0  0
   46.3718    3.7289    7.0184 C   0  0  0  0  0  0  0  0  0  0  0  0
   46.0061    1.6150    8.1276 C   0  0  0  0  0  0  0  0  0  0  0  0
   45.3543    3.8013   10.8982 C   0  0  0  0  0  0  0  0  0  0  0  0
   47.5119    3.2084    6.4043 C   0  0  0  0  0  0  0  0  0  0  0  0
   47.1468    1.0965    7.5126 C   0  0  0  0  0  0  0  0  0  0  0  0
   47.8994    1.8930    6.6519 C   0  0  0  0  0  0  0  0  0  0  0  0
   47.3248    1.9249    6.3601 C   0  0  0  0  0  0  0  0  0  0  0  0
   43.7980    4.6152   10.8542 C   0  0  0  0  0  0  0  0  0  0  0  0
   46.7848    0.8377    6.2542 O   0  0  0  0  0  0  0  0  0  0  0  0
   42.9751    5.4848   10.6239 O   0  0  0  0  0  0  0  0  0  0  0  0
   44.5135    4.6253   11.9942 O   0  0  0  0  0  0  0  0  0  0  0  0
   48.3870    2.2407    5.5932 O   0  0  0  0  0  0  0  0  0  0  0  0
   44.1614    3.4738    9.9499 C   0  0  0  0  0  0  0  0  0  0  0  0
   46.9527    3.0476    7.2903 C   0  0  0  0  0  0  0  0  0  0  0  0
   45.7421    2.6892    8.1503 C   0  0  0  0  0  0  0  0  0  0  0  0
   45.3701    3.8321    9.0939 C   0  0  0  0  0  0  0  0  0  0  0  0
   43.7806    4.0057    7.7870 H   0  0  0  0  0  0  0  0  0  0  0  0
   43.7476    2.6844    8.9327 H   0  0  0  0  0  0  0  0  0  0  0  0
   43.0466    5.6680    9.3960 H   0  0  0  0  0  0  0  0  0  0  0  0
   43.6743    5.8060   10.8948 H   0  0  0  0  0  0  0  0  0  0  0  0
   45.3692    5.2761    9.3386 H   0  0  0  0  0  0  0  0  0  0  0  0
   46.0805    4.7562    6.8122 H   0  0  0  0  0  0  0  0  0  0  0  0
   45.4305    0.9809    8.7983 H   0  0  0  0  0  0  0  0  0  0  0  0
   45.5310    4.5129   11.7129 H   0  0  0  0  0  0  0  0  0  0  0  0
   46.3263    3.3780   10.6256 H   0  0  0  0  0  0  0  0  0  0  0  0
   44.7289    2.9907   11.2889 H   0  0  0  0  0  0  0  0  0  0  0  0
   48.0973    3.8291    5.7311 H   0  0  0  0  0  0  0  0  0  0  0  0
   47.4477    0.0702    7.7058 H   0  0  0  0  0  0  0  0  0  0  0  0
   48.7869    1.4879    6.1730 H   0  0  0  0  0  0  0  0  0  0  0  0
   44.1859    5.4149   12.4739 H   0  0  0  0  0  0  0  0  0  0  0  0
   48.5272    1.4430    5.0411 H   0  0  0  0  0  0  0  0  0  0  0  0
   43.2901    3.2467    9.3249 H   0  0  0  0  0  0  0  0  0  0  0  0
   44.3512    2.5825   10.5590 H   0  0  0  0  0  0  0  0  0  0  0  0
   46.7293    3.9335    6.6855 H   0  0  0  0  0  0  0  0  0  0  0  0
   47.8148    3.2603    7.9319 H   0  0  0  0  0  0  0  0  0  0  0  0
   44.8882    2.4504    7.5038 H   0  0  0  0  0  0  0  0  0  0  0  0
   45.9580    1.7847    8.7328 H   0  0  0  0  0  0  0  0  0  0  0  0
   45.1548    4.7380    8.5133 H   0  0  0  0  0  0  0  0  0  0  0  0
   46.2236    4.0714    9.7403 H   0  0  0  0  0  0  0  0  0  0  0  0
  4  2  1  0
  3  1  1  0
  4  1  1  0
  5  3  2  0
  6  3  1  0
  4  7  1  0
  8  5  1  0
  9  6  2  0
 10  9  1  0
 10  8  2  0
 12 17  1  0
 13 11  2  0
 14 12  2  0
 15 12  1  0
 16 11  1  0
 17 20  1  0
 18 11  1  0
 19 18  1  0
 20 19  1  0
  1 21  1  0
  1 22  1  0
  2 23  1  0
  2 24  1  0
  4 25  1  1
  5 26  1  0
  6 27  1  0
  7 28  1  0
  7 29  1  0
  7 30  1  0
  8 31  1  0
  9 32  1  0
 10 33  1  0
 15 34  1  0
 16 35  1  0
 17 36  1  0
 17 37  1  0
 18 38  1  0
 18 39  1  0
 19 40  1  0
 19 41  1  0
 20 42  1  0
 20 43  1  0
M  END
> <Uni-Dock RESULT> 
ENERGY=   -8.738  LOWER_BOUND=    0.000  UPPER_BOUND=    0.000
INTER + INTRA:          -8.738
INTER:                  -8.738
INTRA:                   0.000
UNBOUND:                 0.000

$$$$

     RDKit          3D

 43 42  0  0  0  0  0  0  0  0999 V2000
   44.6529    2.8302    8.5381 C   0  0  0  0  0  0  0  0  0  0  0  0
   46.3812    2.0702    6.9555 N   0  0  0  0  0  0  0  0  0  0  0  0
   44.3436    3.4849    9.8649 C   0  0  0  0  0  0  0  0  0  0  0  0
   46.1446    2.8945    8.1492 C   0  0  1  0  0  0  0  0  0  0  0  0
   44.7057    2.8619   11.0674 C   0  0  0  0  0  0  0  0  0  0  0  0
   43.6959    4.7268    9.9119 C   0  0  0  0  0  0  0  0  0  0  0  0
   46.6052    4.3215    7.8496 C   0  0  0  0  0  0  0  0  0  0  0  0
   44.4271    3.4711   12.2920 C   0  0  0  0  0  0  0  0  0  0  0  0
   43.4185    5.3344   11.1374 C   0  0  0  0  0  0  0  0  0  0  0  0
   43.7844    4.7070   12.3267 C   0  0  0  0  0  0  0  0  0  0  0  0
   43.4119    4.2479   12.0680 C   0  0  0  0  0  0  0  0  0  0  0  0
   46.5480    2.9600    6.7409 C   0  0  0  0  0  0  0  0  0  0  0  0
   42.3621    4.6811   11.6262 O   0  0  0  0  0  0  0  0  0  0  0  0
   46.7113    1.8270    6.3213 O   0  0  0  0  0  0  0  0  0  0  0  0
   47.4975    3.9002    6.5794 O   0  0  0  0  0  0  0  0  0  0  0  0
   43.6109    4.1574   13.3978 O   0  0  0  0  0  0  0  0  0  0  0  0
   45.3525    3.4646    7.4949 C   0  0  0  0  0  0  0  0  0  0  0  0
   44.6057    3.7654   11.2894 C   0  0  0  0  0  0  0  0  0  0  0  0
   44.3718    3.8604    9.7828 C   0  0  0  0  0  0  0  0  0  0  0  0
   45.5878    3.3708    8.9975 C   0  0  0  0  0  0  0  0  0  0  0  0
   44.3288    1.7822    8.6030 H   0  0  0  0  0  0  0  0  0  0  0  0
   44.0368    3.2798    7.7478 H   0  0  0  0  0  0  0  0  0  0  0  0
   46.1586    1.0973    7.1630 H   0  0  0  0  0  0  0  0  0  0  0  0
   47.3727    2.0913    6.7188 H   0  0  0  0  0  0  0  0  0  0  0  0
   46.7598    2.4931    8.9634 H   0  0  0  0  0  0  0  0  0  0  0  0
   45.2046    1.8957   11.0571 H   0  0  0  0  0  0  0  0  0  0  0  0
   43.4056    5.2304    8.9925 H   0  0  0  0  0  0  0  0  0  0  0  0
   47.6547    4.3374    7.5339 H   0  0  0  0  0  0  0  0  0  0  0  0
   46.5277    4.9569    8.7376 H   0  0  0  0  0  0  0  0  0  0  0  0
   46.0070    4.7778    7.0528 H   0  0  0  0  0  0  0  0  0  0  0  0
   44.7103    2.9803   13.2194 H   0  0  0  0  0  0  0  0  0  0  0  0
   42.9165    6.2979   11.1635 H   0  0  0  0  0  0  0  0  0  0  0  0
   43.5670    5.1806   13.2804 H   0  0  0  0  0  0  0  0  0  0  0  0
   48.2100    3.4374    6.0904 H   0  0  0  0  0  0  0  0  0  0  0  0
   42.7768    4.4950   13.7866 H   0  0  0  0  0  0  0  0  0  0  0  0
   44.4853    2.8653    7.1944 H   0  0  0  0  0  0  0  0  0  0  0  0
   45.1441    4.4951    7.1850 H   0  0  0  0  0  0  0  0  0  0  0  0
   44.7995    2.7242   11.5702 H   0  0  0  0  0  0  0  0  0  0  0  0
   45.4685    4.3787   11.5713 H   0  0  0  0  0  0  0  0  0  0  0  0
   43.4907    3.2668    9.5083 H   0  0  0  0  0  0  0  0  0  0  0  0
   44.1489    4.8993    9.5087 H   0  0  0  0  0  0  0  0  0  0  0  0
   45.8131    2.3323    9.2710 H   0  0  0  0  0  0  0  0  0  0  0  0
   46.4691    3.9639    9.2719 H   0  0  0  0  0  0  0  0  0  0  0  0
  4  2  1  0
  3  1  1  0
  4  1  1  0
  5  3  2  0
  6  3  1  0
  4  7  1  0
  8  5  1  0
  9  6  2  0
 10  9  1  0
 10  8  2  0
 12 17  1  0
 13 11  2  0
 14 12  2  0
 15 12  1  0
 16 11  1  0
 17 20  1  0
 18 11  1  0
 19 18  1  0
 20 19  1  0
  1 21  1  0
  1 22  1  0
  2 23  1  0
  2 24  1  0
  4 25  1  1
  5 26  1  0
  6 27  1  0
  7 28  1  0
  7 29  1  0
  7 30  1  0
  8 31  1  0
  9 32  1  0
 10 33  1  0
 15 34  1  0
 16 35  1  0
 17 36  1  0
 17 37  1  0
 18 38  1  0
 18 39  1  0
 19 40  1  0
 19 41  1  0
 20 42  1  0
 20 43  1  0
M  END
> <Uni-Dock RESULT> 
ENERGY=   -6.191  LOWER_BOUND=    1.647  UPPER_BOUND=    5.424
INTER + INTRA:          -6.191
INTER:                  -6.191
INTRA:                   0.000
UNBOUND:                 0.000

$$$$
