
     RDKit          3D

 43 42  0  0  0  0  0  0  0  0999 V2000
   45.5489    2.6633    6.9592 C   0  0  0  0  0  0  0  0  0  0  0  0
   47.7847    1.6368    7.3781 N   0  0  0  0  0  0  0  0  0  0  0  0
   45.1021    3.1192    8.3299 C   0  0  0  0  0  0  0  0  0  0  0  0
   47.0754    2.7560    6.7422 C   0  0  1  0  0  0  0  0  0  0  0  0
   44.5921    4.4116    8.5178 C   0  0  0  0  0  0  0  0  0  0  0  0
   45.2007    2.2636    9.4347 C   0  0  0  0  0  0  0  0  0  0  0  0
   47.4015    2.7575    5.2472 C   0  0  0  0  0  0  0  0  0  0  0  0
   44.1814    4.8345    9.7834 C   0  0  0  0  0  0  0  0  0  0  0  0
   44.7907    2.6878   10.6998 C   0  0  0  0  0  0  0  0  0  0  0  0
   44.2796    3.9723   10.8737 C   0  0  0  0  0  0  0  0  0  0  0  0
   45.4269    4.4711    9.1063 C   0  0  0  0  0  0  0  0  0  0  0  0
   47.1553    2.9588    6.4439 C   0  0  0  0  0  0  0  0  0  0  0  0
   46.2437    5.2791    8.6948 O   0  0  0  0  0  0  0  0  0  0  0  0
   46.7645    3.5989    5.4823 O   0  0  0  0  0  0  0  0  0  0  0  0
   48.1164    3.4336    7.2552 O   0  0  0  0  0  0  0  0  0  0  0  0
   45.2285    4.3026   10.4262 O   0  0  0  0  0  0  0  0  0  0  0  0
   46.6516    1.6058    6.8608 C   0  0  0  0  0  0  0  0  0  0  0  0
   44.5377    3.6013    8.2612 C   0  0  0  0  0  0  0  0  0  0  0  0
   44.7275    2.1070    8.5122 C   0  0  0  0  0  0  0  0  0  0  0  0
   46.1464    1.5580    8.3035 C   0  0  0  0  0  0  0  0  0  0  0  0
   45.1915    1.6396    6.7828 H   0  0  0  0  0  0  0  0  0  0  0  0
   45.0339    3.2785    6.2090 H   0  0  0  0  0  0  0  0  0  0  0  0
   48.7871    1.7385    7.2251 H   0  0  0  0  0  0  0  0  0  0  0  0
   47.5159    0.7595    6.9348 H   0  0  0  0  0  0  0  0  0  0  0  0
   47.4517    3.6900    7.1767 H   0  0  0  0  0  0  0  0  0  0  0  0
   44.5110    5.0986    7.6789 H   0  0  0  0  0  0  0  0  0  0  0  0
   45.6097    1.2629    9.3147 H   0  0  0  0  0  0  0  0  0  0  0  0
   48.4817    2.8314    5.0793 H   0  0  0  0  0  0  0  0  0  0  0  0
   46.9327    3.6140    4.7507 H   0  0  0  0  0  0  0  0  0  0  0  0
   47.0429    1.8457    4.7565 H   0  0  0  0  0  0  0  0  0  0  0  0
   43.7864    5.8377    9.9186 H   0  0  0  0  0  0  0  0  0  0  0  0
   44.8761    2.0159   11.5493 H   0  0  0  0  0  0  0  0  0  0  0  0
   43.9624    4.3022   11.8591 H   0  0  0  0  0  0  0  0  0  0  0  0
   48.2415    4.3641    6.9680 H   0  0  0  0  0  0  0  0  0  0  0  0
   45.8540    4.9297   10.8459 H   0  0  0  0  0  0  0  0  0  0  0  0
   45.8618    1.2958    6.1677 H   0  0  0  0  0  0  0  0  0  0  0  0
   47.4827    0.9022    6.7332 H   0  0  0  0  0  0  0  0  0  0  0  0
   44.7078    3.8441    7.2085 H   0  0  0  0  0  0  0  0  0  0  0  0
   43.4998    3.8855    8.4721 H   0  0  0  0  0  0  0  0  0  0  0  0
   44.4305    1.8818    9.5445 H   0  0  0  0  0  0  0  0  0  0  0  0
   44.0324    1.5538    7.8683 H   0  0  0  0  0  0  0  0  0  0  0  0
   46.1304    0.5042    8.6108 H   0  0  0  0  0  0  0  0  0  0  0  0
   46.8443    2.0601    8.9829 H   0  0  0  0  0  0  0  0  0  0  0  0
  4  2  1  0
  3  1  1  0
  4  1  1  0
  5  3  2  0
  6  3  1  0
  4  7  1  0
  8  5  1  0
  9  6  2  0
 10  9  1  0
 10  8  2  0
 12 17  1  0
 13 11  2  0
 14 12  2  0
 15 12  1  0
 16 11  1  0
 17 20  1  0
 18 11  1  0
 19 18  1  0
 20 19  1  0
  1 21  1  0
  1 22  1  0
  2 23  1  0
  2 24  1  0
  4 25  1  1
  5 26  1  0
  6 27  1  0
  7 28  1  0
  7 29  1  0
  7 30  1  0
  8 31  1  0
  9 32  1  0
 10 33  1  0
 15 34  1  0
 16 35  1  0
 17 36  1  0
 17 37  1  0
 18 38  1  0
 18 39  1  0
 19 40  1  0
 19 41  1  0
 20 42  1  0
 20 43  1  0
M  END
> <Uni-Dock RESULT> 
ENERGY=   -6.332  LOWER_BOUND=    0.000  UPPER_BOUND=    0.000
INTER + INTRA:          -6.332
INTER:                  -6.332
INTRA:                   0.000
UNBOUND:                 0.000

$$$$

     RDKit          3D

 43 42  0  0  0  0  0  0  0  0999 V2000
   45.6506    3.5186    9.8371 C   0  0  0  0  0  0  0  0  0  0  0  0
   44.3200    3.4570    7.7268 N   0  0  0  0  0  0  0  0  0  0  0  0
   44.6834    4.0822   10.8535 C   0  0  0  0  0  0  0  0  0  0  0  0
   44.9758    2.6420    8.7590 C   0  0  1  0  0  0  0  0  0  0  0  0
   44.5256    3.4655   12.1027 C   0  0  0  0  0  0  0  0  0  0  0  0
   43.9221    5.2211   10.5603 C   0  0  0  0  0  0  0  0  0  0  0  0
   46.0092    1.7362    8.0860 C   0  0  0  0  0  0  0  0  0  0  0  0
   43.6311    3.9837   13.0411 C   0  0  0  0  0  0  0  0  0  0  0  0
   43.0274    5.7377   11.4989 C   0  0  0  0  0  0  0  0  0  0  0  0
   42.8832    5.1202   12.7396 C   0  0  0  0  0  0  0  0  0  0  0  0
   43.5818    3.3369   11.7292 C   0  0  0  0  0  0  0  0  0  0  0  0
   45.1296    2.3063    8.7451 C   0  0  0  0  0  0  0  0  0  0  0  0
   43.2940    2.1640   11.5543 O   0  0  0  0  0  0  0  0  0  0  0  0
   45.9810    1.5313    9.1472 O   0  0  0  0  0  0  0  0  0  0  0  0
   43.8456    1.9287    8.6174 O   0  0  0  0  0  0  0  0  0  0  0  0
   42.6574    4.2178   12.1526 O   0  0  0  0  0  0  0  0  0  0  0  0
   45.3621    3.7373    8.3496 C   0  0  0  0  0  0  0  0  0  0  0  0
   44.9405    3.9535   11.5413 C   0  0  0  0  0  0  0  0  0  0  0  0
   44.9611    5.0863   10.5175 C   0  0  0  0  0  0  0  0  0  0  0  0
   44.4787    4.7325    9.1031 C   0  0  0  0  0  0  0  0  0  0  0  0
   46.2120    4.3419    9.3748 H   0  0  0  0  0  0  0  0  0  0  0  0
   46.4037    2.9254   10.3733 H   0  0  0  0  0  0  0  0  0  0  0  0
   43.8764    2.8461    7.0420 H   0  0  0  0  0  0  0  0  0  0  0  0
   45.0174    3.9977    7.2173 H   0  0  0  0  0  0  0  0  0  0  0  0
   44.2147    2.0060    9.2270 H   0  0  0  0  0  0  0  0  0  0  0  0
   45.0989    2.5763   12.3538 H   0  0  0  0  0  0  0  0  0  0  0  0
   44.0160    5.7050    9.5907 H   0  0  0  0  0  0  0  0  0  0  0  0
   45.5415    1.1025    7.3242 H   0  0  0  0  0  0  0  0  0  0  0  0
   46.4788    1.0736    8.8210 H   0  0  0  0  0  0  0  0  0  0  0  0
   46.8014    2.3193    7.6032 H   0  0  0  0  0  0  0  0  0  0  0  0
   43.5168    3.4992   14.0070 H   0  0  0  0  0  0  0  0  0  0  0  0
   42.4399    6.6193   11.2577 H   0  0  0  0  0  0  0  0  0  0  0  0
   42.1854    5.5220   13.4689 H   0  0  0  0  0  0  0  0  0  0  0  0
   43.8065    1.0457    9.0449 H   0  0  0  0  0  0  0  0  0  0  0  0
   41.8398    3.6848   12.2427 H   0  0  0  0  0  0  0  0  0  0  0  0
   46.4211    3.9755    8.4985 H   0  0  0  0  0  0  0  0  0  0  0  0
   45.1675    3.8067    7.2728 H   0  0  0  0  0  0  0  0  0  0  0  0
   45.6476    3.1661   11.2652 H   0  0  0  0  0  0  0  0  0  0  0  0
   45.2719    4.3275   12.5173 H   0  0  0  0  0  0  0  0  0  0  0  0
   44.3357    5.9086   10.8879 H   0  0  0  0  0  0  0  0  0  0  0  0
   45.9819    5.4839   10.4573 H   0  0  0  0  0  0  0  0  0  0  0  0
   44.4692    5.6658    8.5252 H   0  0  0  0  0  0  0  0  0  0  0  0
   43.4388    4.3889    9.1388 H   0  0  0  0  0  0  0  0  0  0  0  0
  4  2  1  0
  3  1  1  0
  4  1  1  0
  5  3  2  0
  6  3  1  0
  4  7  1  0
  8  5  1  0
  9  6  2  0
 10  9  1  0
 10  8  2  0
 12 17  1  0
 13 11  2  0
 14 12  2  0
 15 12  1  0
 16 11  1  0
 17 20  1  0
 18 11  1  0
 19 18  1  0
 20 19  1  0
  1 21  1  0
  1 22  1  0
  2 23  1  0
  2 24  1  0
  4 25  1  1
  5 26  1  0
  6 27  1  0
  7 28  1  0
  7 29  1  0
  7 30  1  0
  8 31  1  0
  9 32  1  0
 10 33  1  0
 15 34  1  0
 16 35  1  0
 17 36  1  0
 17 37  1  0
 18 38  1  0
 18 39  1  0
 19 40  1  0
 19 41  1  0
 20 42  1  0
 20 43  1  0
M  END
> <Uni-Dock RESULT> 
ENERGY=   -5.534  LOWER_BOUND=    2.240  UPPER_BOUND=    3.553
INTER + INTRA:          -5.534
INTER:                  -5.534
INTRA:                   0.000
UNBOUND:                 0.000

$$$$

     RDKit          3D

 43 42  0  0  0  0  0  0  0  0999 V2000
   44.7102    4.9955   11.1480 C   0  0  0  0  0  0  0  0  0  0  0  0
   42.4475    4.9974   12.2006 N   0  0  0  0  0  0  0  0  0  0  0  0
   45.3925    6.1957   11.7646 C   0  0  0  0  0  0  0  0  0  0  0  0
   43.7278    4.2824   12.1033 C   0  0  1  0  0  0  0  0  0  0  0  0
   46.6899    6.0863   12.2848 C   0  0  0  0  0  0  0  0  0  0  0  0
   44.7369    7.4316   11.8364 C   0  0  0  0  0  0  0  0  0  0  0  0
   43.4576    2.8556   11.6211 C   0  0  0  0  0  0  0  0  0  0  0  0
   47.3200    7.1933   12.8564 C   0  0  0  0  0  0  0  0  0  0  0  0
   45.3675    8.5374   12.4090 C   0  0  0  0  0  0  0  0  0  0  0  0
   46.6594    8.4187   12.9173 C   0  0  0  0  0  0  0  0  0  0  0  0
   46.1820    6.3185   13.1420 C   0  0  0  0  0  0  0  0  0  0  0  0
   43.8115    3.9241   12.1370 C   0  0  0  0  0  0  0  0  0  0  0  0
   46.2001    5.4182   13.9656 O   0  0  0  0  0  0  0  0  0  0  0  0
   44.5142    2.9819   11.8123 O   0  0  0  0  0  0  0  0  0  0  0  0
   43.5276    4.1718   13.4276 O   0  0  0  0  0  0  0  0  0  0  0  0
   46.2375    7.6064   13.5272 O   0  0  0  0  0  0  0  0  0  0  0  0
   43.1822    4.9141   11.1978 C   0  0  0  0  0  0  0  0  0  0  0  0
   46.1276    6.1523   11.6484 C   0  0  0  0  0  0  0  0  0  0  0  0
   44.9160    6.8210   11.0029 C   0  0  0  0  0  0  0  0  0  0  0  0
   43.5393    6.3679   11.5105 C   0  0  0  0  0  0  0  0  0  0  0  0
   44.2018    5.3020   10.2237 H   0  0  0  0  0  0  0  0  0  0  0  0
   45.4865    4.2884   10.8257 H   0  0  0  0  0  0  0  0  0  0  0  0
   41.8318    4.5060   12.8473 H   0  0  0  0  0  0  0  0  0  0  0  0
   41.9767    4.9897   11.2969 H   0  0  0  0  0  0  0  0  0  0  0  0
   44.1663    4.2285   13.1071 H   0  0  0  0  0  0  0  0  0  0  0  0
   47.2192    5.1372   12.2483 H   0  0  0  0  0  0  0  0  0  0  0  0
   43.7235    7.5343   11.4547 H   0  0  0  0  0  0  0  0  0  0  0  0
   42.7680    2.3354   12.2953 H   0  0  0  0  0  0  0  0  0  0  0  0
   44.3866    2.2760   11.5906 H   0  0  0  0  0  0  0  0  0  0  0  0
   43.0215    2.8465   10.6159 H   0  0  0  0  0  0  0  0  0  0  0  0
   48.3261    7.0987   13.2558 H   0  0  0  0  0  0  0  0  0  0  0  0
   44.8466    9.4894   12.4621 H   0  0  0  0  0  0  0  0  0  0  0  0
   47.1487    9.2795   13.3643 H   0  0  0  0  0  0  0  0  0  0  0  0
   44.1116    3.5615   13.9281 H   0  0  0  0  0  0  0  0  0  0  0  0
   46.2813    7.5638   14.5054 H   0  0  0  0  0  0  0  0  0  0  0  0
   43.4732    4.6599   10.1725 H   0  0  0  0  0  0  0  0  0  0  0  0
   42.0969    4.7736   11.2658 H   0  0  0  0  0  0  0  0  0  0  0  0
   46.1543    5.0845   11.4134 H   0  0  0  0  0  0  0  0  0  0  0  0
   47.0508    6.5751   11.2346 H   0  0  0  0  0  0  0  0  0  0  0  0
   44.9880    7.9054   11.1557 H   0  0  0  0  0  0  0  0  0  0  0  0
   44.9664    6.6627    9.9185 H   0  0  0  0  0  0  0  0  0  0  0  0
   42.7914    7.0027   11.0177 H   0  0  0  0  0  0  0  0  0  0  0  0
   43.4508    6.5740   12.5831 H   0  0  0  0  0  0  0  0  0  0  0  0
  4  2  1  0
  3  1  1  0
  4  1  1  0
  5  3  2  0
  6  3  1  0
  4  7  1  0
  8  5  1  0
  9  6  2  0
 10  9  1  0
 10  8  2  0
 12 17  1  0
 13 11  2  0
 14 12  2  0
 15 12  1  0
 16 11  1  0
 17 20  1  0
 18 11  1  0
 19 18  1  0
 20 19  1  0
  1 21  1  0
  1 22  1  0
  2 23  1  0
  2 24  1  0
  4 25  1  1
  5 26  1  0
  6 27  1  0
  7 28  1  0
  7 29  1  0
  7 30  1  0
  8 31  1  0
  9 32  1  0
 10 33  1  0
 15 34  1  0
 16 35  1  0
 17 36  1  0
 17 37  1  0
 18 38  1  0
 18 39  1  0
 19 40  1  0
 19 41  1  0
 20 42  1  0
 20 43  1  0
M  END
> <Uni-Dock RESULT> 
ENERGY=   -5.342  LOWER_BOUND=    4.536  UPPER_BOUND=    5.928
INTER + INTRA:          -5.342
INTER:                  -5.342
INTRA:                   0.000
UNBOUND:                 0.000

$$$$

     RDKit          3D

 43 42  0  0  0  0  0  0  0  0999 V2000
   43.9553    4.2407   10.3783 C   0  0  0  0  0  0  0  0  0  0  0  0
   45.5873    4.6807   12.2143 N   0  0  0  0  0  0  0  0  0  0  0  0
   44.8325    3.9875    9.1730 C   0  0  0  0  0  0  0  0  0  0  0  0
   44.5705    3.7487   11.7070 C   0  0  1  0  0  0  0  0  0  0  0  0
   44.5997    2.8807    8.3445 C   0  0  0  0  0  0  0  0  0  0  0  0
   45.8973    4.8464    8.8712 C   0  0  0  0  0  0  0  0  0  0  0  0
   43.4815    3.5847   12.7693 C   0  0  0  0  0  0  0  0  0  0  0  0
   45.4104    2.6446    7.2326 C   0  0  0  0  0  0  0  0  0  0  0  0
   46.7078    4.6088    7.7600 C   0  0  0  0  0  0  0  0  0  0  0  0
   46.4634    3.5092    6.9399 C   0  0  0  0  0  0  0  0  0  0  0  0
   45.5318    2.6405    8.6911 C   0  0  0  0  0  0  0  0  0  0  0  0
   44.3420    3.5167   11.8816 C   0  0  0  0  0  0  0  0  0  0  0  0
   45.5404    1.6296    9.3747 O   0  0  0  0  0  0  0  0  0  0  0  0
   43.2639    2.9482   11.9229 O   0  0  0  0  0  0  0  0  0  0  0  0
   45.4898    2.8549   12.1099 O   0  0  0  0  0  0  0  0  0  0  0  0
   46.5563    2.9236    7.8664 O   0  0  0  0  0  0  0  0  0  0  0  0
   44.5549    4.9736   11.5813 C   0  0  0  0  0  0  0  0  0  0  0  0
   44.4308    3.6633    8.6353 C   0  0  0  0  0  0  0  0  0  0  0  0
   44.8836    5.0701    9.0195 C   0  0  0  0  0  0  0  0  0  0  0  0
   45.5093    5.2254   10.4132 C   0  0  0  0  0  0  0  0  0  0  0  0
   43.7140    5.3110   10.4332 H   0  0  0  0  0  0  0  0  0  0  0  0
   42.9923    3.7392   10.2123 H   0  0  0  0  0  0  0  0  0  0  0  0
   45.9786    4.3176   13.0825 H   0  0  0  0  0  0  0  0  0  0  0  0
   45.1539    5.5728   12.4478 H   0  0  0  0  0  0  0  0  0  0  0  0
   45.0480    2.7737   11.5513 H   0  0  0  0  0  0  0  0  0  0  0  0
   43.7844    2.1941    8.5594 H   0  0  0  0  0  0  0  0  0  0  0  0
   46.1065    5.7012    9.5107 H   0  0  0  0  0  0  0  0  0  0  0  0
   43.9040    3.2277   13.7153 H   0  0  0  0  0  0  0  0  0  0  0  0
   42.7342    2.8518   12.4463 H   0  0  0  0  0  0  0  0  0  0  0  0
   42.9639    4.5306   12.9640 H   0  0  0  0  0  0  0  0  0  0  0  0
   45.2212    1.7847    6.5958 H   0  0  0  0  0  0  0  0  0  0  0  0
   47.5329    5.2804    7.5391 H   0  0  0  0  0  0  0  0  0  0  0  0
   47.0958    3.3242    6.0762 H   0  0  0  0  0  0  0  0  0  0  0  0
   45.2260    1.9096   12.1375 H   0  0  0  0  0  0  0  0  0  0  0  0
   47.1820    2.1803    7.9951 H   0  0  0  0  0  0  0  0  0  0  0  0
   43.5817    5.4386   11.3882 H   0  0  0  0  0  0  0  0  0  0  0  0
   44.9528    5.4330   12.4939 H   0  0  0  0  0  0  0  0  0  0  0  0
   43.6098    3.3297    9.2763 H   0  0  0  0  0  0  0  0  0  0  0  0
   44.0333    3.6660    7.6134 H   0  0  0  0  0  0  0  0  0  0  0  0
   45.6187    5.4181    8.2826 H   0  0  0  0  0  0  0  0  0  0  0  0
   44.0251    5.7481    8.9361 H   0  0  0  0  0  0  0  0  0  0  0  0
   45.8593    6.2628   10.4934 H   0  0  0  0  0  0  0  0  0  0  0  0
   46.4041    4.5979   10.4924 H   0  0  0  0  0  0  0  0  0  0  0  0
  4  2  1  0
  3  1  1  0
  4  1  1  0
  5  3  2  0
  6  3  1  0
  4  7  1  0
  8  5  1  0
  9  6  2  0
 10  9  1  0
 10  8  2  0
 12 17  1  0
 13 11  2  0
 14 12  2  0
 15 12  1  0
 16 11  1  0
 17 20  1  0
 18 11  1  0
 19 18  1  0
 20 19  1  0
  1 21  1  0
  1 22  1  0
  2 23  1  0
  2 24  1  0
  4 25  1  1
  5 26  1  0
  6 27  1  0
  7 28  1  0
  7 29  1  0
  7 30  1  0
  8 31  1  0
  9 32  1  0
 10 33  1  0
 15 34  1  0
 16 35  1  0
 17 36  1  0
 17 37  1  0
 18 38  1  0
 18 39  1  0
 19 40  1  0
 19 41  1  0
 20 42  1  0
 20 43  1  0
M  END
> <Uni-Dock RESULT> 
ENERGY=   -4.668  LOWER_BOUND=    1.997  UPPER_BOUND=    4.668
INTER + INTRA:          -4.668
INTER:                  -4.668
INTRA:                   0.000
UNBOUND:                 0.000

$$$$

     RDKit          3D

 43 42  0  0  0  0  0  0  0  0999 V2000
   45.6103    6.5076   12.8685 C   0  0  0  0  0  0  0  0  0  0  0  0
   47.6944    6.9103   11.5562 N   0  0  0  0  0  0  0  0  0  0  0  0
   44.9994    5.2933   12.2061 C   0  0  0  0  0  0  0  0  0  0  0  0
   47.1549    6.5059   12.8621 C   0  0  1  0  0  0  0  0  0  0  0  0
   44.5486    4.2136   12.9786 C   0  0  0  0  0  0  0  0  0  0  0  0
   44.8844    5.2222   10.8118 C   0  0  0  0  0  0  0  0  0  0  0  0
   47.6928    7.4588   13.9316 C   0  0  0  0  0  0  0  0  0  0  0  0
   43.9865    3.0910   12.3680 C   0  0  0  0  0  0  0  0  0  0  0  0
   44.3232    4.0989   10.2023 C   0  0  0  0  0  0  0  0  0  0  0  0
   43.8728    3.0343   10.9802 C   0  0  0  0  0  0  0  0  0  0  0  0
   45.2918    3.7475   12.4523 C   0  0  0  0  0  0  0  0  0  0  0  0
   47.2895    6.5415   13.2044 C   0  0  0  0  0  0  0  0  0  0  0  0
   46.2078    3.3619   13.1605 O   0  0  0  0  0  0  0  0  0  0  0  0
   47.0818    6.6972   14.3959 O   0  0  0  0  0  0  0  0  0  0  0  0
   48.1509    5.6092   12.7614 O   0  0  0  0  0  0  0  0  0  0  0  0
   44.8950    3.0288   11.3864 O   0  0  0  0  0  0  0  0  0  0  0  0
   46.6481    7.3227   12.0924 C   0  0  0  0  0  0  0  0  0  0  0  0
   44.4817    4.9983   12.6540 C   0  0  0  0  0  0  0  0  0  0  0  0
   44.5405    5.9618   11.4708 C   0  0  0  0  0  0  0  0  0  0  0  0
   45.9380    6.4473   11.0589 C   0  0  0  0  0  0  0  0  0  0  0  0
   45.2195    7.4166   12.3913 H   0  0  0  0  0  0  0  0  0  0  0  0
   45.2480    6.5510   13.9046 H   0  0  0  0  0  0  0  0  0  0  0  0
   48.7128    6.8850   11.5862 H   0  0  0  0  0  0  0  0  0  0  0  0
   47.4386    7.8769   11.3600 H   0  0  0  0  0  0  0  0  0  0  0  0
   47.5216    5.4967   13.0856 H   0  0  0  0  0  0  0  0  0  0  0  0
   44.6321    4.2396   14.0625 H   0  0  0  0  0  0  0  0  0  0  0  0
   45.2438    6.0411   10.1925 H   0  0  0  0  0  0  0  0  0  0  0  0
   48.7885    7.4607   13.9432 H   0  0  0  0  0  0  0  0  0  0  0  0
   47.3545    7.1522   14.9273 H   0  0  0  0  0  0  0  0  0  0  0  0
   47.3531    8.4867   13.7619 H   0  0  0  0  0  0  0  0  0  0  0  0
   43.6390    2.2597   12.9754 H   0  0  0  0  0  0  0  0  0  0  0  0
   44.2433    4.0544    9.1196 H   0  0  0  0  0  0  0  0  0  0  0  0
   43.4377    2.1597   10.5048 H   0  0  0  0  0  0  0  0  0  0  0  0
   48.3735    5.0826   13.5596 H   0  0  0  0  0  0  0  0  0  0  0  0
   45.4909    2.2507   11.3849 H   0  0  0  0  0  0  0  0  0  0  0  0
   45.9489    8.0450   12.5282 H   0  0  0  0  0  0  0  0  0  0  0  0
   47.4438    7.9009   11.6080 H   0  0  0  0  0  0  0  0  0  0  0  0
   44.8167    5.4885   13.5725 H   0  0  0  0  0  0  0  0  0  0  0  0
   43.4439    4.6946   12.8358 H   0  0  0  0  0  0  0  0  0  0  0  0
   44.0844    5.4775   10.5979 H   0  0  0  0  0  0  0  0  0  0  0  0
   43.9128    6.8324   11.6981 H   0  0  0  0  0  0  0  0  0  0  0  0
   45.8127    7.0494   10.1496 H   0  0  0  0  0  0  0  0  0  0  0  0
   46.5602    5.5924   10.7716 H   0  0  0  0  0  0  0  0  0  0  0  0
  4  2  1  0
  3  1  1  0
  4  1  1  0
  5  3  2  0
  6  3  1  0
  4  7  1  0
  8  5  1  0
  9  6  2  0
 10  9  1  0
 10  8  2  0
 12 17  1  0
 13 11  2  0
 14 12  2  0
 15 12  1  0
 16 11  1  0
 17 20  1  0
 18 11  1  0
 19 18  1  0
 20 19  1  0
  1 21  1  0
  1 22  1  0
  2 23  1  0
  2 24  1  0
  4 25  1  1
  5 26  1  0
  6 27  1  0
  7 28  1  0
  7 29  1  0
  7 30  1  0
  8 31  1  0
  9 32  1  0
 10 33  1  0
 15 34  1  0
 16 35  1  0
 17 36  1  0
 17 37  1  0
 18 38  1  0
 18 39  1  0
 19 40  1  0
 19 41  1  0
 20 42  1  0
 20 43  1  0
M  END
> <Uni-Dock RESULT> 
ENERGY=   -4.524  LOWER_BOUND=    3.794  UPPER_BOUND=    5.767
INTER + INTRA:          -4.524
INTER:                  -4.524
INTRA:                   0.000
UNBOUND:                 0.000

$$$$

     RDKit          3D

 43 42  0  0  0  0  0  0  0  0999 V2000
   46.9395    6.0541   12.0123 C   0  0  0  0  0  0  0  0  0  0  0  0
   47.4732    6.6732   14.3702 N   0  0  0  0  0  0  0  0  0  0  0  0
   45.4667    5.7146   12.0561 C   0  0  0  0  0  0  0  0  0  0  0  0
   47.3470    7.1745   12.9944 C   0  0  1  0  0  0  0  0  0  0  0  0
   44.5862    6.2458   11.1031 C   0  0  0  0  0  0  0  0  0  0  0  0
   44.9566    4.8746   13.0544 C   0  0  0  0  0  0  0  0  0  0  0  0
   48.6817    7.7926   12.5729 C   0  0  0  0  0  0  0  0  0  0  0  0
   43.2258    5.9350   11.1440 C   0  0  0  0  0  0  0  0  0  0  0  0
   43.5961    4.5653   13.0950 C   0  0  0  0  0  0  0  0  0  0  0  0
   42.7312    5.0940   12.1390 C   0  0  0  0  0  0  0  0  0  0  0  0
   44.2000    6.6736   11.9484 C   0  0  0  0  0  0  0  0  0  0  0  0
   47.5171    7.4509   12.8178 C   0  0  0  0  0  0  0  0  0  0  0  0
   44.3005    7.8898   11.9559 O   0  0  0  0  0  0  0  0  0  0  0  0
   47.9587    7.9089   11.7774 O   0  0  0  0  0  0  0  0  0  0  0  0
   46.7596    8.1948   13.6426 O   0  0  0  0  0  0  0  0  0  0  0  0
   43.1187    6.0680   12.4719 O   0  0  0  0  0  0  0  0  0  0  0  0
   47.7325    6.0517   13.3219 C   0  0  0  0  0  0  0  0  0  0  0  0
   45.1915    5.7061   11.3634 C   0  0  0  0  0  0  0  0  0  0  0  0
   45.7392    4.7044   12.3776 C   0  0  0  0  0  0  0  0  0  0  0  0
   46.4337    5.2981   13.6118 C   0  0  0  0  0  0  0  0  0  0  0  0
   47.5274    5.1439   12.1936 H   0  0  0  0  0  0  0  0  0  0  0  0
   47.1908    6.3563   10.9866 H   0  0  0  0  0  0  0  0  0  0  0  0
   47.7298    7.4407   14.9896 H   0  0  0  0  0  0  0  0  0  0  0  0
   48.2334    5.9967   14.4240 H   0  0  0  0  0  0  0  0  0  0  0  0
   46.5854    7.9637   12.9869 H   0  0  0  0  0  0  0  0  0  0  0  0
   44.9543    6.9060   10.3214 H   0  0  0  0  0  0  0  0  0  0  0  0
   45.6191    4.4656   13.8141 H   0  0  0  0  0  0  0  0  0  0  0  0
   48.9782    8.5953   13.2573 H   0  0  0  0  0  0  0  0  0  0  0  0
   48.6064    8.2272   11.5702 H   0  0  0  0  0  0  0  0  0  0  0  0
   49.4836    7.0459   12.5572 H   0  0  0  0  0  0  0  0  0  0  0  0
   42.5515    6.3507   10.4002 H   0  0  0  0  0  0  0  0  0  0  0  0
   43.2124    3.9157   13.8768 H   0  0  0  0  0  0  0  0  0  0  0  0
   41.6721    4.8540   12.1724 H   0  0  0  0  0  0  0  0  0  0  0  0
   46.5731    9.0128   13.1326 H   0  0  0  0  0  0  0  0  0  0  0  0
   42.5632    6.8065   12.7984 H   0  0  0  0  0  0  0  0  0  0  0  0
   48.3384    5.5043   12.5913 H   0  0  0  0  0  0  0  0  0  0  0  0
   48.3304    6.1306   14.2375 H   0  0  0  0  0  0  0  0  0  0  0  0
   46.0031    6.2736   10.8993 H   0  0  0  0  0  0  0  0  0  0  0  0
   44.6910    5.1729   10.5463 H   0  0  0  0  0  0  0  0  0  0  0  0
   44.9144    4.0721   12.7302 H   0  0  0  0  0  0  0  0  0  0  0  0
   46.4382    4.0334   11.8630 H   0  0  0  0  0  0  0  0  0  0  0  0
   46.6824    4.4587   14.2742 H   0  0  0  0  0  0  0  0  0  0  0  0
   45.7298    5.9252   14.1703 H   0  0  0  0  0  0  0  0  0  0  0  0
  4  2  1  0
  3  1  1  0
  4  1  1  0
  5  3  2  0
  6  3  1  0
  4  7  1  0
  8  5  1  0
  9  6  2  0
 10  9  1  0
 10  8  2  0
 12 17  1  0
 13 11  2  0
 14 12  2  0
 15 12  1  0
 16 11  1  0
 17 20  1  0
 18 11  1  0
 19 18  1  0
 20 19  1  0
  1 21  1  0
  1 22  1  0
  2 23  1  0
  2 24  1  0
  4 25  1  1
  5 26  1  0
  6 27  1  0
  7 28  1  0
  7 29  1  0
  7 30  1  0
  8 31  1  0
  9 32  1  0
 10 33  1  0
 15 34  1  0
 16 35  1  0
 17 36  1  0
 17 37  1  0
 18 38  1  0
 18 39  1  0
 19 40  1  0
 19 41  1  0
 20 42  1  0
 20 43  1  0
M  END
> <Uni-Dock RESULT> 
ENERGY=   -4.174  LOWER_BOUND=    5.097  UPPER_BOUND=    5.911
INTER + INTRA:          -4.174
INTER:                  -4.174
INTRA:                   0.000
UNBOUND:                 0.000

$$$$

     RDKit          3D

 43 42  0  0  0  0  0  0  0  0999 V2000
   47.2296    6.1663   20.5096 C   0  0  0  0  0  0  0  0  0  0  0  0
   49.3999    6.5997   21.6628 N   0  0  0  0  0  0  0  0  0  0  0  0
   47.6335    5.8910   19.0788 C   0  0  0  0  0  0  0  0  0  0  0  0
   48.2613    5.6773   21.5500 C   0  0  1  0  0  0  0  0  0  0  0  0
   47.1178    4.7804   18.3958 C   0  0  0  0  0  0  0  0  0  0  0  0
   48.5367    6.7327   18.4168 C   0  0  0  0  0  0  0  0  0  0  0  0
   47.6051    5.5372   22.9252 C   0  0  0  0  0  0  0  0  0  0  0  0
   47.4918    4.5239   17.0754 C   0  0  0  0  0  0  0  0  0  0  0  0
   48.9107    6.4747   17.0970 C   0  0  0  0  0  0  0  0  0  0  0  0
   48.3871    5.3716   16.4259 C   0  0  0  0  0  0  0  0  0  0  0  0
   48.1098    4.5305   18.4020 C   0  0  0  0  0  0  0  0  0  0  0  0
   48.1049    5.4499   21.7957 C   0  0  0  0  0  0  0  0  0  0  0  0
   48.3443    3.5255   19.0533 O   0  0  0  0  0  0  0  0  0  0  0  0
   47.1020    4.8966   22.2142 O   0  0  0  0  0  0  0  0  0  0  0  0
   49.2543    4.7746   21.6217 O   0  0  0  0  0  0  0  0  0  0  0  0
   48.7888    4.7927   17.2705 O   0  0  0  0  0  0  0  0  0  0  0  0
   48.2152    6.9012   21.4220 C   0  0  0  0  0  0  0  0  0  0  0  0
   47.0675    5.5677   18.7171 C   0  0  0  0  0  0  0  0  0  0  0  0
   47.6390    6.9714   18.9033 C   0  0  0  0  0  0  0  0  0  0  0  0
   48.7095    7.1301   19.9929 C   0  0  0  0  0  0  0  0  0  0  0  0
   47.0326    7.2402   20.6310 H   0  0  0  0  0  0  0  0  0  0  0  0
   46.2636    5.6766   20.6930 H   0  0  0  0  0  0  0  0  0  0  0  0
   50.0636    6.2387   22.3469 H   0  0  0  0  0  0  0  0  0  0  0  0
   49.0826    7.4996   22.0204 H   0  0  0  0  0  0  0  0  0  0  0  0
   48.6459    4.6946   21.2513 H   0  0  0  0  0  0  0  0  0  0  0  0
   46.4204    4.1069   18.8879 H   0  0  0  0  0  0  0  0  0  0  0  0
   48.9624    7.5900   18.9336 H   0  0  0  0  0  0  0  0  0  0  0  0
   48.3249    5.1825   23.6713 H   0  0  0  0  0  0  0  0  0  0  0  0
   46.7850    4.8119   22.8895 H   0  0  0  0  0  0  0  0  0  0  0  0
   47.1959    6.4917   23.2747 H   0  0  0  0  0  0  0  0  0  0  0  0
   47.0857    3.6613   16.5542 H   0  0  0  0  0  0  0  0  0  0  0  0
   49.6152    7.1330   16.5961 H   0  0  0  0  0  0  0  0  0  0  0  0
   48.6802    5.1706   15.3993 H   0  0  0  0  0  0  0  0  0  0  0  0
   49.0071    3.8333   21.7508 H   0  0  0  0  0  0  0  0  0  0  0  0
   49.4131    4.0421   17.1846 H   0  0  0  0  0  0  0  0  0  0  0  0
   47.2399    7.3777   21.5711 H   0  0  0  0  0  0  0  0  0  0  0  0
   48.9085    7.3629   22.1349 H   0  0  0  0  0  0  0  0  0  0  0  0
   46.5154    5.2508   19.6065 H   0  0  0  0  0  0  0  0  0  0  0  0
   46.3413    5.5671   17.8956 H   0  0  0  0  0  0  0  0  0  0  0  0
   48.0774    7.3031   17.9534 H   0  0  0  0  0  0  0  0  0  0  0  0
   46.8113    7.6603   19.1132 H   0  0  0  0  0  0  0  0  0  0  0  0
   49.0758    8.1633   19.9340 H   0  0  0  0  0  0  0  0  0  0  0  0
   49.5702    6.4911   19.7660 H   0  0  0  0  0  0  0  0  0  0  0  0
  4  2  1  0
  3  1  1  0
  4  1  1  0
  5  3  2  0
  6  3  1  0
  4  7  1  0
  8  5  1  0
  9  6  2  0
 10  9  1  0
 10  8  2  0
 12 17  1  0
 13 11  2  0
 14 12  2  0
 15 12  1  0
 16 11  1  0
 17 20  1  0
 18 11  1  0
 19 18  1  0
 20 19  1  0
  1 21  1  0
  1 22  1  0
  2 23  1  0
  2 24  1  0
  4 25  1  1
  5 26  1  0
  6 27  1  0
  7 28  1  0
  7 29  1  0
  7 30  1  0
  8 31  1  0
  9 32  1  0
 10 33  1  0
 15 34  1  0
 16 35  1  0
 17 36  1  0
 17 37  1  0
 18 38  1  0
 18 39  1  0
 19 40  1  0
 19 41  1  0
 20 42  1  0
 20 43  1  0
M  END
> <Uni-Dock RESULT> 
ENERGY=   -4.148  LOWER_BOUND=   10.164  UPPER_BOUND=   12.629
INTER + INTRA:          -4.148
INTER:                  -4.148
INTRA:                   0.000
UNBOUND:                 0.000

$$$$

     RDKit          3D

 43 42  0  0  0  0  0  0  0  0999 V2000
   46.1325    6.3856   11.6257 C   0  0  0  0  0  0  0  0  0  0  0  0
   43.8987    6.4232   12.7378 N   0  0  0  0  0  0  0  0  0  0  0  0
   47.0430    7.0568   12.6290 C   0  0  0  0  0  0  0  0  0  0  0  0
   44.9962    5.5633   12.2728 C   0  0  1  0  0  0  0  0  0  0  0  0
   48.2729    6.4775   12.9716 C   0  0  0  0  0  0  0  0  0  0  0  0
   46.6685    8.2604   13.2403 C   0  0  0  0  0  0  0  0  0  0  0  0
   44.4357    4.5504   11.2722 C   0  0  0  0  0  0  0  0  0  0  0  0
   49.1134    7.0951   13.8996 C   0  0  0  0  0  0  0  0  0  0  0  0
   47.5092    8.8765   14.1688 C   0  0  0  0  0  0  0  0  0  0  0  0
   48.7320    8.2950   14.4970 C   0  0  0  0  0  0  0  0  0  0  0  0
   47.8066    6.4366   13.8812 C   0  0  0  0  0  0  0  0  0  0  0  0
   44.9995    5.2140   12.1525 C   0  0  0  0  0  0  0  0  0  0  0  0
   47.6095    5.2951   14.2651 O   0  0  0  0  0  0  0  0  0  0  0  0
   45.4896    4.3653   11.4267 O   0  0  0  0  0  0  0  0  0  0  0  0
   44.7446    4.9625   13.4483 O   0  0  0  0  0  0  0  0  0  0  0  0
   48.1298    7.4104   14.7514 O   0  0  0  0  0  0  0  0  0  0  0  0
   44.6223    6.6091   11.7407 C   0  0  0  0  0  0  0  0  0  0  0  0
   47.7538    6.9139   12.4562 C   0  0  0  0  0  0  0  0  0  0  0  0
   46.7316    8.0236   12.2207 C   0  0  0  0  0  0  0  0  0  0  0  0
   45.2776    7.6976   12.5919 C   0  0  0  0  0  0  0  0  0  0  0  0
   45.7251    7.1427   10.9418 H   0  0  0  0  0  0  0  0  0  0  0  0
   46.7451    5.7295   10.9926 H   0  0  0  0  0  0  0  0  0  0  0  0
   43.1758    5.8486   13.1690 H   0  0  0  0  0  0  0  0  0  0  0  0
   43.4596    6.8851   11.9427 H   0  0  0  0  0  0  0  0  0  0  0  0
   45.3880    5.0124   13.1363 H   0  0  0  0  0  0  0  0  0  0  0  0
   48.5852    5.5402   12.5174 H   0  0  0  0  0  0  0  0  0  0  0  0
   45.7109    8.7181   13.0022 H   0  0  0  0  0  0  0  0  0  0  0  0
   43.6337    3.9543   11.7219 H   0  0  0  0  0  0  0  0  0  0  0  0
   45.2179    3.8560   10.9467 H   0  0  0  0  0  0  0  0  0  0  0  0
   44.0325    5.0456   10.3817 H   0  0  0  0  0  0  0  0  0  0  0  0
   50.0652    6.6389   14.1576 H   0  0  0  0  0  0  0  0  0  0  0  0
   47.2053    9.8078   14.6387 H   0  0  0  0  0  0  0  0  0  0  0  0
   49.3849    8.7744   15.2210 H   0  0  0  0  0  0  0  0  0  0  0  0
   45.1704    4.0942   13.6175 H   0  0  0  0  0  0  0  0  0  0  0  0
   48.1395    6.9617   15.6227 H   0  0  0  0  0  0  0  0  0  0  0  0
   44.8763    6.7444   10.6835 H   0  0  0  0  0  0  0  0  0  0  0  0
   43.5310    6.6810   11.8186 H   0  0  0  0  0  0  0  0  0  0  0  0
   47.5548    6.0567   11.8066 H   0  0  0  0  0  0  0  0  0  0  0  0
   48.7565    7.2682   12.1886 H   0  0  0  0  0  0  0  0  0  0  0  0
   47.0327    8.9088   12.7954 H   0  0  0  0  0  0  0  0  0  0  0  0
   46.7730    8.3180   11.1647 H   0  0  0  0  0  0  0  0  0  0  0  0
   44.6969    8.6185   12.4508 H   0  0  0  0  0  0  0  0  0  0  0  0
   45.2096    7.4584   13.6591 H   0  0  0  0  0  0  0  0  0  0  0  0
  4  2  1  0
  3  1  1  0
  4  1  1  0
  5  3  2  0
  6  3  1  0
  4  7  1  0
  8  5  1  0
  9  6  2  0
 10  9  1  0
 10  8  2  0
 12 17  1  0
 13 11  2  0
 14 12  2  0
 15 12  1  0
 16 11  1  0
 17 20  1  0
 18 11  1  0
 19 18  1  0
 20 19  1  0
  1 21  1  0
  1 22  1  0
  2 23  1  0
  2 24  1  0
  4 25  1  1
  5 26  1  0
  6 27  1  0
  7 28  1  0
  7 29  1  0
  7 30  1  0
  8 31  1  0
  9 32  1  0
 10 33  1  0
 15 34  1  0
 16 35  1  0
 17 36  1  0
 17 37  1  0
 18 38  1  0
 18 39  1  0
 19 40  1  0
 19 41  1  0
 20 42  1  0
 20 43  1  0
M  END
> <Uni-Dock RESULT> 
ENERGY=   -4.042  LOWER_BOUND=    4.836  UPPER_BOUND=    6.756
INTER + INTRA:          -4.042
INTER:                  -4.042
INTRA:                   0.000
UNBOUND:                 0.000

$$$$

     RDKit          3D

 43 42  0  0  0  0  0  0  0  0999 V2000
   54.0183    5.5882    8.6125 C   0  0  0  0  0  0  0  0  0  0  0  0
   53.3269    6.8178   10.6711 N   0  0  0  0  0  0  0  0  0  0  0  0
   54.0370    6.6593    7.5453 C   0  0  0  0  0  0  0  0  0  0  0  0
   54.4267    6.0999   10.0115 C   0  0  1  0  0  0  0  0  0  0  0  0
   55.1336    6.7818    6.6804 C   0  0  0  0  0  0  0  0  0  0  0  0
   52.9661    7.5524    7.4108 C   0  0  0  0  0  0  0  0  0  0  0  0
   54.8538    4.9312   10.9021 C   0  0  0  0  0  0  0  0  0  0  0  0
   55.1529    7.7718    5.6962 C   0  0  0  0  0  0  0  0  0  0  0  0
   52.9870    8.5425    6.4271 C   0  0  0  0  0  0  0  0  0  0  0  0
   54.0793    8.6511    5.5690 C   0  0  0  0  0  0  0  0  0  0  0  0
   55.1909    7.6854    7.1567 C   0  0  0  0  0  0  0  0  0  0  0  0
   54.7076    5.9028   10.1486 C   0  0  0  0  0  0  0  0  0  0  0  0
   56.2052    7.8092    7.8238 O   0  0  0  0  0  0  0  0  0  0  0  0
   55.4866    4.9725   10.0265 O   0  0  0  0  0  0  0  0  0  0  0  0
   55.1280    7.1200   10.5349 O   0  0  0  0  0  0  0  0  0  0  0  0
   54.6702    8.7335    6.4930 O   0  0  0  0  0  0  0  0  0  0  0  0
   53.2271    5.8462    9.8975 C   0  0  0  0  0  0  0  0  0  0  0  0
   54.4148    6.4138    6.9515 C   0  0  0  0  0  0  0  0  0  0  0  0
   52.9617    6.5038    7.4120 C   0  0  0  0  0  0  0  0  0  0  0  0
   52.7375    6.8812    8.8836 C   0  0  0  0  0  0  0  0  0  0  0  0
   53.0236    5.1230    8.6426 H   0  0  0  0  0  0  0  0  0  0  0  0
   54.6999    4.7844    8.3027 H   0  0  0  0  0  0  0  0  0  0  0  0
   53.6366    7.1505   11.5833 H   0  0  0  0  0  0  0  0  0  0  0  0
   52.5530    6.1789   10.8481 H   0  0  0  0  0  0  0  0  0  0  0  0
   55.2757    6.7878    9.9171 H   0  0  0  0  0  0  0  0  0  0  0  0
   55.9812    6.1062    6.7672 H   0  0  0  0  0  0  0  0  0  0  0  0
   52.1132    7.4863    8.0826 H   0  0  0  0  0  0  0  0  0  0  0  0
   55.1542    5.2819   11.8958 H   0  0  0  0  0  0  0  0  0  0  0  0
   55.7109    4.4067   10.4660 H   0  0  0  0  0  0  0  0  0  0  0  0
   54.0430    4.2051   11.0289 H   0  0  0  0  0  0  0  0  0  0  0  0
   56.0069    7.8580    5.0299 H   0  0  0  0  0  0  0  0  0  0  0  0
   52.1519    9.2315    6.3357 H   0  0  0  0  0  0  0  0  0  0  0  0
   54.0954    9.4231    4.8047 H   0  0  0  0  0  0  0  0  0  0  0  0
   56.1076    7.0585   10.5141 H   0  0  0  0  0  0  0  0  0  0  0  0
   55.2737    9.4764    6.7040 H   0  0  0  0  0  0  0  0  0  0  0  0
   52.9646    4.8343    9.5694 H   0  0  0  0  0  0  0  0  0  0  0  0
   52.7330    6.0071   10.8629 H   0  0  0  0  0  0  0  0  0  0  0  0
   54.9356    5.5991    7.4626 H   0  0  0  0  0  0  0  0  0  0  0  0
   54.4525    6.1720    5.8827 H   0  0  0  0  0  0  0  0  0  0  0  0
   52.4406    7.2458    6.7937 H   0  0  0  0  0  0  0  0  0  0  0  0
   52.4718    5.5429    7.2114 H   0  0  0  0  0  0  0  0  0  0  0  0
   51.6544    6.9917    9.0245 H   0  0  0  0  0  0  0  0  0  0  0  0
   53.1705    7.8673    9.0859 H   0  0  0  0  0  0  0  0  0  0  0  0
  4  2  1  0
  3  1  1  0
  4  1  1  0
  5  3  2  0
  6  3  1  0
  4  7  1  0
  8  5  1  0
  9  6  2  0
 10  9  1  0
 10  8  2  0
 12 17  1  0
 13 11  2  0
 14 12  2  0
 15 12  1  0
 16 11  1  0
 17 20  1  0
 18 11  1  0
 19 18  1  0
 20 19  1  0
  1 21  1  0
  1 22  1  0
  2 23  1  0
  2 24  1  0
  4 25  1  1
  5 26  1  0
  6 27  1  0
  7 28  1  0
  7 29  1  0
  7 30  1  0
  8 31  1  0
  9 32  1  0
 10 33  1  0
 15 34  1  0
 16 35  1  0
 17 36  1  0
 17 37  1  0
 18 38  1  0
 18 39  1  0
 19 40  1  0
 19 41  1  0
 20 42  1  0
 20 43  1  0
M  END
> <Uni-Dock RESULT> 
ENERGY=   -3.935  LOWER_BOUND=    8.535  UPPER_BOUND=    9.915
INTER + INTRA:          -3.935
INTER:                  -3.935
INTRA:                   0.000
UNBOUND:                 0.000

$$$$
