
     RDKit          3D

 43 42  0  0  0  0  0  0  0  0999 V2000
   45.2632    3.2882    7.4567 C   0  0  0  0  0  0  0  0  0  0  0  0
   46.9756    1.5045    7.7763 N   0  0  0  0  0  0  0  0  0  0  0  0
   44.9749    3.5781    8.9129 C   0  0  0  0  0  0  0  0  0  0  0  0
   46.7140    2.8287    7.1980 C   0  0  1  0  0  0  0  0  0  0  0  0
   45.3966    4.7806    9.4965 C   0  0  0  0  0  0  0  0  0  0  0  0
   44.2964    2.6402    9.7029 C   0  0  0  0  0  0  0  0  0  0  0  0
   46.9930    2.7658    5.6972 C   0  0  0  0  0  0  0  0  0  0  0  0
   45.1416    5.0399   10.8441 C   0  0  0  0  0  0  0  0  0  0  0  0
   44.0427    2.9012   11.0502 C   0  0  0  0  0  0  0  0  0  0  0  0
   44.4650    4.1007   11.6203 C   0  0  0  0  0  0  0  0  0  0  0  0
   44.4916    3.7825   10.9613 C   0  0  0  0  0  0  0  0  0  0  0  0
   47.6304    2.1374    6.7249 C   0  0  0  0  0  0  0  0  0  0  0  0
   45.6232    4.0397   11.3335 O   0  0  0  0  0  0  0  0  0  0  0  0
   47.4348    0.9866    7.0747 O   0  0  0  0  0  0  0  0  0  0  0  0
   48.6404    2.4354    5.8836 O   0  0  0  0  0  0  0  0  0  0  0  0
   43.5865    3.2734   11.8200 O   0  0  0  0  0  0  0  0  0  0  0  0
   46.8427    3.3605    7.1095 C   0  0  0  0  0  0  0  0  0  0  0  0
   43.9071    3.9948    9.5899 C   0  0  0  0  0  0  0  0  0  0  0  0
   44.9711    4.2852    8.5315 C   0  0  0  0  0  0  0  0  0  0  0  0
   45.7815    3.0397    8.1607 C   0  0  0  0  0  0  0  0  0  0  0  0
   44.5540    2.5391    7.0794 H   0  0  0  0  0  0  0  0  0  0  0  0
   45.0562    4.2014    6.8825 H   0  0  0  0  0  0  0  0  0  0  0  0
   47.9615    1.2727    7.6623 H   0  0  0  0  0  0  0  0  0  0  0  0
   46.8125    1.5488    8.7838 H   0  0  0  0  0  0  0  0  0  0  0  0
   47.4120    3.5445    7.6494 H   0  0  0  0  0  0  0  0  0  0  0  0
   45.9248    5.5236    8.9036 H   0  0  0  0  0  0  0  0  0  0  0  0
   43.9656    1.6979    9.2709 H   0  0  0  0  0  0  0  0  0  0  0  0
   48.0273    2.4617    5.5007 H   0  0  0  0  0  0  0  0  0  0  0  0
   46.3291    2.0537    5.1942 H   0  0  0  0  0  0  0  0  0  0  0  0
   46.8452    3.7481    5.2354 H   0  0  0  0  0  0  0  0  0  0  0  0
   45.4698    5.9759   11.2884 H   0  0  0  0  0  0  0  0  0  0  0  0
   43.5152    2.1678   11.6542 H   0  0  0  0  0  0  0  0  0  0  0  0
   44.2658    4.3036   12.6691 H   0  0  0  0  0  0  0  0  0  0  0  0
   49.0681    1.5704    5.7117 H   0  0  0  0  0  0  0  0  0  0  0  0
   44.0791    3.1909   12.6634 H   0  0  0  0  0  0  0  0  0  0  0  0
   46.3682    3.7581    6.2058 H   0  0  0  0  0  0  0  0  0  0  0  0
   47.5394    4.1075    7.5059 H   0  0  0  0  0  0  0  0  0  0  0  0
   43.2243    4.8491    9.6569 H   0  0  0  0  0  0  0  0  0  0  0  0
   43.3296    3.1084    9.3055 H   0  0  0  0  0  0  0  0  0  0  0  0
   45.6448    5.0777    8.8794 H   0  0  0  0  0  0  0  0  0  0  0  0
   44.4717    4.6630    7.6309 H   0  0  0  0  0  0  0  0  0  0  0  0
   45.1064    2.2634    7.7792 H   0  0  0  0  0  0  0  0  0  0  0  0
   46.2669    2.6222    9.0509 H   0  0  0  0  0  0  0  0  0  0  0  0
  4  2  1  0
  3  1  1  0
  4  1  1  0
  5  3  2  0
  6  3  1  0
  4  7  1  0
  8  5  1  0
  9  6  2  0
 10  9  1  0
 10  8  2  0
 12 17  1  0
 13 11  2  0
 14 12  2  0
 15 12  1  0
 16 11  1  0
 17 20  1  0
 18 11  1  0
 19 18  1  0
 20 19  1  0
  1 21  1  0
  1 22  1  0
  2 23  1  0
  2 24  1  0
  4 25  1  1
  5 26  1  0
  6 27  1  0
  7 28  1  0
  7 29  1  0
  7 30  1  0
  8 31  1  0
  9 32  1  0
 10 33  1  0
 15 34  1  0
 16 35  1  0
 17 36  1  0
 17 37  1  0
 18 38  1  0
 18 39  1  0
 19 40  1  0
 19 41  1  0
 20 42  1  0
 20 43  1  0
M  END
> <Uni-Dock RESULT> 
ENERGY=   -8.821  LOWER_BOUND=    0.000  UPPER_BOUND=    0.000
INTER + INTRA:          -8.821
INTER:                  -8.821
INTRA:                   0.000
UNBOUND:                 0.000

$$$$
