
     RDKit          3D

 43 42  0  0  0  0  0  0  0  0999 V2000
   43.8513    4.2589    9.0612 C   0  0  0  0  0  0  0  0  0  0  0  0
   46.1033    4.5381    7.9974 N   0  0  0  0  0  0  0  0  0  0  0  0
   44.2015    4.7077   10.4627 C   0  0  0  0  0  0  0  0  0  0  0  0
   44.9952    3.6080    8.2487 C   0  0  1  0  0  0  0  0  0  0  0  0
   44.0006    3.8567   11.5582 C   0  0  0  0  0  0  0  0  0  0  0  0
   44.7327    5.9856   10.6868 C   0  0  0  0  0  0  0  0  0  0  0  0
   45.5250    2.3245    8.8890 C   0  0  0  0  0  0  0  0  0  0  0  0
   44.3314    4.2732   12.8489 C   0  0  0  0  0  0  0  0  0  0  0  0
   45.0630    6.4008   11.9776 C   0  0  0  0  0  0  0  0  0  0  0  0
   44.8631    5.5441   13.0582 C   0  0  0  0  0  0  0  0  0  0  0  0
   43.2313    5.1477   11.9714 C   0  0  0  0  0  0  0  0  0  0  0  0
   45.3753    2.8699    8.2519 C   0  0  0  0  0  0  0  0  0  0  0  0
   42.4588    5.9811   11.5292 O   0  0  0  0  0  0  0  0  0  0  0  0
   44.2892    2.4641    8.6267 O   0  0  0  0  0  0  0  0  0  0  0  0
   46.1616    2.1014    7.4726 O   0  0  0  0  0  0  0  0  0  0  0  0
   42.7862    3.9645   12.4321 O   0  0  0  0  0  0  0  0  0  0  0  0
   46.0040    4.2092    8.5335 C   0  0  0  0  0  0  0  0  0  0  0  0
   44.7246    5.2847   12.0641 C   0  0  0  0  0  0  0  0  0  0  0  0
   45.4454    4.4547   11.0056 C   0  0  0  0  0  0  0  0  0  0  0  0
   45.2449    5.0120    9.5904 C   0  0  0  0  0  0  0  0  0  0  0  0
   43.4610    5.1231    8.5057 H   0  0  0  0  0  0  0  0  0  0  0  0
   43.0094    3.5556    9.1169 H   0  0  0  0  0  0  0  0  0  0  0  0
   46.8414    4.0571    7.4845 H   0  0  0  0  0  0  0  0  0  0  0  0
   46.5194    4.8028    8.8920 H   0  0  0  0  0  0  0  0  0  0  0  0
   44.5772    3.3396    7.2706 H   0  0  0  0  0  0  0  0  0  0  0  0
   43.5845    2.8625   11.4131 H   0  0  0  0  0  0  0  0  0  0  0  0
   44.8916    6.6646    9.8510 H   0  0  0  0  0  0  0  0  0  0  0  0
   46.2316    1.8208    8.2196 H   0  0  0  0  0  0  0  0  0  0  0  0
   44.7065    1.6252    9.0902 H   0  0  0  0  0  0  0  0  0  0  0  0
   46.0473    2.5198    9.8316 H   0  0  0  0  0  0  0  0  0  0  0  0
   44.1721    3.6059   13.6918 H   0  0  0  0  0  0  0  0  0  0  0  0
   45.4739    7.3938   12.1389 H   0  0  0  0  0  0  0  0  0  0  0  0
   45.1188    5.8683   14.0634 H   0  0  0  0  0  0  0  0  0  0  0  0
   45.6438    1.2779    7.3518 H   0  0  0  0  0  0  0  0  0  0  0  0
   41.8196    3.9932   12.2735 H   0  0  0  0  0  0  0  0  0  0  0  0
   46.0063    4.7708    7.5926 H   0  0  0  0  0  0  0  0  0  0  0  0
   47.0411    4.0568    8.8519 H   0  0  0  0  0  0  0  0  0  0  0  0
   45.0321    4.9724   13.0690 H   0  0  0  0  0  0  0  0  0  0  0  0
   44.9837    6.3458   11.9758 H   0  0  0  0  0  0  0  0  0  0  0  0
   45.1049    3.4142   11.0531 H   0  0  0  0  0  0  0  0  0  0  0  0
   46.5174    4.4507   11.2382 H   0  0  0  0  0  0  0  0  0  0  0  0
   44.1776    5.0396    9.3415 H   0  0  0  0  0  0  0  0  0  0  0  0
   45.6060    6.0475    9.5645 H   0  0  0  0  0  0  0  0  0  0  0  0
  4  2  1  0
  3  1  1  0
  4  1  1  0
  5  3  2  0
  6  3  1  0
  4  7  1  0
  8  5  1  0
  9  6  2  0
 10  9  1  0
 10  8  2  0
 12 17  1  0
 13 11  2  0
 14 12  2  0
 15 12  1  0
 16 11  1  0
 17 20  1  0
 18 11  1  0
 19 18  1  0
 20 19  1  0
  1 21  1  0
  1 22  1  0
  2 23  1  0
  2 24  1  0
  4 25  1  6
  5 26  1  0
  6 27  1  0
  7 28  1  0
  7 29  1  0
  7 30  1  0
  8 31  1  0
  9 32  1  0
 10 33  1  0
 15 34  1  0
 16 35  1  0
 17 36  1  0
 17 37  1  0
 18 38  1  0
 18 39  1  0
 19 40  1  0
 19 41  1  0
 20 42  1  0
 20 43  1  0
M  END
> <Uni-Dock RESULT> 
ENERGY=   -5.254  LOWER_BOUND=    0.000  UPPER_BOUND=    0.000
INTER + INTRA:          -5.254
INTER:                  -5.254
INTRA:                   0.000
UNBOUND:                 0.000

$$$$

     RDKit          3D

 43 42  0  0  0  0  0  0  0  0999 V2000
   45.0884    6.7291   12.7982 C   0  0  0  0  0  0  0  0  0  0  0  0
   47.0396    5.8937   14.1308 N   0  0  0  0  0  0  0  0  0  0  0  0
   44.6392    5.4147   12.1989 C   0  0  0  0  0  0  0  0  0  0  0  0
   46.5978    6.8541   13.1117 C   0  0  1  0  0  0  0  0  0  0  0  0
   44.5668    5.2492   10.8090 C   0  0  0  0  0  0  0  0  0  0  0  0
   44.2868    4.3405   13.0279 C   0  0  0  0  0  0  0  0  0  0  0  0
   47.4767    6.7359   11.8661 C   0  0  0  0  0  0  0  0  0  0  0  0
   44.1577    4.0322   10.2609 C   0  0  0  0  0  0  0  0  0  0  0  0
   43.8781    3.1243   12.4787 C   0  0  0  0  0  0  0  0  0  0  0  0
   43.8146    2.9702   11.0954 C   0  0  0  0  0  0  0  0  0  0  0  0
   43.1393    4.8434   11.2853 C   0  0  0  0  0  0  0  0  0  0  0  0
   47.2861    6.9710   12.6624 C   0  0  0  0  0  0  0  0  0  0  0  0
   42.2469    5.1987   12.0367 O   0  0  0  0  0  0  0  0  0  0  0  0
   46.5378    7.5904   11.9268 O   0  0  0  0  0  0  0  0  0  0  0  0
   48.5714    7.3495   12.8077 O   0  0  0  0  0  0  0  0  0  0  0  0
   43.2734    5.3867   10.0617 O   0  0  0  0  0  0  0  0  0  0  0  0
   46.9564    5.7716   13.5114 C   0  0  0  0  0  0  0  0  0  0  0  0
   44.1863    3.8074   11.5809 C   0  0  0  0  0  0  0  0  0  0  0  0
   45.5494    4.4317   11.8657 C   0  0  0  0  0  0  0  0  0  0  0  0
   45.5789    5.1845   13.2020 C   0  0  0  0  0  0  0  0  0  0  0  0
   44.5132    6.9079   13.7173 H   0  0  0  0  0  0  0  0  0  0  0  0
   44.7972    7.5428   12.1202 H   0  0  0  0  0  0  0  0  0  0  0  0
   48.0424    5.9962   14.2827 H   0  0  0  0  0  0  0  0  0  0  0  0
   46.9132    4.9474   13.7672 H   0  0  0  0  0  0  0  0  0  0  0  0
   46.7533    7.8561   13.5304 H   0  0  0  0  0  0  0  0  0  0  0  0
   44.8287    6.0681   10.1432 H   0  0  0  0  0  0  0  0  0  0  0  0
   44.3306    4.4492   14.1101 H   0  0  0  0  0  0  0  0  0  0  0  0
   48.5209    6.9675   12.1053 H   0  0  0  0  0  0  0  0  0  0  0  0
   47.1517    7.4414   11.0940 H   0  0  0  0  0  0  0  0  0  0  0  0
   47.4531    5.7274   11.4397 H   0  0  0  0  0  0  0  0  0  0  0  0
   44.1049    3.9135    9.1819 H   0  0  0  0  0  0  0  0  0  0  0  0
   43.6073    2.2988   13.1314 H   0  0  0  0  0  0  0  0  0  0  0  0
   43.4946    2.0237   10.6680 H   0  0  0  0  0  0  0  0  0  0  0  0
   48.6549    8.1340   12.2259 H   0  0  0  0  0  0  0  0  0  0  0  0
   42.5662    6.0640   10.0208 H   0  0  0  0  0  0  0  0  0  0  0  0
   46.9782    6.0984   14.5571 H   0  0  0  0  0  0  0  0  0  0  0  0
   47.7298    5.0091   13.3676 H   0  0  0  0  0  0  0  0  0  0  0  0
   44.2480    3.1322   10.7193 H   0  0  0  0  0  0  0  0  0  0  0  0
   43.8470    3.2000   12.4276 H   0  0  0  0  0  0  0  0  0  0  0  0
   45.8288    5.1046   11.0472 H   0  0  0  0  0  0  0  0  0  0  0  0
   46.2993    3.6315   11.8911 H   0  0  0  0  0  0  0  0  0  0  0  0
   44.8256    5.9810   13.2052 H   0  0  0  0  0  0  0  0  0  0  0  0
   45.3108    4.4877   14.0056 H   0  0  0  0  0  0  0  0  0  0  0  0
  4  2  1  0
  3  1  1  0
  4  1  1  0
  5  3  2  0
  6  3  1  0
  4  7  1  0
  8  5  1  0
  9  6  2  0
 10  9  1  0
 10  8  2  0
 12 17  1  0
 13 11  2  0
 14 12  2  0
 15 12  1  0
 16 11  1  0
 17 20  1  0
 18 11  1  0
 19 18  1  0
 20 19  1  0
  1 21  1  0
  1 22  1  0
  2 23  1  0
  2 24  1  0
  4 25  1  6
  5 26  1  0
  6 27  1  0
  7 28  1  0
  7 29  1  0
  7 30  1  0
  8 31  1  0
  9 32  1  0
 10 33  1  0
 15 34  1  0
 16 35  1  0
 17 36  1  0
 17 37  1  0
 18 38  1  0
 18 39  1  0
 19 40  1  0
 19 41  1  0
 20 42  1  0
 20 43  1  0
M  END
> <Uni-Dock RESULT> 
ENERGY=   -5.003  LOWER_BOUND=    2.561  UPPER_BOUND=    4.328
INTER + INTRA:          -5.003
INTER:                  -5.003
INTRA:                   0.000
UNBOUND:                 0.000

$$$$

     RDKit          3D

 43 42  0  0  0  0  0  0  0  0999 V2000
   46.4119    6.5316   11.2702 C   0  0  0  0  0  0  0  0  0  0  0  0
   46.1354    8.5007   12.7958 N   0  0  0  0  0  0  0  0  0  0  0  0
   45.1253    5.8057   11.5958 C   0  0  0  0  0  0  0  0  0  0  0  0
   47.0148    7.3914   12.4059 C   0  0  1  0  0  0  0  0  0  0  0  0
   45.1481    4.4909   12.0808 C   0  0  0  0  0  0  0  0  0  0  0  0
   43.8878    6.4393   11.4152 C   0  0  0  0  0  0  0  0  0  0  0  0
   47.3962    6.5691   13.6373 C   0  0  0  0  0  0  0  0  0  0  0  0
   43.9582    3.8276   12.3858 C   0  0  0  0  0  0  0  0  0  0  0  0
   42.6990    5.7751   11.7205 C   0  0  0  0  0  0  0  0  0  0  0  0
   42.7345    4.4698   12.2066 C   0  0  0  0  0  0  0  0  0  0  0  0
   44.2001    4.3932   10.8475 C   0  0  0  0  0  0  0  0  0  0  0  0
   47.4309    7.2350   13.1071 C   0  0  0  0  0  0  0  0  0  0  0  0
   44.1047    4.7530    9.6862 O   0  0  0  0  0  0  0  0  0  0  0  0
   47.8459    6.2722   12.4861 O   0  0  0  0  0  0  0  0  0  0  0  0
   48.2134    7.8547   14.0126 O   0  0  0  0  0  0  0  0  0  0  0  0
   44.9270    3.3112   11.1810 O   0  0  0  0  0  0  0  0  0  0  0  0
   46.0828    7.8955   12.9868 C   0  0  0  0  0  0  0  0  0  0  0  0
   43.5692    5.0606   12.0364 C   0  0  0  0  0  0  0  0  0  0  0  0
   44.5861    5.8391   12.8662 C   0  0  0  0  0  0  0  0  0  0  0  0
   45.0988    7.0888   12.1390 C   0  0  0  0  0  0  0  0  0  0  0  0
   46.2410    7.1662   10.3895 H   0  0  0  0  0  0  0  0  0  0  0  0
   47.1595    5.7948   10.9465 H   0  0  0  0  0  0  0  0  0  0  0  0
   46.5620    9.0198   13.5624 H   0  0  0  0  0  0  0  0  0  0  0  0
   45.2687    8.1152   13.1751 H   0  0  0  0  0  0  0  0  0  0  0  0
   47.9352    7.8390   12.0110 H   0  0  0  0  0  0  0  0  0  0  0  0
   46.0940    3.9740   12.2244 H   0  0  0  0  0  0  0  0  0  0  0  0
   43.8470    7.4582   11.0344 H   0  0  0  0  0  0  0  0  0  0  0  0
   47.9442    7.1847   14.3597 H   0  0  0  0  0  0  0  0  0  0  0  0
   48.0455    5.7322   13.3586 H   0  0  0  0  0  0  0  0  0  0  0  0
   46.5175    6.1640   14.1502 H   0  0  0  0  0  0  0  0  0  0  0  0
   43.9862    2.8082   12.7615 H   0  0  0  0  0  0  0  0  0  0  0  0
   41.7457    6.2765   11.5763 H   0  0  0  0  0  0  0  0  0  0  0  0
   41.8086    3.9522   12.4425 H   0  0  0  0  0  0  0  0  0  0  0  0
   49.0523    7.3483   13.9874 H   0  0  0  0  0  0  0  0  0  0  0  0
   45.3093    3.0074   10.3314 H   0  0  0  0  0  0  0  0  0  0  0  0
   46.2411    8.8726   12.5166 H   0  0  0  0  0  0  0  0  0  0  0  0
   45.6718    8.0532   13.9900 H   0  0  0  0  0  0  0  0  0  0  0  0
   43.0917    4.2851   12.6468 H   0  0  0  0  0  0  0  0  0  0  0  0
   42.7654    5.7161   11.6828 H   0  0  0  0  0  0  0  0  0  0  0  0
   45.4254    5.1872   13.1337 H   0  0  0  0  0  0  0  0  0  0  0  0
   44.1075    6.1446   13.8048 H   0  0  0  0  0  0  0  0  0  0  0  0
   45.5687    6.8086   11.1889 H   0  0  0  0  0  0  0  0  0  0  0  0
   44.2437    7.7312   11.8955 H   0  0  0  0  0  0  0  0  0  0  0  0
  4  2  1  0
  3  1  1  0
  4  1  1  0
  5  3  2  0
  6  3  1  0
  4  7  1  0
  8  5  1  0
  9  6  2  0
 10  9  1  0
 10  8  2  0
 12 17  1  0
 13 11  2  0
 14 12  2  0
 15 12  1  0
 16 11  1  0
 17 20  1  0
 18 11  1  0
 19 18  1  0
 20 19  1  0
  1 21  1  0
  1 22  1  0
  2 23  1  0
  2 24  1  0
  4 25  1  6
  5 26  1  0
  6 27  1  0
  7 28  1  0
  7 29  1  0
  7 30  1  0
  8 31  1  0
  9 32  1  0
 10 33  1  0
 15 34  1  0
 16 35  1  0
 17 36  1  0
 17 37  1  0
 18 38  1  0
 18 39  1  0
 19 40  1  0
 19 41  1  0
 20 42  1  0
 20 43  1  0
M  END
> <Uni-Dock RESULT> 
ENERGY=   -4.820  LOWER_BOUND=    2.805  UPPER_BOUND=    4.430
INTER + INTRA:          -4.820
INTER:                  -4.820
INTRA:                   0.000
UNBOUND:                 0.000

$$$$

     RDKit          3D

 43 42  0  0  0  0  0  0  0  0999 V2000
   45.8001    4.5132   10.0320 C   0  0  0  0  0  0  0  0  0  0  0  0
   45.3429    2.1267    9.4185 N   0  0  0  0  0  0  0  0  0  0  0  0
   44.7046    4.7010   11.0582 C   0  0  0  0  0  0  0  0  0  0  0  0
   45.5111    3.4925    8.9064 C   0  0  1  0  0  0  0  0  0  0  0  0
   43.7388    5.7043   10.8990 C   0  0  0  0  0  0  0  0  0  0  0  0
   44.6401    3.8723   12.1871 C   0  0  0  0  0  0  0  0  0  0  0  0
   44.3083    3.8798    8.0455 C   0  0  0  0  0  0  0  0  0  0  0  0
   42.7262    5.8694   11.8456 C   0  0  0  0  0  0  0  0  0  0  0  0
   43.6271    4.0384   13.1327 C   0  0  0  0  0  0  0  0  0  0  0  0
   42.6699    5.0363   12.9612 C   0  0  0  0  0  0  0  0  0  0  0  0
   44.3086    5.9886   12.3217 C   0  0  0  0  0  0  0  0  0  0  0  0
   45.0441    3.4875    8.2200 C   0  0  0  0  0  0  0  0  0  0  0  0
   45.3627    6.0646   12.9300 O   0  0  0  0  0  0  0  0  0  0  0  0
   45.2784    4.6833    8.2152 O   0  0  0  0  0  0  0  0  0  0  0  0
   44.9041    2.8126    7.0620 O   0  0  0  0  0  0  0  0  0  0  0  0
   43.8477    7.0262   11.5997 O   0  0  0  0  0  0  0  0  0  0  0  0
   44.8993    2.5835    9.4158 C   0  0  0  0  0  0  0  0  0  0  0  0
   43.4011    4.7925   12.2679 C   0  0  0  0  0  0  0  0  0  0  0  0
   43.4858    4.0656   10.9287 C   0  0  0  0  0  0  0  0  0  0  0  0
   44.8296    3.3508   10.7365 C   0  0  0  0  0  0  0  0  0  0  0  0
   46.7215    4.2218   10.5552 H   0  0  0  0  0  0  0  0  0  0  0  0
   46.0287    5.4874    9.5790 H   0  0  0  0  0  0  0  0  0  0  0  0
   45.1283    1.4976    8.6455 H   0  0  0  0  0  0  0  0  0  0  0  0
   44.5226    2.1025   10.0269 H   0  0  0  0  0  0  0  0  0  0  0  0
   46.3929    3.4812    8.2539 H   0  0  0  0  0  0  0  0  0  0  0  0
   43.7692    6.3648   10.0357 H   0  0  0  0  0  0  0  0  0  0  0  0
   45.3832    3.0905   12.3332 H   0  0  0  0  0  0  0  0  0  0  0  0
   44.2204    3.2129    7.1803 H   0  0  0  0  0  0  0  0  0  0  0  0
   44.4171    4.9008    7.6644 H   0  0  0  0  0  0  0  0  0  0  0  0
   43.3673    3.8213    8.6026 H   0  0  0  0  0  0  0  0  0  0  0  0
   41.9818    6.6502   11.7132 H   0  0  0  0  0  0  0  0  0  0  0  0
   43.5875    3.3900   14.0039 H   0  0  0  0  0  0  0  0  0  0  0  0
   41.8823    5.1665   13.6985 H   0  0  0  0  0  0  0  0  0  0  0  0
   45.0321    3.4967    6.3717 H   0  0  0  0  0  0  0  0  0  0  0  0
   44.5461    7.7082   11.6865 H   0  0  0  0  0  0  0  0  0  0  0  0
   45.7746    1.9244    9.4320 H   0  0  0  0  0  0  0  0  0  0  0  0
   44.0012    1.9685    9.2917 H   0  0  0  0  0  0  0  0  0  0  0  0
   42.3763    5.1358   12.4519 H   0  0  0  0  0  0  0  0  0  0  0  0
   43.6575    4.1224   13.0962 H   0  0  0  0  0  0  0  0  0  0  0  0
   43.3142    4.7732   10.1097 H   0  0  0  0  0  0  0  0  0  0  0  0
   42.6786    3.3242   10.8844 H   0  0  0  0  0  0  0  0  0  0  0  0
   45.6538    4.0715   10.7923 H   0  0  0  0  0  0  0  0  0  0  0  0
   44.9713    2.6388   11.5588 H   0  0  0  0  0  0  0  0  0  0  0  0
  4  2  1  0
  3  1  1  0
  4  1  1  0
  5  3  2  0
  6  3  1  0
  4  7  1  0
  8  5  1  0
  9  6  2  0
 10  9  1  0
 10  8  2  0
 12 17  1  0
 13 11  2  0
 14 12  2  0
 15 12  1  0
 16 11  1  0
 17 20  1  0
 18 11  1  0
 19 18  1  0
 20 19  1  0
  1 21  1  0
  1 22  1  0
  2 23  1  0
  2 24  1  0
  4 25  1  6
  5 26  1  0
  6 27  1  0
  7 28  1  0
  7 29  1  0
  7 30  1  0
  8 31  1  0
  9 32  1  0
 10 33  1  0
 15 34  1  0
 16 35  1  0
 17 36  1  0
 17 37  1  0
 18 38  1  0
 18 39  1  0
 19 40  1  0
 19 41  1  0
 20 42  1  0
 20 43  1  0
M  END
> <Uni-Dock RESULT> 
ENERGY=   -4.417  LOWER_BOUND=    1.439  UPPER_BOUND=    2.206
INTER + INTRA:          -4.417
INTER:                  -4.417
INTRA:                   0.000
UNBOUND:                 0.000

$$$$

     RDKit          3D

 43 42  0  0  0  0  0  0  0  0999 V2000
   46.9207    4.9577   18.3645 C   0  0  0  0  0  0  0  0  0  0  0  0
   48.0980    5.3349   16.1844 N   0  0  0  0  0  0  0  0  0  0  0  0
   48.0283    5.3865   19.3014 C   0  0  0  0  0  0  0  0  0  0  0  0
   47.3680    4.3633   17.0084 C   0  0  1  0  0  0  0  0  0  0  0  0
   48.5282    4.5051   20.2698 C   0  0  0  0  0  0  0  0  0  0  0  0
   48.5715    6.6760   19.2149 C   0  0  0  0  0  0  0  0  0  0  0  0
   48.1916    3.0841   17.1613 C   0  0  0  0  0  0  0  0  0  0  0  0
   49.5547    4.9035   21.1279 C   0  0  0  0  0  0  0  0  0  0  0  0
   49.5978    7.0730   20.0733 C   0  0  0  0  0  0  0  0  0  0  0  0
   50.0897    6.1864   21.0289 C   0  0  0  0  0  0  0  0  0  0  0  0
   48.1369    5.7603   21.1068 C   0  0  0  0  0  0  0  0  0  0  0  0
   47.6857    3.6383   16.7579 C   0  0  0  0  0  0  0  0  0  0  0  0
   47.2415    6.5774   21.2402 O   0  0  0  0  0  0  0  0  0  0  0  0
   47.0395    3.1885   17.6879 O   0  0  0  0  0  0  0  0  0  0  0  0
   47.8663    2.9138   15.6359 O   0  0  0  0  0  0  0  0  0  0  0  0
   48.0681    4.5531   21.6968 O   0  0  0  0  0  0  0  0  0  0  0  0
   48.3407    4.9911   16.6622 C   0  0  0  0  0  0  0  0  0  0  0  0
   49.3918    5.9447   20.3015 C   0  0  0  0  0  0  0  0  0  0  0  0
   49.3549    5.1629   18.9914 C   0  0  0  0  0  0  0  0  0  0  0  0
   48.3462    5.7446   17.9926 C   0  0  0  0  0  0  0  0  0  0  0  0
   46.2654    5.8206   18.1814 H   0  0  0  0  0  0  0  0  0  0  0  0
   46.2858    4.2257   18.8818 H   0  0  0  0  0  0  0  0  0  0  0  0
   48.3941    4.8903   15.3162 H   0  0  0  0  0  0  0  0  0  0  0  0
   48.9603    5.5933   16.6675 H   0  0  0  0  0  0  0  0  0  0  0  0
   46.4547    4.1030   16.4590 H   0  0  0  0  0  0  0  0  0  0  0  0
   48.1206    3.5011   20.3624 H   0  0  0  0  0  0  0  0  0  0  0  0
   48.1943    7.3783   18.4738 H   0  0  0  0  0  0  0  0  0  0  0  0
   48.3698    2.6191   16.1849 H   0  0  0  0  0  0  0  0  0  0  0  0
   47.6617    2.3538   17.7819 H   0  0  0  0  0  0  0  0  0  0  0  0
   49.1686    3.2756   17.6174 H   0  0  0  0  0  0  0  0  0  0  0  0
   49.9357    4.2127   21.8755 H   0  0  0  0  0  0  0  0  0  0  0  0
   50.0108    8.0753   19.9969 H   0  0  0  0  0  0  0  0  0  0  0  0
   50.8876    6.4964   21.6984 H   0  0  0  0  0  0  0  0  0  0  0  0
   47.3891    2.0765   15.8148 H   0  0  0  0  0  0  0  0  0  0  0  0
   47.1956    4.5532   22.1432 H   0  0  0  0  0  0  0  0  0  0  0  0
   47.7766    5.5732   15.9249 H   0  0  0  0  0  0  0  0  0  0  0  0
   49.3663    4.8661   16.2979 H   0  0  0  0  0  0  0  0  0  0  0  0
   50.2398    5.6204   20.9160 H   0  0  0  0  0  0  0  0  0  0  0  0
   49.5336    7.0155   20.1168 H   0  0  0  0  0  0  0  0  0  0  0  0
   49.1232    4.1108   19.1924 H   0  0  0  0  0  0  0  0  0  0  0  0
   50.3557    5.1892   18.5431 H   0  0  0  0  0  0  0  0  0  0  0  0
   47.3392    5.7423   18.4259 H   0  0  0  0  0  0  0  0  0  0  0  0
   48.6075    6.7918   17.7966 H   0  0  0  0  0  0  0  0  0  0  0  0
  4  2  1  0
  3  1  1  0
  4  1  1  0
  5  3  2  0
  6  3  1  0
  4  7  1  0
  8  5  1  0
  9  6  2  0
 10  9  1  0
 10  8  2  0
 12 17  1  0
 13 11  2  0
 14 12  2  0
 15 12  1  0
 16 11  1  0
 17 20  1  0
 18 11  1  0
 19 18  1  0
 20 19  1  0
  1 21  1  0
  1 22  1  0
  2 23  1  0
  2 24  1  0
  4 25  1  6
  5 26  1  0
  6 27  1  0
  7 28  1  0
  7 29  1  0
  7 30  1  0
  8 31  1  0
  9 32  1  0
 10 33  1  0
 15 34  1  0
 16 35  1  0
 17 36  1  0
 17 37  1  0
 18 38  1  0
 18 39  1  0
 19 40  1  0
 19 41  1  0
 20 42  1  0
 20 43  1  0
M  END
> <Uni-Dock RESULT> 
ENERGY=   -4.134  LOWER_BOUND=    7.668  UPPER_BOUND=    9.434
INTER + INTRA:          -4.134
INTER:                  -4.134
INTRA:                   0.000
UNBOUND:                 0.000

$$$$

     RDKit          3D

 43 42  0  0  0  0  0  0  0  0999 V2000
   48.8283    5.6439   18.0219 C   0  0  0  0  0  0  0  0  0  0  0  0
   49.7045    3.3565   17.4919 N   0  0  0  0  0  0  0  0  0  0  0  0
   48.7833    5.5296   19.5296 C   0  0  0  0  0  0  0  0  0  0  0  0
   48.6341    4.3277   17.2331 C   0  0  1  0  0  0  0  0  0  0  0  0
   47.5821    5.7191   20.2265 C   0  0  0  0  0  0  0  0  0  0  0  0
   49.9464    5.2326   20.2538 C   0  0  0  0  0  0  0  0  0  0  0  0
   47.2706    3.6811   17.4796 C   0  0  0  0  0  0  0  0  0  0  0  0
   47.5445    5.6062   21.6174 C   0  0  0  0  0  0  0  0  0  0  0  0
   49.9076    5.1200   21.6443 C   0  0  0  0  0  0  0  0  0  0  0  0
   48.7065    5.3059   22.3257 C   0  0  0  0  0  0  0  0  0  0  0  0
   48.5523    6.7217   20.9212 C   0  0  0  0  0  0  0  0  0  0  0  0
   47.9879    3.8403   17.0484 C   0  0  0  0  0  0  0  0  0  0  0  0
   49.4018    7.5591   20.6676 O   0  0  0  0  0  0  0  0  0  0  0  0
   47.3627    4.8857   17.0844 O   0  0  0  0  0  0  0  0  0  0  0  0
   47.6349    2.8605   16.1930 O   0  0  0  0  0  0  0  0  0  0  0  0
   47.2426    7.0269   20.8780 O   0  0  0  0  0  0  0  0  0  0  0  0
   49.1978    3.4638   17.8623 C   0  0  0  0  0  0  0  0  0  0  0  0
   48.8046    5.2883   21.2938 C   0  0  0  0  0  0  0  0  0  0  0  0
   48.4870    4.3315   20.1482 C   0  0  0  0  0  0  0  0  0  0  0  0
   49.4868    4.4538   18.9911 C   0  0  0  0  0  0  0  0  0  0  0  0
   49.7870    6.0981   17.7352 H   0  0  0  0  0  0  0  0  0  0  0  0
   48.0663    6.3670   17.7009 H   0  0  0  0  0  0  0  0  0  0  0  0
   49.5186    2.4990   16.9728 H   0  0  0  0  0  0  0  0  0  0  0  0
   49.6760    3.0911   18.4780 H   0  0  0  0  0  0  0  0  0  0  0  0
   48.6887    4.5848   16.1680 H   0  0  0  0  0  0  0  0  0  0  0  0
   46.6665    5.9563   19.6898 H   0  0  0  0  0  0  0  0  0  0  0  0
   50.8911    5.0871   19.7330 H   0  0  0  0  0  0  0  0  0  0  0  0
   47.1159    2.8332   16.8026 H   0  0  0  0  0  0  0  0  0  0  0  0
   46.4631    4.3985   17.2986 H   0  0  0  0  0  0  0  0  0  0  0  0
   47.1719    3.3063   18.5038 H   0  0  0  0  0  0  0  0  0  0  0  0
   46.6082    5.7547   22.1488 H   0  0  0  0  0  0  0  0  0  0  0  0
   50.8157    4.8895   22.1949 H   0  0  0  0  0  0  0  0  0  0  0  0
   48.6768    5.2199   23.4085 H   0  0  0  0  0  0  0  0  0  0  0  0
   46.8584    3.2269   15.7200 H   0  0  0  0  0  0  0  0  0  0  0  0
   47.2233    7.9619   20.5849 H   0  0  0  0  0  0  0  0  0  0  0  0
   50.0543    3.4417   17.1792 H   0  0  0  0  0  0  0  0  0  0  0  0
   49.0528    2.4586   18.2732 H   0  0  0  0  0  0  0  0  0  0  0  0
   48.1896    5.0524   22.1702 H   0  0  0  0  0  0  0  0  0  0  0  0
   49.8488    5.1890   21.6114 H   0  0  0  0  0  0  0  0  0  0  0  0
   47.4678    4.5091   19.7867 H   0  0  0  0  0  0  0  0  0  0  0  0
   48.5140    3.3054   20.5352 H   0  0  0  0  0  0  0  0  0  0  0  0
   49.4880    5.4770   18.5976 H   0  0  0  0  0  0  0  0  0  0  0  0
   50.4957    4.2575   19.3743 H   0  0  0  0  0  0  0  0  0  0  0  0
  4  2  1  0
  3  1  1  0
  4  1  1  0
  5  3  2  0
  6  3  1  0
  4  7  1  0
  8  5  1  0
  9  6  2  0
 10  9  1  0
 10  8  2  0
 12 17  1  0
 13 11  2  0
 14 12  2  0
 15 12  1  0
 16 11  1  0
 17 20  1  0
 18 11  1  0
 19 18  1  0
 20 19  1  0
  1 21  1  0
  1 22  1  0
  2 23  1  0
  2 24  1  0
  4 25  1  6
  5 26  1  0
  6 27  1  0
  7 28  1  0
  7 29  1  0
  7 30  1  0
  8 31  1  0
  9 32  1  0
 10 33  1  0
 15 34  1  0
 16 35  1  0
 17 36  1  0
 17 37  1  0
 18 38  1  0
 18 39  1  0
 19 40  1  0
 19 41  1  0
 20 42  1  0
 20 43  1  0
M  END
> <Uni-Dock RESULT> 
ENERGY=   -4.019  LOWER_BOUND=    8.204  UPPER_BOUND=   10.008
INTER + INTRA:          -4.019
INTER:                  -4.019
INTRA:                   0.000
UNBOUND:                 0.000

$$$$

     RDKit          3D

 43 42  0  0  0  0  0  0  0  0999 V2000
   45.5674    5.9093   10.8983 C   0  0  0  0  0  0  0  0  0  0  0  0
   44.6226    4.0046   12.2252 N   0  0  0  0  0  0  0  0  0  0  0  0
   46.2974    6.6263   12.0125 C   0  0  0  0  0  0  0  0  0  0  0  0
   44.3090    5.1109   11.3121 C   0  0  1  0  0  0  0  0  0  0  0  0
   46.0010    7.9614   12.3196 C   0  0  0  0  0  0  0  0  0  0  0  0
   47.2848    5.9640   12.7553 C   0  0  0  0  0  0  0  0  0  0  0  0
   43.2156    5.9930   11.9159 C   0  0  0  0  0  0  0  0  0  0  0  0
   46.6730    8.6166   13.3530 C   0  0  0  0  0  0  0  0  0  0  0  0
   47.9559    6.6201   13.7881 C   0  0  0  0  0  0  0  0  0  0  0  0
   47.6492    7.9460   14.0873 C   0  0  0  0  0  0  0  0  0  0  0  0
   47.5424    7.9883   12.0903 C   0  0  0  0  0  0  0  0  0  0  0  0
   43.5300    5.3052   11.5237 C   0  0  0  0  0  0  0  0  0  0  0  0
   48.4014    7.5762   11.3292 O   0  0  0  0  0  0  0  0  0  0  0  0
   43.7042    6.2469   10.7702 O   0  0  0  0  0  0  0  0  0  0  0  0
   42.3125    4.7396   11.6427 O   0  0  0  0  0  0  0  0  0  0  0  0
   46.8351    9.0964   11.8037 O   0  0  0  0  0  0  0  0  0  0  0  0
   44.5539    4.6166   12.3872 C   0  0  0  0  0  0  0  0  0  0  0  0
   47.1419    7.3629   13.3963 C   0  0  0  0  0  0  0  0  0  0  0  0
   45.8017    6.6393   13.3009 C   0  0  0  0  0  0  0  0  0  0  0  0
   45.8842    5.3680   12.4462 C   0  0  0  0  0  0  0  0  0  0  0  0
   46.2742    5.2338   10.3966 H   0  0  0  0  0  0  0  0  0  0  0  0
   45.2865    6.6441   10.1317 H   0  0  0  0  0  0  0  0  0  0  0  0
   43.7616    3.5273   12.4897 H   0  0  0  0  0  0  0  0  0  0  0  0
   44.9989    4.3913   13.0928 H   0  0  0  0  0  0  0  0  0  0  0  0
   43.9023    4.6625   10.3972 H   0  0  0  0  0  0  0  0  0  0  0  0
   45.2438    8.5005   11.7552 H   0  0  0  0  0  0  0  0  0  0  0  0
   47.5345    4.9288   12.5299 H   0  0  0  0  0  0  0  0  0  0  0  0
   42.2940    5.4193   12.0661 H   0  0  0  0  0  0  0  0  0  0  0  0
   42.9785    6.8280   11.2480 H   0  0  0  0  0  0  0  0  0  0  0  0
   43.5086    6.4048   12.8874 H   0  0  0  0  0  0  0  0  0  0  0  0
   46.4360    9.6519   13.5836 H   0  0  0  0  0  0  0  0  0  0  0  0
   48.7194    6.0963   14.3569 H   0  0  0  0  0  0  0  0  0  0  0  0
   48.1731    8.4572   14.8904 H   0  0  0  0  0  0  0  0  0  0  0  0
   41.7489    5.2589   11.0315 H   0  0  0  0  0  0  0  0  0  0  0  0
   47.1631    9.3692   10.9215 H   0  0  0  0  0  0  0  0  0  0  0  0
   44.7244    3.6227   11.9583 H   0  0  0  0  0  0  0  0  0  0  0  0
   44.1463    4.4961   13.3969 H   0  0  0  0  0  0  0  0  0  0  0  0
   47.0949    8.1560   14.1518 H   0  0  0  0  0  0  0  0  0  0  0  0
   47.9368    6.6785   13.7137 H   0  0  0  0  0  0  0  0  0  0  0  0
   45.0410    7.3169   12.8971 H   0  0  0  0  0  0  0  0  0  0  0  0
   45.4812    6.3672   14.3140 H   0  0  0  0  0  0  0  0  0  0  0  0
   46.2179    5.6144   11.4315 H   0  0  0  0  0  0  0  0  0  0  0  0
   46.6401    4.7008   12.8782 H   0  0  0  0  0  0  0  0  0  0  0  0
  4  2  1  0
  3  1  1  0
  4  1  1  0
  5  3  2  0
  6  3  1  0
  4  7  1  0
  8  5  1  0
  9  6  2  0
 10  9  1  0
 10  8  2  0
 12 17  1  0
 13 11  2  0
 14 12  2  0
 15 12  1  0
 16 11  1  0
 17 20  1  0
 18 11  1  0
 19 18  1  0
 20 19  1  0
  1 21  1  0
  1 22  1  0
  2 23  1  0
  2 24  1  0
  4 25  1  6
  5 26  1  0
  6 27  1  0
  7 28  1  0
  7 29  1  0
  7 30  1  0
  8 31  1  0
  9 32  1  0
 10 33  1  0
 15 34  1  0
 16 35  1  0
 17 36  1  0
 17 37  1  0
 18 38  1  0
 18 39  1  0
 19 40  1  0
 19 41  1  0
 20 42  1  0
 20 43  1  0
M  END
> <Uni-Dock RESULT> 
ENERGY=   -3.987  LOWER_BOUND=    2.813  UPPER_BOUND=    4.456
INTER + INTRA:          -3.987
INTER:                  -3.987
INTRA:                   0.000
UNBOUND:                 0.000

$$$$

     RDKit          3D

 43 42  0  0  0  0  0  0  0  0999 V2000
   45.3894    5.8157   12.9653 C   0  0  0  0  0  0  0  0  0  0  0  0
   43.4840    6.7327   11.6201 N   0  0  0  0  0  0  0  0  0  0  0  0
   46.3893    6.9273   12.7356 C   0  0  0  0  0  0  0  0  0  0  0  0
   44.3644    5.5769   11.8318 C   0  0  1  0  0  0  0  0  0  0  0  0
   47.6392    6.6587   12.1612 C   0  0  0  0  0  0  0  0  0  0  0  0
   46.0795    8.2462   13.0964 C   0  0  0  0  0  0  0  0  0  0  0  0
   45.0201    5.1705   10.5116 C   0  0  0  0  0  0  0  0  0  0  0  0
   48.5560    7.6891   11.9455 C   0  0  0  0  0  0  0  0  0  0  0  0
   46.9969    9.2754   12.8802 C   0  0  0  0  0  0  0  0  0  0  0  0
   48.2345    8.9968   12.3040 C   0  0  0  0  0  0  0  0  0  0  0  0
   48.0120    7.3961   13.4827 C   0  0  0  0  0  0  0  0  0  0  0  0
   44.3875    5.2265   11.0795 C   0  0  0  0  0  0  0  0  0  0  0  0
   47.7333    7.4274   14.6695 O   0  0  0  0  0  0  0  0  0  0  0  0
   45.2469    4.5239   11.5822 O   0  0  0  0  0  0  0  0  0  0  0  0
   43.5616    4.7297   10.1374 O   0  0  0  0  0  0  0  0  0  0  0  0
   48.8732    6.4840   12.9961 O   0  0  0  0  0  0  0  0  0  0  0  0
   44.0757    6.6658   11.3947 C   0  0  0  0  0  0  0  0  0  0  0  0
   47.4679    8.3087   12.4206 C   0  0  0  0  0  0  0  0  0  0  0  0
   46.4347    7.6135   11.5385 C   0  0  0  0  0  0  0  0  0  0  0  0
   45.1291    7.3204   12.2889 C   0  0  0  0  0  0  0  0  0  0  0  0
   44.8509    6.0190   13.9014 H   0  0  0  0  0  0  0  0  0  0  0  0
   45.9375    4.8823   13.1519 H   0  0  0  0  0  0  0  0  0  0  0  0
   42.8468    6.5382   10.8485 H   0  0  0  0  0  0  0  0  0  0  0  0
   44.0506    7.5257   11.3139 H   0  0  0  0  0  0  0  0  0  0  0  0
   43.7252    4.7446   12.1517 H   0  0  0  0  0  0  0  0  0  0  0  0
   47.9074    5.6437   11.8776 H   0  0  0  0  0  0  0  0  0  0  0  0
   45.1167    8.4761   13.5490 H   0  0  0  0  0  0  0  0  0  0  0  0
   44.2619    4.8760    9.7770 H   0  0  0  0  0  0  0  0  0  0  0  0
   45.6871    4.3141   10.6576 H   0  0  0  0  0  0  0  0  0  0  0  0
   45.6032    5.9871   10.0729 H   0  0  0  0  0  0  0  0  0  0  0  0
   49.5227    7.4707   11.4993 H   0  0  0  0  0  0  0  0  0  0  0  0
   46.7455   10.2938   13.1641 H   0  0  0  0  0  0  0  0  0  0  0  0
   48.9494    9.7980   12.1374 H   0  0  0  0  0  0  0  0  0  0  0  0
   43.8522    3.7993   10.0339 H   0  0  0  0  0  0  0  0  0  0  0  0
   49.1106    5.9383   13.7748 H   0  0  0  0  0  0  0  0  0  0  0  0
   43.1092    6.6828   11.9108 H   0  0  0  0  0  0  0  0  0  0  0  0
   43.9808    7.2241   10.4569 H   0  0  0  0  0  0  0  0  0  0  0  0
   48.3099    8.6641   11.8149 H   0  0  0  0  0  0  0  0  0  0  0  0
   47.0397    9.1929   12.9061 H   0  0  0  0  0  0  0  0  0  0  0  0
   46.8544    6.6853   11.1347 H   0  0  0  0  0  0  0  0  0  0  0  0
   46.2152    8.2634   10.6826 H   0  0  0  0  0  0  0  0  0  0  0  0
   45.3266    6.6834   13.1590 H   0  0  0  0  0  0  0  0  0  0  0  0
   44.7215    8.2648   12.6701 H   0  0  0  0  0  0  0  0  0  0  0  0
  4  2  1  0
  3  1  1  0
  4  1  1  0
  5  3  2  0
  6  3  1  0
  4  7  1  0
  8  5  1  0
  9  6  2  0
 10  9  1  0
 10  8  2  0
 12 17  1  0
 13 11  2  0
 14 12  2  0
 15 12  1  0
 16 11  1  0
 17 20  1  0
 18 11  1  0
 19 18  1  0
 20 19  1  0
  1 21  1  0
  1 22  1  0
  2 23  1  0
  2 24  1  0
  4 25  1  6
  5 26  1  0
  6 27  1  0
  7 28  1  0
  7 29  1  0
  7 30  1  0
  8 31  1  0
  9 32  1  0
 10 33  1  0
 15 34  1  0
 16 35  1  0
 17 36  1  0
 17 37  1  0
 18 38  1  0
 18 39  1  0
 19 40  1  0
 19 41  1  0
 20 42  1  0
 20 43  1  0
M  END
> <Uni-Dock RESULT> 
ENERGY=   -3.954  LOWER_BOUND=    3.226  UPPER_BOUND=    4.530
INTER + INTRA:          -3.954
INTER:                  -3.954
INTRA:                   0.000
UNBOUND:                 0.000

$$$$

     RDKit          3D

 43 42  0  0  0  0  0  0  0  0999 V2000
   49.3799    4.4453   17.9259 C   0  0  0  0  0  0  0  0  0  0  0  0
   47.6145    2.6870   17.6563 N   0  0  0  0  0  0  0  0  0  0  0  0
   48.7594    5.2216   19.0663 C   0  0  0  0  0  0  0  0  0  0  0  0
   48.3939    3.7279   16.9744 C   0  0  1  0  0  0  0  0  0  0  0  0
   48.4716    6.5866   18.9301 C   0  0  0  0  0  0  0  0  0  0  0  0
   48.4634    4.5852   20.2799 C   0  0  0  0  0  0  0  0  0  0  0  0
   47.4552    4.6939   16.2506 C   0  0  0  0  0  0  0  0  0  0  0  0
   47.8930    7.2972   19.9833 C   0  0  0  0  0  0  0  0  0  0  0  0
   47.8849    5.2966   21.3320 C   0  0  0  0  0  0  0  0  0  0  0  0
   47.5991    6.6522   21.1831 C   0  0  0  0  0  0  0  0  0  0  0  0
   49.3477    6.5398   20.2184 C   0  0  0  0  0  0  0  0  0  0  0  0
   47.8834    3.9662   16.3645 C   0  0  0  0  0  0  0  0  0  0  0  0
   50.3669    6.0381   20.6618 O   0  0  0  0  0  0  0  0  0  0  0  0
   48.7167    4.8383   16.1917 O   0  0  0  0  0  0  0  0  0  0  0  0
   47.1998    3.4560   15.3212 O   0  0  0  0  0  0  0  0  0  0  0  0
   49.3947    7.6465   19.4545 O   0  0  0  0  0  0  0  0  0  0  0  0
   47.4927    3.3119   17.6635 C   0  0  0  0  0  0  0  0  0  0  0  0
   47.9482    6.0347   20.4271 C   0  0  0  0  0  0  0  0  0  0  0  0
   47.3899    5.3546   19.1803 C   0  0  0  0  0  0  0  0  0  0  0  0
   48.0817    4.0174   18.8855 C   0  0  0  0  0  0  0  0  0  0  0  0
   50.0775    3.7071   18.3456 H   0  0  0  0  0  0  0  0  0  0  0  0
   50.0098    5.1266   17.3380 H   0  0  0  0  0  0  0  0  0  0  0  0
   46.9626    2.2633   16.9970 H   0  0  0  0  0  0  0  0  0  0  0  0
   47.0330    3.1274   18.3716 H   0  0  0  0  0  0  0  0  0  0  0  0
   48.9992    3.2233   16.2112 H   0  0  0  0  0  0  0  0  0  0  0  0
   48.6966    7.1061   18.0017 H   0  0  0  0  0  0  0  0  0  0  0  0
   48.6838    3.5271   20.4089 H   0  0  0  0  0  0  0  0  0  0  0  0
   46.8711    4.1674   15.4872 H   0  0  0  0  0  0  0  0  0  0  0  0
   48.0242    5.4813   15.7448 H   0  0  0  0  0  0  0  0  0  0  0  0
   46.7466    5.1706   16.9360 H   0  0  0  0  0  0  0  0  0  0  0  0
   47.6735    8.3553   19.8680 H   0  0  0  0  0  0  0  0  0  0  0  0
   47.6601    4.7925   22.2680 H   0  0  0  0  0  0  0  0  0  0  0  0
   47.1503    7.2063   22.0031 H   0  0  0  0  0  0  0  0  0  0  0  0
   47.5489    3.9451   14.5467 H   0  0  0  0  0  0  0  0  0  0  0  0
   50.3519    7.8365   19.3655 H   0  0  0  0  0  0  0  0  0  0  0  0
   47.8647    2.2817   17.6326 H   0  0  0  0  0  0  0  0  0  0  0  0
   46.3998    3.2866   17.7359 H   0  0  0  0  0  0  0  0  0  0  0  0
   47.3192    6.8864   20.7116 H   0  0  0  0  0  0  0  0  0  0  0  0
   47.9485    5.3496   21.2823 H   0  0  0  0  0  0  0  0  0  0  0  0
   47.4815    6.0249   18.3182 H   0  0  0  0  0  0  0  0  0  0  0  0
   46.3186    5.1753   19.3328 H   0  0  0  0  0  0  0  0  0  0  0  0
   49.1580    4.1703   18.7442 H   0  0  0  0  0  0  0  0  0  0  0  0
   47.9638    3.3597   19.7555 H   0  0  0  0  0  0  0  0  0  0  0  0
  4  2  1  0
  3  1  1  0
  4  1  1  0
  5  3  2  0
  6  3  1  0
  4  7  1  0
  8  5  1  0
  9  6  2  0
 10  9  1  0
 10  8  2  0
 12 17  1  0
 13 11  2  0
 14 12  2  0
 15 12  1  0
 16 11  1  0
 17 20  1  0
 18 11  1  0
 19 18  1  0
 20 19  1  0
  1 21  1  0
  1 22  1  0
  2 23  1  0
  2 24  1  0
  4 25  1  6
  5 26  1  0
  6 27  1  0
  7 28  1  0
  7 29  1  0
  7 30  1  0
  8 31  1  0
  9 32  1  0
 10 33  1  0
 15 34  1  0
 16 35  1  0
 17 36  1  0
 17 37  1  0
 18 38  1  0
 18 39  1  0
 19 40  1  0
 19 41  1  0
 20 42  1  0
 20 43  1  0
M  END
> <Uni-Dock RESULT> 
ENERGY=   -3.917  LOWER_BOUND=    7.643  UPPER_BOUND=    9.494
INTER + INTRA:          -3.917
INTER:                  -3.917
INTRA:                   0.000
UNBOUND:                 0.000

$$$$
