
     RDKit          3D

 43 42  0  0  0  0  0  0  0  0999 V2000
   44.3675    3.3229    8.4664 C   0  0  0  0  0  0  0  0  0  0  0  0
   43.2808    4.8801   10.0358 N   0  0  0  0  0  0  0  0  0  0  0  0
   45.6148    2.9620    7.6927 C   0  0  0  0  0  0  0  0  0  0  0  0
   44.5770    4.4685    9.4783 C   0  0  1  0  0  0  0  0  0  0  0  0
   46.0894    3.8018    6.6755 C   0  0  0  0  0  0  0  0  0  0  0  0
   46.3182    1.7856    7.9850 C   0  0  0  0  0  0  0  0  0  0  0  0
   45.4922    4.0619   10.6340 C   0  0  0  0  0  0  0  0  0  0  0  0
   47.2459    3.4720    5.9671 C   0  0  0  0  0  0  0  0  0  0  0  0
   47.4746    1.4577    7.2757 C   0  0  0  0  0  0  0  0  0  0  0  0
   47.9384    2.3006    6.2676 C   0  0  0  0  0  0  0  0  0  0  0  0
   44.2581    3.8661   10.5232 C   0  0  0  0  0  0  0  0  0  0  0  0
   47.1296    2.0687    6.1678 C   0  0  0  0  0  0  0  0  0  0  0  0
   44.7884    2.8325   10.8905 O   0  0  0  0  0  0  0  0  0  0  0  0
   47.7043    0.9939    6.1236 O   0  0  0  0  0  0  0  0  0  0  0  0
   46.2855    2.4342    5.1851 O   0  0  0  0  0  0  0  0  0  0  0  0
   43.0074    4.1731   10.9200 O   0  0  0  0  0  0  0  0  0  0  0  0
   47.2979    3.1218    7.2266 C   0  0  0  0  0  0  0  0  0  0  0  0
   44.8474    4.9394    9.6468 C   0  0  0  0  0  0  0  0  0  0  0  0
   46.1659    4.5200    8.9965 C   0  0  0  0  0  0  0  0  0  0  0  0
   45.9673    3.4975    7.8736 C   0  0  0  0  0  0  0  0  0  0  0  0
   43.5960    3.6057    7.7367 H   0  0  0  0  0  0  0  0  0  0  0  0
   43.9759    2.4335    8.9783 H   0  0  0  0  0  0  0  0  0  0  0  0
   43.4196    5.6568   10.6817 H   0  0  0  0  0  0  0  0  0  0  0  0
   42.6849    5.2345    9.2884 H   0  0  0  0  0  0  0  0  0  0  0  0
   45.0176    5.3363    8.9731 H   0  0  0  0  0  0  0  0  0  0  0  0
   45.5583    4.7177    6.4267 H   0  0  0  0  0  0  0  0  0  0  0  0
   45.9703    1.1179    8.7702 H   0  0  0  0  0  0  0  0  0  0  0  0
   45.5913    4.8757   11.3615 H   0  0  0  0  0  0  0  0  0  0  0  0
   45.1057    3.1831   11.1623 H   0  0  0  0  0  0  0  0  0  0  0  0
   46.4998    3.8268   10.2766 H   0  0  0  0  0  0  0  0  0  0  0  0
   47.6058    4.1285    5.1793 H   0  0  0  0  0  0  0  0  0  0  0  0
   48.0135    0.5435    7.5101 H   0  0  0  0  0  0  0  0  0  0  0  0
   48.8384    2.0438    5.7154 H   0  0  0  0  0  0  0  0  0  0  0  0
   46.2961    1.6702    4.5708 H   0  0  0  0  0  0  0  0  0  0  0  0
   42.7447    3.4160   11.4847 H   0  0  0  0  0  0  0  0  0  0  0  0
   47.7812    3.9936    6.7723 H   0  0  0  0  0  0  0  0  0  0  0  0
   47.9827    2.7257    7.9855 H   0  0  0  0  0  0  0  0  0  0  0  0
   44.1186    5.2097    8.8749 H   0  0  0  0  0  0  0  0  0  0  0  0
   45.0251    5.8151   10.2812 H   0  0  0  0  0  0  0  0  0  0  0  0
   46.6464    5.4136    8.5797 H   0  0  0  0  0  0  0  0  0  0  0  0
   46.8481    4.1136    9.7530 H   0  0  0  0  0  0  0  0  0  0  0  0
   45.2899    3.9139    7.1179 H   0  0  0  0  0  0  0  0  0  0  0  0
   45.4836    2.5930    8.2609 H   0  0  0  0  0  0  0  0  0  0  0  0
  4  2  1  0
  3  1  1  0
  4  1  1  0
  5  3  2  0
  6  3  1  0
  4  7  1  0
  8  5  1  0
  9  6  2  0
 10  9  1  0
 10  8  2  0
 12 17  1  0
 13 11  2  0
 14 12  2  0
 15 12  1  0
 16 11  1  0
 17 20  1  0
 18 11  1  0
 19 18  1  0
 20 19  1  0
  1 21  1  0
  1 22  1  0
  2 23  1  0
  2 24  1  0
  4 25  1  1
  5 26  1  0
  6 27  1  0
  7 28  1  0
  7 29  1  0
  7 30  1  0
  8 31  1  0
  9 32  1  0
 10 33  1  0
 15 34  1  0
 16 35  1  0
 17 36  1  0
 17 37  1  0
 18 38  1  0
 18 39  1  0
 19 40  1  0
 19 41  1  0
 20 42  1  0
 20 43  1  0
M  END
> <Uni-Dock RESULT> 
ENERGY=   -6.121  LOWER_BOUND=    0.000  UPPER_BOUND=    0.000
INTER + INTRA:          -6.121
INTER:                  -6.121
INTRA:                   0.000
UNBOUND:                 0.000

$$$$

     RDKit          3D

 43 42  0  0  0  0  0  0  0  0999 V2000
   45.8777    4.3985    9.6519 C   0  0  0  0  0  0  0  0  0  0  0  0
   46.3875    3.9327    7.2872 N   0  0  0  0  0  0  0  0  0  0  0  0
   44.8146    4.6009   10.7072 C   0  0  0  0  0  0  0  0  0  0  0  0
   45.3206    3.9121    8.2979 C   0  0  1  0  0  0  0  0  0  0  0  0
   43.9493    5.7020   10.6438 C   0  0  0  0  0  0  0  0  0  0  0  0
   44.6748    3.6876   11.7609 C   0  0  0  0  0  0  0  0  0  0  0  0
   44.7589    2.4920    8.3780 C   0  0  0  0  0  0  0  0  0  0  0  0
   42.9625    5.8837   11.6141 C   0  0  0  0  0  0  0  0  0  0  0  0
   43.6873    3.8709   12.7301 C   0  0  0  0  0  0  0  0  0  0  0  0
   42.8314    4.9681   12.6564 C   0  0  0  0  0  0  0  0  0  0  0  0
   45.9512    2.8399    8.2018 C   0  0  0  0  0  0  0  0  0  0  0  0
   43.6519    5.1786   12.6391 C   0  0  0  0  0  0  0  0  0  0  0  0
   45.9186    1.9639    9.0479 O   0  0  0  0  0  0  0  0  0  0  0  0
   43.5570    4.6354   13.7268 O   0  0  0  0  0  0  0  0  0  0  0  0
   44.1816    6.4116   12.5339 O   0  0  0  0  0  0  0  0  0  0  0  0
   47.0037    2.9477    7.3672 O   0  0  0  0  0  0  0  0  0  0  0  0
   43.1740    4.6251   11.3263 C   0  0  0  0  0  0  0  0  0  0  0  0
   44.9006    3.8801    7.9160 C   0  0  0  0  0  0  0  0  0  0  0  0
   43.8078    3.9319    8.9839 C   0  0  0  0  0  0  0  0  0  0  0  0
   44.2951    4.5620   10.2921 C   0  0  0  0  0  0  0  0  0  0  0  0
   46.3981    5.3572    9.5188 H   0  0  0  0  0  0  0  0  0  0  0  0
   46.6401    3.6989   10.0201 H   0  0  0  0  0  0  0  0  0  0  0  0
   46.0089    3.6389    6.3871 H   0  0  0  0  0  0  0  0  0  0  0  0
   46.7176    4.8886    7.1588 H   0  0  0  0  0  0  0  0  0  0  0  0
   44.5228    4.5842    7.9598 H   0  0  0  0  0  0  0  0  0  0  0  0
   44.0411    6.4273    9.8386 H   0  0  0  0  0  0  0  0  0  0  0  0
   45.3338    2.8250   11.8316 H   0  0  0  0  0  0  0  0  0  0  0  0
   44.4092    2.1520    7.3964 H   0  0  0  0  0  0  0  0  0  0  0  0
   45.5139    1.7807    8.7314 H   0  0  0  0  0  0  0  0  0  0  0  0
   43.9025    2.4432    9.0580 H   0  0  0  0  0  0  0  0  0  0  0  0
   42.2969    6.7409   11.5576 H   0  0  0  0  0  0  0  0  0  0  0  0
   43.5864    3.1567   13.5431 H   0  0  0  0  0  0  0  0  0  0  0  0
   42.0635    5.1102   13.4120 H   0  0  0  0  0  0  0  0  0  0  0  0
   44.4218    6.6429   13.4559 H   0  0  0  0  0  0  0  0  0  0  0  0
   47.6004    2.2200    7.6424 H   0  0  0  0  0  0  0  0  0  0  0  0
   42.3405    5.2428   10.9744 H   0  0  0  0  0  0  0  0  0  0  0  0
   42.7807    3.6187   11.5116 H   0  0  0  0  0  0  0  0  0  0  0  0
   45.3832    4.8594    7.8265 H   0  0  0  0  0  0  0  0  0  0  0  0
   44.4457    3.6255    6.9521 H   0  0  0  0  0  0  0  0  0  0  0  0
   42.9716    4.5261    8.5955 H   0  0  0  0  0  0  0  0  0  0  0  0
   43.4209    2.9242    9.1781 H   0  0  0  0  0  0  0  0  0  0  0  0
   44.6736    5.5716   10.0908 H   0  0  0  0  0  0  0  0  0  0  0  0
   45.1357    3.9901   10.7023 H   0  0  0  0  0  0  0  0  0  0  0  0
  4  2  1  0
  3  1  1  0
  4  1  1  0
  5  3  2  0
  6  3  1  0
  4  7  1  0
  8  5  1  0
  9  6  2  0
 10  9  1  0
 10  8  2  0
 12 17  1  0
 13 11  2  0
 14 12  2  0
 15 12  1  0
 16 11  1  0
 17 20  1  0
 18 11  1  0
 19 18  1  0
 20 19  1  0
  1 21  1  0
  1 22  1  0
  2 23  1  0
  2 24  1  0
  4 25  1  1
  5 26  1  0
  6 27  1  0
  7 28  1  0
  7 29  1  0
  7 30  1  0
  8 31  1  0
  9 32  1  0
 10 33  1  0
 15 34  1  0
 16 35  1  0
 17 36  1  0
 17 37  1  0
 18 38  1  0
 18 39  1  0
 19 40  1  0
 19 41  1  0
 20 42  1  0
 20 43  1  0
M  END
> <Uni-Dock RESULT> 
ENERGY=   -5.201  LOWER_BOUND=    2.063  UPPER_BOUND=    5.464
INTER + INTRA:          -5.201
INTER:                  -5.201
INTRA:                   0.000
UNBOUND:                 0.000

$$$$

     RDKit          3D

 43 42  0  0  0  0  0  0  0  0999 V2000
   44.7514    4.7784   12.7765 C   0  0  0  0  0  0  0  0  0  0  0  0
   44.0519    2.6952   11.6630 N   0  0  0  0  0  0  0  0  0  0  0  0
   45.5172    6.0778   12.6770 C   0  0  0  0  0  0  0  0  0  0  0  0
   44.6327    4.0260   11.4348 C   0  0  1  0  0  0  0  0  0  0  0  0
   46.9115    6.0730   12.5323 C   0  0  0  0  0  0  0  0  0  0  0  0
   44.8437    7.3060   12.7221 C   0  0  0  0  0  0  0  0  0  0  0  0
   43.7543    4.7699   10.4281 C   0  0  0  0  0  0  0  0  0  0  0  0
   47.6169    7.2732   12.4322 C   0  0  0  0  0  0  0  0  0  0  0  0
   45.5508    8.5051   12.6216 C   0  0  0  0  0  0  0  0  0  0  0  0
   46.9366    8.4886   12.4763 C   0  0  0  0  0  0  0  0  0  0  0  0
   43.3892    3.9906   11.3408 C   0  0  0  0  0  0  0  0  0  0  0  0
   46.6626    8.0489   13.1467 C   0  0  0  0  0  0  0  0  0  0  0  0
   42.6855    4.9848   11.3683 O   0  0  0  0  0  0  0  0  0  0  0  0
   46.2744    9.1744   13.4112 O   0  0  0  0  0  0  0  0  0  0  0  0
   47.4017    7.3544   14.0316 O   0  0  0  0  0  0  0  0  0  0  0  0
   42.8915    2.7888   11.6927 O   0  0  0  0  0  0  0  0  0  0  0  0
   46.4449    7.3168   11.8525 C   0  0  0  0  0  0  0  0  0  0  0  0
   44.8314    3.8979   10.9178 C   0  0  0  0  0  0  0  0  0  0  0  0
   45.4876    5.2665   10.7350 C   0  0  0  0  0  0  0  0  0  0  0  0
   45.7641    5.9676   12.0683 C   0  0  0  0  0  0  0  0  0  0  0  0
   45.2660    4.1471   13.5144 H   0  0  0  0  0  0  0  0  0  0  0  0
   43.7531    4.9650   13.1947 H   0  0  0  0  0  0  0  0  0  0  0  0
   44.0023    2.1898   10.7788 H   0  0  0  0  0  0  0  0  0  0  0  0
   44.6686    2.1527   12.2668 H   0  0  0  0  0  0  0  0  0  0  0  0
   45.6278    3.8887   10.9950 H   0  0  0  0  0  0  0  0  0  0  0  0
   47.4572    5.1329   12.4998 H   0  0  0  0  0  0  0  0  0  0  0  0
   43.7620    7.3359   12.8333 H   0  0  0  0  0  0  0  0  0  0  0  0
   43.6491    4.1967    9.4997 H   0  0  0  0  0  0  0  0  0  0  0  0
   42.7501    4.9508   10.8278 H   0  0  0  0  0  0  0  0  0  0  0  0
   44.1918    5.7369   10.1601 H   0  0  0  0  0  0  0  0  0  0  0  0
   48.6980    7.2600   12.3214 H   0  0  0  0  0  0  0  0  0  0  0  0
   45.0195    9.4525   12.6569 H   0  0  0  0  0  0  0  0  0  0  0  0
   47.4863    9.4229   12.3990 H   0  0  0  0  0  0  0  0  0  0  0  0
   47.4753    7.9582   14.8005 H   0  0  0  0  0  0  0  0  0  0  0  0
   41.9594    2.9782   11.9306 H   0  0  0  0  0  0  0  0  0  0  0  0
   47.4139    7.1999   11.3550 H   0  0  0  0  0  0  0  0  0  0  0  0
   45.8214    7.9506   11.2111 H   0  0  0  0  0  0  0  0  0  0  0  0
   45.3845    3.3138   11.6615 H   0  0  0  0  0  0  0  0  0  0  0  0
   44.8555    3.3602    9.9632 H   0  0  0  0  0  0  0  0  0  0  0  0
   46.4380    5.1271   10.2053 H   0  0  0  0  0  0  0  0  0  0  0  0
   44.8596    5.9054   10.1021 H   0  0  0  0  0  0  0  0  0  0  0  0
   46.3982    5.3257   12.6922 H   0  0  0  0  0  0  0  0  0  0  0  0
   44.8302    6.1166   12.6230 H   0  0  0  0  0  0  0  0  0  0  0  0
  4  2  1  0
  3  1  1  0
  4  1  1  0
  5  3  2  0
  6  3  1  0
  4  7  1  0
  8  5  1  0
  9  6  2  0
 10  9  1  0
 10  8  2  0
 12 17  1  0
 13 11  2  0
 14 12  2  0
 15 12  1  0
 16 11  1  0
 17 20  1  0
 18 11  1  0
 19 18  1  0
 20 19  1  0
  1 21  1  0
  1 22  1  0
  2 23  1  0
  2 24  1  0
  4 25  1  1
  5 26  1  0
  6 27  1  0
  7 28  1  0
  7 29  1  0
  7 30  1  0
  8 31  1  0
  9 32  1  0
 10 33  1  0
 15 34  1  0
 16 35  1  0
 17 36  1  0
 17 37  1  0
 18 38  1  0
 18 39  1  0
 19 40  1  0
 19 41  1  0
 20 42  1  0
 20 43  1  0
M  END
> <Uni-Dock RESULT> 
ENERGY=   -5.005  LOWER_BOUND=    4.103  UPPER_BOUND=    6.230
INTER + INTRA:          -5.005
INTER:                  -5.005
INTRA:                   0.000
UNBOUND:                 0.000

$$$$

     RDKit          3D

 43 42  0  0  0  0  0  0  0  0999 V2000
   45.0705    6.8590   13.0356 C   0  0  0  0  0  0  0  0  0  0  0  0
   46.4699    8.8863   13.0604 N   0  0  0  0  0  0  0  0  0  0  0  0
   44.6972    5.5806   12.3206 C   0  0  0  0  0  0  0  0  0  0  0  0
   46.3021    7.5673   12.4340 C   0  0  1  0  0  0  0  0  0  0  0  0
   44.0839    5.6227   11.0608 C   0  0  0  0  0  0  0  0  0  0  0  0
   44.9642    4.3348   12.9043 C   0  0  0  0  0  0  0  0  0  0  0  0
   47.5893    6.7679   12.6400 C   0  0  0  0  0  0  0  0  0  0  0  0
   43.7470    4.4416   10.3977 C   0  0  0  0  0  0  0  0  0  0  0  0
   44.6269    3.1549   12.2395 C   0  0  0  0  0  0  0  0  0  0  0  0
   44.0190    3.2083   10.9867 C   0  0  0  0  0  0  0  0  0  0  0  0
   47.0399    7.5627   13.4400 C   0  0  0  0  0  0  0  0  0  0  0  0
   43.6131    3.6594   11.5781 C   0  0  0  0  0  0  0  0  0  0  0  0
   47.3475    6.5492   14.0422 O   0  0  0  0  0  0  0  0  0  0  0  0
   43.5476    2.5312   12.0366 O   0  0  0  0  0  0  0  0  0  0  0  0
   42.5007    4.4017   11.4254 O   0  0  0  0  0  0  0  0  0  0  0  0
   47.0537    8.7591   14.0601 O   0  0  0  0  0  0  0  0  0  0  0  0
   44.8558    4.3459   11.0854 C   0  0  0  0  0  0  0  0  0  0  0  0
   46.6410    7.6858   11.9932 C   0  0  0  0  0  0  0  0  0  0  0  0
   46.3934    6.3326   11.3265 C   0  0  0  0  0  0  0  0  0  0  0  0
   45.0877    5.6800   11.7902 C   0  0  0  0  0  0  0  0  0  0  0  0
   44.1989    7.5270   12.9952 H   0  0  0  0  0  0  0  0  0  0  0  0
   45.2353    6.6552   14.1022 H   0  0  0  0  0  0  0  0  0  0  0  0
   47.2668    9.3635   12.6397 H   0  0  0  0  0  0  0  0  0  0  0  0
   45.6543    9.4647   12.8615 H   0  0  0  0  0  0  0  0  0  0  0  0
   46.1553    7.7211   11.3583 H   0  0  0  0  0  0  0  0  0  0  0  0
   43.8618    6.5773   10.5895 H   0  0  0  0  0  0  0  0  0  0  0  0
   45.4399    4.2759   13.8808 H   0  0  0  0  0  0  0  0  0  0  0  0
   48.4558    7.3098   12.2438 H   0  0  0  0  0  0  0  0  0  0  0  0
   47.7732    6.5691   13.7018 H   0  0  0  0  0  0  0  0  0  0  0  0
   47.5460    5.8069   12.1177 H   0  0  0  0  0  0  0  0  0  0  0  0
   43.2706    4.4838    9.4218 H   0  0  0  0  0  0  0  0  0  0  0  0
   44.8386    2.1935   12.7000 H   0  0  0  0  0  0  0  0  0  0  0  0
   43.7560    2.2890   10.4704 H   0  0  0  0  0  0  0  0  0  0  0  0
   41.7849    3.8235   11.7638 H   0  0  0  0  0  0  0  0  0  0  0  0
   47.3363    8.5491   14.9751 H   0  0  0  0  0  0  0  0  0  0  0  0
   44.7709    4.4767   10.0011 H   0  0  0  0  0  0  0  0  0  0  0  0
   45.7031    3.6750   11.2693 H   0  0  0  0  0  0  0  0  0  0  0  0
   45.7421    8.3080   11.9228 H   0  0  0  0  0  0  0  0  0  0  0  0
   47.4600    8.1954   11.4731 H   0  0  0  0  0  0  0  0  0  0  0  0
   46.3465    6.4845   10.2412 H   0  0  0  0  0  0  0  0  0  0  0  0
   47.2356    5.6567   11.5187 H   0  0  0  0  0  0  0  0  0  0  0  0
   44.2499    6.3588   11.5882 H   0  0  0  0  0  0  0  0  0  0  0  0
   45.1042    5.5197   12.8747 H   0  0  0  0  0  0  0  0  0  0  0  0
  4  2  1  0
  3  1  1  0
  4  1  1  0
  5  3  2  0
  6  3  1  0
  4  7  1  0
  8  5  1  0
  9  6  2  0
 10  9  1  0
 10  8  2  0
 12 17  1  0
 13 11  2  0
 14 12  2  0
 15 12  1  0
 16 11  1  0
 17 20  1  0
 18 11  1  0
 19 18  1  0
 20 19  1  0
  1 21  1  0
  1 22  1  0
  2 23  1  0
  2 24  1  0
  4 25  1  1
  5 26  1  0
  6 27  1  0
  7 28  1  0
  7 29  1  0
  7 30  1  0
  8 31  1  0
  9 32  1  0
 10 33  1  0
 15 34  1  0
 16 35  1  0
 17 36  1  0
 17 37  1  0
 18 38  1  0
 18 39  1  0
 19 40  1  0
 19 41  1  0
 20 42  1  0
 20 43  1  0
M  END
> <Uni-Dock RESULT> 
ENERGY=   -4.912  LOWER_BOUND=    4.361  UPPER_BOUND=    5.626
INTER + INTRA:          -4.912
INTER:                  -4.912
INTRA:                   0.000
UNBOUND:                 0.000

$$$$

     RDKit          3D

 43 42  0  0  0  0  0  0  0  0999 V2000
   46.5413    6.5649   11.2081 C   0  0  0  0  0  0  0  0  0  0  0  0
   48.8013    7.3369   11.8125 N   0  0  0  0  0  0  0  0  0  0  0  0
   45.2715    5.8766   11.6538 C   0  0  0  0  0  0  0  0  0  0  0  0
   47.5266    6.8518   12.3602 C   0  0  1  0  0  0  0  0  0  0  0  0
   45.2840    4.5206   12.0088 C   0  0  0  0  0  0  0  0  0  0  0  0
   44.0647    6.5856   11.7241 C   0  0  0  0  0  0  0  0  0  0  0  0
   46.9899    7.9006   13.3351 C   0  0  0  0  0  0  0  0  0  0  0  0
   44.1127    3.8878   12.4281 C   0  0  0  0  0  0  0  0  0  0  0  0
   42.8946    5.9512   12.1440 C   0  0  0  0  0  0  0  0  0  0  0  0
   42.9187    4.6032   12.4961 C   0  0  0  0  0  0  0  0  0  0  0  0
   47.5950    8.0929   12.2533 C   0  0  0  0  0  0  0  0  0  0  0  0
   43.2328    4.7558   11.7242 C   0  0  0  0  0  0  0  0  0  0  0  0
   46.6219    8.8248   12.2946 O   0  0  0  0  0  0  0  0  0  0  0  0
   42.0833    5.1459   11.6070 O   0  0  0  0  0  0  0  0  0  0  0  0
   43.7450    3.8648   10.8548 O   0  0  0  0  0  0  0  0  0  0  0  0
   48.7194    8.4828   11.6211 O   0  0  0  0  0  0  0  0  0  0  0  0
   44.1909    5.1341   12.8184 C   0  0  0  0  0  0  0  0  0  0  0  0
   47.7439    6.7275   12.8706 C   0  0  0  0  0  0  0  0  0  0  0  0
   46.4227    6.1627   13.3926 C   0  0  0  0  0  0  0  0  0  0  0  0
   45.4873    5.7191   12.2639 C   0  0  0  0  0  0  0  0  0  0  0  0
   47.0210    5.9205   10.4583 H   0  0  0  0  0  0  0  0  0  0  0  0
   46.2951    7.4964   10.6807 H   0  0  0  0  0  0  0  0  0  0  0  0
   49.4597    7.4973   12.5744 H   0  0  0  0  0  0  0  0  0  0  0  0
   49.2168    6.6152   11.2244 H   0  0  0  0  0  0  0  0  0  0  0  0
   47.7283    5.9288   12.9168 H   0  0  0  0  0  0  0  0  0  0  0  0
   46.2070    3.9477   11.9577 H   0  0  0  0  0  0  0  0  0  0  0  0
   44.0295    7.6389   11.4544 H   0  0  0  0  0  0  0  0  0  0  0  0
   47.7236    8.1196   14.1194 H   0  0  0  0  0  0  0  0  0  0  0  0
   46.7528    8.8403   12.8238 H   0  0  0  0  0  0  0  0  0  0  0  0
   46.0820    7.5480   13.8349 H   0  0  0  0  0  0  0  0  0  0  0  0
   44.1314    2.8358   12.7003 H   0  0  0  0  0  0  0  0  0  0  0  0
   41.9637    6.5097   12.1958 H   0  0  0  0  0  0  0  0  0  0  0  0
   42.0068    4.1100   12.8220 H   0  0  0  0  0  0  0  0  0  0  0  0
   43.0106    3.7020   10.2261 H   0  0  0  0  0  0  0  0  0  0  0  0
   48.5024    9.3758   11.2796 H   0  0  0  0  0  0  0  0  0  0  0  0
   44.3832    4.2463   13.4307 H   0  0  0  0  0  0  0  0  0  0  0  0
   43.6926    5.8719   13.4581 H   0  0  0  0  0  0  0  0  0  0  0  0
   48.1756    6.0461   12.1294 H   0  0  0  0  0  0  0  0  0  0  0  0
   48.4458    6.8242   13.7066 H   0  0  0  0  0  0  0  0  0  0  0  0
   46.6434    5.2972   14.0294 H   0  0  0  0  0  0  0  0  0  0  0  0
   45.9179    6.9038   14.0243 H   0  0  0  0  0  0  0  0  0  0  0  0
   45.9965    4.9731   11.6414 H   0  0  0  0  0  0  0  0  0  0  0  0
   45.2524    6.5649   11.6071 H   0  0  0  0  0  0  0  0  0  0  0  0
  4  2  1  0
  3  1  1  0
  4  1  1  0
  5  3  2  0
  6  3  1  0
  4  7  1  0
  8  5  1  0
  9  6  2  0
 10  9  1  0
 10  8  2  0
 12 17  1  0
 13 11  2  0
 14 12  2  0
 15 12  1  0
 16 11  1  0
 17 20  1  0
 18 11  1  0
 19 18  1  0
 20 19  1  0
  1 21  1  0
  1 22  1  0
  2 23  1  0
  2 24  1  0
  4 25  1  1
  5 26  1  0
  6 27  1  0
  7 28  1  0
  7 29  1  0
  7 30  1  0
  8 31  1  0
  9 32  1  0
 10 33  1  0
 15 34  1  0
 16 35  1  0
 17 36  1  0
 17 37  1  0
 18 38  1  0
 18 39  1  0
 19 40  1  0
 19 41  1  0
 20 42  1  0
 20 43  1  0
M  END
> <Uni-Dock RESULT> 
ENERGY=   -4.772  LOWER_BOUND=    4.761  UPPER_BOUND=    6.335
INTER + INTRA:          -4.772
INTER:                  -4.772
INTRA:                   0.000
UNBOUND:                 0.000

$$$$

     RDKit          3D

 43 42  0  0  0  0  0  0  0  0999 V2000
   46.8881    5.7316   12.9596 C   0  0  0  0  0  0  0  0  0  0  0  0
   48.4522    7.2938   14.0466 N   0  0  0  0  0  0  0  0  0  0  0  0
   45.5092    5.5098   12.3812 C   0  0  0  0  0  0  0  0  0  0  0  0
   47.1798    7.2039   13.3164 C   0  0  1  0  0  0  0  0  0  0  0  0
   44.3759    5.5567   13.2049 C   0  0  0  0  0  0  0  0  0  0  0  0
   45.3435    5.2602   11.0122 C   0  0  0  0  0  0  0  0  0  0  0  0
   47.2708    8.0945   12.0766 C   0  0  0  0  0  0  0  0  0  0  0  0
   43.1024    5.3600   12.6686 C   0  0  0  0  0  0  0  0  0  0  0  0
   44.0691    5.0641   10.4777 C   0  0  0  0  0  0  0  0  0  0  0  0
   42.9492    5.1144   11.3055 C   0  0  0  0  0  0  0  0  0  0  0  0
   48.1739    7.3881   12.5855 C   0  0  0  0  0  0  0  0  0  0  0  0
   43.5406    4.5687   11.5709 C   0  0  0  0  0  0  0  0  0  0  0  0
   48.1644    7.2057   11.3809 O   0  0  0  0  0  0  0  0  0  0  0  0
   43.2459    4.1063   10.4816 O   0  0  0  0  0  0  0  0  0  0  0  0
   43.5104    3.7965   12.6730 O   0  0  0  0  0  0  0  0  0  0  0  0
   49.3276    7.3251   13.2790 O   0  0  0  0  0  0  0  0  0  0  0  0
   43.9079    5.9973   11.8583 C   0  0  0  0  0  0  0  0  0  0  0  0
   47.0040    7.7214   13.4731 C   0  0  0  0  0  0  0  0  0  0  0  0
   45.6577    7.5744   12.7639 C   0  0  0  0  0  0  0  0  0  0  0  0
   45.2684    6.1099   12.5413 C   0  0  0  0  0  0  0  0  0  0  0  0
   46.9741    5.1054   13.8585 H   0  0  0  0  0  0  0  0  0  0  0  0
   47.6493    5.3534   12.2640 H   0  0  0  0  0  0  0  0  0  0  0  0
   48.6272    8.2641   14.3066 H   0  0  0  0  0  0  0  0  0  0  0  0
   48.3818    6.7733   14.9203 H   0  0  0  0  0  0  0  0  0  0  0  0
   46.3887    7.5933   13.9684 H   0  0  0  0  0  0  0  0  0  0  0  0
   44.4791    5.7438   14.2712 H   0  0  0  0  0  0  0  0  0  0  0  0
   46.2074    5.2196   10.3523 H   0  0  0  0  0  0  0  0  0  0  0  0
   47.5213    9.1256   12.3513 H   0  0  0  0  0  0  0  0  0  0  0  0
   48.0367    7.7360   11.3798 H   0  0  0  0  0  0  0  0  0  0  0  0
   46.3157    8.1280   11.5428 H   0  0  0  0  0  0  0  0  0  0  0  0
   42.2295    5.3969   13.3150 H   0  0  0  0  0  0  0  0  0  0  0  0
   43.9508    4.8717    9.4147 H   0  0  0  0  0  0  0  0  0  0  0  0
   41.9576    4.9607   10.8884 H   0  0  0  0  0  0  0  0  0  0  0  0
   43.2390    2.9169   12.3355 H   0  0  0  0  0  0  0  0  0  0  0  0
   50.0026    7.1178   12.5989 H   0  0  0  0  0  0  0  0  0  0  0  0
   43.1155    6.4407   12.4712 H   0  0  0  0  0  0  0  0  0  0  0  0
   43.9243    6.5363   10.9038 H   0  0  0  0  0  0  0  0  0  0  0  0
   47.0331    7.0772   14.3586 H   0  0  0  0  0  0  0  0  0  0  0  0
   47.1264    8.7620   13.7941 H   0  0  0  0  0  0  0  0  0  0  0  0
   44.8875    8.0551   13.3796 H   0  0  0  0  0  0  0  0  0  0  0  0
   45.6761    8.1043   11.8038 H   0  0  0  0  0  0  0  0  0  0  0  0
   45.2452    5.5889   13.5064 H   0  0  0  0  0  0  0  0  0  0  0  0
   46.0243    5.6017   11.9311 H   0  0  0  0  0  0  0  0  0  0  0  0
  4  2  1  0
  3  1  1  0
  4  1  1  0
  5  3  2  0
  6  3  1  0
  4  7  1  0
  8  5  1  0
  9  6  2  0
 10  9  1  0
 10  8  2  0
 12 17  1  0
 13 11  2  0
 14 12  2  0
 15 12  1  0
 16 11  1  0
 17 20  1  0
 18 11  1  0
 19 18  1  0
 20 19  1  0
  1 21  1  0
  1 22  1  0
  2 23  1  0
  2 24  1  0
  4 25  1  1
  5 26  1  0
  6 27  1  0
  7 28  1  0
  7 29  1  0
  7 30  1  0
  8 31  1  0
  9 32  1  0
 10 33  1  0
 15 34  1  0
 16 35  1  0
 17 36  1  0
 17 37  1  0
 18 38  1  0
 18 39  1  0
 19 40  1  0
 19 41  1  0
 20 42  1  0
 20 43  1  0
M  END
> <Uni-Dock RESULT> 
ENERGY=   -4.696  LOWER_BOUND=    4.430  UPPER_BOUND=    6.290
INTER + INTRA:          -4.696
INTER:                  -4.696
INTRA:                   0.000
UNBOUND:                 0.000

$$$$

     RDKit          3D

 43 42  0  0  0  0  0  0  0  0999 V2000
   45.4336    4.8414   11.6307 C   0  0  0  0  0  0  0  0  0  0  0  0
   43.1730    4.4667   10.7262 N   0  0  0  0  0  0  0  0  0  0  0  0
   46.3740    5.7771   12.3552 C   0  0  0  0  0  0  0  0  0  0  0  0
   43.9699    5.3285   11.6109 C   0  0  1  0  0  0  0  0  0  0  0  0
   46.7634    6.9894   11.7689 C   0  0  0  0  0  0  0  0  0  0  0  0
   46.8656    5.4489   13.6259 C   0  0  0  0  0  0  0  0  0  0  0  0
   43.3339    5.3121   13.0015 C   0  0  0  0  0  0  0  0  0  0  0  0
   47.6252    7.8567   12.4421 C   0  0  0  0  0  0  0  0  0  0  0  0
   47.7271    6.3176   14.2976 C   0  0  0  0  0  0  0  0  0  0  0  0
   48.1064    7.5210   13.7061 C   0  0  0  0  0  0  0  0  0  0  0  0
   43.4350    4.3613   12.1896 C   0  0  0  0  0  0  0  0  0  0  0  0
   48.2540    6.8441   13.2183 C   0  0  0  0  0  0  0  0  0  0  0  0
   43.7694    3.9716   13.2944 O   0  0  0  0  0  0  0  0  0  0  0  0
   48.9516    6.6076   14.1902 O   0  0  0  0  0  0  0  0  0  0  0  0
   48.7780    6.8236   11.9786 O   0  0  0  0  0  0  0  0  0  0  0  0
   42.8328    3.5250   11.3212 O   0  0  0  0  0  0  0  0  0  0  0  0
   46.8015    7.2288   13.2413 C   0  0  0  0  0  0  0  0  0  0  0  0
   43.5854    5.7472   11.6203 C   0  0  0  0  0  0  0  0  0  0  0  0
   44.4643    6.6531   12.4828 C   0  0  0  0  0  0  0  0  0  0  0  0
   45.9492    6.2887   12.3926 C   0  0  0  0  0  0  0  0  0  0  0  0
   45.8044    4.7311   10.6021 H   0  0  0  0  0  0  0  0  0  0  0  0
   45.4919    3.8378   12.0733 H   0  0  0  0  0  0  0  0  0  0  0  0
   42.2131    4.8091   10.6924 H   0  0  0  0  0  0  0  0  0  0  0  0
   43.5317    4.5304    9.7741 H   0  0  0  0  0  0  0  0  0  0  0  0
   43.9225    6.3510   11.2176 H   0  0  0  0  0  0  0  0  0  0  0  0
   46.3994    7.2642   10.7816 H   0  0  0  0  0  0  0  0  0  0  0  0
   46.5776    4.5141   14.1020 H   0  0  0  0  0  0  0  0  0  0  0  0
   42.2829    5.6200   12.9564 H   0  0  0  0  0  0  0  0  0  0  0  0
   43.3732    4.3128   13.4494 H   0  0  0  0  0  0  0  0  0  0  0  0
   43.8428    6.0069   13.6773 H   0  0  0  0  0  0  0  0  0  0  0  0
   47.9227    8.7940   11.9794 H   0  0  0  0  0  0  0  0  0  0  0  0
   48.1025    6.0545   15.2830 H   0  0  0  0  0  0  0  0  0  0  0  0
   48.7779    8.1961   14.2297 H   0  0  0  0  0  0  0  0  0  0  0  0
   49.7171    6.5833   12.1251 H   0  0  0  0  0  0  0  0  0  0  0  0
   42.7830    2.6745   11.8063 H   0  0  0  0  0  0  0  0  0  0  0  0
   46.7137    8.2657   12.8990 H   0  0  0  0  0  0  0  0  0  0  0  0
   46.4645    7.1983   14.2841 H   0  0  0  0  0  0  0  0  0  0  0  0
   44.0012    5.6745   10.6094 H   0  0  0  0  0  0  0  0  0  0  0  0
   42.5815    6.1817   11.5545 H   0  0  0  0  0  0  0  0  0  0  0  0
   44.3332    7.6880   12.1436 H   0  0  0  0  0  0  0  0  0  0  0  0
   44.1350    6.6153   13.5283 H   0  0  0  0  0  0  0  0  0  0  0  0
   46.2724    6.3359   11.3455 H   0  0  0  0  0  0  0  0  0  0  0  0
   46.1102    5.2555   12.7222 H   0  0  0  0  0  0  0  0  0  0  0  0
  4  2  1  0
  3  1  1  0
  4  1  1  0
  5  3  2  0
  6  3  1  0
  4  7  1  0
  8  5  1  0
  9  6  2  0
 10  9  1  0
 10  8  2  0
 12 17  1  0
 13 11  2  0
 14 12  2  0
 15 12  1  0
 16 11  1  0
 17 20  1  0
 18 11  1  0
 19 18  1  0
 20 19  1  0
  1 21  1  0
  1 22  1  0
  2 23  1  0
  2 24  1  0
  4 25  1  1
  5 26  1  0
  6 27  1  0
  7 28  1  0
  7 29  1  0
  7 30  1  0
  8 31  1  0
  9 32  1  0
 10 33  1  0
 15 34  1  0
 16 35  1  0
 17 36  1  0
 17 37  1  0
 18 38  1  0
 18 39  1  0
 19 40  1  0
 19 41  1  0
 20 42  1  0
 20 43  1  0
M  END
> <Uni-Dock RESULT> 
ENERGY=   -4.637  LOWER_BOUND=    4.549  UPPER_BOUND=    6.017
INTER + INTRA:          -4.637
INTER:                  -4.637
INTRA:                   0.000
UNBOUND:                 0.000

$$$$

     RDKit          3D

 43 42  0  0  0  0  0  0  0  0999 V2000
   45.2139    5.3526   10.8030 C   0  0  0  0  0  0  0  0  0  0  0  0
   43.4834    3.6670   10.3200 N   0  0  0  0  0  0  0  0  0  0  0  0
   45.6623    6.4988   11.6805 C   0  0  0  0  0  0  0  0  0  0  0  0
   43.9567    4.6277   11.3267 C   0  0  1  0  0  0  0  0  0  0  0  0
   44.9479    7.7047   11.6964 C   0  0  0  0  0  0  0  0  0  0  0  0
   46.7953    6.3703   12.4952 C   0  0  0  0  0  0  0  0  0  0  0  0
   44.2232    3.8707   12.6284 C   0  0  0  0  0  0  0  0  0  0  0  0
   45.3579    8.7597   12.5131 C   0  0  0  0  0  0  0  0  0  0  0  0
   47.2035    7.4262   13.3115 C   0  0  0  0  0  0  0  0  0  0  0  0
   46.4849    8.6201   13.3207 C   0  0  0  0  0  0  0  0  0  0  0  0
   44.4319    3.4813   11.4544 C   0  0  0  0  0  0  0  0  0  0  0  0
   46.7278    8.3786   12.5457 C   0  0  0  0  0  0  0  0  0  0  0  0
   45.4145    3.2335   12.1309 O   0  0  0  0  0  0  0  0  0  0  0  0
   47.7997    8.5211   13.1096 O   0  0  0  0  0  0  0  0  0  0  0  0
   46.4816    8.9993   11.3770 O   0  0  0  0  0  0  0  0  0  0  0  0
   44.0815    2.6742   10.4337 O   0  0  0  0  0  0  0  0  0  0  0  0
   45.5570    7.5849   13.0533 C   0  0  0  0  0  0  0  0  0  0  0  0
   43.4689    4.6272   11.6189 C   0  0  0  0  0  0  0  0  0  0  0  0
   43.9609    5.6806   12.6114 C   0  0  0  0  0  0  0  0  0  0  0  0
   45.1089    6.5250   12.0502 C   0  0  0  0  0  0  0  0  0  0  0  0
   45.0199    5.7597    9.8009 H   0  0  0  0  0  0  0  0  0  0  0  0
   46.0370    4.6368   10.6751 H   0  0  0  0  0  0  0  0  0  0  0  0
   42.6358    3.2112   10.6569 H   0  0  0  0  0  0  0  0  0  0  0  0
   43.2203    4.1650    9.4702 H   0  0  0  0  0  0  0  0  0  0  0  0
   43.1541    5.3537   11.5034 H   0  0  0  0  0  0  0  0  0  0  0  0
   44.0683    7.8306   11.0693 H   0  0  0  0  0  0  0  0  0  0  0  0
   47.3660    5.4442   12.5009 H   0  0  0  0  0  0  0  0  0  0  0  0
   43.3292    3.3288   12.9578 H   0  0  0  0  0  0  0  0  0  0  0  0
   45.0340    3.1429   12.5110 H   0  0  0  0  0  0  0  0  0  0  0  0
   44.4979    4.5569   13.4358 H   0  0  0  0  0  0  0  0  0  0  0  0
   44.7986    9.6915   12.5181 H   0  0  0  0  0  0  0  0  0  0  0  0
   48.0832    7.3167   13.9403 H   0  0  0  0  0  0  0  0  0  0  0  0
   46.8042    9.4419   13.9560 H   0  0  0  0  0  0  0  0  0  0  0  0
   47.3127    9.4845   11.1897 H   0  0  0  0  0  0  0  0  0  0  0  0
   44.7670    1.9733   10.4390 H   0  0  0  0  0  0  0  0  0  0  0  0
   44.7444    8.2809   13.2886 H   0  0  0  0  0  0  0  0  0  0  0  0
   45.8601    7.1057   13.9916 H   0  0  0  0  0  0  0  0  0  0  0  0
   43.2923    5.0879   10.6408 H   0  0  0  0  0  0  0  0  0  0  0  0
   42.5244    4.2074   11.9829 H   0  0  0  0  0  0  0  0  0  0  0  0
   43.1221    6.3434   12.8573 H   0  0  0  0  0  0  0  0  0  0  0  0
   44.2745    5.2015   13.5469 H   0  0  0  0  0  0  0  0  0  0  0  0
   44.7851    7.0063   11.1192 H   0  0  0  0  0  0  0  0  0  0  0  0
   45.9618    5.8869   11.7908 H   0  0  0  0  0  0  0  0  0  0  0  0
  4  2  1  0
  3  1  1  0
  4  1  1  0
  5  3  2  0
  6  3  1  0
  4  7  1  0
  8  5  1  0
  9  6  2  0
 10  9  1  0
 10  8  2  0
 12 17  1  0
 13 11  2  0
 14 12  2  0
 15 12  1  0
 16 11  1  0
 17 20  1  0
 18 11  1  0
 19 18  1  0
 20 19  1  0
  1 21  1  0
  1 22  1  0
  2 23  1  0
  2 24  1  0
  4 25  1  1
  5 26  1  0
  6 27  1  0
  7 28  1  0
  7 29  1  0
  7 30  1  0
  8 31  1  0
  9 32  1  0
 10 33  1  0
 15 34  1  0
 16 35  1  0
 17 36  1  0
 17 37  1  0
 18 38  1  0
 18 39  1  0
 19 40  1  0
 19 41  1  0
 20 42  1  0
 20 43  1  0
M  END
> <Uni-Dock RESULT> 
ENERGY=   -4.550  LOWER_BOUND=    3.989  UPPER_BOUND=    6.145
INTER + INTRA:          -4.550
INTER:                  -4.550
INTRA:                   0.000
UNBOUND:                 0.000

$$$$

     RDKit          3D

 43 42  0  0  0  0  0  0  0  0999 V2000
   46.2246    6.0723   13.8164 C   0  0  0  0  0  0  0  0  0  0  0  0
   47.5457    8.1432   14.0031 N   0  0  0  0  0  0  0  0  0  0  0  0
   45.2354    5.2639   13.0084 C   0  0  0  0  0  0  0  0  0  0  0  0
   46.7517    7.3209   13.0792 C   0  0  1  0  0  0  0  0  0  0  0  0
   43.9268    5.7278   12.8148 C   0  0  0  0  0  0  0  0  0  0  0  0
   45.6139    4.0419   12.4364 C   0  0  0  0  0  0  0  0  0  0  0  0
   47.6284    6.9595   11.8795 C   0  0  0  0  0  0  0  0  0  0  0  0
   43.0165    4.9847   12.0617 C   0  0  0  0  0  0  0  0  0  0  0  0
   44.7022    3.3003   11.6833 C   0  0  0  0  0  0  0  0  0  0  0  0
   43.4044    3.7717   11.4958 C   0  0  0  0  0  0  0  0  0  0  0  0
   47.9694    7.0498   13.0833 C   0  0  0  0  0  0  0  0  0  0  0  0
   43.6326    3.7271   12.3106 C   0  0  0  0  0  0  0  0  0  0  0  0
   48.4296    6.0208   12.6209 O   0  0  0  0  0  0  0  0  0  0  0  0
   43.7175    2.5610   11.9638 O   0  0  0  0  0  0  0  0  0  0  0  0
   42.9021    4.0691   13.3882 O   0  0  0  0  0  0  0  0  0  0  0  0
   48.6331    7.7280   14.0401 O   0  0  0  0  0  0  0  0  0  0  0  0
   44.2412    4.9080   11.6083 C   0  0  0  0  0  0  0  0  0  0  0  0
   46.6863    7.7368   12.6971 C   0  0  0  0  0  0  0  0  0  0  0  0
   45.8034    6.8820   11.7878 C   0  0  0  0  0  0  0  0  0  0  0  0
   45.1374    5.7238   12.5366 C   0  0  0  0  0  0  0  0  0  0  0  0
   45.7241    6.3720   14.7477 H   0  0  0  0  0  0  0  0  0  0  0  0
   47.0632    5.4341   14.1258 H   0  0  0  0  0  0  0  0  0  0  0  0
   47.8676    8.9820   13.5208 H   0  0  0  0  0  0  0  0  0  0  0  0
   46.9540    8.4644   14.7686 H   0  0  0  0  0  0  0  0  0  0  0  0
   45.9098    7.9282   12.7257 H   0  0  0  0  0  0  0  0  0  0  0  0
   43.6077    6.6707   13.2528 H   0  0  0  0  0  0  0  0  0  0  0  0
   46.6238    3.6609   12.5719 H   0  0  0  0  0  0  0  0  0  0  0  0
   48.0263    7.8603   11.3982 H   0  0  0  0  0  0  0  0  0  0  0  0
   48.4773    6.3335   12.1765 H   0  0  0  0  0  0  0  0  0  0  0  0
   47.0560    6.4167   11.1205 H   0  0  0  0  0  0  0  0  0  0  0  0
   42.0036    5.3516   11.9178 H   0  0  0  0  0  0  0  0  0  0  0  0
   45.0054    2.3541   11.2432 H   0  0  0  0  0  0  0  0  0  0  0  0
   42.6951    3.1932   10.9101 H   0  0  0  0  0  0  0  0  0  0  0  0
   42.5583    3.2129   13.7197 H   0  0  0  0  0  0  0  0  0  0  0  0
   49.4419    7.1949   14.1915 H   0  0  0  0  0  0  0  0  0  0  0  0
   43.4311    5.5197   11.1964 H   0  0  0  0  0  0  0  0  0  0  0  0
   44.8274    4.5282   10.7632 H   0  0  0  0  0  0  0  0  0  0  0  0
   46.1378    8.0055   13.6065 H   0  0  0  0  0  0  0  0  0  0  0  0
   46.9577    8.6574   12.1682 H   0  0  0  0  0  0  0  0  0  0  0  0
   45.0220    7.5229   11.3615 H   0  0  0  0  0  0  0  0  0  0  0  0
   46.3911    6.4925   10.9476 H   0  0  0  0  0  0  0  0  0  0  0  0
   44.5461    6.1218   13.3705 H   0  0  0  0  0  0  0  0  0  0  0  0
   45.8962    5.0671   12.9783 H   0  0  0  0  0  0  0  0  0  0  0  0
  4  2  1  0
  3  1  1  0
  4  1  1  0
  5  3  2  0
  6  3  1  0
  4  7  1  0
  8  5  1  0
  9  6  2  0
 10  9  1  0
 10  8  2  0
 12 17  1  0
 13 11  2  0
 14 12  2  0
 15 12  1  0
 16 11  1  0
 17 20  1  0
 18 11  1  0
 19 18  1  0
 20 19  1  0
  1 21  1  0
  1 22  1  0
  2 23  1  0
  2 24  1  0
  4 25  1  1
  5 26  1  0
  6 27  1  0
  7 28  1  0
  7 29  1  0
  7 30  1  0
  8 31  1  0
  9 32  1  0
 10 33  1  0
 15 34  1  0
 16 35  1  0
 17 36  1  0
 17 37  1  0
 18 38  1  0
 18 39  1  0
 19 40  1  0
 19 41  1  0
 20 42  1  0
 20 43  1  0
M  END
> <Uni-Dock RESULT> 
ENERGY=   -4.526  LOWER_BOUND=    4.712  UPPER_BOUND=    6.157
INTER + INTRA:          -4.526
INTER:                  -4.526
INTRA:                   0.000
UNBOUND:                 0.000

$$$$
