
     RDKit          3D

 73 70  0  0  0  0  0  0  0  0999 V2000
   -0.0050    0.3980    0.0000 O   0  0  0  0  0  0  0  0  0  0  0  0
    6.4499   -1.5048    0.9589 Br  0  0  0  0  0  0  0  0  0  0  0  0
    0.2086   -1.6895   -1.7844 O   0  0  0  0  0  0  0  0  0  0  0  0
   -4.6517   -0.8112   -0.3892 O   0  0  0  0  0  0  0  0  0  0  0  0
   -5.5153    1.3018   -0.5711 O   0  0  0  0  0  0  0  0  0  0  0  0
   -2.0452   -1.3346    0.0610 N   0  0  0  0  0  0  0  0  0  0  0  0
   -0.2421    0.2402   -0.4985 C   0  0  0  0  0  0  0  0  0  0  0  0
   -1.5673   -0.0052   -0.0835 C   0  0  0  0  0  0  0  0  0  0  0  0
    0.6232   -0.8749   -0.9626 C   0  0  0  0  0  0  0  0  0  0  0  0
   -2.3358    1.0814    0.3918 C   0  0  0  0  0  0  0  0  0  0  0  0
    2.0207   -1.0014   -0.4699 C   0  0  0  0  0  0  0  0  0  0  0  0
    0.2700    1.5446   -0.5546 C   0  0  0  0  0  0  0  0  0  0  0  0
   -1.8004    2.3835    0.3382 C   0  0  0  0  0  0  0  0  0  0  0  0
   -0.5129    2.6154   -0.1394 C   0  0  0  0  0  0  0  0  0  0  0  0
   -3.7385    0.9038    0.9459 C   0  0  0  0  0  0  0  0  0  0  0  0
    2.3821   -0.6282    0.8281 C   0  0  0  0  0  0  0  0  0  0  0  0
    2.9844   -1.5423   -1.3347 C   0  0  0  0  0  0  0  0  0  0  0  0
    4.6604   -1.2994    0.3809 C   0  0  0  0  0  0  0  0  0  0  0  0
    3.7062   -0.7735    1.2529 C   0  0  0  0  0  0  0  0  0  0  0  0
    4.3063   -1.6872   -0.9112 C   0  0  0  0  0  0  0  0  0  0  0  0
   -4.7331    0.4223   -0.1116 C   0  0  0  0  0  0  0  0  0  0  0  0
    6.1651    1.6807    1.4592 Br  0  0  0  0  0  0  0  0  0  0  0  0
    1.1688   -1.2789   -2.1297 O   0  0  0  0  0  0  0  0  0  0  0  0
   -5.4615    0.8116    1.0108 O   0  0  0  0  0  0  0  0  0  0  0  0
   -4.1440    2.4103    0.0344 O   0  0  0  0  0  0  0  0  0  0  0  0
   -1.4231    0.0905   -2.2037 N   0  0  0  0  0  0  0  0  0  0  0  0
   -0.2097   -0.8153   -0.2628 C   0  0  0  0  0  0  0  0  0  0  0  0
   -1.3902   -0.3148   -0.8564 C   0  0  0  0  0  0  0  0  0  0  0  0
    1.0804   -0.7978   -1.0027 C   0  0  0  0  0  0  0  0  0  0  0  0
   -2.5782   -0.3145   -0.0919 C   0  0  0  0  0  0  0  0  0  0  0  0
    2.2873   -0.1872   -0.3840 C   0  0  0  0  0  0  0  0  0  0  0  0
   -0.2027   -1.2926    1.0606 C   0  0  0  0  0  0  0  0  0  0  0  0
   -2.5492   -0.8011    1.2330 C   0  0  0  0  0  0  0  0  0  0  0  0
   -1.3734   -1.2773    1.8090 C   0  0  0  0  0  0  0  0  0  0  0  0
   -3.9156    0.1408   -0.6446 C   0  0  0  0  0  0  0  0  0  0  0  0
    2.1933    0.9080    0.4886 C   0  0  0  0  0  0  0  0  0  0  0  0
    3.5442   -0.7047   -0.7219 C   0  0  0  0  0  0  0  0  0  0  0  0
    4.5985    0.9300    0.7112 C   0  0  0  0  0  0  0  0  0  0  0  0
    3.3519    1.4648    1.0383 C   0  0  0  0  0  0  0  0  0  0  0  0
    4.6997   -0.1511   -0.1658 C   0  0  0  0  0  0  0  0  0  0  0  0
   -4.5592    1.2279    0.2206 C   0  0  0  0  0  0  0  0  0  0  0  0
    0.0000    0.0000    0.0000 Na  0  0  0  0  0 15  0  0  0  0  0  0
    0.0000    0.0000    0.0000 Na  0  0  0  0  0 15  0  0  0  0  0  0
   -0.1041    0.3837    0.0000 O   0  0  0  0  0  0  0  0  0  0  0  0
   -0.0776    0.3900    0.0000 O   0  0  0  0  0  0  0  0  0  0  0  0
   -0.7607   -0.2087    0.0000 H   0  0  0  0  0  0  0  0  0  0  0  0
    0.7658   -0.1894    0.0000 H   0  0  0  0  0  0  0  0  0  0  0  0
   -1.6544   -1.9250   -0.6756 H   0  0  0  0  0  0  0  0  0  0  0  0
   -3.0812   -1.3415   -0.0633 H   0  0  0  0  0  0  0  0  0  0  0  0
    1.2667    1.7298   -0.9388 H   0  0  0  0  0  0  0  0  0  0  0  0
   -2.4079    3.2261    0.6642 H   0  0  0  0  0  0  0  0  0  0  0  0
   -0.1302    3.6271   -0.1950 H   0  0  0  0  0  0  0  0  0  0  0  0
   -4.1015    1.8479    1.3732 H   0  0  0  0  0  0  0  0  0  0  0  0
   -3.7143    0.1987    1.7827 H   0  0  0  0  0  0  0  0  0  0  0  0
    1.6393   -0.2526    1.5304 H   0  0  0  0  0  0  0  0  0  0  0  0
    2.6995   -1.8572   -2.3377 H   0  0  0  0  0  0  0  0  0  0  0  0
    3.9728   -0.4872    2.2668 H   0  0  0  0  0  0  0  0  0  0  0  0
    5.0419   -2.1071   -1.5915 H   0  0  0  0  0  0  0  0  0  0  0  0
   -1.9793    0.9280   -2.3324 H   0  0  0  0  0  0  0  0  0  0  0  0
   -0.5207    0.0813   -2.6774 H   0  0  0  0  0  0  0  0  0  0  0  0
    0.7102   -1.6717    1.5124 H   0  0  0  0  0  0  0  0  0  0  0  0
   -3.4656   -0.8013    1.8259 H   0  0  0  0  0  0  0  0  0  0  0  0
   -1.3835   -1.6241    2.8408 H   0  0  0  0  0  0  0  0  0  0  0  0
   -4.5805   -0.7332   -0.7099 H   0  0  0  0  0  0  0  0  0  0  0  0
   -3.8435    0.5365   -1.6640 H   0  0  0  0  0  0  0  0  0  0  0  0
    1.2272    1.3453    0.7354 H   0  0  0  0  0  0  0  0  0  0  0  0
    3.6165   -1.5389   -1.4177 H   0  0  0  0  0  0  0  0  0  0  0  0
    3.2679    2.3166    1.7118 H   0  0  0  0  0  0  0  0  0  0  0  0
    5.6692   -0.5677   -0.4270 H   0  0  0  0  0  0  0  0  0  0  0  0
   -0.6850   -0.3916    0.0000 H   0  0  0  0  0  0  0  0  0  0  0  0
    0.7891    0.0078    0.0000 H   0  0  0  0  0  0  0  0  0  0  0  0
    0.7880   -0.0458    0.0000 H   0  0  0  0  0  0  0  0  0  0  0  0
   -0.7103   -0.3442    0.0000 H   0  0  0  0  0  0  0  0  0  0  0  0
  2 18  1  0
  3  9  2  0
  4 21  1  0
  5 21  2  0
  6  8  1  0
  7  8  2  0
  7  9  1  0
  7 12  1  0
  8 10  1  0
  9 11  1  0
 10 13  2  0
 10 15  1  0
 11 16  2  0
 11 17  1  0
 12 14  2  0
 13 14  1  0
 15 21  1  0
 16 19  1  0
 17 20  2  0
 18 19  2  0
 18 20  1  0
 22 38  1  0
 23 29  2  0
 24 41  1  0
 25 41  2  0
 26 28  1  0
 27 28  2  0
 27 29  1  0
 27 32  1  0
 28 30  1  0
 29 31  1  0
 30 33  2  0
 30 35  1  0
 31 36  2  0
 31 37  1  0
 32 34  2  0
 33 34  1  0
 35 41  1  0
 36 39  1  0
 37 40  2  0
 38 39  2  0
 38 40  1  0
  1 46  1  0
  1 47  1  0
  6 48  1  0
  6 49  1  0
 12 50  1  0
 13 51  1  0
 14 52  1  0
 15 53  1  0
 15 54  1  0
 16 55  1  0
 17 56  1  0
 19 57  1  0
 20 58  1  0
 26 59  1  0
 26 60  1  0
 32 61  1  0
 33 62  1  0
 34 63  1  0
 35 64  1  0
 35 65  1  0
 36 66  1  0
 37 67  1  0
 39 68  1  0
 40 69  1  0
 44 70  1  0
 44 71  1  0
 45 72  1  0
 45 73  1  0
M  CHG  4   4  -1  24  -1  42   1  43   1
M  END
$$$$
