
     RDKit          3D

 73 70  0  0  0  0  0  0  0  0999 V2000
    0.0064    0.3975    0.0000 O   0  0  0  0  0  0  0  0  0  0  0  0
    6.5309    1.5124   -0.0337 Br  0  0  0  0  0  0  0  0  0  0  0  0
    0.9414   -2.3129    0.8382 O   0  0  0  0  0  0  0  0  0  0  0  0
   -5.4271   -0.0972    0.5366 O   0  0  0  0  0  0  0  0  0  0  0  0
   -5.7475    0.7648   -1.5497 O   0  0  0  0  0  0  0  0  0  0  0  0
   -1.2309   -1.9346   -0.9942 N   0  0  0  0  0  0  0  0  0  0  0  0
   -0.2592   -0.2976    0.5398 C   0  0  0  0  0  0  0  0  0  0  0  0
   -1.3733   -0.7811   -0.1872 C   0  0  0  0  0  0  0  0  0  0  0  0
    0.9885   -1.1039    0.6199 C   0  0  0  0  0  0  0  0  0  0  0  0
   -2.5301    0.0291   -0.2764 C   0  0  0  0  0  0  0  0  0  0  0  0
    2.3134   -0.4576    0.4429 C   0  0  0  0  0  0  0  0  0  0  0  0
   -0.3080    0.9286    1.2189 C   0  0  0  0  0  0  0  0  0  0  0  0
   -2.5403    1.2737    0.3864 C   0  0  0  0  0  0  0  0  0  0  0  0
   -1.4504    1.7131    1.1375 C   0  0  0  0  0  0  0  0  0  0  0  0
   -3.7349   -0.3865   -1.1050 C   0  0  0  0  0  0  0  0  0  0  0  0
    3.3875   -0.9038    1.2238 C   0  0  0  0  0  0  0  0  0  0  0  0
    2.5061    0.5631   -0.4958 C   0  0  0  0  0  0  0  0  0  0  0  0
    4.8286    0.7118    0.1586 C   0  0  0  0  0  0  0  0  0  0  0  0
    4.6448   -0.3115    1.0893 C   0  0  0  0  0  0  0  0  0  0  0  0
    3.7674    1.1481   -0.6376 C   0  0  0  0  0  0  0  0  0  0  0  0
   -5.0924    0.1548   -0.6559 C   0  0  0  0  0  0  0  0  0  0  0  0
    4.9420   -2.3254    2.8958 Br  0  0  0  0  0  0  0  0  0  0  0  0
    1.7705    1.2278   -2.0331 O   0  0  0  0  0  0  0  0  0  0  0  0
   -3.6626   -0.6583    2.5121 O   0  0  0  0  0  0  0  0  0  0  0  0
   -2.2229    1.0615    2.9604 O   0  0  0  0  0  0  0  0  0  0  0  0
   -0.5153    1.6740    0.9204 N   0  0  0  0  0  0  0  0  0  0  0  0
   -0.2224    0.3818   -1.1563 C   0  0  0  0  0  0  0  0  0  0  0  0
   -1.0259    0.8302   -0.0888 C   0  0  0  0  0  0  0  0  0  0  0  0
    1.2473    0.5355   -1.1585 C   0  0  0  0  0  0  0  0  0  0  0  0
   -2.4214    0.6082   -0.1753 C   0  0  0  0  0  0  0  0  0  0  0  0
    2.1004   -0.1814   -0.1602 C   0  0  0  0  0  0  0  0  0  0  0  0
   -0.7739   -0.2687   -2.2687 C   0  0  0  0  0  0  0  0  0  0  0  0
   -2.9591   -0.0648   -1.2891 C   0  0  0  0  0  0  0  0  0  0  0  0
   -2.1415   -0.4971   -2.3309 C   0  0  0  0  0  0  0  0  0  0  0  0
   -3.3831    1.0712    0.9046 C   0  0  0  0  0  0  0  0  0  0  0  0
    1.5751   -1.0588    0.7970 C   0  0  0  0  0  0  0  0  0  0  0  0
    3.4885    0.0306   -0.2039 C   0  0  0  0  0  0  0  0  0  0  0  0
    3.7993   -1.4676    1.6582 C   0  0  0  0  0  0  0  0  0  0  0  0
    2.4244   -1.6923    1.7124 C   0  0  0  0  0  0  0  0  0  0  0  0
    4.3378   -0.6135    0.6992 C   0  0  0  0  0  0  0  0  0  0  0  0
   -3.0630    0.4228    2.2564 C   0  0  0  0  0  0  0  0  0  0  0  0
    0.0000    0.0000    0.0000 Na  0  0  0  0  0 15  0  0  0  0  0  0
    0.0000    0.0000    0.0000 Na  0  0  0  0  0 15  0  0  0  0  0  0
    0.0769    0.3908    0.0000 O   0  0  0  0  0  0  0  0  0  0  0  0
    0.0399    0.3959    0.0000 O   0  0  0  0  0  0  0  0  0  0  0  0
   -0.7670   -0.1864    0.0000 H   0  0  0  0  0  0  0  0  0  0  0  0
    0.7606   -0.2111    0.0000 H   0  0  0  0  0  0  0  0  0  0  0  0
   -0.6072   -2.6138   -0.5528 H   0  0  0  0  0  0  0  0  0  0  0  0
   -2.1116   -2.3537   -1.2616 H   0  0  0  0  0  0  0  0  0  0  0  0
    0.5336    1.2792    1.8095 H   0  0  0  0  0  0  0  0  0  0  0  0
   -3.4258    1.9087    0.3354 H   0  0  0  0  0  0  0  0  0  0  0  0
   -1.5030    2.6714    1.6500 H   0  0  0  0  0  0  0  0  0  0  0  0
   -3.5465   -0.0957   -2.1454 H   0  0  0  0  0  0  0  0  0  0  0  0
   -3.8576   -1.4750   -1.0796 H   0  0  0  0  0  0  0  0  0  0  0  0
    3.2379   -1.7109    1.9375 H   0  0  0  0  0  0  0  0  0  0  0  0
    1.6843    0.8937   -1.1303 H   0  0  0  0  0  0  0  0  0  0  0  0
    5.4705   -0.6567    1.7063 H   0  0  0  0  0  0  0  0  0  0  0  0
    3.9108    1.9399   -1.3688 H   0  0  0  0  0  0  0  0  0  0  0  0
   -1.0807    1.6233    1.7913 H   0  0  0  0  0  0  0  0  0  0  0  0
    0.4585    1.5490    1.1606 H   0  0  0  0  0  0  0  0  0  0  0  0
   -0.1315   -0.5974   -3.0809 H   0  0  0  0  0  0  0  0  0  0  0  0
   -4.0299   -0.2496   -1.3411 H   0  0  0  0  0  0  0  0  0  0  0  0
   -2.5771   -1.0006   -3.1866 H   0  0  0  0  0  0  0  0  0  0  0  0
   -4.4182    0.8332    0.6359 H   0  0  0  0  0  0  0  0  0  0  0  0
   -3.3378    2.1662    0.9851 H   0  0  0  0  0  0  0  0  0  0  0  0
    0.5073   -1.2594    0.8679 H   0  0  0  0  0  0  0  0  0  0  0  0
    3.9124    0.7035   -0.9469 H   0  0  0  0  0  0  0  0  0  0  0  0
    1.9942   -2.3495    2.4632 H   0  0  0  0  0  0  0  0  0  0  0  0
    5.4086   -0.4342    0.6485 H   0  0  0  0  0  0  0  0  0  0  0  0
   -0.7880   -0.0483    0.0000 H   0  0  0  0  0  0  0  0  0  0  0  0
    0.7111   -0.3424    0.0000 H   0  0  0  0  0  0  0  0  0  0  0  0
   -0.7796   -0.1216    0.0000 H   0  0  0  0  0  0  0  0  0  0  0  0
    0.7397   -0.2744    0.0000 H   0  0  0  0  0  0  0  0  0  0  0  0
  2 18  1  0
  3  9  2  0
  4 21  1  0
  5 21  2  0
  6  8  1  0
  7  8  2  0
  7  9  1  0
  7 12  1  0
  8 10  1  0
  9 11  1  0
 10 13  2  0
 10 15  1  0
 11 16  2  0
 11 17  1  0
 12 14  2  0
 13 14  1  0
 15 21  1  0
 16 19  1  0
 17 20  2  0
 18 19  2  0
 18 20  1  0
 22 38  1  0
 23 29  2  0
 24 41  1  0
 25 41  2  0
 26 28  1  0
 27 28  2  0
 27 29  1  0
 27 32  1  0
 28 30  1  0
 29 31  1  0
 30 33  2  0
 30 35  1  0
 31 36  2  0
 31 37  1  0
 32 34  2  0
 33 34  1  0
 35 41  1  0
 36 39  1  0
 37 40  2  0
 38 39  2  0
 38 40  1  0
  1 46  1  0
  1 47  1  0
  6 48  1  0
  6 49  1  0
 12 50  1  0
 13 51  1  0
 14 52  1  0
 15 53  1  0
 15 54  1  0
 16 55  1  0
 17 56  1  0
 19 57  1  0
 20 58  1  0
 26 59  1  0
 26 60  1  0
 32 61  1  0
 33 62  1  0
 34 63  1  0
 35 64  1  0
 35 65  1  0
 36 66  1  0
 37 67  1  0
 39 68  1  0
 40 69  1  0
 44 70  1  0
 44 71  1  0
 45 72  1  0
 45 73  1  0
M  CHG  4   4  -1  24  -1  42   1  43   1
M  END
$$$$
