
     RDKit          3D

 73 70  0  0  0  0  0  0  0  0999 V2000
   -0.0811    0.3888    0.0000 O   0  0  0  0  0  0  0  0  0  0  0  0
    4.6684    3.3995    2.1009 Br  0  0  0  0  0  0  0  0  0  0  0  0
    1.5837   -0.4388   -2.6335 O   0  0  0  0  0  0  0  0  0  0  0  0
   -3.0646    1.4826    1.6505 O   0  0  0  0  0  0  0  0  0  0  0  0
   -3.2585   -0.4313    2.8976 O   0  0  0  0  0  0  0  0  0  0  0  0
   -1.1068    1.0469   -0.2620 N   0  0  0  0  0  0  0  0  0  0  0  0
   -0.0092   -0.9938   -1.0241 C   0  0  0  0  0  0  0  0  0  0  0  0
   -1.0974   -0.3533   -0.3955 C   0  0  0  0  0  0  0  0  0  0  0  0
    1.2045   -0.2664   -1.4712 C   0  0  0  0  0  0  0  0  0  0  0  0
   -2.2227   -1.1324   -0.0427 C   0  0  0  0  0  0  0  0  0  0  0  0
    1.9912    0.6231   -0.5722 C   0  0  0  0  0  0  0  0  0  0  0  0
   -0.0252   -2.3747   -1.2773 C   0  0  0  0  0  0  0  0  0  0  0  0
   -2.2057   -2.5221   -0.2829 C   0  0  0  0  0  0  0  0  0  0  0  0
   -1.1159   -3.1425   -0.8914 C   0  0  0  0  0  0  0  0  0  0  0  0
   -3.4883   -0.5400    0.5405 C   0  0  0  0  0  0  0  0  0  0  0  0
    1.8417    0.6190    0.8190 C   0  0  0  0  0  0  0  0  0  0  0  0
    2.9576    1.4597   -1.1542 C   0  0  0  0  0  0  0  0  0  0  0  0
    3.6023    2.2665    1.0262 C   0  0  0  0  0  0  0  0  0  0  0  0
    2.6522    1.4370    1.6177 C   0  0  0  0  0  0  0  0  0  0  0  0
    3.7607    2.2790   -0.3582 C   0  0  0  0  0  0  0  0  0  0  0  0
   -3.2472    0.2379    1.8277 C   0  0  0  0  0  0  0  0  0  0  0  0
   -6.2009   -0.6881    1.5014 Br  0  0  0  0  0  0  0  0  0  0  0  0
   -0.8294    1.7603   -1.9840 O   0  0  0  0  0  0  0  0  0  0  0  0
    5.3397    0.7555    0.2706 O   0  0  0  0  0  0  0  0  0  0  0  0
    3.8257    2.1561    1.2860 O   0  0  0  0  0  0  0  0  0  0  0  0
    1.1164    1.5678    0.7537 N   0  0  0  0  0  0  0  0  0  0  0  0
    0.3631    0.0097   -0.9924 C   0  0  0  0  0  0  0  0  0  0  0  0
    1.3223    0.4176   -0.0478 C   0  0  0  0  0  0  0  0  0  0  0  0
   -0.8607    0.8011   -1.2144 C   0  0  0  0  0  0  0  0  0  0  0  0
    2.3933   -0.4605    0.2255 C   0  0  0  0  0  0  0  0  0  0  0  0
   -2.1281    0.4208   -0.5299 C   0  0  0  0  0  0  0  0  0  0  0  0
    0.5152   -1.1610   -1.7458 C   0  0  0  0  0  0  0  0  0  0  0  0
    2.5501   -1.6277   -0.5442 C   0  0  0  0  0  0  0  0  0  0  0  0
    1.6216   -1.9721   -1.5295 C   0  0  0  0  0  0  0  0  0  0  0  0
    3.4191   -0.1662    1.3030 C   0  0  0  0  0  0  0  0  0  0  0  0
   -2.1605   -0.4813    0.5431 C   0  0  0  0  0  0  0  0  0  0  0  0
   -3.3251    0.9930   -0.9875 C   0  0  0  0  0  0  0  0  0  0  0  0
   -4.5674   -0.2459    0.6694 C   0  0  0  0  0  0  0  0  0  0  0  0
   -3.3825   -0.8150    1.1405 C   0  0  0  0  0  0  0  0  0  0  0  0
   -4.5466    0.6565   -0.3917 C   0  0  0  0  0  0  0  0  0  0  0  0
    4.2862    1.0313    0.9136 C   0  0  0  0  0  0  0  0  0  0  0  0
    0.0000    0.0000    0.0000 Na  0  0  0  0  0 15  0  0  0  0  0  0
    0.0000    0.0000    0.0000 Na  0  0  0  0  0 15  0  0  0  0  0  0
    0.0575    0.3941    0.0000 O   0  0  0  0  0  0  0  0  0  0  0  0
   -0.1162    0.3797    0.0000 O   0  0  0  0  0  0  0  0  0  0  0  0
    0.7881   -0.0386    0.0000 H   0  0  0  0  0  0  0  0  0  0  0  0
   -0.7070   -0.3501    0.0000 H   0  0  0  0  0  0  0  0  0  0  0  0
   -1.2205    1.5218   -1.1541 H   0  0  0  0  0  0  0  0  0  0  0  0
   -1.8393    1.3939    0.3920 H   0  0  0  0  0  0  0  0  0  0  0  0
    0.8194   -2.8495   -1.7686 H   0  0  0  0  0  0  0  0  0  0  0  0
   -3.0607   -3.1304    0.0092 H   0  0  0  0  0  0  0  0  0  0  0  0
   -1.1315   -4.2140   -1.0740 H   0  0  0  0  0  0  0  0  0  0  0  0
   -3.9479    0.1139   -0.2106 H   0  0  0  0  0  0  0  0  0  0  0  0
   -4.2279   -1.3192    0.7474 H   0  0  0  0  0  0  0  0  0  0  0  0
    1.0864    0.0040    1.3077 H   0  0  0  0  0  0  0  0  0  0  0  0
    3.0921    1.4698   -2.2328 H   0  0  0  0  0  0  0  0  0  0  0  0
    2.5094    1.4302    2.6952 H   0  0  0  0  0  0  0  0  0  0  0  0
    4.4998    2.9234   -0.8262 H   0  0  0  0  0  0  0  0  0  0  0  0
    2.0304    1.9293    1.1021 H   0  0  0  0  0  0  0  0  0  0  0  0
    0.7021    2.3166    0.2028 H   0  0  0  0  0  0  0  0  0  0  0  0
   -0.2224   -1.4341   -2.4939 H   0  0  0  0  0  0  0  0  0  0  0  0
    3.4165   -2.2695   -0.3781 H   0  0  0  0  0  0  0  0  0  0  0  0
    1.7739   -2.8697   -2.1198 H   0  0  0  0  0  0  0  0  0  0  0  0
    4.0592   -1.0392    1.4826 H   0  0  0  0  0  0  0  0  0  0  0  0
    2.8993    0.0222    2.2488 H   0  0  0  0  0  0  0  0  0  0  0  0
   -1.2467   -0.9175    0.9427 H   0  0  0  0  0  0  0  0  0  0  0  0
   -3.3070    1.7098   -1.8118 H   0  0  0  0  0  0  0  0  0  0  0  0
   -3.3928   -1.5093    1.9771 H   0  0  0  0  0  0  0  0  0  0  0  0
   -5.4642    1.1097   -0.7589 H   0  0  0  0  0  0  0  0  0  0  0  0
    0.7262   -0.3071    0.0000 H   0  0  0  0  0  0  0  0  0  0  0  0
   -0.7836   -0.0870    0.0000 H   0  0  0  0  0  0  0  0  0  0  0  0
    0.7882    0.0332    0.0000 H   0  0  0  0  0  0  0  0  0  0  0  0
   -0.6720   -0.4129    0.0000 H   0  0  0  0  0  0  0  0  0  0  0  0
  2 18  1  0
  3  9  2  0
  4 21  1  0
  5 21  2  0
  6  8  1  0
  7  8  2  0
  7  9  1  0
  7 12  1  0
  8 10  1  0
  9 11  1  0
 10 13  2  0
 10 15  1  0
 11 16  2  0
 11 17  1  0
 12 14  2  0
 13 14  1  0
 15 21  1  0
 16 19  1  0
 17 20  2  0
 18 19  2  0
 18 20  1  0
 22 38  1  0
 23 29  2  0
 24 41  1  0
 25 41  2  0
 26 28  1  0
 27 28  2  0
 27 29  1  0
 27 32  1  0
 28 30  1  0
 29 31  1  0
 30 33  2  0
 30 35  1  0
 31 36  2  0
 31 37  1  0
 32 34  2  0
 33 34  1  0
 35 41  1  0
 36 39  1  0
 37 40  2  0
 38 39  2  0
 38 40  1  0
  1 46  1  0
  1 47  1  0
  6 48  1  0
  6 49  1  0
 12 50  1  0
 13 51  1  0
 14 52  1  0
 15 53  1  0
 15 54  1  0
 16 55  1  0
 17 56  1  0
 19 57  1  0
 20 58  1  0
 26 59  1  0
 26 60  1  0
 32 61  1  0
 33 62  1  0
 34 63  1  0
 35 64  1  0
 35 65  1  0
 36 66  1  0
 37 67  1  0
 39 68  1  0
 40 69  1  0
 44 70  1  0
 44 71  1  0
 45 72  1  0
 45 73  1  0
M  CHG  4   4  -1  24  -1  42   1  43   1
M  END
$$$$
