
     RDKit          3D

 73 70  0  0  0  0  0  0  0  0999 V2000
    0.0499    0.3938    0.0000 O   0  0  0  0  0  0  0  0  0  0  0  0
   -6.2115    1.7880   -1.8881 Br  0  0  0  0  0  0  0  0  0  0  0  0
   -0.1569    1.9351    1.2778 O   0  0  0  0  0  0  0  0  0  0  0  0
    4.6986    0.5594   -0.0296 O   0  0  0  0  0  0  0  0  0  0  0  0
    5.3707   -1.5351    0.6194 O   0  0  0  0  0  0  0  0  0  0  0  0
    2.0838    1.1384   -0.5408 N   0  0  0  0  0  0  0  0  0  0  0  0
    0.2012   -0.1867    0.3168 C   0  0  0  0  0  0  0  0  0  0  0  0
    1.5332   -0.1039   -0.1372 C   0  0  0  0  0  0  0  0  0  0  0  0
   -0.5919    1.0443    0.5509 C   0  0  0  0  0  0  0  0  0  0  0  0
    2.2307   -1.3064   -0.4014 C   0  0  0  0  0  0  0  0  0  0  0  0
   -1.9383    1.1984   -0.0628 C   0  0  0  0  0  0  0  0  0  0  0  0
   -0.3974   -1.4250    0.5968 C   0  0  0  0  0  0  0  0  0  0  0  0
    1.6185   -2.5397   -0.1105 C   0  0  0  0  0  0  0  0  0  0  0  0
    0.3159   -2.5994    0.3854 C   0  0  0  0  0  0  0  0  0  0  0  0
    3.6343   -1.3230   -0.9799 C   0  0  0  0  0  0  0  0  0  0  0  0
   -2.2539    0.6281   -1.3012 C   0  0  0  0  0  0  0  0  0  0  0  0
   -2.8959    1.9670    0.6151 C   0  0  0  0  0  0  0  0  0  0  0  0
   -4.4838    1.5542   -1.1525 C   0  0  0  0  0  0  0  0  0  0  0  0
   -3.5293    0.8055   -1.8458 C   0  0  0  0  0  0  0  0  0  0  0  0
   -4.1724    2.1396    0.0739 C   0  0  0  0  0  0  0  0  0  0  0  0
    4.6635   -0.7092   -0.0274 C   0  0  0  0  0  0  0  0  0  0  0  0
    5.5978    2.5848   -0.3502 Br  0  0  0  0  0  0  0  0  0  0  0  0
    0.8382   -1.2233    2.7928 O   0  0  0  0  0  0  0  0  0  0  0  0
   -3.5271    1.2287   -2.8794 O   0  0  0  0  0  0  0  0  0  0  0  0
   -2.5887    2.3145   -1.0947 O   0  0  0  0  0  0  0  0  0  0  0  0
   -1.4460    1.0567    1.0307 N   0  0  0  0  0  0  0  0  0  0  0  0
   -0.3382   -1.1315    0.7773 C   0  0  0  0  0  0  0  0  0  0  0  0
   -1.3512   -0.2161    0.4309 C   0  0  0  0  0  0  0  0  0  0  0  0
    0.7903   -0.7620    1.6530 C   0  0  0  0  0  0  0  0  0  0  0  0
   -2.4046   -0.6773   -0.3933 C   0  0  0  0  0  0  0  0  0  0  0  0
    1.9105    0.0849    1.1377 C   0  0  0  0  0  0  0  0  0  0  0  0
   -0.3208   -2.4390    0.2676 C   0  0  0  0  0  0  0  0  0  0  0  0
   -2.3578   -1.9825   -0.9240 C   0  0  0  0  0  0  0  0  0  0  0  0
   -1.3237   -2.8584   -0.5982 C   0  0  0  0  0  0  0  0  0  0  0  0
   -3.5937    0.2000   -0.7471 C   0  0  0  0  0  0  0  0  0  0  0  0
    1.8800    0.7092   -0.1163 C   0  0  0  0  0  0  0  0  0  0  0  0
    3.0516    0.2266    1.9462 C   0  0  0  0  0  0  0  0  0  0  0  0
    4.1044    1.5887    0.2563 C   0  0  0  0  0  0  0  0  0  0  0  0
    2.9740    1.4655   -0.5520 C   0  0  0  0  0  0  0  0  0  0  0  0
    4.1478    0.9746    1.5063 C   0  0  0  0  0  0  0  0  0  0  0  0
   -3.1926    1.3543   -1.6680 C   0  0  0  0  0  0  0  0  0  0  0  0
    0.0000    0.0000    0.0000 Na  0  0  0  0  0 15  0  0  0  0  0  0
    0.0000    0.0000    0.0000 Na  0  0  0  0  0 15  0  0  0  0  0  0
    0.0677    0.3921    0.0000 O   0  0  0  0  0  0  0  0  0  0  0  0
   -0.0036    0.3982    0.0000 O   0  0  0  0  0  0  0  0  0  0  0  0
    0.7338   -0.2926    0.0000 H   0  0  0  0  0  0  0  0  0  0  0  0
   -0.7837   -0.1012    0.0000 H   0  0  0  0  0  0  0  0  0  0  0  0
    3.1238    1.1129   -0.4539 H   0  0  0  0  0  0  0  0  0  0  0  0
    1.7599    1.8919    0.0641 H   0  0  0  0  0  0  0  0  0  0  0  0
   -1.4089   -1.4814    0.9911 H   0  0  0  0  0  0  0  0  0  0  0  0
    2.1698   -3.4643   -0.2661 H   0  0  0  0  0  0  0  0  0  0  0  0
   -0.1321   -3.5632    0.6089 H   0  0  0  0  0  0  0  0  0  0  0  0
    3.6437   -0.7797   -1.9326 H   0  0  0  0  0  0  0  0  0  0  0  0
    3.9406   -2.3479   -1.2139 H   0  0  0  0  0  0  0  0  0  0  0  0
   -1.5072    0.0687   -1.8632 H   0  0  0  0  0  0  0  0  0  0  0  0
   -2.6386    2.4354    1.5635 H   0  0  0  0  0  0  0  0  0  0  0  0
   -3.7626    0.3629   -2.8120 H   0  0  0  0  0  0  0  0  0  0  0  0
   -4.9075    2.7349    0.6096 H   0  0  0  0  0  0  0  0  0  0  0  0
   -1.9305    1.7214    0.3880 H   0  0  0  0  0  0  0  0  0  0  0  0
   -0.5706    1.4740    1.3203 H   0  0  0  0  0  0  0  0  0  0  0  0
    0.4786   -3.1226    0.5414 H   0  0  0  0  0  0  0  0  0  0  0  0
   -3.1476   -2.3186   -1.5966 H   0  0  0  0  0  0  0  0  0  0  0  0
   -1.3104   -3.8625   -1.0154 H   0  0  0  0  0  0  0  0  0  0  0  0
   -4.3844   -0.3913   -1.2273 H   0  0  0  0  0  0  0  0  0  0  0  0
   -4.0410    0.5976    0.1748 H   0  0  0  0  0  0  0  0  0  0  0  0
    1.0142    0.6368   -0.7738 H   0  0  0  0  0  0  0  0  0  0  0  0
    3.0913   -0.2578    2.9194 H   0  0  0  0  0  0  0  0  0  0  0  0
    2.9260    1.9528   -1.5223 H   0  0  0  0  0  0  0  0  0  0  0  0
    5.0241    1.0715    2.1431 H   0  0  0  0  0  0  0  0  0  0  0  0
   -0.7855   -0.0660    0.0000 H   0  0  0  0  0  0  0  0  0  0  0  0
    0.7178   -0.3261    0.0000 H   0  0  0  0  0  0  0  0  0  0  0  0
    0.7647   -0.1919    0.0000 H   0  0  0  0  0  0  0  0  0  0  0  0
   -0.7611   -0.2063    0.0000 H   0  0  0  0  0  0  0  0  0  0  0  0
  2 18  1  0
  3  9  2  0
  4 21  1  0
  5 21  2  0
  6  8  1  0
  7  8  2  0
  7  9  1  0
  7 12  1  0
  8 10  1  0
  9 11  1  0
 10 13  2  0
 10 15  1  0
 11 16  2  0
 11 17  1  0
 12 14  2  0
 13 14  1  0
 15 21  1  0
 16 19  1  0
 17 20  2  0
 18 19  2  0
 18 20  1  0
 22 38  1  0
 23 29  2  0
 24 41  1  0
 25 41  2  0
 26 28  1  0
 27 28  2  0
 27 29  1  0
 27 32  1  0
 28 30  1  0
 29 31  1  0
 30 33  2  0
 30 35  1  0
 31 36  2  0
 31 37  1  0
 32 34  2  0
 33 34  1  0
 35 41  1  0
 36 39  1  0
 37 40  2  0
 38 39  2  0
 38 40  1  0
  1 46  1  0
  1 47  1  0
  6 48  1  0
  6 49  1  0
 12 50  1  0
 13 51  1  0
 14 52  1  0
 15 53  1  0
 15 54  1  0
 16 55  1  0
 17 56  1  0
 19 57  1  0
 20 58  1  0
 26 59  1  0
 26 60  1  0
 32 61  1  0
 33 62  1  0
 34 63  1  0
 35 64  1  0
 35 65  1  0
 36 66  1  0
 37 67  1  0
 39 68  1  0
 40 69  1  0
 44 70  1  0
 44 71  1  0
 45 72  1  0
 45 73  1  0
M  CHG  4   4  -1  24  -1  42   1  43   1
M  END
$$$$
