
     RDKit          3D

 73 70  0  0  0  0  0  0  0  0999 V2000
   -0.0058    0.3977    0.0000 O   0  0  0  0  0  0  0  0  0  0  0  0
    6.1192    0.4734   -2.3152 Br  0  0  0  0  0  0  0  0  0  0  0  0
    1.0933   -1.4587    1.9453 O   0  0  0  0  0  0  0  0  0  0  0  0
   -4.3846    0.8008   -2.6178 O   0  0  0  0  0  0  0  0  0  0  0  0
   -5.7682    0.3737   -0.8525 O   0  0  0  0  0  0  0  0  0  0  0  0
   -1.2468   -2.0486   -0.0071 N   0  0  0  0  0  0  0  0  0  0  0  0
   -0.2234    0.0534    0.7340 C   0  0  0  0  0  0  0  0  0  0  0  0
   -1.3376   -0.6557    0.2418 C   0  0  0  0  0  0  0  0  0  0  0  0
    1.0419   -0.6544    1.0186 C   0  0  0  0  0  0  0  0  0  0  0  0
   -2.4575    0.0835   -0.2019 C   0  0  0  0  0  0  0  0  0  0  0  0
    2.2446   -0.3811    0.1823 C   0  0  0  0  0  0  0  0  0  0  0  0
   -0.2620    1.4375    0.9412 C   0  0  0  0  0  0  0  0  0  0  0  0
   -2.4841    1.4759    0.0171 C   0  0  0  0  0  0  0  0  0  0  0  0
   -1.4051    2.1452    0.5949 C   0  0  0  0  0  0  0  0  0  0  0  0
   -3.6262   -0.6175   -0.8723 C   0  0  0  0  0  0  0  0  0  0  0  0
    2.1486    0.2031   -1.0874 C   0  0  0  0  0  0  0  0  0  0  0  0
    3.5025   -0.7350    0.6860 C   0  0  0  0  0  0  0  0  0  0  0  0
    4.5529    0.1174   -1.3120 C   0  0  0  0  0  0  0  0  0  0  0  0
    3.3039    0.4554   -1.8335 C   0  0  0  0  0  0  0  0  0  0  0  0
    4.6582   -0.4798   -0.0572 C   0  0  0  0  0  0  0  0  0  0  0  0
   -4.6892    0.2733   -1.5076 C   0  0  0  0  0  0  0  0  0  0  0  0
   -5.4007   -2.8868    0.0951 Br  0  0  0  0  0  0  0  0  0  0  0  0
   -1.0716    1.8858   -2.2205 O   0  0  0  0  0  0  0  0  0  0  0  0
    2.6891   -2.6454    0.5284 O   0  0  0  0  0  0  0  0  0  0  0  0
    2.9066   -1.8911    2.6816 O   0  0  0  0  0  0  0  0  0  0  0  0
    1.0869   -0.9385   -0.8570 N   0  0  0  0  0  0  0  0  0  0  0  0
    0.3095    1.3326   -0.4270 C   0  0  0  0  0  0  0  0  0  0  0  0
    1.2500    0.3015   -0.2223 C   0  0  0  0  0  0  0  0  0  0  0  0
   -0.9017    1.1395   -1.2546 C   0  0  0  0  0  0  0  0  0  0  0  0
    2.3464    0.5545    0.6319 C   0  0  0  0  0  0  0  0  0  0  0  0
   -1.9421    0.1264   -0.9047 C   0  0  0  0  0  0  0  0  0  0  0  0
    0.4680    2.5969    0.1558 C   0  0  0  0  0  0  0  0  0  0  0  0
    2.4754    1.8267    1.2294 C   0  0  0  0  0  0  0  0  0  0  0  0
    1.5494    2.8409    0.9916 C   0  0  0  0  0  0  0  0  0  0  0  0
    3.4558   -0.4495    0.8781 C   0  0  0  0  0  0  0  0  0  0  0  0
   -1.9096   -0.6235    0.2785 C   0  0  0  0  0  0  0  0  0  0  0  0
   -3.0214   -0.0419   -1.7879 C   0  0  0  0  0  0  0  0  0  0  0  0
   -4.0025   -1.6821   -0.3129 C   0  0  0  0  0  0  0  0  0  0  0  0
   -2.9401   -1.5272    0.5736 C   0  0  0  0  0  0  0  0  0  0  0  0
   -4.0499   -0.9430   -1.4932 C   0  0  0  0  0  0  0  0  0  0  0  0
    2.9644   -1.7869    1.4237 C   0  0  0  0  0  0  0  0  0  0  0  0
    0.0000    0.0000    0.0000 Na  0  0  0  0  0 15  0  0  0  0  0  0
    0.0000    0.0000    0.0000 Na  0  0  0  0  0 15  0  0  0  0  0  0
   -0.0129    0.3977    0.0000 O   0  0  0  0  0  0  0  0  0  0  0  0
    0.0001    0.3979    0.0000 O   0  0  0  0  0  0  0  0  0  0  0  0
   -0.7604   -0.2100    0.0000 H   0  0  0  0  0  0  0  0  0  0  0  0
    0.7662   -0.1878    0.0000 H   0  0  0  0  0  0  0  0  0  0  0  0
   -0.6399   -2.5063    0.6747 H   0  0  0  0  0  0  0  0  0  0  0  0
   -2.1670   -2.4822   -0.0266 H   0  0  0  0  0  0  0  0  0  0  0  0
    0.5924    1.9608    1.3595 H   0  0  0  0  0  0  0  0  0  0  0  0
   -3.3547    2.0608   -0.2839 H   0  0  0  0  0  0  0  0  0  0  0  0
   -1.4579    3.2208    0.7431 H   0  0  0  0  0  0  0  0  0  0  0  0
   -3.2451   -1.2689   -1.6670 H   0  0  0  0  0  0  0  0  0  0  0  0
   -4.1143   -1.2592   -0.1294 H   0  0  0  0  0  0  0  0  0  0  0  0
    1.1817    0.4580   -1.5183 H   0  0  0  0  0  0  0  0  0  0  0  0
    3.5837   -1.2044    1.6637 H   0  0  0  0  0  0  0  0  0  0  0  0
    3.2134    0.9107   -2.8165 H   0  0  0  0  0  0  0  0  0  0  0  0
    5.6270   -0.7519    0.3527 H   0  0  0  0  0  0  0  0  0  0  0  0
    1.7337   -1.6904   -0.5465 H   0  0  0  0  0  0  0  0  0  0  0  0
    1.0000   -0.9035   -1.8663 H   0  0  0  0  0  0  0  0  0  0  0  0
   -0.2597    3.3805   -0.0347 H   0  0  0  0  0  0  0  0  0  0  0  0
    3.3193    2.0281    1.8875 H   0  0  0  0  0  0  0  0  0  0  0  0
    1.6727    3.8126    1.4623 H   0  0  0  0  0  0  0  0  0  0  0  0
    4.0017   -0.6016   -0.0618 H   0  0  0  0  0  0  0  0  0  0  0  0
    4.1885   -0.0496    1.5909 H   0  0  0  0  0  0  0  0  0  0  0  0
   -1.0861   -0.5353    0.9858 H   0  0  0  0  0  0  0  0  0  0  0  0
   -3.0686    0.5385   -2.7065 H   0  0  0  0  0  0  0  0  0  0  0  0
   -2.8866   -2.1086    1.4895 H   0  0  0  0  0  0  0  0  0  0  0  0
   -4.8771   -1.0595   -2.1878 H   0  0  0  0  0  0  0  0  0  0  0  0
    0.7692   -0.1742    0.0000 H   0  0  0  0  0  0  0  0  0  0  0  0
   -0.7564   -0.2235    0.0000 H   0  0  0  0  0  0  0  0  0  0  0  0
   -0.7634   -0.1988    0.0000 H   0  0  0  0  0  0  0  0  0  0  0  0
    0.7634   -0.1991    0.0000 H   0  0  0  0  0  0  0  0  0  0  0  0
  2 18  1  0
  3  9  2  0
  4 21  1  0
  5 21  2  0
  6  8  1  0
  7  8  2  0
  7  9  1  0
  7 12  1  0
  8 10  1  0
  9 11  1  0
 10 13  2  0
 10 15  1  0
 11 16  2  0
 11 17  1  0
 12 14  2  0
 13 14  1  0
 15 21  1  0
 16 19  1  0
 17 20  2  0
 18 19  2  0
 18 20  1  0
 22 38  1  0
 23 29  2  0
 24 41  1  0
 25 41  2  0
 26 28  1  0
 27 28  2  0
 27 29  1  0
 27 32  1  0
 28 30  1  0
 29 31  1  0
 30 33  2  0
 30 35  1  0
 31 36  2  0
 31 37  1  0
 32 34  2  0
 33 34  1  0
 35 41  1  0
 36 39  1  0
 37 40  2  0
 38 39  2  0
 38 40  1  0
  1 46  1  0
  1 47  1  0
  6 48  1  0
  6 49  1  0
 12 50  1  0
 13 51  1  0
 14 52  1  0
 15 53  1  0
 15 54  1  0
 16 55  1  0
 17 56  1  0
 19 57  1  0
 20 58  1  0
 26 59  1  0
 26 60  1  0
 32 61  1  0
 33 62  1  0
 34 63  1  0
 35 64  1  0
 35 65  1  0
 36 66  1  0
 37 67  1  0
 39 68  1  0
 40 69  1  0
 44 70  1  0
 44 71  1  0
 45 72  1  0
 45 73  1  0
M  CHG  4   4  -1  24  -1  42   1  43   1
M  END
$$$$
