
     RDKit          3D

 73 70  0  0  0  0  0  0  0  0999 V2000
    0.0005    0.3978    0.0000 O   0  0  0  0  0  0  0  0  0  0  0  0
    5.0928   -0.1935   -3.1397 Br  0  0  0  0  0  0  0  0  0  0  0  0
    1.5714    1.3345    2.5269 O   0  0  0  0  0  0  0  0  0  0  0  0
   -3.3955   -1.5491   -1.9555 O   0  0  0  0  0  0  0  0  0  0  0  0
   -2.6857    0.6062   -2.2466 O   0  0  0  0  0  0  0  0  0  0  0  0
   -1.0779    1.4929   -0.2182 N   0  0  0  0  0  0  0  0  0  0  0  0
   -0.1854    0.0980    1.6091 C   0  0  0  0  0  0  0  0  0  0  0  0
   -1.1963    0.4028    0.6723 C   0  0  0  0  0  0  0  0  0  0  0  0
    1.1624    0.7025    1.5529 C   0  0  0  0  0  0  0  0  0  0  0  0
   -2.4382   -0.2631    0.8000 C   0  0  0  0  0  0  0  0  0  0  0  0
    2.0608    0.4786    0.3808 C   0  0  0  0  0  0  0  0  0  0  0  0
   -0.3886   -0.8422    2.6303 C   0  0  0  0  0  0  0  0  0  0  0  0
   -2.6269   -1.2059    1.8271 C   0  0  0  0  0  0  0  0  0  0  0  0
   -1.6092   -1.4960    2.7353 C   0  0  0  0  0  0  0  0  0  0  0  0
   -3.5886   -0.0084   -0.1551 C   0  0  0  0  0  0  0  0  0  0  0  0
    3.2849    1.1649    0.3511 C   0  0  0  0  0  0  0  0  0  0  0  0
    1.7539   -0.4136   -0.6566 C   0  0  0  0  0  0  0  0  0  0  0  0
    3.8681    0.0810   -1.7239 C   0  0  0  0  0  0  0  0  0  0  0  0
    4.1879    0.9677   -0.6980 C   0  0  0  0  0  0  0  0  0  0  0  0
    2.6543   -0.6060   -1.7111 C   0  0  0  0  0  0  0  0  0  0  0  0
   -3.1900   -0.3577   -1.5929 C   0  0  0  0  0  0  0  0  0  0  0  0
    5.3940    0.4103    2.7837 Br  0  0  0  0  0  0  0  0  0  0  0  0
    1.4164    0.3819   -2.7729 O   0  0  0  0  0  0  0  0  0  0  0  0
   -3.2641   -0.5919    2.7844 O   0  0  0  0  0  0  0  0  0  0  0  0
   -2.3449    1.4603    2.3477 O   0  0  0  0  0  0  0  0  0  0  0  0
   -0.9343    1.6053    0.0328 N   0  0  0  0  0  0  0  0  0  0  0  0
   -0.3260   -0.3210   -1.3816 C   0  0  0  0  0  0  0  0  0  0  0  0
   -1.2109    0.3206   -0.4895 C   0  0  0  0  0  0  0  0  0  0  0  0
    1.0570    0.1475   -1.6198 C   0  0  0  0  0  0  0  0  0  0  0  0
   -2.4978   -0.2432   -0.3141 C   0  0  0  0  0  0  0  0  0  0  0  0
    2.0475    0.2417   -0.5065 C   0  0  0  0  0  0  0  0  0  0  0  0
   -0.6962   -1.4880   -2.0679 C   0  0  0  0  0  0  0  0  0  0  0  0
   -2.8521   -1.4153   -1.0082 C   0  0  0  0  0  0  0  0  0  0  0  0
   -1.9565   -2.0370   -1.8767 C   0  0  0  0  0  0  0  0  0  0  0  0
   -3.5241    0.3627    0.6254 C   0  0  0  0  0  0  0  0  0  0  0  0
    3.2835    0.8522   -0.7759 C   0  0  0  0  0  0  0  0  0  0  0  0
    1.8174   -0.3041    0.7651 C   0  0  0  0  0  0  0  0  0  0  0  0
    4.0354    0.3611    1.4648 C   0  0  0  0  0  0  0  0  0  0  0  0
    4.2757    0.9127    0.2073 C   0  0  0  0  0  0  0  0  0  0  0  0
    2.8090   -0.2383    1.7517 C   0  0  0  0  0  0  0  0  0  0  0  0
   -2.9950    0.4079    2.0614 C   0  0  0  0  0  0  0  0  0  0  0  0
    0.0000    0.0000    0.0000 Na  0  0  0  0  0 15  0  0  0  0  0  0
    0.0000    0.0000    0.0000 Na  0  0  0  0  0 15  0  0  0  0  0  0
   -0.0133    0.3977    0.0000 O   0  0  0  0  0  0  0  0  0  0  0  0
    0.0284    0.3971    0.0000 O   0  0  0  0  0  0  0  0  0  0  0  0
    0.7632   -0.2000    0.0000 H   0  0  0  0  0  0  0  0  0  0  0  0
   -0.7637   -0.1979    0.0000 H   0  0  0  0  0  0  0  0  0  0  0  0
   -0.1415    1.7089   -0.5294 H   0  0  0  0  0  0  0  0  0  0  0  0
   -1.6810    1.3736   -1.0581 H   0  0  0  0  0  0  0  0  0  0  0  0
    0.4103   -1.0626    3.3362 H   0  0  0  0  0  0  0  0  0  0  0  0
   -3.5787   -1.7243    1.9124 H   0  0  0  0  0  0  0  0  0  0  0  0
   -1.7763   -2.2285    3.5194 H   0  0  0  0  0  0  0  0  0  0  0  0
   -4.4681   -0.6043    0.1176 H   0  0  0  0  0  0  0  0  0  0  0  0
   -3.9002    1.0420   -0.0773 H   0  0  0  0  0  0  0  0  0  0  0  0
    3.5440    1.8552    1.1526 H   0  0  0  0  0  0  0  0  0  0  0  0
    0.8175   -0.9680   -0.6748 H   0  0  0  0  0  0  0  0  0  0  0  0
    5.1308    1.5064   -0.7022 H   0  0  0  0  0  0  0  0  0  0  0  0
    2.3888   -1.2921   -2.5120 H   0  0  0  0  0  0  0  0  0  0  0  0
   -1.4631    1.7826    0.9125 H   0  0  0  0  0  0  0  0  0  0  0  0
    0.0412    1.7997    0.2183 H   0  0  0  0  0  0  0  0  0  0  0  0
    0.0099   -1.9677   -2.7447 H   0  0  0  0  0  0  0  0  0  0  0  0
   -3.8379   -1.8500   -0.8607 H   0  0  0  0  0  0  0  0  0  0  0  0
   -2.2435   -2.9429   -2.4010 H   0  0  0  0  0  0  0  0  0  0  0  0
   -3.7853    1.3716    0.2839 H   0  0  0  0  0  0  0  0  0  0  0  0
   -4.4565   -0.2169    0.6130 H   0  0  0  0  0  0  0  0  0  0  0  0
    3.4816    1.2728   -1.7609 H   0  0  0  0  0  0  0  0  0  0  0  0
    0.8760   -0.7889    1.0174 H   0  0  0  0  0  0  0  0  0  0  0  0
    5.2301    1.3797   -0.0233 H   0  0  0  0  0  0  0  0  0  0  0  0
    2.6133   -0.6656    2.7341 H   0  0  0  0  0  0  0  0  0  0  0  0
   -0.7560   -0.2244    0.0000 H   0  0  0  0  0  0  0  0  0  0  0  0
    0.7692   -0.1733    0.0000 H   0  0  0  0  0  0  0  0  0  0  0  0
    0.7471   -0.2529    0.0000 H   0  0  0  0  0  0  0  0  0  0  0  0
   -0.7755   -0.1443    0.0000 H   0  0  0  0  0  0  0  0  0  0  0  0
  2 18  1  0
  3  9  2  0
  4 21  1  0
  5 21  2  0
  6  8  1  0
  7  8  2  0
  7  9  1  0
  7 12  1  0
  8 10  1  0
  9 11  1  0
 10 13  2  0
 10 15  1  0
 11 16  2  0
 11 17  1  0
 12 14  2  0
 13 14  1  0
 15 21  1  0
 16 19  1  0
 17 20  2  0
 18 19  2  0
 18 20  1  0
 22 38  1  0
 23 29  2  0
 24 41  1  0
 25 41  2  0
 26 28  1  0
 27 28  2  0
 27 29  1  0
 27 32  1  0
 28 30  1  0
 29 31  1  0
 30 33  2  0
 30 35  1  0
 31 36  2  0
 31 37  1  0
 32 34  2  0
 33 34  1  0
 35 41  1  0
 36 39  1  0
 37 40  2  0
 38 39  2  0
 38 40  1  0
  1 46  1  0
  1 47  1  0
  6 48  1  0
  6 49  1  0
 12 50  1  0
 13 51  1  0
 14 52  1  0
 15 53  1  0
 15 54  1  0
 16 55  1  0
 17 56  1  0
 19 57  1  0
 20 58  1  0
 26 59  1  0
 26 60  1  0
 32 61  1  0
 33 62  1  0
 34 63  1  0
 35 64  1  0
 35 65  1  0
 36 66  1  0
 37 67  1  0
 39 68  1  0
 40 69  1  0
 44 70  1  0
 44 71  1  0
 45 72  1  0
 45 73  1  0
M  CHG  4   4  -1  24  -1  42   1  43   1
M  END
$$$$
