
     RDKit          2D

 45 42  0  0  0  0  0  0  0  0999 V2000
    5.9796   -3.1114    0.0000 O   0  0  0  0  0  0  0  0  0  0  0  0
    0.0000   -2.4847    0.0000 Br  0  0  0  0  0  0  0  0  0  0  0  0
    2.8829    0.0000    0.0000 O   0  0  0  0  0  0  0  0  0  0  0  0
    6.4662   -2.0792    0.0000 O   0  0  0  0  0  0  0  0  0  0  0  0
    7.1961   -0.8258    0.0000 O   0  0  0  0  0  0  0  0  0  0  0  0
    4.3133    0.0000    0.0000 N   0  0  0  0  0  0  0  0  0  0  0  0
    3.5907   -1.2239    0.0000 C   0  0  0  0  0  0  0  0  0  0  0  0
    4.3133   -0.8258    0.0000 C   0  0  0  0  0  0  0  0  0  0  0  0
    2.8829   -0.8258    0.0000 C   0  0  0  0  0  0  0  0  0  0  0  0
    5.0285   -1.2239    0.0000 C   0  0  0  0  0  0  0  0  0  0  0  0
    2.1530   -1.2239    0.0000 C   0  0  0  0  0  0  0  0  0  0  0  0
    3.5907   -2.0792    0.0000 C   0  0  0  0  0  0  0  0  0  0  0  0
    5.0285   -2.0792    0.0000 C   0  0  0  0  0  0  0  0  0  0  0  0
    4.3133   -2.4847    0.0000 C   0  0  0  0  0  0  0  0  0  0  0  0
    5.7510   -0.8258    0.0000 C   0  0  0  0  0  0  0  0  0  0  0  0
    1.4378   -0.8258    0.0000 C   0  0  0  0  0  0  0  0  0  0  0  0
    2.1530   -2.0792    0.0000 C   0  0  0  0  0  0  0  0  0  0  0  0
    0.7373   -2.0792    0.0000 C   0  0  0  0  0  0  0  0  0  0  0  0
    0.7373   -1.2239    0.0000 C   0  0  0  0  0  0  0  0  0  0  0  0
    1.4378   -2.4847    0.0000 C   0  0  0  0  0  0  0  0  0  0  0  0
    6.4662   -1.2239    0.0000 C   0  0  0  0  0  0  0  0  0  0  0  0
    0.0368   -6.0828    0.0000 Br  0  0  0  0  0  0  0  0  0  0  0  0
    2.9197   -3.5981    0.0000 O   0  0  0  0  0  0  0  0  0  0  0  0
    6.5104   -5.6773    0.0000 O   0  0  0  0  0  0  0  0  0  0  0  0
    7.2330   -4.4239    0.0000 O   0  0  0  0  0  0  0  0  0  0  0  0
    4.3501   -3.5981    0.0000 N   0  0  0  0  0  0  0  0  0  0  0  0
    3.6276   -4.8220    0.0000 C   0  0  0  0  0  0  0  0  0  0  0  0
    4.3501   -4.4239    0.0000 C   0  0  0  0  0  0  0  0  0  0  0  0
    2.9197   -4.4239    0.0000 C   0  0  0  0  0  0  0  0  0  0  0  0
    5.0653   -4.8220    0.0000 C   0  0  0  0  0  0  0  0  0  0  0  0
    2.1972   -4.8220    0.0000 C   0  0  0  0  0  0  0  0  0  0  0  0
    3.6276   -5.6773    0.0000 C   0  0  0  0  0  0  0  0  0  0  0  0
    5.0653   -5.6773    0.0000 C   0  0  0  0  0  0  0  0  0  0  0  0
    4.3501   -6.0828    0.0000 C   0  0  0  0  0  0  0  0  0  0  0  0
    5.7952   -4.4239    0.0000 C   0  0  0  0  0  0  0  0  0  0  0  0
    1.4820   -4.4239    0.0000 C   0  0  0  0  0  0  0  0  0  0  0  0
    2.1972   -5.6773    0.0000 C   0  0  0  0  0  0  0  0  0  0  0  0
    0.7741   -5.6773    0.0000 C   0  0  0  0  0  0  0  0  0  0  0  0
    0.7741   -4.8220    0.0000 C   0  0  0  0  0  0  0  0  0  0  0  0
    1.4820   -6.0828    0.0000 C   0  0  0  0  0  0  0  0  0  0  0  0
    6.5104   -4.8220    0.0000 C   0  0  0  0  0  0  0  0  0  0  0  0
    7.3731   -1.7916    0.0000 Na  0  0  0  0  0 15  0  0  0  0  0  0
    7.3510   -5.2570    0.0000 Na  0  0  0  0  0 15  0  0  0  0  0  0
    0.7078   -3.1409    0.0000 O   0  0  0  0  0  0  0  0  0  0  0  0
    1.8580   -3.1409    0.0000 O   0  0  0  0  0  0  0  0  0  0  0  0
  2 18  1  0
  3  9  2  0
  4 21  1  0
  5 21  2  0
  6  8  1  0
  7  8  1  0
  7  9  1  0
  7 12  2  0
  8 10  2  0
  9 11  1  0
 10 13  1  0
 10 15  1  0
 11 16  2  0
 11 17  1  0
 12 14  1  0
 13 14  2  0
 15 21  1  0
 16 19  1  0
 17 20  2  0
 18 19  2  0
 18 20  1  0
 22 38  1  0
 23 29  2  0
 24 41  1  0
 25 41  2  0
 26 28  1  0
 27 28  1  0
 27 29  1  0
 27 32  2  0
 28 30  2  0
 29 31  1  0
 30 33  1  0
 30 35  1  0
 31 36  2  0
 31 37  1  0
 32 34  1  0
 33 34  2  0
 35 41  1  0
 36 39  1  0
 37 40  2  0
 38 39  2  0
 38 40  1  0
M  CHG  4   4  -1  24  -1  42   1  43   1
M  END
> <chembl_id>
CHEMBL3181947

> <chembl_pref_name>
BROMFENAC SODIUM
