
     RDKit          3D

 73 70  0  0  0  0  0  0  0  0999 V2000
   -0.0514    0.3941    0.0000 O   0  0  0  0  0  0  0  0  0  0  0  0
   -4.8958    3.4587   -1.2872 Br  0  0  0  0  0  0  0  0  0  0  0  0
   -1.5274   -1.0858    2.5640 O   0  0  0  0  0  0  0  0  0  0  0  0
    3.0568    2.0506   -0.8305 O   0  0  0  0  0  0  0  0  0  0  0  0
    3.4917    0.6729   -2.6093 O   0  0  0  0  0  0  0  0  0  0  0  0
    1.0561    1.0207    0.6733 N   0  0  0  0  0  0  0  0  0  0  0  0
    0.0612   -1.1966    0.8687 C   0  0  0  0  0  0  0  0  0  0  0  0
    1.1350   -0.3687    0.4781 C   0  0  0  0  0  0  0  0  0  0  0  0
   -1.1833   -0.6557    1.4592 C   0  0  0  0  0  0  0  0  0  0  0  0
    2.2932   -0.9755   -0.0583 C   0  0  0  0  0  0  0  0  0  0  0  0
   -2.0459    0.3380    0.7529 C   0  0  0  0  0  0  0  0  0  0  0  0
    0.1391   -2.5909    0.7590 C   0  0  0  0  0  0  0  0  0  0  0  0
    2.3393   -2.3782   -0.1826 C   0  0  0  0  0  0  0  0  0  0  0  0
    1.2733   -3.1812    0.2197 C   0  0  0  0  0  0  0  0  0  0  0  0
    3.5555   -0.2078   -0.4069 C   0  0  0  0  0  0  0  0  0  0  0  0
   -1.8310    0.7323   -0.5724 C   0  0  0  0  0  0  0  0  0  0  0  0
   -3.1412    0.8721    1.4528 C   0  0  0  0  0  0  0  0  0  0  0  0
   -3.7681    2.1818   -0.4733 C   0  0  0  0  0  0  0  0  0  0  0  0
   -2.6898    1.6566   -1.1847 C   0  0  0  0  0  0  0  0  0  0  0  0
   -4.0049    1.7878    0.8406 C   0  0  0  0  0  0  0  0  0  0  0  0
    3.3481    0.9431   -1.3819 C   0  0  0  0  0  0  0  0  0  0  0  0
    5.0635   -1.4676    2.9337 Br  0  0  0  0  0  0  0  0  0  0  0  0
    1.6880    1.3031   -2.3540 O   0  0  0  0  0  0  0  0  0  0  0  0
   -3.7364   -0.9757    2.2249 O   0  0  0  0  0  0  0  0  0  0  0  0
   -2.3339    0.8031    2.5507 O   0  0  0  0  0  0  0  0  0  0  0  0
   -0.7361    1.6204    0.5271 N   0  0  0  0  0  0  0  0  0  0  0  0
   -0.2180    0.2699   -1.4743 C   0  0  0  0  0  0  0  0  0  0  0  0
   -1.0999    0.6597   -0.4437 C   0  0  0  0  0  0  0  0  0  0  0  0
    1.2218    0.6093   -1.4471 C   0  0  0  0  0  0  0  0  0  0  0  0
   -2.4489    0.2428   -0.5374 C   0  0  0  0  0  0  0  0  0  0  0  0
    2.1127    0.0789   -0.3686 C   0  0  0  0  0  0  0  0  0  0  0  0
   -0.6527   -0.4981   -2.5652 C   0  0  0  0  0  0  0  0  0  0  0  0
   -2.8641   -0.5491   -1.6269 C   0  0  0  0  0  0  0  0  0  0  0  0
   -1.9779   -0.9083   -2.6395 C   0  0  0  0  0  0  0  0  0  0  0  0
   -3.4879    0.6371    0.4963 C   0  0  0  0  0  0  0  0  0  0  0  0
    1.6638   -0.7912    0.6347 C   0  0  0  0  0  0  0  0  0  0  0  0
    3.4604    0.4696   -0.3790 C   0  0  0  0  0  0  0  0  0  0  0  0
    3.8773   -0.8472    1.5998 C   0  0  0  0  0  0  0  0  0  0  0  0
    2.5441   -1.2480    1.6221 C   0  0  0  0  0  0  0  0  0  0  0  0
    4.3442    0.0042    0.6013 C   0  0  0  0  0  0  0  0  0  0  0  0
   -3.1517    0.0930    1.8893 C   0  0  0  0  0  0  0  0  0  0  0  0
    0.0000    0.0000    0.0000 Na  0  0  0  0  0 15  0  0  0  0  0  0
    0.0000    0.0000    0.0000 Na  0  0  0  0  0 15  0  0  0  0  0  0
   -0.0653    0.3918    0.0000 O   0  0  0  0  0  0  0  0  0  0  0  0
   -0.0717    0.3907    0.0000 O   0  0  0  0  0  0  0  0  0  0  0  0
   -0.7317   -0.2960    0.0000 H   0  0  0  0  0  0  0  0  0  0  0  0
    0.7831   -0.0981    0.0000 H   0  0  0  0  0  0  0  0  0  0  0  0
    0.9320    1.2931    1.6428 H   0  0  0  0  0  0  0  0  0  0  0  0
    1.8414    1.5601    0.2540 H   0  0  0  0  0  0  0  0  0  0  0  0
   -0.6830   -3.2104    1.1001 H   0  0  0  0  0  0  0  0  0  0  0  0
    3.2297   -2.8539   -0.5892 H   0  0  0  0  0  0  0  0  0  0  0  0
    1.3445   -4.2594    0.1301 H   0  0  0  0  0  0  0  0  0  0  0  0
    3.9908    0.1750    0.5291 H   0  0  0  0  0  0  0  0  0  0  0  0
    4.3132   -0.8793   -0.8404 H   0  0  0  0  0  0  0  0  0  0  0  0
   -0.9859    0.3555   -1.1500 H   0  0  0  0  0  0  0  0  0  0  0  0
   -3.3253    0.5716    2.4807 H   0  0  0  0  0  0  0  0  0  0  0  0
   -2.4834    1.9731   -2.2024 H   0  0  0  0  0  0  0  0  0  0  0  0
   -4.8358    2.2005    1.4043 H   0  0  0  0  0  0  0  0  0  0  0  0
    0.2431    1.6692    0.7723 H   0  0  0  0  0  0  0  0  0  0  0  0
   -1.2901    1.5121    1.4006 H   0  0  0  0  0  0  0  0  0  0  0  0
    0.0449   -0.7718   -3.3515 H   0  0  0  0  0  0  0  0  0  0  0  0
   -3.9001   -0.8753   -1.6900 H   0  0  0  0  0  0  0  0  0  0  0  0
   -2.3275   -1.4983   -3.4803 H   0  0  0  0  0  0  0  0  0  0  0  0
   -3.5560    1.7309    0.5298 H   0  0  0  0  0  0  0  0  0  0  0  0
   -4.4855    0.2833    0.2058 H   0  0  0  0  0  0  0  0  0  0  0  0
    0.6298   -1.1225    0.6896 H   0  0  0  0  0  0  0  0  0  0  0  0
    3.8258    1.1446   -1.1523 H   0  0  0  0  0  0  0  0  0  0  0  0
    2.1650   -1.8996    2.4049 H   0  0  0  0  0  0  0  0  0  0  0  0
    5.3819    0.3218    0.5788 H   0  0  0  0  0  0  0  0  0  0  0  0
    0.7859   -0.0702    0.0000 H   0  0  0  0  0  0  0  0  0  0  0  0
   -0.7206   -0.3216    0.0000 H   0  0  0  0  0  0  0  0  0  0  0  0
   -0.7157   -0.3337    0.0000 H   0  0  0  0  0  0  0  0  0  0  0  0
    0.7875   -0.0570    0.0000 H   0  0  0  0  0  0  0  0  0  0  0  0
  2 18  1  0
  3  9  2  0
  4 21  1  0
  5 21  2  0
  6  8  1  0
  7  8  2  0
  7  9  1  0
  7 12  1  0
  8 10  1  0
  9 11  1  0
 10 13  2  0
 10 15  1  0
 11 16  2  0
 11 17  1  0
 12 14  2  0
 13 14  1  0
 15 21  1  0
 16 19  1  0
 17 20  2  0
 18 19  2  0
 18 20  1  0
 22 38  1  0
 23 29  2  0
 24 41  1  0
 25 41  2  0
 26 28  1  0
 27 28  2  0
 27 29  1  0
 27 32  1  0
 28 30  1  0
 29 31  1  0
 30 33  2  0
 30 35  1  0
 31 36  2  0
 31 37  1  0
 32 34  2  0
 33 34  1  0
 35 41  1  0
 36 39  1  0
 37 40  2  0
 38 39  2  0
 38 40  1  0
  1 46  1  0
  1 47  1  0
  6 48  1  0
  6 49  1  0
 12 50  1  0
 13 51  1  0
 14 52  1  0
 15 53  1  0
 15 54  1  0
 16 55  1  0
 17 56  1  0
 19 57  1  0
 20 58  1  0
 26 59  1  0
 26 60  1  0
 32 61  1  0
 33 62  1  0
 34 63  1  0
 35 64  1  0
 35 65  1  0
 36 66  1  0
 37 67  1  0
 39 68  1  0
 40 69  1  0
 44 70  1  0
 44 71  1  0
 45 72  1  0
 45 73  1  0
M  CHG  4   4  -1  24  -1  42   1  43   1
M  END
$$$$
