
     RDKit          3D

 73 70  0  0  0  0  0  0  0  0999 V2000
   -0.0499    0.3946    0.0000 O   0  0  0  0  0  0  0  0  0  0  0  0
   -6.0729   -2.0079   -0.5403 Br  0  0  0  0  0  0  0  0  0  0  0  0
   -0.9188    1.7164    2.0393 O   0  0  0  0  0  0  0  0  0  0  0  0
    5.5705   -0.4914    0.6606 O   0  0  0  0  0  0  0  0  0  0  0  0
    3.8661   -0.8047    2.1664 O   0  0  0  0  0  0  0  0  0  0  0  0
    1.1547   -0.7840    1.6320 N   0  0  0  0  0  0  0  0  0  0  0  0
    0.2845    0.9995    0.1708 C   0  0  0  0  0  0  0  0  0  0  0  0
    1.2953    0.0855    0.5172 C   0  0  0  0  0  0  0  0  0  0  0  0
   -0.9416    1.0832    0.9850 C   0  0  0  0  0  0  0  0  0  0  0  0
    2.3834   -0.0783   -0.3692 C   0  0  0  0  0  0  0  0  0  0  0  0
   -2.1763    0.3564    0.5587 C   0  0  0  0  0  0  0  0  0  0  0  0
    0.4274    1.8678   -0.9173 C   0  0  0  0  0  0  0  0  0  0  0  0
    2.5281    0.8013   -1.4556 C   0  0  0  0  0  0  0  0  0  0  0  0
    1.5643    1.7802   -1.7213 C   0  0  0  0  0  0  0  0  0  0  0  0
    3.4466   -1.1389   -0.1439 C   0  0  0  0  0  0  0  0  0  0  0  0
   -2.3020   -0.2531   -0.6984 C   0  0  0  0  0  0  0  0  0  0  0  0
   -3.2404    0.2715    1.4713 C   0  0  0  0  0  0  0  0  0  0  0  0
   -4.5170   -1.0270   -0.1088 C   0  0  0  0  0  0  0  0  0  0  0  0
   -3.4766   -0.9342   -1.0340 C   0  0  0  0  0  0  0  0  0  0  0  0
   -4.4108   -0.4153    1.1424 C   0  0  0  0  0  0  0  0  0  0  0  0
    4.3855   -0.7720    1.0023 C   0  0  0  0  0  0  0  0  0  0  0  0
    5.0138    3.3751   -0.4760 Br  0  0  0  0  0  0  0  0  0  0  0  0
    1.2895   -1.5493    2.4946 O   0  0  0  0  0  0  0  0  0  0  0  0
   -2.3410    2.0918   -1.2867 O   0  0  0  0  0  0  0  0  0  0  0  0
   -3.5077    0.9403   -2.8828 O   0  0  0  0  0  0  0  0  0  0  0  0
   -1.2502    0.9686    0.9387 N   0  0  0  0  0  0  0  0  0  0  0  0
   -0.2262   -1.2784    0.7389 C   0  0  0  0  0  0  0  0  0  0  0  0
   -1.2365   -0.3472    0.4259 C   0  0  0  0  0  0  0  0  0  0  0  0
    1.0099   -0.9238    1.4673 C   0  0  0  0  0  0  0  0  0  0  0  0
   -2.3677   -0.8077   -0.2905 C   0  0  0  0  0  0  0  0  0  0  0  0
    1.9590    0.1094    0.9470 C   0  0  0  0  0  0  0  0  0  0  0  0
   -0.3133   -2.6165    0.3213 C   0  0  0  0  0  0  0  0  0  0  0  0
   -2.4291   -2.1450   -0.7232 C   0  0  0  0  0  0  0  0  0  0  0  0
   -1.4083   -3.0427   -0.4200 C   0  0  0  0  0  0  0  0  0  0  0  0
   -3.5126    0.1202   -0.6552 C   0  0  0  0  0  0  0  0  0  0  0  0
    3.0576    0.4577    1.7508 C   0  0  0  0  0  0  0  0  0  0  0  0
    1.8071    0.7267   -0.3010 C   0  0  0  0  0  0  0  0  0  0  0  0
    3.8003    2.0441    0.0878 C   0  0  0  0  0  0  0  0  0  0  0  0
    3.9713    1.4297    1.3255 C   0  0  0  0  0  0  0  0  0  0  0  0
    2.7269    1.6941   -0.7300 C   0  0  0  0  0  0  0  0  0  0  0  0
   -3.0783    1.1475   -1.7119 C   0  0  0  0  0  0  0  0  0  0  0  0
    0.0000    0.0000    0.0000 Na  0  0  0  0  0 15  0  0  0  0  0  0
    0.0000    0.0000    0.0000 Na  0  0  0  0  0 15  0  0  0  0  0  0
   -0.1100    0.3828    0.0000 O   0  0  0  0  0  0  0  0  0  0  0  0
   -0.1338    0.3733    0.0000 O   0  0  0  0  0  0  0  0  0  0  0  0
   -0.7329   -0.2936    0.0000 H   0  0  0  0  0  0  0  0  0  0  0  0
    0.7828   -0.1010    0.0000 H   0  0  0  0  0  0  0  0  0  0  0  0
    0.6580   -0.3144    2.3881 H   0  0  0  0  0  0  0  0  0  0  0  0
    2.1146   -0.9738    2.0021 H   0  0  0  0  0  0  0  0  0  0  0  0
   -0.3320    2.6143   -1.1212 H   0  0  0  0  0  0  0  0  0  0  0  0
    3.4191    0.7364   -2.0903 H   0  0  0  0  0  0  0  0  0  0  0  0
    1.7080    2.4565   -2.5547 H   0  0  0  0  0  0  0  0  0  0  0  0
    2.9779   -2.1048    0.0862 H   0  0  0  0  0  0  0  0  0  0  0  0
    4.0271   -1.3087   -1.0556 H   0  0  0  0  0  0  0  0  0  0  0  0
   -1.4969   -0.2054   -1.4274 H   0  0  0  0  0  0  0  0  0  0  0  0
   -3.1497    0.7394    2.4503 H   0  0  0  0  0  0  0  0  0  0  0  0
   -3.5602   -1.4128   -2.0102 H   0  0  0  0  0  0  0  0  0  0  0  0
   -5.2157   -0.4818    1.8707 H   0  0  0  0  0  0  0  0  0  0  0  0
   -0.3570    1.3506    1.2095 H   0  0  0  0  0  0  0  0  0  0  0  0
   -1.6549    1.6005    0.2151 H   0  0  0  0  0  0  0  0  0  0  0  0
    0.4885   -3.3205    0.5574 H   0  0  0  0  0  0  0  0  0  0  0  0
   -3.2827   -2.4885   -1.3103 H   0  0  0  0  0  0  0  0  0  0  0  0
   -1.4660   -4.0686   -0.7730 H   0  0  0  0  0  0  0  0  0  0  0  0
   -4.3753   -0.4503   -1.0208 H   0  0  0  0  0  0  0  0  0  0  0  0
   -3.8681    0.6419    0.2413 H   0  0  0  0  0  0  0  0  0  0  0  0
    3.1961   -0.0203    2.7172 H   0  0  0  0  0  0  0  0  0  0  0  0
    0.9712    0.4896   -0.9553 H   0  0  0  0  0  0  0  0  0  0  0  0
    4.8143    1.6886    1.9631 H   0  0  0  0  0  0  0  0  0  0  0  0
    2.5697    2.1823   -1.6875 H   0  0  0  0  0  0  0  0  0  0  0  0
    0.7892    0.0202    0.0000 H   0  0  0  0  0  0  0  0  0  0  0  0
   -0.6793   -0.4029    0.0000 H   0  0  0  0  0  0  0  0  0  0  0  0
   -0.6528   -0.4460    0.0000 H   0  0  0  0  0  0  0  0  0  0  0  0
    0.7866    0.0728    0.0000 H   0  0  0  0  0  0  0  0  0  0  0  0
  2 18  1  0
  3  9  2  0
  4 21  1  0
  5 21  2  0
  6  8  1  0
  7  8  2  0
  7  9  1  0
  7 12  1  0
  8 10  1  0
  9 11  1  0
 10 13  2  0
 10 15  1  0
 11 16  2  0
 11 17  1  0
 12 14  2  0
 13 14  1  0
 15 21  1  0
 16 19  1  0
 17 20  2  0
 18 19  2  0
 18 20  1  0
 22 38  1  0
 23 29  2  0
 24 41  1  0
 25 41  2  0
 26 28  1  0
 27 28  2  0
 27 29  1  0
 27 32  1  0
 28 30  1  0
 29 31  1  0
 30 33  2  0
 30 35  1  0
 31 36  2  0
 31 37  1  0
 32 34  2  0
 33 34  1  0
 35 41  1  0
 36 39  1  0
 37 40  2  0
 38 39  2  0
 38 40  1  0
  1 46  1  0
  1 47  1  0
  6 48  1  0
  6 49  1  0
 12 50  1  0
 13 51  1  0
 14 52  1  0
 15 53  1  0
 15 54  1  0
 16 55  1  0
 17 56  1  0
 19 57  1  0
 20 58  1  0
 26 59  1  0
 26 60  1  0
 32 61  1  0
 33 62  1  0
 34 63  1  0
 35 64  1  0
 35 65  1  0
 36 66  1  0
 37 67  1  0
 39 68  1  0
 40 69  1  0
 44 70  1  0
 44 71  1  0
 45 72  1  0
 45 73  1  0
M  CHG  4   4  -1  24  -1  42   1  43   1
M  END
$$$$
