
     RDKit          3D

 73 70  0  0  0  0  0  0  0  0999 V2000
   -0.0771    0.3913    0.0000 O   0  0  0  0  0  0  0  0  0  0  0  0
    4.8092   -1.3641    3.4995 Br  0  0  0  0  0  0  0  0  0  0  0  0
    1.8289    1.6967   -1.8545 O   0  0  0  0  0  0  0  0  0  0  0  0
   -4.1827   -1.7005    1.9236 O   0  0  0  0  0  0  0  0  0  0  0  0
   -2.1959   -0.6880    2.4412 O   0  0  0  0  0  0  0  0  0  0  0  0
   -0.7976    1.1645    1.0818 N   0  0  0  0  0  0  0  0  0  0  0  0
   -0.1300    0.5536   -1.2247 C   0  0  0  0  0  0  0  0  0  0  0  0
   -1.0662    0.5567   -0.1690 C   0  0  0  0  0  0  0  0  0  0  0  0
    1.2985    0.9322   -1.0492 C   0  0  0  0  0  0  0  0  0  0  0  0
   -2.3901    0.1250   -0.4397 C   0  0  0  0  0  0  0  0  0  0  0  0
    2.1154    0.3517    0.0529 C   0  0  0  0  0  0  0  0  0  0  0  0
   -0.4917    0.1135   -2.5061 C   0  0  0  0  0  0  0  0  0  0  0  0
   -2.7203   -0.3521   -1.7237 C   0  0  0  0  0  0  0  0  0  0  0  0
   -1.7841   -0.3392   -2.7532 C   0  0  0  0  0  0  0  0  0  0  0  0
   -3.4709    0.1520    0.6243 C   0  0  0  0  0  0  0  0  0  0  0  0
    3.2643    1.0386    0.4624 C   0  0  0  0  0  0  0  0  0  0  0  0
    1.7842   -0.8633    0.6710 C   0  0  0  0  0  0  0  0  0  0  0  0
    3.7107   -0.6667    2.1153 C   0  0  0  0  0  0  0  0  0  0  0  0
    4.0585    0.5347    1.4984 C   0  0  0  0  0  0  0  0  0  0  0  0
    2.5774   -1.3669    1.7070 C   0  0  0  0  0  0  0  0  0  0  0  0
   -3.2540   -0.8544    1.7580 C   0  0  0  0  0  0  0  0  0  0  0  0
   -5.5243   -2.1789    1.5662 Br  0  0  0  0  0  0  0  0  0  0  0  0
   -1.0388    0.1620   -3.0843 O   0  0  0  0  0  0  0  0  0  0  0  0
    4.8643    0.0459    2.5104 O   0  0  0  0  0  0  0  0  0  0  0  0
    2.6131    0.3007    2.8066 O   0  0  0  0  0  0  0  0  0  0  0  0
    1.2221   -1.4506   -0.8955 N   0  0  0  0  0  0  0  0  0  0  0  0
    0.2613    0.7706   -1.2491 C   0  0  0  0  0  0  0  0  0  0  0  0
    1.3181   -0.0508   -0.7913 C   0  0  0  0  0  0  0  0  0  0  0  0
   -0.9432    0.1805   -1.8586 C   0  0  0  0  0  0  0  0  0  0  0  0
    2.3433    0.5627   -0.0429 C   0  0  0  0  0  0  0  0  0  0  0  0
   -2.0295   -0.3768   -0.9948 C   0  0  0  0  0  0  0  0  0  0  0  0
    0.2805    2.1672   -1.1141 C   0  0  0  0  0  0  0  0  0  0  0  0
    2.3645    1.9708    0.0685 C   0  0  0  0  0  0  0  0  0  0  0  0
    1.3446    2.7685   -0.4588 C   0  0  0  0  0  0  0  0  0  0  0  0
    3.4645   -0.2049    0.6312 C   0  0  0  0  0  0  0  0  0  0  0  0
   -1.9465   -0.3924    0.4060 C   0  0  0  0  0  0  0  0  0  0  0  0
   -3.1700   -0.9065   -1.6211 C   0  0  0  0  0  0  0  0  0  0  0  0
   -4.1167   -1.4570    0.5300 C   0  0  0  0  0  0  0  0  0  0  0  0
   -2.9897   -0.9353    1.1655 C   0  0  0  0  0  0  0  0  0  0  0  0
   -4.2113   -1.4444   -0.8609 C   0  0  0  0  0  0  0  0  0  0  0  0
    3.6536    0.0788    2.1248 C   0  0  0  0  0  0  0  0  0  0  0  0
    0.0000    0.0000    0.0000 Na  0  0  0  0  0 15  0  0  0  0  0  0
    0.0000    0.0000    0.0000 Na  0  0  0  0  0 15  0  0  0  0  0  0
   -0.1788    0.3572    0.0000 O   0  0  0  0  0  0  0  0  0  0  0  0
   -0.0810    0.3891    0.0000 O   0  0  0  0  0  0  0  0  0  0  0  0
   -0.7090   -0.3437    0.0000 H   0  0  0  0  0  0  0  0  0  0  0  0
    0.7862   -0.0476    0.0000 H   0  0  0  0  0  0  0  0  0  0  0  0
    0.1735    1.1817    1.3572 H   0  0  0  0  0  0  0  0  0  0  0  0
   -1.3159    0.6376    1.8217 H   0  0  0  0  0  0  0  0  0  0  0  0
    0.2511    0.1077   -3.3040 H   0  0  0  0  0  0  0  0  0  0  0  0
   -3.7247   -0.7200   -1.9261 H   0  0  0  0  0  0  0  0  0  0  0  0
   -2.0610   -0.6948   -3.7442 H   0  0  0  0  0  0  0  0  0  0  0  0
   -4.4536   -0.0124    0.1751 H   0  0  0  0  0  0  0  0  0  0  0  0
   -3.5204    1.1528    1.0684 H   0  0  0  0  0  0  0  0  0  0  0  0
    3.5424    1.9749   -0.0197 H   0  0  0  0  0  0  0  0  0  0  0  0
    0.9067   -1.4317    0.3722 H   0  0  0  0  0  0  0  0  0  0  0  0
    4.9414    1.0827    1.8138 H   0  0  0  0  0  0  0  0  0  0  0  0
    2.2969   -2.3030    2.1844 H   0  0  0  0  0  0  0  0  0  0  0  0
    2.1093   -1.9277   -0.7973 H   0  0  0  0  0  0  0  0  0  0  0  0
    0.6996   -1.7834   -1.7023 H   0  0  0  0  0  0  0  0  0  0  0  0
   -0.5467    2.7716   -1.4870 H   0  0  0  0  0  0  0  0  0  0  0  0
    3.1672    2.4516    0.6284 H   0  0  0  0  0  0  0  0  0  0  0  0
    1.3771    3.8436   -0.3222 H   0  0  0  0  0  0  0  0  0  0  0  0
    4.3923    0.0335    0.0899 H   0  0  0  0  0  0  0  0  0  0  0  0
    3.3374   -1.2924    0.5527 H   0  0  0  0  0  0  0  0  0  0  0  0
   -1.0723   -0.0022    0.9289 H   0  0  0  0  0  0  0  0  0  0  0  0
   -3.2404   -0.9048   -2.7091 H   0  0  0  0  0  0  0  0  0  0  0  0
   -2.8991   -0.9493    2.2475 H   0  0  0  0  0  0  0  0  0  0  0  0
   -5.0845   -1.8509   -1.3662 H   0  0  0  0  0  0  0  0  0  0  0  0
   -0.5928   -0.5205    0.0000 H   0  0  0  0  0  0  0  0  0  0  0  0
    0.7715    0.1633    0.0000 H   0  0  0  0  0  0  0  0  0  0  0  0
   -0.7065   -0.3501    0.0000 H   0  0  0  0  0  0  0  0  0  0  0  0
    0.7876   -0.0389    0.0000 H   0  0  0  0  0  0  0  0  0  0  0  0
  2 18  1  0
  3  9  2  0
  4 21  1  0
  5 21  2  0
  6  8  1  0
  7  8  2  0
  7  9  1  0
  7 12  1  0
  8 10  1  0
  9 11  1  0
 10 13  2  0
 10 15  1  0
 11 16  2  0
 11 17  1  0
 12 14  2  0
 13 14  1  0
 15 21  1  0
 16 19  1  0
 17 20  2  0
 18 19  2  0
 18 20  1  0
 22 38  1  0
 23 29  2  0
 24 41  1  0
 25 41  2  0
 26 28  1  0
 27 28  2  0
 27 29  1  0
 27 32  1  0
 28 30  1  0
 29 31  1  0
 30 33  2  0
 30 35  1  0
 31 36  2  0
 31 37  1  0
 32 34  2  0
 33 34  1  0
 35 41  1  0
 36 39  1  0
 37 40  2  0
 38 39  2  0
 38 40  1  0
  1 46  1  0
  1 47  1  0
  6 48  1  0
  6 49  1  0
 12 50  1  0
 13 51  1  0
 14 52  1  0
 15 53  1  0
 15 54  1  0
 16 55  1  0
 17 56  1  0
 19 57  1  0
 20 58  1  0
 26 59  1  0
 26 60  1  0
 32 61  1  0
 33 62  1  0
 34 63  1  0
 35 64  1  0
 35 65  1  0
 36 66  1  0
 37 67  1  0
 39 68  1  0
 40 69  1  0
 44 70  1  0
 44 71  1  0
 45 72  1  0
 45 73  1  0
M  CHG  4   4  -1  24  -1  42   1  43   1
M  END
$$$$
