
     RDKit          3D

 54 55  0  0  0  0  0  0  0  0999 V2000
   45.9274    5.0058   13.1135 N   0  0  0  0  0  0  0  0  0  0  0  0
   44.8966    4.3993   12.4381 C   0  0  0  0  0  0  0  0  0  0  0  0
   45.0404    7.1089   12.3787 N   0  0  0  0  0  0  0  0  0  0  0  0
   46.0258    6.3994   13.1001 C   0  0  0  0  0  0  0  0  0  0  0  0
   43.9696    5.1225   11.7568 C   0  0  0  0  0  0  0  0  0  0  0  0
   43.9755    6.5372   11.6783 C   0  0  0  0  0  0  0  0  0  0  0  0
   44.6555    3.0618   12.3501 N   0  0  0  0  0  0  0  0  0  0  0  0
   43.1141    4.2057   11.2206 N   0  0  0  0  0  0  0  0  0  0  0  0
   43.5700    2.9715   11.6069 C   0  0  0  0  0  0  0  0  0  0  0  0
   46.9316    6.9955   13.6905 O   0  0  0  0  0  0  0  0  0  0  0  0
   43.1234    7.1613   11.0548 O   0  0  0  0  0  0  0  0  0  0  0  0
   46.8998    4.2022   13.8311 C   0  0  0  0  0  0  0  0  0  0  0  0
   45.1613    8.5535   12.3777 C   0  0  0  0  0  0  0  0  0  0  0  0
   44.2158    4.6542   12.2996 N   0  0  0  0  0  0  0  0  0  0  0  0
   45.4384    4.5594   12.9183 C   0  0  0  0  0  0  0  0  0  0  0  0
   44.6892    6.9771   11.9388 N   0  0  0  0  0  0  0  0  0  0  0  0
   43.8045    5.8866   11.7861 C   0  0  0  0  0  0  0  0  0  0  0  0
   46.2581    5.6359   13.0429 C   0  0  0  0  0  0  0  0  0  0  0  0
   45.9399    6.9291   12.5592 C   0  0  0  0  0  0  0  0  0  0  0  0
   45.9882    3.4420   13.4699 N   0  0  0  0  0  0  0  0  0  0  0  0
   47.3639    5.1786   13.6970 N   0  0  0  0  0  0  0  0  0  0  0  0
   47.1547    3.8444   13.9347 C   0  0  0  0  0  0  0  0  0  0  0  0
   42.7160    6.0276   11.2209 O   0  0  0  0  0  0  0  0  0  0  0  0
   46.7021    7.8815   12.6873 O   0  0  0  0  0  0  0  0  0  0  0  0
   43.3659    3.4834   12.1842 C   0  0  0  0  0  0  0  0  0  0  0  0
   44.2429    8.2461   11.3988 C   0  0  0  0  0  0  0  0  0  0  0  0
   43.9815    6.4588   11.9493 N   0  0  0  0  0  0  0  0  0  0  0  0
   44.7983    4.0193   13.1365 N   0  0  0  0  0  0  0  0  0  0  0  0
   45.7517    5.1339   13.0896 C   0  0  0  0  0  0  0  0  0  0  0  0
   45.4107    6.1218   11.9573 C   0  0  0  0  0  0  0  0  0  0  0  0
   42.3026    4.4052   10.6495 H   0  0  0  0  0  0  0  0  0  0  0  0
   43.0732    2.0542   11.3180 H   0  0  0  0  0  0  0  0  0  0  0  0
   47.6591    4.8196   14.3181 H   0  0  0  0  0  0  0  0  0  0  0  0
   46.3828    3.6153   14.5969 H   0  0  0  0  0  0  0  0  0  0  0  0
   47.3967    3.5285   13.1259 H   0  0  0  0  0  0  0  0  0  0  0  0
   45.1213    8.9144   13.4107 H   0  0  0  0  0  0  0  0  0  0  0  0
   46.1320    8.8290   11.9527 H   0  0  0  0  0  0  0  0  0  0  0  0
   44.3707    9.0403   11.8012 H   0  0  0  0  0  0  0  0  0  0  0  0
   48.1770    5.7239   13.9537 H   0  0  0  0  0  0  0  0  0  0  0  0
   47.8817    3.2262   14.4455 H   0  0  0  0  0  0  0  0  0  0  0  0
   43.1342    3.1099   13.1866 H   0  0  0  0  0  0  0  0  0  0  0  0
   42.4279    3.7097   11.6705 H   0  0  0  0  0  0  0  0  0  0  0  0
   43.8967    2.7111   11.6185 H   0  0  0  0  0  0  0  0  0  0  0  0
   43.3012    8.5269   11.8820 H   0  0  0  0  0  0  0  0  0  0  0  0
   44.9717    9.0461   11.5505 H   0  0  0  0  0  0  0  0  0  0  0  0
   44.0597    8.1311   10.3254 H   0  0  0  0  0  0  0  0  0  0  0  0
   43.7393    6.8979   12.8380 H   0  0  0  0  0  0  0  0  0  0  0  0
   43.8097    7.1614   11.2307 H   0  0  0  0  0  0  0  0  0  0  0  0
   44.9035    3.4731   12.2812 H   0  0  0  0  0  0  0  0  0  0  0  0
   43.8691    4.4418   13.0249 H   0  0  0  0  0  0  0  0  0  0  0  0
   45.7140    5.6559   14.0523 H   0  0  0  0  0  0  0  0  0  0  0  0
   46.7685    4.7486   12.9625 H   0  0  0  0  0  0  0  0  0  0  0  0
   46.0070    7.0333   12.0699 H   0  0  0  0  0  0  0  0  0  0  0  0
   45.6639    5.6722   10.9908 H   0  0  0  0  0  0  0  0  0  0  0  0
  2  1  1  0
  3  4  1  0
  4  1  1  0
  5  2  2  0
  6  3  1  0
  7  2  1  0
  8  5  1  0
  9  7  2  0
 10  4  2  0
 11  6  2  0
 12  1  1  0
 13  3  1  0
  5  6  1  0
  8  9  1  0
 15 14  1  0
 16 17  1  0
 17 14  1  0
 18 15  2  0
 19 16  1  0
 20 15  1  0
 21 18  1  0
 22 20  2  0
 23 17  2  0
 24 19  2  0
 25 14  1  0
 26 16  1  0
 18 19  1  0
 21 22  1  0
 28 29  1  0
 29 30  1  0
 30 27  1  0
  8 31  1  0
  9 32  1  0
 12 33  1  0
 12 34  1  0
 12 35  1  0
 13 36  1  0
 13 37  1  0
 13 38  1  0
 21 39  1  0
 22 40  1  0
 25 41  1  0
 25 42  1  0
 25 43  1  0
 26 44  1  0
 26 45  1  0
 26 46  1  0
 27 47  1  0
 27 48  1  0
 28 49  1  0
 28 50  1  0
 29 51  1  0
 29 52  1  0
 30 53  1  0
 30 54  1  0
M  END
> <Uni-Dock RESULT> 
ENERGY=   -7.057  LOWER_BOUND=    0.000  UPPER_BOUND=    0.000
INTER + INTRA:          -7.057
INTER:                  -7.057
INTRA:                   0.000
UNBOUND:                 0.000

$$$$

     RDKit          3D

 54 55  0  0  0  0  0  0  0  0999 V2000
   44.3531    4.4697   12.0919 N   0  0  0  0  0  0  0  0  0  0  0  0
   45.4064    4.5160   12.9722 C   0  0  0  0  0  0  0  0  0  0  0  0
   44.5814    6.8441   11.8470 N   0  0  0  0  0  0  0  0  0  0  0  0
   43.9076    5.6529   11.4977 C   0  0  0  0  0  0  0  0  0  0  0  0
   46.0260    5.6858   13.2792 C   0  0  0  0  0  0  0  0  0  0  0  0
   45.6554    6.9406   12.7351 C   0  0  0  0  0  0  0  0  0  0  0  0
   45.9616    3.4637   13.6348 N   0  0  0  0  0  0  0  0  0  0  0  0
   47.0070    5.3567   14.1675 N   0  0  0  0  0  0  0  0  0  0  0  0
   46.9292    4.0001   14.3522 C   0  0  0  0  0  0  0  0  0  0  0  0
   42.9658    5.6681   10.6994 O   0  0  0  0  0  0  0  0  0  0  0  0
   46.2355    7.9795   13.0324 O   0  0  0  0  0  0  0  0  0  0  0  0
   43.7149    3.2025   11.7869 C   0  0  0  0  0  0  0  0  0  0  0  0
   44.1031    8.0600   11.2192 C   0  0  0  0  0  0  0  0  0  0  0  0
   45.9776    4.9861   12.9918 N   0  0  0  0  0  0  0  0  0  0  0  0
   44.9088    4.3024   12.4658 C   0  0  0  0  0  0  0  0  0  0  0  0
   44.8944    7.0116   12.3034 N   0  0  0  0  0  0  0  0  0  0  0  0
   45.9966    6.3812   12.9221 C   0  0  0  0  0  0  0  0  0  0  0  0
   43.8687    4.9507   11.8790 C   0  0  0  0  0  0  0  0  0  0  0  0
   43.7870    6.3598   11.7553 C   0  0  0  0  0  0  0  0  0  0  0  0
   44.7332    2.9520   12.4501 N   0  0  0  0  0  0  0  0  0  0  0  0
   43.0074    3.9717   11.4796 N   0  0  0  0  0  0  0  0  0  0  0  0
   43.5735    2.7780   11.8470 C   0  0  0  0  0  0  0  0  0  0  0  0
   46.9322    7.0449   13.3788 O   0  0  0  0  0  0  0  0  0  0  0  0
   42.8336    6.9154   11.2198 O   0  0  0  0  0  0  0  0  0  0  0  0
   47.0716    4.2611   13.6115 C   0  0  0  0  0  0  0  0  0  0  0  0
   44.9343    8.4592   12.2419 C   0  0  0  0  0  0  0  0  0  0  0  0
   45.7046    6.7586   12.5250 N   0  0  0  0  0  0  0  0  0  0  0  0
   45.6866    3.9254   12.5093 N   0  0  0  0  0  0  0  0  0  0  0  0
   44.4865    4.6400   12.0593 C   0  0  0  0  0  0  0  0  0  0  0  0
   44.4190    6.0605   12.6525 C   0  0  0  0  0  0  0  0  0  0  0  0
   47.6614    5.9952   14.6019 H   0  0  0  0  0  0  0  0  0  0  0  0
   47.5983    3.4667   15.0151 H   0  0  0  0  0  0  0  0  0  0  0  0
   42.8948    3.3202   11.0738 H   0  0  0  0  0  0  0  0  0  0  0  0
   44.4574    2.5229   11.3566 H   0  0  0  0  0  0  0  0  0  0  0  0
   43.3156    2.7720   12.7107 H   0  0  0  0  0  0  0  0  0  0  0  0
   44.1850    7.9549   10.1324 H   0  0  0  0  0  0  0  0  0  0  0  0
   43.0477    8.2006   11.4743 H   0  0  0  0  0  0  0  0  0  0  0  0
   44.6647    8.9433   11.5334 H   0  0  0  0  0  0  0  0  0  0  0  0
   42.1239    4.1075   11.0048 H   0  0  0  0  0  0  0  0  0  0  0  0
   43.0974    1.8262   11.6497 H   0  0  0  0  0  0  0  0  0  0  0  0
   47.5176    3.5875   12.8730 H   0  0  0  0  0  0  0  0  0  0  0  0
   47.8480    4.9346   13.9835 H   0  0  0  0  0  0  0  0  0  0  0  0
   46.6827    3.6778   14.4522 H   0  0  0  0  0  0  0  0  0  0  0  0
   45.8299    8.7675   11.6925 H   0  0  0  0  0  0  0  0  0  0  0  0
   44.0542    8.8828   11.7517 H   0  0  0  0  0  0  0  0  0  0  0  0
   44.9996    8.8567   13.2601 H   0  0  0  0  0  0  0  0  0  0  0  0
   45.9421    6.8381   11.5358 H   0  0  0  0  0  0  0  0  0  0  0  0
   45.6000    7.7129   12.8683 H   0  0  0  0  0  0  0  0  0  0  0  0
   45.6117    3.7780   13.5160 H   0  0  0  0  0  0  0  0  0  0  0  0
   46.4576    4.5994   12.4337 H   0  0  0  0  0  0  0  0  0  0  0  0
   44.5167    4.7028   10.9658 H   0  0  0  0  0  0  0  0  0  0  0  0
   43.5912    4.0724   12.3329 H   0  0  0  0  0  0  0  0  0  0  0  0
   43.6330    6.6340   12.1501 H   0  0  0  0  0  0  0  0  0  0  0  0
   44.1634    6.0010   13.7162 H   0  0  0  0  0  0  0  0  0  0  0  0
  2  1  1  0
  3  4  1  0
  4  1  1  0
  5  2  2  0
  6  3  1  0
  7  2  1  0
  8  5  1  0
  9  7  2  0
 10  4  2  0
 11  6  2  0
 12  1  1  0
 13  3  1  0
  5  6  1  0
  8  9  1  0
 15 14  1  0
 16 17  1  0
 17 14  1  0
 18 15  2  0
 19 16  1  0
 20 15  1  0
 21 18  1  0
 22 20  2  0
 23 17  2  0
 24 19  2  0
 25 14  1  0
 26 16  1  0
 18 19  1  0
 21 22  1  0
 28 29  1  0
 29 30  1  0
 30 27  1  0
  8 31  1  0
  9 32  1  0
 12 33  1  0
 12 34  1  0
 12 35  1  0
 13 36  1  0
 13 37  1  0
 13 38  1  0
 21 39  1  0
 22 40  1  0
 25 41  1  0
 25 42  1  0
 25 43  1  0
 26 44  1  0
 26 45  1  0
 26 46  1  0
 27 47  1  0
 27 48  1  0
 28 49  1  0
 28 50  1  0
 29 51  1  0
 29 52  1  0
 30 53  1  0
 30 54  1  0
M  END
> <Uni-Dock RESULT> 
ENERGY=   -6.909  LOWER_BOUND=    0.476  UPPER_BOUND=    2.996
INTER + INTRA:          -6.909
INTER:                  -6.909
INTRA:                   0.000
UNBOUND:                 0.000

$$$$

     RDKit          3D

 54 55  0  0  0  0  0  0  0  0999 V2000
   45.0559    7.1582   12.1988 N   0  0  0  0  0  0  0  0  0  0  0  0
   46.1979    6.6305   12.7499 C   0  0  0  0  0  0  0  0  0  0  0  0
   44.2166    4.9178   12.0377 N   0  0  0  0  0  0  0  0  0  0  0  0
   44.0196    6.2999   11.8231 C   0  0  0  0  0  0  0  0  0  0  0  0
   46.3442    5.2928   12.9387 C   0  0  0  0  0  0  0  0  0  0  0  0
   45.3580    4.3355   12.5940 C   0  0  0  0  0  0  0  0  0  0  0  0
   47.2950    7.3206   13.1682 N   0  0  0  0  0  0  0  0  0  0  0  0
   47.5789    5.1361   13.4962 N   0  0  0  0  0  0  0  0  0  0  0  0
   48.1169    6.3917   13.6160 C   0  0  0  0  0  0  0  0  0  0  0  0
   42.9718    6.7209   11.3238 O   0  0  0  0  0  0  0  0  0  0  0  0
   45.5205    3.1338   12.7776 O   0  0  0  0  0  0  0  0  0  0  0  0
   44.9335    8.5922   12.0119 C   0  0  0  0  0  0  0  0  0  0  0  0
   43.1293    4.0452   11.6407 C   0  0  0  0  0  0  0  0  0  0  0  0
   46.2798    6.0164   13.1548 N   0  0  0  0  0  0  0  0  0  0  0  0
   45.6350    7.0764   12.5655 C   0  0  0  0  0  0  0  0  0  0  0  0
   44.6829    4.5799   12.0889 N   0  0  0  0  0  0  0  0  0  0  0  0
   45.8113    4.7202   12.9268 C   0  0  0  0  0  0  0  0  0  0  0  0
   44.5518    6.8945   11.7656 C   0  0  0  0  0  0  0  0  0  0  0  0
   43.9952    5.6258   11.4686 C   0  0  0  0  0  0  0  0  0  0  0  0
   45.9587    8.3941   12.6821 N   0  0  0  0  0  0  0  0  0  0  0  0
   44.1807    8.1440   11.3645 N   0  0  0  0  0  0  0  0  0  0  0  0
   45.0621    9.0196   11.9448 C   0  0  0  0  0  0  0  0  0  0  0  0
   46.3531    3.7322   13.4314 O   0  0  0  0  0  0  0  0  0  0  0  0
   43.0159    5.4947   10.7420 O   0  0  0  0  0  0  0  0  0  0  0  0
   47.4342    6.2476   14.0035 C   0  0  0  0  0  0  0  0  0  0  0  0
   44.2135    3.2268   11.8657 C   0  0  0  0  0  0  0  0  0  0  0  0
   45.2434    4.5313   12.7620 N   0  0  0  0  0  0  0  0  0  0  0  0
   46.0630    7.1876   13.3095 N   0  0  0  0  0  0  0  0  0  0  0  0
   45.0241    6.9654   12.2972 C   0  0  0  0  0  0  0  0  0  0  0  0
   45.1044    5.5440   11.7078 C   0  0  0  0  0  0  0  0  0  0  0  0
   48.0080    4.2600   13.7664 H   0  0  0  0  0  0  0  0  0  0  0  0
   49.1011    6.5627   14.0329 H   0  0  0  0  0  0  0  0  0  0  0  0
   43.9742    8.8646   11.5643 H   0  0  0  0  0  0  0  0  0  0  0  0
   45.0188    9.0877   12.9842 H   0  0  0  0  0  0  0  0  0  0  0  0
   45.7369    8.9365   11.3530 H   0  0  0  0  0  0  0  0  0  0  0  0
   42.2269    4.3278   12.1928 H   0  0  0  0  0  0  0  0  0  0  0  0
   42.9367    4.1806   10.5714 H   0  0  0  0  0  0  0  0  0  0  0  0
   43.3461    2.9912   11.8313 H   0  0  0  0  0  0  0  0  0  0  0  0
   43.4044    8.3728   10.7566 H   0  0  0  0  0  0  0  0  0  0  0  0
   44.9995   10.0896   11.7939 H   0  0  0  0  0  0  0  0  0  0  0  0
   47.1389    6.8855   14.8424 H   0  0  0  0  0  0  0  0  0  0  0  0
   47.8413    5.3142   14.4011 H   0  0  0  0  0  0  0  0  0  0  0  0
   48.2130    6.7475   13.4189 H   0  0  0  0  0  0  0  0  0  0  0  0
   43.9552    2.7762   12.8297 H   0  0  0  0  0  0  0  0  0  0  0  0
   43.3395    3.1885   11.2108 H   0  0  0  0  0  0  0  0  0  0  0  0
   45.0209    2.6400   11.4154 H   0  0  0  0  0  0  0  0  0  0  0  0
   44.4284    4.5759   13.3744 H   0  0  0  0  0  0  0  0  0  0  0  0
   45.2273    3.6046   12.3369 H   0  0  0  0  0  0  0  0  0  0  0  0
   46.9717    7.1544   12.8470 H   0  0  0  0  0  0  0  0  0  0  0  0
   46.0715    6.3415   13.8912 H   0  0  0  0  0  0  0  0  0  0  0  0
   44.0476    7.1078   12.7734 H   0  0  0  0  0  0  0  0  0  0  0  0
   45.1151    7.7112   11.5009 H   0  0  0  0  0  0  0  0  0  0  0  0
   44.2088    5.3397   11.1118 H   0  0  0  0  0  0  0  0  0  0  0  0
   45.9730    5.4716   11.0440 H   0  0  0  0  0  0  0  0  0  0  0  0
  2  1  1  0
  3  4  1  0
  4  1  1  0
  5  2  2  0
  6  3  1  0
  7  2  1  0
  8  5  1  0
  9  7  2  0
 10  4  2  0
 11  6  2  0
 12  1  1  0
 13  3  1  0
  5  6  1  0
  8  9  1  0
 15 14  1  0
 16 17  1  0
 17 14  1  0
 18 15  2  0
 19 16  1  0
 20 15  1  0
 21 18  1  0
 22 20  2  0
 23 17  2  0
 24 19  2  0
 25 14  1  0
 26 16  1  0
 18 19  1  0
 21 22  1  0
 28 29  1  0
 29 30  1  0
 30 27  1  0
  8 31  1  0
  9 32  1  0
 12 33  1  0
 12 34  1  0
 12 35  1  0
 13 36  1  0
 13 37  1  0
 13 38  1  0
 21 39  1  0
 22 40  1  0
 25 41  1  0
 25 42  1  0
 25 43  1  0
 26 44  1  0
 26 45  1  0
 26 46  1  0
 27 47  1  0
 27 48  1  0
 28 49  1  0
 28 50  1  0
 29 51  1  0
 29 52  1  0
 30 53  1  0
 30 54  1  0
M  END
> <Uni-Dock RESULT> 
ENERGY=   -6.668  LOWER_BOUND=    1.355  UPPER_BOUND=    3.958
INTER + INTRA:          -6.668
INTER:                  -6.668
INTRA:                   0.000
UNBOUND:                 0.000

$$$$

     RDKit          3D

 54 55  0  0  0  0  0  0  0  0999 V2000
   46.1305    5.2236   13.2823 N   0  0  0  0  0  0  0  0  0  0  0  0
   45.9842    6.5753   13.0874 C   0  0  0  0  0  0  0  0  0  0  0  0
   44.1054    4.9243   12.0336 N   0  0  0  0  0  0  0  0  0  0  0  0
   45.1783    4.3503   12.7508 C   0  0  0  0  0  0  0  0  0  0  0  0
   44.9351    7.0840   12.3895 C   0  0  0  0  0  0  0  0  0  0  0  0
   43.9150    6.2900   11.8094 C   0  0  0  0  0  0  0  0  0  0  0  0
   46.8150    7.5577   13.5341 N   0  0  0  0  0  0  0  0  0  0  0  0
   45.1129    8.4361   12.3978 N   0  0  0  0  0  0  0  0  0  0  0  0
   46.2644    8.6755   13.1029 C   0  0  0  0  0  0  0  0  0  0  0  0
   45.2615    3.1270   12.8959 O   0  0  0  0  0  0  0  0  0  0  0  0
   42.9803    6.7800   11.1844 O   0  0  0  0  0  0  0  0  0  0  0  0
   47.2637    4.7150   14.0328 C   0  0  0  0  0  0  0  0  0  0  0  0
   43.1290    4.0006   11.4908 C   0  0  0  0  0  0  0  0  0  0  0  0
   45.6658    6.9336   12.5235 N   0  0  0  0  0  0  0  0  0  0  0  0
   46.2605    5.8965   13.1999 C   0  0  0  0  0  0  0  0  0  0  0  0
   43.8516    5.4438   12.0344 N   0  0  0  0  0  0  0  0  0  0  0  0
   44.4256    6.7287   11.9139 C   0  0  0  0  0  0  0  0  0  0  0  0
   45.6713    4.6755   13.2906 C   0  0  0  0  0  0  0  0  0  0  0  0
   44.4174    4.3603   12.7108 C   0  0  0  0  0  0  0  0  0  0  0  0
   47.4590    5.9260   13.8461 N   0  0  0  0  0  0  0  0  0  0  0  0
   46.5311    3.9090   14.0206 N   0  0  0  0  0  0  0  0  0  0  0  0
   47.5994    4.7093   14.3346 C   0  0  0  0  0  0  0  0  0  0  0  0
   43.8471    7.6259   11.2936 O   0  0  0  0  0  0  0  0  0  0  0  0
   43.9116    3.2475   12.8107 O   0  0  0  0  0  0  0  0  0  0  0  0
   46.3239    8.2248   12.4469 C   0  0  0  0  0  0  0  0  0  0  0  0
   42.5649    5.2531   11.3947 C   0  0  0  0  0  0  0  0  0  0  0  0
   44.1665    6.1993   11.7189 N   0  0  0  0  0  0  0  0  0  0  0  0
   46.7461    6.5195   12.8463 N   0  0  0  0  0  0  0  0  0  0  0  0
   46.0145    5.2738   13.1038 C   0  0  0  0  0  0  0  0  0  0  0  0
   44.4938    5.4697   12.9505 C   0  0  0  0  0  0  0  0  0  0  0  0
   44.5081    9.1230   11.9654 H   0  0  0  0  0  0  0  0  0  0  0  0
   46.6461    9.6752   13.2662 H   0  0  0  0  0  0  0  0  0  0  0  0
   47.2477    3.6245   14.1065 H   0  0  0  0  0  0  0  0  0  0  0  0
   48.1888    5.0179   13.5320 H   0  0  0  0  0  0  0  0  0  0  0  0
   47.2399    5.1340   15.0438 H   0  0  0  0  0  0  0  0  0  0  0  0
   43.6345    3.3092   10.8086 H   0  0  0  0  0  0  0  0  0  0  0  0
   42.6939    3.4203   12.3111 H   0  0  0  0  0  0  0  0  0  0  0  0
   42.3260    4.5082   10.9507 H   0  0  0  0  0  0  0  0  0  0  0  0
   46.3994    2.9387   14.2768 H   0  0  0  0  0  0  0  0  0  0  0  0
   48.4397    4.3518   14.9157 H   0  0  0  0  0  0  0  0  0  0  0  0
   47.2947    8.1025   11.9563 H   0  0  0  0  0  0  0  0  0  0  0  0
   45.7347    8.9496   11.8791 H   0  0  0  0  0  0  0  0  0  0  0  0
   46.4712    8.6114   13.4603 H   0  0  0  0  0  0  0  0  0  0  0  0
   42.6656    5.4602   10.3242 H   0  0  0  0  0  0  0  0  0  0  0  0
   42.1778    4.2394   11.5249 H   0  0  0  0  0  0  0  0  0  0  0  0
   41.8482    5.9643   11.8184 H   0  0  0  0  0  0  0  0  0  0  0  0
   44.5004    5.6635   10.9173 H   0  0  0  0  0  0  0  0  0  0  0  0
   43.1528    6.2506   11.6225 H   0  0  0  0  0  0  0  0  0  0  0  0
   46.5008    7.1903   13.5748 H   0  0  0  0  0  0  0  0  0  0  0  0
   46.3173    6.9268   12.0069 H   0  0  0  0  0  0  0  0  0  0  0  0
   46.3591    4.5211   12.3859 H   0  0  0  0  0  0  0  0  0  0  0  0
   46.2496    4.9051   14.1074 H   0  0  0  0  0  0  0  0  0  0  0  0
   43.9938    4.4955   12.9496 H   0  0  0  0  0  0  0  0  0  0  0  0
   44.1110    6.0427   13.8023 H   0  0  0  0  0  0  0  0  0  0  0  0
  2  1  1  0
  3  4  1  0
  4  1  1  0
  5  2  2  0
  6  3  1  0
  7  2  1  0
  8  5  1  0
  9  7  2  0
 10  4  2  0
 11  6  2  0
 12  1  1  0
 13  3  1  0
  5  6  1  0
  8  9  1  0
 15 14  1  0
 16 17  1  0
 17 14  1  0
 18 15  2  0
 19 16  1  0
 20 15  1  0
 21 18  1  0
 22 20  2  0
 23 17  2  0
 24 19  2  0
 25 14  1  0
 26 16  1  0
 18 19  1  0
 21 22  1  0
 28 29  1  0
 29 30  1  0
 30 27  1  0
  8 31  1  0
  9 32  1  0
 12 33  1  0
 12 34  1  0
 12 35  1  0
 13 36  1  0
 13 37  1  0
 13 38  1  0
 21 39  1  0
 22 40  1  0
 25 41  1  0
 25 42  1  0
 25 43  1  0
 26 44  1  0
 26 45  1  0
 26 46  1  0
 27 47  1  0
 27 48  1  0
 28 49  1  0
 28 50  1  0
 29 51  1  0
 29 52  1  0
 30 53  1  0
 30 54  1  0
M  END
> <Uni-Dock RESULT> 
ENERGY=   -6.602  LOWER_BOUND=    1.345  UPPER_BOUND=    3.076
INTER + INTRA:          -6.602
INTER:                  -6.602
INTRA:                   0.000
UNBOUND:                 0.000

$$$$

     RDKit          3D

 54 55  0  0  0  0  0  0  0  0999 V2000
   44.1639    4.4702   11.9979 N   0  0  0  0  0  0  0  0  0  0  0  0
   45.2364    4.5259   12.8541 C   0  0  0  0  0  0  0  0  0  0  0  0
   44.3982    6.8390   11.7081 N   0  0  0  0  0  0  0  0  0  0  0  0
   43.7111    5.6456   11.3936 C   0  0  0  0  0  0  0  0  0  0  0  0
   45.8681    5.6974   13.1278 C   0  0  0  0  0  0  0  0  0  0  0  0
   45.4918    6.9448   12.5709 C   0  0  0  0  0  0  0  0  0  0  0  0
   45.8009    3.4819   13.5221 N   0  0  0  0  0  0  0  0  0  0  0  0
   46.8667    5.3782   14.0000 N   0  0  0  0  0  0  0  0  0  0  0  0
   46.7865    4.0253   14.2091 C   0  0  0  0  0  0  0  0  0  0  0  0
   42.7522    5.6523   10.6158 O   0  0  0  0  0  0  0  0  0  0  0  0
   46.0832    7.9856   12.8379 O   0  0  0  0  0  0  0  0  0  0  0  0
   43.5131    3.2014   11.7281 C   0  0  0  0  0  0  0  0  0  0  0  0
   43.9121    8.0466   11.0705 C   0  0  0  0  0  0  0  0  0  0  0  0
   45.8101    4.9932   12.8534 N   0  0  0  0  0  0  0  0  0  0  0  0
   44.7268    4.3064   12.3623 C   0  0  0  0  0  0  0  0  0  0  0  0
   44.7218    7.0125   12.1547 N   0  0  0  0  0  0  0  0  0  0  0  0
   45.8342    6.3869   12.7598 C   0  0  0  0  0  0  0  0  0  0  0  0
   43.6773    4.9501   11.7875 C   0  0  0  0  0  0  0  0  0  0  0  0
   43.5996    6.3573   11.6418 C   0  0  0  0  0  0  0  0  0  0  0  0
   44.5444    2.9568   12.3732 N   0  0  0  0  0  0  0  0  0  0  0  0
   42.8028    3.9690   11.4234 N   0  0  0  0  0  0  0  0  0  0  0  0
   43.3710    2.7787   11.7985 C   0  0  0  0  0  0  0  0  0  0  0  0
   46.7827    7.0533   13.1848 O   0  0  0  0  0  0  0  0  0  0  0  0
   42.6374    6.9088   11.1179 O   0  0  0  0  0  0  0  0  0  0  0  0
   46.9138    4.2731   13.4613 C   0  0  0  0  0  0  0  0  0  0  0  0
   44.7672    8.4587   12.0680 C   0  0  0  0  0  0  0  0  0  0  0  0
   45.5354    6.7591   12.3628 N   0  0  0  0  0  0  0  0  0  0  0  0
   45.5036    3.9261   12.3952 N   0  0  0  0  0  0  0  0  0  0  0  0
   44.2973    4.6392   11.9595 C   0  0  0  0  0  0  0  0  0  0  0  0
   44.2496    6.0698   12.5300 C   0  0  0  0  0  0  0  0  0  0  0  0
   47.5335    6.0205   14.4092 H   0  0  0  0  0  0  0  0  0  0  0  0
   47.4673    3.4996   14.8662 H   0  0  0  0  0  0  0  0  0  0  0  0
   42.6782    3.3113   11.0312 H   0  0  0  0  0  0  0  0  0  0  0  0
   44.2428    2.5109   11.2933 H   0  0  0  0  0  0  0  0  0  0  0  0
   43.1320    2.7885   12.6675 H   0  0  0  0  0  0  0  0  0  0  0  0
   43.9697    7.9229    9.9840 H   0  0  0  0  0  0  0  0  0  0  0  0
   42.8631    8.1970   11.3460 H   0  0  0  0  0  0  0  0  0  0  0  0
   44.4846    8.9322   11.3574 H   0  0  0  0  0  0  0  0  0  0  0  0
   41.9098    4.1014   10.9657 H   0  0  0  0  0  0  0  0  0  0  0  0
   42.8862    1.8262   11.6276 H   0  0  0  0  0  0  0  0  0  0  0  0
   47.3404    3.5850   12.7246 H   0  0  0  0  0  0  0  0  0  0  0  0
   47.7015    4.9487   13.8049 H   0  0  0  0  0  0  0  0  0  0  0  0
   46.5406    3.7060   14.3199 H   0  0  0  0  0  0  0  0  0  0  0  0
   45.6521    8.7531   11.4941 H   0  0  0  0  0  0  0  0  0  0  0  0
   43.8787    8.8785   11.5899 H   0  0  0  0  0  0  0  0  0  0  0  0
   44.8567    8.8728   13.0777 H   0  0  0  0  0  0  0  0  0  0  0  0
   45.7517    6.8208   11.3675 H   0  0  0  0  0  0  0  0  0  0  0  0
   45.4429    7.7196   12.6922 H   0  0  0  0  0  0  0  0  0  0  0  0
   45.4500    3.7960   13.4057 H   0  0  0  0  0  0  0  0  0  0  0  0
   46.2760    4.5948   12.2916 H   0  0  0  0  0  0  0  0  0  0  0  0
   44.3039    4.6837   10.8646 H   0  0  0  0  0  0  0  0  0  0  0  0
   43.4055    4.0810   12.2620 H   0  0  0  0  0  0  0  0  0  0  0  0
   43.4556    6.6389   12.0352 H   0  0  0  0  0  0  0  0  0  0  0  0
   44.0170    6.0295   13.5998 H   0  0  0  0  0  0  0  0  0  0  0  0
  2  1  1  0
  3  4  1  0
  4  1  1  0
  5  2  2  0
  6  3  1  0
  7  2  1  0
  8  5  1  0
  9  7  2  0
 10  4  2  0
 11  6  2  0
 12  1  1  0
 13  3  1  0
  5  6  1  0
  8  9  1  0
 15 14  1  0
 16 17  1  0
 17 14  1  0
 18 15  2  0
 19 16  1  0
 20 15  1  0
 21 18  1  0
 22 20  2  0
 23 17  2  0
 24 19  2  0
 25 14  1  0
 26 16  1  0
 18 19  1  0
 21 22  1  0
 28 29  1  0
 29 30  1  0
 30 27  1  0
  8 31  1  0
  9 32  1  0
 12 33  1  0
 12 34  1  0
 12 35  1  0
 13 36  1  0
 13 37  1  0
 13 38  1  0
 21 39  1  0
 22 40  1  0
 25 41  1  0
 25 42  1  0
 25 43  1  0
 26 44  1  0
 26 45  1  0
 26 46  1  0
 27 47  1  0
 27 48  1  0
 28 49  1  0
 28 50  1  0
 29 51  1  0
 29 52  1  0
 30 53  1  0
 30 54  1  0
M  END
> <Uni-Dock RESULT> 
ENERGY=   -6.589  LOWER_BOUND=    0.504  UPPER_BOUND=    3.008
INTER + INTRA:          -6.589
INTER:                  -6.589
INTRA:                   0.000
UNBOUND:                 0.000

$$$$

     RDKit          3D

 54 55  0  0  0  0  0  0  0  0999 V2000
   44.8633    7.8271   11.8553 N   0  0  0  0  0  0  0  0  0  0  0  0
   44.0813    6.7007   11.9340 C   0  0  0  0  0  0  0  0  0  0  0  0
   46.5926    6.5835   12.9567 N   0  0  0  0  0  0  0  0  0  0  0  0
   46.1603    7.7952   12.3735 C   0  0  0  0  0  0  0  0  0  0  0  0
   44.5391    5.5553   12.5040 C   0  0  0  0  0  0  0  0  0  0  0  0
   45.8350    5.4143   13.0591 C   0  0  0  0  0  0  0  0  0  0  0  0
   42.8042    6.5622   11.4816 N   0  0  0  0  0  0  0  0  0  0  0  0
   43.5118    4.6637   12.4064 N   0  0  0  0  0  0  0  0  0  0  0  0
   42.4826    5.3187   11.7802 C   0  0  0  0  0  0  0  0  0  0  0  0
   46.9056    8.7786   12.3287 O   0  0  0  0  0  0  0  0  0  0  0  0
   46.2188    4.3658   13.5667 O   0  0  0  0  0  0  0  0  0  0  0  0
   44.3421    9.0334   11.2394 C   0  0  0  0  0  0  0  0  0  0  0  0
   47.9412    6.5722   13.4882 C   0  0  0  0  0  0  0  0  0  0  0  0
   44.2864    5.9897   11.9365 N   0  0  0  0  0  0  0  0  0  0  0  0
   44.3879    7.3433   11.7271 C   0  0  0  0  0  0  0  0  0  0  0  0
   46.3223    6.1317   13.1955 N   0  0  0  0  0  0  0  0  0  0  0  0
   45.2681    5.3400   12.6887 C   0  0  0  0  0  0  0  0  0  0  0  0
   45.4206    8.0662   12.2343 C   0  0  0  0  0  0  0  0  0  0  0  0
   46.4676    7.5086   13.0092 C   0  0  0  0  0  0  0  0  0  0  0  0
   43.5242    8.1260   11.0226 N   0  0  0  0  0  0  0  0  0  0  0  0
   45.1980    9.3507   11.8339 N   0  0  0  0  0  0  0  0  0  0  0  0
   44.0379    9.3377   11.1028 C   0  0  0  0  0  0  0  0  0  0  0  0
   45.2256    4.1255   12.9074 O   0  0  0  0  0  0  0  0  0  0  0  0
   47.3866    8.1886   13.4533 O   0  0  0  0  0  0  0  0  0  0  0  0
   43.1694    5.2489   11.3798 C   0  0  0  0  0  0  0  0  0  0  0  0
   47.3296    5.4377   13.9731 C   0  0  0  0  0  0  0  0  0  0  0  0
   45.8570    5.5063   12.7932 N   0  0  0  0  0  0  0  0  0  0  0  0
   43.9738    6.8450   11.1534 N   0  0  0  0  0  0  0  0  0  0  0  0
   44.9787    7.6416   11.8667 C   0  0  0  0  0  0  0  0  0  0  0  0
   45.5122    6.8988   13.1068 C   0  0  0  0  0  0  0  0  0  0  0  0
   43.5157    3.7062   12.7347 H   0  0  0  0  0  0  0  0  0  0  0  0
   41.5338    4.8411   11.5720 H   0  0  0  0  0  0  0  0  0  0  0  0
   45.0740    9.8452   11.2491 H   0  0  0  0  0  0  0  0  0  0  0  0
   44.0741    8.8169   10.2004 H   0  0  0  0  0  0  0  0  0  0  0  0
   43.4522    9.3587   11.7876 H   0  0  0  0  0  0  0  0  0  0  0  0
   48.6434    6.8055   12.6811 H   0  0  0  0  0  0  0  0  0  0  0  0
   48.0275    7.3478   14.2562 H   0  0  0  0  0  0  0  0  0  0  0  0
   48.2116    5.6081   13.9259 H   0  0  0  0  0  0  0  0  0  0  0  0
   45.7803   10.1525   12.0401 H   0  0  0  0  0  0  0  0  0  0  0  0
   43.6229   10.2336   10.6592 H   0  0  0  0  0  0  0  0  0  0  0  0
   43.1780    5.3547   10.2904 H   0  0  0  0  0  0  0  0  0  0  0  0
   43.2215    4.1855   11.6276 H   0  0  0  0  0  0  0  0  0  0  0  0
   42.2356    5.6559   11.7805 H   0  0  0  0  0  0  0  0  0  0  0  0
   47.7837    4.6583   13.3524 H   0  0  0  0  0  0  0  0  0  0  0  0
   48.1152    6.1062   14.3340 H   0  0  0  0  0  0  0  0  0  0  0  0
   46.8483    4.9587   14.8321 H   0  0  0  0  0  0  0  0  0  0  0  0
   46.5861    5.4978   12.0794 H   0  0  0  0  0  0  0  0  0  0  0  0
   46.2652    5.0707   13.6197 H   0  0  0  0  0  0  0  0  0  0  0  0
   43.1592    6.7422   11.7590 H   0  0  0  0  0  0  0  0  0  0  0  0
   44.3508    5.8907   11.1135 H   0  0  0  0  0  0  0  0  0  0  0  0
   45.8069    7.8423   11.1779 H   0  0  0  0  0  0  0  0  0  0  0  0
   44.5504    8.6061   12.1582 H   0  0  0  0  0  0  0  0  0  0  0  0
   46.3913    7.4199   13.5002 H   0  0  0  0  0  0  0  0  0  0  0  0
   44.7456    6.8958   13.8895 H   0  0  0  0  0  0  0  0  0  0  0  0
  2  1  1  0
  3  4  1  0
  4  1  1  0
  5  2  2  0
  6  3  1  0
  7  2  1  0
  8  5  1  0
  9  7  2  0
 10  4  2  0
 11  6  2  0
 12  1  1  0
 13  3  1  0
  5  6  1  0
  8  9  1  0
 15 14  1  0
 16 17  1  0
 17 14  1  0
 18 15  2  0
 19 16  1  0
 20 15  1  0
 21 18  1  0
 22 20  2  0
 23 17  2  0
 24 19  2  0
 25 14  1  0
 26 16  1  0
 18 19  1  0
 21 22  1  0
 28 29  1  0
 29 30  1  0
 30 27  1  0
  8 31  1  0
  9 32  1  0
 12 33  1  0
 12 34  1  0
 12 35  1  0
 13 36  1  0
 13 37  1  0
 13 38  1  0
 21 39  1  0
 22 40  1  0
 25 41  1  0
 25 42  1  0
 25 43  1  0
 26 44  1  0
 26 45  1  0
 26 46  1  0
 27 47  1  0
 27 48  1  0
 28 49  1  0
 28 50  1  0
 29 51  1  0
 29 52  1  0
 30 53  1  0
 30 54  1  0
M  END
> <Uni-Dock RESULT> 
ENERGY=   -6.056  LOWER_BOUND=    1.537  UPPER_BOUND=    3.362
INTER + INTRA:          -6.056
INTER:                  -6.056
INTRA:                   0.000
UNBOUND:                 0.000

$$$$

     RDKit          3D

 54 55  0  0  0  0  0  0  0  0999 V2000
   44.4272    6.0751   11.8823 N   0  0  0  0  0  0  0  0  0  0  0  0
   44.1539    4.7306   11.9461 C   0  0  0  0  0  0  0  0  0  0  0  0
   46.4282    5.6269   13.1253 N   0  0  0  0  0  0  0  0  0  0  0  0
   45.5911    6.5642   12.4805 C   0  0  0  0  0  0  0  0  0  0  0  0
   44.9889    3.8641   12.5774 C   0  0  0  0  0  0  0  0  0  0  0  0
   46.1927    4.2529   13.2157 C   0  0  0  0  0  0  0  0  0  0  0  0
   43.0715    4.0932   11.4200 N   0  0  0  0  0  0  0  0  0  0  0  0
   44.4100    2.6366   12.4432 N   0  0  0  0  0  0  0  0  0  0  0  0
   43.2509    2.8254   11.7352 C   0  0  0  0  0  0  0  0  0  0  0  0
   45.8853    7.7630   12.4525 O   0  0  0  0  0  0  0  0  0  0  0  0
   46.9257    3.4457   13.7773 O   0  0  0  0  0  0  0  0  0  0  0  0
   43.5131    6.9719   11.1995 C   0  0  0  0  0  0  0  0  0  0  0  0
   47.6302    6.1555   13.7394 C   0  0  0  0  0  0  0  0  0  0  0  0
   44.6240    4.1602   11.9827 N   0  0  0  0  0  0  0  0  0  0  0  0
   44.1932    5.4415   11.7395 C   0  0  0  0  0  0  0  0  0  0  0  0
   46.3440    5.1055   13.3604 N   0  0  0  0  0  0  0  0  0  0  0  0
   45.7289    3.9577   12.8133 C   0  0  0  0  0  0  0  0  0  0  0  0
   44.8160    6.5176   12.2877 C   0  0  0  0  0  0  0  0  0  0  0  0
   45.9425    6.4256   13.1423 C   0  0  0  0  0  0  0  0  0  0  0  0
   43.1402    5.8130   10.9598 N   0  0  0  0  0  0  0  0  0  0  0  0
   44.1293    7.6058   11.8360 N   0  0  0  0  0  0  0  0  0  0  0  0
   43.1232    7.1294   11.0352 C   0  0  0  0  0  0  0  0  0  0  0  0
   46.1577    2.8276   13.0652 O   0  0  0  0  0  0  0  0  0  0  0  0
   46.4827    7.4169   13.6219 O   0  0  0  0  0  0  0  0  0  0  0  0
   43.9346    3.0340   11.3803 C   0  0  0  0  0  0  0  0  0  0  0  0
   47.4882    4.8727   14.2193 C   0  0  0  0  0  0  0  0  0  0  0  0
   46.1945    4.3453   12.9490 N   0  0  0  0  0  0  0  0  0  0  0  0
   44.0518    4.8178   11.1564 N   0  0  0  0  0  0  0  0  0  0  0  0
   44.6057    5.9510   11.9064 C   0  0  0  0  0  0  0  0  0  0  0  0
   45.3040    5.4858   13.1988 C   0  0  0  0  0  0  0  0  0  0  0  0
   44.7716    1.7610   12.7997 H   0  0  0  0  0  0  0  0  0  0  0  0
   42.5868    2.0086   11.4831 H   0  0  0  0  0  0  0  0  0  0  0  0
   43.8595    8.0082   11.2301 H   0  0  0  0  0  0  0  0  0  0  0  0
   43.4253    6.6636   10.1528 H   0  0  0  0  0  0  0  0  0  0  0  0
   42.5319    6.9171   11.6815 H   0  0  0  0  0  0  0  0  0  0  0  0
   48.2355    6.6471   12.9706 H   0  0  0  0  0  0  0  0  0  0  0  0
   47.3481    6.9034   14.4877 H   0  0  0  0  0  0  0  0  0  0  0  0
   48.2308    5.3803   14.2216 H   0  0  0  0  0  0  0  0  0  0  0  0
   44.3293    8.5737   12.0537 H   0  0  0  0  0  0  0  0  0  0  0  0
   42.4178    7.7843   10.5402 H   0  0  0  0  0  0  0  0  0  0  0  0
   43.9753    3.1314   10.2909 H   0  0  0  0  0  0  0  0  0  0  0  0
   44.3879    2.0802   11.6627 H   0  0  0  0  0  0  0  0  0  0  0  0
   42.8909    3.0362   11.7102 H   0  0  0  0  0  0  0  0  0  0  0  0
   48.2562    4.3371   13.6515 H   0  0  0  0  0  0  0  0  0  0  0  0
   47.9166    5.7999   14.6079 H   0  0  0  0  0  0  0  0  0  0  0  0
   47.1792    4.2440   15.0608 H   0  0  0  0  0  0  0  0  0  0  0  0
   46.9141    4.6262   12.2823 H   0  0  0  0  0  0  0  0  0  0  0  0
   46.6844    4.1109   13.8119 H   0  0  0  0  0  0  0  0  0  0  0  0
   43.3057    4.4005   11.7133 H   0  0  0  0  0  0  0  0  0  0  0  0
   44.7788    4.0928   11.1685 H   0  0  0  0  0  0  0  0  0  0  0  0
   45.3311    6.4632   11.2645 H   0  0  0  0  0  0  0  0  0  0  0  0
   43.8105    6.6656   12.1418 H   0  0  0  0  0  0  0  0  0  0  0  0
   45.8742    6.3153   13.6301 H   0  0  0  0  0  0  0  0  0  0  0  0
   44.5499    5.1798   13.9324 H   0  0  0  0  0  0  0  0  0  0  0  0
  2  1  1  0
  3  4  1  0
  4  1  1  0
  5  2  2  0
  6  3  1  0
  7  2  1  0
  8  5  1  0
  9  7  2  0
 10  4  2  0
 11  6  2  0
 12  1  1  0
 13  3  1  0
  5  6  1  0
  8  9  1  0
 15 14  1  0
 16 17  1  0
 17 14  1  0
 18 15  2  0
 19 16  1  0
 20 15  1  0
 21 18  1  0
 22 20  2  0
 23 17  2  0
 24 19  2  0
 25 14  1  0
 26 16  1  0
 18 19  1  0
 21 22  1  0
 28 29  1  0
 29 30  1  0
 30 27  1  0
  8 31  1  0
  9 32  1  0
 12 33  1  0
 12 34  1  0
 12 35  1  0
 13 36  1  0
 13 37  1  0
 13 38  1  0
 21 39  1  0
 22 40  1  0
 25 41  1  0
 25 42  1  0
 25 43  1  0
 26 44  1  0
 26 45  1  0
 26 46  1  0
 27 47  1  0
 27 48  1  0
 28 49  1  0
 28 50  1  0
 29 51  1  0
 29 52  1  0
 30 53  1  0
 30 54  1  0
M  END
> <Uni-Dock RESULT> 
ENERGY=   -5.878  LOWER_BOUND=    1.272  UPPER_BOUND=    3.133
INTER + INTRA:          -5.878
INTER:                  -5.878
INTRA:                   0.000
UNBOUND:                 0.000

$$$$

     RDKit          3D

 54 55  0  0  0  0  0  0  0  0999 V2000
   44.2552    5.9059   12.2802 N   0  0  0  0  0  0  0  0  0  0  0  0
   44.6593    7.1875   11.9964 C   0  0  0  0  0  0  0  0  0  0  0  0
   46.2786    5.6527   13.5419 N   0  0  0  0  0  0  0  0  0  0  0  0
   45.0690    5.0935   13.0737 C   0  0  0  0  0  0  0  0  0  0  0  0
   45.8322    7.6847   12.4692 C   0  0  0  0  0  0  0  0  0  0  0  0
   46.7307    6.9483   13.2805 C   0  0  0  0  0  0  0  0  0  0  0  0
   43.9907    8.1050   11.2441 N   0  0  0  0  0  0  0  0  0  0  0  0
   45.9036    8.9620   11.9966 N   0  0  0  0  0  0  0  0  0  0  0  0
   44.7661    9.1714   11.2600 C   0  0  0  0  0  0  0  0  0  0  0  0
   44.7538    3.9345   13.3597 O   0  0  0  0  0  0  0  0  0  0  0  0
   47.7826    7.4263   13.6920 O   0  0  0  0  0  0  0  0  0  0  0  0
   42.9959    5.4075   11.7587 C   0  0  0  0  0  0  0  0  0  0  0  0
   47.1078    4.7928   14.3632 C   0  0  0  0  0  0  0  0  0  0  0  0
   45.0785    7.6446   12.4001 N   0  0  0  0  0  0  0  0  0  0  0  0
   44.2564    6.5788   12.1266 C   0  0  0  0  0  0  0  0  0  0  0  0
   46.6220    6.0809   13.3604 N   0  0  0  0  0  0  0  0  0  0  0  0
   46.3022    7.4175   13.0346 C   0  0  0  0  0  0  0  0  0  0  0  0
   44.6050    5.3081   12.4583 C   0  0  0  0  0  0  0  0  0  0  0  0
   45.8198    4.9666   13.1027 C   0  0  0  0  0  0  0  0  0  0  0  0
   43.0389    6.6239   11.5180 N   0  0  0  0  0  0  0  0  0  0  0  0
   43.5684    4.5253   12.0430 N   0  0  0  0  0  0  0  0  0  0  0  0
   42.6435    5.3666   11.4796 C   0  0  0  0  0  0  0  0  0  0  0  0
   47.0788    8.3389   13.3038 O   0  0  0  0  0  0  0  0  0  0  0  0
   46.1057    3.8088   13.3890 O   0  0  0  0  0  0  0  0  0  0  0  0
   44.6741    8.9889   12.0315 C   0  0  0  0  0  0  0  0  0  0  0  0
   47.8961    5.8678   14.0179 C   0  0  0  0  0  0  0  0  0  0  0  0
   46.4742    6.9448   13.3983 N   0  0  0  0  0  0  0  0  0  0  0  0
   43.9199    7.3670   12.2471 N   0  0  0  0  0  0  0  0  0  0  0  0
   44.3913    5.9894   12.4298 C   0  0  0  0  0  0  0  0  0  0  0  0
   45.9293    5.9225   12.4958 C   0  0  0  0  0  0  0  0  0  0  0  0
   46.6538    9.6213   12.1617 H   0  0  0  0  0  0  0  0  0  0  0  0
   44.5619   10.1119   10.7647 H   0  0  0  0  0  0  0  0  0  0  0  0
   42.8075    4.3753   12.0652 H   0  0  0  0  0  0  0  0  0  0  0  0
   42.1812    6.0368   12.1307 H   0  0  0  0  0  0  0  0  0  0  0  0
   43.0209    5.4482   10.6651 H   0  0  0  0  0  0  0  0  0  0  0  0
   46.5366    4.4852   15.2453 H   0  0  0  0  0  0  0  0  0  0  0  0
   47.3680    3.8968   13.7903 H   0  0  0  0  0  0  0  0  0  0  0  0
   48.0275    5.2844   14.6899 H   0  0  0  0  0  0  0  0  0  0  0  0
   43.5017    3.5197   12.1360 H   0  0  0  0  0  0  0  0  0  0  0  0
   41.7114    5.0069   11.0631 H   0  0  0  0  0  0  0  0  0  0  0  0
   43.7363    9.2322   12.5408 H   0  0  0  0  0  0  0  0  0  0  0  0
   45.4259    9.7317   12.3107 H   0  0  0  0  0  0  0  0  0  0  0  0
   44.5252    9.0326   10.9479 H   0  0  0  0  0  0  0  0  0  0  0  0
   47.9143    6.4387   14.9521 H   0  0  0  0  0  0  0  0  0  0  0  0
   48.0814    4.8144   14.2424 H   0  0  0  0  0  0  0  0  0  0  0  0
   48.6971    6.2392   13.3703 H   0  0  0  0  0  0  0  0  0  0  0  0
   46.1085    6.7868   14.3377 H   0  0  0  0  0  0  0  0  0  0  0  0
   47.4846    6.8252   13.4644 H   0  0  0  0  0  0  0  0  0  0  0  0
   44.2288    7.6912   11.3304 H   0  0  0  0  0  0  0  0  0  0  0  0
   44.4767    7.9404   12.8919 H   0  0  0  0  0  0  0  0  0  0  0  0
   43.9694    5.6056   13.3654 H   0  0  0  0  0  0  0  0  0  0  0  0
   44.0194    5.3581   11.6163 H   0  0  0  0  0  0  0  0  0  0  0  0
   46.2421    4.9275   12.8290 H   0  0  0  0  0  0  0  0  0  0  0  0
   46.3460    6.0882   11.4962 H   0  0  0  0  0  0  0  0  0  0  0  0
  2  1  1  0
  3  4  1  0
  4  1  1  0
  5  2  2  0
  6  3  1  0
  7  2  1  0
  8  5  1  0
  9  7  2  0
 10  4  2  0
 11  6  2  0
 12  1  1  0
 13  3  1  0
  5  6  1  0
  8  9  1  0
 15 14  1  0
 16 17  1  0
 17 14  1  0
 18 15  2  0
 19 16  1  0
 20 15  1  0
 21 18  1  0
 22 20  2  0
 23 17  2  0
 24 19  2  0
 25 14  1  0
 26 16  1  0
 18 19  1  0
 21 22  1  0
 28 29  1  0
 29 30  1  0
 30 27  1  0
  8 31  1  0
  9 32  1  0
 12 33  1  0
 12 34  1  0
 12 35  1  0
 13 36  1  0
 13 37  1  0
 13 38  1  0
 21 39  1  0
 22 40  1  0
 25 41  1  0
 25 42  1  0
 25 43  1  0
 26 44  1  0
 26 45  1  0
 26 46  1  0
 27 47  1  0
 27 48  1  0
 28 49  1  0
 28 50  1  0
 29 51  1  0
 29 52  1  0
 30 53  1  0
 30 54  1  0
M  END
> <Uni-Dock RESULT> 
ENERGY=   -5.758  LOWER_BOUND=    1.517  UPPER_BOUND=    3.926
INTER + INTRA:          -5.758
INTER:                  -5.758
INTRA:                   0.000
UNBOUND:                 0.000

$$$$

     RDKit          3D

 54 55  0  0  0  0  0  0  0  0999 V2000
   44.6676    6.4246   12.1874 N   0  0  0  0  0  0  0  0  0  0  0  0
   44.9596    7.7555   12.0139 C   0  0  0  0  0  0  0  0  0  0  0  0
   46.6270    6.2752   13.5614 N   0  0  0  0  0  0  0  0  0  0  0  0
   45.5086    5.6388   12.9791 C   0  0  0  0  0  0  0  0  0  0  0  0
   46.0476    8.3265   12.5943 C   0  0  0  0  0  0  0  0  0  0  0  0
   46.9641    7.6228   13.4143 C   0  0  0  0  0  0  0  0  0  0  0  0
   44.2500    8.6565   11.2795 N   0  0  0  0  0  0  0  0  0  0  0  0
   46.0209    9.6349   12.2105 N   0  0  0  0  0  0  0  0  0  0  0  0
   44.9143    9.7874   11.4151 C   0  0  0  0  0  0  0  0  0  0  0  0
   45.2926    4.4380   13.1686 O   0  0  0  0  0  0  0  0  0  0  0  0
   47.9373    8.1677   13.9244 O   0  0  0  0  0  0  0  0  0  0  0  0
   43.4969    5.8477   11.5526 C   0  0  0  0  0  0  0  0  0  0  0  0
   47.4864    5.4417   14.3788 C   0  0  0  0  0  0  0  0  0  0  0  0
   45.3069    8.2205   12.4730 N   0  0  0  0  0  0  0  0  0  0  0  0
   44.6116    7.1039   12.0777 C   0  0  0  0  0  0  0  0  0  0  0  0
   46.9368    6.7456   13.4309 N   0  0  0  0  0  0  0  0  0  0  0  0
   46.5069    8.0657   13.1712 C   0  0  0  0  0  0  0  0  0  0  0  0
   45.0633    5.8515   12.3494 C   0  0  0  0  0  0  0  0  0  0  0  0
   46.2651    5.5815   13.0496 C   0  0  0  0  0  0  0  0  0  0  0  0
   43.4341    7.0767   11.3940 N   0  0  0  0  0  0  0  0  0  0  0  0
   44.1354    5.0057   11.8169 N   0  0  0  0  0  0  0  0  0  0  0  0
   43.1675    5.7935   11.2488 C   0  0  0  0  0  0  0  0  0  0  0  0
   47.1715    9.0349   13.5498 O   0  0  0  0  0  0  0  0  0  0  0  0
   46.6461    4.4385   13.2792 O   0  0  0  0  0  0  0  0  0  0  0  0
   44.7948    9.5433   12.1655 C   0  0  0  0  0  0  0  0  0  0  0  0
   48.1842    6.6077   14.1563 C   0  0  0  0  0  0  0  0  0  0  0  0
   46.7027    7.5868   13.5144 N   0  0  0  0  0  0  0  0  0  0  0  0
   44.1925    7.8464   12.2261 N   0  0  0  0  0  0  0  0  0  0  0  0
   44.7856    6.5099   12.3506 C   0  0  0  0  0  0  0  0  0  0  0  0
   46.3160    6.5838   12.5140 C   0  0  0  0  0  0  0  0  0  0  0  0
   46.6912   10.3487   12.4669 H   0  0  0  0  0  0  0  0  0  0  0  0
   44.6483   10.7371   10.9689 H   0  0  0  0  0  0  0  0  0  0  0  0
   43.3931    4.7834   11.7791 H   0  0  0  0  0  0  0  0  0  0  0  0
   42.6033    6.3697   11.9095 H   0  0  0  0  0  0  0  0  0  0  0  0
   43.5829    5.9675   10.4680 H   0  0  0  0  0  0  0  0  0  0  0  0
   46.8967    5.0203   15.1996 H   0  0  0  0  0  0  0  0  0  0  0  0
   47.8674    4.6167   13.7680 H   0  0  0  0  0  0  0  0  0  0  0  0
   48.3320    5.9936   14.7966 H   0  0  0  0  0  0  0  0  0  0  0  0
   44.1627    3.9942   11.8405 H   0  0  0  0  0  0  0  0  0  0  0  0
   42.3019    5.3778   10.7492 H   0  0  0  0  0  0  0  0  0  0  0  0
   43.8089    9.6607   12.6262 H   0  0  0  0  0  0  0  0  0  0  0  0
   45.4518   10.3321   12.5411 H   0  0  0  0  0  0  0  0  0  0  0  0
   44.7073    9.6489   11.0795 H   0  0  0  0  0  0  0  0  0  0  0  0
   48.0903    7.1107   15.1244 H   0  0  0  0  0  0  0  0  0  0  0  0
   48.4586    5.5634   14.3245 H   0  0  0  0  0  0  0  0  0  0  0  0
   48.9819    7.0977   13.5883 H   0  0  0  0  0  0  0  0  0  0  0  0
   46.2988    7.3294   14.4154 H   0  0  0  0  0  0  0  0  0  0  0  0
   47.7142    7.5587   13.6394 H   0  0  0  0  0  0  0  0  0  0  0  0
   44.5222    8.2620   11.3546 H   0  0  0  0  0  0  0  0  0  0  0  0
   44.6506    8.4229   12.9418 H   0  0  0  0  0  0  0  0  0  0  0  0
   44.3484    6.0232   13.2297 H   0  0  0  0  0  0  0  0  0  0  0  0
   44.5269    5.9052   11.4755 H   0  0  0  0  0  0  0  0  0  0  0  0
   46.7049    5.6017   12.8026 H   0  0  0  0  0  0  0  0  0  0  0  0
   46.7733    6.8580   11.5569 H   0  0  0  0  0  0  0  0  0  0  0  0
  2  1  1  0
  3  4  1  0
  4  1  1  0
  5  2  2  0
  6  3  1  0
  7  2  1  0
  8  5  1  0
  9  7  2  0
 10  4  2  0
 11  6  2  0
 12  1  1  0
 13  3  1  0
  5  6  1  0
  8  9  1  0
 15 14  1  0
 16 17  1  0
 17 14  1  0
 18 15  2  0
 19 16  1  0
 20 15  1  0
 21 18  1  0
 22 20  2  0
 23 17  2  0
 24 19  2  0
 25 14  1  0
 26 16  1  0
 18 19  1  0
 21 22  1  0
 28 29  1  0
 29 30  1  0
 30 27  1  0
  8 31  1  0
  9 32  1  0
 12 33  1  0
 12 34  1  0
 12 35  1  0
 13 36  1  0
 13 37  1  0
 13 38  1  0
 21 39  1  0
 22 40  1  0
 25 41  1  0
 25 42  1  0
 25 43  1  0
 26 44  1  0
 26 45  1  0
 26 46  1  0
 27 47  1  0
 27 48  1  0
 28 49  1  0
 28 50  1  0
 29 51  1  0
 29 52  1  0
 30 53  1  0
 30 54  1  0
M  END
> <Uni-Dock RESULT> 
ENERGY=   -5.739  LOWER_BOUND=    1.692  UPPER_BOUND=    4.103
INTER + INTRA:          -5.739
INTER:                  -5.739
INTRA:                   0.000
UNBOUND:                 0.000

$$$$
