
     RDKit          3D

 54 55  0  0  0  0  0  0  0  0999 V2000
   46.0257    4.8890   13.0375 N   0  0  0  0  0  0  0  0  0  0  0  0
   44.8979    4.2563   12.5748 C   0  0  0  0  0  0  0  0  0  0  0  0
   45.0830    6.9426   12.2346 N   0  0  0  0  0  0  0  0  0  0  0  0
   46.1477    6.2714   12.8756 C   0  0  0  0  0  0  0  0  0  0  0  0
   43.8973    4.9426   11.9629 C   0  0  0  0  0  0  0  0  0  0  0  0
   43.9189    6.3430   11.7479 C   0  0  0  0  0  0  0  0  0  0  0  0
   44.6212    2.9249   12.6511 N   0  0  0  0  0  0  0  0  0  0  0  0
   42.9570    4.0083   11.6427 N   0  0  0  0  0  0  0  0  0  0  0  0
   43.4395    2.8012   12.0791 C   0  0  0  0  0  0  0  0  0  0  0  0
   47.1397    6.8900   13.2725 O   0  0  0  0  0  0  0  0  0  0  0  0
   42.9992    6.9336   11.1915 O   0  0  0  0  0  0  0  0  0  0  0  0
   47.0749    4.1244   13.6862 C   0  0  0  0  0  0  0  0  0  0  0  0
   45.2301    8.3759   12.0769 C   0  0  0  0  0  0  0  0  0  0  0  0
   45.9051    4.8049   13.1363 N   0  0  0  0  0  0  0  0  0  0  0  0
   44.9143    4.2543   12.3606 C   0  0  0  0  0  0  0  0  0  0  0  0
   45.0847    6.9605   12.4800 N   0  0  0  0  0  0  0  0  0  0  0  0
   46.0165    6.1952   13.2158 C   0  0  0  0  0  0  0  0  0  0  0  0
   44.0390    5.0297   11.6685 C   0  0  0  0  0  0  0  0  0  0  0  0
   44.0622    6.4464   11.6789 C   0  0  0  0  0  0  0  0  0  0  0  0
   44.6678    2.9280   12.1740 N   0  0  0  0  0  0  0  0  0  0  0  0
   43.2117    4.1588   11.0229 N   0  0  0  0  0  0  0  0  0  0  0  0
   43.6312    2.8974   11.3595 C   0  0  0  0  0  0  0  0  0  0  0  0
   46.8885    6.7423   13.8974 O   0  0  0  0  0  0  0  0  0  0  0  0
   43.2574    7.1186   11.0425 O   0  0  0  0  0  0  0  0  0  0  0  0
   46.8230    3.9463   13.8618 C   0  0  0  0  0  0  0  0  0  0  0  0
   45.2181    8.4006   12.5767 C   0  0  0  0  0  0  0  0  0  0  0  0
   44.5521    6.9381   11.8911 N   0  0  0  0  0  0  0  0  0  0  0  0
   44.3904    4.1291   12.2240 N   0  0  0  0  0  0  0  0  0  0  0  0
   45.3296    4.8861   13.0616 C   0  0  0  0  0  0  0  0  0  0  0  0
   45.7261    6.2206   12.4012 C   0  0  0  0  0  0  0  0  0  0  0  0
   42.0764    4.1800   11.1740 H   0  0  0  0  0  0  0  0  0  0  0  0
   42.8894    1.8777   11.9526 H   0  0  0  0  0  0  0  0  0  0  0  0
   46.6612    3.6287   14.5700 H   0  0  0  0  0  0  0  0  0  0  0  0
   47.4531    3.3721   12.9869 H   0  0  0  0  0  0  0  0  0  0  0  0
   47.9076    4.7594   13.9997 H   0  0  0  0  0  0  0  0  0  0  0  0
   46.1327    8.5785   11.4910 H   0  0  0  0  0  0  0  0  0  0  0  0
   44.3726    8.8332   11.5769 H   0  0  0  0  0  0  0  0  0  0  0  0
   45.3499    8.8323   13.0650 H   0  0  0  0  0  0  0  0  0  0  0  0
   42.4401    4.4033   10.4152 H   0  0  0  0  0  0  0  0  0  0  0  0
   43.1460    2.0060   10.9830 H   0  0  0  0  0  0  0  0  0  0  0  0
   47.5535    4.5227   14.4354 H   0  0  0  0  0  0  0  0  0  0  0  0
   47.3599    3.3134   13.1480 H   0  0  0  0  0  0  0  0  0  0  0  0
   46.2534    3.3175   14.5533 H   0  0  0  0  0  0  0  0  0  0  0  0
   46.2147    8.6896   12.2272 H   0  0  0  0  0  0  0  0  0  0  0  0
   45.1203    8.6973   13.6261 H   0  0  0  0  0  0  0  0  0  0  0  0
   44.4674    8.9320   11.9865 H   0  0  0  0  0  0  0  0  0  0  0  0
   43.9759    6.2311   11.4195 H   0  0  0  0  0  0  0  0  0  0  0  0
   43.9732    7.2092   12.6862 H   0  0  0  0  0  0  0  0  0  0  0  0
   44.8367    3.9211   11.3302 H   0  0  0  0  0  0  0  0  0  0  0  0
   44.2049    3.2282   12.6639 H   0  0  0  0  0  0  0  0  0  0  0  0
   44.8488    5.0837   14.0260 H   0  0  0  0  0  0  0  0  0  0  0  0
   46.2261    4.2863   13.2504 H   0  0  0  0  0  0  0  0  0  0  0  0
   46.2660    6.8507   13.1152 H   0  0  0  0  0  0  0  0  0  0  0  0
   46.3988    6.0244   11.5587 H   0  0  0  0  0  0  0  0  0  0  0  0
  2  1  1  0
  3  4  1  0
  4  1  1  0
  5  2  2  0
  6  3  1  0
  7  2  1  0
  8  5  1  0
  9  7  2  0
 10  4  2  0
 11  6  2  0
 12  1  1  0
 13  3  1  0
  5  6  1  0
  8  9  1  0
 15 14  1  0
 16 17  1  0
 17 14  1  0
 18 15  2  0
 19 16  1  0
 20 15  1  0
 21 18  1  0
 22 20  2  0
 23 17  2  0
 24 19  2  0
 25 14  1  0
 26 16  1  0
 18 19  1  0
 21 22  1  0
 28 29  1  0
 29 30  1  0
 30 27  1  0
  8 31  1  0
  9 32  1  0
 12 33  1  0
 12 34  1  0
 12 35  1  0
 13 36  1  0
 13 37  1  0
 13 38  1  0
 21 39  1  0
 22 40  1  0
 25 41  1  0
 25 42  1  0
 25 43  1  0
 26 44  1  0
 26 45  1  0
 26 46  1  0
 27 47  1  0
 27 48  1  0
 28 49  1  0
 28 50  1  0
 29 51  1  0
 29 52  1  0
 30 53  1  0
 30 54  1  0
M  END
> <Uni-Dock RESULT> 
ENERGY=   -7.166  LOWER_BOUND=    0.000  UPPER_BOUND=    0.000
INTER + INTRA:          -7.166
INTER:                  -7.166
INTRA:                   0.000
UNBOUND:                 0.000

$$$$

     RDKit          3D

 54 55  0  0  0  0  0  0  0  0999 V2000
   44.0347    3.0061   10.7792 N   0  0  0  0  0  0  0  0  0  0  0  0
   44.3398    4.2193   11.3462 C   0  0  0  0  0  0  0  0  0  0  0  0
   45.2605    3.7141    8.8435 N   0  0  0  0  0  0  0  0  0  0  0  0
   44.4955    2.7193    9.4918 C   0  0  0  0  0  0  0  0  0  0  0  0
   45.0792    5.1480   10.6850 C   0  0  0  0  0  0  0  0  0  0  0  0
   45.5951    4.9604    9.3787 C   0  0  0  0  0  0  0  0  0  0  0  0
   43.9726    4.6561   12.5829 N   0  0  0  0  0  0  0  0  0  0  0  0
   45.1806    6.2078   11.5373 N   0  0  0  0  0  0  0  0  0  0  0  0
   44.4948    5.8635   12.6737 C   0  0  0  0  0  0  0  0  0  0  0  0
   44.2505    1.6449    8.9350 O   0  0  0  0  0  0  0  0  0  0  0  0
   46.2595    5.8191    8.8082 O   0  0  0  0  0  0  0  0  0  0  0  0
   43.2423    2.0377   11.5144 C   0  0  0  0  0  0  0  0  0  0  0  0
   45.7283    3.3961    7.5090 C   0  0  0  0  0  0  0  0  0  0  0  0
   44.1344    3.0320   10.9233 N   0  0  0  0  0  0  0  0  0  0  0  0
   44.2190    4.3648   11.2442 C   0  0  0  0  0  0  0  0  0  0  0  0
   45.3908    3.5306    8.9426 N   0  0  0  0  0  0  0  0  0  0  0  0
   44.7282    2.5748    9.7442 C   0  0  0  0  0  0  0  0  0  0  0  0
   44.8669    5.2500   10.4422 C   0  0  0  0  0  0  0  0  0  0  0  0
   45.5026    4.8937    9.2270 C   0  0  0  0  0  0  0  0  0  0  0  0
   43.6997    4.9719   12.3471 N   0  0  0  0  0  0  0  0  0  0  0  0
   44.7507    6.4582   11.0639 N   0  0  0  0  0  0  0  0  0  0  0  0
   44.0360    6.2400   12.2137 C   0  0  0  0  0  0  0  0  0  0  0  0
   44.6818    1.3878    9.4077 O   0  0  0  0  0  0  0  0  0  0  0  0
   46.0797    5.7171    8.5247 O   0  0  0  0  0  0  0  0  0  0  0  0
   43.4340    2.1147   11.8031 C   0  0  0  0  0  0  0  0  0  0  0  0
   45.9999    3.0349    7.7242 C   0  0  0  0  0  0  0  0  0  0  0  0
   45.4748    4.3075    8.8000 N   0  0  0  0  0  0  0  0  0  0  0  0
   44.4772    4.8316   11.3995 N   0  0  0  0  0  0  0  0  0  0  0  0
   44.5560    3.4386   10.9416 C   0  0  0  0  0  0  0  0  0  0  0  0
   44.5427    3.3481    9.4034 C   0  0  0  0  0  0  0  0  0  0  0  0
   45.6690    7.0762   11.3587 H   0  0  0  0  0  0  0  0  0  0  0  0
   44.4125    6.5281   13.5240 H   0  0  0  0  0  0  0  0  0  0  0  0
   43.7640    1.7793   12.4413 H   0  0  0  0  0  0  0  0  0  0  0  0
   42.2692    2.4789   11.7518 H   0  0  0  0  0  0  0  0  0  0  0  0
   43.0796    1.1229   10.9387 H   0  0  0  0  0  0  0  0  0  0  0  0
   44.8640    3.1915    6.8685 H   0  0  0  0  0  0  0  0  0  0  0  0
   46.3144    4.2052    7.0660 H   0  0  0  0  0  0  0  0  0  0  0  0
   46.3463    2.4934    7.5542 H   0  0  0  0  0  0  0  0  0  0  0  0
   45.1224    7.3401   10.7346 H   0  0  0  0  0  0  0  0  0  0  0  0
   43.7949    7.0367   12.9057 H   0  0  0  0  0  0  0  0  0  0  0  0
   43.4505    1.0907   11.4211 H   0  0  0  0  0  0  0  0  0  0  0  0
   42.3918    2.4358   11.8974 H   0  0  0  0  0  0  0  0  0  0  0  0
   43.9125    2.1281   12.7875 H   0  0  0  0  0  0  0  0  0  0  0  0
   45.2252    2.5775    7.1001 H   0  0  0  0  0  0  0  0  0  0  0  0
   46.7353    2.2657    7.9814 H   0  0  0  0  0  0  0  0  0  0  0  0
   46.4961    3.8231    7.1526 H   0  0  0  0  0  0  0  0  0  0  0  0
   45.3370    5.1885    9.3089 H   0  0  0  0  0  0  0  0  0  0  0  0
   46.4235    4.0395    9.0630 H   0  0  0  0  0  0  0  0  0  0  0  0
   43.6051    5.2420   11.0646 H   0  0  0  0  0  0  0  0  0  0  0  0
   44.4230    4.8441   12.4176 H   0  0  0  0  0  0  0  0  0  0  0  0
   45.4843    3.0017   11.3259 H   0  0  0  0  0  0  0  0  0  0  0  0
   43.7194    2.8641   11.3529 H   0  0  0  0  0  0  0  0  0  0  0  0
   44.7941    2.3324    9.0817 H   0  0  0  0  0  0  0  0  0  0  0  0
   43.5357    3.5722    9.0340 H   0  0  0  0  0  0  0  0  0  0  0  0
  2  1  1  0
  3  4  1  0
  4  1  1  0
  5  2  2  0
  6  3  1  0
  7  2  1  0
  8  5  1  0
  9  7  2  0
 10  4  2  0
 11  6  2  0
 12  1  1  0
 13  3  1  0
  5  6  1  0
  8  9  1  0
 15 14  1  0
 16 17  1  0
 17 14  1  0
 18 15  2  0
 19 16  1  0
 20 15  1  0
 21 18  1  0
 22 20  2  0
 23 17  2  0
 24 19  2  0
 25 14  1  0
 26 16  1  0
 18 19  1  0
 21 22  1  0
 28 29  1  0
 29 30  1  0
 30 27  1  0
  8 31  1  0
  9 32  1  0
 12 33  1  0
 12 34  1  0
 12 35  1  0
 13 36  1  0
 13 37  1  0
 13 38  1  0
 21 39  1  0
 22 40  1  0
 25 41  1  0
 25 42  1  0
 25 43  1  0
 26 44  1  0
 26 45  1  0
 26 46  1  0
 27 47  1  0
 27 48  1  0
 28 49  1  0
 28 50  1  0
 29 51  1  0
 29 52  1  0
 30 53  1  0
 30 54  1  0
M  END
> <Uni-Dock RESULT> 
ENERGY=   -6.834  LOWER_BOUND=    2.698  UPPER_BOUND=    4.205
INTER + INTRA:          -6.834
INTER:                  -6.834
INTRA:                   0.000
UNBOUND:                 0.000

$$$$

     RDKit          3D

 54 55  0  0  0  0  0  0  0  0999 V2000
   45.9535    5.0651   13.3773 N   0  0  0  0  0  0  0  0  0  0  0  0
   46.6031    6.2156   13.0021 C   0  0  0  0  0  0  0  0  0  0  0  0
   44.0230    5.8958   12.2226 N   0  0  0  0  0  0  0  0  0  0  0  0
   44.6248    4.8742   12.9901 C   0  0  0  0  0  0  0  0  0  0  0  0
   45.9842    7.1733   12.2630 C   0  0  0  0  0  0  0  0  0  0  0  0
   44.6421    7.0811   11.8181 C   0  0  0  0  0  0  0  0  0  0  0  0
   47.8890    6.5572   13.2930 N   0  0  0  0  0  0  0  0  0  0  0  0
   46.9154    8.1533   12.0826 N   0  0  0  0  0  0  0  0  0  0  0  0
   48.0529    7.7356   12.7243 C   0  0  0  0  0  0  0  0  0  0  0  0
   43.9940    3.8591   13.3001 O   0  0  0  0  0  0  0  0  0  0  0  0
   44.1116    7.9638   11.1520 O   0  0  0  0  0  0  0  0  0  0  0  0
   46.6454    4.0632   14.1671 C   0  0  0  0  0  0  0  0  0  0  0  0
   42.6444    5.6776   11.8317 C   0  0  0  0  0  0  0  0  0  0  0  0
   46.0940    5.0754   13.2699 N   0  0  0  0  0  0  0  0  0  0  0  0
   46.5198    6.3730   13.1224 C   0  0  0  0  0  0  0  0  0  0  0  0
   44.0997    5.7005   12.0942 N   0  0  0  0  0  0  0  0  0  0  0  0
   44.8521    4.7015   12.7507 C   0  0  0  0  0  0  0  0  0  0  0  0
   45.7620    7.3021   12.4830 C   0  0  0  0  0  0  0  0  0  0  0  0
   44.4904    7.0304   11.9202 C   0  0  0  0  0  0  0  0  0  0  0  0
   47.6946    6.9003   13.5655 N   0  0  0  0  0  0  0  0  0  0  0  0
   46.4871    8.4563   12.5258 N   0  0  0  0  0  0  0  0  0  0  0  0
   47.6500    8.1640   13.1912 C   0  0  0  0  0  0  0  0  0  0  0  0
   44.4208    3.5494   12.8557 O   0  0  0  0  0  0  0  0  0  0  0  0
   43.8302    7.8919   11.3489 O   0  0  0  0  0  0  0  0  0  0  0  0
   46.9293    4.1093   13.9590 C   0  0  0  0  0  0  0  0  0  0  0  0
   42.8147    5.2911   11.5631 C   0  0  0  0  0  0  0  0  0  0  0  0
   44.0181    6.4837   11.9896 N   0  0  0  0  0  0  0  0  0  0  0  0
   46.7000    6.8166   12.8405 N   0  0  0  0  0  0  0  0  0  0  0  0
   46.1244    5.4656   12.8337 C   0  0  0  0  0  0  0  0  0  0  0  0
   44.5867    5.5064   12.9249 C   0  0  0  0  0  0  0  0  0  0  0  0
   46.7848    9.0179   11.5728 H   0  0  0  0  0  0  0  0  0  0  0  0
   48.9587    8.3279   12.7415 H   0  0  0  0  0  0  0  0  0  0  0  0
   47.5196    3.7108   13.6106 H   0  0  0  0  0  0  0  0  0  0  0  0
   46.9684    4.5130   15.1113 H   0  0  0  0  0  0  0  0  0  0  0  0
   46.0048    3.2060   14.3901 H   0  0  0  0  0  0  0  0  0  0  0  0
   42.0345    5.5553   12.7328 H   0  0  0  0  0  0  0  0  0  0  0  0
   42.2407    6.5025   11.2394 H   0  0  0  0  0  0  0  0  0  0  0  0
   42.5826    4.7553   11.2448 H   0  0  0  0  0  0  0  0  0  0  0  0
   46.2137    9.3509   12.1393 H   0  0  0  0  0  0  0  0  0  0  0  0
   48.4173    8.9063   13.3698 H   0  0  0  0  0  0  0  0  0  0  0  0
   46.4631    3.1214   13.9977 H   0  0  0  0  0  0  0  0  0  0  0  0
   47.1034    4.4539   14.9833 H   0  0  0  0  0  0  0  0  0  0  0  0
   47.8855    4.0241   13.4332 H   0  0  0  0  0  0  0  0  0  0  0  0
   42.1952    4.9129   12.3829 H   0  0  0  0  0  0  0  0  0  0  0  0
   42.9689    4.4801   10.8438 H   0  0  0  0  0  0  0  0  0  0  0  0
   42.2858    6.1089   11.0673 H   0  0  0  0  0  0  0  0  0  0  0  0
   44.6048    7.3223   12.0711 H   0  0  0  0  0  0  0  0  0  0  0  0
   44.2088    6.1647   11.0394 H   0  0  0  0  0  0  0  0  0  0  0  0
   46.4456    7.2811   13.7127 H   0  0  0  0  0  0  0  0  0  0  0  0
   47.7170    6.7443   12.8447 H   0  0  0  0  0  0  0  0  0  0  0  0
   46.4228    4.9687   11.9040 H   0  0  0  0  0  0  0  0  0  0  0  0
   46.5289    4.8848   13.6693 H   0  0  0  0  0  0  0  0  0  0  0  0
   44.1692    4.5143   12.7258 H   0  0  0  0  0  0  0  0  0  0  0  0
   44.2894    5.7926   13.9400 H   0  0  0  0  0  0  0  0  0  0  0  0
  2  1  1  0
  3  4  1  0
  4  1  1  0
  5  2  2  0
  6  3  1  0
  7  2  1  0
  8  5  1  0
  9  7  2  0
 10  4  2  0
 11  6  2  0
 12  1  1  0
 13  3  1  0
  5  6  1  0
  8  9  1  0
 15 14  1  0
 16 17  1  0
 17 14  1  0
 18 15  2  0
 19 16  1  0
 20 15  1  0
 21 18  1  0
 22 20  2  0
 23 17  2  0
 24 19  2  0
 25 14  1  0
 26 16  1  0
 18 19  1  0
 21 22  1  0
 28 29  1  0
 29 30  1  0
 30 27  1  0
  8 31  1  0
  9 32  1  0
 12 33  1  0
 12 34  1  0
 12 35  1  0
 13 36  1  0
 13 37  1  0
 13 38  1  0
 21 39  1  0
 22 40  1  0
 25 41  1  0
 25 42  1  0
 25 43  1  0
 26 44  1  0
 26 45  1  0
 26 46  1  0
 27 47  1  0
 27 48  1  0
 28 49  1  0
 28 50  1  0
 29 51  1  0
 29 52  1  0
 30 53  1  0
 30 54  1  0
M  END
> <Uni-Dock RESULT> 
ENERGY=   -6.651  LOWER_BOUND=    1.696  UPPER_BOUND=    3.386
INTER + INTRA:          -6.651
INTER:                  -6.651
INTRA:                   0.000
UNBOUND:                 0.000

$$$$

     RDKit          3D

 54 55  0  0  0  0  0  0  0  0999 V2000
   46.1518    5.5173   13.2494 N   0  0  0  0  0  0  0  0  0  0  0  0
   45.8780    6.7634   12.7406 C   0  0  0  0  0  0  0  0  0  0  0  0
   44.1923    4.7312   12.1124 N   0  0  0  0  0  0  0  0  0  0  0  0
   45.3007    4.4528   12.9424 C   0  0  0  0  0  0  0  0  0  0  0  0
   44.7988    6.9860   11.9456 C   0  0  0  0  0  0  0  0  0  0  0  0
   43.8735    5.9797   11.5728 C   0  0  0  0  0  0  0  0  0  0  0  0
   46.5994    7.9013   12.9399 N   0  0  0  0  0  0  0  0  0  0  0  0
   44.8432    8.3128   11.6335 N   0  0  0  0  0  0  0  0  0  0  0  0
   45.9510    8.8254   12.2583 C   0  0  0  0  0  0  0  0  0  0  0  0
   45.4997    3.3129   13.3729 O   0  0  0  0  0  0  0  0  0  0  0  0
   42.9080    6.2130   10.8532 O   0  0  0  0  0  0  0  0  0  0  0  0
   47.3135    5.3158   14.0956 C   0  0  0  0  0  0  0  0  0  0  0  0
   43.3224    3.6129   11.8066 C   0  0  0  0  0  0  0  0  0  0  0  0
   46.2524    5.6080   13.1352 N   0  0  0  0  0  0  0  0  0  0  0  0
   45.7078    6.8362   12.8496 C   0  0  0  0  0  0  0  0  0  0  0  0
   44.3832    4.6252   11.9992 N   0  0  0  0  0  0  0  0  0  0  0  0
   45.5917    4.4528   12.7098 C   0  0  0  0  0  0  0  0  0  0  0  0
   44.5414    6.9550   12.1628 C   0  0  0  0  0  0  0  0  0  0  0  0
   43.7916    5.8513   11.6859 C   0  0  0  0  0  0  0  0  0  0  0  0
   46.2183    8.0525   13.1883 N   0  0  0  0  0  0  0  0  0  0  0  0
   44.3100    8.2955   12.0661 N   0  0  0  0  0  0  0  0  0  0  0  0
   45.3524    8.9198   12.7017 C   0  0  0  0  0  0  0  0  0  0  0  0
   46.0363    3.3243   12.9399 O   0  0  0  0  0  0  0  0  0  0  0  0
   42.7411    5.9919   11.0685 O   0  0  0  0  0  0  0  0  0  0  0  0
   47.4998    5.5184   13.8714 C   0  0  0  0  0  0  0  0  0  0  0  0
   43.7143    3.4140   11.5672 C   0  0  0  0  0  0  0  0  0  0  0  0
   43.8028    5.1395   11.8268 N   0  0  0  0  0  0  0  0  0  0  0  0
   45.5537    7.2562   12.5202 N   0  0  0  0  0  0  0  0  0  0  0  0
   46.0267    5.8735   12.6640 C   0  0  0  0  0  0  0  0  0  0  0  0
   44.8524    4.8883   12.8211 C   0  0  0  0  0  0  0  0  0  0  0  0
   44.1832    8.8146   11.0529 H   0  0  0  0  0  0  0  0  0  0  0  0
   46.2296    9.8683   12.1796 H   0  0  0  0  0  0  0  0  0  0  0  0
   48.2147    5.5826   13.5345 H   0  0  0  0  0  0  0  0  0  0  0  0
   47.2278    5.9568   14.9786 H   0  0  0  0  0  0  0  0  0  0  0  0
   47.4023    4.2774   14.4255 H   0  0  0  0  0  0  0  0  0  0  0  0
   42.9250    3.2053   12.7420 H   0  0  0  0  0  0  0  0  0  0  0  0
   42.4878    3.8951   11.1599 H   0  0  0  0  0  0  0  0  0  0  0  0
   43.9078    2.8319   11.3105 H   0  0  0  0  0  0  0  0  0  0  0  0
   43.5203    8.7363   11.6118 H   0  0  0  0  0  0  0  0  0  0  0  0
   45.4234    9.9974   12.7761 H   0  0  0  0  0  0  0  0  0  0  0  0
   47.8108    4.4814   14.0220 H   0  0  0  0  0  0  0  0  0  0  0  0
   47.3713    5.9904   14.8506 H   0  0  0  0  0  0  0  0  0  0  0  0
   48.2829    6.0404   13.3125 H   0  0  0  0  0  0  0  0  0  0  0  0
   43.4830    2.8029   12.4458 H   0  0  0  0  0  0  0  0  0  0  0  0
   44.3901    2.8460   10.9193 H   0  0  0  0  0  0  0  0  0  0  0  0
   42.7887    3.6172   11.0229 H   0  0  0  0  0  0  0  0  0  0  0  0
   43.6779    6.1583   11.8039 H   0  0  0  0  0  0  0  0  0  0  0  0
   44.1838    4.9367   10.9023 H   0  0  0  0  0  0  0  0  0  0  0  0
   45.0304    7.5164   13.3566 H   0  0  0  0  0  0  0  0  0  0  0  0
   46.3589    7.8807   12.4846 H   0  0  0  0  0  0  0  0  0  0  0  0
   46.6060    5.6130   11.7713 H   0  0  0  0  0  0  0  0  0  0  0  0
   46.6923    5.7963   13.5301 H   0  0  0  0  0  0  0  0  0  0  0  0
   45.2089    3.8570   12.7334 H   0  0  0  0  0  0  0  0  0  0  0  0
   44.4122    5.0023   13.8181 H   0  0  0  0  0  0  0  0  0  0  0  0
  2  1  1  0
  3  4  1  0
  4  1  1  0
  5  2  2  0
  6  3  1  0
  7  2  1  0
  8  5  1  0
  9  7  2  0
 10  4  2  0
 11  6  2  0
 12  1  1  0
 13  3  1  0
  5  6  1  0
  8  9  1  0
 15 14  1  0
 16 17  1  0
 17 14  1  0
 18 15  2  0
 19 16  1  0
 20 15  1  0
 21 18  1  0
 22 20  2  0
 23 17  2  0
 24 19  2  0
 25 14  1  0
 26 16  1  0
 18 19  1  0
 21 22  1  0
 28 29  1  0
 29 30  1  0
 30 27  1  0
  8 31  1  0
  9 32  1  0
 12 33  1  0
 12 34  1  0
 12 35  1  0
 13 36  1  0
 13 37  1  0
 13 38  1  0
 21 39  1  0
 22 40  1  0
 25 41  1  0
 25 42  1  0
 25 43  1  0
 26 44  1  0
 26 45  1  0
 26 46  1  0
 27 47  1  0
 27 48  1  0
 28 49  1  0
 28 50  1  0
 29 51  1  0
 29 52  1  0
 30 53  1  0
 30 54  1  0
M  END
> <Uni-Dock RESULT> 
ENERGY=   -6.552  LOWER_BOUND=    1.326  UPPER_BOUND=    3.358
INTER + INTRA:          -6.552
INTER:                  -6.552
INTRA:                   0.000
UNBOUND:                 0.000

$$$$

     RDKit          3D

 54 55  0  0  0  0  0  0  0  0999 V2000
   45.0628    7.7005   12.1670 N   0  0  0  0  0  0  0  0  0  0  0  0
   44.3485    6.5334   12.0477 C   0  0  0  0  0  0  0  0  0  0  0  0
   46.7279    6.4446   13.3505 N   0  0  0  0  0  0  0  0  0  0  0  0
   46.2909    7.6840   12.8329 C   0  0  0  0  0  0  0  0  0  0  0  0
   44.8077    5.3625   12.5621 C   0  0  0  0  0  0  0  0  0  0  0  0
   46.0373    5.2340   13.2544 C   0  0  0  0  0  0  0  0  0  0  0  0
   43.1432    6.3749   11.4338 N   0  0  0  0  0  0  0  0  0  0  0  0
   43.8559    4.4335   12.2606 N   0  0  0  0  0  0  0  0  0  0  0  0
   42.8671    5.0934   11.5771 C   0  0  0  0  0  0  0  0  0  0  0  0
   46.9734    8.7038   12.9688 O   0  0  0  0  0  0  0  0  0  0  0  0
   46.4240    4.1619   13.7076 O   0  0  0  0  0  0  0  0  0  0  0  0
   44.5419    8.9332   11.6054 C   0  0  0  0  0  0  0  0  0  0  0  0
   48.0042    6.4500   14.0375 C   0  0  0  0  0  0  0  0  0  0  0  0
   45.0239    7.6167   12.0158 N   0  0  0  0  0  0  0  0  0  0  0  0
   44.2697    6.4916   12.2432 C   0  0  0  0  0  0  0  0  0  0  0  0
   46.8321    6.5112   13.1378 N   0  0  0  0  0  0  0  0  0  0  0  0
   46.3460    7.6546   12.4657 C   0  0  0  0  0  0  0  0  0  0  0  0
   44.7788    5.4135   12.8952 C   0  0  0  0  0  0  0  0  0  0  0  0
   46.1040    5.3464   13.3920 C   0  0  0  0  0  0  0  0  0  0  0  0
   42.9741    6.2908   11.8745 N   0  0  0  0  0  0  0  0  0  0  0  0
   43.7659    4.5014   12.9381 N   0  0  0  0  0  0  0  0  0  0  0  0
   42.6931    5.0774   12.3073 C   0  0  0  0  0  0  0  0  0  0  0  0
   47.0678    8.6405   12.2887 O   0  0  0  0  0  0  0  0  0  0  0  0
   46.5341    4.3578   13.9771 O   0  0  0  0  0  0  0  0  0  0  0  0
   44.4475    8.7501   11.3163 C   0  0  0  0  0  0  0  0  0  0  0  0
   48.2059    6.5716   13.5959 C   0  0  0  0  0  0  0  0  0  0  0  0
   46.6207    5.8422   13.5102 N   0  0  0  0  0  0  0  0  0  0  0  0
   44.1234    5.9596   12.1772 N   0  0  0  0  0  0  0  0  0  0  0  0
   45.0942    7.0383   11.9531 C   0  0  0  0  0  0  0  0  0  0  0  0
   46.0897    7.1544   13.1235 C   0  0  0  0  0  0  0  0  0  0  0  0
   43.8814    3.4500   12.4984 H   0  0  0  0  0  0  0  0  0  0  0  0
   41.9802    4.5909   11.2133 H   0  0  0  0  0  0  0  0  0  0  0  0
   44.4097    8.8062   10.5263 H   0  0  0  0  0  0  0  0  0  0  0  0
   43.5762    9.1571   12.0695 H   0  0  0  0  0  0  0  0  0  0  0  0
   45.2158    9.7764   11.7778 H   0  0  0  0  0  0  0  0  0  0  0  0
   47.9510    7.1462   14.8811 H   0  0  0  0  0  0  0  0  0  0  0  0
   48.2841    5.4616   14.4104 H   0  0  0  0  0  0  0  0  0  0  0  0
   48.7783    6.8017   13.3476 H   0  0  0  0  0  0  0  0  0  0  0  0
   43.8057    3.5804   13.3558 H   0  0  0  0  0  0  0  0  0  0  0  0
   41.7446    4.5678   12.1963 H   0  0  0  0  0  0  0  0  0  0  0  0
   45.1634    9.5690   11.2073 H   0  0  0  0  0  0  0  0  0  0  0  0
   43.5824    9.1148   11.8790 H   0  0  0  0  0  0  0  0  0  0  0  0
   44.1283    8.4301   10.3194 H   0  0  0  0  0  0  0  0  0  0  0  0
   48.3144    7.4161   14.2843 H   0  0  0  0  0  0  0  0  0  0  0  0
   48.8609    6.7412   12.7350 H   0  0  0  0  0  0  0  0  0  0  0  0
   48.5190    5.6567   14.1049 H   0  0  0  0  0  0  0  0  0  0  0  0
   45.8137    5.2076   13.5243 H   0  0  0  0  0  0  0  0  0  0  0  0
   47.1788    5.4827   12.7355 H   0  0  0  0  0  0  0  0  0  0  0  0
   43.5939    6.1610   13.0259 H   0  0  0  0  0  0  0  0  0  0  0  0
   43.4462    5.9585   11.4149 H   0  0  0  0  0  0  0  0  0  0  0  0
   45.6405    6.8234   11.0280 H   0  0  0  0  0  0  0  0  0  0  0  0
   44.5687    7.9897   11.8190 H   0  0  0  0  0  0  0  0  0  0  0  0
   46.9128    7.8245   12.8555 H   0  0  0  0  0  0  0  0  0  0  0  0
   45.5812    7.5865   13.9927 H   0  0  0  0  0  0  0  0  0  0  0  0
  2  1  1  0
  3  4  1  0
  4  1  1  0
  5  2  2  0
  6  3  1  0
  7  2  1  0
  8  5  1  0
  9  7  2  0
 10  4  2  0
 11  6  2  0
 12  1  1  0
 13  3  1  0
  5  6  1  0
  8  9  1  0
 15 14  1  0
 16 17  1  0
 17 14  1  0
 18 15  2  0
 19 16  1  0
 20 15  1  0
 21 18  1  0
 22 20  2  0
 23 17  2  0
 24 19  2  0
 25 14  1  0
 26 16  1  0
 18 19  1  0
 21 22  1  0
 28 29  1  0
 29 30  1  0
 30 27  1  0
  8 31  1  0
  9 32  1  0
 12 33  1  0
 12 34  1  0
 12 35  1  0
 13 36  1  0
 13 37  1  0
 13 38  1  0
 21 39  1  0
 22 40  1  0
 25 41  1  0
 25 42  1  0
 25 43  1  0
 26 44  1  0
 26 45  1  0
 26 46  1  0
 27 47  1  0
 27 48  1  0
 28 49  1  0
 28 50  1  0
 29 51  1  0
 29 52  1  0
 30 53  1  0
 30 54  1  0
M  END
> <Uni-Dock RESULT> 
ENERGY=   -6.504  LOWER_BOUND=    1.734  UPPER_BOUND=    3.109
INTER + INTRA:          -6.504
INTER:                  -6.504
INTRA:                   0.000
UNBOUND:                 0.000

$$$$

     RDKit          3D

 54 55  0  0  0  0  0  0  0  0999 V2000
   44.2821    4.5488   12.1710 N   0  0  0  0  0  0  0  0  0  0  0  0
   45.4943    4.5106   12.8157 C   0  0  0  0  0  0  0  0  0  0  0  0
   44.5476    6.9274   12.0227 N   0  0  0  0  0  0  0  0  0  0  0  0
   43.7705    5.7794   11.7519 C   0  0  0  0  0  0  0  0  0  0  0  0
   46.2084    5.6414   13.0559 C   0  0  0  0  0  0  0  0  0  0  0  0
   45.7832    6.9381   12.6744 C   0  0  0  0  0  0  0  0  0  0  0  0
   46.1322    3.4032   13.2865 N   0  0  0  0  0  0  0  0  0  0  0  0
   47.3369    5.2299   13.7016 N   0  0  0  0  0  0  0  0  0  0  0  0
   47.2462    3.8666   13.8187 C   0  0  0  0  0  0  0  0  0  0  0  0
   42.6863    5.8711   11.1685 O   0  0  0  0  0  0  0  0  0  0  0  0
   46.4513    7.9402   12.9063 O   0  0  0  0  0  0  0  0  0  0  0  0
   43.5462    3.3211   11.9313 C   0  0  0  0  0  0  0  0  0  0  0  0
   43.9983    8.1935   11.5796 C   0  0  0  0  0  0  0  0  0  0  0  0
   44.4295    4.4704   12.1118 N   0  0  0  0  0  0  0  0  0  0  0  0
   45.4599    4.5907   13.0120 C   0  0  0  0  0  0  0  0  0  0  0  0
   44.5630    6.8432   11.7921 N   0  0  0  0  0  0  0  0  0  0  0  0
   43.9476    5.6135   11.4693 C   0  0  0  0  0  0  0  0  0  0  0  0
   46.0224    5.7954   13.2927 C   0  0  0  0  0  0  0  0  0  0  0  0
   45.6114    7.0147   12.6993 C   0  0  0  0  0  0  0  0  0  0  0  0
   46.0440    3.5854   13.7210 N   0  0  0  0  0  0  0  0  0  0  0  0
   46.9961    5.5379   14.2121 N   0  0  0  0  0  0  0  0  0  0  0  0
   46.9718    4.1860   14.4404 C   0  0  0  0  0  0  0  0  0  0  0  0
   43.0234    5.5624   10.6522 O   0  0  0  0  0  0  0  0  0  0  0  0
   46.1398    8.0869   12.9742 O   0  0  0  0  0  0  0  0  0  0  0  0
   43.8521    3.1678   11.8365 C   0  0  0  0  0  0  0  0  0  0  0  0
   44.0478    8.0163   11.1141 C   0  0  0  0  0  0  0  0  0  0  0  0
   45.0262    7.2150   12.3196 N   0  0  0  0  0  0  0  0  0  0  0  0
   45.9836    4.6878   13.1705 N   0  0  0  0  0  0  0  0  0  0  0  0
   44.9514    4.7365   12.1270 C   0  0  0  0  0  0  0  0  0  0  0  0
   44.1456    6.0483   12.1906 C   0  0  0  0  0  0  0  0  0  0  0  0
   48.0905    5.8215   14.0279 H   0  0  0  0  0  0  0  0  0  0  0  0
   48.0155    3.2740   14.2966 H   0  0  0  0  0  0  0  0  0  0  0  0
   44.1578    2.6522   11.3175 H   0  0  0  0  0  0  0  0  0  0  0  0
   43.3285    2.8419   12.8909 H   0  0  0  0  0  0  0  0  0  0  0  0
   42.6026    3.5063   11.4116 H   0  0  0  0  0  0  0  0  0  0  0  0
   43.0261    8.3468   12.0595 H   0  0  0  0  0  0  0  0  0  0  0  0
   44.6485    9.0391   11.8174 H   0  0  0  0  0  0  0  0  0  0  0  0
   43.8466    8.1558   10.4958 H   0  0  0  0  0  0  0  0  0  0  0  0
   47.6130    6.2177   14.6386 H   0  0  0  0  0  0  0  0  0  0  0  0
   47.6477    3.7036   15.1348 H   0  0  0  0  0  0  0  0  0  0  0  0
   43.0457    3.2264   11.1009 H   0  0  0  0  0  0  0  0  0  0  0  0
   43.4483    2.7525   12.7654 H   0  0  0  0  0  0  0  0  0  0  0  0
   44.6323    2.5059   11.4476 H   0  0  0  0  0  0  0  0  0  0  0  0
   42.9830    8.1221   11.3462 H   0  0  0  0  0  0  0  0  0  0  0  0
   44.1538    7.8777   10.0332 H   0  0  0  0  0  0  0  0  0  0  0  0
   44.5673    8.9320   11.4069 H   0  0  0  0  0  0  0  0  0  0  0  0
   45.7300    6.9573   13.0213 H   0  0  0  0  0  0  0  0  0  0  0  0
   45.5770    7.2953   11.4645 H   0  0  0  0  0  0  0  0  0  0  0  0
   45.5336    4.7403   14.0848 H   0  0  0  0  0  0  0  0  0  0  0  0
   46.4485    3.7810   13.1357 H   0  0  0  0  0  0  0  0  0  0  0  0
   45.4437    4.6564   11.1516 H   0  0  0  0  0  0  0  0  0  0  0  0
   44.2751    3.8817   12.2327 H   0  0  0  0  0  0  0  0  0  0  0  0
   43.5194    6.1516   11.2987 H   0  0  0  0  0  0  0  0  0  0  0  0
   43.4801    6.0253   13.0609 H   0  0  0  0  0  0  0  0  0  0  0  0
  2  1  1  0
  3  4  1  0
  4  1  1  0
  5  2  2  0
  6  3  1  0
  7  2  1  0
  8  5  1  0
  9  7  2  0
 10  4  2  0
 11  6  2  0
 12  1  1  0
 13  3  1  0
  5  6  1  0
  8  9  1  0
 15 14  1  0
 16 17  1  0
 17 14  1  0
 18 15  2  0
 19 16  1  0
 20 15  1  0
 21 18  1  0
 22 20  2  0
 23 17  2  0
 24 19  2  0
 25 14  1  0
 26 16  1  0
 18 19  1  0
 21 22  1  0
 28 29  1  0
 29 30  1  0
 30 27  1  0
  8 31  1  0
  9 32  1  0
 12 33  1  0
 12 34  1  0
 12 35  1  0
 13 36  1  0
 13 37  1  0
 13 38  1  0
 21 39  1  0
 22 40  1  0
 25 41  1  0
 25 42  1  0
 25 43  1  0
 26 44  1  0
 26 45  1  0
 26 46  1  0
 27 47  1  0
 27 48  1  0
 28 49  1  0
 28 50  1  0
 29 51  1  0
 29 52  1  0
 30 53  1  0
 30 54  1  0
M  END
> <Uni-Dock RESULT> 
ENERGY=   -6.378  LOWER_BOUND=    0.942  UPPER_BOUND=    3.006
INTER + INTRA:          -6.378
INTER:                  -6.378
INTRA:                   0.000
UNBOUND:                 0.000

$$$$

     RDKit          3D

 54 55  0  0  0  0  0  0  0  0999 V2000
   44.6968    6.2010   12.0845 N   0  0  0  0  0  0  0  0  0  0  0  0
   44.4746    4.8684   11.8368 C   0  0  0  0  0  0  0  0  0  0  0  0
   46.5332    5.5348   13.4753 N   0  0  0  0  0  0  0  0  0  0  0  0
   45.7495    6.5728   12.9244 C   0  0  0  0  0  0  0  0  0  0  0  0
   45.2543    3.9024   12.3893 C   0  0  0  0  0  0  0  0  0  0  0  0
   46.3455    4.1684   13.2531 C   0  0  0  0  0  0  0  0  0  0  0  0
   43.4993    4.3378   11.0481 N   0  0  0  0  0  0  0  0  0  0  0  0
   44.7506    2.7208   11.9310 N   0  0  0  0  0  0  0  0  0  0  0  0
   43.6887    3.0350   11.1224 C   0  0  0  0  0  0  0  0  0  0  0  0
   45.9934    7.7556   13.1809 O   0  0  0  0  0  0  0  0  0  0  0  0
   47.0306    3.2732   13.7364 O   0  0  0  0  0  0  0  0  0  0  0  0
   43.8439    7.2062   11.4776 C   0  0  0  0  0  0  0  0  0  0  0  0
   47.6197    5.9425   14.3437 C   0  0  0  0  0  0  0  0  0  0  0  0
   44.7109    6.1201   11.9276 N   0  0  0  0  0  0  0  0  0  0  0  0
   44.3914    4.7873   12.0175 C   0  0  0  0  0  0  0  0  0  0  0  0
   46.6330    5.6492   13.2818 N   0  0  0  0  0  0  0  0  0  0  0  0
   45.8591    6.5915   12.5689 C   0  0  0  0  0  0  0  0  0  0  0  0
   45.1656    3.9156   12.7154 C   0  0  0  0  0  0  0  0  0  0  0  0
   46.3485    4.2868   13.4014 C   0  0  0  0  0  0  0  0  0  0  0  0
   43.3160    4.1676   11.4570 N   0  0  0  0  0  0  0  0  0  0  0  0
   44.5544    2.7030   12.5890 N   0  0  0  0  0  0  0  0  0  0  0  0
   43.4383    2.9053   11.8183 C   0  0  0  0  0  0  0  0  0  0  0  0
   46.1924    7.7793   12.5211 O   0  0  0  0  0  0  0  0  0  0  0  0
   47.0262    3.4752   14.0232 O   0  0  0  0  0  0  0  0  0  0  0  0
   43.8607    7.0230   11.1739 C   0  0  0  0  0  0  0  0  0  0  0  0
   47.8197    6.1594   13.9394 C   0  0  0  0  0  0  0  0  0  0  0  0
   46.6309    4.9236   13.6050 N   0  0  0  0  0  0  0  0  0  0  0  0
   44.4571    4.2443   11.9196 N   0  0  0  0  0  0  0  0  0  0  0  0
   44.9930    5.6104   11.8640 C   0  0  0  0  0  0  0  0  0  0  0  0
   45.7171    5.9866   13.1710 C   0  0  0  0  0  0  0  0  0  0  0  0
   45.0984    1.7957   12.1497 H   0  0  0  0  0  0  0  0  0  0  0  0
   43.0989    2.2785   10.6210 H   0  0  0  0  0  0  0  0  0  0  0  0
   43.9088    7.1193   10.3884 H   0  0  0  0  0  0  0  0  0  0  0  0
   42.8108    7.0389   11.7981 H   0  0  0  0  0  0  0  0  0  0  0  0
   44.1389    8.2187   11.7651 H   0  0  0  0  0  0  0  0  0  0  0  0
   47.2088    6.5114   15.1843 H   0  0  0  0  0  0  0  0  0  0  0  0
   48.1865    5.0933   14.7335 H   0  0  0  0  0  0  0  0  0  0  0  0
   48.2975    6.5948   13.7834 H   0  0  0  0  0  0  0  0  0  0  0  0
   44.8694    1.8282   12.9890 H   0  0  0  0  0  0  0  0  0  0  0  0
   42.7612    2.1021   11.5576 H   0  0  0  0  0  0  0  0  0  0  0  0
   44.2400    8.0481   11.1890 H   0  0  0  0  0  0  0  0  0  0  0  0
   42.8566    7.0155   11.6098 H   0  0  0  0  0  0  0  0  0  0  0  0
   43.8119    6.6839   10.1344 H   0  0  0  0  0  0  0  0  0  0  0  0
   47.5247    6.9352   14.6536 H   0  0  0  0  0  0  0  0  0  0  0  0
   48.4757    6.6121   13.1887 H   0  0  0  0  0  0  0  0  0  0  0  0
   48.3728    5.3806   14.4703 H   0  0  0  0  0  0  0  0  0  0  0  0
   46.1133    4.0448   13.4863 H   0  0  0  0  0  0  0  0  0  0  0  0
   47.3773    4.8425   12.9142 H   0  0  0  0  0  0  0  0  0  0  0  0
   43.7846    4.1828   12.6846 H   0  0  0  0  0  0  0  0  0  0  0  0
   43.9319    4.0585   11.0656 H   0  0  0  0  0  0  0  0  0  0  0  0
   45.6959    5.6708   11.0258 H   0  0  0  0  0  0  0  0  0  0  0  0
   44.1816    6.3207   11.6733 H   0  0  0  0  0  0  0  0  0  0  0  0
   46.2700    6.9226   13.0418 H   0  0  0  0  0  0  0  0  0  0  0  0
   44.9780    6.1461   13.9642 H   0  0  0  0  0  0  0  0  0  0  0  0
  2  1  1  0
  3  4  1  0
  4  1  1  0
  5  2  2  0
  6  3  1  0
  7  2  1  0
  8  5  1  0
  9  7  2  0
 10  4  2  0
 11  6  2  0
 12  1  1  0
 13  3  1  0
  5  6  1  0
  8  9  1  0
 15 14  1  0
 16 17  1  0
 17 14  1  0
 18 15  2  0
 19 16  1  0
 20 15  1  0
 21 18  1  0
 22 20  2  0
 23 17  2  0
 24 19  2  0
 25 14  1  0
 26 16  1  0
 18 19  1  0
 21 22  1  0
 28 29  1  0
 29 30  1  0
 30 27  1  0
  8 31  1  0
  9 32  1  0
 12 33  1  0
 12 34  1  0
 12 35  1  0
 13 36  1  0
 13 37  1  0
 13 38  1  0
 21 39  1  0
 22 40  1  0
 25 41  1  0
 25 42  1  0
 25 43  1  0
 26 44  1  0
 26 45  1  0
 26 46  1  0
 27 47  1  0
 27 48  1  0
 28 49  1  0
 28 50  1  0
 29 51  1  0
 29 52  1  0
 30 53  1  0
 30 54  1  0
M  END
> <Uni-Dock RESULT> 
ENERGY=   -6.342  LOWER_BOUND=    1.229  UPPER_BOUND=    2.885
INTER + INTRA:          -6.342
INTER:                  -6.342
INTRA:                   0.000
UNBOUND:                 0.000

$$$$

     RDKit          3D

 54 55  0  0  0  0  0  0  0  0999 V2000
   44.4213    5.8141   12.2681 N   0  0  0  0  0  0  0  0  0  0  0  0
   44.9304    7.0784   12.4382 C   0  0  0  0  0  0  0  0  0  0  0  0
   46.4031    4.9802   13.3302 N   0  0  0  0  0  0  0  0  0  0  0  0
   45.1582    4.7155   12.7176 C   0  0  0  0  0  0  0  0  0  0  0  0
   46.1341    7.2866   13.0334 C   0  0  0  0  0  0  0  0  0  0  0  0
   46.9611    6.2461   13.5245 C   0  0  0  0  0  0  0  0  0  0  0  0
   44.3463    8.2495   12.0612 N   0  0  0  0  0  0  0  0  0  0  0  0
   46.3135    8.6385   13.0304 N   0  0  0  0  0  0  0  0  0  0  0  0
   45.2049    9.1794   12.4314 C   0  0  0  0  0  0  0  0  0  0  0  0
   44.7479    3.5580   12.5899 O   0  0  0  0  0  0  0  0  0  0  0  0
   48.0437    6.4670   14.0570 O   0  0  0  0  0  0  0  0  0  0  0  0
   43.1322    5.6287   11.6279 C   0  0  0  0  0  0  0  0  0  0  0  0
   47.1510    3.8265   13.7889 C   0  0  0  0  0  0  0  0  0  0  0  0
   44.3515    5.9422   12.3686 N   0  0  0  0  0  0  0  0  0  0  0  0
   45.0911    7.0974   12.2969 C   0  0  0  0  0  0  0  0  0  0  0  0
   46.2183    4.9334   13.4857 N   0  0  0  0  0  0  0  0  0  0  0  0
   44.9069    4.8127   12.9748 C   0  0  0  0  0  0  0  0  0  0  0  0
   46.3506    7.1684   12.8020 C   0  0  0  0  0  0  0  0  0  0  0  0
   47.0077    6.0849   13.4360 C   0  0  0  0  0  0  0  0  0  0  0  0
   44.7038    8.2799   11.7433 N   0  0  0  0  0  0  0  0  0  0  0  0
   46.7706    8.4424   12.5569 N   0  0  0  0  0  0  0  0  0  0  0  0
   45.7395    9.0780   11.9140 C   0  0  0  0  0  0  0  0  0  0  0  0
   44.2867    3.7491   13.0656 O   0  0  0  0  0  0  0  0  0  0  0  0
   48.1464    6.1808   13.8819 O   0  0  0  0  0  0  0  0  0  0  0  0
   43.0094    5.9021   11.8181 C   0  0  0  0  0  0  0  0  0  0  0  0
   46.7751    3.7500   14.1105 C   0  0  0  0  0  0  0  0  0  0  0  0
   46.8811    5.3709   13.4672 N   0  0  0  0  0  0  0  0  0  0  0  0
   45.3463    7.5473   12.4999 N   0  0  0  0  0  0  0  0  0  0  0  0
   44.6770    6.2618   12.7365 C   0  0  0  0  0  0  0  0  0  0  0  0
   45.6736    5.0878   12.6829 C   0  0  0  0  0  0  0  0  0  0  0  0
   47.1122    9.1382   13.4003 H   0  0  0  0  0  0  0  0  0  0  0  0
   45.0825   10.2462   12.2954 H   0  0  0  0  0  0  0  0  0  0  0  0
   42.3664    6.1525   12.2086 H   0  0  0  0  0  0  0  0  0  0  0  0
   43.1730    6.0435   10.6158 H   0  0  0  0  0  0  0  0  0  0  0  0
   42.8582    4.5725   11.5614 H   0  0  0  0  0  0  0  0  0  0  0  0
   47.3494    3.1692   12.9359 H   0  0  0  0  0  0  0  0  0  0  0  0
   48.1011    4.1004   14.2543 H   0  0  0  0  0  0  0  0  0  0  0  0
   46.5451    3.2757   14.5159 H   0  0  0  0  0  0  0  0  0  0  0  0
   47.6700    8.8353   12.8044 H   0  0  0  0  0  0  0  0  0  0  0  0
   45.8030   10.1116   11.5988 H   0  0  0  0  0  0  0  0  0  0  0  0
   42.5440    4.9218   11.9493 H   0  0  0  0  0  0  0  0  0  0  0  0
   43.0554    6.1266   10.7477 H   0  0  0  0  0  0  0  0  0  0  0  0
   42.3930    6.6520   12.3239 H   0  0  0  0  0  0  0  0  0  0  0  0
   46.7920    2.9359   13.3784 H   0  0  0  0  0  0  0  0  0  0  0  0
   46.1314    3.4516   14.9445 H   0  0  0  0  0  0  0  0  0  0  0  0
   47.7890    3.9110   14.4851 H   0  0  0  0  0  0  0  0  0  0  0  0
   47.1430    6.3368   13.2377 H   0  0  0  0  0  0  0  0  0  0  0  0
   46.6155    5.4353   14.4502 H   0  0  0  0  0  0  0  0  0  0  0  0
   45.7720    7.5338   11.5726 H   0  0  0  0  0  0  0  0  0  0  0  0
   44.6457    8.2877   12.4788 H   0  0  0  0  0  0  0  0  0  0  0  0
   44.2047    6.2961   13.7245 H   0  0  0  0  0  0  0  0  0  0  0  0
   43.8878    6.1110   11.9924 H   0  0  0  0  0  0  0  0  0  0  0  0
   45.1991    4.1714   13.0482 H   0  0  0  0  0  0  0  0  0  0  0  0
   45.9748    4.9127   11.6440 H   0  0  0  0  0  0  0  0  0  0  0  0
  2  1  1  0
  3  4  1  0
  4  1  1  0
  5  2  2  0
  6  3  1  0
  7  2  1  0
  8  5  1  0
  9  7  2  0
 10  4  2  0
 11  6  2  0
 12  1  1  0
 13  3  1  0
  5  6  1  0
  8  9  1  0
 15 14  1  0
 16 17  1  0
 17 14  1  0
 18 15  2  0
 19 16  1  0
 20 15  1  0
 21 18  1  0
 22 20  2  0
 23 17  2  0
 24 19  2  0
 25 14  1  0
 26 16  1  0
 18 19  1  0
 21 22  1  0
 28 29  1  0
 29 30  1  0
 30 27  1  0
  8 31  1  0
  9 32  1  0
 12 33  1  0
 12 34  1  0
 12 35  1  0
 13 36  1  0
 13 37  1  0
 13 38  1  0
 21 39  1  0
 22 40  1  0
 25 41  1  0
 25 42  1  0
 25 43  1  0
 26 44  1  0
 26 45  1  0
 26 46  1  0
 27 47  1  0
 27 48  1  0
 28 49  1  0
 28 50  1  0
 29 51  1  0
 29 52  1  0
 30 53  1  0
 30 54  1  0
M  END
> <Uni-Dock RESULT> 
ENERGY=   -6.330  LOWER_BOUND=    1.752  UPPER_BOUND=    4.201
INTER + INTRA:          -6.330
INTER:                  -6.330
INTRA:                   0.000
UNBOUND:                 0.000

$$$$

     RDKit          3D

 54 55  0  0  0  0  0  0  0  0999 V2000
   44.9121    6.8989   12.0357 N   0  0  0  0  0  0  0  0  0  0  0  0
   46.0730    6.8797   12.7696 C   0  0  0  0  0  0  0  0  0  0  0  0
   44.7504    4.5364   12.4138 N   0  0  0  0  0  0  0  0  0  0  0  0
   44.2108    5.7071   11.8364 C   0  0  0  0  0  0  0  0  0  0  0  0
   46.5561    5.7288   13.3068 C   0  0  0  0  0  0  0  0  0  0  0  0
   45.9255    4.4678   13.1661 C   0  0  0  0  0  0  0  0  0  0  0  0
   46.8730    7.9437   13.0569 N   0  0  0  0  0  0  0  0  0  0  0  0
   47.7023    6.0824   13.9558 N   0  0  0  0  0  0  0  0  0  0  0  0
   47.8531    7.4334   13.7766 C   0  0  0  0  0  0  0  0  0  0  0  0
   43.1627    5.6676   11.1851 O   0  0  0  0  0  0  0  0  0  0  0  0
   46.3876    3.4462   13.6634 O   0  0  0  0  0  0  0  0  0  0  0  0
   44.4253    8.1465   11.4763 C   0  0  0  0  0  0  0  0  0  0  0  0
   44.0072    3.3115   12.1948 C   0  0  0  0  0  0  0  0  0  0  0  0
   44.9392    6.9805   12.1906 N   0  0  0  0  0  0  0  0  0  0  0  0
   46.2205    6.7851   12.6453 C   0  0  0  0  0  0  0  0  0  0  0  0
   44.5641    4.6377   12.5384 N   0  0  0  0  0  0  0  0  0  0  0  0
   44.0650    5.8927   12.1247 C   0  0  0  0  0  0  0  0  0  0  0  0
   46.6586    5.5587   13.0331 C   0  0  0  0  0  0  0  0  0  0  0  0
   45.8568    4.3908   13.0069 C   0  0  0  0  0  0  0  0  0  0  0  0
   47.1932    7.7299   12.7714 N   0  0  0  0  0  0  0  0  0  0  0  0
   47.9546    5.7390   13.4172 N   0  0  0  0  0  0  0  0  0  0  0  0
   48.2338    7.0700   13.2411 C   0  0  0  0  0  0  0  0  0  0  0  0
   42.9036    6.0120   11.7234 O   0  0  0  0  0  0  0  0  0  0  0  0
   46.2822    3.2971   13.3639 O   0  0  0  0  0  0  0  0  0  0  0  0
   44.5052    8.3043   11.7841 C   0  0  0  0  0  0  0  0  0  0  0  0
   43.6407    3.5230   12.4621 C   0  0  0  0  0  0  0  0  0  0  0  0
   45.2245    4.2239   12.6921 N   0  0  0  0  0  0  0  0  0  0  0  0
   46.6101    6.6727   13.0251 N   0  0  0  0  0  0  0  0  0  0  0  0
   45.1922    6.7103   12.6449 C   0  0  0  0  0  0  0  0  0  0  0  0
   44.7578    5.4032   11.9541 C   0  0  0  0  0  0  0  0  0  0  0  0
   48.3168    5.4624   14.4681 H   0  0  0  0  0  0  0  0  0  0  0  0
   48.6887    7.9828   14.1907 H   0  0  0  0  0  0  0  0  0  0  0  0
   44.2425    8.8554   12.2900 H   0  0  0  0  0  0  0  0  0  0  0  0
   45.1821    8.5533   10.7982 H   0  0  0  0  0  0  0  0  0  0  0  0
   43.4955    8.0078   10.9186 H   0  0  0  0  0  0  0  0  0  0  0  0
   43.9313    3.1293   11.1177 H   0  0  0  0  0  0  0  0  0  0  0  0
   44.4764    2.4457   12.6688 H   0  0  0  0  0  0  0  0  0  0  0  0
   42.9959    3.4320   12.5969 H   0  0  0  0  0  0  0  0  0  0  0  0
   48.5821    5.0246   13.7639 H   0  0  0  0  0  0  0  0  0  0  0  0
   49.2031    7.4937   13.4706 H   0  0  0  0  0  0  0  0  0  0  0  0
   43.4649    8.3071   11.4484 H   0  0  0  0  0  0  0  0  0  0  0  0
   45.1388    8.6511   10.9616 H   0  0  0  0  0  0  0  0  0  0  0  0
   44.6000    8.9880   12.6336 H   0  0  0  0  0  0  0  0  0  0  0  0
   43.3077    3.4075   11.4254 H   0  0  0  0  0  0  0  0  0  0  0  0
   42.7663    3.7420   13.0836 H   0  0  0  0  0  0  0  0  0  0  0  0
   44.0880    2.5840   12.7975 H   0  0  0  0  0  0  0  0  0  0  0  0
   46.1984    4.4227   12.9492 H   0  0  0  0  0  0  0  0  0  0  0  0
   44.7507    4.2045   13.5955 H   0  0  0  0  0  0  0  0  0  0  0  0
   47.1759    6.5544   12.1842 H   0  0  0  0  0  0  0  0  0  0  0  0
   46.8727    7.5761   13.4180 H   0  0  0  0  0  0  0  0  0  0  0  0
   44.5962    6.8604   13.5519 H   0  0  0  0  0  0  0  0  0  0  0  0
   45.0083    7.5595   11.9783 H   0  0  0  0  0  0  0  0  0  0  0  0
   43.6682    5.3721   11.8536 H   0  0  0  0  0  0  0  0  0  0  0  0
   45.1841    5.3652   10.9453 H   0  0  0  0  0  0  0  0  0  0  0  0
  2  1  1  0
  3  4  1  0
  4  1  1  0
  5  2  2  0
  6  3  1  0
  7  2  1  0
  8  5  1  0
  9  7  2  0
 10  4  2  0
 11  6  2  0
 12  1  1  0
 13  3  1  0
  5  6  1  0
  8  9  1  0
 15 14  1  0
 16 17  1  0
 17 14  1  0
 18 15  2  0
 19 16  1  0
 20 15  1  0
 21 18  1  0
 22 20  2  0
 23 17  2  0
 24 19  2  0
 25 14  1  0
 26 16  1  0
 18 19  1  0
 21 22  1  0
 28 29  1  0
 29 30  1  0
 30 27  1  0
  8 31  1  0
  9 32  1  0
 12 33  1  0
 12 34  1  0
 12 35  1  0
 13 36  1  0
 13 37  1  0
 13 38  1  0
 21 39  1  0
 22 40  1  0
 25 41  1  0
 25 42  1  0
 25 43  1  0
 26 44  1  0
 26 45  1  0
 26 46  1  0
 27 47  1  0
 27 48  1  0
 28 49  1  0
 28 50  1  0
 29 51  1  0
 29 52  1  0
 30 53  1  0
 30 54  1  0
M  END
> <Uni-Dock RESULT> 
ENERGY=   -6.225  LOWER_BOUND=    1.513  UPPER_BOUND=    4.224
INTER + INTRA:          -6.225
INTER:                  -6.225
INTRA:                   0.000
UNBOUND:                 0.000

$$$$
