
     RDKit          3D

 54 55  0  0  0  0  0  0  0  0999 V2000
   44.9744    5.0431   10.3648 N   0  0  0  0  0  0  0  0  0  0  0  0
   44.3744    3.9714   10.9797 C   0  0  0  0  0  0  0  0  0  0  0  0
   45.6169    3.5470    8.6044 N   0  0  0  0  0  0  0  0  0  0  0  0
   45.6213    4.8535    9.1412 C   0  0  0  0  0  0  0  0  0  0  0  0
   44.3948    2.7306   10.4263 C   0  0  0  0  0  0  0  0  0  0  0  0
   45.0212    2.4283    9.1918 C   0  0  0  0  0  0  0  0  0  0  0  0
   43.7062    3.9821   12.1664 N   0  0  0  0  0  0  0  0  0  0  0  0
   43.7143    1.9316   11.2971 N   0  0  0  0  0  0  0  0  0  0  0  0
   43.3165    2.7338   12.3357 C   0  0  0  0  0  0  0  0  0  0  0  0
   46.1765    5.7816    8.5457 O   0  0  0  0  0  0  0  0  0  0  0  0
   45.0221    1.2967    8.7184 O   0  0  0  0  0  0  0  0  0  0  0  0
   44.9331    6.3546   10.9847 C   0  0  0  0  0  0  0  0  0  0  0  0
   46.2935    3.3725    7.3343 C   0  0  0  0  0  0  0  0  0  0  0  0
   45.3238    5.0041   10.2856 N   0  0  0  0  0  0  0  0  0  0  0  0
   44.5650    4.1392   11.0357 C   0  0  0  0  0  0  0  0  0  0  0  0
   45.3081    3.3535    8.5462 N   0  0  0  0  0  0  0  0  0  0  0  0
   45.7205    4.6256    9.0005 C   0  0  0  0  0  0  0  0  0  0  0  0
   44.1906    2.9235   10.5577 C   0  0  0  0  0  0  0  0  0  0  0  0
   44.5375    2.4412    9.2714 C   0  0  0  0  0  0  0  0  0  0  0  0
   44.0973    4.3496   12.2973 N   0  0  0  0  0  0  0  0  0  0  0  0
   43.4605    2.3483   11.5558 N   0  0  0  0  0  0  0  0  0  0  0  0
   43.4313    3.2494   12.5890 C   0  0  0  0  0  0  0  0  0  0  0  0
   46.4027    5.3642    8.2840 O   0  0  0  0  0  0  0  0  0  0  0  0
   44.1836    1.3379    8.8689 O   0  0  0  0  0  0  0  0  0  0  0  0
   45.7056    6.2950   10.8279 C   0  0  0  0  0  0  0  0  0  0  0  0
   45.7303    2.9808    7.2106 C   0  0  0  0  0  0  0  0  0  0  0  0
   44.9299    4.3924   11.5726 N   0  0  0  0  0  0  0  0  0  0  0  0
   45.4784    4.6279    8.8030 N   0  0  0  0  0  0  0  0  0  0  0  0
   45.0588    3.3233    9.3308 C   0  0  0  0  0  0  0  0  0  0  0  0
   44.2638    3.4739   10.6421 C   0  0  0  0  0  0  0  0  0  0  0  0
   43.5408    0.9401   11.1909 H   0  0  0  0  0  0  0  0  0  0  0  0
   42.7514    2.3540   13.1772 H   0  0  0  0  0  0  0  0  0  0  0  0
   45.4504    7.1065   10.3830 H   0  0  0  0  0  0  0  0  0  0  0  0
   43.8890    6.6606   11.1043 H   0  0  0  0  0  0  0  0  0  0  0  0
   45.4144    6.3011   11.9664 H   0  0  0  0  0  0  0  0  0  0  0  0
   47.3416    3.6692    7.4461 H   0  0  0  0  0  0  0  0  0  0  0  0
   45.8268    4.0260    6.5900 H   0  0  0  0  0  0  0  0  0  0  0  0
   46.2532    2.3411    6.9758 H   0  0  0  0  0  0  0  0  0  0  0  0
   43.0276    1.4337   11.5312 H   0  0  0  0  0  0  0  0  0  0  0  0
   42.9139    3.0484   13.5182 H   0  0  0  0  0  0  0  0  0  0  0  0
   46.3059    6.8730   10.1204 H   0  0  0  0  0  0  0  0  0  0  0  0
   46.2921    6.1403   11.7391 H   0  0  0  0  0  0  0  0  0  0  0  0
   44.8014    6.8642   11.0657 H   0  0  0  0  0  0  0  0  0  0  0  0
   45.3788    1.9874    6.9213 H   0  0  0  0  0  0  0  0  0  0  0  0
   45.3441    3.7162    6.4972 H   0  0  0  0  0  0  0  0  0  0  0  0
   46.8243    2.9975    7.1659 H   0  0  0  0  0  0  0  0  0  0  0  0
   45.2299    5.1946   11.0063 H   0  0  0  0  0  0  0  0  0  0  0  0
   45.8148    3.9721   11.8576 H   0  0  0  0  0  0  0  0  0  0  0  0
   44.6489    5.1896    8.6092 H   0  0  0  0  0  0  0  0  0  0  0  0
   45.9425    4.4896    7.9056 H   0  0  0  0  0  0  0  0  0  0  0  0
   45.9556    2.7211    9.5136 H   0  0  0  0  0  0  0  0  0  0  0  0
   44.4491    2.7999    8.5868 H   0  0  0  0  0  0  0  0  0  0  0  0
   43.2684    3.8747   10.4208 H   0  0  0  0  0  0  0  0  0  0  0  0
   44.1283    2.4968   11.1170 H   0  0  0  0  0  0  0  0  0  0  0  0
  2  1  1  0
  3  4  1  0
  4  1  1  0
  5  2  2  0
  6  3  1  0
  7  2  1  0
  8  5  1  0
  9  7  2  0
 10  4  2  0
 11  6  2  0
 12  1  1  0
 13  3  1  0
  5  6  1  0
  8  9  1  0
 15 14  1  0
 16 17  1  0
 17 14  1  0
 18 15  2  0
 19 16  1  0
 20 15  1  0
 21 18  1  0
 22 20  2  0
 23 17  2  0
 24 19  2  0
 25 14  1  0
 26 16  1  0
 18 19  1  0
 21 22  1  0
 28 29  1  0
 29 30  1  0
 30 27  1  0
  8 31  1  0
  9 32  1  0
 12 33  1  0
 12 34  1  0
 12 35  1  0
 13 36  1  0
 13 37  1  0
 13 38  1  0
 21 39  1  0
 22 40  1  0
 25 41  1  0
 25 42  1  0
 25 43  1  0
 26 44  1  0
 26 45  1  0
 26 46  1  0
 27 47  1  0
 27 48  1  0
 28 49  1  0
 28 50  1  0
 29 51  1  0
 29 52  1  0
 30 53  1  0
 30 54  1  0
M  END
> <Uni-Dock RESULT> 
ENERGY=   -7.264  LOWER_BOUND=    0.000  UPPER_BOUND=    0.000
INTER + INTRA:          -7.264
INTER:                  -7.264
INTRA:                   0.000
UNBOUND:                 0.000

$$$$

     RDKit          3D

 54 55  0  0  0  0  0  0  0  0999 V2000
   46.2842    5.6160   12.9075 N   0  0  0  0  0  0  0  0  0  0  0  0
   45.5885    6.7228   12.4862 C   0  0  0  0  0  0  0  0  0  0  0  0
   44.3707    4.3045   12.3005 N   0  0  0  0  0  0  0  0  0  0  0  0
   45.6817    4.3584   12.8234 C   0  0  0  0  0  0  0  0  0  0  0  0
   44.3277    6.6241   11.9893 C   0  0  0  0  0  0  0  0  0  0  0  0
   43.6249    5.4005   11.8603 C   0  0  0  0  0  0  0  0  0  0  0  0
   46.0247    8.0130   12.4990 N   0  0  0  0  0  0  0  0  0  0  0  0
   43.9574    7.8991   11.6782 N   0  0  0  0  0  0  0  0  0  0  0  0
   45.0175    8.7056   12.0044 C   0  0  0  0  0  0  0  0  0  0  0  0
   46.2616    3.3311   13.1878 O   0  0  0  0  0  0  0  0  0  0  0  0
   42.4864    5.3446   11.4074 O   0  0  0  0  0  0  0  0  0  0  0  0
   47.6295    5.7585   13.4330 C   0  0  0  0  0  0  0  0  0  0  0  0
   43.7645    2.9901   12.2220 C   0  0  0  0  0  0  0  0  0  0  0  0
   46.1224    5.4141   13.1583 N   0  0  0  0  0  0  0  0  0  0  0  0
   45.6940    6.6391   12.7087 C   0  0  0  0  0  0  0  0  0  0  0  0
   44.2785    4.4437   11.9714 N   0  0  0  0  0  0  0  0  0  0  0  0
   45.4128    4.2669   12.7943 C   0  0  0  0  0  0  0  0  0  0  0  0
   44.5959    6.7624   11.9178 C   0  0  0  0  0  0  0  0  0  0  0  0
   43.8053    5.6670   11.4903 C   0  0  0  0  0  0  0  0  0  0  0  0
   46.2656    7.8477   12.9678 N   0  0  0  0  0  0  0  0  0  0  0  0
   44.4725    8.0979   11.6705 N   0  0  0  0  0  0  0  0  0  0  0  0
   45.5063    8.7149   12.3271 C   0  0  0  0  0  0  0  0  0  0  0  0
   45.7540    3.1416   13.1703 O   0  0  0  0  0  0  0  0  0  0  0  0
   42.8189    5.8114   10.7757 O   0  0  0  0  0  0  0  0  0  0  0  0
   47.2997    5.3195   14.0017 C   0  0  0  0  0  0  0  0  0  0  0  0
   43.5571    3.2409   11.6056 C   0  0  0  0  0  0  0  0  0  0  0  0
   45.9099    6.8670   13.3308 N   0  0  0  0  0  0  0  0  0  0  0  0
   45.4565    4.1989   12.4925 N   0  0  0  0  0  0  0  0  0  0  0  0
   44.4709    5.2275   12.1363 C   0  0  0  0  0  0  0  0  0  0  0  0
   45.1000    6.6341   12.1296 C   0  0  0  0  0  0  0  0  0  0  0  0
   43.0708    8.1867   11.2835 H   0  0  0  0  0  0  0  0  0  0  0  0
   44.9953    9.7780   11.8596 H   0  0  0  0  0  0  0  0  0  0  0  0
   48.0563    4.7961   13.7274 H   0  0  0  0  0  0  0  0  0  0  0  0
   48.2683    6.2034   12.6636 H   0  0  0  0  0  0  0  0  0  0  0  0
   47.6028    6.4121   14.3107 H   0  0  0  0  0  0  0  0  0  0  0  0
   43.7268    2.5553   13.2263 H   0  0  0  0  0  0  0  0  0  0  0  0
   44.3875    2.3481   11.5907 H   0  0  0  0  0  0  0  0  0  0  0  0
   42.7529    3.0186   11.8098 H   0  0  0  0  0  0  0  0  0  0  0  0
   43.7549    8.5401   11.1103 H   0  0  0  0  0  0  0  0  0  0  0  0
   45.6510    9.7872   12.3009 H   0  0  0  0  0  0  0  0  0  0  0  0
   47.5192    4.2856   14.2809 H   0  0  0  0  0  0  0  0  0  0  0  0
   47.1327    5.9000   14.9146 H   0  0  0  0  0  0  0  0  0  0  0  0
   48.1602    5.7257   13.4608 H   0  0  0  0  0  0  0  0  0  0  0  0
   42.6925    3.4472   10.9699 H   0  0  0  0  0  0  0  0  0  0  0  0
   44.2363    2.5665   11.0739 H   0  0  0  0  0  0  0  0  0  0  0  0
   43.2160    2.7396   12.5174 H   0  0  0  0  0  0  0  0  0  0  0  0
   46.4592    6.0102   13.4676 H   0  0  0  0  0  0  0  0  0  0  0  0
   45.2881    6.8695   14.1396 H   0  0  0  0  0  0  0  0  0  0  0  0
   46.2087    4.2074   11.8031 H   0  0  0  0  0  0  0  0  0  0  0  0
   45.0186    3.2806   12.4221 H   0  0  0  0  0  0  0  0  0  0  0  0
   43.6576    5.1939   12.8695 H   0  0  0  0  0  0  0  0  0  0  0  0
   44.0443    5.0086   11.1517 H   0  0  0  0  0  0  0  0  0  0  0  0
   45.7504    6.7382   11.2539 H   0  0  0  0  0  0  0  0  0  0  0  0
   44.3192    7.3977   12.0536 H   0  0  0  0  0  0  0  0  0  0  0  0
  2  1  1  0
  3  4  1  0
  4  1  1  0
  5  2  2  0
  6  3  1  0
  7  2  1  0
  8  5  1  0
  9  7  2  0
 10  4  2  0
 11  6  2  0
 12  1  1  0
 13  3  1  0
  5  6  1  0
  8  9  1  0
 15 14  1  0
 16 17  1  0
 17 14  1  0
 18 15  2  0
 19 16  1  0
 20 15  1  0
 21 18  1  0
 22 20  2  0
 23 17  2  0
 24 19  2  0
 25 14  1  0
 26 16  1  0
 18 19  1  0
 21 22  1  0
 28 29  1  0
 29 30  1  0
 30 27  1  0
  8 31  1  0
  9 32  1  0
 12 33  1  0
 12 34  1  0
 12 35  1  0
 13 36  1  0
 13 37  1  0
 13 38  1  0
 21 39  1  0
 22 40  1  0
 25 41  1  0
 25 42  1  0
 25 43  1  0
 26 44  1  0
 26 45  1  0
 26 46  1  0
 27 47  1  0
 27 48  1  0
 28 49  1  0
 28 50  1  0
 29 51  1  0
 29 52  1  0
 30 53  1  0
 30 54  1  0
M  END
> <Uni-Dock RESULT> 
ENERGY=   -7.001  LOWER_BOUND=    2.890  UPPER_BOUND=    4.436
INTER + INTRA:          -7.001
INTER:                  -7.001
INTRA:                   0.000
UNBOUND:                 0.000

$$$$

     RDKit          3D

 54 55  0  0  0  0  0  0  0  0999 V2000
   45.7884    4.8480   13.2321 N   0  0  0  0  0  0  0  0  0  0  0  0
   44.7313    4.3115   12.5385 C   0  0  0  0  0  0  0  0  0  0  0  0
   45.1739    6.9806   12.3243 N   0  0  0  0  0  0  0  0  0  0  0  0
   46.0396    6.2192   13.1401 C   0  0  0  0  0  0  0  0  0  0  0  0
   43.9234    5.0827   11.7646 C   0  0  0  0  0  0  0  0  0  0  0  0
   44.0882    6.4805   11.6015 C   0  0  0  0  0  0  0  0  0  0  0  0
   44.3495    3.0044   12.5178 N   0  0  0  0  0  0  0  0  0  0  0  0
   42.9995    4.2289   11.2379 N   0  0  0  0  0  0  0  0  0  0  0  0
   43.2980    2.9813   11.7225 C   0  0  0  0  0  0  0  0  0  0  0  0
   46.9759    6.7530   13.7424 O   0  0  0  0  0  0  0  0  0  0  0  0
   43.3411    7.1494   10.8950 O   0  0  0  0  0  0  0  0  0  0  0  0
   46.6309    3.9944   14.0493 C   0  0  0  0  0  0  0  0  0  0  0  0
   45.4524    8.4009   12.2430 C   0  0  0  0  0  0  0  0  0  0  0  0
   46.0286    5.0318   13.0361 N   0  0  0  0  0  0  0  0  0  0  0  0
   44.9895    4.2813   12.5427 C   0  0  0  0  0  0  0  0  0  0  0  0
   44.8073    6.9836   12.3662 N   0  0  0  0  0  0  0  0  0  0  0  0
   45.9615    6.4251   12.9585 C   0  0  0  0  0  0  0  0  0  0  0  0
   43.8970    4.8617   11.9805 C   0  0  0  0  0  0  0  0  0  0  0  0
   43.7270    6.2625   11.8515 C   0  0  0  0  0  0  0  0  0  0  0  0
   44.8953    2.9227   12.5390 N   0  0  0  0  0  0  0  0  0  0  0  0
   43.0860    3.8299   11.6097 N   0  0  0  0  0  0  0  0  0  0  0  0
   43.7327    2.6750   11.9682 C   0  0  0  0  0  0  0  0  0  0  0  0
   46.8670    7.1471   13.3863 O   0  0  0  0  0  0  0  0  0  0  0  0
   42.7281    6.7559   11.3386 O   0  0  0  0  0  0  0  0  0  0  0  0
   47.1803    4.3783   13.6301 C   0  0  0  0  0  0  0  0  0  0  0  0
   44.7580    8.4306   12.2958 C   0  0  0  0  0  0  0  0  0  0  0  0
   45.4906    3.8349   12.3551 N   0  0  0  0  0  0  0  0  0  0  0  0
   45.7514    6.5389   13.1598 N   0  0  0  0  0  0  0  0  0  0  0  0
   44.6825    6.1830   12.2180 C   0  0  0  0  0  0  0  0  0  0  0  0
   44.3015    4.6943   12.3324 C   0  0  0  0  0  0  0  0  0  0  0  0
   42.2434    4.4755   10.6118 H   0  0  0  0  0  0  0  0  0  0  0  0
   42.7182    2.1051   11.4623 H   0  0  0  0  0  0  0  0  0  0  0  0
   47.4287    4.5583   14.5398 H   0  0  0  0  0  0  0  0  0  0  0  0
   46.0163    3.5171   14.8189 H   0  0  0  0  0  0  0  0  0  0  0  0
   47.0849    3.2271   13.4142 H   0  0  0  0  0  0  0  0  0  0  0  0
   46.4661    8.5429   11.8541 H   0  0  0  0  0  0  0  0  0  0  0  0
   45.4048    8.8308   13.2489 H   0  0  0  0  0  0  0  0  0  0  0  0
   44.7475    8.9303   11.5973 H   0  0  0  0  0  0  0  0  0  0  0  0
   42.1837    3.9090   11.1580 H   0  0  0  0  0  0  0  0  0  0  0  0
   43.3098    1.6950   11.7889 H   0  0  0  0  0  0  0  0  0  0  0  0
   47.9244    5.1000   13.9774 H   0  0  0  0  0  0  0  0  0  0  0  0
   47.6465    3.7278   12.8833 H   0  0  0  0  0  0  0  0  0  0  0  0
   46.8498    3.7786   14.4841 H   0  0  0  0  0  0  0  0  0  0  0  0
   43.8409    8.7969   11.8277 H   0  0  0  0  0  0  0  0  0  0  0  0
   44.8270    8.8386   13.3095 H   0  0  0  0  0  0  0  0  0  0  0  0
   45.6180    8.7881   11.7201 H   0  0  0  0  0  0  0  0  0  0  0  0
   46.1535    4.2922   12.9921 H   0  0  0  0  0  0  0  0  0  0  0  0
   45.9563    3.9102   11.4505 H   0  0  0  0  0  0  0  0  0  0  0  0
   45.4261    6.3662   14.1114 H   0  0  0  0  0  0  0  0  0  0  0  0
   45.9280    7.5413   13.0987 H   0  0  0  0  0  0  0  0  0  0  0  0
   45.0343    6.3936   11.2020 H   0  0  0  0  0  0  0  0  0  0  0  0
   43.8009    6.8055   12.4036 H   0  0  0  0  0  0  0  0  0  0  0  0
   43.7446    4.5312   13.2618 H   0  0  0  0  0  0  0  0  0  0  0  0
   43.6495    4.4055   11.5017 H   0  0  0  0  0  0  0  0  0  0  0  0
  2  1  1  0
  3  4  1  0
  4  1  1  0
  5  2  2  0
  6  3  1  0
  7  2  1  0
  8  5  1  0
  9  7  2  0
 10  4  2  0
 11  6  2  0
 12  1  1  0
 13  3  1  0
  5  6  1  0
  8  9  1  0
 15 14  1  0
 16 17  1  0
 17 14  1  0
 18 15  2  0
 19 16  1  0
 20 15  1  0
 21 18  1  0
 22 20  2  0
 23 17  2  0
 24 19  2  0
 25 14  1  0
 26 16  1  0
 18 19  1  0
 21 22  1  0
 28 29  1  0
 29 30  1  0
 30 27  1  0
  8 31  1  0
  9 32  1  0
 12 33  1  0
 12 34  1  0
 12 35  1  0
 13 36  1  0
 13 37  1  0
 13 38  1  0
 21 39  1  0
 22 40  1  0
 25 41  1  0
 25 42  1  0
 25 43  1  0
 26 44  1  0
 26 45  1  0
 26 46  1  0
 27 47  1  0
 27 48  1  0
 28 49  1  0
 28 50  1  0
 29 51  1  0
 29 52  1  0
 30 53  1  0
 30 54  1  0
M  END
> <Uni-Dock RESULT> 
ENERGY=   -6.946  LOWER_BOUND=    3.119  UPPER_BOUND=    4.105
INTER + INTRA:          -6.946
INTER:                  -6.946
INTRA:                   0.000
UNBOUND:                 0.000

$$$$

     RDKit          3D

 54 55  0  0  0  0  0  0  0  0999 V2000
   44.2058    5.8806   12.3524 N   0  0  0  0  0  0  0  0  0  0  0  0
   44.8977    7.0671   12.3417 C   0  0  0  0  0  0  0  0  0  0  0  0
   46.1763    4.8534   13.2533 N   0  0  0  0  0  0  0  0  0  0  0  0
   44.8393    4.7252   12.8164 C   0  0  0  0  0  0  0  0  0  0  0  0
   46.1843    7.1442   12.7719 C   0  0  0  0  0  0  0  0  0  0  0  0
   46.9196    6.0362   13.2613 C   0  0  0  0  0  0  0  0  0  0  0  0
   44.4332    8.2775   11.9247 N   0  0  0  0  0  0  0  0  0  0  0  0
   46.5420    8.4513   12.6198 N   0  0  0  0  0  0  0  0  0  0  0  0
   45.4491    9.0990   12.1035 C   0  0  0  0  0  0  0  0  0  0  0  0
   44.2641    3.6332   12.8477 O   0  0  0  0  0  0  0  0  0  0  0  0
   48.0809    6.1386   13.6427 O   0  0  0  0  0  0  0  0  0  0  0  0
   42.8324    5.8349   11.8854 C   0  0  0  0  0  0  0  0  0  0  0  0
   46.8146    3.6427   13.7308 C   0  0  0  0  0  0  0  0  0  0  0  0
   44.3589    5.6072   12.1745 N   0  0  0  0  0  0  0  0  0  0  0  0
   44.7828    6.9136   12.1661 C   0  0  0  0  0  0  0  0  0  0  0  0
   46.2823    5.0948   13.5116 N   0  0  0  0  0  0  0  0  0  0  0  0
   45.1113    4.6497   12.8592 C   0  0  0  0  0  0  0  0  0  0  0  0
   45.9172    7.2975   12.8082 C   0  0  0  0  0  0  0  0  0  0  0  0
   46.7526    6.4102   13.5310 C   0  0  0  0  0  0  0  0  0  0  0  0
   44.1722    7.9645   11.5519 N   0  0  0  0  0  0  0  0  0  0  0  0
   46.0237    8.6394   12.5896 N   0  0  0  0  0  0  0  0  0  0  0  0
   44.9442    8.9984   11.8239 C   0  0  0  0  0  0  0  0  0  0  0  0
   44.7760    3.4621   12.8989 O   0  0  0  0  0  0  0  0  0  0  0  0
   47.7711    6.7882   14.1005 O   0  0  0  0  0  0  0  0  0  0  0  0
   43.1421    5.2325   11.4778 C   0  0  0  0  0  0  0  0  0  0  0  0
   47.0479    4.0855   14.2160 C   0  0  0  0  0  0  0  0  0  0  0  0
   44.5302    6.9201   11.5167 N   0  0  0  0  0  0  0  0  0  0  0  0
   45.0847    4.6860   13.1684 N   0  0  0  0  0  0  0  0  0  0  0  0
   46.0645    5.7781   13.1063 C   0  0  0  0  0  0  0  0  0  0  0  0
   45.4058    7.1041   12.6797 C   0  0  0  0  0  0  0  0  0  0  0  0
   47.4412    8.8572   12.8460 H   0  0  0  0  0  0  0  0  0  0  0  0
   45.4551   10.1584   11.8817 H   0  0  0  0  0  0  0  0  0  0  0  0
   42.4123    4.8279   11.9524 H   0  0  0  0  0  0  0  0  0  0  0  0
   42.2244    6.5086   12.4973 H   0  0  0  0  0  0  0  0  0  0  0  0
   42.7995    6.1584   10.8402 H   0  0  0  0  0  0  0  0  0  0  0  0
   46.8101    2.8980   12.9281 H   0  0  0  0  0  0  0  0  0  0  0  0
   46.2391    3.2458   14.5735 H   0  0  0  0  0  0  0  0  0  0  0  0
   47.8451    3.8107   14.0529 H   0  0  0  0  0  0  0  0  0  0  0  0
   46.7593    9.2457   12.9297 H   0  0  0  0  0  0  0  0  0  0  0  0
   44.7775   10.0176   11.4998 H   0  0  0  0  0  0  0  0  0  0  0  0
   42.9313    4.1640   11.5713 H   0  0  0  0  0  0  0  0  0  0  0  0
   43.2491    5.4760   10.4159 H   0  0  0  0  0  0  0  0  0  0  0  0
   42.3018    5.7928   11.8998 H   0  0  0  0  0  0  0  0  0  0  0  0
   47.9393    4.4950   14.6975 H   0  0  0  0  0  0  0  0  0  0  0  0
   46.4119    3.6245   14.9789 H   0  0  0  0  0  0  0  0  0  0  0  0
   47.3525    3.3099   13.5055 H   0  0  0  0  0  0  0  0  0  0  0  0
   43.9936    6.0649   11.7037 H   0  0  0  0  0  0  0  0  0  0  0  0
   45.1093    6.6550   10.7197 H   0  0  0  0  0  0  0  0  0  0  0  0
   44.3690    4.9213   13.8566 H   0  0  0  0  0  0  0  0  0  0  0  0
   45.5457    3.8454   13.5158 H   0  0  0  0  0  0  0  0  0  0  0  0
   46.8395    5.5047   12.3819 H   0  0  0  0  0  0  0  0  0  0  0  0
   46.5459    5.9016   14.0822 H   0  0  0  0  0  0  0  0  0  0  0  0
   44.7992    7.4920   13.5057 H   0  0  0  0  0  0  0  0  0  0  0  0
   46.1725    7.8521   12.4534 H   0  0  0  0  0  0  0  0  0  0  0  0
  2  1  1  0
  3  4  1  0
  4  1  1  0
  5  2  2  0
  6  3  1  0
  7  2  1  0
  8  5  1  0
  9  7  2  0
 10  4  2  0
 11  6  2  0
 12  1  1  0
 13  3  1  0
  5  6  1  0
  8  9  1  0
 15 14  1  0
 16 17  1  0
 17 14  1  0
 18 15  2  0
 19 16  1  0
 20 15  1  0
 21 18  1  0
 22 20  2  0
 23 17  2  0
 24 19  2  0
 25 14  1  0
 26 16  1  0
 18 19  1  0
 21 22  1  0
 28 29  1  0
 29 30  1  0
 30 27  1  0
  8 31  1  0
  9 32  1  0
 12 33  1  0
 12 34  1  0
 12 35  1  0
 13 36  1  0
 13 37  1  0
 13 38  1  0
 21 39  1  0
 22 40  1  0
 25 41  1  0
 25 42  1  0
 25 43  1  0
 26 44  1  0
 26 45  1  0
 26 46  1  0
 27 47  1  0
 27 48  1  0
 28 49  1  0
 28 50  1  0
 29 51  1  0
 29 52  1  0
 30 53  1  0
 30 54  1  0
M  END
> <Uni-Dock RESULT> 
ENERGY=   -6.724  LOWER_BOUND=    3.464  UPPER_BOUND=    5.186
INTER + INTRA:          -6.724
INTER:                  -6.724
INTRA:                   0.000
UNBOUND:                 0.000

$$$$

     RDKit          3D

 54 55  0  0  0  0  0  0  0  0999 V2000
   46.2345    5.2186   13.6096 N   0  0  0  0  0  0  0  0  0  0  0  0
   44.9880    5.3566   13.0495 C   0  0  0  0  0  0  0  0  0  0  0  0
   46.7722    7.3721   12.7023 N   0  0  0  0  0  0  0  0  0  0  0  0
   47.1729    6.2406   13.4467 C   0  0  0  0  0  0  0  0  0  0  0  0
   44.6453    6.4639   12.3404 C   0  0  0  0  0  0  0  0  0  0  0  0
   45.5182    7.5570   12.1150 C   0  0  0  0  0  0  0  0  0  0  0  0
   43.9629    4.4621   13.1123 N   0  0  0  0  0  0  0  0  0  0  0  0
   43.3572    6.2581   11.9426 N   0  0  0  0  0  0  0  0  0  0  0  0
   42.9867    5.0325   12.4336 C   0  0  0  0  0  0  0  0  0  0  0  0
   48.3072    6.1682   13.9288 O   0  0  0  0  0  0  0  0  0  0  0  0
   45.1785    8.5434   11.4698 O   0  0  0  0  0  0  0  0  0  0  0  0
   46.5663    4.0220   14.3608 C   0  0  0  0  0  0  0  0  0  0  0  0
   47.7609    8.4205   12.5455 C   0  0  0  0  0  0  0  0  0  0  0  0
   46.5133    5.2498   13.3835 N   0  0  0  0  0  0  0  0  0  0  0  0
   45.1880    5.1920   13.0275 C   0  0  0  0  0  0  0  0  0  0  0  0
   46.4717    7.5708   12.7826 N   0  0  0  0  0  0  0  0  0  0  0  0
   47.1991    6.4615   13.2676 C   0  0  0  0  0  0  0  0  0  0  0  0
   44.5273    6.2857   12.5650 C   0  0  0  0  0  0  0  0  0  0  0  0
   45.1256    7.5605   12.4088 C   0  0  0  0  0  0  0  0  0  0  0  0
   44.3775    4.0988   13.0784 N   0  0  0  0  0  0  0  0  0  0  0  0
   43.2543    5.8645   12.3160 N   0  0  0  0  0  0  0  0  0  0  0  0
   43.2114    4.5332   12.6420 C   0  0  0  0  0  0  0  0  0  0  0  0
   48.3903    6.5691   13.5735 O   0  0  0  0  0  0  0  0  0  0  0  0
   44.5015    8.5291   11.9884 O   0  0  0  0  0  0  0  0  0  0  0  0
   47.1876    4.0618   13.8736 C   0  0  0  0  0  0  0  0  0  0  0  0
   47.2020    8.8179   12.6703 C   0  0  0  0  0  0  0  0  0  0  0  0
   45.3465    4.5517   12.8027 N   0  0  0  0  0  0  0  0  0  0  0  0
   47.1062    6.6645   13.4862 N   0  0  0  0  0  0  0  0  0  0  0  0
   45.9206    6.9682   12.6747 C   0  0  0  0  0  0  0  0  0  0  0  0
   44.8128    5.9165   12.8775 C   0  0  0  0  0  0  0  0  0  0  0  0
   42.7912    6.8913   11.3921 H   0  0  0  0  0  0  0  0  0  0  0  0
   42.0025    4.6145   12.2650 H   0  0  0  0  0  0  0  0  0  0  0  0
   47.5891    4.0527   14.7456 H   0  0  0  0  0  0  0  0  0  0  0  0
   45.8775    3.9285   15.2063 H   0  0  0  0  0  0  0  0  0  0  0  0
   46.4650    3.1501   13.7069 H   0  0  0  0  0  0  0  0  0  0  0  0
   48.6433    8.0055   12.0473 H   0  0  0  0  0  0  0  0  0  0  0  0
   48.0598    8.7785   13.5361 H   0  0  0  0  0  0  0  0  0  0  0  0
   47.3879    9.2649   11.9608 H   0  0  0  0  0  0  0  0  0  0  0  0
   42.4945    6.4304   11.9598 H   0  0  0  0  0  0  0  0  0  0  0  0
   42.3111    3.9410   12.5406 H   0  0  0  0  0  0  0  0  0  0  0  0
   48.2351    4.2585   14.1166 H   0  0  0  0  0  0  0  0  0  0  0  0
   47.1474    3.2848   13.1035 H   0  0  0  0  0  0  0  0  0  0  0  0
   46.6795    3.7097   14.7769 H   0  0  0  0  0  0  0  0  0  0  0  0
   46.5828    9.6340   12.2899 H   0  0  0  0  0  0  0  0  0  0  0  0
   47.5875    9.0945   13.6572 H   0  0  0  0  0  0  0  0  0  0  0  0
   48.0521    8.6727   11.9956 H   0  0  0  0  0  0  0  0  0  0  0  0
   46.2148    4.5611   13.3508 H   0  0  0  0  0  0  0  0  0  0  0  0
   45.6800    4.3909   11.8520 H   0  0  0  0  0  0  0  0  0  0  0  0
   46.8427    6.6663   14.4720 H   0  0  0  0  0  0  0  0  0  0  0  0
   47.7869    7.4153   13.3739 H   0  0  0  0  0  0  0  0  0  0  0  0
   46.2198    6.9860   11.6209 H   0  0  0  0  0  0  0  0  0  0  0  0
   45.5386    7.9618   12.9319 H   0  0  0  0  0  0  0  0  0  0  0  0
   44.3585    6.0517   13.8655 H   0  0  0  0  0  0  0  0  0  0  0  0
   44.0237    6.0489   12.1303 H   0  0  0  0  0  0  0  0  0  0  0  0
  2  1  1  0
  3  4  1  0
  4  1  1  0
  5  2  2  0
  6  3  1  0
  7  2  1  0
  8  5  1  0
  9  7  2  0
 10  4  2  0
 11  6  2  0
 12  1  1  0
 13  3  1  0
  5  6  1  0
  8  9  1  0
 15 14  1  0
 16 17  1  0
 17 14  1  0
 18 15  2  0
 19 16  1  0
 20 15  1  0
 21 18  1  0
 22 20  2  0
 23 17  2  0
 24 19  2  0
 25 14  1  0
 26 16  1  0
 18 19  1  0
 21 22  1  0
 28 29  1  0
 29 30  1  0
 30 27  1  0
  8 31  1  0
  9 32  1  0
 12 33  1  0
 12 34  1  0
 12 35  1  0
 13 36  1  0
 13 37  1  0
 13 38  1  0
 21 39  1  0
 22 40  1  0
 25 41  1  0
 25 42  1  0
 25 43  1  0
 26 44  1  0
 26 45  1  0
 26 46  1  0
 27 47  1  0
 27 48  1  0
 28 49  1  0
 28 50  1  0
 29 51  1  0
 29 52  1  0
 30 53  1  0
 30 54  1  0
M  END
> <Uni-Dock RESULT> 
ENERGY=   -6.537  LOWER_BOUND=    3.849  UPPER_BOUND=    4.865
INTER + INTRA:          -6.537
INTER:                  -6.537
INTRA:                   0.000
UNBOUND:                 0.000

$$$$

     RDKit          3D

 54 55  0  0  0  0  0  0  0  0999 V2000
   44.2964    6.2958   11.7927 N   0  0  0  0  0  0  0  0  0  0  0  0
   45.3358    5.8998   12.5985 C   0  0  0  0  0  0  0  0  0  0  0  0
   45.0013    8.5577   12.1629 N   0  0  0  0  0  0  0  0  0  0  0  0
   44.1007    7.6579   11.5513 C   0  0  0  0  0  0  0  0  0  0  0  0
   46.1788    6.8013   13.1668 C   0  0  0  0  0  0  0  0  0  0  0  0
   46.0709    8.2028   12.9884 C   0  0  0  0  0  0  0  0  0  0  0  0
   45.6652    4.6217   12.9342 N   0  0  0  0  0  0  0  0  0  0  0  0
   47.0712    6.0627   13.8865 N   0  0  0  0  0  0  0  0  0  0  0  0
   46.7201    4.7482   13.7153 C   0  0  0  0  0  0  0  0  0  0  0  0
   43.1825    8.0685   10.8352 O   0  0  0  0  0  0  0  0  0  0  0  0
   46.8486    8.9912   13.5158 O   0  0  0  0  0  0  0  0  0  0  0  0
   43.4153    5.3054   11.2020 C   0  0  0  0  0  0  0  0  0  0  0  0
   44.7803    9.9659   11.8992 C   0  0  0  0  0  0  0  0  0  0  0  0
   44.0650    6.5309   11.9379 N   0  0  0  0  0  0  0  0  0  0  0  0
   45.0765    5.8799   12.6008 C   0  0  0  0  0  0  0  0  0  0  0  0
   45.3675    8.5357   12.1227 N   0  0  0  0  0  0  0  0  0  0  0  0
   44.1881    7.8981   11.6783 C   0  0  0  0  0  0  0  0  0  0  0  0
   46.1949    6.5340   13.0105 C   0  0  0  0  0  0  0  0  0  0  0  0
   46.4214    7.9166   12.7993 C   0  0  0  0  0  0  0  0  0  0  0  0
   45.1164    4.5593   12.9314 N   0  0  0  0  0  0  0  0  0  0  0  0
   46.9665    5.5898   13.6214 N   0  0  0  0  0  0  0  0  0  0  0  0
   46.2719    4.4096   13.5489 C   0  0  0  0  0  0  0  0  0  0  0  0
   43.3094    8.5319   11.0864 O   0  0  0  0  0  0  0  0  0  0  0  0
   47.4426    8.4782   13.1818 O   0  0  0  0  0  0  0  0  0  0  0  0
   42.8843    5.8007   11.5146 C   0  0  0  0  0  0  0  0  0  0  0  0
   45.4750    9.9539   11.8432 C   0  0  0  0  0  0  0  0  0  0  0  0
   44.5593    5.5122   12.8886 N   0  0  0  0  0  0  0  0  0  0  0  0
   44.4013    7.9516   11.4562 N   0  0  0  0  0  0  0  0  0  0  0  0
   45.4612    7.7899   12.4596 C   0  0  0  0  0  0  0  0  0  0  0  0
   45.7818    6.3033   12.7079 C   0  0  0  0  0  0  0  0  0  0  0  0
   47.8406    6.4219   14.4374 H   0  0  0  0  0  0  0  0  0  0  0  0
   47.2661    3.9377   14.1805 H   0  0  0  0  0  0  0  0  0  0  0  0
   42.6374    5.7664   10.5876 H   0  0  0  0  0  0  0  0  0  0  0  0
   44.0055    4.6327   10.5718 H   0  0  0  0  0  0  0  0  0  0  0  0
   42.9351    4.7323   12.0015 H   0  0  0  0  0  0  0  0  0  0  0  0
   43.7755   10.2379   12.2392 H   0  0  0  0  0  0  0  0  0  0  0  0
   44.8385   10.1390   10.8197 H   0  0  0  0  0  0  0  0  0  0  0  0
   45.5099   10.6062   12.4010 H   0  0  0  0  0  0  0  0  0  0  0  0
   47.8741    5.7388   14.0437 H   0  0  0  0  0  0  0  0  0  0  0  0
   46.6566    3.4852   13.9602 H   0  0  0  0  0  0  0  0  0  0  0  0
   42.1674    6.4470   11.0014 H   0  0  0  0  0  0  0  0  0  0  0  0
   42.3974    5.3681   12.3944 H   0  0  0  0  0  0  0  0  0  0  0  0
   43.1851    5.0004   10.8311 H   0  0  0  0  0  0  0  0  0  0  0  0
   46.4088   10.3848   12.2125 H   0  0  0  0  0  0  0  0  0  0  0  0
   45.4157   10.1087   10.7608 H   0  0  0  0  0  0  0  0  0  0  0  0
   44.6335   10.4738   12.3131 H   0  0  0  0  0  0  0  0  0  0  0  0
   43.9110    5.8292   12.1580 H   0  0  0  0  0  0  0  0  0  0  0  0
   44.1027    5.8215   13.7470 H   0  0  0  0  0  0  0  0  0  0  0  0
   44.7133    7.5422   10.5752 H   0  0  0  0  0  0  0  0  0  0  0  0
   44.2652    8.9456   11.2738 H   0  0  0  0  0  0  0  0  0  0  0  0
   45.1246    8.2526   13.3939 H   0  0  0  0  0  0  0  0  0  0  0  0
   46.3657    8.3135   12.1326 H   0  0  0  0  0  0  0  0  0  0  0  0
   46.3257    5.8991   11.8468 H   0  0  0  0  0  0  0  0  0  0  0  0
   46.4271    6.1966   13.5858 H   0  0  0  0  0  0  0  0  0  0  0  0
  2  1  1  0
  3  4  1  0
  4  1  1  0
  5  2  2  0
  6  3  1  0
  7  2  1  0
  8  5  1  0
  9  7  2  0
 10  4  2  0
 11  6  2  0
 12  1  1  0
 13  3  1  0
  5  6  1  0
  8  9  1  0
 15 14  1  0
 16 17  1  0
 17 14  1  0
 18 15  2  0
 19 16  1  0
 20 15  1  0
 21 18  1  0
 22 20  2  0
 23 17  2  0
 24 19  2  0
 25 14  1  0
 26 16  1  0
 18 19  1  0
 21 22  1  0
 28 29  1  0
 29 30  1  0
 30 27  1  0
  8 31  1  0
  9 32  1  0
 12 33  1  0
 12 34  1  0
 12 35  1  0
 13 36  1  0
 13 37  1  0
 13 38  1  0
 21 39  1  0
 22 40  1  0
 25 41  1  0
 25 42  1  0
 25 43  1  0
 26 44  1  0
 26 45  1  0
 26 46  1  0
 27 47  1  0
 27 48  1  0
 28 49  1  0
 28 50  1  0
 29 51  1  0
 29 52  1  0
 30 53  1  0
 30 54  1  0
M  END
> <Uni-Dock RESULT> 
ENERGY=   -6.430  LOWER_BOUND=    3.622  UPPER_BOUND=    5.188
INTER + INTRA:          -6.430
INTER:                  -6.430
INTRA:                   0.000
UNBOUND:                 0.000

$$$$

     RDKit          3D

 54 55  0  0  0  0  0  0  0  0999 V2000
   44.5528    4.5034   11.9165 N   0  0  0  0  0  0  0  0  0  0  0  0
   45.5997    4.6730   12.7893 C   0  0  0  0  0  0  0  0  0  0  0  0
   44.3336    6.8908   11.8704 N   0  0  0  0  0  0  0  0  0  0  0  0
   43.8829    5.6276   11.4276 C   0  0  0  0  0  0  0  0  0  0  0  0
   45.9998    5.9086   13.1888 C   0  0  0  0  0  0  0  0  0  0  0  0
   45.3916    7.1126   12.7552 C   0  0  0  0  0  0  0  0  0  0  0  0
   46.3548    3.6917   13.3565 N   0  0  0  0  0  0  0  0  0  0  0  0
   47.0450    5.6963   14.0387 N   0  0  0  0  0  0  0  0  0  0  0  0
   47.2232    4.3384   14.1091 C   0  0  0  0  0  0  0  0  0  0  0  0
   42.9358    5.5324   10.6413 O   0  0  0  0  0  0  0  0  0  0  0  0
   45.7766    8.2137   13.1347 O   0  0  0  0  0  0  0  0  0  0  0  0
   44.1522    3.1687   11.5111 C   0  0  0  0  0  0  0  0  0  0  0  0
   43.6248    8.0437   11.3509 C   0  0  0  0  0  0  0  0  0  0  0  0
   44.2401    4.6535   12.0143 N   0  0  0  0  0  0  0  0  0  0  0  0
   45.3672    4.5567   12.7932 C   0  0  0  0  0  0  0  0  0  0  0  0
   44.6836    7.0034   11.8378 N   0  0  0  0  0  0  0  0  0  0  0  0
   43.8645    5.9007   11.5090 C   0  0  0  0  0  0  0  0  0  0  0  0
   46.1263    5.6454   13.0844 C   0  0  0  0  0  0  0  0  0  0  0  0
   45.8369    6.9540   12.6246 C   0  0  0  0  0  0  0  0  0  0  0  0
   45.8706    3.4258   13.3611 N   0  0  0  0  0  0  0  0  0  0  0  0
   47.1448    5.1820   13.8641 N   0  0  0  0  0  0  0  0  0  0  0  0
   46.9477    3.8322   14.0044 C   0  0  0  0  0  0  0  0  0  0  0  0
   42.8611    6.0441   10.8041 O   0  0  0  0  0  0  0  0  0  0  0  0
   46.5427    7.9172   12.9052 O   0  0  0  0  0  0  0  0  0  0  0  0
   43.4527    3.4695   11.7234 C   0  0  0  0  0  0  0  0  0  0  0  0
   44.2760    8.2877   11.3033 C   0  0  0  0  0  0  0  0  0  0  0  0
   45.0037    4.0736   13.1397 N   0  0  0  0  0  0  0  0  0  0  0  0
   44.0587    5.9932   11.2825 N   0  0  0  0  0  0  0  0  0  0  0  0
   45.0222    6.4169   12.3066 C   0  0  0  0  0  0  0  0  0  0  0  0
   45.8535    5.2280   12.8261 C   0  0  0  0  0  0  0  0  0  0  0  0
   47.5804    6.4077   14.5201 H   0  0  0  0  0  0  0  0  0  0  0  0
   47.9944    3.8865   14.7195 H   0  0  0  0  0  0  0  0  0  0  0  0
   43.3083    3.1896   10.8165 H   0  0  0  0  0  0  0  0  0  0  0  0
   44.9971    2.6759   11.0197 H   0  0  0  0  0  0  0  0  0  0  0  0
   43.8603    2.5983   12.3985 H   0  0  0  0  0  0  0  0  0  0  0  0
   42.5682    7.9658   11.6274 H   0  0  0  0  0  0  0  0  0  0  0  0
   43.6971    8.0430   10.2584 H   0  0  0  0  0  0  0  0  0  0  0  0
   44.0225    8.9874   11.7321 H   0  0  0  0  0  0  0  0  0  0  0  0
   47.8962    5.7333   14.2589 H   0  0  0  0  0  0  0  0  0  0  0  0
   47.6162    3.2063   14.5813 H   0  0  0  0  0  0  0  0  0  0  0  0
   42.5883    3.6991   11.0947 H   0  0  0  0  0  0  0  0  0  0  0  0
   43.0960    3.0378   12.6639 H   0  0  0  0  0  0  0  0  0  0  0  0
   44.0815    2.7418   11.2008 H   0  0  0  0  0  0  0  0  0  0  0  0
   44.9508    9.0965   11.5943 H   0  0  0  0  0  0  0  0  0  0  0  0
   44.2467    8.2251   10.2105 H   0  0  0  0  0  0  0  0  0  0  0  0
   43.2681    8.5190   11.6633 H   0  0  0  0  0  0  0  0  0  0  0  0
   44.3422    3.9934   12.3584 H   0  0  0  0  0  0  0  0  0  0  0  0
   44.4003    4.3246   13.9231 H   0  0  0  0  0  0  0  0  0  0  0  0
   44.5675    5.5924   10.4940 H   0  0  0  0  0  0  0  0  0  0  0  0
   43.5766    6.8152   10.9196 H   0  0  0  0  0  0  0  0  0  0  0  0
   44.4668    6.8658   13.1374 H   0  0  0  0  0  0  0  0  0  0  0  0
   45.6888    7.1826   11.8959 H   0  0  0  0  0  0  0  0  0  0  0  0
   46.5732    4.9234   12.0581 H   0  0  0  0  0  0  0  0  0  0  0  0
   46.4225    5.5230   13.7136 H   0  0  0  0  0  0  0  0  0  0  0  0
  2  1  1  0
  3  4  1  0
  4  1  1  0
  5  2  2  0
  6  3  1  0
  7  2  1  0
  8  5  1  0
  9  7  2  0
 10  4  2  0
 11  6  2  0
 12  1  1  0
 13  3  1  0
  5  6  1  0
  8  9  1  0
 15 14  1  0
 16 17  1  0
 17 14  1  0
 18 15  2  0
 19 16  1  0
 20 15  1  0
 21 18  1  0
 22 20  2  0
 23 17  2  0
 24 19  2  0
 25 14  1  0
 26 16  1  0
 18 19  1  0
 21 22  1  0
 28 29  1  0
 29 30  1  0
 30 27  1  0
  8 31  1  0
  9 32  1  0
 12 33  1  0
 12 34  1  0
 12 35  1  0
 13 36  1  0
 13 37  1  0
 13 38  1  0
 21 39  1  0
 22 40  1  0
 25 41  1  0
 25 42  1  0
 25 43  1  0
 26 44  1  0
 26 45  1  0
 26 46  1  0
 27 47  1  0
 27 48  1  0
 28 49  1  0
 28 50  1  0
 29 51  1  0
 29 52  1  0
 30 53  1  0
 30 54  1  0
M  END
> <Uni-Dock RESULT> 
ENERGY=   -6.424  LOWER_BOUND=    2.768  UPPER_BOUND=    4.566
INTER + INTRA:          -6.424
INTER:                  -6.424
INTRA:                   0.000
UNBOUND:                 0.000

$$$$

     RDKit          3D

 54 55  0  0  0  0  0  0  0  0999 V2000
   45.0018    7.2256   12.3543 N   0  0  0  0  0  0  0  0  0  0  0  0
   46.1461    6.7071   12.9095 C   0  0  0  0  0  0  0  0  0  0  0  0
   44.2822    4.9700   11.9743 N   0  0  0  0  0  0  0  0  0  0  0  0
   44.0254    6.3546   11.8649 C   0  0  0  0  0  0  0  0  0  0  0  0
   46.3514    5.3665   12.9942 C   0  0  0  0  0  0  0  0  0  0  0  0
   45.4286    4.3968   12.5299 C   0  0  0  0  0  0  0  0  0  0  0  0
   47.1901    7.4099   13.4300 N   0  0  0  0  0  0  0  0  0  0  0  0
   47.5695    5.2211   13.5901 N   0  0  0  0  0  0  0  0  0  0  0  0
   48.0391    6.4860   13.8355 C   0  0  0  0  0  0  0  0  0  0  0  0
   42.9786    6.7669   11.3563 O   0  0  0  0  0  0  0  0  0  0  0  0
   45.6435    3.1926   12.6210 O   0  0  0  0  0  0  0  0  0  0  0  0
   44.8156    8.6630   12.2801 C   0  0  0  0  0  0  0  0  0  0  0  0
   43.2562    4.0842   11.4605 C   0  0  0  0  0  0  0  0  0  0  0  0
   44.9271    7.1188   12.0183 N   0  0  0  0  0  0  0  0  0  0  0  0
   46.0863    6.8606   12.7084 C   0  0  0  0  0  0  0  0  0  0  0  0
   44.3640    4.8043   12.2938 N   0  0  0  0  0  0  0  0  0  0  0  0
   44.0224    6.0790   11.7904 C   0  0  0  0  0  0  0  0  0  0  0  0
   46.3745    5.6174   13.1751 C   0  0  0  0  0  0  0  0  0  0  0  0
   45.5288    4.4941   13.0000 C   0  0  0  0  0  0  0  0  0  0  0  0
   47.0682    7.7532   13.0148 N   0  0  0  0  0  0  0  0  0  0  0  0
   47.5822    5.7325   13.7980 N   0  0  0  0  0  0  0  0  0  0  0  0
   47.9628    7.0442   13.6751 C   0  0  0  0  0  0  0  0  0  0  0  0
   42.9660    6.2557   11.1762 O   0  0  0  0  0  0  0  0  0  0  0  0
   45.8177    3.3837   13.4338 O   0  0  0  0  0  0  0  0  0  0  0  0
   44.6516    8.4590   11.5342 C   0  0  0  0  0  0  0  0  0  0  0  0
   43.4116    3.7400   12.0463 C   0  0  0  0  0  0  0  0  0  0  0  0
   46.3684    7.3269   12.2741 N   0  0  0  0  0  0  0  0  0  0  0  0
   43.8761    5.9974   12.0542 N   0  0  0  0  0  0  0  0  0  0  0  0
   45.0581    5.2202   12.4480 C   0  0  0  0  0  0  0  0  0  0  0  0
   46.1416    6.1186   13.0751 C   0  0  0  0  0  0  0  0  0  0  0  0
   48.0308    4.3465   13.8060 H   0  0  0  0  0  0  0  0  0  0  0  0
   48.9963    6.6669   14.3072 H   0  0  0  0  0  0  0  0  0  0  0  0
   43.8621    8.9272   11.8154 H   0  0  0  0  0  0  0  0  0  0  0  0
   44.8382    9.0789   13.2923 H   0  0  0  0  0  0  0  0  0  0  0  0
   45.6260    9.0980   11.6866 H   0  0  0  0  0  0  0  0  0  0  0  0
   43.1013    4.2981   10.3978 H   0  0  0  0  0  0  0  0  0  0  0  0
   42.3192    4.2790   11.9923 H   0  0  0  0  0  0  0  0  0  0  0  0
   43.5167    3.0292   11.5756 H   0  0  0  0  0  0  0  0  0  0  0  0
   48.0922    4.9898   14.2591 H   0  0  0  0  0  0  0  0  0  0  0  0
   48.8930    7.4179   14.0834 H   0  0  0  0  0  0  0  0  0  0  0  0
   43.6964    8.5130   11.0052 H   0  0  0  0  0  0  0  0  0  0  0  0
   45.4488    8.7618   10.8479 H   0  0  0  0  0  0  0  0  0  0  0  0
   44.6192    9.1466   12.3852 H   0  0  0  0  0  0  0  0  0  0  0  0
   43.7357    2.7822   12.4609 H   0  0  0  0  0  0  0  0  0  0  0  0
   42.4494    4.0128   12.4921 H   0  0  0  0  0  0  0  0  0  0  0  0
   43.2732    3.6307   10.9656 H   0  0  0  0  0  0  0  0  0  0  0  0
   45.4355    7.6721   12.0192 H   0  0  0  0  0  0  0  0  0  0  0  0
   46.7597    7.0452   11.3750 H   0  0  0  0  0  0  0  0  0  0  0  0
   43.4800    6.4417   12.8830 H   0  0  0  0  0  0  0  0  0  0  0  0
   43.1605    5.3602   11.7055 H   0  0  0  0  0  0  0  0  0  0  0  0
   45.4612    4.7298   11.5551 H   0  0  0  0  0  0  0  0  0  0  0  0
   44.7693    4.4385   13.1586 H   0  0  0  0  0  0  0  0  0  0  0  0
   45.8233    6.4280   14.0770 H   0  0  0  0  0  0  0  0  0  0  0  0
   47.0785    5.5627   13.1833 H   0  0  0  0  0  0  0  0  0  0  0  0
  2  1  1  0
  3  4  1  0
  4  1  1  0
  5  2  2  0
  6  3  1  0
  7  2  1  0
  8  5  1  0
  9  7  2  0
 10  4  2  0
 11  6  2  0
 12  1  1  0
 13  3  1  0
  5  6  1  0
  8  9  1  0
 15 14  1  0
 16 17  1  0
 17 14  1  0
 18 15  2  0
 19 16  1  0
 20 15  1  0
 21 18  1  0
 22 20  2  0
 23 17  2  0
 24 19  2  0
 25 14  1  0
 26 16  1  0
 18 19  1  0
 21 22  1  0
 28 29  1  0
 29 30  1  0
 30 27  1  0
  8 31  1  0
  9 32  1  0
 12 33  1  0
 12 34  1  0
 12 35  1  0
 13 36  1  0
 13 37  1  0
 13 38  1  0
 21 39  1  0
 22 40  1  0
 25 41  1  0
 25 42  1  0
 25 43  1  0
 26 44  1  0
 26 45  1  0
 26 46  1  0
 27 47  1  0
 27 48  1  0
 28 49  1  0
 28 50  1  0
 29 51  1  0
 29 52  1  0
 30 53  1  0
 30 54  1  0
M  END
> <Uni-Dock RESULT> 
ENERGY=   -6.227  LOWER_BOUND=    2.998  UPPER_BOUND=    4.354
INTER + INTRA:          -6.227
INTER:                  -6.227
INTRA:                   0.000
UNBOUND:                 0.000

$$$$

     RDKit          3D

 54 55  0  0  0  0  0  0  0  0999 V2000
   45.0906    7.3318   12.1284 N   0  0  0  0  0  0  0  0  0  0  0  0
   44.4264    6.1324   12.2105 C   0  0  0  0  0  0  0  0  0  0  0  0
   46.7851    6.3767   13.5306 N   0  0  0  0  0  0  0  0  0  0  0  0
   46.3070    7.4856   12.7980 C   0  0  0  0  0  0  0  0  0  0  0  0
   44.9242    5.0912   12.9277 C   0  0  0  0  0  0  0  0  0  0  0  0
   46.1463    5.1395   13.6431 C   0  0  0  0  0  0  0  0  0  0  0  0
   43.2389    5.8167   11.6231 N   0  0  0  0  0  0  0  0  0  0  0  0
   44.0161    4.0836   12.7861 N   0  0  0  0  0  0  0  0  0  0  0  0
   43.0128    4.5698   11.9877 C   0  0  0  0  0  0  0  0  0  0  0  0
   46.9452    8.5417   12.7579 O   0  0  0  0  0  0  0  0  0  0  0  0
   46.5689    4.1813   14.2817 O   0  0  0  0  0  0  0  0  0  0  0  0
   44.5294    8.4228   11.3531 C   0  0  0  0  0  0  0  0  0  0  0  0
   48.0487    6.5577   14.2176 C   0  0  0  0  0  0  0  0  0  0  0  0
   45.1693    7.4903   12.4423 N   0  0  0  0  0  0  0  0  0  0  0  0
   44.3787    6.3798   12.2748 C   0  0  0  0  0  0  0  0  0  0  0  0
   46.8335    6.0422   13.3824 N   0  0  0  0  0  0  0  0  0  0  0  0
   46.4377    7.3459   13.0100 C   0  0  0  0  0  0  0  0  0  0  0  0
   44.8007    5.1432   12.6481 C   0  0  0  0  0  0  0  0  0  0  0  0
   46.0656    4.8848   13.2318 C   0  0  0  0  0  0  0  0  0  0  0  0
   43.1259    6.3442   11.7418 N   0  0  0  0  0  0  0  0  0  0  0  0
   43.7753    4.2990   12.3382 N   0  0  0  0  0  0  0  0  0  0  0  0
   42.7831    5.0718   11.7918 C   0  0  0  0  0  0  0  0  0  0  0  0
   47.1889    8.3102   13.1832 O   0  0  0  0  0  0  0  0  0  0  0  0
   46.4173    3.7560   13.5581 O   0  0  0  0  0  0  0  0  0  0  0  0
   44.6864    8.7960   12.0321 C   0  0  0  0  0  0  0  0  0  0  0  0
   48.1527    5.9148   13.9692 C   0  0  0  0  0  0  0  0  0  0  0  0
   43.8549    6.8137   12.4262 N   0  0  0  0  0  0  0  0  0  0  0  0
   46.6342    7.2057   12.8117 N   0  0  0  0  0  0  0  0  0  0  0  0
   46.0474    5.9095   13.1749 C   0  0  0  0  0  0  0  0  0  0  0  0
   44.7411    5.6444   12.4018 C   0  0  0  0  0  0  0  0  0  0  0  0
   44.0776    3.1593   13.1940 H   0  0  0  0  0  0  0  0  0  0  0  0
   42.1531    3.9734   11.7102 H   0  0  0  0  0  0  0  0  0  0  0  0
   45.1660    9.3112   11.3794 H   0  0  0  0  0  0  0  0  0  0  0  0
   44.4197    8.1021   10.3124 H   0  0  0  0  0  0  0  0  0  0  0  0
   43.5481    8.6839   11.7620 H   0  0  0  0  0  0  0  0  0  0  0  0
   47.9542    7.3904   14.9224 H   0  0  0  0  0  0  0  0  0  0  0  0
   48.8196    6.8126   13.4831 H   0  0  0  0  0  0  0  0  0  0  0  0
   48.3609    5.6644   14.7640 H   0  0  0  0  0  0  0  0  0  0  0  0
   43.7576    3.2978   12.4860 H   0  0  0  0  0  0  0  0  0  0  0  0
   41.8439    4.6539   11.4529 H   0  0  0  0  0  0  0  0  0  0  0  0
   45.4211    9.5819   12.2261 H   0  0  0  0  0  0  0  0  0  0  0  0
   43.7713    9.0286   12.5861 H   0  0  0  0  0  0  0  0  0  0  0  0
   44.4707    8.7763   10.9592 H   0  0  0  0  0  0  0  0  0  0  0  0
   48.3963    4.8830   14.2340 H   0  0  0  0  0  0  0  0  0  0  0  0
   48.8967    6.2836   13.2554 H   0  0  0  0  0  0  0  0  0  0  0  0
   48.2023    6.5342   14.8708 H   0  0  0  0  0  0  0  0  0  0  0  0
   44.4574    7.6246   12.2430 H   0  0  0  0  0  0  0  0  0  0  0  0
   43.5547    6.9668   13.3892 H   0  0  0  0  0  0  0  0  0  0  0  0
   46.8498    7.2044   11.8143 H   0  0  0  0  0  0  0  0  0  0  0  0
   47.5263    7.3133   13.2937 H   0  0  0  0  0  0  0  0  0  0  0  0
   45.8414    5.9140   14.2509 H   0  0  0  0  0  0  0  0  0  0  0  0
   46.7651    5.1071   12.9740 H   0  0  0  0  0  0  0  0  0  0  0  0
   44.9764    5.4163   11.3562 H   0  0  0  0  0  0  0  0  0  0  0  0
   44.2228    4.7759   12.8208 H   0  0  0  0  0  0  0  0  0  0  0  0
  2  1  1  0
  3  4  1  0
  4  1  1  0
  5  2  2  0
  6  3  1  0
  7  2  1  0
  8  5  1  0
  9  7  2  0
 10  4  2  0
 11  6  2  0
 12  1  1  0
 13  3  1  0
  5  6  1  0
  8  9  1  0
 15 14  1  0
 16 17  1  0
 17 14  1  0
 18 15  2  0
 19 16  1  0
 20 15  1  0
 21 18  1  0
 22 20  2  0
 23 17  2  0
 24 19  2  0
 25 14  1  0
 26 16  1  0
 18 19  1  0
 21 22  1  0
 28 29  1  0
 29 30  1  0
 30 27  1  0
  8 31  1  0
  9 32  1  0
 12 33  1  0
 12 34  1  0
 12 35  1  0
 13 36  1  0
 13 37  1  0
 13 38  1  0
 21 39  1  0
 22 40  1  0
 25 41  1  0
 25 42  1  0
 25 43  1  0
 26 44  1  0
 26 45  1  0
 26 46  1  0
 27 47  1  0
 27 48  1  0
 28 49  1  0
 28 50  1  0
 29 51  1  0
 29 52  1  0
 30 53  1  0
 30 54  1  0
M  END
> <Uni-Dock RESULT> 
ENERGY=   -6.176  LOWER_BOUND=    3.499  UPPER_BOUND=    4.382
INTER + INTRA:          -6.176
INTER:                  -6.176
INTRA:                   0.000
UNBOUND:                 0.000

$$$$
