
     RDKit          3D

 54 55  0  0  0  0  0  0  0  0999 V2000
   45.9152    4.8602   13.0572 N   0  0  0  0  0  0  0  0  0  0  0  0
   44.8280    4.3043   12.4284 C   0  0  0  0  0  0  0  0  0  0  0  0
   45.1335    6.9982   12.3040 N   0  0  0  0  0  0  0  0  0  0  0  0
   46.0974    6.2444   13.0094 C   0  0  0  0  0  0  0  0  0  0  0  0
   43.9248    5.0687   11.7604 C   0  0  0  0  0  0  0  0  0  0  0  0
   44.0138    6.4785   11.6500 C   0  0  0  0  0  0  0  0  0  0  0  0
   44.5037    2.9825   12.3778 N   0  0  0  0  0  0  0  0  0  0  0  0
   42.9983    4.1953   11.2718 N   0  0  0  0  0  0  0  0  0  0  0  0
   43.3909    2.9436   11.6712 C   0  0  0  0  0  0  0  0  0  0  0  0
   47.0566    6.7959   13.5572 O   0  0  0  0  0  0  0  0  0  0  0  0
   43.1813    7.1408   11.0394 O   0  0  0  0  0  0  0  0  0  0  0  0
   46.8602    4.0133   13.7616 C   0  0  0  0  0  0  0  0  0  0  0  0
   45.3415    8.4323   12.2668 C   0  0  0  0  0  0  0  0  0  0  0  0
   46.1538    5.5266   12.9571 N   0  0  0  0  0  0  0  0  0  0  0  0
   45.4270    6.5734   12.4450 C   0  0  0  0  0  0  0  0  0  0  0  0
   44.3531    4.0849   12.3020 N   0  0  0  0  0  0  0  0  0  0  0  0
   45.6253    4.2347   12.8969 C   0  0  0  0  0  0  0  0  0  0  0  0
   44.2054    6.3829   11.8810 C   0  0  0  0  0  0  0  0  0  0  0  0
   43.5779    5.1176   11.7687 C   0  0  0  0  0  0  0  0  0  0  0  0
   45.7922    7.8853   12.4228 N   0  0  0  0  0  0  0  0  0  0  0  0
   43.7873    7.6207   11.4898 N   0  0  0  0  0  0  0  0  0  0  0  0
   44.7813    8.4984   11.8388 C   0  0  0  0  0  0  0  0  0  0  0  0
   46.2360    3.2583   13.3419 O   0  0  0  0  0  0  0  0  0  0  0  0
   42.4734    4.9785   11.2537 O   0  0  0  0  0  0  0  0  0  0  0  0
   47.4554    5.7668   13.5524 C   0  0  0  0  0  0  0  0  0  0  0  0
   43.8235    2.7367   12.2500 C   0  0  0  0  0  0  0  0  0  0  0  0
   45.9934    6.7952   11.9603 N   0  0  0  0  0  0  0  0  0  0  0  0
   45.1201    4.1015   11.8688 N   0  0  0  0  0  0  0  0  0  0  0  0
   44.3117    5.0806   12.6063 C   0  0  0  0  0  0  0  0  0  0  0  0
   45.1572    6.2884   13.0544 C   0  0  0  0  0  0  0  0  0  0  0  0
   42.1822    4.4324   10.7221 H   0  0  0  0  0  0  0  0  0  0  0  0
   42.8304    2.0528   11.4187 H   0  0  0  0  0  0  0  0  0  0  0  0
   47.2924    3.2965   13.0562 H   0  0  0  0  0  0  0  0  0  0  0  0
   47.6708    4.5928   14.2110 H   0  0  0  0  0  0  0  0  0  0  0  0
   46.3339    3.4745   14.5560 H   0  0  0  0  0  0  0  0  0  0  0  0
   44.5621    8.9549   11.7067 H   0  0  0  0  0  0  0  0  0  0  0  0
   46.3116    8.6390   11.8032 H   0  0  0  0  0  0  0  0  0  0  0  0
   45.3599    8.8157   13.2923 H   0  0  0  0  0  0  0  0  0  0  0  0
   42.9121    7.8407   11.0314 H   0  0  0  0  0  0  0  0  0  0  0  0
   44.7109    9.5607   11.6430 H   0  0  0  0  0  0  0  0  0  0  0  0
   47.9142    4.8435   13.9155 H   0  0  0  0  0  0  0  0  0  0  0  0
   48.1150    6.2129   12.8013 H   0  0  0  0  0  0  0  0  0  0  0  0
   47.3411    6.4553   14.3955 H   0  0  0  0  0  0  0  0  0  0  0  0
   42.8385    2.6907   11.7788 H   0  0  0  0  0  0  0  0  0  0  0  0
   43.7483    2.3444   13.2695 H   0  0  0  0  0  0  0  0  0  0  0  0
   44.5169    2.1037   11.6865 H   0  0  0  0  0  0  0  0  0  0  0  0
   46.3987    5.9656   11.5112 H   0  0  0  0  0  0  0  0  0  0  0  0
   45.3795    7.1685   11.2358 H   0  0  0  0  0  0  0  0  0  0  0  0
   45.8645    3.7601   12.4777 H   0  0  0  0  0  0  0  0  0  0  0  0
   44.5415    3.2915   11.6481 H   0  0  0  0  0  0  0  0  0  0  0  0
   43.8561    4.6036   13.4805 H   0  0  0  0  0  0  0  0  0  0  0  0
   43.5030    5.4229   11.9512 H   0  0  0  0  0  0  0  0  0  0  0  0
   45.8163    5.9869   13.8762 H   0  0  0  0  0  0  0  0  0  0  0  0
   44.5084    7.0873   13.4276 H   0  0  0  0  0  0  0  0  0  0  0  0
  2  1  1  0
  3  4  1  0
  4  1  1  0
  5  2  2  0
  6  3  1  0
  7  2  1  0
  8  5  1  0
  9  7  2  0
 10  4  2  0
 11  6  2  0
 12  1  1  0
 13  3  1  0
  5  6  1  0
  8  9  1  0
 15 14  1  0
 16 17  1  0
 17 14  1  0
 18 15  2  0
 19 16  1  0
 20 15  1  0
 21 18  1  0
 22 20  2  0
 23 17  2  0
 24 19  2  0
 25 14  1  0
 26 16  1  0
 18 19  1  0
 21 22  1  0
 28 29  1  0
 29 30  1  0
 30 27  1  0
  8 31  1  0
  9 32  1  0
 12 33  1  0
 12 34  1  0
 12 35  1  0
 13 36  1  0
 13 37  1  0
 13 38  1  0
 21 39  1  0
 22 40  1  0
 25 41  1  0
 25 42  1  0
 25 43  1  0
 26 44  1  0
 26 45  1  0
 26 46  1  0
 27 47  1  0
 27 48  1  0
 28 49  1  0
 28 50  1  0
 29 51  1  0
 29 52  1  0
 30 53  1  0
 30 54  1  0
M  END
> <Uni-Dock RESULT> 
ENERGY=   -6.798  LOWER_BOUND=    0.000  UPPER_BOUND=    0.000
INTER + INTRA:          -6.798
INTER:                  -6.798
INTRA:                   0.000
UNBOUND:                 0.000

$$$$

     RDKit          3D

 54 55  0  0  0  0  0  0  0  0999 V2000
   46.2461    5.6529   13.0956 N   0  0  0  0  0  0  0  0  0  0  0  0
   45.5817    6.7601   12.6277 C   0  0  0  0  0  0  0  0  0  0  0  0
   44.4455    4.3279   12.2286 N   0  0  0  0  0  0  0  0  0  0  0  0
   45.6845    4.3881   12.9041 C   0  0  0  0  0  0  0  0  0  0  0  0
   44.3904    6.6551   11.9826 C   0  0  0  0  0  0  0  0  0  0  0  0
   43.7336    5.4241   11.7356 C   0  0  0  0  0  0  0  0  0  0  0  0
   45.9859    8.0566   12.7298 N   0  0  0  0  0  0  0  0  0  0  0  0
   44.0324    7.9327   11.6674 N   0  0  0  0  0  0  0  0  0  0  0  0
   45.0295    8.7468   12.1401 C   0  0  0  0  0  0  0  0  0  0  0  0
   46.2390    3.3602   13.3041 O   0  0  0  0  0  0  0  0  0  0  0  0
   42.6576    5.3626   11.1499 O   0  0  0  0  0  0  0  0  0  0  0  0
   47.5170    5.8022   13.7804 C   0  0  0  0  0  0  0  0  0  0  0  0
   43.8805    3.0062   12.0405 C   0  0  0  0  0  0  0  0  0  0  0  0
   45.9623    5.0006   13.1667 N   0  0  0  0  0  0  0  0  0  0  0  0
   44.8430    4.5350   12.5210 C   0  0  0  0  0  0  0  0  0  0  0  0
   45.4062    7.1843   12.3467 N   0  0  0  0  0  0  0  0  0  0  0  0
   46.2764    6.3599   13.0939 C   0  0  0  0  0  0  0  0  0  0  0  0
   44.0333    5.3651   11.8126 C   0  0  0  0  0  0  0  0  0  0  0  0
   44.2586    6.7570   11.6743 C   0  0  0  0  0  0  0  0  0  0  0  0
   44.3958    3.2490   12.4903 N   0  0  0  0  0  0  0  0  0  0  0  0
   43.0402    4.5717   11.3184 N   0  0  0  0  0  0  0  0  0  0  0  0
   43.3021    3.2984   11.7552 C   0  0  0  0  0  0  0  0  0  0  0  0
   47.2699    6.8312   13.6551 O   0  0  0  0  0  0  0  0  0  0  0  0
   43.5082    7.4801   11.0274 O   0  0  0  0  0  0  0  0  0  0  0  0
   46.8047    4.0853   13.9143 C   0  0  0  0  0  0  0  0  0  0  0  0
   45.7505    8.5909   12.2842 C   0  0  0  0  0  0  0  0  0  0  0  0
   44.5352    4.2312   13.1674 N   0  0  0  0  0  0  0  0  0  0  0  0
   45.2965    6.9601   13.1918 N   0  0  0  0  0  0  0  0  0  0  0  0
   45.2281    6.2581   11.9038 C   0  0  0  0  0  0  0  0  0  0  0  0
   45.3834    4.7354   12.0814 C   0  0  0  0  0  0  0  0  0  0  0  0
   43.1925    8.2170   11.1794 H   0  0  0  0  0  0  0  0  0  0  0  0
   45.0019    9.8228   12.0251 H   0  0  0  0  0  0  0  0  0  0  0  0
   47.3736    6.4271   14.6676 H   0  0  0  0  0  0  0  0  0  0  0  0
   47.9265    4.8386   14.0947 H   0  0  0  0  0  0  0  0  0  0  0  0
   48.2325    6.2822   13.1051 H   0  0  0  0  0  0  0  0  0  0  0  0
   42.9240    3.0301   11.5125 H   0  0  0  0  0  0  0  0  0  0  0  0
   43.7342    2.5393   13.0201 H   0  0  0  0  0  0  0  0  0  0  0  0
   44.5870    2.3955   11.4687 H   0  0  0  0  0  0  0  0  0  0  0  0
   42.2641    4.8715   10.7420 H   0  0  0  0  0  0  0  0  0  0  0  0
   42.6658    2.4587   11.5070 H   0  0  0  0  0  0  0  0  0  0  0  0
   47.6554    4.5963   14.3726 H   0  0  0  0  0  0  0  0  0  0  0  0
   46.2101    3.6179   14.7056 H   0  0  0  0  0  0  0  0  0  0  0  0
   47.1840    3.3142   13.2364 H   0  0  0  0  0  0  0  0  0  0  0  0
   45.0384    9.1712   11.6922 H   0  0  0  0  0  0  0  0  0  0  0  0
   46.7470    8.6939   11.8423 H   0  0  0  0  0  0  0  0  0  0  0  0
   45.7800    8.9954   13.3013 H   0  0  0  0  0  0  0  0  0  0  0  0
   44.6455    4.8977   13.9405 H   0  0  0  0  0  0  0  0  0  0  0  0
   43.5599    4.3580   12.8959 H   0  0  0  0  0  0  0  0  0  0  0  0
   46.2057    6.7810   13.6192 H   0  0  0  0  0  0  0  0  0  0  0  0
   45.2553    7.9652   13.0251 H   0  0  0  0  0  0  0  0  0  0  0  0
   46.0086    6.6337   11.2338 H   0  0  0  0  0  0  0  0  0  0  0  0
   44.2577    6.4758   11.4441 H   0  0  0  0  0  0  0  0  0  0  0  0
   46.4257    4.5017   12.3259 H   0  0  0  0  0  0  0  0  0  0  0  0
   45.1392    4.2184   11.1479 H   0  0  0  0  0  0  0  0  0  0  0  0
  2  1  1  0
  3  4  1  0
  4  1  1  0
  5  2  2  0
  6  3  1  0
  7  2  1  0
  8  5  1  0
  9  7  2  0
 10  4  2  0
 11  6  2  0
 12  1  1  0
 13  3  1  0
  5  6  1  0
  8  9  1  0
 15 14  1  0
 16 17  1  0
 17 14  1  0
 18 15  2  0
 19 16  1  0
 20 15  1  0
 21 18  1  0
 22 20  2  0
 23 17  2  0
 24 19  2  0
 25 14  1  0
 26 16  1  0
 18 19  1  0
 21 22  1  0
 28 29  1  0
 29 30  1  0
 30 27  1  0
  8 31  1  0
  9 32  1  0
 12 33  1  0
 12 34  1  0
 12 35  1  0
 13 36  1  0
 13 37  1  0
 13 38  1  0
 21 39  1  0
 22 40  1  0
 25 41  1  0
 25 42  1  0
 25 43  1  0
 26 44  1  0
 26 45  1  0
 26 46  1  0
 27 47  1  0
 27 48  1  0
 28 49  1  0
 28 50  1  0
 29 51  1  0
 29 52  1  0
 30 53  1  0
 30 54  1  0
M  END
> <Uni-Dock RESULT> 
ENERGY=   -6.768  LOWER_BOUND=    0.427  UPPER_BOUND=    3.316
INTER + INTRA:          -6.768
INTER:                  -6.768
INTRA:                   0.000
UNBOUND:                 0.000

$$$$

     RDKit          3D

 54 55  0  0  0  0  0  0  0  0999 V2000
   46.2245    5.6278   13.1895 N   0  0  0  0  0  0  0  0  0  0  0  0
   45.6373    6.7849   12.7395 C   0  0  0  0  0  0  0  0  0  0  0  0
   44.3910    4.4328   12.2098 N   0  0  0  0  0  0  0  0  0  0  0  0
   45.6050    4.4026   12.9312 C   0  0  0  0  0  0  0  0  0  0  0  0
   44.4674    6.7668   12.0486 C   0  0  0  0  0  0  0  0  0  0  0  0
   43.7567    5.5824   11.7327 C   0  0  0  0  0  0  0  0  0  0  0  0
   46.1047    8.0534   12.9041 N   0  0  0  0  0  0  0  0  0  0  0  0
   44.1890    8.0722   11.7684 N   0  0  0  0  0  0  0  0  0  0  0  0
   45.2088    8.8144   12.3065 C   0  0  0  0  0  0  0  0  0  0  0  0
   46.0894    3.3329   13.3124 O   0  0  0  0  0  0  0  0  0  0  0  0
   42.7020    5.5995   11.1068 O   0  0  0  0  0  0  0  0  0  0  0  0
   47.4747    5.6844   13.9246 C   0  0  0  0  0  0  0  0  0  0  0  0
   43.7650    3.1509   11.9527 C   0  0  0  0  0  0  0  0  0  0  0  0
   45.9044    4.9896   13.2261 N   0  0  0  0  0  0  0  0  0  0  0  0
   44.7875    4.6079   12.5238 C   0  0  0  0  0  0  0  0  0  0  0  0
   45.4950    7.2276   12.4684 N   0  0  0  0  0  0  0  0  0  0  0  0
   46.2919    6.3318   13.2152 C   0  0  0  0  0  0  0  0  0  0  0  0
   44.0498    5.5047   11.8181 C   0  0  0  0  0  0  0  0  0  0  0  0
   44.3528    6.8865   11.7397 C   0  0  0  0  0  0  0  0  0  0  0  0
   44.2749    3.3496   12.4294 N   0  0  0  0  0  0  0  0  0  0  0  0
   43.0359    4.7837   11.2594 N   0  0  0  0  0  0  0  0  0  0  0  0
   43.2140    3.4837   11.6578 C   0  0  0  0  0  0  0  0  0  0  0  0
   47.2868    6.7290   13.8288 O   0  0  0  0  0  0  0  0  0  0  0  0
   43.6664    7.6712   11.0936 O   0  0  0  0  0  0  0  0  0  0  0  0
   46.6688    4.0047   13.9690 C   0  0  0  0  0  0  0  0  0  0  0  0
   45.9147    8.6149   12.4705 C   0  0  0  0  0  0  0  0  0  0  0  0
   44.4399    4.2985   13.1470 N   0  0  0  0  0  0  0  0  0  0  0  0
   45.3418    6.9800   13.3000 N   0  0  0  0  0  0  0  0  0  0  0  0
   45.2854    6.3284   11.9853 C   0  0  0  0  0  0  0  0  0  0  0  0
   45.3539    4.7943   12.1117 C   0  0  0  0  0  0  0  0  0  0  0  0
   43.3842    8.4182   11.2615 H   0  0  0  0  0  0  0  0  0  0  0  0
   45.2420    9.8936   12.2306 H   0  0  0  0  0  0  0  0  0  0  0  0
   47.3308    6.2845   14.8286 H   0  0  0  0  0  0  0  0  0  0  0  0
   47.8209    4.6898   14.2174 H   0  0  0  0  0  0  0  0  0  0  0  0
   48.2394    6.1487   13.2938 H   0  0  0  0  0  0  0  0  0  0  0  0
   42.8317    3.2447   11.3919 H   0  0  0  0  0  0  0  0  0  0  0  0
   43.5575    2.6584   12.9083 H   0  0  0  0  0  0  0  0  0  0  0  0
   44.4596    2.5236   11.3843 H   0  0  0  0  0  0  0  0  0  0  0  0
   42.2989    5.1449   10.6671 H   0  0  0  0  0  0  0  0  0  0  0  0
   42.5443    2.6886   11.3559 H   0  0  0  0  0  0  0  0  0  0  0  0
   47.5272    4.4528   14.4762 H   0  0  0  0  0  0  0  0  0  0  0  0
   46.0210    3.5424   14.7205 H   0  0  0  0  0  0  0  0  0  0  0  0
   47.0326    3.2386   13.2770 H   0  0  0  0  0  0  0  0  0  0  0  0
   45.2569    9.2532   11.8753 H   0  0  0  0  0  0  0  0  0  0  0  0
   46.9312    8.6797   12.0688 H   0  0  0  0  0  0  0  0  0  0  0  0
   45.9269    8.9813   13.5023 H   0  0  0  0  0  0  0  0  0  0  0  0
   44.5557    4.9306   13.9478 H   0  0  0  0  0  0  0  0  0  0  0  0
   43.4836    4.4870   12.8456 H   0  0  0  0  0  0  0  0  0  0  0  0
   46.2235    6.7374   13.7529 H   0  0  0  0  0  0  0  0  0  0  0  0
   45.3597    7.9911   13.1694 H   0  0  0  0  0  0  0  0  0  0  0  0
   46.1094    6.6849   11.3581 H   0  0  0  0  0  0  0  0  0  0  0  0
   44.3459    6.6140   11.4994 H   0  0  0  0  0  0  0  0  0  0  0  0
   46.3725    4.4964   12.3846 H   0  0  0  0  0  0  0  0  0  0  0  0
   45.1184    4.3243   11.1515 H   0  0  0  0  0  0  0  0  0  0  0  0
  2  1  1  0
  3  4  1  0
  4  1  1  0
  5  2  2  0
  6  3  1  0
  7  2  1  0
  8  5  1  0
  9  7  2  0
 10  4  2  0
 11  6  2  0
 12  1  1  0
 13  3  1  0
  5  6  1  0
  8  9  1  0
 15 14  1  0
 16 17  1  0
 17 14  1  0
 18 15  2  0
 19 16  1  0
 20 15  1  0
 21 18  1  0
 22 20  2  0
 23 17  2  0
 24 19  2  0
 25 14  1  0
 26 16  1  0
 18 19  1  0
 21 22  1  0
 28 29  1  0
 29 30  1  0
 30 27  1  0
  8 31  1  0
  9 32  1  0
 12 33  1  0
 12 34  1  0
 12 35  1  0
 13 36  1  0
 13 37  1  0
 13 38  1  0
 21 39  1  0
 22 40  1  0
 25 41  1  0
 25 42  1  0
 25 43  1  0
 26 44  1  0
 26 45  1  0
 26 46  1  0
 27 47  1  0
 27 48  1  0
 28 49  1  0
 28 50  1  0
 29 51  1  0
 29 52  1  0
 30 53  1  0
 30 54  1  0
M  END
> <Uni-Dock RESULT> 
ENERGY=   -6.645  LOWER_BOUND=    0.529  UPPER_BOUND=    3.323
INTER + INTRA:          -6.645
INTER:                  -6.645
INTRA:                   0.000
UNBOUND:                 0.000

$$$$

     RDKit          3D

 54 55  0  0  0  0  0  0  0  0999 V2000
   44.8901    6.7613   12.3292 N   0  0  0  0  0  0  0  0  0  0  0  0
   46.0411    6.2821   12.9054 C   0  0  0  0  0  0  0  0  0  0  0  0
   44.1955    4.4825   12.0559 N   0  0  0  0  0  0  0  0  0  0  0  0
   43.9227    5.8575   11.8828 C   0  0  0  0  0  0  0  0  0  0  0  0
   46.2618    4.9493   13.0518 C   0  0  0  0  0  0  0  0  0  0  0  0
   45.3492    3.9487   12.6350 C   0  0  0  0  0  0  0  0  0  0  0  0
   47.0778    7.0200   13.3904 N   0  0  0  0  0  0  0  0  0  0  0  0
   47.4824    4.8455   13.6511 N   0  0  0  0  0  0  0  0  0  0  0  0
   47.9379    6.1255   13.8365 C   0  0  0  0  0  0  0  0  0  0  0  0
   42.8705    6.2339   11.3580 O   0  0  0  0  0  0  0  0  0  0  0  0
   45.5780    2.7526   12.7815 O   0  0  0  0  0  0  0  0  0  0  0  0
   44.6875    8.1915   12.1887 C   0  0  0  0  0  0  0  0  0  0  0  0
   43.1788    3.5623   11.5860 C   0  0  0  0  0  0  0  0  0  0  0  0
   44.4247    6.3719   11.9511 N   0  0  0  0  0  0  0  0  0  0  0  0
   44.2931    5.0056   11.9979 C   0  0  0  0  0  0  0  0  0  0  0  0
   46.4306    6.1241   13.2414 N   0  0  0  0  0  0  0  0  0  0  0  0
   45.5155    6.9746   12.5826 C   0  0  0  0  0  0  0  0  0  0  0  0
   45.1987    4.2253   12.6442 C   0  0  0  0  0  0  0  0  0  0  0  0
   46.3387    4.7320   13.3159 C   0  0  0  0  0  0  0  0  0  0  0  0
   43.2971    4.2632   11.4396 N   0  0  0  0  0  0  0  0  0  0  0  0
   44.7558    2.9452   12.4862 N   0  0  0  0  0  0  0  0  0  0  0  0
   43.6011    3.0182   11.7500 C   0  0  0  0  0  0  0  0  0  0  0  0
   45.6820    8.1979   12.5713 O   0  0  0  0  0  0  0  0  0  0  0  0
   47.1383    4.0008   13.8905 O   0  0  0  0  0  0  0  0  0  0  0  0
   43.4382    7.1744   11.2517 C   0  0  0  0  0  0  0  0  0  0  0  0
   47.5547    6.7699   13.8899 C   0  0  0  0  0  0  0  0  0  0  0  0
   44.2721    4.9308   11.2241 N   0  0  0  0  0  0  0  0  0  0  0  0
   46.4481    6.3260   12.3840 N   0  0  0  0  0  0  0  0  0  0  0  0
   45.5701    5.5367   13.2571 C   0  0  0  0  0  0  0  0  0  0  0  0
   44.1764    5.3417   12.6295 C   0  0  0  0  0  0  0  0  0  0  0  0
   47.9539    3.9871   13.9063 H   0  0  0  0  0  0  0  0  0  0  0  0
   48.8938    6.3389   14.2973 H   0  0  0  0  0  0  0  0  0  0  0  0
   45.4918    8.6076   11.5738 H   0  0  0  0  0  0  0  0  0  0  0  0
   43.7302    8.4231   11.7144 H   0  0  0  0  0  0  0  0  0  0  0  0
   44.7068    8.6542   13.1805 H   0  0  0  0  0  0  0  0  0  0  0  0
   43.4514    2.5167   11.7495 H   0  0  0  0  0  0  0  0  0  0  0  0
   43.0198    3.7248   10.5149 H   0  0  0  0  0  0  0  0  0  0  0  0
   42.2404    3.7711   12.1102 H   0  0  0  0  0  0  0  0  0  0  0  0
   45.1986    2.1089   12.8454 H   0  0  0  0  0  0  0  0  0  0  0  0
   43.0332    2.1388   11.4750 H   0  0  0  0  0  0  0  0  0  0  0  0
   43.6730    8.2410   11.2985 H   0  0  0  0  0  0  0  0  0  0  0  0
   43.4089    6.8688   10.2010 H   0  0  0  0  0  0  0  0  0  0  0  0
   42.4569    7.0123   11.7084 H   0  0  0  0  0  0  0  0  0  0  0  0
   48.2227    6.0570   14.3796 H   0  0  0  0  0  0  0  0  0  0  0  0
   47.1769    7.4745   14.6381 H   0  0  0  0  0  0  0  0  0  0  0  0
   48.1223    7.3321   13.1411 H   0  0  0  0  0  0  0  0  0  0  0  0
   44.9938    5.5298   10.8064 H   0  0  0  0  0  0  0  0  0  0  0  0
   44.6986    4.0045   11.1906 H   0  0  0  0  0  0  0  0  0  0  0  0
   46.0323    7.2469   12.2406 H   0  0  0  0  0  0  0  0  0  0  0  0
   47.3344    6.4870   12.8617 H   0  0  0  0  0  0  0  0  0  0  0  0
   45.4719    6.0302   14.2297 H   0  0  0  0  0  0  0  0  0  0  0  0
   46.0370    4.5594   13.4223 H   0  0  0  0  0  0  0  0  0  0  0  0
   43.6225    6.2862   12.6719 H   0  0  0  0  0  0  0  0  0  0  0  0
   43.6064    4.5987   13.1964 H   0  0  0  0  0  0  0  0  0  0  0  0
  2  1  1  0
  3  4  1  0
  4  1  1  0
  5  2  2  0
  6  3  1  0
  7  2  1  0
  8  5  1  0
  9  7  2  0
 10  4  2  0
 11  6  2  0
 12  1  1  0
 13  3  1  0
  5  6  1  0
  8  9  1  0
 15 14  1  0
 16 17  1  0
 17 14  1  0
 18 15  2  0
 19 16  1  0
 20 15  1  0
 21 18  1  0
 22 20  2  0
 23 17  2  0
 24 19  2  0
 25 14  1  0
 26 16  1  0
 18 19  1  0
 21 22  1  0
 28 29  1  0
 29 30  1  0
 30 27  1  0
  8 31  1  0
  9 32  1  0
 12 33  1  0
 12 34  1  0
 12 35  1  0
 13 36  1  0
 13 37  1  0
 13 38  1  0
 21 39  1  0
 22 40  1  0
 25 41  1  0
 25 42  1  0
 25 43  1  0
 26 44  1  0
 26 45  1  0
 26 46  1  0
 27 47  1  0
 27 48  1  0
 28 49  1  0
 28 50  1  0
 29 51  1  0
 29 52  1  0
 30 53  1  0
 30 54  1  0
M  END
> <Uni-Dock RESULT> 
ENERGY=   -6.203  LOWER_BOUND=    0.934  UPPER_BOUND=    3.989
INTER + INTRA:          -6.203
INTER:                  -6.203
INTRA:                   0.000
UNBOUND:                 0.000

$$$$

     RDKit          3D

 54 55  0  0  0  0  0  0  0  0999 V2000
   44.5495    5.1943   12.3300 N   0  0  0  0  0  0  0  0  0  0  0  0
   45.6853    4.9628   13.0668 C   0  0  0  0  0  0  0  0  0  0  0  0
   45.1859    7.5051   12.2585 N   0  0  0  0  0  0  0  0  0  0  0  0
   44.2674    6.4934   11.9007 C   0  0  0  0  0  0  0  0  0  0  0  0
   46.5418    5.9675   13.3884 C   0  0  0  0  0  0  0  0  0  0  0  0
   46.3519    7.3182   13.0048 C   0  0  0  0  0  0  0  0  0  0  0  0
   46.1063    3.7654   13.5605 N   0  0  0  0  0  0  0  0  0  0  0  0
   47.5381    5.3801   14.1110 N   0  0  0  0  0  0  0  0  0  0  0  0
   47.2312    4.0459   14.1890 C   0  0  0  0  0  0  0  0  0  0  0  0
   43.2610    6.7572   11.2360 O   0  0  0  0  0  0  0  0  0  0  0  0
   47.1443    8.2029   13.3112 O   0  0  0  0  0  0  0  0  0  0  0  0
   43.6569    4.0972   12.0048 C   0  0  0  0  0  0  0  0  0  0  0  0
   44.8742    8.8454   11.8029 C   0  0  0  0  0  0  0  0  0  0  0  0
   44.2646    5.8373   12.2019 N   0  0  0  0  0  0  0  0  0  0  0  0
   44.9218    7.0404   12.2866 C   0  0  0  0  0  0  0  0  0  0  0  0
   46.1772    4.8317   13.2415 N   0  0  0  0  0  0  0  0  0  0  0  0
   44.8871    4.6840   12.6856 C   0  0  0  0  0  0  0  0  0  0  0  0
   46.1637    7.1360   12.8298 C   0  0  0  0  0  0  0  0  0  0  0  0
   46.8840    6.0319   13.3490 C   0  0  0  0  0  0  0  0  0  0  0  0
   44.4620    8.2514   11.8661 N   0  0  0  0  0  0  0  0  0  0  0  0
   46.4970    8.4559   12.7479 N   0  0  0  0  0  0  0  0  0  0  0  0
   45.4354    9.0921   12.1572 C   0  0  0  0  0  0  0  0  0  0  0  0
   44.3418    3.5775   12.6345 O   0  0  0  0  0  0  0  0  0  0  0  0
   48.0046    6.1512   13.8333 O   0  0  0  0  0  0  0  0  0  0  0  0
   42.9387    5.7721   11.6154 C   0  0  0  0  0  0  0  0  0  0  0  0
   46.8048    3.6228   13.7372 C   0  0  0  0  0  0  0  0  0  0  0  0
   44.3493    7.3820   12.6871 N   0  0  0  0  0  0  0  0  0  0  0  0
   45.4187    4.9509   13.6737 N   0  0  0  0  0  0  0  0  0  0  0  0
   46.1403    5.6583   12.6082 C   0  0  0  0  0  0  0  0  0  0  0  0
   45.2010    6.5775   11.8037 C   0  0  0  0  0  0  0  0  0  0  0  0
   48.3442    5.8450   14.5090 H   0  0  0  0  0  0  0  0  0  0  0  0
   47.8597    3.3367   14.7121 H   0  0  0  0  0  0  0  0  0  0  0  0
   43.2906    3.6473   12.9331 H   0  0  0  0  0  0  0  0  0  0  0  0
   42.7982    4.4309   11.4163 H   0  0  0  0  0  0  0  0  0  0  0  0
   44.2071    3.3483   11.4263 H   0  0  0  0  0  0  0  0  0  0  0  0
   45.6229    9.5786   12.1128 H   0  0  0  0  0  0  0  0  0  0  0  0
   43.8998    9.1404   12.2060 H   0  0  0  0  0  0  0  0  0  0  0  0
   44.8098    8.8435   10.7098 H   0  0  0  0  0  0  0  0  0  0  0  0
   47.3616    8.8767   13.0638 H   0  0  0  0  0  0  0  0  0  0  0  0
   45.4314   10.1578   11.9679 H   0  0  0  0  0  0  0  0  0  0  0  0
   42.5423    4.7534   11.6160 H   0  0  0  0  0  0  0  0  0  0  0  0
   42.2615    6.4109   12.1913 H   0  0  0  0  0  0  0  0  0  0  0  0
   42.9875    6.1276   10.5814 H   0  0  0  0  0  0  0  0  0  0  0  0
   47.7987    3.8063   14.1531 H   0  0  0  0  0  0  0  0  0  0  0  0
   46.8906    2.9039   12.9157 H   0  0  0  0  0  0  0  0  0  0  0  0
   46.1696    3.1852   14.5144 H   0  0  0  0  0  0  0  0  0  0  0  0
   44.0137    6.7386   13.4135 H   0  0  0  0  0  0  0  0  0  0  0  0
   44.9468    8.0228   13.2099 H   0  0  0  0  0  0  0  0  0  0  0  0
   44.6907    4.3722   13.2535 H   0  0  0  0  0  0  0  0  0  0  0  0
   46.0589    4.3073   14.1380 H   0  0  0  0  0  0  0  0  0  0  0  0
   46.6141    4.9348   11.9364 H   0  0  0  0  0  0  0  0  0  0  0  0
   46.9331    6.2581   13.0687 H   0  0  0  0  0  0  0  0  0  0  0  0
   44.5514    5.9668   11.1668 H   0  0  0  0  0  0  0  0  0  0  0  0
   45.7829    7.2339   11.1489 H   0  0  0  0  0  0  0  0  0  0  0  0
  2  1  1  0
  3  4  1  0
  4  1  1  0
  5  2  2  0
  6  3  1  0
  7  2  1  0
  8  5  1  0
  9  7  2  0
 10  4  2  0
 11  6  2  0
 12  1  1  0
 13  3  1  0
  5  6  1  0
  8  9  1  0
 15 14  1  0
 16 17  1  0
 17 14  1  0
 18 15  2  0
 19 16  1  0
 20 15  1  0
 21 18  1  0
 22 20  2  0
 23 17  2  0
 24 19  2  0
 25 14  1  0
 26 16  1  0
 18 19  1  0
 21 22  1  0
 28 29  1  0
 29 30  1  0
 30 27  1  0
  8 31  1  0
  9 32  1  0
 12 33  1  0
 12 34  1  0
 12 35  1  0
 13 36  1  0
 13 37  1  0
 13 38  1  0
 21 39  1  0
 22 40  1  0
 25 41  1  0
 25 42  1  0
 25 43  1  0
 26 44  1  0
 26 45  1  0
 26 46  1  0
 27 47  1  0
 27 48  1  0
 28 49  1  0
 28 50  1  0
 29 51  1  0
 29 52  1  0
 30 53  1  0
 30 54  1  0
M  END
> <Uni-Dock RESULT> 
ENERGY=   -6.179  LOWER_BOUND=    1.087  UPPER_BOUND=    3.024
INTER + INTRA:          -6.179
INTER:                  -6.179
INTRA:                   0.000
UNBOUND:                 0.000

$$$$

     RDKit          3D

 54 55  0  0  0  0  0  0  0  0999 V2000
   43.9723    5.5784   12.0489 N   0  0  0  0  0  0  0  0  0  0  0  0
   44.5277    6.8298   11.9386 C   0  0  0  0  0  0  0  0  0  0  0  0
   45.9550    4.9096   13.2200 N   0  0  0  0  0  0  0  0  0  0  0  0
   44.6848    4.5707   12.7036 C   0  0  0  0  0  0  0  0  0  0  0  0
   45.7542    7.1114   12.4511 C   0  0  0  0  0  0  0  0  0  0  0  0
   46.5600    6.1657   13.1323 C   0  0  0  0  0  0  0  0  0  0  0  0
   43.9723    7.9175   11.3361 N   0  0  0  0  0  0  0  0  0  0  0  0
   45.9782    8.4248   12.1600 N   0  0  0  0  0  0  0  0  0  0  0  0
   44.8714    8.8706   11.4843 C   0  0  0  0  0  0  0  0  0  0  0  0
   44.2327    3.4289   12.8311 O   0  0  0  0  0  0  0  0  0  0  0  0
   47.6641    6.4515   13.5838 O   0  0  0  0  0  0  0  0  0  0  0  0
   42.6597    5.3129   11.4895 C   0  0  0  0  0  0  0  0  0  0  0  0
   46.6771    3.8496   13.8953 C   0  0  0  0  0  0  0  0  0  0  0  0
   44.3254    4.9850   12.2341 N   0  0  0  0  0  0  0  0  0  0  0  0
   45.5220    4.9370   12.9066 C   0  0  0  0  0  0  0  0  0  0  0  0
   44.6671    7.3464   11.9954 N   0  0  0  0  0  0  0  0  0  0  0  0
   43.8610    6.2120   11.7540 C   0  0  0  0  0  0  0  0  0  0  0  0
   46.2656    6.0549   13.1164 C   0  0  0  0  0  0  0  0  0  0  0  0
   45.8888    7.3468   12.6731 C   0  0  0  0  0  0  0  0  0  0  0  0
   46.1153    3.8314   13.4362 N   0  0  0  0  0  0  0  0  0  0  0  0
   47.3671    5.6367   13.8033 N   0  0  0  0  0  0  0  0  0  0  0  0
   47.2317    4.2827   13.9737 C   0  0  0  0  0  0  0  0  0  0  0  0
   42.7927    6.3119   11.1432 O   0  0  0  0  0  0  0  0  0  0  0  0
   46.5827    8.3371   12.8785 O   0  0  0  0  0  0  0  0  0  0  0  0
   43.5573    3.7710   12.0281 C   0  0  0  0  0  0  0  0  0  0  0  0
   44.1668    8.6090   11.4889 C   0  0  0  0  0  0  0  0  0  0  0  0
   45.8298    4.4108   12.4236 N   0  0  0  0  0  0  0  0  0  0  0  0
   44.7591    6.7898   11.3186 N   0  0  0  0  0  0  0  0  0  0  0  0
   44.9729    6.7197   12.7697 C   0  0  0  0  0  0  0  0  0  0  0  0
   44.9850    5.2621   13.2692 C   0  0  0  0  0  0  0  0  0  0  0  0
   46.8034    8.9597   12.3996 H   0  0  0  0  0  0  0  0  0  0  0  0
   44.7808    9.8893   11.1297 H   0  0  0  0  0  0  0  0  0  0  0  0
   42.6852    5.5039   10.4120 H   0  0  0  0  0  0  0  0  0  0  0  0
   42.3485    4.2778   11.6532 H   0  0  0  0  0  0  0  0  0  0  0  0
   41.9288    5.9763   11.9626 H   0  0  0  0  0  0  0  0  0  0  0  0
   47.6500    4.1773   14.2700 H   0  0  0  0  0  0  0  0  0  0  0  0
   46.8266    3.0199   13.1965 H   0  0  0  0  0  0  0  0  0  0  0  0
   46.0755    3.4891   14.7361 H   0  0  0  0  0  0  0  0  0  0  0  0
   48.1316    6.2184   14.1219 H   0  0  0  0  0  0  0  0  0  0  0  0
   47.9722    3.6875   14.4924 H   0  0  0  0  0  0  0  0  0  0  0  0
   42.6313    3.9626   11.4797 H   0  0  0  0  0  0  0  0  0  0  0  0
   44.1609    3.0589   11.4566 H   0  0  0  0  0  0  0  0  0  0  0  0
   43.3039    3.3390   13.0014 H   0  0  0  0  0  0  0  0  0  0  0  0
   44.8364    9.4443   11.7089 H   0  0  0  0  0  0  0  0  0  0  0  0
   43.1887    8.8100   11.9382 H   0  0  0  0  0  0  0  0  0  0  0  0
   44.0396    8.5318   10.4041 H   0  0  0  0  0  0  0  0  0  0  0  0
   45.6045    4.6675   11.4553 H   0  0  0  0  0  0  0  0  0  0  0  0
   46.7964    4.7220   12.5219 H   0  0  0  0  0  0  0  0  0  0  0  0
   43.8562    6.3698   11.0957 H   0  0  0  0  0  0  0  0  0  0  0  0
   44.6927    7.7682   11.0393 H   0  0  0  0  0  0  0  0  0  0  0  0
   44.1892    7.2817   13.2885 H   0  0  0  0  0  0  0  0  0  0  0  0
   45.9337    7.1933   12.9996 H   0  0  0  0  0  0  0  0  0  0  0  0
   43.9656    4.8609   13.2469 H   0  0  0  0  0  0  0  0  0  0  0  0
   45.3340    5.2199   14.3059 H   0  0  0  0  0  0  0  0  0  0  0  0
  2  1  1  0
  3  4  1  0
  4  1  1  0
  5  2  2  0
  6  3  1  0
  7  2  1  0
  8  5  1  0
  9  7  2  0
 10  4  2  0
 11  6  2  0
 12  1  1  0
 13  3  1  0
  5  6  1  0
  8  9  1  0
 15 14  1  0
 16 17  1  0
 17 14  1  0
 18 15  2  0
 19 16  1  0
 20 15  1  0
 21 18  1  0
 22 20  2  0
 23 17  2  0
 24 19  2  0
 25 14  1  0
 26 16  1  0
 18 19  1  0
 21 22  1  0
 28 29  1  0
 29 30  1  0
 30 27  1  0
  8 31  1  0
  9 32  1  0
 12 33  1  0
 12 34  1  0
 12 35  1  0
 13 36  1  0
 13 37  1  0
 13 38  1  0
 21 39  1  0
 22 40  1  0
 25 41  1  0
 25 42  1  0
 25 43  1  0
 26 44  1  0
 26 45  1  0
 26 46  1  0
 27 47  1  0
 27 48  1  0
 28 49  1  0
 28 50  1  0
 29 51  1  0
 29 52  1  0
 30 53  1  0
 30 54  1  0
M  END
> <Uni-Dock RESULT> 
ENERGY=   -6.016  LOWER_BOUND=    0.978  UPPER_BOUND=    3.956
INTER + INTRA:          -6.016
INTER:                  -6.016
INTRA:                   0.000
UNBOUND:                 0.000

$$$$

     RDKit          3D

 54 55  0  0  0  0  0  0  0  0999 V2000
   44.4184    6.3321   11.8773 N   0  0  0  0  0  0  0  0  0  0  0  0
   44.2716    4.9747   12.0268 C   0  0  0  0  0  0  0  0  0  0  0  0
   46.4885    6.1403   13.0721 N   0  0  0  0  0  0  0  0  0  0  0  0
   45.5499    6.9586   12.4054 C   0  0  0  0  0  0  0  0  0  0  0  0
   45.2008    4.2259   12.6765 C   0  0  0  0  0  0  0  0  0  0  0  0
   46.3825    4.7586   13.2488 C   0  0  0  0  0  0  0  0  0  0  0  0
   43.2368    4.2125   11.5762 N   0  0  0  0  0  0  0  0  0  0  0  0
   44.7330    2.9457   12.6327 N   0  0  0  0  0  0  0  0  0  0  0  0
   43.5409    2.9870   11.9564 C   0  0  0  0  0  0  0  0  0  0  0  0
   45.7318    8.1751   12.2995 O   0  0  0  0  0  0  0  0  0  0  0  0
   47.2028    4.0554   13.8295 O   0  0  0  0  0  0  0  0  0  0  0  0
   43.4058    7.1009   11.1774 C   0  0  0  0  0  0  0  0  0  0  0  0
   47.6549    6.8103   13.6124 C   0  0  0  0  0  0  0  0  0  0  0  0
   44.8830    6.7391   12.2373 N   0  0  0  0  0  0  0  0  0  0  0  0
   46.0161    6.2961   12.8746 C   0  0  0  0  0  0  0  0  0  0  0  0
   44.2575    4.4405   11.9632 N   0  0  0  0  0  0  0  0  0  0  0  0
   43.9604    5.8060   11.7579 C   0  0  0  0  0  0  0  0  0  0  0  0
   46.2617    4.9712   13.0502 C   0  0  0  0  0  0  0  0  0  0  0  0
   45.3947    3.9430   12.6044 C   0  0  0  0  0  0  0  0  0  0  0  0
   47.0102    7.0657   13.3983 N   0  0  0  0  0  0  0  0  0  0  0  0
   47.4542    4.9054   13.7087 N   0  0  0  0  0  0  0  0  0  0  0  0
   47.8692    6.1987   13.8976 C   0  0  0  0  0  0  0  0  0  0  0  0
   42.9260    6.1494   11.1780 O   0  0  0  0  0  0  0  0  0  0  0  0
   45.6450    2.7550   12.7784 O   0  0  0  0  0  0  0  0  0  0  0  0
   44.6530    8.1619   12.0672 C   0  0  0  0  0  0  0  0  0  0  0  0
   43.2873    3.4894   11.4582 C   0  0  0  0  0  0  0  0  0  0  0  0
   45.8719    6.7029   13.5216 N   0  0  0  0  0  0  0  0  0  0  0  0
   43.8565    4.9683   12.5437 N   0  0  0  0  0  0  0  0  0  0  0  0
   45.2127    4.8560   11.9921 C   0  0  0  0  0  0  0  0  0  0  0  0
   46.0019    6.1686   12.1611 C   0  0  0  0  0  0  0  0  0  0  0  0
   45.1838    2.1289   13.0254 H   0  0  0  0  0  0  0  0  0  0  0  0
   42.9472    2.1005   11.7746 H   0  0  0  0  0  0  0  0  0  0  0  0
   42.4488    6.9875   11.6966 H   0  0  0  0  0  0  0  0  0  0  0  0
   43.6568    8.1641   11.1365 H   0  0  0  0  0  0  0  0  0  0  0  0
   43.3149    6.7239   10.1538 H   0  0  0  0  0  0  0  0  0  0  0  0
   48.3393    6.1218   14.1143 H   0  0  0  0  0  0  0  0  0  0  0  0
   47.3280    7.5714   14.3284 H   0  0  0  0  0  0  0  0  0  0  0  0
   48.1879    7.3096   12.7966 H   0  0  0  0  0  0  0  0  0  0  0  0
   47.9335    4.0623   13.9983 H   0  0  0  0  0  0  0  0  0  0  0  0
   48.7963    6.4417   14.4006 H   0  0  0  0  0  0  0  0  0  0  0  0
   43.7144    8.3635   11.5444 H   0  0  0  0  0  0  0  0  0  0  0  0
   44.6135    8.6377   13.0522 H   0  0  0  0  0  0  0  0  0  0  0  0
   45.4757    8.5899   11.4858 H   0  0  0  0  0  0  0  0  0  0  0  0
   43.5769    2.4531   11.6492 H   0  0  0  0  0  0  0  0  0  0  0  0
   43.1762    3.6340   10.3785 H   0  0  0  0  0  0  0  0  0  0  0  0
   42.3200    3.6815   11.9339 H   0  0  0  0  0  0  0  0  0  0  0  0
   44.8779    6.6138   13.7629 H   0  0  0  0  0  0  0  0  0  0  0  0
   46.3210    6.0507   14.1650 H   0  0  0  0  0  0  0  0  0  0  0  0
   43.3564    5.7061   12.0468 H   0  0  0  0  0  0  0  0  0  0  0  0
   43.3481    4.1050   12.3543 H   0  0  0  0  0  0  0  0  0  0  0  0
   45.1616    4.5893   10.9312 H   0  0  0  0  0  0  0  0  0  0  0  0
   45.7320    4.0465   12.5169 H   0  0  0  0  0  0  0  0  0  0  0  0
   45.6157    6.9184   11.4617 H   0  0  0  0  0  0  0  0  0  0  0  0
   47.0584    6.0085   11.9237 H   0  0  0  0  0  0  0  0  0  0  0  0
  2  1  1  0
  3  4  1  0
  4  1  1  0
  5  2  2  0
  6  3  1  0
  7  2  1  0
  8  5  1  0
  9  7  2  0
 10  4  2  0
 11  6  2  0
 12  1  1  0
 13  3  1  0
  5  6  1  0
  8  9  1  0
 15 14  1  0
 16 17  1  0
 17 14  1  0
 18 15  2  0
 19 16  1  0
 20 15  1  0
 21 18  1  0
 22 20  2  0
 23 17  2  0
 24 19  2  0
 25 14  1  0
 26 16  1  0
 18 19  1  0
 21 22  1  0
 28 29  1  0
 29 30  1  0
 30 27  1  0
  8 31  1  0
  9 32  1  0
 12 33  1  0
 12 34  1  0
 12 35  1  0
 13 36  1  0
 13 37  1  0
 13 38  1  0
 21 39  1  0
 22 40  1  0
 25 41  1  0
 25 42  1  0
 25 43  1  0
 26 44  1  0
 26 45  1  0
 26 46  1  0
 27 47  1  0
 27 48  1  0
 28 49  1  0
 28 50  1  0
 29 51  1  0
 29 52  1  0
 30 53  1  0
 30 54  1  0
M  END
> <Uni-Dock RESULT> 
ENERGY=   -5.962  LOWER_BOUND=    0.959  UPPER_BOUND=    2.891
INTER + INTRA:          -5.962
INTER:                  -5.962
INTRA:                   0.000
UNBOUND:                 0.000

$$$$

     RDKit          3D

 54 55  0  0  0  0  0  0  0  0999 V2000
   44.9414    7.5236   11.9898 N   0  0  0  0  0  0  0  0  0  0  0  0
   44.3462    6.3000   12.1767 C   0  0  0  0  0  0  0  0  0  0  0  0
   46.8264    6.6827   13.2102 N   0  0  0  0  0  0  0  0  0  0  0  0
   46.2179    7.7485   12.5110 C   0  0  0  0  0  0  0  0  0  0  0  0
   44.9693    5.3023   12.8569 C   0  0  0  0  0  0  0  0  0  0  0  0
   46.2616    5.4234   13.4254 C   0  0  0  0  0  0  0  0  0  0  0  0
   43.1151    5.9172   11.7380 N   0  0  0  0  0  0  0  0  0  0  0  0
   44.0978    4.2534   12.8453 N   0  0  0  0  0  0  0  0  0  0  0  0
   42.9890    4.6729   12.1562 C   0  0  0  0  0  0  0  0  0  0  0  0
   46.7987    8.8290   12.3719 O   0  0  0  0  0  0  0  0  0  0  0  0
   46.7973    4.5031   14.0342 O   0  0  0  0  0  0  0  0  0  0  0  0
   44.2465    8.5667   11.2581 C   0  0  0  0  0  0  0  0  0  0  0  0
   48.1505    6.9373   13.7426 C   0  0  0  0  0  0  0  0  0  0  0  0
   45.5160    7.7613   12.3425 N   0  0  0  0  0  0  0  0  0  0  0  0
   46.4340    6.9823   13.0036 C   0  0  0  0  0  0  0  0  0  0  0  0
   44.1531    5.7999   12.1284 N   0  0  0  0  0  0  0  0  0  0  0  0
   44.3330    7.1789   11.8810 C   0  0  0  0  0  0  0  0  0  0  0  0
   46.2192    5.6580   13.2196 C   0  0  0  0  0  0  0  0  0  0  0  0
   45.0566    4.9685   12.7949 C   0  0  0  0  0  0  0  0  0  0  0  0
   47.6293    7.3881   13.5148 N   0  0  0  0  0  0  0  0  0  0  0  0
   47.3202    5.2149   13.8915 N   0  0  0  0  0  0  0  0  0  0  0  0
   48.1464    6.2982   14.0474 C   0  0  0  0  0  0  0  0  0  0  0  0
   43.4743    7.8326   11.2812 O   0  0  0  0  0  0  0  0  0  0  0  0
   44.8924    3.7714   13.0055 O   0  0  0  0  0  0  0  0  0  0  0  0
   45.7784    9.1726   12.1294 C   0  0  0  0  0  0  0  0  0  0  0  0
   42.9192    5.2160   11.6413 C   0  0  0  0  0  0  0  0  0  0  0  0
   46.4354    7.4334   13.6372 N   0  0  0  0  0  0  0  0  0  0  0  0
   43.9533    6.4493   12.6895 N   0  0  0  0  0  0  0  0  0  0  0  0
   45.1924    5.8704   12.1548 C   0  0  0  0  0  0  0  0  0  0  0  0
   46.3774    6.8454   12.2940 C   0  0  0  0  0  0  0  0  0  0  0  0
   44.2474    3.3449   13.2657 H   0  0  0  0  0  0  0  0  0  0  0  0
   42.1314    4.0328   11.9941 H   0  0  0  0  0  0  0  0  0  0  0  0
   43.3074    8.7978   11.7707 H   0  0  0  0  0  0  0  0  0  0  0  0
   44.8408    9.4816   11.1892 H   0  0  0  0  0  0  0  0  0  0  0  0
   44.0337    8.2113   10.2449 H   0  0  0  0  0  0  0  0  0  0  0  0
   48.5633    6.0742   14.2708 H   0  0  0  0  0  0  0  0  0  0  0  0
   48.0991    7.7854   14.4332 H   0  0  0  0  0  0  0  0  0  0  0  0
   48.8202    7.2030   12.9181 H   0  0  0  0  0  0  0  0  0  0  0  0
   47.4877    4.2688   14.2100 H   0  0  0  0  0  0  0  0  0  0  0  0
   49.1014    6.2302   14.5524 H   0  0  0  0  0  0  0  0  0  0  0  0
   44.9623    9.6623   11.5917 H   0  0  0  0  0  0  0  0  0  0  0  0
   45.9016    9.6637   13.0999 H   0  0  0  0  0  0  0  0  0  0  0  0
   46.6970    9.2809   11.5442 H   0  0  0  0  0  0  0  0  0  0  0  0
   42.8430    4.1489   11.8649 H   0  0  0  0  0  0  0  0  0  0  0  0
   42.8629    5.3566   10.5568 H   0  0  0  0  0  0  0  0  0  0  0  0
   42.0731    5.7368   12.1016 H   0  0  0  0  0  0  0  0  0  0  0  0
   45.4695    7.6914   13.8710 H   0  0  0  0  0  0  0  0  0  0  0  0
   46.6389    6.6881   14.3035 H   0  0  0  0  0  0  0  0  0  0  0  0
   43.7307    7.2970   12.1666 H   0  0  0  0  0  0  0  0  0  0  0  0
   43.1839    5.8021   12.5199 H   0  0  0  0  0  0  0  0  0  0  0  0
   45.0542    5.6044   11.1016 H   0  0  0  0  0  0  0  0  0  0  0  0
   45.4091    4.9498   12.7079 H   0  0  0  0  0  0  0  0  0  0  0  0
   46.2661    7.6598   11.5695 H   0  0  0  0  0  0  0  0  0  0  0  0
   47.3183    6.3320   12.0717 H   0  0  0  0  0  0  0  0  0  0  0  0
  2  1  1  0
  3  4  1  0
  4  1  1  0
  5  2  2  0
  6  3  1  0
  7  2  1  0
  8  5  1  0
  9  7  2  0
 10  4  2  0
 11  6  2  0
 12  1  1  0
 13  3  1  0
  5  6  1  0
  8  9  1  0
 15 14  1  0
 16 17  1  0
 17 14  1  0
 18 15  2  0
 19 16  1  0
 20 15  1  0
 21 18  1  0
 22 20  2  0
 23 17  2  0
 24 19  2  0
 25 14  1  0
 26 16  1  0
 18 19  1  0
 21 22  1  0
 28 29  1  0
 29 30  1  0
 30 27  1  0
  8 31  1  0
  9 32  1  0
 12 33  1  0
 12 34  1  0
 12 35  1  0
 13 36  1  0
 13 37  1  0
 13 38  1  0
 21 39  1  0
 22 40  1  0
 25 41  1  0
 25 42  1  0
 25 43  1  0
 26 44  1  0
 26 45  1  0
 26 46  1  0
 27 47  1  0
 27 48  1  0
 28 49  1  0
 28 50  1  0
 29 51  1  0
 29 52  1  0
 30 53  1  0
 30 54  1  0
M  END
> <Uni-Dock RESULT> 
ENERGY=   -5.870  LOWER_BOUND=    1.316  UPPER_BOUND=    3.127
INTER + INTRA:          -5.870
INTER:                  -5.870
INTRA:                   0.000
UNBOUND:                 0.000

$$$$

     RDKit          3D

 54 55  0  0  0  0  0  0  0  0999 V2000
   43.9848    3.5060   11.3287 N   0  0  0  0  0  0  0  0  0  0  0  0
   44.6055    3.6084   10.1078 C   0  0  0  0  0  0  0  0  0  0  0  0
   44.8438    5.6861   11.8376 N   0  0  0  0  0  0  0  0  0  0  0  0
   44.0907    4.5606   12.2389 C   0  0  0  0  0  0  0  0  0  0  0  0
   45.3206    4.7113    9.7636 C   0  0  0  0  0  0  0  0  0  0  0  0
   45.4917    5.8354   10.6091 C   0  0  0  0  0  0  0  0  0  0  0  0
   44.6029    2.6795    9.1119 N   0  0  0  0  0  0  0  0  0  0  0  0
   45.7847    4.4668    8.5047 N   0  0  0  0  0  0  0  0  0  0  0  0
   45.3244    3.2242    8.1519 C   0  0  0  0  0  0  0  0  0  0  0  0
   43.5528    4.5209   13.3494 O   0  0  0  0  0  0  0  0  0  0  0  0
   46.1439    6.8169   10.2687 O   0  0  0  0  0  0  0  0  0  0  0  0
   43.2290    2.3130   11.6631 C   0  0  0  0  0  0  0  0  0  0  0  0
   44.9408    6.7686   12.7968 C   0  0  0  0  0  0  0  0  0  0  0  0
   44.1105    3.9276   11.8923 N   0  0  0  0  0  0  0  0  0  0  0  0
   44.6796    5.1769   11.8520 C   0  0  0  0  0  0  0  0  0  0  0  0
   44.7295    3.6795    9.5889 N   0  0  0  0  0  0  0  0  0  0  0  0
   44.1219    3.1350   10.7419 C   0  0  0  0  0  0  0  0  0  0  0  0
   45.2537    5.6611   10.7196 C   0  0  0  0  0  0  0  0  0  0  0  0
   45.3200    4.9426    9.5002 C   0  0  0  0  0  0  0  0  0  0  0  0
   44.7538    6.0719   12.8759 N   0  0  0  0  0  0  0  0  0  0  0  0
   45.7057    6.9064   11.0435 N   0  0  0  0  0  0  0  0  0  0  0  0
   45.3801    7.1112   12.3597 C   0  0  0  0  0  0  0  0  0  0  0  0
   43.6248    2.0050   10.7228 O   0  0  0  0  0  0  0  0  0  0  0  0
   45.8456    5.4078    8.4944 O   0  0  0  0  0  0  0  0  0  0  0  0
   43.5059    3.4425   13.1192 C   0  0  0  0  0  0  0  0  0  0  0  0
   44.7304    2.8407    8.4068 C   0  0  0  0  0  0  0  0  0  0  0  0
   45.1646    5.0300   12.4420 N   0  0  0  0  0  0  0  0  0  0  0  0
   45.1509    3.2535   10.2349 N   0  0  0  0  0  0  0  0  0  0  0  0
   44.4701    4.5479   10.1031 C   0  0  0  0  0  0  0  0  0  0  0  0
   44.0625    5.1143   11.4769 C   0  0  0  0  0  0  0  0  0  0  0  0
   46.3571    5.0868    7.9458 H   0  0  0  0  0  0  0  0  0  0  0  0
   45.5462    2.7755    7.1922 H   0  0  0  0  0  0  0  0  0  0  0  0
   43.8953    1.4454   11.6243 H   0  0  0  0  0  0  0  0  0  0  0  0
   42.7929    2.3736   12.6636 H   0  0  0  0  0  0  0  0  0  0  0  0
   42.4200    2.1872   10.9365 H   0  0  0  0  0  0  0  0  0  0  0  0
   45.5356    7.6066   12.4249 H   0  0  0  0  0  0  0  0  0  0  0  0
   45.3979    6.3889   13.7165 H   0  0  0  0  0  0  0  0  0  0  0  0
   43.9331    7.1255   13.0335 H   0  0  0  0  0  0  0  0  0  0  0  0
   46.1870    7.5487   10.4268 H   0  0  0  0  0  0  0  0  0  0  0  0
   45.6236    8.0283   12.8805 H   0  0  0  0  0  0  0  0  0  0  0  0
   43.0953    2.4363   13.0013 H   0  0  0  0  0  0  0  0  0  0  0  0
   44.2655    3.4198   13.9071 H   0  0  0  0  0  0  0  0  0  0  0  0
   42.6959    4.1187   13.4101 H   0  0  0  0  0  0  0  0  0  0  0  0
   45.2145    3.3204    7.5524 H   0  0  0  0  0  0  0  0  0  0  0  0
   43.6958    2.6006    8.1403 H   0  0  0  0  0  0  0  0  0  0  0  0
   45.2544    1.9065    8.6339 H   0  0  0  0  0  0  0  0  0  0  0  0
   45.5703    4.0945   12.3217 H   0  0  0  0  0  0  0  0  0  0  0  0
   45.9144    5.6450   12.1250 H   0  0  0  0  0  0  0  0  0  0  0  0
   44.5159    2.5883   10.6774 H   0  0  0  0  0  0  0  0  0  0  0  0
   45.3448    2.8837    9.3047 H   0  0  0  0  0  0  0  0  0  0  0  0
   43.5830    4.4386    9.4703 H   0  0  0  0  0  0  0  0  0  0  0  0
   45.1523    5.2469    9.6069 H   0  0  0  0  0  0  0  0  0  0  0  0
   43.2180    4.5388   11.8722 H   0  0  0  0  0  0  0  0  0  0  0  0
   43.7351    6.1540   11.3759 H   0  0  0  0  0  0  0  0  0  0  0  0
  2  1  1  0
  3  4  1  0
  4  1  1  0
  5  2  2  0
  6  3  1  0
  7  2  1  0
  8  5  1  0
  9  7  2  0
 10  4  2  0
 11  6  2  0
 12  1  1  0
 13  3  1  0
  5  6  1  0
  8  9  1  0
 15 14  1  0
 16 17  1  0
 17 14  1  0
 18 15  2  0
 19 16  1  0
 20 15  1  0
 21 18  1  0
 22 20  2  0
 23 17  2  0
 24 19  2  0
 25 14  1  0
 26 16  1  0
 18 19  1  0
 21 22  1  0
 28 29  1  0
 29 30  1  0
 30 27  1  0
  8 31  1  0
  9 32  1  0
 12 33  1  0
 12 34  1  0
 12 35  1  0
 13 36  1  0
 13 37  1  0
 13 38  1  0
 21 39  1  0
 22 40  1  0
 25 41  1  0
 25 42  1  0
 25 43  1  0
 26 44  1  0
 26 45  1  0
 26 46  1  0
 27 47  1  0
 27 48  1  0
 28 49  1  0
 28 50  1  0
 29 51  1  0
 29 52  1  0
 30 53  1  0
 30 54  1  0
M  END
> <Uni-Dock RESULT> 
ENERGY=   -5.682  LOWER_BOUND=    2.165  UPPER_BOUND=    2.979
INTER + INTRA:          -5.682
INTER:                  -5.682
INTRA:                   0.000
UNBOUND:                 0.000

$$$$
