
     RDKit          3D

 54 55  0  0  0  0  0  0  0  0999 V2000
   46.5914    6.0361   13.0988 N   0  0  0  0  0  0  0  0  0  0  0  0
   45.9007    7.1658   12.7339 C   0  0  0  0  0  0  0  0  0  0  0  0
   44.6212    4.7783   12.5632 N   0  0  0  0  0  0  0  0  0  0  0  0
   45.9586    4.7932   13.0173 C   0  0  0  0  0  0  0  0  0  0  0  0
   44.6155    7.1040   12.2972 C   0  0  0  0  0  0  0  0  0  0  0  0
   43.8803    5.8986   12.1790 C   0  0  0  0  0  0  0  0  0  0  0  0
   46.3657    8.4459   12.7497 N   0  0  0  0  0  0  0  0  0  0  0  0
   44.2593    8.3927   12.0284 N   0  0  0  0  0  0  0  0  0  0  0  0
   45.3516    9.1696   12.3177 C   0  0  0  0  0  0  0  0  0  0  0  0
   46.5350    3.7459   13.3258 O   0  0  0  0  0  0  0  0  0  0  0  0
   42.7212    5.8758   11.7786 O   0  0  0  0  0  0  0  0  0  0  0  0
   47.9648    6.1387   13.5567 C   0  0  0  0  0  0  0  0  0  0  0  0
   43.9835    3.4789   12.4869 C   0  0  0  0  0  0  0  0  0  0  0  0
   46.0149    5.2931   13.4290 N   0  0  0  0  0  0  0  0  0  0  0  0
   44.8772    5.0480   12.6996 C   0  0  0  0  0  0  0  0  0  0  0  0
   45.9889    7.5185   12.5364 N   0  0  0  0  0  0  0  0  0  0  0  0
   46.6082    6.5562   13.3644 C   0  0  0  0  0  0  0  0  0  0  0  0
   44.3145    6.0049   11.9159 C   0  0  0  0  0  0  0  0  0  0  0  0
   44.8335    7.3161   11.7777 C   0  0  0  0  0  0  0  0  0  0  0  0
   44.1770    3.8810   12.6495 N   0  0  0  0  0  0  0  0  0  0  0  0
   43.2200    5.4179   11.3526 N   0  0  0  0  0  0  0  0  0  0  0  0
   43.1777    4.1319   11.8264 C   0  0  0  0  0  0  0  0  0  0  0  0
   47.6305    6.8305   14.0000 O   0  0  0  0  0  0  0  0  0  0  0  0
   44.3019    8.1580   11.0615 O   0  0  0  0  0  0  0  0  0  0  0  0
   46.5892    4.2472   14.2553 C   0  0  0  0  0  0  0  0  0  0  0  0
   46.6206    8.8222   12.4841 C   0  0  0  0  0  0  0  0  0  0  0  0
   45.0310    4.2419   12.5590 N   0  0  0  0  0  0  0  0  0  0  0  0
   45.8179    7.9386   12.8172 N   0  0  0  0  0  0  0  0  0  0  0  0
   45.0222    6.7370   12.5757 C   0  0  0  0  0  0  0  0  0  0  0  0
   45.8268    5.4435   12.7998 C   0  0  0  0  0  0  0  0  0  0  0  0
   43.3614    8.7068   11.6824 H   0  0  0  0  0  0  0  0  0  0  0  0
   45.3466   10.2449   12.1941 H   0  0  0  0  0  0  0  0  0  0  0  0
   48.5758    6.5706   12.7580 H   0  0  0  0  0  0  0  0  0  0  0  0
   48.3789    5.1633   13.8246 H   0  0  0  0  0  0  0  0  0  0  0  0
   48.0005    6.7870   14.4380 H   0  0  0  0  0  0  0  0  0  0  0  0
   44.5442    2.8498   11.7877 H   0  0  0  0  0  0  0  0  0  0  0  0
   42.9446    3.5406   12.1539 H   0  0  0  0  0  0  0  0  0  0  0  0
   44.0121    3.0080   13.4750 H   0  0  0  0  0  0  0  0  0  0  0  0
   42.5699    5.8533   10.7105 H   0  0  0  0  0  0  0  0  0  0  0  0
   42.4024    3.4337   11.5382 H   0  0  0  0  0  0  0  0  0  0  0  0
   46.8536    3.3954   13.6206 H   0  0  0  0  0  0  0  0  0  0  0  0
   45.8507    3.9342   15.0003 H   0  0  0  0  0  0  0  0  0  0  0  0
   47.4881    4.5865   14.7762 H   0  0  0  0  0  0  0  0  0  0  0  0
   46.6449    9.2457   13.4935 H   0  0  0  0  0  0  0  0  0  0  0  0
   47.6514    8.7047   12.1339 H   0  0  0  0  0  0  0  0  0  0  0  0
   46.0976    9.5155   11.8208 H   0  0  0  0  0  0  0  0  0  0  0  0
   44.2134    4.2463   13.1689 H   0  0  0  0  0  0  0  0  0  0  0  0
   44.6673    4.2587   11.6063 H   0  0  0  0  0  0  0  0  0  0  0  0
   46.6359    7.9342   12.2081 H   0  0  0  0  0  0  0  0  0  0  0  0
   46.1806    7.9216   13.7702 H   0  0  0  0  0  0  0  0  0  0  0  0
   44.6444    6.7686   11.5475 H   0  0  0  0  0  0  0  0  0  0  0  0
   44.1511    6.7551   13.2402 H   0  0  0  0  0  0  0  0  0  0  0  0
   46.2052    5.4120   13.8278 H   0  0  0  0  0  0  0  0  0  0  0  0
   46.6977    5.4251   12.1348 H   0  0  0  0  0  0  0  0  0  0  0  0
  2  1  1  0
  3  4  1  0
  4  1  1  0
  5  2  2  0
  6  3  1  0
  7  2  1  0
  8  5  1  0
  9  7  2  0
 10  4  2  0
 11  6  2  0
 12  1  1  0
 13  3  1  0
  5  6  1  0
  8  9  1  0
 15 14  1  0
 16 17  1  0
 17 14  1  0
 18 15  2  0
 19 16  1  0
 20 15  1  0
 21 18  1  0
 22 20  2  0
 23 17  2  0
 24 19  2  0
 25 14  1  0
 26 16  1  0
 18 19  1  0
 21 22  1  0
 28 29  1  0
 29 30  1  0
 30 27  1  0
  8 31  1  0
  9 32  1  0
 12 33  1  0
 12 34  1  0
 12 35  1  0
 13 36  1  0
 13 37  1  0
 13 38  1  0
 21 39  1  0
 22 40  1  0
 25 41  1  0
 25 42  1  0
 25 43  1  0
 26 44  1  0
 26 45  1  0
 26 46  1  0
 27 47  1  0
 27 48  1  0
 28 49  1  0
 28 50  1  0
 29 51  1  0
 29 52  1  0
 30 53  1  0
 30 54  1  0
M  END
> <Uni-Dock RESULT> 
ENERGY=   -6.351  LOWER_BOUND=    0.000  UPPER_BOUND=    0.000
INTER + INTRA:          -6.351
INTER:                  -6.351
INTRA:                   0.000
UNBOUND:                 0.000

$$$$

     RDKit          3D

 54 55  0  0  0  0  0  0  0  0999 V2000
   45.9207    5.1385   13.2320 N   0  0  0  0  0  0  0  0  0  0  0  0
   44.8173    4.8536   12.4653 C   0  0  0  0  0  0  0  0  0  0  0  0
   45.7183    7.4136   12.5015 N   0  0  0  0  0  0  0  0  0  0  0  0
   46.4039    6.4488   13.2723 C   0  0  0  0  0  0  0  0  0  0  0  0
   44.1852    5.8155   11.7430 C   0  0  0  0  0  0  0  0  0  0  0  0
   44.5925    7.1722   11.7105 C   0  0  0  0  0  0  0  0  0  0  0  0
   44.2189    3.6390   12.3179 N   0  0  0  0  0  0  0  0  0  0  0  0
   43.1512    5.1824   11.1187 N   0  0  0  0  0  0  0  0  0  0  0  0
   43.2121    3.8658   11.4971 C   0  0  0  0  0  0  0  0  0  0  0  0
   47.3874    6.7611   13.9502 O   0  0  0  0  0  0  0  0  0  0  0  0
   43.9986    8.0179   11.0499 O   0  0  0  0  0  0  0  0  0  0  0  0
   46.5684    4.0870   13.9944 C   0  0  0  0  0  0  0  0  0  0  0  0
   46.2366    8.7661   12.5571 C   0  0  0  0  0  0  0  0  0  0  0  0
   46.4557    5.9139   12.9065 N   0  0  0  0  0  0  0  0  0  0  0  0
   45.7364    7.0184   12.5205 C   0  0  0  0  0  0  0  0  0  0  0  0
   44.4844    4.6105   12.5005 N   0  0  0  0  0  0  0  0  0  0  0  0
   45.8366    4.6615   12.9053 C   0  0  0  0  0  0  0  0  0  0  0  0
   44.4362    6.9225   12.1374 C   0  0  0  0  0  0  0  0  0  0  0  0
   43.7133    5.7044   12.1000 C   0  0  0  0  0  0  0  0  0  0  0  0
   46.1840    8.3034   12.4639 N   0  0  0  0  0  0  0  0  0  0  0  0
   44.0523    8.1941   11.8284 N   0  0  0  0  0  0  0  0  0  0  0  0
   45.1442    8.9957   12.0415 C   0  0  0  0  0  0  0  0  0  0  0  0
   46.4368    3.6364   13.2418 O   0  0  0  0  0  0  0  0  0  0  0  0
   42.5392    5.6510   11.7493 O   0  0  0  0  0  0  0  0  0  0  0  0
   47.8429    6.0532   13.3101 C   0  0  0  0  0  0  0  0  0  0  0  0
   43.8615    3.3015   12.5063 C   0  0  0  0  0  0  0  0  0  0  0  0
   46.1242    7.5592   13.0209 N   0  0  0  0  0  0  0  0  0  0  0  0
   44.4216    4.3138   12.0617 N   0  0  0  0  0  0  0  0  0  0  0  0
   44.7150    5.7452   12.0465 C   0  0  0  0  0  0  0  0  0  0  0  0
   45.8303    6.1279   13.0366 C   0  0  0  0  0  0  0  0  0  0  0  0
   42.4743    5.6083   10.4982 H   0  0  0  0  0  0  0  0  0  0  0  0
   42.5021    3.1285   11.1449 H   0  0  0  0  0  0  0  0  0  0  0  0
   45.8527    3.6739   14.7119 H   0  0  0  0  0  0  0  0  0  0  0  0
   47.4381    4.4580   14.5428 H   0  0  0  0  0  0  0  0  0  0  0  0
   46.8979    3.2994   13.3092 H   0  0  0  0  0  0  0  0  0  0  0  0
   46.1898    9.1211   13.5918 H   0  0  0  0  0  0  0  0  0  0  0  0
   45.6778    9.4558   11.9198 H   0  0  0  0  0  0  0  0  0  0  0  0
   47.2848    8.7606   12.2405 H   0  0  0  0  0  0  0  0  0  0  0  0
   43.1376    8.4824   11.5050 H   0  0  0  0  0  0  0  0  0  0  0  0
   45.1196   10.0646   11.8728 H   0  0  0  0  0  0  0  0  0  0  0  0
   47.8982    6.7260   14.1718 H   0  0  0  0  0  0  0  0  0  0  0  0
   48.4166    6.4743   12.4784 H   0  0  0  0  0  0  0  0  0  0  0  0
   48.2850    5.0931   13.5883 H   0  0  0  0  0  0  0  0  0  0  0  0
   44.4162    2.6414   11.8316 H   0  0  0  0  0  0  0  0  0  0  0  0
   43.9156    2.8858   13.5180 H   0  0  0  0  0  0  0  0  0  0  0  0
   42.8156    3.3331   12.1915 H   0  0  0  0  0  0  0  0  0  0  0  0
   46.3916    7.8422   12.0782 H   0  0  0  0  0  0  0  0  0  0  0  0
   45.2772    8.0838   13.2391 H   0  0  0  0  0  0  0  0  0  0  0  0
   44.1549    4.0302   13.0043 H   0  0  0  0  0  0  0  0  0  0  0  0
   45.2687    3.7897   11.8427 H   0  0  0  0  0  0  0  0  0  0  0  0
   43.7969    6.2928   12.2879 H   0  0  0  0  0  0  0  0  0  0  0  0
   45.0037    6.0322   11.0291 H   0  0  0  0  0  0  0  0  0  0  0  0
   46.7482    5.5798   12.7956 H   0  0  0  0  0  0  0  0  0  0  0  0
   45.5413    5.8414   14.0541 H   0  0  0  0  0  0  0  0  0  0  0  0
  2  1  1  0
  3  4  1  0
  4  1  1  0
  5  2  2  0
  6  3  1  0
  7  2  1  0
  8  5  1  0
  9  7  2  0
 10  4  2  0
 11  6  2  0
 12  1  1  0
 13  3  1  0
  5  6  1  0
  8  9  1  0
 15 14  1  0
 16 17  1  0
 17 14  1  0
 18 15  2  0
 19 16  1  0
 20 15  1  0
 21 18  1  0
 22 20  2  0
 23 17  2  0
 24 19  2  0
 25 14  1  0
 26 16  1  0
 18 19  1  0
 21 22  1  0
 28 29  1  0
 29 30  1  0
 30 27  1  0
  8 31  1  0
  9 32  1  0
 12 33  1  0
 12 34  1  0
 12 35  1  0
 13 36  1  0
 13 37  1  0
 13 38  1  0
 21 39  1  0
 22 40  1  0
 25 41  1  0
 25 42  1  0
 25 43  1  0
 26 44  1  0
 26 45  1  0
 26 46  1  0
 27 47  1  0
 27 48  1  0
 28 49  1  0
 28 50  1  0
 29 51  1  0
 29 52  1  0
 30 53  1  0
 30 54  1  0
M  END
> <Uni-Dock RESULT> 
ENERGY=   -6.244  LOWER_BOUND=    0.377  UPPER_BOUND=    3.340
INTER + INTRA:          -6.244
INTER:                  -6.244
INTRA:                   0.000
UNBOUND:                 0.000

$$$$

     RDKit          3D

 54 55  0  0  0  0  0  0  0  0999 V2000
   44.4935    4.8988   12.2385 N   0  0  0  0  0  0  0  0  0  0  0  0
   45.6070    4.9974   13.0365 C   0  0  0  0  0  0  0  0  0  0  0  0
   44.6165    7.2753   11.9426 N   0  0  0  0  0  0  0  0  0  0  0  0
   43.9645    6.0549   11.6592 C   0  0  0  0  0  0  0  0  0  0  0  0
   46.2056    6.1932   13.2780 C   0  0  0  0  0  0  0  0  0  0  0  0
   45.7510    7.4243   12.7441 C   0  0  0  0  0  0  0  0  0  0  0  0
   46.2477    3.9767   13.6710 N   0  0  0  0  0  0  0  0  0  0  0  0
   47.2618    5.9139   14.0943 N   0  0  0  0  0  0  0  0  0  0  0  0
   47.2468    4.5589   14.3048 C   0  0  0  0  0  0  0  0  0  0  0  0
   42.9699    6.0223   10.9284 O   0  0  0  0  0  0  0  0  0  0  0  0
   46.3155    8.4875   12.9790 O   0  0  0  0  0  0  0  0  0  0  0  0
   43.8823    3.6045   11.9985 C   0  0  0  0  0  0  0  0  0  0  0  0
   44.0511    8.4622   11.3323 C   0  0  0  0  0  0  0  0  0  0  0  0
   43.9318    5.7220   12.2166 N   0  0  0  0  0  0  0  0  0  0  0  0
   44.6123    6.9084   12.0917 C   0  0  0  0  0  0  0  0  0  0  0  0
   45.9482    4.7726   13.1015 N   0  0  0  0  0  0  0  0  0  0  0  0
   44.5946    4.6062   12.7339 C   0  0  0  0  0  0  0  0  0  0  0  0
   45.9155    7.0233   12.4592 C   0  0  0  0  0  0  0  0  0  0  0  0
   46.6807    5.9572   12.9934 C   0  0  0  0  0  0  0  0  0  0  0  0
   44.1199    8.0834   11.6104 N   0  0  0  0  0  0  0  0  0  0  0  0
   46.2549    8.3184   12.1995 N   0  0  0  0  0  0  0  0  0  0  0  0
   45.1353    8.9215   11.6866 C   0  0  0  0  0  0  0  0  0  0  0  0
   44.0304    3.5163   12.8686 O   0  0  0  0  0  0  0  0  0  0  0  0
   47.8563    6.0930   13.3156 O   0  0  0  0  0  0  0  0  0  0  0  0
   42.5402    5.6351   11.8136 C   0  0  0  0  0  0  0  0  0  0  0  0
   46.6166    3.6027   13.6362 C   0  0  0  0  0  0  0  0  0  0  0  0
   44.2053    7.1763   11.4166 N   0  0  0  0  0  0  0  0  0  0  0  0
   46.0218    4.6899   13.6233 N   0  0  0  0  0  0  0  0  0  0  0  0
   45.6783    5.9851   13.0405 C   0  0  0  0  0  0  0  0  0  0  0  0
   44.5493    5.8810   11.9989 C   0  0  0  0  0  0  0  0  0  0  0  0
   47.9240    6.5821   14.4678 H   0  0  0  0  0  0  0  0  0  0  0  0
   47.9826    4.0606   14.9229 H   0  0  0  0  0  0  0  0  0  0  0  0
   44.6113    2.9508   11.5097 H   0  0  0  0  0  0  0  0  0  0  0  0
   42.9995    3.6831   11.3587 H   0  0  0  0  0  0  0  0  0  0  0  0
   43.5814    3.1679   12.9562 H   0  0  0  0  0  0  0  0  0  0  0  0
   44.0843    8.3507   10.2436 H   0  0  0  0  0  0  0  0  0  0  0  0
   44.5860    9.3731   11.6121 H   0  0  0  0  0  0  0  0  0  0  0  0
   43.0040    8.5574   11.6383 H   0  0  0  0  0  0  0  0  0  0  0  0
   47.1592    8.7445   12.3575 H   0  0  0  0  0  0  0  0  0  0  0  0
   45.1225    9.9625   11.3903 H   0  0  0  0  0  0  0  0  0  0  0  0
   42.4605    5.8814   10.7500 H   0  0  0  0  0  0  0  0  0  0  0  0
   41.9529    6.3485   12.4004 H   0  0  0  0  0  0  0  0  0  0  0  0
   42.1318    4.6336   11.9713 H   0  0  0  0  0  0  0  0  0  0  0  0
   46.0861    3.2702   14.5344 H   0  0  0  0  0  0  0  0  0  0  0  0
   46.5761    2.7988   12.8937 H   0  0  0  0  0  0  0  0  0  0  0  0
   47.6611    3.7965   13.8922 H   0  0  0  0  0  0  0  0  0  0  0  0
   43.9291    7.8208   12.1573 H   0  0  0  0  0  0  0  0  0  0  0  0
   45.0331    7.5870   10.9850 H   0  0  0  0  0  0  0  0  0  0  0  0
   46.2973    4.0449   12.8829 H   0  0  0  0  0  0  0  0  0  0  0  0
   45.1938    4.2801   14.0554 H   0  0  0  0  0  0  0  0  0  0  0  0
   46.5764    6.4092   12.5771 H   0  0  0  0  0  0  0  0  0  0  0  0
   45.3807    6.6639   13.8477 H   0  0  0  0  0  0  0  0  0  0  0  0
   43.6514    5.4564   12.4621 H   0  0  0  0  0  0  0  0  0  0  0  0
   44.8471    5.2027   11.1913 H   0  0  0  0  0  0  0  0  0  0  0  0
  2  1  1  0
  3  4  1  0
  4  1  1  0
  5  2  2  0
  6  3  1  0
  7  2  1  0
  8  5  1  0
  9  7  2  0
 10  4  2  0
 11  6  2  0
 12  1  1  0
 13  3  1  0
  5  6  1  0
  8  9  1  0
 15 14  1  0
 16 17  1  0
 17 14  1  0
 18 15  2  0
 19 16  1  0
 20 15  1  0
 21 18  1  0
 22 20  2  0
 23 17  2  0
 24 19  2  0
 25 14  1  0
 26 16  1  0
 18 19  1  0
 21 22  1  0
 28 29  1  0
 29 30  1  0
 30 27  1  0
  8 31  1  0
  9 32  1  0
 12 33  1  0
 12 34  1  0
 12 35  1  0
 13 36  1  0
 13 37  1  0
 13 38  1  0
 21 39  1  0
 22 40  1  0
 25 41  1  0
 25 42  1  0
 25 43  1  0
 26 44  1  0
 26 45  1  0
 26 46  1  0
 27 47  1  0
 27 48  1  0
 28 49  1  0
 28 50  1  0
 29 51  1  0
 29 52  1  0
 30 53  1  0
 30 54  1  0
M  END
> <Uni-Dock RESULT> 
ENERGY=   -6.231  LOWER_BOUND=    1.028  UPPER_BOUND=    3.775
INTER + INTRA:          -6.231
INTER:                  -6.231
INTRA:                   0.000
UNBOUND:                 0.000

$$$$

     RDKit          3D

 54 55  0  0  0  0  0  0  0  0999 V2000
   43.9008    5.7671   12.1885 N   0  0  0  0  0  0  0  0  0  0  0  0
   44.5663    6.9512   11.9848 C   0  0  0  0  0  0  0  0  0  0  0  0
   45.8950    4.9401   13.2325 N   0  0  0  0  0  0  0  0  0  0  0  0
   44.5592    4.7160   12.8317 C   0  0  0  0  0  0  0  0  0  0  0  0
   45.8510    7.1245   12.3923 C   0  0  0  0  0  0  0  0  0  0  0  0
   46.6108    6.1258   13.0501 C   0  0  0  0  0  0  0  0  0  0  0  0
   44.0746    8.0690   11.3816 N   0  0  0  0  0  0  0  0  0  0  0  0
   46.1791    8.3983   12.0321 N   0  0  0  0  0  0  0  0  0  0  0  0
   45.0718    8.9308   11.4233 C   0  0  0  0  0  0  0  0  0  0  0  0
   44.0060    3.6334   13.0465 O   0  0  0  0  0  0  0  0  0  0  0  0
   47.7687    6.3143   13.4080 O   0  0  0  0  0  0  0  0  0  0  0  0
   42.5272    5.6183   11.7440 C   0  0  0  0  0  0  0  0  0  0  0  0
   46.5595    3.8366   13.8972 C   0  0  0  0  0  0  0  0  0  0  0  0
   44.4940    4.9675   12.2358 N   0  0  0  0  0  0  0  0  0  0  0  0
   45.6339    5.1108   12.9885 C   0  0  0  0  0  0  0  0  0  0  0  0
   44.4701    7.3534   11.9974 N   0  0  0  0  0  0  0  0  0  0  0  0
   43.8741    6.1049   11.7126 C   0  0  0  0  0  0  0  0  0  0  0  0
   46.1735    6.3329   13.2368 C   0  0  0  0  0  0  0  0  0  0  0  0
   45.6267    7.5484   12.7561 C   0  0  0  0  0  0  0  0  0  0  0  0
   46.3582    4.1138   13.5682 N   0  0  0  0  0  0  0  0  0  0  0  0
   47.2780    6.0955   14.0008 N   0  0  0  0  0  0  0  0  0  0  0  0
   47.3490    4.7373   14.1754 C   0  0  0  0  0  0  0  0  0  0  0  0
   42.8486    6.0331   11.0288 O   0  0  0  0  0  0  0  0  0  0  0  0
   46.1379    8.6367   12.9982 O   0  0  0  0  0  0  0  0  0  0  0  0
   43.9448    3.6465   11.9908 C   0  0  0  0  0  0  0  0  0  0  0  0
   43.8110    8.5202   11.4447 C   0  0  0  0  0  0  0  0  0  0  0  0
   45.4965    4.4582   13.4870 N   0  0  0  0  0  0  0  0  0  0  0  0
   44.6332    7.5992   11.5530 N   0  0  0  0  0  0  0  0  0  0  0  0
   45.4530    6.6621   12.3178 C   0  0  0  0  0  0  0  0  0  0  0  0
   44.6766    5.3957   12.7228 C   0  0  0  0  0  0  0  0  0  0  0  0
   47.0689    8.8550   12.1877 H   0  0  0  0  0  0  0  0  0  0  0  0
   45.0538    9.9412   11.0353 H   0  0  0  0  0  0  0  0  0  0  0  0
   41.9044    6.3583   12.2562 H   0  0  0  0  0  0  0  0  0  0  0  0
   42.1346    4.6215   11.9605 H   0  0  0  0  0  0  0  0  0  0  0  0
   42.4811    5.7845   10.6630 H   0  0  0  0  0  0  0  0  0  0  0  0
   46.0096    3.5912   14.8117 H   0  0  0  0  0  0  0  0  0  0  0  0
   47.5957    4.0664   14.1572 H   0  0  0  0  0  0  0  0  0  0  0  0
   46.5443    2.9615   13.2393 H   0  0  0  0  0  0  0  0  0  0  0  0
   47.9165    6.7916   14.3643 H   0  0  0  0  0  0  0  0  0  0  0  0
   48.1378    4.2676   14.7488 H   0  0  0  0  0  0  0  0  0  0  0  0
   43.6959    3.1799   12.9493 H   0  0  0  0  0  0  0  0  0  0  0  0
   44.6924    3.0394   11.4704 H   0  0  0  0  0  0  0  0  0  0  0  0
   43.0408    3.6881   11.3779 H   0  0  0  0  0  0  0  0  0  0  0  0
   43.7814    8.4281   10.3541 H   0  0  0  0  0  0  0  0  0  0  0  0
   42.7815    8.5573   11.8162 H   0  0  0  0  0  0  0  0  0  0  0  0
   44.3169    9.4522   11.7085 H   0  0  0  0  0  0  0  0  0  0  0  0
   46.3160    4.1966   12.9390 H   0  0  0  0  0  0  0  0  0  0  0  0
   45.8563    4.9214   14.3215 H   0  0  0  0  0  0  0  0  0  0  0  0
   43.8133    7.8606   12.1003 H   0  0  0  0  0  0  0  0  0  0  0  0
   44.2744    7.1359   10.7183 H   0  0  0  0  0  0  0  0  0  0  0  0
   45.8264    7.1736   13.2123 H   0  0  0  0  0  0  0  0  0  0  0  0
   46.3260    6.3884   11.7147 H   0  0  0  0  0  0  0  0  0  0  0  0
   44.3027    4.8846   11.8285 H   0  0  0  0  0  0  0  0  0  0  0  0
   43.8039    5.6694   13.3265 H   0  0  0  0  0  0  0  0  0  0  0  0
  2  1  1  0
  3  4  1  0
  4  1  1  0
  5  2  2  0
  6  3  1  0
  7  2  1  0
  8  5  1  0
  9  7  2  0
 10  4  2  0
 11  6  2  0
 12  1  1  0
 13  3  1  0
  5  6  1  0
  8  9  1  0
 15 14  1  0
 16 17  1  0
 17 14  1  0
 18 15  2  0
 19 16  1  0
 20 15  1  0
 21 18  1  0
 22 20  2  0
 23 17  2  0
 24 19  2  0
 25 14  1  0
 26 16  1  0
 18 19  1  0
 21 22  1  0
 28 29  1  0
 29 30  1  0
 30 27  1  0
  8 31  1  0
  9 32  1  0
 12 33  1  0
 12 34  1  0
 12 35  1  0
 13 36  1  0
 13 37  1  0
 13 38  1  0
 21 39  1  0
 22 40  1  0
 25 41  1  0
 25 42  1  0
 25 43  1  0
 26 44  1  0
 26 45  1  0
 26 46  1  0
 27 47  1  0
 27 48  1  0
 28 49  1  0
 28 50  1  0
 29 51  1  0
 29 52  1  0
 30 53  1  0
 30 54  1  0
M  END
> <Uni-Dock RESULT> 
ENERGY=   -5.966  LOWER_BOUND=    1.032  UPPER_BOUND=    2.929
INTER + INTRA:          -5.966
INTER:                  -5.966
INTRA:                   0.000
UNBOUND:                 0.000

$$$$

     RDKit          3D

 54 55  0  0  0  0  0  0  0  0999 V2000
   45.0878    7.3527   12.0363 N   0  0  0  0  0  0  0  0  0  0  0  0
   44.3201    6.2374   12.2675 C   0  0  0  0  0  0  0  0  0  0  0  0
   46.7871    6.3432   13.3941 N   0  0  0  0  0  0  0  0  0  0  0  0
   46.3633    7.4322   12.6007 C   0  0  0  0  0  0  0  0  0  0  0  0
   44.7708    5.2099   13.0339 C   0  0  0  0  0  0  0  0  0  0  0  0
   46.0444    5.1891   13.6545 C   0  0  0  0  0  0  0  0  0  0  0  0
   43.0655    5.9992   11.7939 N   0  0  0  0  0  0  0  0  0  0  0  0
   43.7625    4.2917   13.0424 N   0  0  0  0  0  0  0  0  0  0  0  0
   42.7508    4.8138   12.2780 C   0  0  0  0  0  0  0  0  0  0  0  0
   47.0975    8.4081   12.4195 O   0  0  0  0  0  0  0  0  0  0  0  0
   46.4233    4.2444   14.3389 O   0  0  0  0  0  0  0  0  0  0  0  0
   44.5762    8.4297   11.2088 C   0  0  0  0  0  0  0  0  0  0  0  0
   48.1130    6.4465   13.9706 C   0  0  0  0  0  0  0  0  0  0  0  0
   45.7445    7.5540   12.7585 N   0  0  0  0  0  0  0  0  0  0  0  0
   46.4446    6.4787   13.2483 C   0  0  0  0  0  0  0  0  0  0  0  0
   44.0570    6.0057   12.0478 N   0  0  0  0  0  0  0  0  0  0  0  0
   44.5122    7.3399   12.1361 C   0  0  0  0  0  0  0  0  0  0  0  0
   45.9676    5.2108   13.1420 C   0  0  0  0  0  0  0  0  0  0  0  0
   44.7324    4.8821   12.5304 C   0  0  0  0  0  0  0  0  0  0  0  0
   47.6515    6.5108   13.8786 N   0  0  0  0  0  0  0  0  0  0  0  0
   46.9091    4.4165   13.7272 N   0  0  0  0  0  0  0  0  0  0  0  0
   47.9103    5.2483   14.1584 C   0  0  0  0  0  0  0  0  0  0  0  0
   43.8413    8.2702   11.6793 O   0  0  0  0  0  0  0  0  0  0  0  0
   44.3293    3.7265   12.4499 O   0  0  0  0  0  0  0  0  0  0  0  0
   46.2845    8.8948   12.8891 C   0  0  0  0  0  0  0  0  0  0  0  0
   42.7763    5.8061   11.3987 C   0  0  0  0  0  0  0  0  0  0  0  0
   47.2031    6.7945   13.1130 N   0  0  0  0  0  0  0  0  0  0  0  0
   43.6007    5.9356   12.3150 N   0  0  0  0  0  0  0  0  0  0  0  0
   44.9276    5.7910   12.9095 C   0  0  0  0  0  0  0  0  0  0  0  0
   45.8764    6.9386   12.5179 C   0  0  0  0  0  0  0  0  0  0  0  0
   43.7674    3.4003   13.5218 H   0  0  0  0  0  0  0  0  0  0  0  0
   41.8191    4.2879   12.1130 H   0  0  0  0  0  0  0  0  0  0  0  0
   44.3712    8.0425   10.2059 H   0  0  0  0  0  0  0  0  0  0  0  0
   45.2893    9.2539   11.1259 H   0  0  0  0  0  0  0  0  0  0  0  0
   43.6507    8.8120   11.6511 H   0  0  0  0  0  0  0  0  0  0  0  0
   48.8456    6.5303   13.1611 H   0  0  0  0  0  0  0  0  0  0  0  0
   48.3682    5.5849   14.5923 H   0  0  0  0  0  0  0  0  0  0  0  0
   48.1676    7.3536   14.5815 H   0  0  0  0  0  0  0  0  0  0  0  0
   46.8696    3.4095   13.8213 H   0  0  0  0  0  0  0  0  0  0  0  0
   48.7929    4.8785   14.6643 H   0  0  0  0  0  0  0  0  0  0  0  0
   47.2490    8.9431   12.3735 H   0  0  0  0  0  0  0  0  0  0  0  0
   46.4243    9.1221   13.9507 H   0  0  0  0  0  0  0  0  0  0  0  0
   45.6194    9.6462   12.4559 H   0  0  0  0  0  0  0  0  0  0  0  0
   42.0098    6.3636   11.9467 H   0  0  0  0  0  0  0  0  0  0  0  0
   42.8283    6.2018   10.3789 H   0  0  0  0  0  0  0  0  0  0  0  0
   42.4870    4.7532   11.3561 H   0  0  0  0  0  0  0  0  0  0  0  0
   47.1186    6.7518   14.1285 H   0  0  0  0  0  0  0  0  0  0  0  0
   47.6088    5.9025   12.8299 H   0  0  0  0  0  0  0  0  0  0  0  0
   43.6847    5.9790   11.2995 H   0  0  0  0  0  0  0  0  0  0  0  0
   43.1952    6.8272   12.5990 H   0  0  0  0  0  0  0  0  0  0  0  0
   45.3507    4.8314   12.5913 H   0  0  0  0  0  0  0  0  0  0  0  0
   44.8200    5.7505   13.9993 H   0  0  0  0  0  0  0  0  0  0  0  0
   45.4531    7.8983   12.8355 H   0  0  0  0  0  0  0  0  0  0  0  0
   45.9845    6.9787   11.4281 H   0  0  0  0  0  0  0  0  0  0  0  0
  2  1  1  0
  3  4  1  0
  4  1  1  0
  5  2  2  0
  6  3  1  0
  7  2  1  0
  8  5  1  0
  9  7  2  0
 10  4  2  0
 11  6  2  0
 12  1  1  0
 13  3  1  0
  5  6  1  0
  8  9  1  0
 15 14  1  0
 16 17  1  0
 17 14  1  0
 18 15  2  0
 19 16  1  0
 20 15  1  0
 21 18  1  0
 22 20  2  0
 23 17  2  0
 24 19  2  0
 25 14  1  0
 26 16  1  0
 18 19  1  0
 21 22  1  0
 28 29  1  0
 29 30  1  0
 30 27  1  0
  8 31  1  0
  9 32  1  0
 12 33  1  0
 12 34  1  0
 12 35  1  0
 13 36  1  0
 13 37  1  0
 13 38  1  0
 21 39  1  0
 22 40  1  0
 25 41  1  0
 25 42  1  0
 25 43  1  0
 26 44  1  0
 26 45  1  0
 26 46  1  0
 27 47  1  0
 27 48  1  0
 28 49  1  0
 28 50  1  0
 29 51  1  0
 29 52  1  0
 30 53  1  0
 30 54  1  0
M  END
> <Uni-Dock RESULT> 
ENERGY=   -5.527  LOWER_BOUND=    1.038  UPPER_BOUND=    3.713
INTER + INTRA:          -5.527
INTER:                  -5.527
INTRA:                   0.000
UNBOUND:                 0.000

$$$$

     RDKit          3D

 54 55  0  0  0  0  0  0  0  0999 V2000
   47.5241    8.1149   13.3710 N   0  0  0  0  0  0  0  0  0  0  0  0
   46.3315    8.4983   12.8076 C   0  0  0  0  0  0  0  0  0  0  0  0
   46.6567    5.8805   13.4464 N   0  0  0  0  0  0  0  0  0  0  0  0
   47.7203    6.7729   13.7063 C   0  0  0  0  0  0  0  0  0  0  0  0
   45.3366    7.6037   12.5703 C   0  0  0  0  0  0  0  0  0  0  0  0
   45.4294    6.2228   12.8735 C   0  0  0  0  0  0  0  0  0  0  0  0
   45.9801    9.7560   12.4209 N   0  0  0  0  0  0  0  0  0  0  0  0
   44.3223    8.3256   12.0137 N   0  0  0  0  0  0  0  0  0  0  0  0
   44.7581    9.6239   11.9432 C   0  0  0  0  0  0  0  0  0  0  0  0
   48.7750    6.3730   14.2082 O   0  0  0  0  0  0  0  0  0  0  0  0
   44.5137    5.4397   12.6444 O   0  0  0  0  0  0  0  0  0  0  0  0
   48.5667    9.0966   13.6064 C   0  0  0  0  0  0  0  0  0  0  0  0
   46.8809    4.4934   13.8024 C   0  0  0  0  0  0  0  0  0  0  0  0
   47.4595    7.3123   13.9585 N   0  0  0  0  0  0  0  0  0  0  0  0
   46.7053    6.2727   13.4719 C   0  0  0  0  0  0  0  0  0  0  0  0
   46.2123    8.7635   12.5133 N   0  0  0  0  0  0  0  0  0  0  0  0
   47.2270    8.6053   13.4832 C   0  0  0  0  0  0  0  0  0  0  0  0
   45.7378    6.4715   12.5387 C   0  0  0  0  0  0  0  0  0  0  0  0
   45.4206    7.7386   11.9896 C   0  0  0  0  0  0  0  0  0  0  0  0
   46.8013    4.9610   13.8255 N   0  0  0  0  0  0  0  0  0  0  0  0
   45.2057    5.2393   12.2968 N   0  0  0  0  0  0  0  0  0  0  0  0
   45.8817    4.3563   13.0991 C   0  0  0  0  0  0  0  0  0  0  0  0
   47.8749    9.5755   13.8870 O   0  0  0  0  0  0  0  0  0  0  0  0
   44.5409    7.8851   11.1476 O   0  0  0  0  0  0  0  0  0  0  0  0
   48.4852    7.0635   14.9549 C   0  0  0  0  0  0  0  0  0  0  0  0
   45.9874   10.1130   12.0341 C   0  0  0  0  0  0  0  0  0  0  0  0
   47.2991    5.6924   13.5340 N   0  0  0  0  0  0  0  0  0  0  0  0
   45.8178    9.0756   12.6907 N   0  0  0  0  0  0  0  0  0  0  0  0
   45.8652    7.6279   12.8829 C   0  0  0  0  0  0  0  0  0  0  0  0
   47.2518    7.1401   13.3411 C   0  0  0  0  0  0  0  0  0  0  0  0
   43.4251    7.9659   11.7131 H   0  0  0  0  0  0  0  0  0  0  0  0
   44.1458   10.4191   11.5378 H   0  0  0  0  0  0  0  0  0  0  0  0
   48.8614    9.5404   12.6504 H   0  0  0  0  0  0  0  0  0  0  0  0
   49.4496    8.6499   14.0709 H   0  0  0  0  0  0  0  0  0  0  0  0
   48.1803    9.8768   14.2700 H   0  0  0  0  0  0  0  0  0  0  0  0
   47.7355    4.1150   13.2319 H   0  0  0  0  0  0  0  0  0  0  0  0
   46.0119    3.8628   13.5998 H   0  0  0  0  0  0  0  0  0  0  0  0
   47.1227    4.4326   14.8686 H   0  0  0  0  0  0  0  0  0  0  0  0
   44.4575    5.0258   11.6495 H   0  0  0  0  0  0  0  0  0  0  0  0
   45.6604    3.2968   13.1092 H   0  0  0  0  0  0  0  0  0  0  0  0
   49.2211    6.3656   14.5432 H   0  0  0  0  0  0  0  0  0  0  0  0
   48.0209    6.6250   15.8440 H   0  0  0  0  0  0  0  0  0  0  0  0
   49.0008    7.9818   15.2473 H   0  0  0  0  0  0  0  0  0  0  0  0
   45.7135   10.7497   12.8816 H   0  0  0  0  0  0  0  0  0  0  0  0
   46.9168   10.4965   11.6002 H   0  0  0  0  0  0  0  0  0  0  0  0
   45.1969   10.1646   11.2813 H   0  0  0  0  0  0  0  0  0  0  0  0
   46.5956    5.4165   14.2191 H   0  0  0  0  0  0  0  0  0  0  0  0
   47.0406    5.2239   12.6657 H   0  0  0  0  0  0  0  0  0  0  0  0
   46.5215    9.3522   12.0063 H   0  0  0  0  0  0  0  0  0  0  0  0
   46.0757    9.5436   13.5595 H   0  0  0  0  0  0  0  0  0  0  0  0
   45.5904    7.1409   11.9404 H   0  0  0  0  0  0  0  0  0  0  0  0
   45.1072    7.3484   13.6233 H   0  0  0  0  0  0  0  0  0  0  0  0
   47.5269    7.6275   14.2833 H   0  0  0  0  0  0  0  0  0  0  0  0
   48.0098    7.4190   12.6004 H   0  0  0  0  0  0  0  0  0  0  0  0
  2  1  1  0
  3  4  1  0
  4  1  1  0
  5  2  2  0
  6  3  1  0
  7  2  1  0
  8  5  1  0
  9  7  2  0
 10  4  2  0
 11  6  2  0
 12  1  1  0
 13  3  1  0
  5  6  1  0
  8  9  1  0
 15 14  1  0
 16 17  1  0
 17 14  1  0
 18 15  2  0
 19 16  1  0
 20 15  1  0
 21 18  1  0
 22 20  2  0
 23 17  2  0
 24 19  2  0
 25 14  1  0
 26 16  1  0
 18 19  1  0
 21 22  1  0
 28 29  1  0
 29 30  1  0
 30 27  1  0
  8 31  1  0
  9 32  1  0
 12 33  1  0
 12 34  1  0
 12 35  1  0
 13 36  1  0
 13 37  1  0
 13 38  1  0
 21 39  1  0
 22 40  1  0
 25 41  1  0
 25 42  1  0
 25 43  1  0
 26 44  1  0
 26 45  1  0
 26 46  1  0
 27 47  1  0
 27 48  1  0
 28 49  1  0
 28 50  1  0
 29 51  1  0
 29 52  1  0
 30 53  1  0
 30 54  1  0
M  END
> <Uni-Dock RESULT> 
ENERGY=   -5.458  LOWER_BOUND=    1.318  UPPER_BOUND=    2.217
INTER + INTRA:          -5.458
INTER:                  -5.458
INTRA:                   0.000
UNBOUND:                 0.000

$$$$

     RDKit          3D

 54 55  0  0  0  0  0  0  0  0999 V2000
   45.0595    7.0799   12.5326 N   0  0  0  0  0  0  0  0  0  0  0  0
   46.1926    6.4710   13.0142 C   0  0  0  0  0  0  0  0  0  0  0  0
   44.1862    4.8891   12.0985 N   0  0  0  0  0  0  0  0  0  0  0  0
   44.0093    6.2899   12.0585 C   0  0  0  0  0  0  0  0  0  0  0  0
   46.3176    5.1182   13.0387 C   0  0  0  0  0  0  0  0  0  0  0  0
   45.3169    4.2257   12.5810 C   0  0  0  0  0  0  0  0  0  0  0  0
   47.2997    7.0878   13.5131 N   0  0  0  0  0  0  0  0  0  0  0  0
   47.5488    4.8754   13.5729 N   0  0  0  0  0  0  0  0  0  0  0  0
   48.1062    6.0985   13.8445 C   0  0  0  0  0  0  0  0  0  0  0  0
   42.9660    6.7849   11.6215 O   0  0  0  0  0  0  0  0  0  0  0  0
   45.4592    3.0081   12.6190 O   0  0  0  0  0  0  0  0  0  0  0  0
   44.9582    8.5277   12.5254 C   0  0  0  0  0  0  0  0  0  0  0  0
   43.0850    4.0885   11.6013 C   0  0  0  0  0  0  0  0  0  0  0  0
   44.5682    6.5470   11.8485 N   0  0  0  0  0  0  0  0  0  0  0  0
   44.4161    5.2105   12.1259 C   0  0  0  0  0  0  0  0  0  0  0  0
   46.4577    6.5373   13.3249 N   0  0  0  0  0  0  0  0  0  0  0  0
   45.6109    7.2549   12.4512 C   0  0  0  0  0  0  0  0  0  0  0  0
   45.2558    4.5596   12.9732 C   0  0  0  0  0  0  0  0  0  0  0  0
   46.3428    5.1805   13.6370 C   0  0  0  0  0  0  0  0  0  0  0  0
   43.4603    4.3783   11.6272 N   0  0  0  0  0  0  0  0  0  0  0  0
   44.8116    3.2707   13.0082 N   0  0  0  0  0  0  0  0  0  0  0  0
   43.7224    3.2089   12.1775 C   0  0  0  0  0  0  0  0  0  0  0  0
   45.7938    8.4568   12.2362 O   0  0  0  0  0  0  0  0  0  0  0  0
   47.0832    4.5649   14.3967 O   0  0  0  0  0  0  0  0  0  0  0  0
   43.6523    7.2104   10.9387 C   0  0  0  0  0  0  0  0  0  0  0  0
   47.5330    7.2907   13.9392 C   0  0  0  0  0  0  0  0  0  0  0  0
   43.5867    5.1963   12.0544 N   0  0  0  0  0  0  0  0  0  0  0  0
   46.9607    6.5279   13.1475 N   0  0  0  0  0  0  0  0  0  0  0  0
   45.9473    5.5390   12.7867 C   0  0  0  0  0  0  0  0  0  0  0  0
   44.5999    6.1852   12.4160 C   0  0  0  0  0  0  0  0  0  0  0  0
   47.9634    3.9664   13.7348 H   0  0  0  0  0  0  0  0  0  0  0  0
   49.0921    6.2020   14.2791 H   0  0  0  0  0  0  0  0  0  0  0  0
   45.0345    8.8958   13.5533 H   0  0  0  0  0  0  0  0  0  0  0  0
   44.0095    8.8676   12.1022 H   0  0  0  0  0  0  0  0  0  0  0  0
   45.7757    8.9405   11.9257 H   0  0  0  0  0  0  0  0  0  0  0  0
   42.1956    4.2954   12.2055 H   0  0  0  0  0  0  0  0  0  0  0  0
   43.2963    3.0169   11.6364 H   0  0  0  0  0  0  0  0  0  0  0  0
   42.8738    4.3748   10.5658 H   0  0  0  0  0  0  0  0  0  0  0  0
   45.2131    2.5125   13.5453 H   0  0  0  0  0  0  0  0  0  0  0  0
   43.1683    2.2932   12.0163 H   0  0  0  0  0  0  0  0  0  0  0  0
   42.6351    7.1310   11.3352 H   0  0  0  0  0  0  0  0  0  0  0  0
   43.7039    6.7219    9.9604 H   0  0  0  0  0  0  0  0  0  0  0  0
   43.8965    8.2684   10.8139 H   0  0  0  0  0  0  0  0  0  0  0  0
   48.1720    7.7038   13.1519 H   0  0  0  0  0  0  0  0  0  0  0  0
   47.1052    8.1224   14.5087 H   0  0  0  0  0  0  0  0  0  0  0  0
   48.1442    6.6801   14.6083 H   0  0  0  0  0  0  0  0  0  0  0  0
   43.9229    4.6336   11.2730 H   0  0  0  0  0  0  0  0  0  0  0  0
   43.4534    4.5458   12.8286 H   0  0  0  0  0  0  0  0  0  0  0  0
   46.6247    7.0913   13.9285 H   0  0  0  0  0  0  0  0  0  0  0  0
   47.0941    7.1777   12.3728 H   0  0  0  0  0  0  0  0  0  0  0  0
   45.8129    4.8524   13.6303 H   0  0  0  0  0  0  0  0  0  0  0  0
   46.3216    4.9460   11.9447 H   0  0  0  0  0  0  0  0  0  0  0  0
   44.7343    6.8723   11.5729 H   0  0  0  0  0  0  0  0  0  0  0  0
   44.2252    6.7778   13.2583 H   0  0  0  0  0  0  0  0  0  0  0  0
  2  1  1  0
  3  4  1  0
  4  1  1  0
  5  2  2  0
  6  3  1  0
  7  2  1  0
  8  5  1  0
  9  7  2  0
 10  4  2  0
 11  6  2  0
 12  1  1  0
 13  3  1  0
  5  6  1  0
  8  9  1  0
 15 14  1  0
 16 17  1  0
 17 14  1  0
 18 15  2  0
 19 16  1  0
 20 15  1  0
 21 18  1  0
 22 20  2  0
 23 17  2  0
 24 19  2  0
 25 14  1  0
 26 16  1  0
 18 19  1  0
 21 22  1  0
 28 29  1  0
 29 30  1  0
 30 27  1  0
  8 31  1  0
  9 32  1  0
 12 33  1  0
 12 34  1  0
 12 35  1  0
 13 36  1  0
 13 37  1  0
 13 38  1  0
 21 39  1  0
 22 40  1  0
 25 41  1  0
 25 42  1  0
 25 43  1  0
 26 44  1  0
 26 45  1  0
 26 46  1  0
 27 47  1  0
 27 48  1  0
 28 49  1  0
 28 50  1  0
 29 51  1  0
 29 52  1  0
 30 53  1  0
 30 54  1  0
M  END
> <Uni-Dock RESULT> 
ENERGY=   -5.448  LOWER_BOUND=    1.082  UPPER_BOUND=    2.918
INTER + INTRA:          -5.448
INTER:                  -5.448
INTRA:                   0.000
UNBOUND:                 0.000

$$$$

     RDKit          3D

 54 55  0  0  0  0  0  0  0  0999 V2000
   50.9230    4.7287   17.7353 N   0  0  0  0  0  0  0  0  0  0  0  0
   49.8462    3.9279   17.4425 C   0  0  0  0  0  0  0  0  0  0  0  0
   52.2108    2.7255   18.0167 N   0  0  0  0  0  0  0  0  0  0  0  0
   52.1534    4.1367   18.0309 C   0  0  0  0  0  0  0  0  0  0  0  0
   49.9484    2.5729   17.4353 C   0  0  0  0  0  0  0  0  0  0  0  0
   51.1453    1.8712   17.7224 C   0  0  0  0  0  0  0  0  0  0  0  0
   48.5856    4.3391   17.1313 N   0  0  0  0  0  0  0  0  0  0  0  0
   48.7063    2.1153   17.1073 N   0  0  0  0  0  0  0  0  0  0  0  0
   47.9147    3.2214   16.9328 C   0  0  0  0  0  0  0  0  0  0  0  0
   53.1548    4.8092   18.2941 O   0  0  0  0  0  0  0  0  0  0  0  0
   51.2058    0.6463   17.7050 O   0  0  0  0  0  0  0  0  0  0  0  0
   50.7789    6.1729   17.7296 C   0  0  0  0  0  0  0  0  0  0  0  0
   53.4963    2.1320   18.3267 C   0  0  0  0  0  0  0  0  0  0  0  0
   51.6002    4.3023   18.3294 N   0  0  0  0  0  0  0  0  0  0  0  0
   51.9286    3.0033   18.0277 C   0  0  0  0  0  0  0  0  0  0  0  0
   49.5274    3.9413   17.1791 N   0  0  0  0  0  0  0  0  0  0  0  0
   50.3702    4.8114   17.9056 C   0  0  0  0  0  0  0  0  0  0  0  0
   51.0857    2.2008   17.3263 C   0  0  0  0  0  0  0  0  0  0  0  0
   49.8176    2.6152   16.8492 C   0  0  0  0  0  0  0  0  0  0  0  0
   53.0783    2.3546   18.3628 N   0  0  0  0  0  0  0  0  0  0  0  0
   51.7291    1.0033   17.2165 N   0  0  0  0  0  0  0  0  0  0  0  0
   52.9320    1.1445   17.8594 C   0  0  0  0  0  0  0  0  0  0  0  0
   50.0245    5.9711   18.1503 O   0  0  0  0  0  0  0  0  0  0  0  0
   49.0793    1.8662   16.2181 O   0  0  0  0  0  0  0  0  0  0  0  0
   52.5252    5.1314   19.0802 C   0  0  0  0  0  0  0  0  0  0  0  0
   48.2563    4.4896   16.7492 C   0  0  0  0  0  0  0  0  0  0  0  0
   52.7492    3.1293   17.9637 N   0  0  0  0  0  0  0  0  0  0  0  0
   49.0682    3.8528   17.4357 N   0  0  0  0  0  0  0  0  0  0  0  0
   50.2782    3.0557   17.6249 C   0  0  0  0  0  0  0  0  0  0  0  0
   51.5393    3.9263   17.7737 C   0  0  0  0  0  0  0  0  0  0  0  0
   48.4301    1.1462   17.0126 H   0  0  0  0  0  0  0  0  0  0  0  0
   46.8687    3.1484   16.6640 H   0  0  0  0  0  0  0  0  0  0  0  0
   50.4779    6.4974   16.7286 H   0  0  0  0  0  0  0  0  0  0  0  0
   51.7122    6.6766   17.9941 H   0  0  0  0  0  0  0  0  0  0  0  0
   50.0104    6.4586   18.4549 H   0  0  0  0  0  0  0  0  0  0  0  0
   54.2297    2.4690   17.5868 H   0  0  0  0  0  0  0  0  0  0  0  0
   53.4655    1.0397   18.3237 H   0  0  0  0  0  0  0  0  0  0  0  0
   53.8195    2.4753   19.3150 H   0  0  0  0  0  0  0  0  0  0  0  0
   51.3802    0.1758   16.7498 H   0  0  0  0  0  0  0  0  0  0  0  0
   53.6510    0.3382   17.9264 H   0  0  0  0  0  0  0  0  0  0  0  0
   53.4643    5.2126   18.5237 H   0  0  0  0  0  0  0  0  0  0  0  0
   52.7141    4.6658   20.0527 H   0  0  0  0  0  0  0  0  0  0  0  0
   52.1296    6.1368   19.2456 H   0  0  0  0  0  0  0  0  0  0  0  0
   47.6915    4.8100   17.6308 H   0  0  0  0  0  0  0  0  0  0  0  0
   48.4410    5.3665   16.1199 H   0  0  0  0  0  0  0  0  0  0  0  0
   47.6573    3.7692   16.1866 H   0  0  0  0  0  0  0  0  0  0  0  0
   52.6422    2.5381   18.7879 H   0  0  0  0  0  0  0  0  0  0  0  0
   52.8642    2.4909   17.1766 H   0  0  0  0  0  0  0  0  0  0  0  0
   49.1749    4.4446   16.6119 H   0  0  0  0  0  0  0  0  0  0  0  0
   48.9533    4.4904   18.2233 H   0  0  0  0  0  0  0  0  0  0  0  0
   50.3893    2.3802   16.7690 H   0  0  0  0  0  0  0  0  0  0  0  0
   50.1489    2.4298   18.5151 H   0  0  0  0  0  0  0  0  0  0  0  0
   51.4280    4.6022   18.6292 H   0  0  0  0  0  0  0  0  0  0  0  0
   51.6689    4.5518   16.8832 H   0  0  0  0  0  0  0  0  0  0  0  0
  2  1  1  0
  3  4  1  0
  4  1  1  0
  5  2  2  0
  6  3  1  0
  7  2  1  0
  8  5  1  0
  9  7  2  0
 10  4  2  0
 11  6  2  0
 12  1  1  0
 13  3  1  0
  5  6  1  0
  8  9  1  0
 15 14  1  0
 16 17  1  0
 17 14  1  0
 18 15  2  0
 19 16  1  0
 20 15  1  0
 21 18  1  0
 22 20  2  0
 23 17  2  0
 24 19  2  0
 25 14  1  0
 26 16  1  0
 18 19  1  0
 21 22  1  0
 28 29  1  0
 29 30  1  0
 30 27  1  0
  8 31  1  0
  9 32  1  0
 12 33  1  0
 12 34  1  0
 12 35  1  0
 13 36  1  0
 13 37  1  0
 13 38  1  0
 21 39  1  0
 22 40  1  0
 25 41  1  0
 25 42  1  0
 25 43  1  0
 26 44  1  0
 26 45  1  0
 26 46  1  0
 27 47  1  0
 27 48  1  0
 28 49  1  0
 28 50  1  0
 29 51  1  0
 29 52  1  0
 30 53  1  0
 30 54  1  0
M  END
> <Uni-Dock RESULT> 
ENERGY=   -5.419  LOWER_BOUND=    6.258  UPPER_BOUND=    8.581
INTER + INTRA:          -5.419
INTER:                  -5.419
INTRA:                   0.000
UNBOUND:                 0.000

$$$$

     RDKit          3D

 54 55  0  0  0  0  0  0  0  0999 V2000
   45.7976    7.7242   12.8471 N   0  0  0  0  0  0  0  0  0  0  0  0
   47.0610    7.5637   13.3614 C   0  0  0  0  0  0  0  0  0  0  0  0
   45.6247    5.3332   12.7881 N   0  0  0  0  0  0  0  0  0  0  0  0
   45.0343    6.5934   12.5464 C   0  0  0  0  0  0  0  0  0  0  0  0
   47.5875    6.3307   13.5829 C   0  0  0  0  0  0  0  0  0  0  0  0
   46.9023    5.1207   13.3116 C   0  0  0  0  0  0  0  0  0  0  0  0
   47.9306    8.5522   13.7099 N   0  0  0  0  0  0  0  0  0  0  0  0
   48.8341    6.5523   14.0896 N   0  0  0  0  0  0  0  0  0  0  0  0
   48.9972    7.9126   14.1482 C   0  0  0  0  0  0  0  0  0  0  0  0
   43.8908    6.6805   12.0891 O   0  0  0  0  0  0  0  0  0  0  0  0
   47.4046    4.0223   13.5253 O   0  0  0  0  0  0  0  0  0  0  0  0
   45.2651    9.0564   12.6273 C   0  0  0  0  0  0  0  0  0  0  0  0
   44.8161    4.1735   12.4685 C   0  0  0  0  0  0  0  0  0  0  0  0
   45.4901    6.9687   12.2744 N   0  0  0  0  0  0  0  0  0  0  0  0
   45.7472    5.7085   12.7562 C   0  0  0  0  0  0  0  0  0  0  0  0
   47.2936    7.7538   13.6459 N   0  0  0  0  0  0  0  0  0  0  0  0
   46.2708    8.0403   12.7148 C   0  0  0  0  0  0  0  0  0  0  0  0
   46.7431    5.4786   13.6515 C   0  0  0  0  0  0  0  0  0  0  0  0
   47.5922    6.4909   14.1632 C   0  0  0  0  0  0  0  0  0  0  0  0
   45.0867    4.5622   12.4331 N   0  0  0  0  0  0  0  0  0  0  0  0
   46.7076    4.1382   13.9004 N   0  0  0  0  0  0  0  0  0  0  0  0
   45.6883    3.6254   13.1400 C   0  0  0  0  0  0  0  0  0  0  0  0
   46.0835    9.1927   12.3134 O   0  0  0  0  0  0  0  0  0  0  0  0
   48.4830    6.2509   14.9715 O   0  0  0  0  0  0  0  0  0  0  0  0
   44.4177    7.1780   11.3189 C   0  0  0  0  0  0  0  0  0  0  0  0
   48.0917    8.8796   14.0894 C   0  0  0  0  0  0  0  0  0  0  0  0
   44.9606    5.4373   12.7263 N   0  0  0  0  0  0  0  0  0  0  0  0
   47.7762    7.8667   13.4488 N   0  0  0  0  0  0  0  0  0  0  0  0
   47.1079    6.5772   13.2881 C   0  0  0  0  0  0  0  0  0  0  0  0
   45.6287    6.7267   12.8877 C   0  0  0  0  0  0  0  0  0  0  0  0
   49.5031    5.8450   14.3667 H   0  0  0  0  0  0  0  0  0  0  0  0
   49.9059    8.3717   14.5160 H   0  0  0  0  0  0  0  0  0  0  0  0
   45.2262    9.5873   13.5835 H   0  0  0  0  0  0  0  0  0  0  0  0
   44.2584    9.0278   12.2025 H   0  0  0  0  0  0  0  0  0  0  0  0
   45.9209    9.5940   11.9350 H   0  0  0  0  0  0  0  0  0  0  0  0
   43.9051    4.1988   13.0755 H   0  0  0  0  0  0  0  0  0  0  0  0
   45.3402    3.2328   12.6543 H   0  0  0  0  0  0  0  0  0  0  0  0
   44.5293    4.2175   11.4127 H   0  0  0  0  0  0  0  0  0  0  0  0
   47.3183    3.6281   14.5260 H   0  0  0  0  0  0  0  0  0  0  0  0
   45.4356    2.5729   13.1440 H   0  0  0  0  0  0  0  0  0  0  0  0
   43.4713    6.8630   11.7698 H   0  0  0  0  0  0  0  0  0  0  0  0
   44.6148    6.5796   10.4237 H   0  0  0  0  0  0  0  0  0  0  0  0
   44.3321    8.2273   11.0254 H   0  0  0  0  0  0  0  0  0  0  0  0
   48.5773    9.3350   13.2201 H   0  0  0  0  0  0  0  0  0  0  0  0
   47.4328    9.6252   14.5468 H   0  0  0  0  0  0  0  0  0  0  0  0
   48.8577    8.5916   14.8134 H   0  0  0  0  0  0  0  0  0  0  0  0
   45.4512    4.8845   12.0234 H   0  0  0  0  0  0  0  0  0  0  0  0
   45.0287    4.9067   13.5947 H   0  0  0  0  0  0  0  0  0  0  0  0
   47.2855    8.4201   14.1510 H   0  0  0  0  0  0  0  0  0  0  0  0
   47.7084    8.3964   12.5799 H   0  0  0  0  0  0  0  0  0  0  0  0
   47.1857    6.0233   14.2306 H   0  0  0  0  0  0  0  0  0  0  0  0
   47.6441    5.9977   12.5282 H   0  0  0  0  0  0  0  0  0  0  0  0
   45.5508    7.2811   11.9456 H   0  0  0  0  0  0  0  0  0  0  0  0
   45.0923    7.3057   13.6480 H   0  0  0  0  0  0  0  0  0  0  0  0
  2  1  1  0
  3  4  1  0
  4  1  1  0
  5  2  2  0
  6  3  1  0
  7  2  1  0
  8  5  1  0
  9  7  2  0
 10  4  2  0
 11  6  2  0
 12  1  1  0
 13  3  1  0
  5  6  1  0
  8  9  1  0
 15 14  1  0
 16 17  1  0
 17 14  1  0
 18 15  2  0
 19 16  1  0
 20 15  1  0
 21 18  1  0
 22 20  2  0
 23 17  2  0
 24 19  2  0
 25 14  1  0
 26 16  1  0
 18 19  1  0
 21 22  1  0
 28 29  1  0
 29 30  1  0
 30 27  1  0
  8 31  1  0
  9 32  1  0
 12 33  1  0
 12 34  1  0
 12 35  1  0
 13 36  1  0
 13 37  1  0
 13 38  1  0
 21 39  1  0
 22 40  1  0
 25 41  1  0
 25 42  1  0
 25 43  1  0
 26 44  1  0
 26 45  1  0
 26 46  1  0
 27 47  1  0
 27 48  1  0
 28 49  1  0
 28 50  1  0
 29 51  1  0
 29 52  1  0
 30 53  1  0
 30 54  1  0
M  END
> <Uni-Dock RESULT> 
ENERGY=   -5.103  LOWER_BOUND=    1.256  UPPER_BOUND=    3.148
INTER + INTRA:          -5.103
INTER:                  -5.103
INTRA:                   0.000
UNBOUND:                 0.000

$$$$
