
     RDKit          3D

 54 55  0  0  0  0  0  0  0  0999 V2000
   46.2255    5.9447   13.1582 N   0  0  0  0  0  0  0  0  0  0  0  0
   45.6075    7.0458   12.6179 C   0  0  0  0  0  0  0  0  0  0  0  0
   44.3610    4.6455   12.3926 N   0  0  0  0  0  0  0  0  0  0  0  0
   45.6064    4.6963   13.0568 C   0  0  0  0  0  0  0  0  0  0  0  0
   44.4079    6.9504   11.9867 C   0  0  0  0  0  0  0  0  0  0  0  0
   43.6950    5.7362   11.8282 C   0  0  0  0  0  0  0  0  0  0  0  0
   46.0699    8.3268   12.6284 N   0  0  0  0  0  0  0  0  0  0  0  0
   44.1050    8.2181   11.5857 N   0  0  0  0  0  0  0  0  0  0  0  0
   45.1409    9.0172   11.9966 C   0  0  0  0  0  0  0  0  0  0  0  0
   46.1176    3.6743   13.5246 O   0  0  0  0  0  0  0  0  0  0  0  0
   42.6132    5.6831   11.2529 O   0  0  0  0  0  0  0  0  0  0  0  0
   47.5068    6.0833   13.8254 C   0  0  0  0  0  0  0  0  0  0  0  0
   43.7363    3.3409   12.2987 C   0  0  0  0  0  0  0  0  0  0  0  0
   44.2849    5.1902   12.0972 N   0  0  0  0  0  0  0  0  0  0  0  0
   45.4196    4.8402   12.7874 C   0  0  0  0  0  0  0  0  0  0  0  0
   45.0331    7.4654   12.2171 N   0  0  0  0  0  0  0  0  0  0  0  0
   44.0603    6.5345   11.7901 C   0  0  0  0  0  0  0  0  0  0  0  0
   46.3295    5.7702   13.1789 C   0  0  0  0  0  0  0  0  0  0  0  0
   46.2003    7.1572   12.9201 C   0  0  0  0  0  0  0  0  0  0  0  0
   45.7890    3.5848   13.1648 N   0  0  0  0  0  0  0  0  0  0  0  0
   47.3072    5.0739   13.8264 N   0  0  0  0  0  0  0  0  0  0  0  0
   46.9361    3.7542   13.7926 C   0  0  0  0  0  0  0  0  0  0  0  0
   43.0575    6.9041   11.1720 O   0  0  0  0  0  0  0  0  0  0  0  0
   47.0401    7.9723   13.2872 O   0  0  0  0  0  0  0  0  0  0  0  0
   43.3341    4.1704   11.6945 C   0  0  0  0  0  0  0  0  0  0  0  0
   44.7806    8.8542   11.8881 C   0  0  0  0  0  0  0  0  0  0  0  0
   45.9776    7.4370   11.9195 N   0  0  0  0  0  0  0  0  0  0  0  0
   44.0458    4.4304   13.1540 N   0  0  0  0  0  0  0  0  0  0  0  0
   44.3253    5.6409   12.3806 C   0  0  0  0  0  0  0  0  0  0  0  0
   45.7139    6.2269   12.6931 C   0  0  0  0  0  0  0  0  0  0  0  0
   43.2749    8.5057   11.0829 H   0  0  0  0  0  0  0  0  0  0  0  0
   45.1604   10.0828   11.8079 H   0  0  0  0  0  0  0  0  0  0  0  0
   48.2379    6.4832   13.1156 H   0  0  0  0  0  0  0  0  0  0  0  0
   47.8751    5.1263   14.2038 H   0  0  0  0  0  0  0  0  0  0  0  0
   47.3980    6.7737   14.6680 H   0  0  0  0  0  0  0  0  0  0  0  0
   44.4105    2.6611   11.7673 H   0  0  0  0  0  0  0  0  0  0  0  0
   43.5766    2.9495   13.3088 H   0  0  0  0  0  0  0  0  0  0  0  0
   42.7779    3.3713   11.7745 H   0  0  0  0  0  0  0  0  0  0  0  0
   48.1415    5.4625   14.2475 H   0  0  0  0  0  0  0  0  0  0  0  0
   47.5373    2.9720   14.2381 H   0  0  0  0  0  0  0  0  0  0  0  0
   42.4838    4.5958   11.1554 H   0  0  0  0  0  0  0  0  0  0  0  0
   43.8375    3.4507   11.0412 H   0  0  0  0  0  0  0  0  0  0  0  0
   42.9612    3.6575   12.5867 H   0  0  0  0  0  0  0  0  0  0  0  0
   44.6987    8.9530   10.8007 H   0  0  0  0  0  0  0  0  0  0  0  0
   45.5694    9.5203   12.2462 H   0  0  0  0  0  0  0  0  0  0  0  0
   43.8285    9.1583   12.3354 H   0  0  0  0  0  0  0  0  0  0  0  0
   45.2816    8.1473   12.1448 H   0  0  0  0  0  0  0  0  0  0  0  0
   46.8797    7.8241   12.1940 H   0  0  0  0  0  0  0  0  0  0  0  0
   44.7434    3.7209   12.9317 H   0  0  0  0  0  0  0  0  0  0  0  0
   44.1469    4.6271   14.1485 H   0  0  0  0  0  0  0  0  0  0  0  0
   43.5485    6.3816   12.6017 H   0  0  0  0  0  0  0  0  0  0  0  0
   44.2497    5.4016   11.3138 H   0  0  0  0  0  0  0  0  0  0  0  0
   45.7876    6.4628   13.7610 H   0  0  0  0  0  0  0  0  0  0  0  0
   46.4889    5.4868   12.4645 H   0  0  0  0  0  0  0  0  0  0  0  0
  2  1  1  0
  3  4  1  0
  4  1  1  0
  5  2  2  0
  6  3  1  0
  7  2  1  0
  8  5  1  0
  9  7  2  0
 10  4  2  0
 11  6  2  0
 12  1  1  0
 13  3  1  0
  5  6  1  0
  8  9  1  0
 15 14  1  0
 16 17  1  0
 17 14  1  0
 18 15  2  0
 19 16  1  0
 20 15  1  0
 21 18  1  0
 22 20  2  0
 23 17  2  0
 24 19  2  0
 25 14  1  0
 26 16  1  0
 18 19  1  0
 21 22  1  0
 28 29  1  0
 29 30  1  0
 30 27  1  0
  8 31  1  0
  9 32  1  0
 12 33  1  0
 12 34  1  0
 12 35  1  0
 13 36  1  0
 13 37  1  0
 13 38  1  0
 21 39  1  0
 22 40  1  0
 25 41  1  0
 25 42  1  0
 25 43  1  0
 26 44  1  0
 26 45  1  0
 26 46  1  0
 27 47  1  0
 27 48  1  0
 28 49  1  0
 28 50  1  0
 29 51  1  0
 29 52  1  0
 30 53  1  0
 30 54  1  0
M  END
> <Uni-Dock RESULT> 
ENERGY=   -6.875  LOWER_BOUND=    0.000  UPPER_BOUND=    0.000
INTER + INTRA:          -6.875
INTER:                  -6.875
INTRA:                   0.000
UNBOUND:                 0.000

$$$$

     RDKit          3D

 54 55  0  0  0  0  0  0  0  0999 V2000
   46.0360    4.8653   13.0337 N   0  0  0  0  0  0  0  0  0  0  0  0
   44.9379    4.2990   12.4340 C   0  0  0  0  0  0  0  0  0  0  0  0
   45.2025    6.9978   12.3210 N   0  0  0  0  0  0  0  0  0  0  0  0
   46.1977    6.2523   12.9909 C   0  0  0  0  0  0  0  0  0  0  0  0
   44.0042    5.0556   11.7997 C   0  0  0  0  0  0  0  0  0  0  0  0
   44.0704    6.4673   11.6975 C   0  0  0  0  0  0  0  0  0  0  0  0
   44.6301    2.9732   12.3832 N   0  0  0  0  0  0  0  0  0  0  0  0
   43.0752    4.1730   11.3330 N   0  0  0  0  0  0  0  0  0  0  0  0
   43.4970    2.9240   11.7107 C   0  0  0  0  0  0  0  0  0  0  0  0
   47.1657    6.8132   13.5132 O   0  0  0  0  0  0  0  0  0  0  0  0
   43.2107    7.1222   11.1176 O   0  0  0  0  0  0  0  0  0  0  0  0
   47.0136    4.0267   13.7024 C   0  0  0  0  0  0  0  0  0  0  0  0
   45.3896    8.4347   12.2884 C   0  0  0  0  0  0  0  0  0  0  0  0
   44.7176    6.6165   12.2240 N   0  0  0  0  0  0  0  0  0  0  0  0
   45.8463    6.2648   12.9231 C   0  0  0  0  0  0  0  0  0  0  0  0
   44.2313    4.2767   12.0255 N   0  0  0  0  0  0  0  0  0  0  0  0
   43.8682    5.6137   11.7501 C   0  0  0  0  0  0  0  0  0  0  0  0
   46.1569    4.9643   13.1651 C   0  0  0  0  0  0  0  0  0  0  0  0
   45.3668    3.8712   12.7310 C   0  0  0  0  0  0  0  0  0  0  0  0
   46.7742    7.1104   13.4511 N   0  0  0  0  0  0  0  0  0  0  0  0
   47.3232    4.9933   13.8714 N   0  0  0  0  0  0  0  0  0  0  0  0
   47.6584    6.3147   14.0202 C   0  0  0  0  0  0  0  0  0  0  0  0
   42.8411    5.8739   11.1163 O   0  0  0  0  0  0  0  0  0  0  0  0
   45.6746    2.7074   12.9658 O   0  0  0  0  0  0  0  0  0  0  0  0
   44.4167    8.0158   11.9837 C   0  0  0  0  0  0  0  0  0  0  0  0
   43.3363    3.2524   11.5249 C   0  0  0  0  0  0  0  0  0  0  0  0
   44.3271    3.9197   12.9446 N   0  0  0  0  0  0  0  0  0  0  0  0
   45.8204    7.1873   11.7663 N   0  0  0  0  0  0  0  0  0  0  0  0
   44.8043    6.1543   11.9712 C   0  0  0  0  0  0  0  0  0  0  0  0
   45.3489    4.9450   12.7524 C   0  0  0  0  0  0  0  0  0  0  0  0
   42.2394    4.4026   10.8103 H   0  0  0  0  0  0  0  0  0  0  0  0
   42.9412    2.0273   11.4686 H   0  0  0  0  0  0  0  0  0  0  0  0
   46.5193    3.4748   14.5082 H   0  0  0  0  0  0  0  0  0  0  0  0
   47.8296    4.6141   14.1312 H   0  0  0  0  0  0  0  0  0  0  0  0
   47.4338    3.3211   12.9786 H   0  0  0  0  0  0  0  0  0  0  0  0
   45.4342    8.8110   13.3157 H   0  0  0  0  0  0  0  0  0  0  0  0
   46.3422    8.6583   11.7969 H   0  0  0  0  0  0  0  0  0  0  0  0
   44.5864    8.9505   11.7563 H   0  0  0  0  0  0  0  0  0  0  0  0
   47.8359    4.1913   14.2154 H   0  0  0  0  0  0  0  0  0  0  0  0
   48.5494    6.6302   14.5476 H   0  0  0  0  0  0  0  0  0  0  0  0
   43.4908    8.1422   11.4168 H   0  0  0  0  0  0  0  0  0  0  0  0
   44.3108    8.5285   12.9450 H   0  0  0  0  0  0  0  0  0  0  0  0
   45.2379    8.4655   11.4166 H   0  0  0  0  0  0  0  0  0  0  0  0
   42.3412    3.4086   11.9542 H   0  0  0  0  0  0  0  0  0  0  0  0
   43.6744    2.2429   11.7717 H   0  0  0  0  0  0  0  0  0  0  0  0
   43.2618    3.3460   10.4365 H   0  0  0  0  0  0  0  0  0  0  0  0
   44.0018    3.5846   12.0382 H   0  0  0  0  0  0  0  0  0  0  0  0
   44.7394    3.1152   13.4153 H   0  0  0  0  0  0  0  0  0  0  0  0
   46.1485    7.5205   12.6723 H   0  0  0  0  0  0  0  0  0  0  0  0
   46.6318    6.7835   11.3009 H   0  0  0  0  0  0  0  0  0  0  0  0
   44.4350    5.8310   10.9914 H   0  0  0  0  0  0  0  0  0  0  0  0
   43.9564    6.5967   12.5065 H   0  0  0  0  0  0  0  0  0  0  0  0
   46.1983    4.5063   12.2162 H   0  0  0  0  0  0  0  0  0  0  0  0
   45.7109    5.2700   13.7342 H   0  0  0  0  0  0  0  0  0  0  0  0
  2  1  1  0
  3  4  1  0
  4  1  1  0
  5  2  2  0
  6  3  1  0
  7  2  1  0
  8  5  1  0
  9  7  2  0
 10  4  2  0
 11  6  2  0
 12  1  1  0
 13  3  1  0
  5  6  1  0
  8  9  1  0
 15 14  1  0
 16 17  1  0
 17 14  1  0
 18 15  2  0
 19 16  1  0
 20 15  1  0
 21 18  1  0
 22 20  2  0
 23 17  2  0
 24 19  2  0
 25 14  1  0
 26 16  1  0
 18 19  1  0
 21 22  1  0
 28 29  1  0
 29 30  1  0
 30 27  1  0
  8 31  1  0
  9 32  1  0
 12 33  1  0
 12 34  1  0
 12 35  1  0
 13 36  1  0
 13 37  1  0
 13 38  1  0
 21 39  1  0
 22 40  1  0
 25 41  1  0
 25 42  1  0
 25 43  1  0
 26 44  1  0
 26 45  1  0
 26 46  1  0
 27 47  1  0
 27 48  1  0
 28 49  1  0
 28 50  1  0
 29 51  1  0
 29 52  1  0
 30 53  1  0
 30 54  1  0
M  END
> <Uni-Dock RESULT> 
ENERGY=   -6.813  LOWER_BOUND=    0.808  UPPER_BOUND=    3.257
INTER + INTRA:          -6.813
INTER:                  -6.813
INTRA:                   0.000
UNBOUND:                 0.000

$$$$

     RDKit          3D

 54 55  0  0  0  0  0  0  0  0999 V2000
   44.3247    6.1951   11.9675 N   0  0  0  0  0  0  0  0  0  0  0  0
   44.1281    4.8358   11.9587 C   0  0  0  0  0  0  0  0  0  0  0  0
   46.3710    5.7921   13.1509 N   0  0  0  0  0  0  0  0  0  0  0  0
   45.4706    6.7150   12.5743 C   0  0  0  0  0  0  0  0  0  0  0  0
   45.0218    3.9840   12.5261 C   0  0  0  0  0  0  0  0  0  0  0  0
   46.2140    4.4040   13.1664 C   0  0  0  0  0  0  0  0  0  0  0  0
   43.0730    4.1686   11.4141 N   0  0  0  0  0  0  0  0  0  0  0  0
   44.5098    2.7352   12.3312 N   0  0  0  0  0  0  0  0  0  0  0  0
   43.3288    2.8974   11.6534 C   0  0  0  0  0  0  0  0  0  0  0  0
   45.6966    7.9284   12.6108 O   0  0  0  0  0  0  0  0  0  0  0  0
   47.0012    3.6094   13.6696 O   0  0  0  0  0  0  0  0  0  0  0  0
   43.3491    7.0757   11.3517 C   0  0  0  0  0  0  0  0  0  0  0  0
   47.5530    6.3526   13.7750 C   0  0  0  0  0  0  0  0  0  0  0  0
   46.2090    5.2234   12.9502 N   0  0  0  0  0  0  0  0  0  0  0  0
   45.6083    6.3868   12.5352 C   0  0  0  0  0  0  0  0  0  0  0  0
   44.2977    4.0501   12.1015 N   0  0  0  0  0  0  0  0  0  0  0  0
   45.5569    4.0059   12.7397 C   0  0  0  0  0  0  0  0  0  0  0  0
   44.3944    6.3822   11.9247 C   0  0  0  0  0  0  0  0  0  0  0  0
   43.6482    5.2066   11.6628 C   0  0  0  0  0  0  0  0  0  0  0  0
   46.1029    7.6494   12.6622 N   0  0  0  0  0  0  0  0  0  0  0  0
   44.1155    7.6902   11.6578 N   0  0  0  0  0  0  0  0  0  0  0  0
   45.1791    8.4204   12.1226 C   0  0  0  0  0  0  0  0  0  0  0  0
   46.0515    2.9311   13.0926 O   0  0  0  0  0  0  0  0  0  0  0  0
   42.5542    5.2357   11.1092 O   0  0  0  0  0  0  0  0  0  0  0  0
   47.5064    5.2655   13.5992 C   0  0  0  0  0  0  0  0  0  0  0  0
   43.6387    2.7760   11.8930 C   0  0  0  0  0  0  0  0  0  0  0  0
   44.1656    4.4092   11.1877 N   0  0  0  0  0  0  0  0  0  0  0  0
   46.1528    6.1523   13.8911 N   0  0  0  0  0  0  0  0  0  0  0  0
   45.7056    5.0617   13.0239 C   0  0  0  0  0  0  0  0  0  0  0  0
   44.6067    5.5078   12.0427 C   0  0  0  0  0  0  0  0  0  0  0  0
   44.9263    1.8628   12.6312 H   0  0  0  0  0  0  0  0  0  0  0  0
   42.7065    2.0598   11.3656 H   0  0  0  0  0  0  0  0  0  0  0  0
   43.2582    6.8219   10.2908 H   0  0  0  0  0  0  0  0  0  0  0  0
   43.6379    8.1265   11.4358 H   0  0  0  0  0  0  0  0  0  0  0  0
   42.3819    6.9384   11.8458 H   0  0  0  0  0  0  0  0  0  0  0  0
   48.1140    6.9224   13.0269 H   0  0  0  0  0  0  0  0  0  0  0  0
   47.2439    7.0381   14.5710 H   0  0  0  0  0  0  0  0  0  0  0  0
   48.2061    5.5867   14.2005 H   0  0  0  0  0  0  0  0  0  0  0  0
   43.2831    8.0454   11.2046 H   0  0  0  0  0  0  0  0  0  0  0  0
   45.2216    9.4988   12.0398 H   0  0  0  0  0  0  0  0  0  0  0  0
   47.8581    4.2674   13.8727 H   0  0  0  0  0  0  0  0  0  0  0  0
   48.2330    5.7171   12.9163 H   0  0  0  0  0  0  0  0  0  0  0  0
   47.4317    5.8710   14.5081 H   0  0  0  0  0  0  0  0  0  0  0  0
   44.2848    2.1371   11.2821 H   0  0  0  0  0  0  0  0  0  0  0  0
   42.6712    2.8806   11.3958 H   0  0  0  0  0  0  0  0  0  0  0  0
   43.4892    2.2899   12.8627 H   0  0  0  0  0  0  0  0  0  0  0  0
   43.7842    3.6583   11.7626 H   0  0  0  0  0  0  0  0  0  0  0  0
   43.4024    4.7291   10.5927 H   0  0  0  0  0  0  0  0  0  0  0  0
   46.5312    6.9050   13.3168 H   0  0  0  0  0  0  0  0  0  0  0  0
   45.3546    6.5465   14.3867 H   0  0  0  0  0  0  0  0  0  0  0  0
   45.3349    4.2459   13.6547 H   0  0  0  0  0  0  0  0  0  0  0  0
   46.5694    4.6758   12.4707 H   0  0  0  0  0  0  0  0  0  0  0  0
   43.7453    5.8956   12.5984 H   0  0  0  0  0  0  0  0  0  0  0  0
   44.9824    6.3186   11.4086 H   0  0  0  0  0  0  0  0  0  0  0  0
  2  1  1  0
  3  4  1  0
  4  1  1  0
  5  2  2  0
  6  3  1  0
  7  2  1  0
  8  5  1  0
  9  7  2  0
 10  4  2  0
 11  6  2  0
 12  1  1  0
 13  3  1  0
  5  6  1  0
  8  9  1  0
 15 14  1  0
 16 17  1  0
 17 14  1  0
 18 15  2  0
 19 16  1  0
 20 15  1  0
 21 18  1  0
 22 20  2  0
 23 17  2  0
 24 19  2  0
 25 14  1  0
 26 16  1  0
 18 19  1  0
 21 22  1  0
 28 29  1  0
 29 30  1  0
 30 27  1  0
  8 31  1  0
  9 32  1  0
 12 33  1  0
 12 34  1  0
 12 35  1  0
 13 36  1  0
 13 37  1  0
 13 38  1  0
 21 39  1  0
 22 40  1  0
 25 41  1  0
 25 42  1  0
 25 43  1  0
 26 44  1  0
 26 45  1  0
 26 46  1  0
 27 47  1  0
 27 48  1  0
 28 49  1  0
 28 50  1  0
 29 51  1  0
 29 52  1  0
 30 53  1  0
 30 54  1  0
M  END
> <Uni-Dock RESULT> 
ENERGY=   -6.361  LOWER_BOUND=    0.886  UPPER_BOUND=    4.082
INTER + INTRA:          -6.361
INTER:                  -6.361
INTRA:                   0.000
UNBOUND:                 0.000

$$$$

     RDKit          3D

 54 55  0  0  0  0  0  0  0  0999 V2000
   44.3890    6.0330   12.1584 N   0  0  0  0  0  0  0  0  0  0  0  0
   45.0726    7.2190   12.2696 C   0  0  0  0  0  0  0  0  0  0  0  0
   46.1705    5.0047   13.3908 N   0  0  0  0  0  0  0  0  0  0  0  0
   44.9308    4.8772   12.7261 C   0  0  0  0  0  0  0  0  0  0  0  0
   46.2638    7.2956   12.9189 C   0  0  0  0  0  0  0  0  0  0  0  0
   46.9013    6.1872   13.5294 C   0  0  0  0  0  0  0  0  0  0  0  0
   44.6889    8.4298   11.7779 N   0  0  0  0  0  0  0  0  0  0  0  0
   46.6431    8.6026   12.8322 N   0  0  0  0  0  0  0  0  0  0  0  0
   45.6579    9.2509   12.1324 C   0  0  0  0  0  0  0  0  0  0  0  0
   44.3587    3.7853   12.6557 O   0  0  0  0  0  0  0  0  0  0  0  0
   47.9777    6.2890   14.1085 O   0  0  0  0  0  0  0  0  0  0  0  0
   43.1188    5.9878   11.4578 C   0  0  0  0  0  0  0  0  0  0  0  0
   46.7146    3.7936   13.9725 C   0  0  0  0  0  0  0  0  0  0  0  0
   46.2795    5.6147   13.4667 N   0  0  0  0  0  0  0  0  0  0  0  0
   45.1259    5.0995   12.9280 C   0  0  0  0  0  0  0  0  0  0  0  0
   45.6712    7.7237   12.5010 N   0  0  0  0  0  0  0  0  0  0  0  0
   46.5853    6.9626   13.2627 C   0  0  0  0  0  0  0  0  0  0  0  0
   44.2745    5.8694   12.2010 C   0  0  0  0  0  0  0  0  0  0  0  0
   44.4877    7.2444   11.9341 C   0  0  0  0  0  0  0  0  0  0  0  0
   44.6811    3.8163   13.0306 N   0  0  0  0  0  0  0  0  0  0  0  0
   43.2566    5.0397   11.8329 N   0  0  0  0  0  0  0  0  0  0  0  0
   43.5466    3.8067   12.3585 C   0  0  0  0  0  0  0  0  0  0  0  0
   47.6084    7.4769   13.7242 O   0  0  0  0  0  0  0  0  0  0  0  0
   43.6993    7.9127   11.2737 O   0  0  0  0  0  0  0  0  0  0  0  0
   47.1663    4.7633   14.2381 C   0  0  0  0  0  0  0  0  0  0  0  0
   46.0076    9.1194   12.3015 C   0  0  0  0  0  0  0  0  0  0  0  0
   44.7266    7.8603   12.7664 N   0  0  0  0  0  0  0  0  0  0  0  0
   46.4725    4.5067   12.7694 N   0  0  0  0  0  0  0  0  0  0  0  0
   46.2667    5.9307   13.0365 C   0  0  0  0  0  0  0  0  0  0  0  0
   44.9165    6.4374   12.4986 C   0  0  0  0  0  0  0  0  0  0  0  0
   47.4889    9.0080   13.2128 H   0  0  0  0  0  0  0  0  0  0  0  0
   45.7032   10.3103   11.9154 H   0  0  0  0  0  0  0  0  0  0  0  0
   42.4131    6.6619   11.9538 H   0  0  0  0  0  0  0  0  0  0  0  0
   42.6931    4.9812   11.4498 H   0  0  0  0  0  0  0  0  0  0  0  0
   43.2698    6.3117   10.4231 H   0  0  0  0  0  0  0  0  0  0  0  0
   46.0000    3.3968   14.7011 H   0  0  0  0  0  0  0  0  0  0  0  0
   46.8507    3.0490   13.1812 H   0  0  0  0  0  0  0  0  0  0  0  0
   47.6728    3.9611   14.4704 H   0  0  0  0  0  0  0  0  0  0  0  0
   42.4477    5.2920   11.2793 H   0  0  0  0  0  0  0  0  0  0  0  0
   42.8993    2.9506   12.2183 H   0  0  0  0  0  0  0  0  0  0  0  0
   48.0407    5.3088   14.6021 H   0  0  0  0  0  0  0  0  0  0  0  0
   46.6196    4.3648   15.0987 H   0  0  0  0  0  0  0  0  0  0  0  0
   47.5078    3.9374   13.6060 H   0  0  0  0  0  0  0  0  0  0  0  0
   46.0948    9.6074   13.2779 H   0  0  0  0  0  0  0  0  0  0  0  0
   45.2609    9.6499   11.7055 H   0  0  0  0  0  0  0  0  0  0  0  0
   46.9767    9.1830   11.7957 H   0  0  0  0  0  0  0  0  0  0  0  0
   45.4646    8.3971   12.3116 H   0  0  0  0  0  0  0  0  0  0  0  0
   43.8498    8.1691   12.3482 H   0  0  0  0  0  0  0  0  0  0  0  0
   45.7329    3.9695   13.2211 H   0  0  0  0  0  0  0  0  0  0  0  0
   46.3840    4.3282   11.7703 H   0  0  0  0  0  0  0  0  0  0  0  0
   47.0873    6.4926   12.5762 H   0  0  0  0  0  0  0  0  0  0  0  0
   46.3271    6.0977   14.1180 H   0  0  0  0  0  0  0  0  0  0  0  0
   44.8578    6.2668   11.4175 H   0  0  0  0  0  0  0  0  0  0  0  0
   44.0978    5.8787   12.9657 H   0  0  0  0  0  0  0  0  0  0  0  0
  2  1  1  0
  3  4  1  0
  4  1  1  0
  5  2  2  0
  6  3  1  0
  7  2  1  0
  8  5  1  0
  9  7  2  0
 10  4  2  0
 11  6  2  0
 12  1  1  0
 13  3  1  0
  5  6  1  0
  8  9  1  0
 15 14  1  0
 16 17  1  0
 17 14  1  0
 18 15  2  0
 19 16  1  0
 20 15  1  0
 21 18  1  0
 22 20  2  0
 23 17  2  0
 24 19  2  0
 25 14  1  0
 26 16  1  0
 18 19  1  0
 21 22  1  0
 28 29  1  0
 29 30  1  0
 30 27  1  0
  8 31  1  0
  9 32  1  0
 12 33  1  0
 12 34  1  0
 12 35  1  0
 13 36  1  0
 13 37  1  0
 13 38  1  0
 21 39  1  0
 22 40  1  0
 25 41  1  0
 25 42  1  0
 25 43  1  0
 26 44  1  0
 26 45  1  0
 26 46  1  0
 27 47  1  0
 27 48  1  0
 28 49  1  0
 28 50  1  0
 29 51  1  0
 29 52  1  0
 30 53  1  0
 30 54  1  0
M  END
> <Uni-Dock RESULT> 
ENERGY=   -6.195  LOWER_BOUND=    0.923  UPPER_BOUND=    2.921
INTER + INTRA:          -6.195
INTER:                  -6.195
INTRA:                   0.000
UNBOUND:                 0.000

$$$$

     RDKit          3D

 54 55  0  0  0  0  0  0  0  0999 V2000
   44.1469    3.3203   11.1267 N   0  0  0  0  0  0  0  0  0  0  0  0
   44.7063    3.4380    9.8779 C   0  0  0  0  0  0  0  0  0  0  0  0
   44.9172    5.5469   11.5733 N   0  0  0  0  0  0  0  0  0  0  0  0
   44.2405    4.3904   12.0200 C   0  0  0  0  0  0  0  0  0  0  0  0
   45.3488    4.5707    9.4899 C   0  0  0  0  0  0  0  0  0  0  0  0
   45.5009    5.7126   10.3149 C   0  0  0  0  0  0  0  0  0  0  0  0
   44.7055    2.4975    8.8928 N   0  0  0  0  0  0  0  0  0  0  0  0
   45.7675    4.3337    8.2139 N   0  0  0  0  0  0  0  0  0  0  0  0
   45.3548    3.0653    7.8954 C   0  0  0  0  0  0  0  0  0  0  0  0
   43.7559    4.3380   13.1544 O   0  0  0  0  0  0  0  0  0  0  0  0
   46.0870    6.7208    9.9350 O   0  0  0  0  0  0  0  0  0  0  0  0
   43.4679    2.0956   11.5077 C   0  0  0  0  0  0  0  0  0  0  0  0
   45.0027    6.6449   12.5156 C   0  0  0  0  0  0  0  0  0  0  0  0
   44.9920    5.4923   10.9558 N   0  0  0  0  0  0  0  0  0  0  0  0
   44.3021    4.5923   11.7308 C   0  0  0  0  0  0  0  0  0  0  0  0
   45.1005    3.7993    9.2609 N   0  0  0  0  0  0  0  0  0  0  0  0
   45.4152    5.1110    9.6802 C   0  0  0  0  0  0  0  0  0  0  0  0
   44.0212    3.3393   11.2865 C   0  0  0  0  0  0  0  0  0  0  0  0
   44.4027    2.8507   10.0124 C   0  0  0  0  0  0  0  0  0  0  0  0
   43.8210    4.8001   12.9878 N   0  0  0  0  0  0  0  0  0  0  0  0
   43.3382    2.7370   12.3017 N   0  0  0  0  0  0  0  0  0  0  0  0
   43.2412    3.6606   13.3107 C   0  0  0  0  0  0  0  0  0  0  0  0
   46.0384    5.8800    8.9422 O   0  0  0  0  0  0  0  0  0  0  0  0
   44.1337    1.7133    9.6404 O   0  0  0  0  0  0  0  0  0  0  0  0
   45.2747    6.8226   11.4624 C   0  0  0  0  0  0  0  0  0  0  0  0
   45.5488    3.4245    7.9345 C   0  0  0  0  0  0  0  0  0  0  0  0
   44.1716    3.4655    9.1771 N   0  0  0  0  0  0  0  0  0  0  0  0
   45.4894    5.3560   12.1746 N   0  0  0  0  0  0  0  0  0  0  0  0
   45.2302    5.0536   10.7664 C   0  0  0  0  0  0  0  0  0  0  0  0
   44.4180    3.7585   10.5863 C   0  0  0  0  0  0  0  0  0  0  0  0
   46.2823    4.9742    7.6229 H   0  0  0  0  0  0  0  0  0  0  0  0
   45.5556    2.6160    6.9313 H   0  0  0  0  0  0  0  0  0  0  0  0
   42.6345    1.9204   10.8199 H   0  0  0  0  0  0  0  0  0  0  0  0
   43.0749    2.1472   12.5263 H   0  0  0  0  0  0  0  0  0  0  0  0
   44.1746    1.2617   11.4476 H   0  0  0  0  0  0  0  0  0  0  0  0
   43.9900    6.9542   12.7943 H   0  0  0  0  0  0  0  0  0  0  0  0
   45.5192    6.3002   13.4175 H   0  0  0  0  0  0  0  0  0  0  0  0
   45.5373    7.5067   12.1084 H   0  0  0  0  0  0  0  0  0  0  0  0
   42.9762    1.7918   12.3029 H   0  0  0  0  0  0  0  0  0  0  0  0
   42.7417    3.4456   14.2466 H   0  0  0  0  0  0  0  0  0  0  0  0
   45.8284    7.4255   10.7381 H   0  0  0  0  0  0  0  0  0  0  0  0
   44.3299    7.3272   11.6878 H   0  0  0  0  0  0  0  0  0  0  0  0
   45.8722    6.7375   12.3757 H   0  0  0  0  0  0  0  0  0  0  0  0
   45.1068    4.1089    7.2030 H   0  0  0  0  0  0  0  0  0  0  0  0
   45.2737    2.3998    7.6727 H   0  0  0  0  0  0  0  0  0  0  0  0
   46.6383    3.5233    7.8860 H   0  0  0  0  0  0  0  0  0  0  0  0
   45.0598    3.3468    8.6905 H   0  0  0  0  0  0  0  0  0  0  0  0
   43.6812    2.5755    9.0974 H   0  0  0  0  0  0  0  0  0  0  0  0
   44.6017    5.4715   12.6626 H   0  0  0  0  0  0  0  0  0  0  0  0
   45.9556    4.5648   12.6157 H   0  0  0  0  0  0  0  0  0  0  0  0
   46.1913    4.9676   10.2470 H   0  0  0  0  0  0  0  0  0  0  0  0
   44.6949    5.8985   10.3183 H   0  0  0  0  0  0  0  0  0  0  0  0
   44.9544    2.9159   11.0376 H   0  0  0  0  0  0  0  0  0  0  0  0
   43.4549    3.8501   11.1007 H   0  0  0  0  0  0  0  0  0  0  0  0
  2  1  1  0
  3  4  1  0
  4  1  1  0
  5  2  2  0
  6  3  1  0
  7  2  1  0
  8  5  1  0
  9  7  2  0
 10  4  2  0
 11  6  2  0
 12  1  1  0
 13  3  1  0
  5  6  1  0
  8  9  1  0
 15 14  1  0
 16 17  1  0
 17 14  1  0
 18 15  2  0
 19 16  1  0
 20 15  1  0
 21 18  1  0
 22 20  2  0
 23 17  2  0
 24 19  2  0
 25 14  1  0
 26 16  1  0
 18 19  1  0
 21 22  1  0
 28 29  1  0
 29 30  1  0
 30 27  1  0
  8 31  1  0
  9 32  1  0
 12 33  1  0
 12 34  1  0
 12 35  1  0
 13 36  1  0
 13 37  1  0
 13 38  1  0
 21 39  1  0
 22 40  1  0
 25 41  1  0
 25 42  1  0
 25 43  1  0
 26 44  1  0
 26 45  1  0
 26 46  1  0
 27 47  1  0
 27 48  1  0
 28 49  1  0
 28 50  1  0
 29 51  1  0
 29 52  1  0
 30 53  1  0
 30 54  1  0
M  END
> <Uni-Dock RESULT> 
ENERGY=   -6.043  LOWER_BOUND=    2.639  UPPER_BOUND=    4.335
INTER + INTRA:          -6.043
INTER:                  -6.043
INTRA:                   0.000
UNBOUND:                 0.000

$$$$

     RDKit          3D

 54 55  0  0  0  0  0  0  0  0999 V2000
   46.2003    5.2000   13.2271 N   0  0  0  0  0  0  0  0  0  0  0  0
   46.6127    6.5041   13.3523 C   0  0  0  0  0  0  0  0  0  0  0  0
   44.2953    6.0216   12.0244 N   0  0  0  0  0  0  0  0  0  0  0  0
   45.0110    4.9225   12.5484 C   0  0  0  0  0  0  0  0  0  0  0  0
   45.8917    7.5315   12.8317 C   0  0  0  0  0  0  0  0  0  0  0  0
   44.6744    7.3623   12.1265 C   0  0  0  0  0  0  0  0  0  0  0  0
   47.7385    6.9461   13.9784 N   0  0  0  0  0  0  0  0  0  0  0  0
   46.5899    8.6611   13.1419 N   0  0  0  0  0  0  0  0  0  0  0  0
   47.7010    8.2566   13.8365 C   0  0  0  0  0  0  0  0  0  0  0  0
   44.5941    3.7690   12.4070 O   0  0  0  0  0  0  0  0  0  0  0  0
   44.0466    8.3111   11.6683 O   0  0  0  0  0  0  0  0  0  0  0  0
   46.9954    4.1274   13.7957 C   0  0  0  0  0  0  0  0  0  0  0  0
   43.0647    5.7114   11.3242 C   0  0  0  0  0  0  0  0  0  0  0  0
   44.6727    6.5184   12.0484 N   0  0  0  0  0  0  0  0  0  0  0  0
   45.0513    5.2457   12.3997 C   0  0  0  0  0  0  0  0  0  0  0  0
   46.5882    7.3140   13.2521 N   0  0  0  0  0  0  0  0  0  0  0  0
   45.4453    7.6020   12.4735 C   0  0  0  0  0  0  0  0  0  0  0  0
   46.1597    5.0150   13.1510 C   0  0  0  0  0  0  0  0  0  0  0  0
   47.0121    6.0387   13.6336 C   0  0  0  0  0  0  0  0  0  0  0  0
   44.4158    4.0868   12.0713 N   0  0  0  0  0  0  0  0  0  0  0  0
   46.2235    3.6609   13.3005 N   0  0  0  0  0  0  0  0  0  0  0  0
   45.1463    3.1414   12.6293 C   0  0  0  0  0  0  0  0  0  0  0  0
   45.1508    8.7661   12.1865 O   0  0  0  0  0  0  0  0  0  0  0  0
   48.0063    5.7976   14.3102 O   0  0  0  0  0  0  0  0  0  0  0  0
   43.4826    6.7282   11.2448 C   0  0  0  0  0  0  0  0  0  0  0  0
   47.3753    8.4524   13.6824 C   0  0  0  0  0  0  0  0  0  0  0  0
   47.3408    6.7591   12.9250 N   0  0  0  0  0  0  0  0  0  0  0  0
   43.6964    5.8090   12.5914 N   0  0  0  0  0  0  0  0  0  0  0  0
   44.8934    6.6476   12.5171 C   0  0  0  0  0  0  0  0  0  0  0  0
   46.1554    5.9095   12.9987 C   0  0  0  0  0  0  0  0  0  0  0  0
   46.3320    9.6101   12.9026 H   0  0  0  0  0  0  0  0  0  0  0  0
   48.4378    8.9566   14.2088 H   0  0  0  0  0  0  0  0  0  0  0  0
   47.9913    4.1414   13.3414 H   0  0  0  0  0  0  0  0  0  0  0  0
   46.5447    3.1475   13.6183 H   0  0  0  0  0  0  0  0  0  0  0  0
   47.0828    4.2815   14.8760 H   0  0  0  0  0  0  0  0  0  0  0  0
   43.2914    5.0470   10.4839 H   0  0  0  0  0  0  0  0  0  0  0  0
   42.3893    5.1861   12.0076 H   0  0  0  0  0  0  0  0  0  0  0  0
   42.5613    6.6041   10.9448 H   0  0  0  0  0  0  0  0  0  0  0  0
   46.9312    3.1465   13.8094 H   0  0  0  0  0  0  0  0  0  0  0  0
   44.9502    2.0779   12.5840 H   0  0  0  0  0  0  0  0  0  0  0  0
   43.3074    7.7884   11.0448 H   0  0  0  0  0  0  0  0  0  0  0  0
   43.6004    6.2071   10.2894 H   0  0  0  0  0  0  0  0  0  0  0  0
   42.6158    6.3251   11.7781 H   0  0  0  0  0  0  0  0  0  0  0  0
   47.7196    9.0011   12.7995 H   0  0  0  0  0  0  0  0  0  0  0  0
   48.2430    8.1610   14.2793 H   0  0  0  0  0  0  0  0  0  0  0  0
   46.7419    9.1183   14.2778 H   0  0  0  0  0  0  0  0  0  0  0  0
   47.2135    7.5787   13.5181 H   0  0  0  0  0  0  0  0  0  0  0  0
   48.1422    6.2550   13.3026 H   0  0  0  0  0  0  0  0  0  0  0  0
   43.8243    4.9875   12.0012 H   0  0  0  0  0  0  0  0  0  0  0  0
   43.5792    5.4609   13.5417 H   0  0  0  0  0  0  0  0  0  0  0  0
   44.7284    7.5432   13.1268 H   0  0  0  0  0  0  0  0  0  0  0  0
   45.0251    6.9812   11.4815 H   0  0  0  0  0  0  0  0  0  0  0  0
   46.0199    5.5749   14.0336 H   0  0  0  0  0  0  0  0  0  0  0  0
   46.3217    5.0186   12.3830 H   0  0  0  0  0  0  0  0  0  0  0  0
  2  1  1  0
  3  4  1  0
  4  1  1  0
  5  2  2  0
  6  3  1  0
  7  2  1  0
  8  5  1  0
  9  7  2  0
 10  4  2  0
 11  6  2  0
 12  1  1  0
 13  3  1  0
  5  6  1  0
  8  9  1  0
 15 14  1  0
 16 17  1  0
 17 14  1  0
 18 15  2  0
 19 16  1  0
 20 15  1  0
 21 18  1  0
 22 20  2  0
 23 17  2  0
 24 19  2  0
 25 14  1  0
 26 16  1  0
 18 19  1  0
 21 22  1  0
 28 29  1  0
 29 30  1  0
 30 27  1  0
  8 31  1  0
  9 32  1  0
 12 33  1  0
 12 34  1  0
 12 35  1  0
 13 36  1  0
 13 37  1  0
 13 38  1  0
 21 39  1  0
 22 40  1  0
 25 41  1  0
 25 42  1  0
 25 43  1  0
 26 44  1  0
 26 45  1  0
 26 46  1  0
 27 47  1  0
 27 48  1  0
 28 49  1  0
 28 50  1  0
 29 51  1  0
 29 52  1  0
 30 53  1  0
 30 54  1  0
M  END
> <Uni-Dock RESULT> 
ENERGY=   -5.871  LOWER_BOUND=    1.253  UPPER_BOUND=    2.047
INTER + INTRA:          -5.871
INTER:                  -5.871
INTRA:                   0.000
UNBOUND:                 0.000

$$$$

     RDKit          3D

 54 55  0  0  0  0  0  0  0  0999 V2000
   44.6044    6.2354   12.3227 N   0  0  0  0  0  0  0  0  0  0  0  0
   45.5700    5.5178   12.9853 C   0  0  0  0  0  0  0  0  0  0  0  0
   46.0358    8.1497   12.5138 N   0  0  0  0  0  0  0  0  0  0  0  0
   44.8176    7.5921   12.0666 C   0  0  0  0  0  0  0  0  0  0  0  0
   46.7285    6.0959   13.3978 C   0  0  0  0  0  0  0  0  0  0  0  0
   47.0457    7.4612   13.1902 C   0  0  0  0  0  0  0  0  0  0  0  0
   45.5225    4.1967   13.3129 N   0  0  0  0  0  0  0  0  0  0  0  0
   47.4354    5.1016   14.0073 N   0  0  0  0  0  0  0  0  0  0  0  0
   46.6648    3.9698   13.9314 C   0  0  0  0  0  0  0  0  0  0  0  0
   43.9831    8.2838   11.4752 O   0  0  0  0  0  0  0  0  0  0  0  0
   48.1011    7.9534   13.5752 O   0  0  0  0  0  0  0  0  0  0  0  0
   43.3787    5.5856   11.8964 C   0  0  0  0  0  0  0  0  0  0  0  0
   46.2366    9.5584   12.2377 C   0  0  0  0  0  0  0  0  0  0  0  0
   46.4108    7.6761   12.6716 N   0  0  0  0  0  0  0  0  0  0  0  0
   45.1649    7.5197   12.1150 C   0  0  0  0  0  0  0  0  0  0  0  0
   46.2835    5.3821   13.3584 N   0  0  0  0  0  0  0  0  0  0  0  0
   47.0105    6.5924   13.3179 C   0  0  0  0  0  0  0  0  0  0  0  0
   44.5012    6.3358   12.1779 C   0  0  0  0  0  0  0  0  0  0  0  0
   45.0162    5.1758   12.8078 C   0  0  0  0  0  0  0  0  0  0  0  0
   44.4431    8.4667   11.4539 N   0  0  0  0  0  0  0  0  0  0  0  0
   43.3183    6.5460   11.5325 N   0  0  0  0  0  0  0  0  0  0  0  0
   43.3285    7.8511   11.1114 C   0  0  0  0  0  0  0  0  0  0  0  0
   48.1283    6.6780   13.8350 O   0  0  0  0  0  0  0  0  0  0  0  0
   44.3917    4.1209   12.8477 O   0  0  0  0  0  0  0  0  0  0  0  0
   47.0910    8.9553   12.5857 C   0  0  0  0  0  0  0  0  0  0  0  0
   46.9239    4.2708   14.0335 C   0  0  0  0  0  0  0  0  0  0  0  0
   46.0052    4.8897   12.5451 N   0  0  0  0  0  0  0  0  0  0  0  0
   45.5484    8.6103   13.0388 N   0  0  0  0  0  0  0  0  0  0  0  0
   46.2318    7.3164   13.0231 C   0  0  0  0  0  0  0  0  0  0  0  0
   45.3130    6.1755   12.5504 C   0  0  0  0  0  0  0  0  0  0  0  0
   48.3504    5.1895   14.4311 H   0  0  0  0  0  0  0  0  0  0  0  0
   46.9872    3.0212   14.3409 H   0  0  0  0  0  0  0  0  0  0  0  0
   43.6271    4.7686   11.2114 H   0  0  0  0  0  0  0  0  0  0  0  0
   42.7067    6.2787   11.3840 H   0  0  0  0  0  0  0  0  0  0  0  0
   42.8632    5.1839   12.7746 H   0  0  0  0  0  0  0  0  0  0  0  0
   46.1891    9.7191   11.1557 H   0  0  0  0  0  0  0  0  0  0  0  0
   45.4306   10.1315   12.7079 H   0  0  0  0  0  0  0  0  0  0  0  0
   47.1964    9.9261   12.6091 H   0  0  0  0  0  0  0  0  0  0  0  0
   42.5812    5.8663   11.3950 H   0  0  0  0  0  0  0  0  0  0  0  0
   42.5031    8.2899   10.5657 H   0  0  0  0  0  0  0  0  0  0  0  0
   48.0699    8.9299   13.0713 H   0  0  0  0  0  0  0  0  0  0  0  0
   47.2304    9.2156   11.5316 H   0  0  0  0  0  0  0  0  0  0  0  0
   46.4781    9.7193   13.0743 H   0  0  0  0  0  0  0  0  0  0  0  0
   47.8766    4.0553   13.5388 H   0  0  0  0  0  0  0  0  0  0  0  0
   46.3097    3.3670   14.0291 H   0  0  0  0  0  0  0  0  0  0  0  0
   47.1296    4.5555   15.0707 H   0  0  0  0  0  0  0  0  0  0  0  0
   46.3207    4.6654   13.4884 H   0  0  0  0  0  0  0  0  0  0  0  0
   45.3509    4.1544   12.2804 H   0  0  0  0  0  0  0  0  0  0  0  0
   45.2297    8.8337   12.0964 H   0  0  0  0  0  0  0  0  0  0  0  0
   44.7106    8.5494   13.6154 H   0  0  0  0  0  0  0  0  0  0  0  0
   46.6000    7.1057   14.0335 H   0  0  0  0  0  0  0  0  0  0  0  0
   47.1077    7.3895   12.3684 H   0  0  0  0  0  0  0  0  0  0  0  0
   44.4368    6.1064   13.2052 H   0  0  0  0  0  0  0  0  0  0  0  0
   44.9520    6.3854   11.5374 H   0  0  0  0  0  0  0  0  0  0  0  0
  2  1  1  0
  3  4  1  0
  4  1  1  0
  5  2  2  0
  6  3  1  0
  7  2  1  0
  8  5  1  0
  9  7  2  0
 10  4  2  0
 11  6  2  0
 12  1  1  0
 13  3  1  0
  5  6  1  0
  8  9  1  0
 15 14  1  0
 16 17  1  0
 17 14  1  0
 18 15  2  0
 19 16  1  0
 20 15  1  0
 21 18  1  0
 22 20  2  0
 23 17  2  0
 24 19  2  0
 25 14  1  0
 26 16  1  0
 18 19  1  0
 21 22  1  0
 28 29  1  0
 29 30  1  0
 30 27  1  0
  8 31  1  0
  9 32  1  0
 12 33  1  0
 12 34  1  0
 12 35  1  0
 13 36  1  0
 13 37  1  0
 13 38  1  0
 21 39  1  0
 22 40  1  0
 25 41  1  0
 25 42  1  0
 25 43  1  0
 26 44  1  0
 26 45  1  0
 26 46  1  0
 27 47  1  0
 27 48  1  0
 28 49  1  0
 28 50  1  0
 29 51  1  0
 29 52  1  0
 30 53  1  0
 30 54  1  0
M  END
> <Uni-Dock RESULT> 
ENERGY=   -5.759  LOWER_BOUND=    1.157  UPPER_BOUND=    4.321
INTER + INTRA:          -5.759
INTER:                  -5.759
INTRA:                   0.000
UNBOUND:                 0.000

$$$$

     RDKit          3D

 54 55  0  0  0  0  0  0  0  0999 V2000
   45.0000    7.0588   12.2089 N   0  0  0  0  0  0  0  0  0  0  0  0
   45.2337    8.4081   12.1045 C   0  0  0  0  0  0  0  0  0  0  0  0
   47.0236    6.9074   13.4866 N   0  0  0  0  0  0  0  0  0  0  0  0
   45.9049    6.2620   12.9147 C   0  0  0  0  0  0  0  0  0  0  0  0
   46.3244    8.9874   12.6713 C   0  0  0  0  0  0  0  0  0  0  0  0
   47.3028    8.2739   13.4072 C   0  0  0  0  0  0  0  0  0  0  0  0
   44.4582    9.3217   11.4571 N   0  0  0  0  0  0  0  0  0  0  0  0
   46.2312   10.3139   12.3693 N   0  0  0  0  0  0  0  0  0  0  0  0
   45.0849   10.4685   11.6328 C   0  0  0  0  0  0  0  0  0  0  0  0
   45.7434    5.0443   13.0393 O   0  0  0  0  0  0  0  0  0  0  0  0
   48.2771    8.8264   13.9070 O   0  0  0  0  0  0  0  0  0  0  0  0
   43.8245    6.4736   11.5908 C   0  0  0  0  0  0  0  0  0  0  0  0
   47.9496    6.0625   14.2143 C   0  0  0  0  0  0  0  0  0  0  0  0
   46.9159    7.5220   13.4641 N   0  0  0  0  0  0  0  0  0  0  0  0
   46.0112    6.5665   13.0703 C   0  0  0  0  0  0  0  0  0  0  0  0
   45.6217    9.1162   12.2256 N   0  0  0  0  0  0  0  0  0  0  0  0
   46.7400    8.8427   13.0439 C   0  0  0  0  0  0  0  0  0  0  0  0
   44.9487    6.8749   12.2815 C   0  0  0  0  0  0  0  0  0  0  0  0
   44.6766    8.1794   11.8001 C   0  0  0  0  0  0  0  0  0  0  0  0
   46.0345    5.2423   13.3879 N   0  0  0  0  0  0  0  0  0  0  0  0
   44.2791    5.7014   12.0964 N   0  0  0  0  0  0  0  0  0  0  0  0
   44.9742    4.7408   12.7854 C   0  0  0  0  0  0  0  0  0  0  0  0
   47.5227    9.7407   13.3684 O   0  0  0  0  0  0  0  0  0  0  0  0
   43.7081    8.4257   11.0891 O   0  0  0  0  0  0  0  0  0  0  0  0
   48.0396    7.1570   14.3070 C   0  0  0  0  0  0  0  0  0  0  0  0
   45.4580   10.4924   11.8011 C   0  0  0  0  0  0  0  0  0  0  0  0
   44.6871    8.9640   12.5166 N   0  0  0  0  0  0  0  0  0  0  0  0
   47.4799    6.4495   12.9321 N   0  0  0  0  0  0  0  0  0  0  0  0
   46.7963    7.7420   12.9925 C   0  0  0  0  0  0  0  0  0  0  0  0
   45.3554    7.6671   12.4562 C   0  0  0  0  0  0  0  0  0  0  0  0
   46.8851   11.0378   12.6396 H   0  0  0  0  0  0  0  0  0  0  0  0
   44.7635   11.4313   11.2568 H   0  0  0  0  0  0  0  0  0  0  0  0
   42.9288    6.9375   12.0161 H   0  0  0  0  0  0  0  0  0  0  0  0
   43.7710    5.3946   11.7567 H   0  0  0  0  0  0  0  0  0  0  0  0
   43.8575    6.6603   10.5126 H   0  0  0  0  0  0  0  0  0  0  0  0
   47.4133    5.5678   15.0308 H   0  0  0  0  0  0  0  0  0  0  0  0
   48.3354    5.2926   13.5379 H   0  0  0  0  0  0  0  0  0  0  0  0
   48.7906    6.6227   14.6304 H   0  0  0  0  0  0  0  0  0  0  0  0
   43.4341    5.5722   11.5545 H   0  0  0  0  0  0  0  0  0  0  0  0
   44.6611    3.7049   12.8098 H   0  0  0  0  0  0  0  0  0  0  0  0
   48.6721    8.0179   14.5384 H   0  0  0  0  0  0  0  0  0  0  0  0
   47.6612    6.7390   15.2452 H   0  0  0  0  0  0  0  0  0  0  0  0
   48.6457    6.4070   13.7892 H   0  0  0  0  0  0  0  0  0  0  0  0
   45.3697   11.1299   12.6871 H   0  0  0  0  0  0  0  0  0  0  0  0
   44.5759   10.6354   11.1722 H   0  0  0  0  0  0  0  0  0  0  0  0
   46.3473   10.8002   11.2412 H   0  0  0  0  0  0  0  0  0  0  0  0
   45.1966    9.6400   11.9481 H   0  0  0  0  0  0  0  0  0  0  0  0
   43.7586    8.8857   12.1035 H   0  0  0  0  0  0  0  0  0  0  0  0
   46.9690    5.7722   13.4977 H   0  0  0  0  0  0  0  0  0  0  0  0
   47.4605    6.0949   11.9772 H   0  0  0  0  0  0  0  0  0  0  0  0
   47.3747    8.4684   12.4105 H   0  0  0  0  0  0  0  0  0  0  0  0
   46.7930    8.0895   14.0319 H   0  0  0  0  0  0  0  0  0  0  0  0
   45.3616    7.3168   11.4176 H   0  0  0  0  0  0  0  0  0  0  0  0
   44.7777    6.9454   13.0444 H   0  0  0  0  0  0  0  0  0  0  0  0
  2  1  1  0
  3  4  1  0
  4  1  1  0
  5  2  2  0
  6  3  1  0
  7  2  1  0
  8  5  1  0
  9  7  2  0
 10  4  2  0
 11  6  2  0
 12  1  1  0
 13  3  1  0
  5  6  1  0
  8  9  1  0
 15 14  1  0
 16 17  1  0
 17 14  1  0
 18 15  2  0
 19 16  1  0
 20 15  1  0
 21 18  1  0
 22 20  2  0
 23 17  2  0
 24 19  2  0
 25 14  1  0
 26 16  1  0
 18 19  1  0
 21 22  1  0
 28 29  1  0
 29 30  1  0
 30 27  1  0
  8 31  1  0
  9 32  1  0
 12 33  1  0
 12 34  1  0
 12 35  1  0
 13 36  1  0
 13 37  1  0
 13 38  1  0
 21 39  1  0
 22 40  1  0
 25 41  1  0
 25 42  1  0
 25 43  1  0
 26 44  1  0
 26 45  1  0
 26 46  1  0
 27 47  1  0
 27 48  1  0
 28 49  1  0
 28 50  1  0
 29 51  1  0
 29 52  1  0
 30 53  1  0
 30 54  1  0
M  END
> <Uni-Dock RESULT> 
ENERGY=   -5.523  LOWER_BOUND=    1.281  UPPER_BOUND=    3.443
INTER + INTRA:          -5.523
INTER:                  -5.523
INTRA:                   0.000
UNBOUND:                 0.000

$$$$

     RDKit          3D

 54 55  0  0  0  0  0  0  0  0999 V2000
   45.5618    6.3115   12.7312 N   0  0  0  0  0  0  0  0  0  0  0  0
   46.7327    6.6212   13.3790 C   0  0  0  0  0  0  0  0  0  0  0  0
   45.3481    8.6427   12.2115 N   0  0  0  0  0  0  0  0  0  0  0  0
   44.8286    7.3324   12.1214 C   0  0  0  0  0  0  0  0  0  0  0  0
   47.1955    7.8973   13.4409 C   0  0  0  0  0  0  0  0  0  0  0  0
   46.5322    9.0055   12.8581 C   0  0  0  0  0  0  0  0  0  0  0  0
   47.5629    5.7533   14.0211 N   0  0  0  0  0  0  0  0  0  0  0  0
   48.3595    7.8292   14.1481 N   0  0  0  0  0  0  0  0  0  0  0  0
   48.5408    6.5106   14.4782 C   0  0  0  0  0  0  0  0  0  0  0  0
   43.7700    7.1098   11.5262 O   0  0  0  0  0  0  0  0  0  0  0  0
   46.9762   10.1464   12.9317 O   0  0  0  0  0  0  0  0  0  0  0  0
   45.0972    4.9374   12.6847 C   0  0  0  0  0  0  0  0  0  0  0  0
   44.5719    9.6865   11.5720 C   0  0  0  0  0  0  0  0  0  0  0  0
   45.9365    8.5963   12.4153 N   0  0  0  0  0  0  0  0  0  0  0  0
   45.1338    7.5195   12.1277 C   0  0  0  0  0  0  0  0  0  0  0  0
   47.3400    7.0946   13.6504 N   0  0  0  0  0  0  0  0  0  0  0  0
   47.0787    8.4066   13.1971 C   0  0  0  0  0  0  0  0  0  0  0  0
   45.4239    6.2736   12.5855 C   0  0  0  0  0  0  0  0  0  0  0  0
   46.5543    5.9705   13.3842 C   0  0  0  0  0  0  0  0  0  0  0  0
   43.9921    7.5297   11.3852 N   0  0  0  0  0  0  0  0  0  0  0  0
   44.4279    5.4705   12.1134 N   0  0  0  0  0  0  0  0  0  0  0  0
   43.5842    6.2757   11.3920 C   0  0  0  0  0  0  0  0  0  0  0  0
   47.8345    9.3392   13.4855 O   0  0  0  0  0  0  0  0  0  0  0  0
   46.7887    4.8343   13.7821 O   0  0  0  0  0  0  0  0  0  0  0  0
   45.5962    9.9135   11.9097 C   0  0  0  0  0  0  0  0  0  0  0  0
   48.5297    6.9201   14.4597 C   0  0  0  0  0  0  0  0  0  0  0  0
   47.4925    6.3304   13.0388 N   0  0  0  0  0  0  0  0  0  0  0  0
   44.6574    8.8062   12.6821 N   0  0  0  0  0  0  0  0  0  0  0  0
   46.0282    8.3292   12.8684 C   0  0  0  0  0  0  0  0  0  0  0  0
   46.1210    6.7929   12.8460 C   0  0  0  0  0  0  0  0  0  0  0  0
   48.9664    8.6053   14.3802 H   0  0  0  0  0  0  0  0  0  0  0  0
   49.3959    6.1682   15.0468 H   0  0  0  0  0  0  0  0  0  0  0  0
   45.8532    4.3213   12.1874 H   0  0  0  0  0  0  0  0  0  0  0  0
   44.1556    4.8436   12.1377 H   0  0  0  0  0  0  0  0  0  0  0  0
   44.9449    4.5769   13.7071 H   0  0  0  0  0  0  0  0  0  0  0  0
   44.4728    9.4540   10.5066 H   0  0  0  0  0  0  0  0  0  0  0  0
   43.5710    9.7078   12.0156 H   0  0  0  0  0  0  0  0  0  0  0  0
   45.0281   10.6738   11.6787 H   0  0  0  0  0  0  0  0  0  0  0  0
   44.3359    4.4747   12.2693 H   0  0  0  0  0  0  0  0  0  0  0  0
   42.6986    5.8938   10.9005 H   0  0  0  0  0  0  0  0  0  0  0  0
   46.3236   10.6689   12.2179 H   0  0  0  0  0  0  0  0  0  0  0  0
   45.5691    9.8801   10.8159 H   0  0  0  0  0  0  0  0  0  0  0  0
   44.6115   10.1997   12.2925 H   0  0  0  0  0  0  0  0  0  0  0  0
   49.4032    7.2388   13.8815 H   0  0  0  0  0  0  0  0  0  0  0  0
   48.6731    5.8842   14.7768 H   0  0  0  0  0  0  0  0  0  0  0  0
   48.4523    7.5561   15.3477 H   0  0  0  0  0  0  0  0  0  0  0  0
   47.8392    6.6505   13.9427 H   0  0  0  0  0  0  0  0  0  0  0  0
   47.5044    5.3118   13.0730 H   0  0  0  0  0  0  0  0  0  0  0  0
   44.3088    8.4836   11.7799 H   0  0  0  0  0  0  0  0  0  0  0  0
   44.0502    8.3905   13.3867 H   0  0  0  0  0  0  0  0  0  0  0  0
   46.4025    8.7126   13.8244 H   0  0  0  0  0  0  0  0  0  0  0  0
   46.6588    8.7554   12.0799 H   0  0  0  0  0  0  0  0  0  0  0  0
   45.4874    6.3694   13.6338 H   0  0  0  0  0  0  0  0  0  0  0  0
   45.7527    6.4130   11.8866 H   0  0  0  0  0  0  0  0  0  0  0  0
  2  1  1  0
  3  4  1  0
  4  1  1  0
  5  2  2  0
  6  3  1  0
  7  2  1  0
  8  5  1  0
  9  7  2  0
 10  4  2  0
 11  6  2  0
 12  1  1  0
 13  3  1  0
  5  6  1  0
  8  9  1  0
 15 14  1  0
 16 17  1  0
 17 14  1  0
 18 15  2  0
 19 16  1  0
 20 15  1  0
 21 18  1  0
 22 20  2  0
 23 17  2  0
 24 19  2  0
 25 14  1  0
 26 16  1  0
 18 19  1  0
 21 22  1  0
 28 29  1  0
 29 30  1  0
 30 27  1  0
  8 31  1  0
  9 32  1  0
 12 33  1  0
 12 34  1  0
 12 35  1  0
 13 36  1  0
 13 37  1  0
 13 38  1  0
 21 39  1  0
 22 40  1  0
 25 41  1  0
 25 42  1  0
 25 43  1  0
 26 44  1  0
 26 45  1  0
 26 46  1  0
 27 47  1  0
 27 48  1  0
 28 49  1  0
 28 50  1  0
 29 51  1  0
 29 52  1  0
 30 53  1  0
 30 54  1  0
M  END
> <Uni-Dock RESULT> 
ENERGY=   -5.388  LOWER_BOUND=    1.215  UPPER_BOUND=    3.990
INTER + INTRA:          -5.388
INTER:                  -5.388
INTRA:                   0.000
UNBOUND:                 0.000

$$$$
