
     RDKit          3D

 54 55  0  0  0  0  0  0  0  0999 V2000
   46.3401    5.1127   13.3541 N   0  0  0  0  0  0  0  0  0  0  0  0
   45.0062    5.1967   13.0376 C   0  0  0  0  0  0  0  0  0  0  0  0
   46.5648    7.3716   12.5813 N   0  0  0  0  0  0  0  0  0  0  0  0
   47.1630    6.2218   13.1425 C   0  0  0  0  0  0  0  0  0  0  0  0
   44.4681    6.3320   12.5197 C   0  0  0  0  0  0  0  0  0  0  0  0
   45.2120    7.5098   12.2606 C   0  0  0  0  0  0  0  0  0  0  0  0
   44.0697    4.2194   13.1881 N   0  0  0  0  0  0  0  0  0  0  0  0
   43.1445    6.0586   12.3383 N   0  0  0  0  0  0  0  0  0  0  0  0
   42.9506    4.7670   12.7564 C   0  0  0  0  0  0  0  0  0  0  0  0
   48.3630    6.2085   13.4324 O   0  0  0  0  0  0  0  0  0  0  0  0
   44.6935    8.5252   11.8085 O   0  0  0  0  0  0  0  0  0  0  0  0
   46.8776    3.8907   13.9237 C   0  0  0  0  0  0  0  0  0  0  0  0
   47.4347    8.5115   12.3686 C   0  0  0  0  0  0  0  0  0  0  0  0
   46.3539    5.1369   13.3840 N   0  0  0  0  0  0  0  0  0  0  0  0
   45.1751    5.0897   12.6805 C   0  0  0  0  0  0  0  0  0  0  0  0
   46.3462    7.5108   13.0453 N   0  0  0  0  0  0  0  0  0  0  0  0
   46.9786    6.3699   13.5870 C   0  0  0  0  0  0  0  0  0  0  0  0
   44.6028    6.2137   12.1749 C   0  0  0  0  0  0  0  0  0  0  0  0
   45.1519    7.5117   12.3206 C   0  0  0  0  0  0  0  0  0  0  0  0
   44.4401    3.9791   12.3957 N   0  0  0  0  0  0  0  0  0  0  0  0
   43.4660    5.7943   11.5491 N   0  0  0  0  0  0  0  0  0  0  0  0
   43.4096    4.4335   11.7096 C   0  0  0  0  0  0  0  0  0  0  0  0
   48.0385    6.4695   14.2121 O   0  0  0  0  0  0  0  0  0  0  0  0
   44.6121    8.5071   11.8490 O   0  0  0  0  0  0  0  0  0  0  0  0
   46.9366    3.9166   13.9107 C   0  0  0  0  0  0  0  0  0  0  0  0
   47.0115    8.7795   13.2668 C   0  0  0  0  0  0  0  0  0  0  0  0
   46.2507    7.6765   13.2827 N   0  0  0  0  0  0  0  0  0  0  0  0
   44.4331    5.5054   13.1753 N   0  0  0  0  0  0  0  0  0  0  0  0
   45.6570    5.4419   12.3665 C   0  0  0  0  0  0  0  0  0  0  0  0
   46.7640    6.3439   12.9454 C   0  0  0  0  0  0  0  0  0  0  0  0
   42.4469    6.6909   11.9665 H   0  0  0  0  0  0  0  0  0  0  0  0
   41.9812    4.2868   12.7224 H   0  0  0  0  0  0  0  0  0  0  0  0
   46.6721    3.0569   13.2450 H   0  0  0  0  0  0  0  0  0  0  0  0
   46.3945    3.7059   14.8885 H   0  0  0  0  0  0  0  0  0  0  0  0
   47.9575    3.9547   14.0802 H   0  0  0  0  0  0  0  0  0  0  0  0
   48.3172    8.1956   11.8026 H   0  0  0  0  0  0  0  0  0  0  0  0
   46.9382    9.3195   11.8252 H   0  0  0  0  0  0  0  0  0  0  0  0
   47.7640    8.8863   13.3431 H   0  0  0  0  0  0  0  0  0  0  0  0
   42.7983    6.3796   11.0631 H   0  0  0  0  0  0  0  0  0  0  0  0
   42.6014    3.8359   11.3078 H   0  0  0  0  0  0  0  0  0  0  0  0
   46.2324    3.4589   14.6123 H   0  0  0  0  0  0  0  0  0  0  0  0
   47.8769    4.1069   14.4345 H   0  0  0  0  0  0  0  0  0  0  0  0
   47.1317    3.2271   13.0833 H   0  0  0  0  0  0  0  0  0  0  0  0
   46.4585    9.6225   12.8449 H   0  0  0  0  0  0  0  0  0  0  0  0
   47.1312    8.9369   14.3438 H   0  0  0  0  0  0  0  0  0  0  0  0
   48.0061    8.7421   12.8104 H   0  0  0  0  0  0  0  0  0  0  0  0
   45.3547    7.5184   13.7587 H   0  0  0  0  0  0  0  0  0  0  0  0
   45.9696    8.1387   12.4177 H   0  0  0  0  0  0  0  0  0  0  0  0
   44.6435    5.1849   14.1210 H   0  0  0  0  0  0  0  0  0  0  0  0
   43.7514    4.8473   12.7987 H   0  0  0  0  0  0  0  0  0  0  0  0
   46.0135    4.4079   12.3120 H   0  0  0  0  0  0  0  0  0  0  0  0
   45.4146    5.7675   11.3489 H   0  0  0  0  0  0  0  0  0  0  0  0
   47.5908    6.4329   12.2334 H   0  0  0  0  0  0  0  0  0  0  0  0
   47.1626    5.8903   13.8598 H   0  0  0  0  0  0  0  0  0  0  0  0
  2  1  1  0
  3  4  1  0
  4  1  1  0
  5  2  2  0
  6  3  1  0
  7  2  1  0
  8  5  1  0
  9  7  2  0
 10  4  2  0
 11  6  2  0
 12  1  1  0
 13  3  1  0
  5  6  1  0
  8  9  1  0
 15 14  1  0
 16 17  1  0
 17 14  1  0
 18 15  2  0
 19 16  1  0
 20 15  1  0
 21 18  1  0
 22 20  2  0
 23 17  2  0
 24 19  2  0
 25 14  1  0
 26 16  1  0
 18 19  1  0
 21 22  1  0
 28 29  1  0
 29 30  1  0
 30 27  1  0
  8 31  1  0
  9 32  1  0
 12 33  1  0
 12 34  1  0
 12 35  1  0
 13 36  1  0
 13 37  1  0
 13 38  1  0
 21 39  1  0
 22 40  1  0
 25 41  1  0
 25 42  1  0
 25 43  1  0
 26 44  1  0
 26 45  1  0
 26 46  1  0
 27 47  1  0
 27 48  1  0
 28 49  1  0
 28 50  1  0
 29 51  1  0
 29 52  1  0
 30 53  1  0
 30 54  1  0
M  END
> <Uni-Dock RESULT> 
ENERGY=   -6.593  LOWER_BOUND=    0.000  UPPER_BOUND=    0.000
INTER + INTRA:          -6.593
INTER:                  -6.593
INTRA:                   0.000
UNBOUND:                 0.000

$$$$

     RDKit          3D

 54 55  0  0  0  0  0  0  0  0999 V2000
   46.1675    4.8149   13.2235 N   0  0  0  0  0  0  0  0  0  0  0  0
   46.7840    5.9841   12.8503 C   0  0  0  0  0  0  0  0  0  0  0  0
   44.1338    5.7169   12.3286 N   0  0  0  0  0  0  0  0  0  0  0  0
   44.8070    4.6447   12.9549 C   0  0  0  0  0  0  0  0  0  0  0  0
   46.1013    6.9816   12.2293 C   0  0  0  0  0  0  0  0  0  0  0  0
   44.7212    6.9152   11.9153 C   0  0  0  0  0  0  0  0  0  0  0  0
   48.0953    6.3066   13.0275 N   0  0  0  0  0  0  0  0  0  0  0  0
   47.0172    7.9673   12.0073 N   0  0  0  0  0  0  0  0  0  0  0  0
   48.2102    7.5135   12.5087 C   0  0  0  0  0  0  0  0  0  0  0  0
   44.2096    3.6044   13.2464 O   0  0  0  0  0  0  0  0  0  0  0  0
   44.1368    7.8261   11.3381 O   0  0  0  0  0  0  0  0  0  0  0  0
   46.9316    3.7625   13.8678 C   0  0  0  0  0  0  0  0  0  0  0  0
   42.7229    5.5219   12.0590 C   0  0  0  0  0  0  0  0  0  0  0  0
   46.1529    4.7910   13.1937 N   0  0  0  0  0  0  0  0  0  0  0  0
   46.6292    6.0791   13.2172 C   0  0  0  0  0  0  0  0  0  0  0  0
   44.3342    5.5930   11.8523 N   0  0  0  0  0  0  0  0  0  0  0  0
   44.9736    4.5120   12.4986 C   0  0  0  0  0  0  0  0  0  0  0  0
   45.9795    7.0896   12.5821 C   0  0  0  0  0  0  0  0  0  0  0  0
   44.7776    6.9177   11.8518 C   0  0  0  0  0  0  0  0  0  0  0  0
   47.7566    6.5198   13.8416 N   0  0  0  0  0  0  0  0  0  0  0  0
   46.7258    8.2069   12.8159 N   0  0  0  0  0  0  0  0  0  0  0  0
   47.7921    7.8124   13.5827 C   0  0  0  0  0  0  0  0  0  0  0  0
   44.5017    3.3725   12.4450 O   0  0  0  0  0  0  0  0  0  0  0  0
   44.2130    7.8517   11.2919 O   0  0  0  0  0  0  0  0  0  0  0  0
   46.8732    3.7360   13.8823 C   0  0  0  0  0  0  0  0  0  0  0  0
   43.1120    5.2816   11.1378 C   0  0  0  0  0  0  0  0  0  0  0  0
   44.3595    5.5407   11.5530 N   0  0  0  0  0  0  0  0  0  0  0  0
   46.9543    6.3685   12.3346 N   0  0  0  0  0  0  0  0  0  0  0  0
   45.9756    6.0355   13.3774 C   0  0  0  0  0  0  0  0  0  0  0  0
   44.8845    5.0864   12.8458 C   0  0  0  0  0  0  0  0  0  0  0  0
   46.8428    8.8582   11.5594 H   0  0  0  0  0  0  0  0  0  0  0  0
   49.1175    8.1020   12.4660 H   0  0  0  0  0  0  0  0  0  0  0  0
   47.4016    4.1615   14.7723 H   0  0  0  0  0  0  0  0  0  0  0  0
   47.7048    3.4110   13.1772 H   0  0  0  0  0  0  0  0  0  0  0  0
   46.3013    2.9144   14.1478 H   0  0  0  0  0  0  0  0  0  0  0  0
   42.2169    5.2054   12.9770 H   0  0  0  0  0  0  0  0  0  0  0  0
   42.2403    6.4286   11.6852 H   0  0  0  0  0  0  0  0  0  0  0  0
   42.6163    4.7274   11.3132 H   0  0  0  0  0  0  0  0  0  0  0  0
   46.5254    9.1420   12.4842 H   0  0  0  0  0  0  0  0  0  0  0  0
   48.5528    8.5060   13.9176 H   0  0  0  0  0  0  0  0  0  0  0  0
   47.8766    3.6507   13.4541 H   0  0  0  0  0  0  0  0  0  0  0  0
   46.3703    2.7702   13.7877 H   0  0  0  0  0  0  0  0  0  0  0  0
   46.9473    3.9880   14.9450 H   0  0  0  0  0  0  0  0  0  0  0  0
   42.6826    6.1550   10.6407 H   0  0  0  0  0  0  0  0  0  0  0  0
   43.3232    4.5136   10.3864 H   0  0  0  0  0  0  0  0  0  0  0  0
   42.3802    4.8798   11.8464 H   0  0  0  0  0  0  0  0  0  0  0  0
   45.1797    5.8132   10.9986 H   0  0  0  0  0  0  0  0  0  0  0  0
   43.8784    6.4287   11.6981 H   0  0  0  0  0  0  0  0  0  0  0  0
   47.4055    5.5101   12.0168 H   0  0  0  0  0  0  0  0  0  0  0  0
   47.6923    6.9419   12.7423 H   0  0  0  0  0  0  0  0  0  0  0  0
   46.4838    5.5736   14.2304 H   0  0  0  0  0  0  0  0  0  0  0  0
   45.5134    6.9658   13.7257 H   0  0  0  0  0  0  0  0  0  0  0  0
   44.0682    5.0041   13.5706 H   0  0  0  0  0  0  0  0  0  0  0  0
   45.3076    4.0849   12.7093 H   0  0  0  0  0  0  0  0  0  0  0  0
  2  1  1  0
  3  4  1  0
  4  1  1  0
  5  2  2  0
  6  3  1  0
  7  2  1  0
  8  5  1  0
  9  7  2  0
 10  4  2  0
 11  6  2  0
 12  1  1  0
 13  3  1  0
  5  6  1  0
  8  9  1  0
 15 14  1  0
 16 17  1  0
 17 14  1  0
 18 15  2  0
 19 16  1  0
 20 15  1  0
 21 18  1  0
 22 20  2  0
 23 17  2  0
 24 19  2  0
 25 14  1  0
 26 16  1  0
 18 19  1  0
 21 22  1  0
 28 29  1  0
 29 30  1  0
 30 27  1  0
  8 31  1  0
  9 32  1  0
 12 33  1  0
 12 34  1  0
 12 35  1  0
 13 36  1  0
 13 37  1  0
 13 38  1  0
 21 39  1  0
 22 40  1  0
 25 41  1  0
 25 42  1  0
 25 43  1  0
 26 44  1  0
 26 45  1  0
 26 46  1  0
 27 47  1  0
 27 48  1  0
 28 49  1  0
 28 50  1  0
 29 51  1  0
 29 52  1  0
 30 53  1  0
 30 54  1  0
M  END
> <Uni-Dock RESULT> 
ENERGY=   -6.008  LOWER_BOUND=    1.563  UPPER_BOUND=    3.346
INTER + INTRA:          -6.008
INTER:                  -6.008
INTRA:                   0.000
UNBOUND:                 0.000

$$$$

     RDKit          3D

 54 55  0  0  0  0  0  0  0  0999 V2000
   45.0130    7.3608   12.0452 N   0  0  0  0  0  0  0  0  0  0  0  0
   44.4960    6.0920   11.9489 C   0  0  0  0  0  0  0  0  0  0  0  0
   46.7644    6.4382   13.3987 N   0  0  0  0  0  0  0  0  0  0  0  0
   46.1874    7.5658   12.7738 C   0  0  0  0  0  0  0  0  0  0  0  0
   45.0974    5.0313   12.5489 C   0  0  0  0  0  0  0  0  0  0  0  0
   46.2858    5.1283   13.3143 C   0  0  0  0  0  0  0  0  0  0  0  0
   43.3728    5.7185   11.2752 N   0  0  0  0  0  0  0  0  0  0  0  0
   44.3242    3.9511   12.2406 N   0  0  0  0  0  0  0  0  0  0  0  0
   43.2909    4.4167   11.4685 C   0  0  0  0  0  0  0  0  0  0  0  0
   46.7081    8.6809   12.8716 O   0  0  0  0  0  0  0  0  0  0  0  0
   46.8144    4.1487   13.8293 O   0  0  0  0  0  0  0  0  0  0  0  0
   44.3551    8.4677   11.3756 C   0  0  0  0  0  0  0  0  0  0  0  0
   47.9817    6.6711   14.1505 C   0  0  0  0  0  0  0  0  0  0  0  0
   45.0496    7.3676   12.0282 N   0  0  0  0  0  0  0  0  0  0  0  0
   44.3358    6.2261   12.3009 C   0  0  0  0  0  0  0  0  0  0  0  0
   46.9729    6.2646   12.9417 N   0  0  0  0  0  0  0  0  0  0  0  0
   46.4089    7.4151   12.3474 C   0  0  0  0  0  0  0  0  0  0  0  0
   44.9198    5.1423   12.8761 C   0  0  0  0  0  0  0  0  0  0  0  0
   46.2875    5.0848   13.2414 C   0  0  0  0  0  0  0  0  0  0  0  0
   43.0134    6.0135   12.0542 N   0  0  0  0  0  0  0  0  0  0  0  0
   43.9278    4.2140   12.9955 N   0  0  0  0  0  0  0  0  0  0  0  0
   42.7915    4.7867   12.4841 C   0  0  0  0  0  0  0  0  0  0  0  0
   47.0972    8.4152   12.1236 O   0  0  0  0  0  0  0  0  0  0  0  0
   46.7843    4.0918   13.7626 O   0  0  0  0  0  0  0  0  0  0  0  0
   44.3939    8.5062   11.4122 C   0  0  0  0  0  0  0  0  0  0  0  0
   48.3840    6.3357   13.2655 C   0  0  0  0  0  0  0  0  0  0  0  0
   47.1669    6.1490   12.7370 N   0  0  0  0  0  0  0  0  0  0  0  0
   44.6071    5.4750   11.7259 N   0  0  0  0  0  0  0  0  0  0  0  0
   44.6990    6.4432   12.8261 C   0  0  0  0  0  0  0  0  0  0  0  0
   46.0796    7.1262   12.8637 C   0  0  0  0  0  0  0  0  0  0  0  0
   44.4873    2.9947   12.5295 H   0  0  0  0  0  0  0  0  0  0  0  0
   42.5186    3.7651   11.0808 H   0  0  0  0  0  0  0  0  0  0  0  0
   43.3191    8.5335   11.7227 H   0  0  0  0  0  0  0  0  0  0  0  0
   44.3695    8.2889   10.2957 H   0  0  0  0  0  0  0  0  0  0  0  0
   44.8518    9.4200   11.5787 H   0  0  0  0  0  0  0  0  0  0  0  0
   47.8211    7.4902   14.8591 H   0  0  0  0  0  0  0  0  0  0  0  0
   48.3066    5.7858   14.7031 H   0  0  0  0  0  0  0  0  0  0  0  0
   48.7721    6.9665   13.4529 H   0  0  0  0  0  0  0  0  0  0  0  0
   44.0201    3.2848   13.3864 H   0  0  0  0  0  0  0  0  0  0  0  0
   41.8435    4.2651   12.4531 H   0  0  0  0  0  0  0  0  0  0  0  0
   43.9994    8.2060   10.4365 H   0  0  0  0  0  0  0  0  0  0  0  0
   45.0814    9.3436   11.2679 H   0  0  0  0  0  0  0  0  0  0  0  0
   43.5719    8.8368   12.0551 H   0  0  0  0  0  0  0  0  0  0  0  0
   48.7625    5.4062   13.6983 H   0  0  0  0  0  0  0  0  0  0  0  0
   48.9489    6.5588   12.3543 H   0  0  0  0  0  0  0  0  0  0  0  0
   48.5430    7.1510   13.9789 H   0  0  0  0  0  0  0  0  0  0  0  0
   46.8816    5.5095   11.9859 H   0  0  0  0  0  0  0  0  0  0  0  0
   47.1550    5.5493   13.5623 H   0  0  0  0  0  0  0  0  0  0  0  0
   44.7450    5.9643   10.8411 H   0  0  0  0  0  0  0  0  0  0  0  0
   43.6611    5.0958   11.6952 H   0  0  0  0  0  0  0  0  0  0  0  0
   43.9148    7.2003   12.7216 H   0  0  0  0  0  0  0  0  0  0  0  0
   44.5282    5.9110   13.7685 H   0  0  0  0  0  0  0  0  0  0  0  0
   46.1961    7.6939   13.7924 H   0  0  0  0  0  0  0  0  0  0  0  0
   46.1586    7.8343   12.0312 H   0  0  0  0  0  0  0  0  0  0  0  0
  2  1  1  0
  3  4  1  0
  4  1  1  0
  5  2  2  0
  6  3  1  0
  7  2  1  0
  8  5  1  0
  9  7  2  0
 10  4  2  0
 11  6  2  0
 12  1  1  0
 13  3  1  0
  5  6  1  0
  8  9  1  0
 15 14  1  0
 16 17  1  0
 17 14  1  0
 18 15  2  0
 19 16  1  0
 20 15  1  0
 21 18  1  0
 22 20  2  0
 23 17  2  0
 24 19  2  0
 25 14  1  0
 26 16  1  0
 18 19  1  0
 21 22  1  0
 28 29  1  0
 29 30  1  0
 30 27  1  0
  8 31  1  0
  9 32  1  0
 12 33  1  0
 12 34  1  0
 12 35  1  0
 13 36  1  0
 13 37  1  0
 13 38  1  0
 21 39  1  0
 22 40  1  0
 25 41  1  0
 25 42  1  0
 25 43  1  0
 26 44  1  0
 26 45  1  0
 26 46  1  0
 27 47  1  0
 27 48  1  0
 28 49  1  0
 28 50  1  0
 29 51  1  0
 29 52  1  0
 30 53  1  0
 30 54  1  0
M  END
> <Uni-Dock RESULT> 
ENERGY=   -5.972  LOWER_BOUND=    1.314  UPPER_BOUND=    2.839
INTER + INTRA:          -5.972
INTER:                  -5.972
INTRA:                   0.000
UNBOUND:                 0.000

$$$$

     RDKit          3D

 54 55  0  0  0  0  0  0  0  0999 V2000
   44.8362    7.1221   11.9423 N   0  0  0  0  0  0  0  0  0  0  0  0
   45.9855    7.0433   12.6902 C   0  0  0  0  0  0  0  0  0  0  0  0
   44.6416    4.7430   12.1707 N   0  0  0  0  0  0  0  0  0  0  0  0
   44.1168    5.9555   11.6713 C   0  0  0  0  0  0  0  0  0  0  0  0
   46.4422    5.8566   13.1698 C   0  0  0  0  0  0  0  0  0  0  0  0
   45.7945    4.6158   12.9495 C   0  0  0  0  0  0  0  0  0  0  0  0
   46.7954    8.0770   13.0513 N   0  0  0  0  0  0  0  0  0  0  0  0
   47.5809    6.1553   13.8582 N   0  0  0  0  0  0  0  0  0  0  0  0
   47.7549    7.5118   13.7576 C   0  0  0  0  0  0  0  0  0  0  0  0
   43.0648    5.9730   11.0254 O   0  0  0  0  0  0  0  0  0  0  0  0
   46.2227    3.5631   13.4108 O   0  0  0  0  0  0  0  0  0  0  0  0
   44.3669    8.4089   11.4622 C   0  0  0  0  0  0  0  0  0  0  0  0
   43.8818    3.5436   11.8785 C   0  0  0  0  0  0  0  0  0  0  0  0
   44.8010    7.1121   11.9607 N   0  0  0  0  0  0  0  0  0  0  0  0
   46.1209    6.9656   12.3118 C   0  0  0  0  0  0  0  0  0  0  0  0
   44.4651    4.8437   12.6618 N   0  0  0  0  0  0  0  0  0  0  0  0
   43.9262    6.0362   12.1302 C   0  0  0  0  0  0  0  0  0  0  0  0
   46.5969    5.7979   12.8182 C   0  0  0  0  0  0  0  0  0  0  0  0
   45.7986    4.6464   13.0286 C   0  0  0  0  0  0  0  0  0  0  0  0
   47.0997    7.9075   12.2136 N   0  0  0  0  0  0  0  0  0  0  0  0
   47.9240    6.0136   13.0468 N   0  0  0  0  0  0  0  0  0  0  0  0
   48.1824    7.3053   12.6657 C   0  0  0  0  0  0  0  0  0  0  0  0
   42.7308    6.1138   11.8317 O   0  0  0  0  0  0  0  0  0  0  0  0
   46.2594    3.6053   13.4848 O   0  0  0  0  0  0  0  0  0  0  0  0
   44.3266    8.3741   11.4236 C   0  0  0  0  0  0  0  0  0  0  0  0
   43.5405    3.7399   12.8286 C   0  0  0  0  0  0  0  0  0  0  0  0
   44.3406    4.8092   12.9379 N   0  0  0  0  0  0  0  0  0  0  0  0
   46.2371    6.8857   13.2857 N   0  0  0  0  0  0  0  0  0  0  0  0
   45.8935    6.4648   11.9215 C   0  0  0  0  0  0  0  0  0  0  0  0
   44.5043    5.8004   11.8683 C   0  0  0  0  0  0  0  0  0  0  0  0
   48.1768    5.4980   14.3456 H   0  0  0  0  0  0  0  0  0  0  0  0
   48.5908    8.0239   14.2163 H   0  0  0  0  0  0  0  0  0  0  0  0
   45.1536    8.8777   10.8626 H   0  0  0  0  0  0  0  0  0  0  0  0
   44.1327    9.0450   12.3217 H   0  0  0  0  0  0  0  0  0  0  0  0
   43.4700    8.3111   10.8451 H   0  0  0  0  0  0  0  0  0  0  0  0
   43.6867    3.4890   10.8025 H   0  0  0  0  0  0  0  0  0  0  0  0
   44.4023    2.6340   12.1889 H   0  0  0  0  0  0  0  0  0  0  0  0
   42.9219    3.6019   12.4020 H   0  0  0  0  0  0  0  0  0  0  0  0
   48.5836    5.3453   13.4249 H   0  0  0  0  0  0  0  0  0  0  0  0
   49.1687    7.7451   12.7406 H   0  0  0  0  0  0  0  0  0  0  0  0
   44.4877    9.1612   12.1666 H   0  0  0  0  0  0  0  0  0  0  0  0
   43.2620    8.3383   11.1786 H   0  0  0  0  0  0  0  0  0  0  0  0
   44.8865    8.6084   10.5126 H   0  0  0  0  0  0  0  0  0  0  0  0
   44.0146    2.8580   13.2664 H   0  0  0  0  0  0  0  0  0  0  0  0
   42.7169    4.0585   13.4762 H   0  0  0  0  0  0  0  0  0  0  0  0
   43.1274    3.4731   11.8502 H   0  0  0  0  0  0  0  0  0  0  0  0
   44.7159    5.2493   13.7863 H   0  0  0  0  0  0  0  0  0  0  0  0
   44.9964    4.0461   12.7690 H   0  0  0  0  0  0  0  0  0  0  0  0
   45.5464    7.5646   13.6072 H   0  0  0  0  0  0  0  0  0  0  0  0
   47.1299    7.3777   13.2667 H   0  0  0  0  0  0  0  0  0  0  0  0
   45.9160    7.3288   11.2490 H   0  0  0  0  0  0  0  0  0  0  0  0
   46.6528    5.7530   11.5791 H   0  0  0  0  0  0  0  0  0  0  0  0
   44.3486    5.3257   10.8942 H   0  0  0  0  0  0  0  0  0  0  0  0
   43.7295    6.5656   11.9908 H   0  0  0  0  0  0  0  0  0  0  0  0
  2  1  1  0
  3  4  1  0
  4  1  1  0
  5  2  2  0
  6  3  1  0
  7  2  1  0
  8  5  1  0
  9  7  2  0
 10  4  2  0
 11  6  2  0
 12  1  1  0
 13  3  1  0
  5  6  1  0
  8  9  1  0
 15 14  1  0
 16 17  1  0
 17 14  1  0
 18 15  2  0
 19 16  1  0
 20 15  1  0
 21 18  1  0
 22 20  2  0
 23 17  2  0
 24 19  2  0
 25 14  1  0
 26 16  1  0
 18 19  1  0
 21 22  1  0
 28 29  1  0
 29 30  1  0
 30 27  1  0
  8 31  1  0
  9 32  1  0
 12 33  1  0
 12 34  1  0
 12 35  1  0
 13 36  1  0
 13 37  1  0
 13 38  1  0
 21 39  1  0
 22 40  1  0
 25 41  1  0
 25 42  1  0
 25 43  1  0
 26 44  1  0
 26 45  1  0
 26 46  1  0
 27 47  1  0
 27 48  1  0
 28 49  1  0
 28 50  1  0
 29 51  1  0
 29 52  1  0
 30 53  1  0
 30 54  1  0
M  END
> <Uni-Dock RESULT> 
ENERGY=   -5.966  LOWER_BOUND=    1.597  UPPER_BOUND=    4.254
INTER + INTRA:          -5.966
INTER:                  -5.966
INTRA:                   0.000
UNBOUND:                 0.000

$$$$

     RDKit          3D

 54 55  0  0  0  0  0  0  0  0999 V2000
   44.0855    3.0554   10.8777 N   0  0  0  0  0  0  0  0  0  0  0  0
   44.5426    4.2585   11.3575 C   0  0  0  0  0  0  0  0  0  0  0  0
   45.0342    3.6522    8.7578 N   0  0  0  0  0  0  0  0  0  0  0  0
   44.3363    2.7114    9.5470 C   0  0  0  0  0  0  0  0  0  0  0  0
   45.2301    5.1245   10.5674 C   0  0  0  0  0  0  0  0  0  0  0  0
   45.5334    4.8779    9.2055 C   0  0  0  0  0  0  0  0  0  0  0  0
   44.3936    4.7413   12.6222 N   0  0  0  0  0  0  0  0  0  0  0  0
   45.5246    6.1908   11.3649 N   0  0  0  0  0  0  0  0  0  0  0  0
   44.9968    5.9137   12.5999 C   0  0  0  0  0  0  0  0  0  0  0  0
   43.9697    1.6325    9.0719 O   0  0  0  0  0  0  0  0  0  0  0  0
   46.1714    5.6724    8.5228 O   0  0  0  0  0  0  0  0  0  0  0  0
   43.3712    2.1460   11.7549 C   0  0  0  0  0  0  0  0  0  0  0  0
   45.2842    3.2777    7.3800 C   0  0  0  0  0  0  0  0  0  0  0  0
   44.1134    3.0279   10.8661 N   0  0  0  0  0  0  0  0  0  0  0  0
   44.1828    4.3607   11.1912 C   0  0  0  0  0  0  0  0  0  0  0  0
   45.5014    3.5188    8.9733 N   0  0  0  0  0  0  0  0  0  0  0  0
   44.7826    2.5668    9.7298 C   0  0  0  0  0  0  0  0  0  0  0  0
   44.8853    5.2424   10.4324 C   0  0  0  0  0  0  0  0  0  0  0  0
   45.5972    4.8824    9.2615 C   0  0  0  0  0  0  0  0  0  0  0  0
   43.5954    4.9711   12.2576 N   0  0  0  0  0  0  0  0  0  0  0  0
   44.7339    6.4518   11.0443 N   0  0  0  0  0  0  0  0  0  0  0  0
   43.9450    6.2377   12.1455 C   0  0  0  0  0  0  0  0  0  0  0  0
   44.7539    1.3797    9.3923 O   0  0  0  0  0  0  0  0  0  0  0  0
   46.2195    5.7033    8.5958 O   0  0  0  0  0  0  0  0  0  0  0  0
   43.3547    2.1140   11.6999 C   0  0  0  0  0  0  0  0  0  0  0  0
   46.1875    3.0193    7.7982 C   0  0  0  0  0  0  0  0  0  0  0  0
   45.7963    3.4487    9.0057 N   0  0  0  0  0  0  0  0  0  0  0  0
   45.0849    4.6225   11.4847 N   0  0  0  0  0  0  0  0  0  0  0  0
   44.0175    4.2537   10.5462 C   0  0  0  0  0  0  0  0  0  0  0  0
   44.4767    3.1503    9.5737 C   0  0  0  0  0  0  0  0  0  0  0  0
   46.0336    7.0218   11.0912 H   0  0  0  0  0  0  0  0  0  0  0  0
   45.0844    6.5981   13.4337 H   0  0  0  0  0  0  0  0  0  0  0  0
   42.4990    2.6593   12.1719 H   0  0  0  0  0  0  0  0  0  0  0  0
   44.0381    1.8378   12.5664 H   0  0  0  0  0  0  0  0  0  0  0  0
   43.0297    1.2530   11.2250 H   0  0  0  0  0  0  0  0  0  0  0  0
   44.3443    2.9707    6.9096 H   0  0  0  0  0  0  0  0  0  0  0  0
   45.7192    4.0942    6.7980 H   0  0  0  0  0  0  0  0  0  0  0  0
   45.9716    2.4255    7.3687 H   0  0  0  0  0  0  0  0  0  0  0  0
   45.1300    7.3319   10.7392 H   0  0  0  0  0  0  0  0  0  0  0  0
   43.6629    7.0360   12.8199 H   0  0  0  0  0  0  0  0  0  0  0  0
   43.7796    2.1147   12.7083 H   0  0  0  0  0  0  0  0  0  0  0  0
   43.3789    1.0925   11.3117 H   0  0  0  0  0  0  0  0  0  0  0  0
   42.3128    2.4473   11.7398 H   0  0  0  0  0  0  0  0  0  0  0  0
   46.7435    3.8002    7.2734 H   0  0  0  0  0  0  0  0  0  0  0  0
   46.8836    2.2295    8.0996 H   0  0  0  0  0  0  0  0  0  0  0  0
   45.4496    2.5870    7.1143 H   0  0  0  0  0  0  0  0  0  0  0  0
   46.3716    3.7739    9.7916 H   0  0  0  0  0  0  0  0  0  0  0  0
   45.7126    4.2835    8.4252 H   0  0  0  0  0  0  0  0  0  0  0  0
   45.3428    3.8014   12.0329 H   0  0  0  0  0  0  0  0  0  0  0  0
   44.7214    5.3043   12.1501 H   0  0  0  0  0  0  0  0  0  0  0  0
   43.1359    3.9146   11.1003 H   0  0  0  0  0  0  0  0  0  0  0  0
   43.7340    5.1469    9.9786 H   0  0  0  0  0  0  0  0  0  0  0  0
   43.7448    3.0261    8.7691 H   0  0  0  0  0  0  0  0  0  0  0  0
   44.5436    2.1969   10.1098 H   0  0  0  0  0  0  0  0  0  0  0  0
  2  1  1  0
  3  4  1  0
  4  1  1  0
  5  2  2  0
  6  3  1  0
  7  2  1  0
  8  5  1  0
  9  7  2  0
 10  4  2  0
 11  6  2  0
 12  1  1  0
 13  3  1  0
  5  6  1  0
  8  9  1  0
 15 14  1  0
 16 17  1  0
 17 14  1  0
 18 15  2  0
 19 16  1  0
 20 15  1  0
 21 18  1  0
 22 20  2  0
 23 17  2  0
 24 19  2  0
 25 14  1  0
 26 16  1  0
 18 19  1  0
 21 22  1  0
 28 29  1  0
 29 30  1  0
 30 27  1  0
  8 31  1  0
  9 32  1  0
 12 33  1  0
 12 34  1  0
 12 35  1  0
 13 36  1  0
 13 37  1  0
 13 38  1  0
 21 39  1  0
 22 40  1  0
 25 41  1  0
 25 42  1  0
 25 43  1  0
 26 44  1  0
 26 45  1  0
 26 46  1  0
 27 47  1  0
 27 48  1  0
 28 49  1  0
 28 50  1  0
 29 51  1  0
 29 52  1  0
 30 53  1  0
 30 54  1  0
M  END
> <Uni-Dock RESULT> 
ENERGY=   -5.663  LOWER_BOUND=    3.285  UPPER_BOUND=    4.587
INTER + INTRA:          -5.663
INTER:                  -5.663
INTRA:                   0.000
UNBOUND:                 0.000

$$$$

     RDKit          3D

 54 55  0  0  0  0  0  0  0  0999 V2000
   44.0169    4.5295   12.1403 N   0  0  0  0  0  0  0  0  0  0  0  0
   44.9218    5.5599   12.0646 C   0  0  0  0  0  0  0  0  0  0  0  0
   44.5048    4.0625    9.8395 N   0  0  0  0  0  0  0  0  0  0  0  0
   43.7927    3.7337   11.0141 C   0  0  0  0  0  0  0  0  0  0  0  0
   45.6018    5.8267   10.9186 C   0  0  0  0  0  0  0  0  0  0  0  0
   45.4466    5.0875    9.7198 C   0  0  0  0  0  0  0  0  0  0  0  0
   45.2634    6.4198   13.0639 N   0  0  0  0  0  0  0  0  0  0  0  0
   46.4007    6.8933   11.2084 N   0  0  0  0  0  0  0  0  0  0  0  0
   46.1604    7.2180   12.5188 C   0  0  0  0  0  0  0  0  0  0  0  0
   43.0091    2.7799   11.0347 O   0  0  0  0  0  0  0  0  0  0  0  0
   46.0883    5.3423    8.7061 O   0  0  0  0  0  0  0  0  0  0  0  0
   43.3224    4.2607   13.3861 C   0  0  0  0  0  0  0  0  0  0  0  0
   44.2583    3.2261    8.6815 C   0  0  0  0  0  0  0  0  0  0  0  0
   44.0313    4.4914   12.1360 N   0  0  0  0  0  0  0  0  0  0  0  0
   44.5784    5.7336   11.9251 C   0  0  0  0  0  0  0  0  0  0  0  0
   44.9505    3.8363   10.0204 N   0  0  0  0  0  0  0  0  0  0  0  0
   44.2072    3.4956   11.1721 C   0  0  0  0  0  0  0  0  0  0  0  0
   45.2851    6.0180   10.7999 C   0  0  0  0  0  0  0  0  0  0  0  0
   45.5212    5.0846    9.7604 C   0  0  0  0  0  0  0  0  0  0  0  0
   44.5034    6.8091   12.7574 N   0  0  0  0  0  0  0  0  0  0  0  0
   45.6686    7.3203   10.9294 N   0  0  0  0  0  0  0  0  0  0  0  0
   45.1723    7.7573   12.1308 C   0  0  0  0  0  0  0  0  0  0  0  0
   43.7375    2.3624   11.3113 O   0  0  0  0  0  0  0  0  0  0  0  0
   46.1609    5.3734    8.7545 O   0  0  0  0  0  0  0  0  0  0  0  0
   43.2831    4.2223   13.3500 C   0  0  0  0  0  0  0  0  0  0  0  0
   45.1202    2.7888    9.0329 C   0  0  0  0  0  0  0  0  0  0  0  0
   45.2086    3.6748   10.0343 N   0  0  0  0  0  0  0  0  0  0  0  0
   45.5614    5.7160   11.9677 N   0  0  0  0  0  0  0  0  0  0  0  0
   44.2243    5.5072   11.3977 C   0  0  0  0  0  0  0  0  0  0  0  0
   44.0594    4.0748   10.8543 C   0  0  0  0  0  0  0  0  0  0  0  0
   47.0432    7.3511   10.5741 H   0  0  0  0  0  0  0  0  0  0  0  0
   46.6652    8.0372   13.0142 H   0  0  0  0  0  0  0  0  0  0  0  0
   42.7857    5.1616   13.7002 H   0  0  0  0  0  0  0  0  0  0  0  0
   44.0566    3.9861   14.1502 H   0  0  0  0  0  0  0  0  0  0  0  0
   42.6027    3.4443   13.2835 H   0  0  0  0  0  0  0  0  0  0  0  0
   43.1803    3.1649    8.4991 H   0  0  0  0  0  0  0  0  0  0  0  0
   44.7470    3.6060    7.7807 H   0  0  0  0  0  0  0  0  0  0  0  0
   44.6315    2.2186    8.8923 H   0  0  0  0  0  0  0  0  0  0  0  0
   46.2139    7.8538   10.2641 H   0  0  0  0  0  0  0  0  0  0  0  0
   45.3299    8.7662   12.4901 H   0  0  0  0  0  0  0  0  0  0  0  0
   43.9395    4.3681   14.2134 H   0  0  0  0  0  0  0  0  0  0  0  0
   42.8981    3.1996   13.3733 H   0  0  0  0  0  0  0  0  0  0  0  0
   42.4374    4.9147   13.4101 H   0  0  0  0  0  0  0  0  0  0  0  0
   45.7244    3.1096    8.1806 H   0  0  0  0  0  0  0  0  0  0  0  0
   45.6027    1.9268    9.5057 H   0  0  0  0  0  0  0  0  0  0  0  0
   44.1338    2.4782    8.6730 H   0  0  0  0  0  0  0  0  0  0  0  0
   46.0409    3.9825   10.5509 H   0  0  0  0  0  0  0  0  0  0  0  0
   45.2274    4.2642    9.2018 H   0  0  0  0  0  0  0  0  0  0  0  0
   45.6979    5.0640   12.7407 H   0  0  0  0  0  0  0  0  0  0  0  0
   45.6072    6.6501   12.3740 H   0  0  0  0  0  0  0  0  0  0  0  0
   43.4611    5.7043   12.1578 H   0  0  0  0  0  0  0  0  0  0  0  0
   44.0808    6.2261   10.5836 H   0  0  0  0  0  0  0  0  0  0  0  0
   43.1384    3.9961   10.2676 H   0  0  0  0  0  0  0  0  0  0  0  0
   43.9781    3.3741   11.6928 H   0  0  0  0  0  0  0  0  0  0  0  0
  2  1  1  0
  3  4  1  0
  4  1  1  0
  5  2  2  0
  6  3  1  0
  7  2  1  0
  8  5  1  0
  9  7  2  0
 10  4  2  0
 11  6  2  0
 12  1  1  0
 13  3  1  0
  5  6  1  0
  8  9  1  0
 15 14  1  0
 16 17  1  0
 17 14  1  0
 18 15  2  0
 19 16  1  0
 20 15  1  0
 21 18  1  0
 22 20  2  0
 23 17  2  0
 24 19  2  0
 25 14  1  0
 26 16  1  0
 18 19  1  0
 21 22  1  0
 28 29  1  0
 29 30  1  0
 30 27  1  0
  8 31  1  0
  9 32  1  0
 12 33  1  0
 12 34  1  0
 12 35  1  0
 13 36  1  0
 13 37  1  0
 13 38  1  0
 21 39  1  0
 22 40  1  0
 25 41  1  0
 25 42  1  0
 25 43  1  0
 26 44  1  0
 26 45  1  0
 26 46  1  0
 27 47  1  0
 27 48  1  0
 28 49  1  0
 28 50  1  0
 29 51  1  0
 29 52  1  0
 30 53  1  0
 30 54  1  0
M  END
> <Uni-Dock RESULT> 
ENERGY=   -5.497  LOWER_BOUND=    2.591  UPPER_BOUND=    4.181
INTER + INTRA:          -5.497
INTER:                  -5.497
INTRA:                   0.000
UNBOUND:                 0.000

$$$$

     RDKit          3D

 54 55  0  0  0  0  0  0  0  0999 V2000
   44.2931    5.9307   12.3066 N   0  0  0  0  0  0  0  0  0  0  0  0
   44.8795    7.1622   12.4680 C   0  0  0  0  0  0  0  0  0  0  0  0
   46.3112    4.9659   13.1710 N   0  0  0  0  0  0  0  0  0  0  0  0
   45.0020    4.7839   12.6732 C   0  0  0  0  0  0  0  0  0  0  0  0
   46.1348    7.2918   12.9723 C   0  0  0  0  0  0  0  0  0  0  0  0
   46.9416    6.1968   13.3694 C   0  0  0  0  0  0  0  0  0  0  0  0
   44.3289    8.3722   12.1721 N   0  0  0  0  0  0  0  0  0  0  0  0
   46.3823    8.6327   12.9947 N   0  0  0  0  0  0  0  0  0  0  0  0
   45.2602    9.2464   12.4997 C   0  0  0  0  0  0  0  0  0  0  0  0
   44.5131    3.6547   12.5723 O   0  0  0  0  0  0  0  0  0  0  0  0
   48.0651    6.3476   13.8376 O   0  0  0  0  0  0  0  0  0  0  0  0
   42.9432    5.8302   11.7829 C   0  0  0  0  0  0  0  0  0  0  0  0
   47.0307    3.7644   13.5451 C   0  0  0  0  0  0  0  0  0  0  0  0
   44.2855    5.9089   12.3404 N   0  0  0  0  0  0  0  0  0  0  0  0
   45.0174    7.0463   12.1004 C   0  0  0  0  0  0  0  0  0  0  0  0
   46.1321    5.1156   13.6485 N   0  0  0  0  0  0  0  0  0  0  0  0
   44.8346    4.8988   13.1340 C   0  0  0  0  0  0  0  0  0  0  0  0
   46.2642    7.2117   12.6148 C   0  0  0  0  0  0  0  0  0  0  0  0
   46.9149    6.2516   13.4285 C   0  0  0  0  0  0  0  0  0  0  0  0
   44.6338    8.1202   11.3557 N   0  0  0  0  0  0  0  0  0  0  0  0
   46.6799    8.4347   12.1772 N   0  0  0  0  0  0  0  0  0  0  0  0
   45.6590    8.9472   11.4185 C   0  0  0  0  0  0  0  0  0  0  0  0
   44.2205    3.8569   13.3816 O   0  0  0  0  0  0  0  0  0  0  0  0
   48.0433    6.4295   13.8752 O   0  0  0  0  0  0  0  0  0  0  0  0
   42.9562    5.7662   11.7758 C   0  0  0  0  0  0  0  0  0  0  0  0
   46.6831    4.0549   14.4683 C   0  0  0  0  0  0  0  0  0  0  0  0
   46.1006    5.1448   13.9502 N   0  0  0  0  0  0  0  0  0  0  0  0
   45.1250    7.5938   12.9110 N   0  0  0  0  0  0  0  0  0  0  0  0
   45.3638    6.4792   11.9852 C   0  0  0  0  0  0  0  0  0  0  0  0
   45.3146    5.1212   12.7114 C   0  0  0  0  0  0  0  0  0  0  0  0
   47.2317    9.0805   13.3152 H   0  0  0  0  0  0  0  0  0  0  0  0
   45.1828   10.3217   12.4043 H   0  0  0  0  0  0  0  0  0  0  0  0
   42.8997    6.3193   10.8046 H   0  0  0  0  0  0  0  0  0  0  0  0
   42.2561    6.3296   12.4735 H   0  0  0  0  0  0  0  0  0  0  0  0
   42.6276    4.7901   11.6670 H   0  0  0  0  0  0  0  0  0  0  0  0
   47.0078    3.0523   12.7136 H   0  0  0  0  0  0  0  0  0  0  0  0
   48.0724    3.9666   13.8073 H   0  0  0  0  0  0  0  0  0  0  0  0
   46.5280    3.3095   14.4047 H   0  0  0  0  0  0  0  0  0  0  0  0
   47.5703    8.8724   12.3779 H   0  0  0  0  0  0  0  0  0  0  0  0
   45.7216    9.9176   10.9429 H   0  0  0  0  0  0  0  0  0  0  0  0
   42.3192    6.5710   12.1551 H   0  0  0  0  0  0  0  0  0  0  0  0
   42.5020    4.8078   12.0399 H   0  0  0  0  0  0  0  0  0  0  0  0
   43.0217    5.8322   10.6851 H   0  0  0  0  0  0  0  0  0  0  0  0
   47.6767    4.2960   14.8543 H   0  0  0  0  0  0  0  0  0  0  0  0
   46.0100    3.8690   15.3119 H   0  0  0  0  0  0  0  0  0  0  0  0
   46.7464    3.1406   13.8689 H   0  0  0  0  0  0  0  0  0  0  0  0
   45.8684    6.0323   14.4115 H   0  0  0  0  0  0  0  0  0  0  0  0
   47.0828    5.2678   13.7029 H   0  0  0  0  0  0  0  0  0  0  0  0
   44.1989    7.4875   13.3262 H   0  0  0  0  0  0  0  0  0  0  0  0
   45.0999    8.4653   12.3824 H   0  0  0  0  0  0  0  0  0  0  0  0
   44.6189    6.4965   11.1827 H   0  0  0  0  0  0  0  0  0  0  0  0
   46.3509    6.6152   11.5298 H   0  0  0  0  0  0  0  0  0  0  0  0
   45.6809    4.3265   12.0535 H   0  0  0  0  0  0  0  0  0  0  0  0
   44.2766    4.8838   12.9703 H   0  0  0  0  0  0  0  0  0  0  0  0
  2  1  1  0
  3  4  1  0
  4  1  1  0
  5  2  2  0
  6  3  1  0
  7  2  1  0
  8  5  1  0
  9  7  2  0
 10  4  2  0
 11  6  2  0
 12  1  1  0
 13  3  1  0
  5  6  1  0
  8  9  1  0
 15 14  1  0
 16 17  1  0
 17 14  1  0
 18 15  2  0
 19 16  1  0
 20 15  1  0
 21 18  1  0
 22 20  2  0
 23 17  2  0
 24 19  2  0
 25 14  1  0
 26 16  1  0
 18 19  1  0
 21 22  1  0
 28 29  1  0
 29 30  1  0
 30 27  1  0
  8 31  1  0
  9 32  1  0
 12 33  1  0
 12 34  1  0
 12 35  1  0
 13 36  1  0
 13 37  1  0
 13 38  1  0
 21 39  1  0
 22 40  1  0
 25 41  1  0
 25 42  1  0
 25 43  1  0
 26 44  1  0
 26 45  1  0
 26 46  1  0
 27 47  1  0
 27 48  1  0
 28 49  1  0
 28 50  1  0
 29 51  1  0
 29 52  1  0
 30 53  1  0
 30 54  1  0
M  END
> <Uni-Dock RESULT> 
ENERGY=   -5.452  LOWER_BOUND=    1.595  UPPER_BOUND=    3.587
INTER + INTRA:          -5.452
INTER:                  -5.452
INTRA:                   0.000
UNBOUND:                 0.000

$$$$

     RDKit          3D

 54 55  0  0  0  0  0  0  0  0999 V2000
   43.9629    3.1223   11.3263 N   0  0  0  0  0  0  0  0  0  0  0  0
   44.3287    3.3531   10.0227 C   0  0  0  0  0  0  0  0  0  0  0  0
   44.9009    5.2624   11.8652 N   0  0  0  0  0  0  0  0  0  0  0  0
   44.2327    4.0940   12.2933 C   0  0  0  0  0  0  0  0  0  0  0  0
   44.9507    4.5029    9.6513 C   0  0  0  0  0  0  0  0  0  0  0  0
   45.2759    5.5489   10.5502 C   0  0  0  0  0  0  0  0  0  0  0  0
   44.1337    2.5215    8.9619 N   0  0  0  0  0  0  0  0  0  0  0  0
   45.1538    4.3902    8.3075 N   0  0  0  0  0  0  0  0  0  0  0  0
   44.6434    3.1731    7.9351 C   0  0  0  0  0  0  0  0  0  0  0  0
   43.9033    3.9482   13.4741 O   0  0  0  0  0  0  0  0  0  0  0  0
   45.8223    6.5829   10.1809 O   0  0  0  0  0  0  0  0  0  0  0  0
   43.2826    1.8912   11.6843 C   0  0  0  0  0  0  0  0  0  0  0  0
   45.1727    6.2582   12.8829 C   0  0  0  0  0  0  0  0  0  0  0  0
   43.9345    3.1469   11.3425 N   0  0  0  0  0  0  0  0  0  0  0  0
   44.6707    3.1964   10.1839 C   0  0  0  0  0  0  0  0  0  0  0  0
   44.4566    5.4661   11.6566 N   0  0  0  0  0  0  0  0  0  0  0  0
   43.8074    4.3005   12.1201 C   0  0  0  0  0  0  0  0  0  0  0  0
   45.2806    4.3404    9.7769 C   0  0  0  0  0  0  0  0  0  0  0  0
   45.2182    5.5634   10.4895 C   0  0  0  0  0  0  0  0  0  0  0  0
   44.8925    2.1714    9.3149 N   0  0  0  0  0  0  0  0  0  0  0  0
   45.9091    4.0230    8.6089 N   0  0  0  0  0  0  0  0  0  0  0  0
   45.6454    2.6987    8.3693 C   0  0  0  0  0  0  0  0  0  0  0  0
   43.1573    4.3118   13.1696 O   0  0  0  0  0  0  0  0  0  0  0  0
   45.7832    6.5789   10.0970 O   0  0  0  0  0  0  0  0  0  0  0  0
   43.2957    1.9080   11.7465 C   0  0  0  0  0  0  0  0  0  0  0  0
   44.3126    6.6512   12.4788 C   0  0  0  0  0  0  0  0  0  0  0  0
   44.2361    5.6616   11.5785 N   0  0  0  0  0  0  0  0  0  0  0  0
   44.2344    3.7439    9.4924 N   0  0  0  0  0  0  0  0  0  0  0  0
   44.9951    3.4562   10.7151 C   0  0  0  0  0  0  0  0  0  0  0  0
   44.4518    4.2505   11.9184 C   0  0  0  0  0  0  0  0  0  0  0  0
   45.5965    5.0756    7.7084 H   0  0  0  0  0  0  0  0  0  0  0  0
   44.6719    2.8220    6.9117 H   0  0  0  0  0  0  0  0  0  0  0  0
   43.9009    1.0387   11.3856 H   0  0  0  0  0  0  0  0  0  0  0  0
   42.3228    1.8499   11.1595 H   0  0  0  0  0  0  0  0  0  0  0  0
   43.0961    1.8266   12.7595 H   0  0  0  0  0  0  0  0  0  0  0  0
   45.6831    5.7853   13.7283 H   0  0  0  0  0  0  0  0  0  0  0  0
   45.7933    7.0771   12.5101 H   0  0  0  0  0  0  0  0  0  0  0  0
   44.2199    6.6650   13.2370 H   0  0  0  0  0  0  0  0  0  0  0  0
   46.4609    4.6488    8.0357 H   0  0  0  0  0  0  0  0  0  0  0  0
   46.0260    2.1807    7.4984 H   0  0  0  0  0  0  0  0  0  0  0  0
   42.5843    1.6044   10.9724 H   0  0  0  0  0  0  0  0  0  0  0  0
   42.7576    2.0163   12.6917 H   0  0  0  0  0  0  0  0  0  0  0  0
   44.0602    1.1340   11.8672 H   0  0  0  0  0  0  0  0  0  0  0  0
   44.8167    7.5218   12.0519 H   0  0  0  0  0  0  0  0  0  0  0  0
   43.2476    6.8788   12.5941 H   0  0  0  0  0  0  0  0  0  0  0  0
   44.7317    6.4477   13.4697 H   0  0  0  0  0  0  0  0  0  0  0  0
   43.7790    5.6607   10.6591 H   0  0  0  0  0  0  0  0  0  0  0  0
   45.1432    6.0845   11.3806 H   0  0  0  0  0  0  0  0  0  0  0  0
   43.2602    3.4768    9.6373 H   0  0  0  0  0  0  0  0  0  0  0  0
   44.5811    3.1517    8.7383 H   0  0  0  0  0  0  0  0  0  0  0  0
   44.9573    2.3836   10.9327 H   0  0  0  0  0  0  0  0  0  0  0  0
   46.0423    3.7267   10.5409 H   0  0  0  0  0  0  0  0  0  0  0  0
   45.1409    4.1730   12.7655 H   0  0  0  0  0  0  0  0  0  0  0  0
   43.4923    3.8247   12.2328 H   0  0  0  0  0  0  0  0  0  0  0  0
  2  1  1  0
  3  4  1  0
  4  1  1  0
  5  2  2  0
  6  3  1  0
  7  2  1  0
  8  5  1  0
  9  7  2  0
 10  4  2  0
 11  6  2  0
 12  1  1  0
 13  3  1  0
  5  6  1  0
  8  9  1  0
 15 14  1  0
 16 17  1  0
 17 14  1  0
 18 15  2  0
 19 16  1  0
 20 15  1  0
 21 18  1  0
 22 20  2  0
 23 17  2  0
 24 19  2  0
 25 14  1  0
 26 16  1  0
 18 19  1  0
 21 22  1  0
 28 29  1  0
 29 30  1  0
 30 27  1  0
  8 31  1  0
  9 32  1  0
 12 33  1  0
 12 34  1  0
 12 35  1  0
 13 36  1  0
 13 37  1  0
 13 38  1  0
 21 39  1  0
 22 40  1  0
 25 41  1  0
 25 42  1  0
 25 43  1  0
 26 44  1  0
 26 45  1  0
 26 46  1  0
 27 47  1  0
 27 48  1  0
 28 49  1  0
 28 50  1  0
 29 51  1  0
 29 52  1  0
 30 53  1  0
 30 54  1  0
M  END
> <Uni-Dock RESULT> 
ENERGY=   -5.093  LOWER_BOUND=    2.737  UPPER_BOUND=    3.826
INTER + INTRA:          -5.093
INTER:                  -5.093
INTRA:                   0.000
UNBOUND:                 0.000

$$$$

     RDKit          3D

 54 55  0  0  0  0  0  0  0  0999 V2000
   55.5676    7.7584    6.1250 N   0  0  0  0  0  0  0  0  0  0  0  0
   54.3949    8.3719    5.7577 C   0  0  0  0  0  0  0  0  0  0  0  0
   54.2707    6.3807    7.5981 N   0  0  0  0  0  0  0  0  0  0  0  0
   55.5315    6.7210    7.0601 C   0  0  0  0  0  0  0  0  0  0  0  0
   53.2001    7.9965    6.2853 C   0  0  0  0  0  0  0  0  0  0  0  0
   53.0513    6.9627    7.2428 C   0  0  0  0  0  0  0  0  0  0  0  0
   54.2519    9.3858    4.8597 N   0  0  0  0  0  0  0  0  0  0  0  0
   52.2717    8.8037    5.6969 N   0  0  0  0  0  0  0  0  0  0  0  0
   52.9560    9.6292    4.8420 C   0  0  0  0  0  0  0  0  0  0  0  0
   56.5523    6.1194    7.4067 O   0  0  0  0  0  0  0  0  0  0  0  0
   51.9561    6.6352    7.6874 O   0  0  0  0  0  0  0  0  0  0  0  0
   56.8237    8.1719    5.5269 C   0  0  0  0  0  0  0  0  0  0  0  0
   54.2537    5.3027    8.5671 C   0  0  0  0  0  0  0  0  0  0  0  0
   55.5719    7.7189    6.1154 N   0  0  0  0  0  0  0  0  0  0  0  0
   54.5013    8.5792    6.0943 C   0  0  0  0  0  0  0  0  0  0  0  0
   54.1329    6.1109    7.1613 N   0  0  0  0  0  0  0  0  0  0  0  0
   55.4108    6.4420    6.6588 C   0  0  0  0  0  0  0  0  0  0  0  0
   53.2891    8.2187    6.5914 C   0  0  0  0  0  0  0  0  0  0  0  0
   53.0176    6.9521    7.1655 C   0  0  0  0  0  0  0  0  0  0  0  0
   54.4862    9.8495    5.6034 N   0  0  0  0  0  0  0  0  0  0  0  0
   52.4820    9.3024    6.4063 N   0  0  0  0  0  0  0  0  0  0  0  0
   53.2509   10.2652    5.8043 C   0  0  0  0  0  0  0  0  0  0  0  0
   56.3392    5.6294    6.7024 O   0  0  0  0  0  0  0  0  0  0  0  0
   51.9124    6.6582    7.6090 O   0  0  0  0  0  0  0  0  0  0  0  0
   56.8522    8.1369    5.5748 C   0  0  0  0  0  0  0  0  0  0  0  0
   53.9879    4.7818    7.7211 C   0  0  0  0  0  0  0  0  0  0  0  0
   54.0216    5.8954    6.9767 N   0  0  0  0  0  0  0  0  0  0  0  0
   53.8027    8.2836    5.4674 N   0  0  0  0  0  0  0  0  0  0  0  0
   54.6028    8.2975    6.6986 C   0  0  0  0  0  0  0  0  0  0  0  0
   55.1005    6.8861    7.0648 C   0  0  0  0  0  0  0  0  0  0  0  0
   51.2734    8.7906    5.8641 H   0  0  0  0  0  0  0  0  0  0  0  0
   52.4594   10.3788    4.2396 H   0  0  0  0  0  0  0  0  0  0  0  0
   56.9711    9.2421    5.7037 H   0  0  0  0  0  0  0  0  0  0  0  0
   56.7848    7.9800    4.4499 H   0  0  0  0  0  0  0  0  0  0  0  0
   57.6738    7.6289    5.9482 H   0  0  0  0  0  0  0  0  0  0  0  0
   54.9885    5.5074    9.3527 H   0  0  0  0  0  0  0  0  0  0  0  0
   53.2716    5.1720    9.0287 H   0  0  0  0  0  0  0  0  0  0  0  0
   54.5369    4.3739    8.0614 H   0  0  0  0  0  0  0  0  0  0  0  0
   51.5061    9.3744    6.6652 H   0  0  0  0  0  0  0  0  0  0  0  0
   52.8580   11.2387    5.5400 H   0  0  0  0  0  0  0  0  0  0  0  0
   56.7305    8.3757    4.5138 H   0  0  0  0  0  0  0  0  0  0  0  0
   57.6103    7.3555    5.6718 H   0  0  0  0  0  0  0  0  0  0  0  0
   57.1958    9.0250    6.1145 H   0  0  0  0  0  0  0  0  0  0  0  0
   52.9712    4.5814    8.0682 H   0  0  0  0  0  0  0  0  0  0  0  0
   54.2552    4.0420    6.9592 H   0  0  0  0  0  0  0  0  0  0  0  0
   54.6791    4.6751    8.5637 H   0  0  0  0  0  0  0  0  0  0  0  0
   53.5239    6.1016    6.1026 H   0  0  0  0  0  0  0  0  0  0  0  0
   53.3269    6.1156    7.6907 H   0  0  0  0  0  0  0  0  0  0  0  0
   54.3809    7.9403    4.6999 H   0  0  0  0  0  0  0  0  0  0  0  0
   53.5497    9.2411    5.2247 H   0  0  0  0  0  0  0  0  0  0  0  0
   55.4577    8.9714    6.5789 H   0  0  0  0  0  0  0  0  0  0  0  0
   53.9790    8.6877    7.5104 H   0  0  0  0  0  0  0  0  0  0  0  0
   55.5256    6.8844    8.0737 H   0  0  0  0  0  0  0  0  0  0  0  0
   55.8947    6.5883    6.3710 H   0  0  0  0  0  0  0  0  0  0  0  0
  2  1  1  0
  3  4  1  0
  4  1  1  0
  5  2  2  0
  6  3  1  0
  7  2  1  0
  8  5  1  0
  9  7  2  0
 10  4  2  0
 11  6  2  0
 12  1  1  0
 13  3  1  0
  5  6  1  0
  8  9  1  0
 15 14  1  0
 16 17  1  0
 17 14  1  0
 18 15  2  0
 19 16  1  0
 20 15  1  0
 21 18  1  0
 22 20  2  0
 23 17  2  0
 24 19  2  0
 25 14  1  0
 26 16  1  0
 18 19  1  0
 21 22  1  0
 28 29  1  0
 29 30  1  0
 30 27  1  0
  8 31  1  0
  9 32  1  0
 12 33  1  0
 12 34  1  0
 12 35  1  0
 13 36  1  0
 13 37  1  0
 13 38  1  0
 21 39  1  0
 22 40  1  0
 25 41  1  0
 25 42  1  0
 25 43  1  0
 26 44  1  0
 26 45  1  0
 26 46  1  0
 27 47  1  0
 27 48  1  0
 28 49  1  0
 28 50  1  0
 29 51  1  0
 29 52  1  0
 30 53  1  0
 30 54  1  0
M  END
> <Uni-Dock RESULT> 
ENERGY=   -5.006  LOWER_BOUND=    9.619  UPPER_BOUND=   11.231
INTER + INTRA:          -5.006
INTER:                  -5.006
INTRA:                   0.000
UNBOUND:                 0.000

$$$$
