
     RDKit          3D

 54 55  0  0  0  0  0  0  0  0999 V2000
   46.2096    4.9319   13.0815 N   0  0  0  0  0  0  0  0  0  0  0  0
   44.9392    4.8163   12.5722 C   0  0  0  0  0  0  0  0  0  0  0  0
   46.1131    7.2630   12.5278 N   0  0  0  0  0  0  0  0  0  0  0  0
   46.8386    6.1793   13.0702 C   0  0  0  0  0  0  0  0  0  0  0  0
   44.2788    5.8867   12.0581 C   0  0  0  0  0  0  0  0  0  0  0  0
   44.8222    7.1938   11.9980 C   0  0  0  0  0  0  0  0  0  0  0  0
   44.1879    3.6822   12.5061 N   0  0  0  0  0  0  0  0  0  0  0  0
   43.0671    5.4081   11.6547 N   0  0  0  0  0  0  0  0  0  0  0  0
   43.0580    4.0682   11.9468 C   0  0  0  0  0  0  0  0  0  0  0  0
   47.9800    6.3388   13.5132 O   0  0  0  0  0  0  0  0  0  0  0  0
   44.2007    8.1399   11.5254 O   0  0  0  0  0  0  0  0  0  0  0  0
   46.8862    3.7670   13.6214 C   0  0  0  0  0  0  0  0  0  0  0  0
   46.7840    8.5479   12.5260 C   0  0  0  0  0  0  0  0  0  0  0  0
   46.4634    5.7860   13.3957 N   0  0  0  0  0  0  0  0  0  0  0  0
   45.8946    6.9204   12.8705 C   0  0  0  0  0  0  0  0  0  0  0  0
   44.8962    4.5179   12.0971 N   0  0  0  0  0  0  0  0  0  0  0  0
   45.9678    4.5358   13.0172 C   0  0  0  0  0  0  0  0  0  0  0  0
   44.8609    6.8561   11.9908 C   0  0  0  0  0  0  0  0  0  0  0  0
   44.2839    5.6433   11.5399 C   0  0  0  0  0  0  0  0  0  0  0  0
   46.2530    8.2079   13.1325 N   0  0  0  0  0  0  0  0  0  0  0  0
   44.5581    8.1511   11.6887 N   0  0  0  0  0  0  0  0  0  0  0  0
   45.4277    8.9338   12.4037 C   0  0  0  0  0  0  0  0  0  0  0  0
   46.4388    3.4849   13.4622 O   0  0  0  0  0  0  0  0  0  0  0  0
   43.3485    5.6190   10.7468 O   0  0  0  0  0  0  0  0  0  0  0  0
   47.5652    5.8916   14.3345 C   0  0  0  0  0  0  0  0  0  0  0  0
   44.3971    3.2109   11.7184 C   0  0  0  0  0  0  0  0  0  0  0  0
   45.3953    4.2821   12.2621 N   0  0  0  0  0  0  0  0  0  0  0  0
   45.0293    7.1221   11.9577 N   0  0  0  0  0  0  0  0  0  0  0  0
   45.9941    6.5886   12.9299 C   0  0  0  0  0  0  0  0  0  0  0  0
   45.5919    5.1790   13.4026 C   0  0  0  0  0  0  0  0  0  0  0  0
   42.3238    5.9438   11.2248 H   0  0  0  0  0  0  0  0  0  0  0  0
   42.2081    3.4341   11.7301 H   0  0  0  0  0  0  0  0  0  0  0  0
   46.9878    3.0154   12.8320 H   0  0  0  0  0  0  0  0  0  0  0  0
   46.2911    3.3570   14.4438 H   0  0  0  0  0  0  0  0  0  0  0  0
   47.8815    4.0127   14.0004 H   0  0  0  0  0  0  0  0  0  0  0  0
   46.1656    9.3436   12.1032 H   0  0  0  0  0  0  0  0  0  0  0  0
   47.7066    8.4659   11.9424 H   0  0  0  0  0  0  0  0  0  0  0  0
   47.0491    8.8127   13.5549 H   0  0  0  0  0  0  0  0  0  0  0  0
   43.8314    8.4654   11.0582 H   0  0  0  0  0  0  0  0  0  0  0  0
   45.4103   10.0149   12.3518 H   0  0  0  0  0  0  0  0  0  0  0  0
   47.9131    4.9100   14.6658 H   0  0  0  0  0  0  0  0  0  0  0  0
   48.3976    6.4121   13.8512 H   0  0  0  0  0  0  0  0  0  0  0  0
   47.2351    6.4582   15.2114 H   0  0  0  0  0  0  0  0  0  0  0  0
   45.2197    2.6203   11.3021 H   0  0  0  0  0  0  0  0  0  0  0  0
   43.5924    3.2666   10.9808 H   0  0  0  0  0  0  0  0  0  0  0  0
   44.0247    2.7020   12.6136 H   0  0  0  0  0  0  0  0  0  0  0  0
   44.9735    4.8438   11.5150 H   0  0  0  0  0  0  0  0  0  0  0  0
   44.7177    3.5633   12.5039 H   0  0  0  0  0  0  0  0  0  0  0  0
   45.3325    8.0517   11.6699 H   0  0  0  0  0  0  0  0  0  0  0  0
   44.1265    7.2441   12.4143 H   0  0  0  0  0  0  0  0  0  0  0  0
   46.0583    7.2629   13.7905 H   0  0  0  0  0  0  0  0  0  0  0  0
   46.9827    6.5524   12.4590 H   0  0  0  0  0  0  0  0  0  0  0  0
   44.6567    5.2436   13.9711 H   0  0  0  0  0  0  0  0  0  0  0  0
   46.3599    4.7685   14.0653 H   0  0  0  0  0  0  0  0  0  0  0  0
  2  1  1  0
  3  4  1  0
  4  1  1  0
  5  2  2  0
  6  3  1  0
  7  2  1  0
  8  5  1  0
  9  7  2  0
 10  4  2  0
 11  6  2  0
 12  1  1  0
 13  3  1  0
  5  6  1  0
  8  9  1  0
 15 14  1  0
 16 17  1  0
 17 14  1  0
 18 15  2  0
 19 16  1  0
 20 15  1  0
 21 18  1  0
 22 20  2  0
 23 17  2  0
 24 19  2  0
 25 14  1  0
 26 16  1  0
 18 19  1  0
 21 22  1  0
 28 29  1  0
 29 30  1  0
 30 27  1  0
  8 31  1  0
  9 32  1  0
 12 33  1  0
 12 34  1  0
 12 35  1  0
 13 36  1  0
 13 37  1  0
 13 38  1  0
 21 39  1  0
 22 40  1  0
 25 41  1  0
 25 42  1  0
 25 43  1  0
 26 44  1  0
 26 45  1  0
 26 46  1  0
 27 47  1  0
 27 48  1  0
 28 49  1  0
 28 50  1  0
 29 51  1  0
 29 52  1  0
 30 53  1  0
 30 54  1  0
M  END
> <Uni-Dock RESULT> 
ENERGY=   -6.301  LOWER_BOUND=    0.000  UPPER_BOUND=    0.000
INTER + INTRA:          -6.301
INTER:                  -6.301
INTRA:                   0.000
UNBOUND:                 0.000

$$$$

     RDKit          3D

 54 55  0  0  0  0  0  0  0  0999 V2000
   44.2146    5.8483   12.1608 N   0  0  0  0  0  0  0  0  0  0  0  0
   44.8156    7.0664   12.3650 C   0  0  0  0  0  0  0  0  0  0  0  0
   46.1245    4.8419   13.2046 N   0  0  0  0  0  0  0  0  0  0  0  0
   44.8664    4.6864   12.5818 C   0  0  0  0  0  0  0  0  0  0  0  0
   46.0291    7.1687   12.9678 C   0  0  0  0  0  0  0  0  0  0  0  0
   46.7749    6.0572   13.4323 C   0  0  0  0  0  0  0  0  0  0  0  0
   44.3215    8.2871   12.0179 N   0  0  0  0  0  0  0  0  0  0  0  0
   46.3079    8.5033   13.0015 N   0  0  0  0  0  0  0  0  0  0  0  0
   45.2446    9.1407   12.4152 C   0  0  0  0  0  0  0  0  0  0  0  0
   44.3725    3.5663   12.4212 O   0  0  0  0  0  0  0  0  0  0  0  0
   47.8697    6.1827   13.9710 O   0  0  0  0  0  0  0  0  0  0  0  0
   42.9184    5.7757   11.5122 C   0  0  0  0  0  0  0  0  0  0  0  0
   46.7832    3.6240   13.6336 C   0  0  0  0  0  0  0  0  0  0  0  0
   44.4657    5.1493   12.7449 N   0  0  0  0  0  0  0  0  0  0  0  0
   45.7064    5.1436   13.3339 C   0  0  0  0  0  0  0  0  0  0  0  0
   44.9859    7.3322   11.8993 N   0  0  0  0  0  0  0  0  0  0  0  0
   44.0676    6.2640   12.0027 C   0  0  0  0  0  0  0  0  0  0  0  0
   46.5567    6.1965   13.2118 C   0  0  0  0  0  0  0  0  0  0  0  0
   46.2547    7.3732   12.4828 C   0  0  0  0  0  0  0  0  0  0  0  0
   46.2464    4.1455   14.0868 N   0  0  0  0  0  0  0  0  0  0  0  0
   47.6724    5.8475   13.9142 N   0  0  0  0  0  0  0  0  0  0  0  0
   47.4380    4.5972   14.4259 C   0  0  0  0  0  0  0  0  0  0  0  0
   42.9620    6.3235   11.4564 O   0  0  0  0  0  0  0  0  0  0  0  0
   47.0435    8.3083   12.3942 O   0  0  0  0  0  0  0  0  0  0  0  0
   43.5821    4.0081   12.8973 C   0  0  0  0  0  0  0  0  0  0  0  0
   44.5527    8.4787   11.1256 C   0  0  0  0  0  0  0  0  0  0  0  0
   44.5971    7.0017   11.6318 N   0  0  0  0  0  0  0  0  0  0  0  0
   46.7102    5.9249   13.2651 N   0  0  0  0  0  0  0  0  0  0  0  0
   45.4286    5.2174   13.1317 C   0  0  0  0  0  0  0  0  0  0  0  0
   44.2809    6.1931   12.8107 C   0  0  0  0  0  0  0  0  0  0  0  0
   47.1395    8.9326   13.3867 H   0  0  0  0  0  0  0  0  0  0  0  0
   45.2019   10.2169   12.3081 H   0  0  0  0  0  0  0  0  0  0  0  0
   42.9981    6.2004   10.5064 H   0  0  0  0  0  0  0  0  0  0  0  0
   42.1933    6.3511   12.0968 H   0  0  0  0  0  0  0  0  0  0  0  0
   42.5608    4.7462   11.4297 H   0  0  0  0  0  0  0  0  0  0  0  0
   47.7453    3.8147   14.1158 H   0  0  0  0  0  0  0  0  0  0  0  0
   46.9430    2.9809   12.7622 H   0  0  0  0  0  0  0  0  0  0  0  0
   46.1317    3.0957   14.3375 H   0  0  0  0  0  0  0  0  0  0  0  0
   48.5072    6.4078   14.0306 H   0  0  0  0  0  0  0  0  0  0  0  0
   48.1665    4.0734   15.0315 H   0  0  0  0  0  0  0  0  0  0  0  0
   42.6332    4.1555   12.3756 H   0  0  0  0  0  0  0  0  0  0  0  0
   44.0719    3.1198   12.4866 H   0  0  0  0  0  0  0  0  0  0  0  0
   43.3744    3.8560   13.9615 H   0  0  0  0  0  0  0  0  0  0  0  0
   44.2901    8.1498   10.1147 H   0  0  0  0  0  0  0  0  0  0  0  0
   45.3205    9.2536   11.0577 H   0  0  0  0  0  0  0  0  0  0  0  0
   43.6587    8.9035   11.5939 H   0  0  0  0  0  0  0  0  0  0  0  0
   45.6029    7.1981   11.6705 H   0  0  0  0  0  0  0  0  0  0  0  0
   44.1227    7.8992   11.6942 H   0  0  0  0  0  0  0  0  0  0  0  0
   47.4405    5.2453   13.4744 H   0  0  0  0  0  0  0  0  0  0  0  0
   46.6645    6.5520   14.0670 H   0  0  0  0  0  0  0  0  0  0  0  0
   45.2083    4.6797   14.0599 H   0  0  0  0  0  0  0  0  0  0  0  0
   45.5190    4.4766   12.3295 H   0  0  0  0  0  0  0  0  0  0  0  0
   44.1241    6.8582   13.6681 H   0  0  0  0  0  0  0  0  0  0  0  0
   43.3515    5.6412   12.6397 H   0  0  0  0  0  0  0  0  0  0  0  0
  2  1  1  0
  3  4  1  0
  4  1  1  0
  5  2  2  0
  6  3  1  0
  7  2  1  0
  8  5  1  0
  9  7  2  0
 10  4  2  0
 11  6  2  0
 12  1  1  0
 13  3  1  0
  5  6  1  0
  8  9  1  0
 15 14  1  0
 16 17  1  0
 17 14  1  0
 18 15  2  0
 19 16  1  0
 20 15  1  0
 21 18  1  0
 22 20  2  0
 23 17  2  0
 24 19  2  0
 25 14  1  0
 26 16  1  0
 18 19  1  0
 21 22  1  0
 28 29  1  0
 29 30  1  0
 30 27  1  0
  8 31  1  0
  9 32  1  0
 12 33  1  0
 12 34  1  0
 12 35  1  0
 13 36  1  0
 13 37  1  0
 13 38  1  0
 21 39  1  0
 22 40  1  0
 25 41  1  0
 25 42  1  0
 25 43  1  0
 26 44  1  0
 26 45  1  0
 26 46  1  0
 27 47  1  0
 27 48  1  0
 28 49  1  0
 28 50  1  0
 29 51  1  0
 29 52  1  0
 30 53  1  0
 30 54  1  0
M  END
> <Uni-Dock RESULT> 
ENERGY=   -5.919  LOWER_BOUND=    0.998  UPPER_BOUND=    3.755
INTER + INTRA:          -5.919
INTER:                  -5.919
INTRA:                   0.000
UNBOUND:                 0.000

$$$$

     RDKit          3D

 54 55  0  0  0  0  0  0  0  0999 V2000
   44.9875    7.0317   12.1929 N   0  0  0  0  0  0  0  0  0  0  0  0
   44.3922    5.8059   12.0211 C   0  0  0  0  0  0  0  0  0  0  0  0
   46.5824    5.9473   13.6178 N   0  0  0  0  0  0  0  0  0  0  0  0
   46.1157    7.1340   13.0106 C   0  0  0  0  0  0  0  0  0  0  0  0
   44.8749    4.6895   12.6269 C   0  0  0  0  0  0  0  0  0  0  0  0
   46.0105    4.6808   13.4742 C   0  0  0  0  0  0  0  0  0  0  0  0
   43.2935    5.5325   11.2640 N   0  0  0  0  0  0  0  0  0  0  0  0
   44.0496    3.6767   12.2356 N   0  0  0  0  0  0  0  0  0  0  0  0
   43.1074    4.2355   11.4106 C   0  0  0  0  0  0  0  0  0  0  0  0
   46.6883    8.2113   13.2010 O   0  0  0  0  0  0  0  0  0  0  0  0
   46.4205    3.6556   14.0085 O   0  0  0  0  0  0  0  0  0  0  0  0
   44.4443    8.2039   11.5317 C   0  0  0  0  0  0  0  0  0  0  0  0
   47.7538    6.0759   14.4618 C   0  0  0  0  0  0  0  0  0  0  0  0
   45.9039    7.0286   12.4228 N   0  0  0  0  0  0  0  0  0  0  0  0
   46.4491    5.9677   13.1036 C   0  0  0  0  0  0  0  0  0  0  0  0
   43.8815    5.7516   12.2508 N   0  0  0  0  0  0  0  0  0  0  0  0
   44.5850    6.9438   11.9699 C   0  0  0  0  0  0  0  0  0  0  0  0
   45.7362    4.8370   13.3477 C   0  0  0  0  0  0  0  0  0  0  0  0
   44.3943    4.6468   12.9351 C   0  0  0  0  0  0  0  0  0  0  0  0
   47.7112    5.8857   13.6089 N   0  0  0  0  0  0  0  0  0  0  0  0
   46.5813    4.0135   14.0316 N   0  0  0  0  0  0  0  0  0  0  0  0
   47.7654    4.6918   14.1662 C   0  0  0  0  0  0  0  0  0  0  0  0
   44.0475    7.8657   11.3491 O   0  0  0  0  0  0  0  0  0  0  0  0
   43.7785    3.6119   13.1685 O   0  0  0  0  0  0  0  0  0  0  0  0
   46.6949    8.2206   12.1781 C   0  0  0  0  0  0  0  0  0  0  0  0
   42.5152    5.6843   11.7716 C   0  0  0  0  0  0  0  0  0  0  0  0
   43.8655    6.3269   12.2227 N   0  0  0  0  0  0  0  0  0  0  0  0
   45.9661    4.8812   13.5607 N   0  0  0  0  0  0  0  0  0  0  0  0
   46.2267    6.1935   12.9518 C   0  0  0  0  0  0  0  0  0  0  0  0
   45.2562    6.4744   11.7893 C   0  0  0  0  0  0  0  0  0  0  0  0
   44.1247    2.7040   12.5051 H   0  0  0  0  0  0  0  0  0  0  0  0
   42.3196    3.6516   10.9523 H   0  0  0  0  0  0  0  0  0  0  0  0
   43.4161    8.3618   11.8728 H   0  0  0  0  0  0  0  0  0  0  0  0
   44.4502    8.0390   10.4494 H   0  0  0  0  0  0  0  0  0  0  0  0
   45.0271    9.1022   11.7504 H   0  0  0  0  0  0  0  0  0  0  0  0
   48.0681    5.1215   14.8918 H   0  0  0  0  0  0  0  0  0  0  0  0
   47.5314    6.7760   15.2736 H   0  0  0  0  0  0  0  0  0  0  0  0
   48.5772    6.4863   13.8681 H   0  0  0  0  0  0  0  0  0  0  0  0
   46.3686    3.0838   14.3706 H   0  0  0  0  0  0  0  0  0  0  0  0
   48.6213    4.2671   14.6751 H   0  0  0  0  0  0  0  0  0  0  0  0
   46.1307    8.9774   11.6272 H   0  0  0  0  0  0  0  0  0  0  0  0
   47.0056    8.6462   13.1371 H   0  0  0  0  0  0  0  0  0  0  0  0
   47.5785    7.9494   11.5911 H   0  0  0  0  0  0  0  0  0  0  0  0
   41.9489    6.5253   12.1852 H   0  0  0  0  0  0  0  0  0  0  0  0
   42.0183    4.7515   12.0500 H   0  0  0  0  0  0  0  0  0  0  0  0
   42.5189    5.7736   10.6802 H   0  0  0  0  0  0  0  0  0  0  0  0
   43.8460    5.5482   12.8898 H   0  0  0  0  0  0  0  0  0  0  0  0
   43.2879    6.0484   11.4333 H   0  0  0  0  0  0  0  0  0  0  0  0
   46.6258    4.7363   14.3241 H   0  0  0  0  0  0  0  0  0  0  0  0
   46.1556    4.1509   12.8760 H   0  0  0  0  0  0  0  0  0  0  0  0
   47.2593    6.2307   12.5888 H   0  0  0  0  0  0  0  0  0  0  0  0
   46.1149    6.9655   13.7213 H   0  0  0  0  0  0  0  0  0  0  0  0
   45.4539    5.7654   10.9767 H   0  0  0  0  0  0  0  0  0  0  0  0
   45.4148    7.4845   11.3995 H   0  0  0  0  0  0  0  0  0  0  0  0
  2  1  1  0
  3  4  1  0
  4  1  1  0
  5  2  2  0
  6  3  1  0
  7  2  1  0
  8  5  1  0
  9  7  2  0
 10  4  2  0
 11  6  2  0
 12  1  1  0
 13  3  1  0
  5  6  1  0
  8  9  1  0
 15 14  1  0
 16 17  1  0
 17 14  1  0
 18 15  2  0
 19 16  1  0
 20 15  1  0
 21 18  1  0
 22 20  2  0
 23 17  2  0
 24 19  2  0
 25 14  1  0
 26 16  1  0
 18 19  1  0
 21 22  1  0
 28 29  1  0
 29 30  1  0
 30 27  1  0
  8 31  1  0
  9 32  1  0
 12 33  1  0
 12 34  1  0
 12 35  1  0
 13 36  1  0
 13 37  1  0
 13 38  1  0
 21 39  1  0
 22 40  1  0
 25 41  1  0
 25 42  1  0
 25 43  1  0
 26 44  1  0
 26 45  1  0
 26 46  1  0
 27 47  1  0
 27 48  1  0
 28 49  1  0
 28 50  1  0
 29 51  1  0
 29 52  1  0
 30 53  1  0
 30 54  1  0
M  END
> <Uni-Dock RESULT> 
ENERGY=   -5.878  LOWER_BOUND=    0.975  UPPER_BOUND=    3.045
INTER + INTRA:          -5.878
INTER:                  -5.878
INTRA:                   0.000
UNBOUND:                 0.000

$$$$

     RDKit          3D

 54 55  0  0  0  0  0  0  0  0999 V2000
   44.3665    6.5463   12.1726 N   0  0  0  0  0  0  0  0  0  0  0  0
   44.8708    5.2869   12.3876 C   0  0  0  0  0  0  0  0  0  0  0  0
   46.3754    7.4113   13.1554 N   0  0  0  0  0  0  0  0  0  0  0  0
   45.1191    7.6581   12.5592 C   0  0  0  0  0  0  0  0  0  0  0  0
   46.0851    5.0962   12.9667 C   0  0  0  0  0  0  0  0  0  0  0  0
   46.9285    6.1510   13.3954 C   0  0  0  0  0  0  0  0  0  0  0  0
   44.2716    4.1047   12.0739 N   0  0  0  0  0  0  0  0  0  0  0  0
   46.2560    3.7442   13.0184 N   0  0  0  0  0  0  0  0  0  0  0  0
   45.1320    3.1857   12.4658 C   0  0  0  0  0  0  0  0  0  0  0  0
   44.7126    8.8119   12.3913 O   0  0  0  0  0  0  0  0  0  0  0  0
   48.0194    5.9458   13.9174 O   0  0  0  0  0  0  0  0  0  0  0  0
   43.0649    6.7132   11.5527 C   0  0  0  0  0  0  0  0  0  0  0  0
   47.1396    8.5785   13.5488 C   0  0  0  0  0  0  0  0  0  0  0  0
   44.9960    7.2464   12.0935 N   0  0  0  0  0  0  0  0  0  0  0  0
   46.2180    7.1598   12.7144 C   0  0  0  0  0  0  0  0  0  0  0  0
   44.5997    4.9815   12.7746 N   0  0  0  0  0  0  0  0  0  0  0  0
   44.1437    6.1395   12.1067 C   0  0  0  0  0  0  0  0  0  0  0  0
   46.6182    6.0227   13.3418 C   0  0  0  0  0  0  0  0  0  0  0  0
   45.8335    4.8454   13.4158 C   0  0  0  0  0  0  0  0  0  0  0  0
   47.1629    8.1373   12.7937 N   0  0  0  0  0  0  0  0  0  0  0  0
   47.8607    6.2955   13.8334 N   0  0  0  0  0  0  0  0  0  0  0  0
   48.1480    7.5879   13.4768 C   0  0  0  0  0  0  0  0  0  0  0  0
   43.0367    6.1616   11.5604 O   0  0  0  0  0  0  0  0  0  0  0  0
   46.2250    3.8332   13.9875 O   0  0  0  0  0  0  0  0  0  0  0  0
   44.6014    8.4761   11.4313 C   0  0  0  0  0  0  0  0  0  0  0  0
   43.7004    3.8449   12.7757 C   0  0  0  0  0  0  0  0  0  0  0  0
   44.1573    5.3346   12.6671 N   0  0  0  0  0  0  0  0  0  0  0  0
   46.7590    6.2802   13.4604 N   0  0  0  0  0  0  0  0  0  0  0  0
   45.8872    7.1034   12.6100 C   0  0  0  0  0  0  0  0  0  0  0  0
   44.9160    6.2310   11.7927 C   0  0  0  0  0  0  0  0  0  0  0  0
   47.0593    3.2552   13.3925 H   0  0  0  0  0  0  0  0  0  0  0  0
   45.0006    2.1149   12.3783 H   0  0  0  0  0  0  0  0  0  0  0  0
   42.3070    6.2308   12.1783 H   0  0  0  0  0  0  0  0  0  0  0  0
   43.0770    6.2439   10.5637 H   0  0  0  0  0  0  0  0  0  0  0  0
   42.8015    7.7674   11.4348 H   0  0  0  0  0  0  0  0  0  0  0  0
   48.1037    8.3187   13.9933 H   0  0  0  0  0  0  0  0  0  0  0  0
   46.5575    9.1562   14.2739 H   0  0  0  0  0  0  0  0  0  0  0  0
   47.3122    9.2049   12.6674 H   0  0  0  0  0  0  0  0  0  0  0  0
   48.4500    5.6619   14.3585 H   0  0  0  0  0  0  0  0  0  0  0  0
   49.0817    8.0676   13.7414 H   0  0  0  0  0  0  0  0  0  0  0  0
   43.6075    8.3965   10.9838 H   0  0  0  0  0  0  0  0  0  0  0  0
   44.5902    9.2887   12.1642 H   0  0  0  0  0  0  0  0  0  0  0  0
   45.3226    8.7034   10.6394 H   0  0  0  0  0  0  0  0  0  0  0  0
   42.7447    4.1450   13.2180 H   0  0  0  0  0  0  0  0  0  0  0  0
   44.0986    2.9952   13.3360 H   0  0  0  0  0  0  0  0  0  0  0  0
   43.5204    3.5359   11.7407 H   0  0  0  0  0  0  0  0  0  0  0  0
   44.7959    5.0417   13.4141 H   0  0  0  0  0  0  0  0  0  0  0  0
   43.9012    4.4931   12.1564 H   0  0  0  0  0  0  0  0  0  0  0  0
   47.3821    6.8939   13.9839 H   0  0  0  0  0  0  0  0  0  0  0  0
   47.3556    5.7034   12.8691 H   0  0  0  0  0  0  0  0  0  0  0  0
   46.5002    7.7080   11.9332 H   0  0  0  0  0  0  0  0  0  0  0  0
   45.3196    7.7887   13.2493 H   0  0  0  0  0  0  0  0  0  0  0  0
   45.4885    5.6304   11.0760 H   0  0  0  0  0  0  0  0  0  0  0  0
   44.2257    6.8628   11.2254 H   0  0  0  0  0  0  0  0  0  0  0  0
  2  1  1  0
  3  4  1  0
  4  1  1  0
  5  2  2  0
  6  3  1  0
  7  2  1  0
  8  5  1  0
  9  7  2  0
 10  4  2  0
 11  6  2  0
 12  1  1  0
 13  3  1  0
  5  6  1  0
  8  9  1  0
 15 14  1  0
 16 17  1  0
 17 14  1  0
 18 15  2  0
 19 16  1  0
 20 15  1  0
 21 18  1  0
 22 20  2  0
 23 17  2  0
 24 19  2  0
 25 14  1  0
 26 16  1  0
 18 19  1  0
 21 22  1  0
 28 29  1  0
 29 30  1  0
 30 27  1  0
  8 31  1  0
  9 32  1  0
 12 33  1  0
 12 34  1  0
 12 35  1  0
 13 36  1  0
 13 37  1  0
 13 38  1  0
 21 39  1  0
 22 40  1  0
 25 41  1  0
 25 42  1  0
 25 43  1  0
 26 44  1  0
 26 45  1  0
 26 46  1  0
 27 47  1  0
 27 48  1  0
 28 49  1  0
 28 50  1  0
 29 51  1  0
 29 52  1  0
 30 53  1  0
 30 54  1  0
M  END
> <Uni-Dock RESULT> 
ENERGY=   -5.784  LOWER_BOUND=    0.934  UPPER_BOUND=    2.928
INTER + INTRA:          -5.784
INTER:                  -5.784
INTRA:                   0.000
UNBOUND:                 0.000

$$$$

     RDKit          3D

 54 55  0  0  0  0  0  0  0  0999 V2000
   46.1134    4.8350   13.3039 N   0  0  0  0  0  0  0  0  0  0  0  0
   46.7632    6.0240   13.0789 C   0  0  0  0  0  0  0  0  0  0  0  0
   44.1562    5.8374   12.3475 N   0  0  0  0  0  0  0  0  0  0  0  0
   44.7706    4.7113   12.9385 C   0  0  0  0  0  0  0  0  0  0  0  0
   46.1314    7.0831   12.5084 C   0  0  0  0  0  0  0  0  0  0  0  0
   44.7746    7.0655   12.1006 C   0  0  0  0  0  0  0  0  0  0  0  0
   48.0616    6.3114   13.3732 N   0  0  0  0  0  0  0  0  0  0  0  0
   47.0674    8.0727   12.4408 N   0  0  0  0  0  0  0  0  0  0  0  0
   48.2206    7.5586   12.9760 C   0  0  0  0  0  0  0  0  0  0  0  0
   44.1384    3.6663   13.1199 O   0  0  0  0  0  0  0  0  0  0  0  0
   44.2320    8.0399   11.5899 O   0  0  0  0  0  0  0  0  0  0  0  0
   46.8187    3.7246   13.9168 C   0  0  0  0  0  0  0  0  0  0  0  0
   42.7631    5.6875   11.9761 C   0  0  0  0  0  0  0  0  0  0  0  0
   45.3719    4.6465   12.7495 N   0  0  0  0  0  0  0  0  0  0  0  0
   44.6364    5.6664   12.1969 C   0  0  0  0  0  0  0  0  0  0  0  0
   46.9043    6.3128   13.5407 N   0  0  0  0  0  0  0  0  0  0  0  0
   46.5452    4.9501   13.4446 C   0  0  0  0  0  0  0  0  0  0  0  0
   45.0225    6.9643   12.3102 C   0  0  0  0  0  0  0  0  0  0  0  0
   46.1914    7.3822   12.9929 C   0  0  0  0  0  0  0  0  0  0  0  0
   43.4776    5.5459   11.4915 N   0  0  0  0  0  0  0  0  0  0  0  0
   44.0714    7.6865   11.6515 N   0  0  0  0  0  0  0  0  0  0  0  0
   43.1563    6.7845   11.1728 C   0  0  0  0  0  0  0  0  0  0  0  0
   47.2461    4.0722   13.9566 O   0  0  0  0  0  0  0  0  0  0  0  0
   46.5144    8.5627   13.0749 O   0  0  0  0  0  0  0  0  0  0  0  0
   44.9309    3.2712   12.6076 C   0  0  0  0  0  0  0  0  0  0  0  0
   48.1250    6.6054   14.2653 C   0  0  0  0  0  0  0  0  0  0  0  0
   46.8654    5.8034   13.8072 N   0  0  0  0  0  0  0  0  0  0  0  0
   44.7098    6.9360   12.2699 N   0  0  0  0  0  0  0  0  0  0  0  0
   44.8636    5.4790   12.3886 C   0  0  0  0  0  0  0  0  0  0  0  0
   46.3315    5.0897   12.6456 C   0  0  0  0  0  0  0  0  0  0  0  0
   46.9305    9.0030   12.0664 H   0  0  0  0  0  0  0  0  0  0  0  0
   49.1333    8.1360   13.0480 H   0  0  0  0  0  0  0  0  0  0  0  0
   47.1645    4.0263   14.9107 H   0  0  0  0  0  0  0  0  0  0  0  0
   47.6791    3.4599   13.2939 H   0  0  0  0  0  0  0  0  0  0  0  0
   46.1801    2.8437   14.0213 H   0  0  0  0  0  0  0  0  0  0  0  0
   42.3520    6.5895   11.5160 H   0  0  0  0  0  0  0  0  0  0  0  0
   42.1807    5.4474   12.8715 H   0  0  0  0  0  0  0  0  0  0  0  0
   42.6702    4.8551   11.2707 H   0  0  0  0  0  0  0  0  0  0  0  0
   44.0517    8.6925   11.5417 H   0  0  0  0  0  0  0  0  0  0  0  0
   42.2861    7.0884   10.6051 H   0  0  0  0  0  0  0  0  0  0  0  0
   45.6139    2.5722   13.0969 H   0  0  0  0  0  0  0  0  0  0  0  0
   43.9401    3.1653   13.0599 H   0  0  0  0  0  0  0  0  0  0  0  0
   44.8793    3.0199   11.5431 H   0  0  0  0  0  0  0  0  0  0  0  0
   48.0469    6.1964   15.2780 H   0  0  0  0  0  0  0  0  0  0  0  0
   48.3274    7.6775   14.3309 H   0  0  0  0  0  0  0  0  0  0  0  0
   48.9628    6.1154   13.7583 H   0  0  0  0  0  0  0  0  0  0  0  0
   46.4527    6.7421   13.7913 H   0  0  0  0  0  0  0  0  0  0  0  0
   47.8697    5.9252   13.7030 H   0  0  0  0  0  0  0  0  0  0  0  0
   43.7273    7.1503   12.1032 H   0  0  0  0  0  0  0  0  0  0  0  0
   45.2170    7.2603   11.4478 H   0  0  0  0  0  0  0  0  0  0  0  0
   44.5082    4.9969   11.4717 H   0  0  0  0  0  0  0  0  0  0  0  0
   44.2376    5.1266   13.2159 H   0  0  0  0  0  0  0  0  0  0  0  0
   46.9308    5.3446   11.7636 H   0  0  0  0  0  0  0  0  0  0  0  0
   46.4142    4.0105   12.8071 H   0  0  0  0  0  0  0  0  0  0  0  0
  2  1  1  0
  3  4  1  0
  4  1  1  0
  5  2  2  0
  6  3  1  0
  7  2  1  0
  8  5  1  0
  9  7  2  0
 10  4  2  0
 11  6  2  0
 12  1  1  0
 13  3  1  0
  5  6  1  0
  8  9  1  0
 15 14  1  0
 16 17  1  0
 17 14  1  0
 18 15  2  0
 19 16  1  0
 20 15  1  0
 21 18  1  0
 22 20  2  0
 23 17  2  0
 24 19  2  0
 25 14  1  0
 26 16  1  0
 18 19  1  0
 21 22  1  0
 28 29  1  0
 29 30  1  0
 30 27  1  0
  8 31  1  0
  9 32  1  0
 12 33  1  0
 12 34  1  0
 12 35  1  0
 13 36  1  0
 13 37  1  0
 13 38  1  0
 21 39  1  0
 22 40  1  0
 25 41  1  0
 25 42  1  0
 25 43  1  0
 26 44  1  0
 26 45  1  0
 26 46  1  0
 27 47  1  0
 27 48  1  0
 28 49  1  0
 28 50  1  0
 29 51  1  0
 29 52  1  0
 30 53  1  0
 30 54  1  0
M  END
> <Uni-Dock RESULT> 
ENERGY=   -5.784  LOWER_BOUND=    1.083  UPPER_BOUND=    3.138
INTER + INTRA:          -5.784
INTER:                  -5.784
INTRA:                   0.000
UNBOUND:                 0.000

$$$$

     RDKit          3D

 54 55  0  0  0  0  0  0  0  0999 V2000
   46.5958    6.1345   13.4861 N   0  0  0  0  0  0  0  0  0  0  0  0
   46.5324    7.3809   12.9124 C   0  0  0  0  0  0  0  0  0  0  0  0
   44.4437    5.6915   12.5257 N   0  0  0  0  0  0  0  0  0  0  0  0
   45.5340    5.2448   13.3046 C   0  0  0  0  0  0  0  0  0  0  0  0
   45.4617    7.7693   12.1714 C   0  0  0  0  0  0  0  0  0  0  0  0
   44.3340    6.9478   11.9247 C   0  0  0  0  0  0  0  0  0  0  0  0
   47.4733    8.3625   12.9904 N   0  0  0  0  0  0  0  0  0  0  0  0
   45.7401    9.0420   11.7679 N   0  0  0  0  0  0  0  0  0  0  0  0
   46.9691    9.3579   12.2879 C   0  0  0  0  0  0  0  0  0  0  0  0
   45.5384    4.1136   13.7994 O   0  0  0  0  0  0  0  0  0  0  0  0
   43.3812    7.3289   11.2526 O   0  0  0  0  0  0  0  0  0  0  0  0
   47.7542    5.7533   14.2728 C   0  0  0  0  0  0  0  0  0  0  0  0
   43.3532    4.7528   12.3500 C   0  0  0  0  0  0  0  0  0  0  0  0
   46.0866    5.4531   13.0750 N   0  0  0  0  0  0  0  0  0  0  0  0
   44.9477    5.7606   12.3717 C   0  0  0  0  0  0  0  0  0  0  0  0
   46.4823    7.8099   13.2729 N   0  0  0  0  0  0  0  0  0  0  0  0
   46.8967    6.4881   13.5486 C   0  0  0  0  0  0  0  0  0  0  0  0
   44.5895    7.0480   12.1254 C   0  0  0  0  0  0  0  0  0  0  0  0
   45.3363    8.1708   12.5599 C   0  0  0  0  0  0  0  0  0  0  0  0
   44.0542    4.8797   11.8421 N   0  0  0  0  0  0  0  0  0  0  0  0
   43.4279    6.9738   11.4146 N   0  0  0  0  0  0  0  0  0  0  0  0
   43.1431    5.6406   11.2678 C   0  0  0  0  0  0  0  0  0  0  0  0
   47.9333    6.2678   14.1820 O   0  0  0  0  0  0  0  0  0  0  0  0
   44.9874    9.3217   12.3185 O   0  0  0  0  0  0  0  0  0  0  0  0
   46.4400    4.0666   13.3182 C   0  0  0  0  0  0  0  0  0  0  0  0
   47.3372    8.8682   13.7728 C   0  0  0  0  0  0  0  0  0  0  0  0
   46.7062    7.4441   13.6576 N   0  0  0  0  0  0  0  0  0  0  0  0
   44.3402    6.8530   12.1262 N   0  0  0  0  0  0  0  0  0  0  0  0
   45.2316    5.7751   12.5782 C   0  0  0  0  0  0  0  0  0  0  0  0
   46.6735    6.2827   12.7666 C   0  0  0  0  0  0  0  0  0  0  0  0
   45.1500    9.6321   11.1954 H   0  0  0  0  0  0  0  0  0  0  0  0
   47.4386   10.3189   12.1215 H   0  0  0  0  0  0  0  0  0  0  0  0
   47.8501    6.4377   15.1219 H   0  0  0  0  0  0  0  0  0  0  0  0
   48.6494    5.8188   13.6461 H   0  0  0  0  0  0  0  0  0  0  0  0
   47.6700    4.7325   14.6544 H   0  0  0  0  0  0  0  0  0  0  0  0
   42.5482    5.1560   11.7305 H   0  0  0  0  0  0  0  0  0  0  0  0
   42.9487    4.4904   13.3329 H   0  0  0  0  0  0  0  0  0  0  0  0
   43.7395    3.8417   11.8815 H   0  0  0  0  0  0  0  0  0  0  0  0
   42.8871    7.7553   11.0666 H   0  0  0  0  0  0  0  0  0  0  0  0
   42.2664    5.2908   10.7378 H   0  0  0  0  0  0  0  0  0  0  0  0
   47.3682    3.9771   13.8881 H   0  0  0  0  0  0  0  0  0  0  0  0
   45.6354    3.5869   13.8840 H   0  0  0  0  0  0  0  0  0  0  0  0
   46.5705    3.5568   12.3580 H   0  0  0  0  0  0  0  0  0  0  0  0
   47.4454    8.7591   14.8569 H   0  0  0  0  0  0  0  0  0  0  0  0
   46.9434    9.8642   13.5546 H   0  0  0  0  0  0  0  0  0  0  0  0
   48.3269    8.7686   13.3149 H   0  0  0  0  0  0  0  0  0  0  0  0
   45.8629    7.9924   13.4577 H   0  0  0  0  0  0  0  0  0  0  0  0
   47.5000    8.0347   13.4223 H   0  0  0  0  0  0  0  0  0  0  0  0
   43.3992    6.4769   12.0164 H   0  0  0  0  0  0  0  0  0  0  0  0
   44.6336    7.1645   11.2014 H   0  0  0  0  0  0  0  0  0  0  0  0
   45.2193    4.9589   11.8482 H   0  0  0  0  0  0  0  0  0  0  0  0
   44.8517    5.3808   13.5272 H   0  0  0  0  0  0  0  0  0  0  0  0
   47.0841    6.5695   11.7913 H   0  0  0  0  0  0  0  0  0  0  0  0
   47.3044    5.4875   13.1756 H   0  0  0  0  0  0  0  0  0  0  0  0
  2  1  1  0
  3  4  1  0
  4  1  1  0
  5  2  2  0
  6  3  1  0
  7  2  1  0
  8  5  1  0
  9  7  2  0
 10  4  2  0
 11  6  2  0
 12  1  1  0
 13  3  1  0
  5  6  1  0
  8  9  1  0
 15 14  1  0
 16 17  1  0
 17 14  1  0
 18 15  2  0
 19 16  1  0
 20 15  1  0
 21 18  1  0
 22 20  2  0
 23 17  2  0
 24 19  2  0
 25 14  1  0
 26 16  1  0
 18 19  1  0
 21 22  1  0
 28 29  1  0
 29 30  1  0
 30 27  1  0
  8 31  1  0
  9 32  1  0
 12 33  1  0
 12 34  1  0
 12 35  1  0
 13 36  1  0
 13 37  1  0
 13 38  1  0
 21 39  1  0
 22 40  1  0
 25 41  1  0
 25 42  1  0
 25 43  1  0
 26 44  1  0
 26 45  1  0
 26 46  1  0
 27 47  1  0
 27 48  1  0
 28 49  1  0
 28 50  1  0
 29 51  1  0
 29 52  1  0
 30 53  1  0
 30 54  1  0
M  END
> <Uni-Dock RESULT> 
ENERGY=   -5.742  LOWER_BOUND=    0.967  UPPER_BOUND=    3.325
INTER + INTRA:          -5.742
INTER:                  -5.742
INTRA:                   0.000
UNBOUND:                 0.000

$$$$

     RDKit          3D

 54 55  0  0  0  0  0  0  0  0999 V2000
   44.8474    6.7624   12.0488 N   0  0  0  0  0  0  0  0  0  0  0  0
   45.8730    6.3685   12.8731 C   0  0  0  0  0  0  0  0  0  0  0  0
   44.2881    4.4439   11.8007 N   0  0  0  0  0  0  0  0  0  0  0  0
   44.0166    5.7928   11.4818 C   0  0  0  0  0  0  0  0  0  0  0  0
   46.0987    5.0578   13.1514 C   0  0  0  0  0  0  0  0  0  0  0  0
   45.3183    3.9958   12.6311 C   0  0  0  0  0  0  0  0  0  0  0  0
   46.7693    7.1781   13.5025 N   0  0  0  0  0  0  0  0  0  0  0  0
   47.1762    5.0428   13.9872 N   0  0  0  0  0  0  0  0  0  0  0  0
   47.5474    6.3501   14.1714 C   0  0  0  0  0  0  0  0  0  0  0  0
   43.0818    6.0914   10.7325 O   0  0  0  0  0  0  0  0  0  0  0  0
   45.5492    2.8214   12.8998 O   0  0  0  0  0  0  0  0  0  0  0  0
   44.6361    8.1713   11.7719 C   0  0  0  0  0  0  0  0  0  0  0  0
   43.4143    3.4544   11.2020 C   0  0  0  0  0  0  0  0  0  0  0  0
   44.1112    6.1744   11.9787 N   0  0  0  0  0  0  0  0  0  0  0  0
   44.2752    4.8245   12.1715 C   0  0  0  0  0  0  0  0  0  0  0  0
   46.3910    6.4501   12.6693 N   0  0  0  0  0  0  0  0  0  0  0  0
   45.1828    7.0349   12.2296 C   0  0  0  0  0  0  0  0  0  0  0  0
   45.4555    4.3054   12.6005 C   0  0  0  0  0  0  0  0  0  0  0  0
   46.6036    5.0859   12.8829 C   0  0  0  0  0  0  0  0  0  0  0  0
   43.3399    3.8539   11.9768 N   0  0  0  0  0  0  0  0  0  0  0  0
   45.2547    2.9587   12.6786 N   0  0  0  0  0  0  0  0  0  0  0  0
   43.9589    2.7328   12.2910 C   0  0  0  0  0  0  0  0  0  0  0  0
   45.0885    8.2565   12.0772 O   0  0  0  0  0  0  0  0  0  0  0  0
   47.6544    4.5869   13.2721 O   0  0  0  0  0  0  0  0  0  0  0  0
   42.8360    6.6948   11.5212 C   0  0  0  0  0  0  0  0  0  0  0  0
   47.4895    7.3607   12.9242 C   0  0  0  0  0  0  0  0  0  0  0  0
   46.1395    6.8441   12.3325 N   0  0  0  0  0  0  0  0  0  0  0  0
   45.2864    4.0956   12.4345 N   0  0  0  0  0  0  0  0  0  0  0  0
   44.3305    5.1682   12.1234 C   0  0  0  0  0  0  0  0  0  0  0  0
   44.7733    6.5089   12.7387 C   0  0  0  0  0  0  0  0  0  0  0  0
   47.6113    4.2226   14.3899 H   0  0  0  0  0  0  0  0  0  0  0  0
   48.3841    6.6317   14.7977 H   0  0  0  0  0  0  0  0  0  0  0  0
   45.5308    8.5785   11.2900 H   0  0  0  0  0  0  0  0  0  0  0  0
   44.4556    8.6979   12.7146 H   0  0  0  0  0  0  0  0  0  0  0  0
   43.7795    8.3334   11.1128 H   0  0  0  0  0  0  0  0  0  0  0  0
   43.6717    2.4339   11.4967 H   0  0  0  0  0  0  0  0  0  0  0  0
   43.4782    3.5371   10.1122 H   0  0  0  0  0  0  0  0  0  0  0  0
   42.3822    3.6615   11.5037 H   0  0  0  0  0  0  0  0  0  0  0  0
   45.9347    2.2669   12.9674 H   0  0  0  0  0  0  0  0  0  0  0  0
   43.5290    1.7399   12.2588 H   0  0  0  0  0  0  0  0  0  0  0  0
   42.8551    7.7822   11.4139 H   0  0  0  0  0  0  0  0  0  0  0  0
   42.5975    6.2523   10.5492 H   0  0  0  0  0  0  0  0  0  0  0  0
   42.0603    6.4303   12.2473 H   0  0  0  0  0  0  0  0  0  0  0  0
   47.6950    7.9369   12.0161 H   0  0  0  0  0  0  0  0  0  0  0  0
   48.4022    6.8423   13.2289 H   0  0  0  0  0  0  0  0  0  0  0  0
   47.1945    8.0571   13.7161 H   0  0  0  0  0  0  0  0  0  0  0  0
   46.6606    5.9616   12.2954 H   0  0  0  0  0  0  0  0  0  0  0  0
   46.5811    7.4130   13.0506 H   0  0  0  0  0  0  0  0  0  0  0  0
   44.9585    3.2295   12.0087 H   0  0  0  0  0  0  0  0  0  0  0  0
   45.2936    3.9350   13.4407 H   0  0  0  0  0  0  0  0  0  0  0  0
   43.3393    4.8970   12.5019 H   0  0  0  0  0  0  0  0  0  0  0  0
   44.2571    5.2675   11.0348 H   0  0  0  0  0  0  0  0  0  0  0  0
   44.7344    6.4332   13.8318 H   0  0  0  0  0  0  0  0  0  0  0  0
   44.0920    7.3090   12.4332 H   0  0  0  0  0  0  0  0  0  0  0  0
  2  1  1  0
  3  4  1  0
  4  1  1  0
  5  2  2  0
  6  3  1  0
  7  2  1  0
  8  5  1  0
  9  7  2  0
 10  4  2  0
 11  6  2  0
 12  1  1  0
 13  3  1  0
  5  6  1  0
  8  9  1  0
 15 14  1  0
 16 17  1  0
 17 14  1  0
 18 15  2  0
 19 16  1  0
 20 15  1  0
 21 18  1  0
 22 20  2  0
 23 17  2  0
 24 19  2  0
 25 14  1  0
 26 16  1  0
 18 19  1  0
 21 22  1  0
 28 29  1  0
 29 30  1  0
 30 27  1  0
  8 31  1  0
  9 32  1  0
 12 33  1  0
 12 34  1  0
 12 35  1  0
 13 36  1  0
 13 37  1  0
 13 38  1  0
 21 39  1  0
 22 40  1  0
 25 41  1  0
 25 42  1  0
 25 43  1  0
 26 44  1  0
 26 45  1  0
 26 46  1  0
 27 47  1  0
 27 48  1  0
 28 49  1  0
 28 50  1  0
 29 51  1  0
 29 52  1  0
 30 53  1  0
 30 54  1  0
M  END
> <Uni-Dock RESULT> 
ENERGY=   -5.406  LOWER_BOUND=    0.962  UPPER_BOUND=    4.202
INTER + INTRA:          -5.406
INTER:                  -5.406
INTRA:                   0.000
UNBOUND:                 0.000

$$$$

     RDKit          3D

 54 55  0  0  0  0  0  0  0  0999 V2000
   47.0836    7.7408   13.4941 N   0  0  0  0  0  0  0  0  0  0  0  0
   46.0147    7.7178   12.6318 C   0  0  0  0  0  0  0  0  0  0  0  0
   46.7205    5.3975   13.8500 N   0  0  0  0  0  0  0  0  0  0  0  0
   47.4682    6.5611   14.1360 C   0  0  0  0  0  0  0  0  0  0  0  0
   45.3223    6.5745   12.3875 C   0  0  0  0  0  0  0  0  0  0  0  0
   45.6271    5.3257   12.9834 C   0  0  0  0  0  0  0  0  0  0  0  0
   45.5114    8.7707   11.9297 N   0  0  0  0  0  0  0  0  0  0  0  0
   44.3482    6.9212   11.4982 N   0  0  0  0  0  0  0  0  0  0  0  0
   44.5028    8.2611   11.2503 C   0  0  0  0  0  0  0  0  0  0  0  0
   48.4199    6.5260   14.9219 O   0  0  0  0  0  0  0  0  0  0  0  0
   44.9808    4.3110   12.7436 O   0  0  0  0  0  0  0  0  0  0  0  0
   47.7997    8.9803   13.7329 C   0  0  0  0  0  0  0  0  0  0  0  0
   47.1363    4.1848   14.5266 C   0  0  0  0  0  0  0  0  0  0  0  0
   47.5416    6.9244   13.6222 N   0  0  0  0  0  0  0  0  0  0  0  0
   46.8885    5.7261   13.4675 C   0  0  0  0  0  0  0  0  0  0  0  0
   45.5586    7.9977   12.8058 N   0  0  0  0  0  0  0  0  0  0  0  0
   46.8819    8.1094   13.2869 C   0  0  0  0  0  0  0  0  0  0  0  0
   45.6155    5.6653   12.9962 C   0  0  0  0  0  0  0  0  0  0  0  0
   44.8560    6.8033   12.6284 C   0  0  0  0  0  0  0  0  0  0  0  0
   47.3826    4.4873   13.7434 N   0  0  0  0  0  0  0  0  0  0  0  0
   45.2975    4.3392   12.9749 N   0  0  0  0  0  0  0  0  0  0  0  0
   46.3986    3.6649   13.4363 C   0  0  0  0  0  0  0  0  0  0  0  0
   47.4235    9.2129   13.4020 O   0  0  0  0  0  0  0  0  0  0  0  0
   43.7090    6.7146   12.2029 O   0  0  0  0  0  0  0  0  0  0  0  0
   48.9021    6.9523   14.1267 C   0  0  0  0  0  0  0  0  0  0  0  0
   44.8931    9.2389   12.4634 C   0  0  0  0  0  0  0  0  0  0  0  0
   45.9280    8.2856   13.1414 N   0  0  0  0  0  0  0  0  0  0  0  0
   45.6873    5.4162   13.1779 N   0  0  0  0  0  0  0  0  0  0  0  0
   46.9650    6.0674   13.5009 C   0  0  0  0  0  0  0  0  0  0  0  0
   47.0810    7.4431   12.8179 C   0  0  0  0  0  0  0  0  0  0  0  0
   43.6508    6.3040   11.1019 H   0  0  0  0  0  0  0  0  0  0  0  0
   43.8560    8.8030   10.5724 H   0  0  0  0  0  0  0  0  0  0  0  0
   47.1077    9.7169   14.1538 H   0  0  0  0  0  0  0  0  0  0  0  0
   48.1979    9.3521   12.7833 H   0  0  0  0  0  0  0  0  0  0  0  0
   48.6308    8.8435   14.4294 H   0  0  0  0  0  0  0  0  0  0  0  0
   46.5243    3.3213   14.2542 H   0  0  0  0  0  0  0  0  0  0  0  0
   47.0702    4.3411   15.6081 H   0  0  0  0  0  0  0  0  0  0  0  0
   48.1803    3.9748   14.2716 H   0  0  0  0  0  0  0  0  0  0  0  0
   44.4176    3.9385   12.6753 H   0  0  0  0  0  0  0  0  0  0  0  0
   46.4220    2.5862   13.5247 H   0  0  0  0  0  0  0  0  0  0  0  0
   49.2898    7.9718   14.1955 H   0  0  0  0  0  0  0  0  0  0  0  0
   48.9224    6.5030   15.1243 H   0  0  0  0  0  0  0  0  0  0  0  0
   49.5461    6.3798   13.4511 H   0  0  0  0  0  0  0  0  0  0  0  0
   44.8879    9.8959   13.3394 H   0  0  0  0  0  0  0  0  0  0  0  0
   43.8636    9.0850   12.1300 H   0  0  0  0  0  0  0  0  0  0  0  0
   45.4559    9.7328   11.6644 H   0  0  0  0  0  0  0  0  0  0  0  0
   45.1122    7.6655   13.1818 H   0  0  0  0  0  0  0  0  0  0  0  0
   45.7583    8.9408   12.3823 H   0  0  0  0  0  0  0  0  0  0  0  0
   45.6502    4.5134   13.6495 H   0  0  0  0  0  0  0  0  0  0  0  0
   45.6554    5.2188   12.1787 H   0  0  0  0  0  0  0  0  0  0  0  0
   47.7940    5.4260   13.1835 H   0  0  0  0  0  0  0  0  0  0  0  0
   47.0323    6.1876   14.5878 H   0  0  0  0  0  0  0  0  0  0  0  0
   47.1267    7.3025   11.7316 H   0  0  0  0  0  0  0  0  0  0  0  0
   48.0021    7.9444   13.1306 H   0  0  0  0  0  0  0  0  0  0  0  0
  2  1  1  0
  3  4  1  0
  4  1  1  0
  5  2  2  0
  6  3  1  0
  7  2  1  0
  8  5  1  0
  9  7  2  0
 10  4  2  0
 11  6  2  0
 12  1  1  0
 13  3  1  0
  5  6  1  0
  8  9  1  0
 15 14  1  0
 16 17  1  0
 17 14  1  0
 18 15  2  0
 19 16  1  0
 20 15  1  0
 21 18  1  0
 22 20  2  0
 23 17  2  0
 24 19  2  0
 25 14  1  0
 26 16  1  0
 18 19  1  0
 21 22  1  0
 28 29  1  0
 29 30  1  0
 30 27  1  0
  8 31  1  0
  9 32  1  0
 12 33  1  0
 12 34  1  0
 12 35  1  0
 13 36  1  0
 13 37  1  0
 13 38  1  0
 21 39  1  0
 22 40  1  0
 25 41  1  0
 25 42  1  0
 25 43  1  0
 26 44  1  0
 26 45  1  0
 26 46  1  0
 27 47  1  0
 27 48  1  0
 28 49  1  0
 28 50  1  0
 29 51  1  0
 29 52  1  0
 30 53  1  0
 30 54  1  0
M  END
> <Uni-Dock RESULT> 
ENERGY=   -5.362  LOWER_BOUND=    1.292  UPPER_BOUND=    3.479
INTER + INTRA:          -5.362
INTER:                  -5.362
INTRA:                   0.000
UNBOUND:                 0.000

$$$$

     RDKit          3D

 54 55  0  0  0  0  0  0  0  0999 V2000
   45.0840    5.6371   12.1890 N   0  0  0  0  0  0  0  0  0  0  0  0
   46.2192    6.2563   12.6522 C   0  0  0  0  0  0  0  0  0  0  0  0
   44.2008    7.8184   11.7290 N   0  0  0  0  0  0  0  0  0  0  0  0
   44.0287    6.4167   11.7091 C   0  0  0  0  0  0  0  0  0  0  0  0
   46.3408    7.6096   12.6543 C   0  0  0  0  0  0  0  0  0  0  0  0
   45.3339    8.4924   12.1911 C   0  0  0  0  0  0  0  0  0  0  0  0
   47.3321    5.6502   13.1512 N   0  0  0  0  0  0  0  0  0  0  0  0
   47.5762    7.8638   13.1730 N   0  0  0  0  0  0  0  0  0  0  0  0
   48.1393    6.6464   13.4587 C   0  0  0  0  0  0  0  0  0  0  0  0
   42.9854    5.9119   11.2831 O   0  0  0  0  0  0  0  0  0  0  0  0
   45.4734    9.7109   12.2081 O   0  0  0  0  0  0  0  0  0  0  0  0
   44.9875    4.1891   12.2028 C   0  0  0  0  0  0  0  0  0  0  0  0
   43.0940    8.6082   11.2267 C   0  0  0  0  0  0  0  0  0  0  0  0
   44.5667    6.1168   11.5606 N   0  0  0  0  0  0  0  0  0  0  0  0
   44.5785    7.4902   11.5499 C   0  0  0  0  0  0  0  0  0  0  0  0
   46.3085    6.2129   13.2060 N   0  0  0  0  0  0  0  0  0  0  0  0
   45.4484    5.4332   12.4015 C   0  0  0  0  0  0  0  0  0  0  0  0
   45.4274    8.2004   12.3383 C   0  0  0  0  0  0  0  0  0  0  0  0
   46.3592    7.6089   13.2266 C   0  0  0  0  0  0  0  0  0  0  0  0
   43.7920    8.3060   10.7946 N   0  0  0  0  0  0  0  0  0  0  0  0
   45.1650    9.5113   12.0684 N   0  0  0  0  0  0  0  0  0  0  0  0
   44.1674    9.5254   11.1278 C   0  0  0  0  0  0  0  0  0  0  0  0
   45.4828    4.1999   12.4471 O   0  0  0  0  0  0  0  0  0  0  0  0
   47.1147    8.2785   13.9233 O   0  0  0  0  0  0  0  0  0  0  0  0
   43.6478    5.3901   10.7040 C   0  0  0  0  0  0  0  0  0  0  0  0
   47.2151    5.4838   14.0704 C   0  0  0  0  0  0  0  0  0  0  0  0
   45.9658    5.7510   13.1718 N   0  0  0  0  0  0  0  0  0  0  0  0
   45.1670    8.3648   12.2652 N   0  0  0  0  0  0  0  0  0  0  0  0
   44.6233    7.1525   11.6362 C   0  0  0  0  0  0  0  0  0  0  0  0
   45.5968    5.9666   11.7715 C   0  0  0  0  0  0  0  0  0  0  0  0
   47.9906    8.7761   13.3156 H   0  0  0  0  0  0  0  0  0  0  0  0
   49.1297    6.5523   13.8851 H   0  0  0  0  0  0  0  0  0  0  0  0
   45.0762    3.8352   13.2350 H   0  0  0  0  0  0  0  0  0  0  0  0
   45.8003    3.7706   11.6006 H   0  0  0  0  0  0  0  0  0  0  0  0
   44.0358    3.8399   11.7941 H   0  0  0  0  0  0  0  0  0  0  0  0
   43.2952    9.6819   11.2605 H   0  0  0  0  0  0  0  0  0  0  0  0
   42.2037    8.3939   11.8267 H   0  0  0  0  0  0  0  0  0  0  0  0
   42.8901    8.3175   10.1909 H   0  0  0  0  0  0  0  0  0  0  0  0
   45.6220   10.3124   12.4854 H   0  0  0  0  0  0  0  0  0  0  0  0
   43.7606   10.4460   10.7290 H   0  0  0  0  0  0  0  0  0  0  0  0
   43.7526    4.3084   10.8199 H   0  0  0  0  0  0  0  0  0  0  0  0
   42.6219    5.6709   10.9611 H   0  0  0  0  0  0  0  0  0  0  0  0
   43.8507    5.6495    9.6598 H   0  0  0  0  0  0  0  0  0  0  0  0
   46.6344    4.8244   14.7238 H   0  0  0  0  0  0  0  0  0  0  0  0
   47.8282    6.1446   14.6886 H   0  0  0  0  0  0  0  0  0  0  0  0
   47.8726    4.8647   13.4510 H   0  0  0  0  0  0  0  0  0  0  0  0
   46.0335    6.6782   13.6047 H   0  0  0  0  0  0  0  0  0  0  0  0
   46.8938    5.3378   13.2222 H   0  0  0  0  0  0  0  0  0  0  0  0
   44.4936    9.1221   12.1556 H   0  0  0  0  0  0  0  0  0  0  0  0
   46.0065    8.6537   11.7651 H   0  0  0  0  0  0  0  0  0  0  0  0
   44.4226    7.3473   10.5774 H   0  0  0  0  0  0  0  0  0  0  0  0
   43.6705    6.9052   12.1172 H   0  0  0  0  0  0  0  0  0  0  0  0
   46.5032    6.1775   11.1919 H   0  0  0  0  0  0  0  0  0  0  0  0
   45.1434    5.0567   11.3663 H   0  0  0  0  0  0  0  0  0  0  0  0
  2  1  1  0
  3  4  1  0
  4  1  1  0
  5  2  2  0
  6  3  1  0
  7  2  1  0
  8  5  1  0
  9  7  2  0
 10  4  2  0
 11  6  2  0
 12  1  1  0
 13  3  1  0
  5  6  1  0
  8  9  1  0
 15 14  1  0
 16 17  1  0
 17 14  1  0
 18 15  2  0
 19 16  1  0
 20 15  1  0
 21 18  1  0
 22 20  2  0
 23 17  2  0
 24 19  2  0
 25 14  1  0
 26 16  1  0
 18 19  1  0
 21 22  1  0
 28 29  1  0
 29 30  1  0
 30 27  1  0
  8 31  1  0
  9 32  1  0
 12 33  1  0
 12 34  1  0
 12 35  1  0
 13 36  1  0
 13 37  1  0
 13 38  1  0
 21 39  1  0
 22 40  1  0
 25 41  1  0
 25 42  1  0
 25 43  1  0
 26 44  1  0
 26 45  1  0
 26 46  1  0
 27 47  1  0
 27 48  1  0
 28 49  1  0
 28 50  1  0
 29 51  1  0
 29 52  1  0
 30 53  1  0
 30 54  1  0
M  END
> <Uni-Dock RESULT> 
ENERGY=   -5.153  LOWER_BOUND=    1.225  UPPER_BOUND=    3.194
INTER + INTRA:          -5.153
INTER:                  -5.153
INTRA:                   0.000
UNBOUND:                 0.000

$$$$
