
     RDKit          3D

 54 55  0  0  0  0  0  0  0  0999 V2000
   45.8476    4.7888   13.1705 N   0  0  0  0  0  0  0  0  0  0  0  0
   44.7744    4.2287   12.5215 C   0  0  0  0  0  0  0  0  0  0  0  0
   45.1336    6.9109   12.3120 N   0  0  0  0  0  0  0  0  0  0  0  0
   46.0532    6.1680   13.0851 C   0  0  0  0  0  0  0  0  0  0  0  0
   43.9081    4.9841   11.7968 C   0  0  0  0  0  0  0  0  0  0  0  0
   44.0249    6.3877   11.6422 C   0  0  0  0  0  0  0  0  0  0  0  0
   44.4290    2.9114   12.5050 N   0  0  0  0  0  0  0  0  0  0  0  0
   42.9834    4.1095   11.3068 N   0  0  0  0  0  0  0  0  0  0  0  0
   43.3404    2.8663   11.7620 C   0  0  0  0  0  0  0  0  0  0  0  0
   46.9948    6.7243   13.6580 O   0  0  0  0  0  0  0  0  0  0  0  0
   43.2217    7.0428   10.9863 O   0  0  0  0  0  0  0  0  0  0  0  0
   46.7491    3.9525   13.9415 C   0  0  0  0  0  0  0  0  0  0  0  0
   45.3653    8.3396   12.2357 C   0  0  0  0  0  0  0  0  0  0  0  0
   45.9696    4.8839   13.0779 N   0  0  0  0  0  0  0  0  0  0  0  0
   44.9188    4.2092   12.5059 C   0  0  0  0  0  0  0  0  0  0  0  0
   44.9255    6.9192   12.3588 N   0  0  0  0  0  0  0  0  0  0  0  0
   45.9986    6.2793   13.0177 C   0  0  0  0  0  0  0  0  0  0  0  0
   43.9065    4.8666   11.8818 C   0  0  0  0  0  0  0  0  0  0  0  0
   43.8374    6.2768   11.7631 C   0  0  0  0  0  0  0  0  0  0  0  0
   44.7366    2.8599   12.4754 N   0  0  0  0  0  0  0  0  0  0  0  0
   43.0565    3.8947   11.4427 N   0  0  0  0  0  0  0  0  0  0  0  0
   43.6011    2.6959   11.8255 C   0  0  0  0  0  0  0  0  0  0  0  0
   46.9183    6.9351   13.5159 O   0  0  0  0  0  0  0  0  0  0  0  0
   42.9093    6.8406   11.1931 O   0  0  0  0  0  0  0  0  0  0  0  0
   47.0336    4.1493   13.7374 C   0  0  0  0  0  0  0  0  0  0  0  0
   44.9759    8.3669   12.3070 C   0  0  0  0  0  0  0  0  0  0  0  0
   44.9343    7.2316   13.0148 N   0  0  0  0  0  0  0  0  0  0  0  0
   44.8464    3.6117   11.9585 N   0  0  0  0  0  0  0  0  0  0  0  0
   44.3237    4.9127   12.3757 C   0  0  0  0  0  0  0  0  0  0  0  0
   45.4468    5.9522   12.5243 C   0  0  0  0  0  0  0  0  0  0  0  0
   42.1904    4.3407   10.7219 H   0  0  0  0  0  0  0  0  0  0  0  0
   42.7734    1.9764   11.5207 H   0  0  0  0  0  0  0  0  0  0  0  0
   47.5622    4.5320   14.3867 H   0  0  0  0  0  0  0  0  0  0  0  0
   47.1821    3.1923   13.2838 H   0  0  0  0  0  0  0  0  0  0  0  0
   46.1858    3.4659   14.7440 H   0  0  0  0  0  0  0  0  0  0  0  0
   44.6543    8.8448   11.5772 H   0  0  0  0  0  0  0  0  0  0  0  0
   46.3802    8.5202   11.8661 H   0  0  0  0  0  0  0  0  0  0  0  0
   45.2827    8.7642   13.2416 H   0  0  0  0  0  0  0  0  0  0  0  0
   42.1935    4.0383   10.9338 H   0  0  0  0  0  0  0  0  0  0  0  0
   43.1280    1.7480   11.6038 H   0  0  0  0  0  0  0  0  0  0  0  0
   47.5016    3.4728   13.0155 H   0  0  0  0  0  0  0  0  0  0  0  0
   46.6086    3.5689   14.5623 H   0  0  0  0  0  0  0  0  0  0  0  0
   47.8009    4.8161   14.1389 H   0  0  0  0  0  0  0  0  0  0  0  0
   44.1175    8.7983   11.7860 H   0  0  0  0  0  0  0  0  0  0  0  0
   45.8935    8.6726   11.7936 H   0  0  0  0  0  0  0  0  0  0  0  0
   45.0049    8.7588   13.3292 H   0  0  0  0  0  0  0  0  0  0  0  0
   44.5648    7.1129   13.9569 H   0  0  0  0  0  0  0  0  0  0  0  0
   45.7085    7.8900   13.0934 H   0  0  0  0  0  0  0  0  0  0  0  0
   44.0704    2.9568   11.8676 H   0  0  0  0  0  0  0  0  0  0  0  0
   45.4513    3.2369   12.6878 H   0  0  0  0  0  0  0  0  0  0  0  0
   43.5961    5.2578   11.6326 H   0  0  0  0  0  0  0  0  0  0  0  0
   43.7923    4.7919   13.3268 H   0  0  0  0  0  0  0  0  0  0  0  0
   46.2103    5.5868   13.2206 H   0  0  0  0  0  0  0  0  0  0  0  0
   45.9332    6.1124   11.5556 H   0  0  0  0  0  0  0  0  0  0  0  0
  2  1  1  0
  3  4  1  0
  4  1  1  0
  5  2  2  0
  6  3  1  0
  7  2  1  0
  8  5  1  0
  9  7  2  0
 10  4  2  0
 11  6  2  0
 12  1  1  0
 13  3  1  0
  5  6  1  0
  8  9  1  0
 15 14  1  0
 16 17  1  0
 17 14  1  0
 18 15  2  0
 19 16  1  0
 20 15  1  0
 21 18  1  0
 22 20  2  0
 23 17  2  0
 24 19  2  0
 25 14  1  0
 26 16  1  0
 18 19  1  0
 21 22  1  0
 28 29  1  0
 29 30  1  0
 30 27  1  0
  8 31  1  0
  9 32  1  0
 12 33  1  0
 12 34  1  0
 12 35  1  0
 13 36  1  0
 13 37  1  0
 13 38  1  0
 21 39  1  0
 22 40  1  0
 25 41  1  0
 25 42  1  0
 25 43  1  0
 26 44  1  0
 26 45  1  0
 26 46  1  0
 27 47  1  0
 27 48  1  0
 28 49  1  0
 28 50  1  0
 29 51  1  0
 29 52  1  0
 30 53  1  0
 30 54  1  0
M  END
> <Uni-Dock RESULT> 
ENERGY=   -7.533  LOWER_BOUND=    0.000  UPPER_BOUND=    0.000
INTER + INTRA:          -7.533
INTER:                  -7.533
INTRA:                   0.000
UNBOUND:                 0.000

$$$$

     RDKit          3D

 54 55  0  0  0  0  0  0  0  0999 V2000
   46.2946    5.6550   13.0636 N   0  0  0  0  0  0  0  0  0  0  0  0
   45.6360    6.7583   12.5783 C   0  0  0  0  0  0  0  0  0  0  0  0
   44.4339    4.3387   12.3184 N   0  0  0  0  0  0  0  0  0  0  0  0
   45.7021    4.3960   12.9377 C   0  0  0  0  0  0  0  0  0  0  0  0
   44.4206    6.6549   11.9794 C   0  0  0  0  0  0  0  0  0  0  0  0
   43.7305    5.4300   11.8030 C   0  0  0  0  0  0  0  0  0  0  0  0
   46.0704    8.0485   12.6155 N   0  0  0  0  0  0  0  0  0  0  0  0
   44.0785    7.9271   11.6267 N   0  0  0  0  0  0  0  0  0  0  0  0
   45.1082    8.7365   12.0325 C   0  0  0  0  0  0  0  0  0  0  0  0
   46.2553    3.3706   13.3460 O   0  0  0  0  0  0  0  0  0  0  0  0
   42.6364    5.3690   11.2517 O   0  0  0  0  0  0  0  0  0  0  0  0
   47.5949    5.8016   13.6916 C   0  0  0  0  0  0  0  0  0  0  0  0
   43.8366    3.0235   12.1986 C   0  0  0  0  0  0  0  0  0  0  0  0
   46.2156    5.5495   13.1867 N   0  0  0  0  0  0  0  0  0  0  0  0
   45.6780    6.7216   12.7138 C   0  0  0  0  0  0  0  0  0  0  0  0
   44.4022    4.4017   12.1170 N   0  0  0  0  0  0  0  0  0  0  0  0
   45.5801    4.3403   12.8942 C   0  0  0  0  0  0  0  0  0  0  0  0
   44.5419    6.7336   11.9685 C   0  0  0  0  0  0  0  0  0  0  0  0
   43.8188    5.5675   11.6150 C   0  0  0  0  0  0  0  0  0  0  0  0
   46.1675    7.9781   12.9050 N   0  0  0  0  0  0  0  0  0  0  0  0
   44.3084    8.0460   11.6806 N   0  0  0  0  0  0  0  0  0  0  0  0
   45.3191    8.7620   12.2688 C   0  0  0  0  0  0  0  0  0  0  0  0
   46.0207    3.2583   13.2930 O   0  0  0  0  0  0  0  0  0  0  0  0
   42.7955    5.6117   10.9403 O   0  0  0  0  0  0  0  0  0  0  0  0
   47.4313    5.5739   13.9791 C   0  0  0  0  0  0  0  0  0  0  0  0
   43.7585    3.1360   11.8261 C   0  0  0  0  0  0  0  0  0  0  0  0
   44.8259    3.9399   11.7494 N   0  0  0  0  0  0  0  0  0  0  0  0
   45.4467    7.4264   13.0481 N   0  0  0  0  0  0  0  0  0  0  0  0
   45.0750    6.3855   12.0898 C   0  0  0  0  0  0  0  0  0  0  0  0
   45.1232    4.9870   12.7268 C   0  0  0  0  0  0  0  0  0  0  0  0
   43.2282    8.2107   11.1566 H   0  0  0  0  0  0  0  0  0  0  0  0
   45.0989    9.8076   11.8766 H   0  0  0  0  0  0  0  0  0  0  0  0
   47.9886    4.8438   14.0421 H   0  0  0  0  0  0  0  0  0  0  0  0
   47.5041    6.4761   14.5487 H   0  0  0  0  0  0  0  0  0  0  0  0
   48.2964    6.2236   12.9650 H   0  0  0  0  0  0  0  0  0  0  0  0
   42.8342    3.0567   11.7644 H   0  0  0  0  0  0  0  0  0  0  0  0
   43.7778    2.5634   13.1905 H   0  0  0  0  0  0  0  0  0  0  0  0
   44.4783    2.4014   11.5659 H   0  0  0  0  0  0  0  0  0  0  0  0
   43.5368    8.4125   11.1376 H   0  0  0  0  0  0  0  0  0  0  0  0
   45.3817    9.8402   12.1988 H   0  0  0  0  0  0  0  0  0  0  0  0
   47.2621    6.1797   14.8748 H   0  0  0  0  0  0  0  0  0  0  0  0
   48.2366    6.0156   13.3840 H   0  0  0  0  0  0  0  0  0  0  0  0
   47.7361    4.5710   14.2888 H   0  0  0  0  0  0  0  0  0  0  0  0
   42.8557    3.2536   11.2216 H   0  0  0  0  0  0  0  0  0  0  0  0
   43.4934    2.6469   12.7692 H   0  0  0  0  0  0  0  0  0  0  0  0
   44.4642    2.4929   11.2898 H   0  0  0  0  0  0  0  0  0  0  0  0
   45.5517    3.9243   11.0344 H   0  0  0  0  0  0  0  0  0  0  0  0
   44.8638    3.0333   12.2137 H   0  0  0  0  0  0  0  0  0  0  0  0
   45.3964    8.3342   12.5870 H   0  0  0  0  0  0  0  0  0  0  0  0
   46.4189    7.3023   13.3271 H   0  0  0  0  0  0  0  0  0  0  0  0
   44.0639    6.5886   11.7194 H   0  0  0  0  0  0  0  0  0  0  0  0
   45.7566    6.4341   11.2327 H   0  0  0  0  0  0  0  0  0  0  0  0
   46.1151    4.8004   13.1543 H   0  0  0  0  0  0  0  0  0  0  0  0
   44.3953    4.9271   13.5437 H   0  0  0  0  0  0  0  0  0  0  0  0
  2  1  1  0
  3  4  1  0
  4  1  1  0
  5  2  2  0
  6  3  1  0
  7  2  1  0
  8  5  1  0
  9  7  2  0
 10  4  2  0
 11  6  2  0
 12  1  1  0
 13  3  1  0
  5  6  1  0
  8  9  1  0
 15 14  1  0
 16 17  1  0
 17 14  1  0
 18 15  2  0
 19 16  1  0
 20 15  1  0
 21 18  1  0
 22 20  2  0
 23 17  2  0
 24 19  2  0
 25 14  1  0
 26 16  1  0
 18 19  1  0
 21 22  1  0
 28 29  1  0
 29 30  1  0
 30 27  1  0
  8 31  1  0
  9 32  1  0
 12 33  1  0
 12 34  1  0
 12 35  1  0
 13 36  1  0
 13 37  1  0
 13 38  1  0
 21 39  1  0
 22 40  1  0
 25 41  1  0
 25 42  1  0
 25 43  1  0
 26 44  1  0
 26 45  1  0
 26 46  1  0
 27 47  1  0
 27 48  1  0
 28 49  1  0
 28 50  1  0
 29 51  1  0
 29 52  1  0
 30 53  1  0
 30 54  1  0
M  END
> <Uni-Dock RESULT> 
ENERGY=   -7.343  LOWER_BOUND=    1.315  UPPER_BOUND=    3.389
INTER + INTRA:          -7.343
INTER:                  -7.343
INTRA:                   0.000
UNBOUND:                 0.000

$$$$

     RDKit          3D

 54 55  0  0  0  0  0  0  0  0999 V2000
   44.2419    5.8263   12.3465 N   0  0  0  0  0  0  0  0  0  0  0  0
   44.9026    7.0304   12.3664 C   0  0  0  0  0  0  0  0  0  0  0  0
   46.2206    4.8375   13.2723 N   0  0  0  0  0  0  0  0  0  0  0  0
   44.8941    4.6821   12.8128 C   0  0  0  0  0  0  0  0  0  0  0  0
   46.1764    7.1353   12.8277 C   0  0  0  0  0  0  0  0  0  0  0  0
   46.9294    6.0404   13.3193 C   0  0  0  0  0  0  0  0  0  0  0  0
   44.4154    8.2340   11.9556 N   0  0  0  0  0  0  0  0  0  0  0  0
   46.5020    8.4538   12.7026 N   0  0  0  0  0  0  0  0  0  0  0  0
   45.4044    9.0796   12.1699 C   0  0  0  0  0  0  0  0  0  0  0  0
   44.3431    3.5773   12.8281 O   0  0  0  0  0  0  0  0  0  0  0  0
   48.0760    6.1692   13.7354 O   0  0  0  0  0  0  0  0  0  0  0  0
   42.8790    5.7521   11.8532 C   0  0  0  0  0  0  0  0  0  0  0  0
   46.8793    3.6382   13.7508 C   0  0  0  0  0  0  0  0  0  0  0  0
   44.3119    5.6863   12.2571 N   0  0  0  0  0  0  0  0  0  0  0  0
   44.8482    6.9508   12.2560 C   0  0  0  0  0  0  0  0  0  0  0  0
   46.2704    4.9638   13.4370 N   0  0  0  0  0  0  0  0  0  0  0  0
   45.0221    4.6444   12.8585 C   0  0  0  0  0  0  0  0  0  0  0  0
   46.0538    7.2128   12.8254 C   0  0  0  0  0  0  0  0  0  0  0  0
   46.8555    6.2321   13.4602 C   0  0  0  0  0  0  0  0  0  0  0  0
   44.2918    8.0714   11.7179 N   0  0  0  0  0  0  0  0  0  0  0  0
   46.2632    8.5474   12.6384 N   0  0  0  0  0  0  0  0  0  0  0  0
   45.1693    9.0247   11.9632 C   0  0  0  0  0  0  0  0  0  0  0  0
   44.5862    3.4897   12.8887 O   0  0  0  0  0  0  0  0  0  0  0  0
   47.9404    6.5007   13.9653 O   0  0  0  0  0  0  0  0  0  0  0  0
   43.0210    5.4427   11.6402 C   0  0  0  0  0  0  0  0  0  0  0  0
   46.9908    3.8680   14.0546 C   0  0  0  0  0  0  0  0  0  0  0  0
   45.9058    4.6482   13.9804 N   0  0  0  0  0  0  0  0  0  0  0  0
   45.0154    7.5060   11.6853 N   0  0  0  0  0  0  0  0  0  0  0  0
   45.5254    6.8423   12.8850 C   0  0  0  0  0  0  0  0  0  0  0  0
   45.4675    5.3116   12.7524 C   0  0  0  0  0  0  0  0  0  0  0  0
   47.3843    8.8801   12.9563 H   0  0  0  0  0  0  0  0  0  0  0  0
   45.3869   10.1419   11.9632 H   0  0  0  0  0  0  0  0  0  0  0  0
   42.4897    4.7310   11.8827 H   0  0  0  0  0  0  0  0  0  0  0  0
   42.8538    6.1053   10.8175 H   0  0  0  0  0  0  0  0  0  0  0  0
   42.2399    6.3884   12.4737 H   0  0  0  0  0  0  0  0  0  0  0  0
   47.9190    3.8168   14.0363 H   0  0  0  0  0  0  0  0  0  0  0  0
   46.8537    2.8759   12.9651 H   0  0  0  0  0  0  0  0  0  0  0  0
   46.3316    3.2583   14.6196 H   0  0  0  0  0  0  0  0  0  0  0  0
   47.0714    9.0757   12.9419 H   0  0  0  0  0  0  0  0  0  0  0  0
   45.0713   10.0651   11.6815 H   0  0  0  0  0  0  0  0  0  0  0  0
   43.0725    5.7185   10.5823 H   0  0  0  0  0  0  0  0  0  0  0  0
   42.2644    6.0536   12.1424 H   0  0  0  0  0  0  0  0  0  0  0  0
   42.7262    4.3927   11.7130 H   0  0  0  0  0  0  0  0  0  0  0  0
   47.9458    4.1823   14.4831 H   0  0  0  0  0  0  0  0  0  0  0  0
   47.1765    3.0952   13.3013 H   0  0  0  0  0  0  0  0  0  0  0  0
   46.3705    3.4361   14.8470 H   0  0  0  0  0  0  0  0  0  0  0  0
   45.2588    4.8675   14.7365 H   0  0  0  0  0  0  0  0  0  0  0  0
   45.8564    3.6388   13.8470 H   0  0  0  0  0  0  0  0  0  0  0  0
   45.0768    8.5154   11.8139 H   0  0  0  0  0  0  0  0  0  0  0  0
   44.0254    7.2931   11.5719 H   0  0  0  0  0  0  0  0  0  0  0  0
   46.5604    7.1602   13.0539 H   0  0  0  0  0  0  0  0  0  0  0  0
   44.9344    7.1695   13.7484 H   0  0  0  0  0  0  0  0  0  0  0  0
   44.4451    4.9905   12.5225 H   0  0  0  0  0  0  0  0  0  0  0  0
   46.1091    4.9873   11.9253 H   0  0  0  0  0  0  0  0  0  0  0  0
  2  1  1  0
  3  4  1  0
  4  1  1  0
  5  2  2  0
  6  3  1  0
  7  2  1  0
  8  5  1  0
  9  7  2  0
 10  4  2  0
 11  6  2  0
 12  1  1  0
 13  3  1  0
  5  6  1  0
  8  9  1  0
 15 14  1  0
 16 17  1  0
 17 14  1  0
 18 15  2  0
 19 16  1  0
 20 15  1  0
 21 18  1  0
 22 20  2  0
 23 17  2  0
 24 19  2  0
 25 14  1  0
 26 16  1  0
 18 19  1  0
 21 22  1  0
 28 29  1  0
 29 30  1  0
 30 27  1  0
  8 31  1  0
  9 32  1  0
 12 33  1  0
 12 34  1  0
 12 35  1  0
 13 36  1  0
 13 37  1  0
 13 38  1  0
 21 39  1  0
 22 40  1  0
 25 41  1  0
 25 42  1  0
 25 43  1  0
 26 44  1  0
 26 45  1  0
 26 46  1  0
 27 47  1  0
 27 48  1  0
 28 49  1  0
 28 50  1  0
 29 51  1  0
 29 52  1  0
 30 53  1  0
 30 54  1  0
M  END
> <Uni-Dock RESULT> 
ENERGY=   -7.039  LOWER_BOUND=    1.733  UPPER_BOUND=    4.192
INTER + INTRA:          -7.039
INTER:                  -7.039
INTRA:                   0.000
UNBOUND:                 0.000

$$$$

     RDKit          3D

 54 55  0  0  0  0  0  0  0  0999 V2000
   44.0952    3.0060   10.9165 N   0  0  0  0  0  0  0  0  0  0  0  0
   44.3018    4.3164   11.2727 C   0  0  0  0  0  0  0  0  0  0  0  0
   45.1849    3.5019    8.8388 N   0  0  0  0  0  0  0  0  0  0  0  0
   44.5451    2.5578    9.6721 C   0  0  0  0  0  0  0  0  0  0  0  0
   44.9323    5.1881   10.4427 C   0  0  0  0  0  0  0  0  0  0  0  0
   45.4245    4.8401    9.1604 C   0  0  0  0  0  0  0  0  0  0  0  0
   43.9333    4.9110   12.4412 N   0  0  0  0  0  0  0  0  0  0  0  0
   44.9617    6.3747   11.1144 N   0  0  0  0  0  0  0  0  0  0  0  0
   44.3447    6.1580   12.3196 C   0  0  0  0  0  0  0  0  0  0  0  0
   44.3958    1.3879    9.3067 O   0  0  0  0  0  0  0  0  0  0  0  0
   45.9958    5.6493    8.4371 O   0  0  0  0  0  0  0  0  0  0  0  0
   43.4240    2.1005   11.8309 C   0  0  0  0  0  0  0  0  0  0  0  0
   45.6430    3.0167    7.5521 C   0  0  0  0  0  0  0  0  0  0  0  0
   44.0043    2.9666   10.7660 N   0  0  0  0  0  0  0  0  0  0  0  0
   44.1790    4.2389   11.2528 C   0  0  0  0  0  0  0  0  0  0  0  0
   45.3647    3.6016    8.8962 N   0  0  0  0  0  0  0  0  0  0  0  0
   44.6037    2.6108    9.5553 C   0  0  0  0  0  0  0  0  0  0  0  0
   44.9207    5.1608   10.5847 C   0  0  0  0  0  0  0  0  0  0  0  0
   45.5701    4.9062    9.3514 C   0  0  0  0  0  0  0  0  0  0  0  0
   43.6688    4.7461   12.4092 N   0  0  0  0  0  0  0  0  0  0  0  0
   44.8750    6.2892   11.3491 N   0  0  0  0  0  0  0  0  0  0  0  0
   44.1053    5.9899   12.4437 C   0  0  0  0  0  0  0  0  0  0  0  0
   44.4800    1.4811    9.0729 O   0  0  0  0  0  0  0  0  0  0  0  0
   46.2330    5.7605    8.7726 O   0  0  0  0  0  0  0  0  0  0  0  0
   43.2062    2.0070   11.5067 C   0  0  0  0  0  0  0  0  0  0  0  0
   45.9769    3.2117    7.6415 C   0  0  0  0  0  0  0  0  0  0  0  0
   45.8276    3.0453    8.9612 N   0  0  0  0  0  0  0  0  0  0  0  0
   43.6835    4.8371   11.4950 N   0  0  0  0  0  0  0  0  0  0  0  0
   44.8796    4.5267   10.7121 C   0  0  0  0  0  0  0  0  0  0  0  0
   44.6129    3.4086    9.6910 C   0  0  0  0  0  0  0  0  0  0  0  0
   45.3630    7.2423   10.7815 H   0  0  0  0  0  0  0  0  0  0  0  0
   44.2272    6.9398   13.0589 H   0  0  0  0  0  0  0  0  0  0  0  0
   43.3169    1.0985   11.4071 H   0  0  0  0  0  0  0  0  0  0  0  0
   42.4271    2.4928   12.0552 H   0  0  0  0  0  0  0  0  0  0  0  0
   44.0070    2.0294   12.7547 H   0  0  0  0  0  0  0  0  0  0  0  0
   46.0756    3.8087    6.9355 H   0  0  0  0  0  0  0  0  0  0  0  0
   44.7996    2.5704    7.0149 H   0  0  0  0  0  0  0  0  0  0  0  0
   46.3981    2.2410    7.7166 H   0  0  0  0  0  0  0  0  0  0  0  0
   45.3243    7.1722   11.1420 H   0  0  0  0  0  0  0  0  0  0  0  0
   43.9013    6.7126   13.2233 H   0  0  0  0  0  0  0  0  0  0  0  0
   42.1909    2.3992   11.6214 H   0  0  0  0  0  0  0  0  0  0  0  0
   43.6548    1.8556   12.4935 H   0  0  0  0  0  0  0  0  0  0  0  0
   43.1517    1.0420   10.9965 H   0  0  0  0  0  0  0  0  0  0  0  0
   46.5511    4.0220    7.1852 H   0  0  0  0  0  0  0  0  0  0  0  0
   45.1922    2.8966    6.9458 H   0  0  0  0  0  0  0  0  0  0  0  0
   46.6428    2.3608    7.8197 H   0  0  0  0  0  0  0  0  0  0  0  0
   46.5086    2.6492    9.6074 H   0  0  0  0  0  0  0  0  0  0  0  0
   45.6049    2.3073    8.2943 H   0  0  0  0  0  0  0  0  0  0  0  0
   43.9031    5.5840   12.1530 H   0  0  0  0  0  0  0  0  0  0  0  0
   43.4246    4.0283   12.0582 H   0  0  0  0  0  0  0  0  0  0  0  0
   45.2079    5.4330   10.1910 H   0  0  0  0  0  0  0  0  0  0  0  0
   45.6829    4.2299   11.3964 H   0  0  0  0  0  0  0  0  0  0  0  0
   44.2256    2.5176   10.1986 H   0  0  0  0  0  0  0  0  0  0  0  0
   43.8522    3.7363    8.9736 H   0  0  0  0  0  0  0  0  0  0  0  0
  2  1  1  0
  3  4  1  0
  4  1  1  0
  5  2  2  0
  6  3  1  0
  7  2  1  0
  8  5  1  0
  9  7  2  0
 10  4  2  0
 11  6  2  0
 12  1  1  0
 13  3  1  0
  5  6  1  0
  8  9  1  0
 15 14  1  0
 16 17  1  0
 17 14  1  0
 18 15  2  0
 19 16  1  0
 20 15  1  0
 21 18  1  0
 22 20  2  0
 23 17  2  0
 24 19  2  0
 25 14  1  0
 26 16  1  0
 18 19  1  0
 21 22  1  0
 28 29  1  0
 29 30  1  0
 30 27  1  0
  8 31  1  0
  9 32  1  0
 12 33  1  0
 12 34  1  0
 12 35  1  0
 13 36  1  0
 13 37  1  0
 13 38  1  0
 21 39  1  0
 22 40  1  0
 25 41  1  0
 25 42  1  0
 25 43  1  0
 26 44  1  0
 26 45  1  0
 26 46  1  0
 27 47  1  0
 27 48  1  0
 28 49  1  0
 28 50  1  0
 29 51  1  0
 29 52  1  0
 30 53  1  0
 30 54  1  0
M  END
> <Uni-Dock RESULT> 
ENERGY=   -6.991  LOWER_BOUND=    2.825  UPPER_BOUND=    4.281
INTER + INTRA:          -6.991
INTER:                  -6.991
INTRA:                   0.000
UNBOUND:                 0.000

$$$$

     RDKit          3D

 54 55  0  0  0  0  0  0  0  0999 V2000
   44.3996    6.0184   11.9763 N   0  0  0  0  0  0  0  0  0  0  0  0
   44.2464    4.6536   12.0004 C   0  0  0  0  0  0  0  0  0  0  0  0
   46.3353    5.7266   13.3612 N   0  0  0  0  0  0  0  0  0  0  0  0
   45.4698    6.5974   12.6629 C   0  0  0  0  0  0  0  0  0  0  0  0
   45.1104    3.8527   12.6773 C   0  0  0  0  0  0  0  0  0  0  0  0
   46.2248    4.3348   13.4076 C   0  0  0  0  0  0  0  0  0  0  0  0
   43.2679    3.9326   11.3861 N   0  0  0  0  0  0  0  0  0  0  0  0
   44.6587    2.5809   12.4810 N   0  0  0  0  0  0  0  0  0  0  0  0
   43.5407    2.6795   11.6933 C   0  0  0  0  0  0  0  0  0  0  0  0
   45.6608    7.8171   12.6647 O   0  0  0  0  0  0  0  0  0  0  0  0
   46.9909    3.5846   14.0033 O   0  0  0  0  0  0  0  0  0  0  0  0
   43.4614    6.8431   11.2372 C   0  0  0  0  0  0  0  0  0  0  0  0
   47.4384    6.3475   14.0673 C   0  0  0  0  0  0  0  0  0  0  0  0
   44.4035    6.1116   12.1306 N   0  0  0  0  0  0  0  0  0  0  0  0
   44.1606    4.7622   12.0485 C   0  0  0  0  0  0  0  0  0  0  0  0
   46.4479    5.5743   13.2628 N   0  0  0  0  0  0  0  0  0  0  0  0
   45.5735    6.5579   12.7499 C   0  0  0  0  0  0  0  0  0  0  0  0
   45.0309    3.8504   12.5560 C   0  0  0  0  0  0  0  0  0  0  0  0
   46.2437    4.1937   13.2032 C   0  0  0  0  0  0  0  0  0  0  0  0
   43.0774    4.1624   11.4815 N   0  0  0  0  0  0  0  0  0  0  0  0
   44.4743    2.6323   12.2987 N   0  0  0  0  0  0  0  0  0  0  0  0
   43.2921    2.8718   11.6465 C   0  0  0  0  0  0  0  0  0  0  0  0
   45.8417    7.7588   12.8499 O   0  0  0  0  0  0  0  0  0  0  0  0
   47.0088    3.3461   13.6511 O   0  0  0  0  0  0  0  0  0  0  0  0
   43.4523    7.0574   11.5767 C   0  0  0  0  0  0  0  0  0  0  0  0
   47.6552    6.0591   13.9019 C   0  0  0  0  0  0  0  0  0  0  0  0
   46.8714    5.9661   12.8210 N   0  0  0  0  0  0  0  0  0  0  0  0
   43.5475    4.2724   12.2633 N   0  0  0  0  0  0  0  0  0  0  0  0
   45.0018    4.4304   12.2683 C   0  0  0  0  0  0  0  0  0  0  0  0
   45.4225    5.7745   12.8852 C   0  0  0  0  0  0  0  0  0  0  0  0
   45.0736    1.7339   12.8485 H   0  0  0  0  0  0  0  0  0  0  0  0
   42.9746    1.8117   11.3800 H   0  0  0  0  0  0  0  0  0  0  0  0
   43.6994    7.9067   11.3214 H   0  0  0  0  0  0  0  0  0  0  0  0
   42.4535    6.6788   11.6310 H   0  0  0  0  0  0  0  0  0  0  0  0
   43.4933    6.5599   10.1803 H   0  0  0  0  0  0  0  0  0  0  0  0
   48.0336    5.6256   14.6323 H   0  0  0  0  0  0  0  0  0  0  0  0
   47.0449    7.1002   14.7585 H   0  0  0  0  0  0  0  0  0  0  0  0
   48.0844    6.8498   13.3397 H   0  0  0  0  0  0  0  0  0  0  0  0
   44.8640    1.7311   12.5444 H   0  0  0  0  0  0  0  0  0  0  0  0
   42.6384    2.0730   11.3206 H   0  0  0  0  0  0  0  0  0  0  0  0
   42.4847    6.9219   12.0700 H   0  0  0  0  0  0  0  0  0  0  0  0
   43.3465    6.8704   10.5035 H   0  0  0  0  0  0  0  0  0  0  0  0
   43.7752    8.0917   11.7203 H   0  0  0  0  0  0  0  0  0  0  0  0
   48.2869    5.2490   14.2747 H   0  0  0  0  0  0  0  0  0  0  0  0
   47.3781    6.7078   14.7395 H   0  0  0  0  0  0  0  0  0  0  0  0
   48.2266    6.6520   13.1800 H   0  0  0  0  0  0  0  0  0  0  0  0
   47.1652    6.0246   11.8471 H   0  0  0  0  0  0  0  0  0  0  0  0
   47.1056    6.8636   13.2436 H   0  0  0  0  0  0  0  0  0  0  0  0
   43.3141    3.3692   11.8522 H   0  0  0  0  0  0  0  0  0  0  0  0
   43.1295    4.9773   11.6578 H   0  0  0  0  0  0  0  0  0  0  0  0
   45.4465    3.6066   12.8378 H   0  0  0  0  0  0  0  0  0  0  0  0
   45.3692    4.3559   11.2382 H   0  0  0  0  0  0  0  0  0  0  0  0
   44.9327    6.6018   12.3588 H   0  0  0  0  0  0  0  0  0  0  0  0
   45.1049    5.8162   13.9332 H   0  0  0  0  0  0  0  0  0  0  0  0
  2  1  1  0
  3  4  1  0
  4  1  1  0
  5  2  2  0
  6  3  1  0
  7  2  1  0
  8  5  1  0
  9  7  2  0
 10  4  2  0
 11  6  2  0
 12  1  1  0
 13  3  1  0
  5  6  1  0
  8  9  1  0
 15 14  1  0
 16 17  1  0
 17 14  1  0
 18 15  2  0
 19 16  1  0
 20 15  1  0
 21 18  1  0
 22 20  2  0
 23 17  2  0
 24 19  2  0
 25 14  1  0
 26 16  1  0
 18 19  1  0
 21 22  1  0
 28 29  1  0
 29 30  1  0
 30 27  1  0
  8 31  1  0
  9 32  1  0
 12 33  1  0
 12 34  1  0
 12 35  1  0
 13 36  1  0
 13 37  1  0
 13 38  1  0
 21 39  1  0
 22 40  1  0
 25 41  1  0
 25 42  1  0
 25 43  1  0
 26 44  1  0
 26 45  1  0
 26 46  1  0
 27 47  1  0
 27 48  1  0
 28 49  1  0
 28 50  1  0
 29 51  1  0
 29 52  1  0
 30 53  1  0
 30 54  1  0
M  END
> <Uni-Dock RESULT> 
ENERGY=   -6.829  LOWER_BOUND=    1.224  UPPER_BOUND=    2.808
INTER + INTRA:          -6.829
INTER:                  -6.829
INTRA:                   0.000
UNBOUND:                 0.000

$$$$

     RDKit          3D

 54 55  0  0  0  0  0  0  0  0999 V2000
   44.3448    5.2364   12.0722 N   0  0  0  0  0  0  0  0  0  0  0  0
   45.4793    4.9880   12.8055 C   0  0  0  0  0  0  0  0  0  0  0  0
   44.8838    7.5688   12.2123 N   0  0  0  0  0  0  0  0  0  0  0  0
   44.0173    6.5551   11.7469 C   0  0  0  0  0  0  0  0  0  0  0  0
   46.2906    5.9947   13.2236 C   0  0  0  0  0  0  0  0  0  0  0  0
   46.0509    7.3646   12.9525 C   0  0  0  0  0  0  0  0  0  0  0  0
   45.9429    3.7704   13.2021 N   0  0  0  0  0  0  0  0  0  0  0  0
   47.3019    5.3875   13.9081 N   0  0  0  0  0  0  0  0  0  0  0  0
   47.0483    4.0405   13.8685 C   0  0  0  0  0  0  0  0  0  0  0  0
   43.0159    6.8335   11.0805 O   0  0  0  0  0  0  0  0  0  0  0  0
   46.8067    8.2500   13.3386 O   0  0  0  0  0  0  0  0  0  0  0  0
   43.5047    4.1361   11.6362 C   0  0  0  0  0  0  0  0  0  0  0  0
   44.5255    8.9296   11.8647 C   0  0  0  0  0  0  0  0  0  0  0  0
   44.2169    5.3453   12.1377 N   0  0  0  0  0  0  0  0  0  0  0  0
   45.3377    4.9629   12.8334 C   0  0  0  0  0  0  0  0  0  0  0  0
   45.0891    7.5788   12.1547 N   0  0  0  0  0  0  0  0  0  0  0  0
   44.0631    6.6855   11.7747 C   0  0  0  0  0  0  0  0  0  0  0  0
   46.3008    5.8573   13.1781 C   0  0  0  0  0  0  0  0  0  0  0  0
   46.2447    7.2372   12.8615 C   0  0  0  0  0  0  0  0  0  0  0  0
   45.6420    3.7062   13.2612 N   0  0  0  0  0  0  0  0  0  0  0  0
   47.2454    5.1364   13.8474 N   0  0  0  0  0  0  0  0  0  0  0  0
   46.8028    3.8388   13.8726 C   0  0  0  0  0  0  0  0  0  0  0  0
   43.0764    7.0829   11.1483 O   0  0  0  0  0  0  0  0  0  0  0  0
   47.1311    8.0197   13.1872 O   0  0  0  0  0  0  0  0  0  0  0  0
   43.2086    4.3627   11.7852 C   0  0  0  0  0  0  0  0  0  0  0  0
   44.9091    8.9644   11.7690 C   0  0  0  0  0  0  0  0  0  0  0  0
   45.0366    7.6743   11.4364 N   0  0  0  0  0  0  0  0  0  0  0  0
   45.4768    4.5688   13.5315 N   0  0  0  0  0  0  0  0  0  0  0  0
   45.8696    5.7172   12.7150 C   0  0  0  0  0  0  0  0  0  0  0  0
   44.6538    6.5695   12.3156 C   0  0  0  0  0  0  0  0  0  0  0  0
   48.0843    5.8482   14.3553 H   0  0  0  0  0  0  0  0  0  0  0  0
   47.6992    3.3146   14.3387 H   0  0  0  0  0  0  0  0  0  0  0  0
   42.6322    4.4857   11.0779 H   0  0  0  0  0  0  0  0  0  0  0  0
   43.1580    3.5814   12.5137 H   0  0  0  0  0  0  0  0  0  0  0  0
   44.0907    3.4738   10.9910 H   0  0  0  0  0  0  0  0  0  0  0  0
   45.2033    9.6663   12.3033 H   0  0  0  0  0  0  0  0  0  0  0  0
   43.5075    9.1335   12.2128 H   0  0  0  0  0  0  0  0  0  0  0  0
   44.5456    9.0317   10.7747 H   0  0  0  0  0  0  0  0  0  0  0  0
   48.1037    5.4963   14.2452 H   0  0  0  0  0  0  0  0  0  0  0  0
   47.3648    3.0444   14.3464 H   0  0  0  0  0  0  0  0  0  0  0  0
   42.8209    3.9042   12.7003 H   0  0  0  0  0  0  0  0  0  0  0  0
   43.6647    3.5936   11.1541 H   0  0  0  0  0  0  0  0  0  0  0  0
   42.3747    4.8121   11.2399 H   0  0  0  0  0  0  0  0  0  0  0  0
   45.7370    9.6008   12.0917 H   0  0  0  0  0  0  0  0  0  0  0  0
   43.9800    9.3388   12.2113 H   0  0  0  0  0  0  0  0  0  0  0  0
   44.8206    9.0218   10.6790 H   0  0  0  0  0  0  0  0  0  0  0  0
   45.3930    7.3030   10.5569 H   0  0  0  0  0  0  0  0  0  0  0  0
   44.2043    8.2138   11.2013 H   0  0  0  0  0  0  0  0  0  0  0  0
   46.3108    4.0365   13.7771 H   0  0  0  0  0  0  0  0  0  0  0  0
   44.8913    3.9425   12.9808 H   0  0  0  0  0  0  0  0  0  0  0  0
   46.5803    6.3292   13.2816 H   0  0  0  0  0  0  0  0  0  0  0  0
   46.3872    5.3541   11.8195 H   0  0  0  0  0  0  0  0  0  0  0  0
   43.9102    5.9496   11.8014 H   0  0  0  0  0  0  0  0  0  0  0  0
   44.1778    6.9790   13.2137 H   0  0  0  0  0  0  0  0  0  0  0  0
  2  1  1  0
  3  4  1  0
  4  1  1  0
  5  2  2  0
  6  3  1  0
  7  2  1  0
  8  5  1  0
  9  7  2  0
 10  4  2  0
 11  6  2  0
 12  1  1  0
 13  3  1  0
  5  6  1  0
  8  9  1  0
 15 14  1  0
 16 17  1  0
 17 14  1  0
 18 15  2  0
 19 16  1  0
 20 15  1  0
 21 18  1  0
 22 20  2  0
 23 17  2  0
 24 19  2  0
 25 14  1  0
 26 16  1  0
 18 19  1  0
 21 22  1  0
 28 29  1  0
 29 30  1  0
 30 27  1  0
  8 31  1  0
  9 32  1  0
 12 33  1  0
 12 34  1  0
 12 35  1  0
 13 36  1  0
 13 37  1  0
 13 38  1  0
 21 39  1  0
 22 40  1  0
 25 41  1  0
 25 42  1  0
 25 43  1  0
 26 44  1  0
 26 45  1  0
 26 46  1  0
 27 47  1  0
 27 48  1  0
 28 49  1  0
 28 50  1  0
 29 51  1  0
 29 52  1  0
 30 53  1  0
 30 54  1  0
M  END
> <Uni-Dock RESULT> 
ENERGY=   -6.783  LOWER_BOUND=    1.021  UPPER_BOUND=    3.055
INTER + INTRA:          -6.783
INTER:                  -6.783
INTRA:                   0.000
UNBOUND:                 0.000

$$$$

     RDKit          3D

 54 55  0  0  0  0  0  0  0  0999 V2000
   45.0745    7.1919   12.3626 N   0  0  0  0  0  0  0  0  0  0  0  0
   46.1575    6.6104   12.9755 C   0  0  0  0  0  0  0  0  0  0  0  0
   44.2569    4.9797   11.9291 N   0  0  0  0  0  0  0  0  0  0  0  0
   44.0777    6.3766   11.8207 C   0  0  0  0  0  0  0  0  0  0  0  0
   46.2836    5.2605   13.0664 C   0  0  0  0  0  0  0  0  0  0  0  0
   45.3350    4.3437   12.5494 C   0  0  0  0  0  0  0  0  0  0  0  0
   47.2086    7.2541   13.5550 N   0  0  0  0  0  0  0  0  0  0  0  0
   47.4571    5.0476   13.7278 N   0  0  0  0  0  0  0  0  0  0  0  0
   47.9816    6.2842   14.0030 C   0  0  0  0  0  0  0  0  0  0  0  0
   43.0781    6.8467   11.2694 O   0  0  0  0  0  0  0  0  0  0  0  0
   45.4745    3.1296   12.6535 O   0  0  0  0  0  0  0  0  0  0  0  0
   44.9690    8.6375   12.2897 C   0  0  0  0  0  0  0  0  0  0  0  0
   43.2119    4.1521   11.3598 C   0  0  0  0  0  0  0  0  0  0  0  0
   45.0356    7.1521   12.1911 N   0  0  0  0  0  0  0  0  0  0  0  0
   46.1469    6.6967   12.8575 C   0  0  0  0  0  0  0  0  0  0  0  0
   44.2708    4.8806   12.1176 N   0  0  0  0  0  0  0  0  0  0  0  0
   44.0534    6.2394   11.7988 C   0  0  0  0  0  0  0  0  0  0  0  0
   46.3146    5.3790   13.1440 C   0  0  0  0  0  0  0  0  0  0  0  0
   45.3829    4.3712   12.7923 C   0  0  0  0  0  0  0  0  0  0  0  0
   47.1909    7.4463   13.3082 N   0  0  0  0  0  0  0  0  0  0  0  0
   47.5081    5.2971   13.7988 N   0  0  0  0  0  0  0  0  0  0  0  0
   48.0018    6.5741   13.8745 C   0  0  0  0  0  0  0  0  0  0  0  0
   43.0348    6.5946   11.1985 O   0  0  0  0  0  0  0  0  0  0  0  0
   45.5635    3.1893   13.0654 O   0  0  0  0  0  0  0  0  0  0  0  0
   44.8888    8.5668   11.9026 C   0  0  0  0  0  0  0  0  0  0  0  0
   43.2400    3.9507   11.7007 C   0  0  0  0  0  0  0  0  0  0  0  0
   43.6196    5.0223   12.4072 N   0  0  0  0  0  0  0  0  0  0  0  0
   46.9508    6.7584   12.7482 N   0  0  0  0  0  0  0  0  0  0  0  0
   45.8629    5.8399   13.0838 C   0  0  0  0  0  0  0  0  0  0  0  0
   44.7415    5.8834   12.0329 C   0  0  0  0  0  0  0  0  0  0  0  0
   47.8564    4.1485   13.9660 H   0  0  0  0  0  0  0  0  0  0  0  0
   48.9200    6.4116   14.5272 H   0  0  0  0  0  0  0  0  0  0  0  0
   44.0656    8.9543   11.7617 H   0  0  0  0  0  0  0  0  0  0  0  0
   45.8404    9.0334   11.7585 H   0  0  0  0  0  0  0  0  0  0  0  0
   44.9419    9.0450   13.3053 H   0  0  0  0  0  0  0  0  0  0  0  0
   43.4398    3.0852   11.4259 H   0  0  0  0  0  0  0  0  0  0  0  0
   43.0741    4.4202   10.3071 H   0  0  0  0  0  0  0  0  0  0  0  0
   42.2761    4.3500   11.8928 H   0  0  0  0  0  0  0  0  0  0  0  0
   47.9391    4.4540   14.1563 H   0  0  0  0  0  0  0  0  0  0  0  0
   48.9472    6.8022   14.3496 H   0  0  0  0  0  0  0  0  0  0  0  0
   45.7322    8.8956   11.2873 H   0  0  0  0  0  0  0  0  0  0  0  0
   44.8822    9.1245   12.8443 H   0  0  0  0  0  0  0  0  0  0  0  0
   43.9612    8.7790   11.3649 H   0  0  0  0  0  0  0  0  0  0  0  0
   43.4685    2.9187   11.9785 H   0  0  0  0  0  0  0  0  0  0  0  0
   43.1272    4.0092   10.6130 H   0  0  0  0  0  0  0  0  0  0  0  0
   42.2906    4.2413   12.1626 H   0  0  0  0  0  0  0  0  0  0  0  0
   43.1887    5.3745   13.2607 H   0  0  0  0  0  0  0  0  0  0  0  0
   42.9041    5.0774   11.6832 H   0  0  0  0  0  0  0  0  0  0  0  0
   47.6720    6.6937   13.4657 H   0  0  0  0  0  0  0  0  0  0  0  0
   46.6082    7.7177   12.7745 H   0  0  0  0  0  0  0  0  0  0  0  0
   46.2655    4.8231   13.1535 H   0  0  0  0  0  0  0  0  0  0  0  0
   45.4667    6.1065   14.0705 H   0  0  0  0  0  0  0  0  0  0  0  0
   44.3751    6.9095   11.9133 H   0  0  0  0  0  0  0  0  0  0  0  0
   45.1311    5.5569   11.0622 H   0  0  0  0  0  0  0  0  0  0  0  0
  2  1  1  0
  3  4  1  0
  4  1  1  0
  5  2  2  0
  6  3  1  0
  7  2  1  0
  8  5  1  0
  9  7  2  0
 10  4  2  0
 11  6  2  0
 12  1  1  0
 13  3  1  0
  5  6  1  0
  8  9  1  0
 15 14  1  0
 16 17  1  0
 17 14  1  0
 18 15  2  0
 19 16  1  0
 20 15  1  0
 21 18  1  0
 22 20  2  0
 23 17  2  0
 24 19  2  0
 25 14  1  0
 26 16  1  0
 18 19  1  0
 21 22  1  0
 28 29  1  0
 29 30  1  0
 30 27  1  0
  8 31  1  0
  9 32  1  0
 12 33  1  0
 12 34  1  0
 12 35  1  0
 13 36  1  0
 13 37  1  0
 13 38  1  0
 21 39  1  0
 22 40  1  0
 25 41  1  0
 25 42  1  0
 25 43  1  0
 26 44  1  0
 26 45  1  0
 26 46  1  0
 27 47  1  0
 27 48  1  0
 28 49  1  0
 28 50  1  0
 29 51  1  0
 29 52  1  0
 30 53  1  0
 30 54  1  0
M  END
> <Uni-Dock RESULT> 
ENERGY=   -6.518  LOWER_BOUND=    1.563  UPPER_BOUND=    4.004
INTER + INTRA:          -6.518
INTER:                  -6.518
INTRA:                   0.000
UNBOUND:                 0.000

$$$$

     RDKit          3D

 54 55  0  0  0  0  0  0  0  0999 V2000
   43.8979    3.1890   11.2187 N   0  0  0  0  0  0  0  0  0  0  0  0
   44.4575    3.4519    9.9923 C   0  0  0  0  0  0  0  0  0  0  0  0
   44.7389    5.3129   11.9479 N   0  0  0  0  0  0  0  0  0  0  0  0
   44.0218    4.1321   12.2420 C   0  0  0  0  0  0  0  0  0  0  0  0
   45.1304    4.6074    9.7505 C   0  0  0  0  0  0  0  0  0  0  0  0
   45.3173    5.6276   10.7159 C   0  0  0  0  0  0  0  0  0  0  0  0
   44.4262    2.6484    8.8932 N   0  0  0  0  0  0  0  0  0  0  0  0
   45.5369    4.5276    8.4511 N   0  0  0  0  0  0  0  0  0  0  0  0
   45.0874    3.3234    7.9733 C   0  0  0  0  0  0  0  0  0  0  0  0
   43.5284    3.9516   13.3593 O   0  0  0  0  0  0  0  0  0  0  0  0
   45.9245    6.6632   10.4642 O   0  0  0  0  0  0  0  0  0  0  0  0
   43.1800    1.9471   11.4399 C   0  0  0  0  0  0  0  0  0  0  0  0
   44.8565    6.2776   13.0233 C   0  0  0  0  0  0  0  0  0  0  0  0
   44.0007    3.1888   11.3668 N   0  0  0  0  0  0  0  0  0  0  0  0
   44.4832    3.3463   10.0906 C   0  0  0  0  0  0  0  0  0  0  0  0
   44.6772    5.4490   11.7955 N   0  0  0  0  0  0  0  0  0  0  0  0
   44.0870    4.2549   12.2655 C   0  0  0  0  0  0  0  0  0  0  0  0
   45.0435    4.5145    9.6809 C   0  0  0  0  0  0  0  0  0  0  0  0
   45.1812    5.6558   10.5092 C   0  0  0  0  0  0  0  0  0  0  0  0
   44.4771    2.4154    9.0965 N   0  0  0  0  0  0  0  0  0  0  0  0
   45.4030    4.3105    8.3813 N   0  0  0  0  0  0  0  0  0  0  0  0
   45.0400    3.0250    8.0716 C   0  0  0  0  0  0  0  0  0  0  0  0
   43.6682    4.1679   13.4236 O   0  0  0  0  0  0  0  0  0  0  0  0
   45.6921    6.6966   10.1091 O   0  0  0  0  0  0  0  0  0  0  0  0
   43.4075    1.9271   11.7702 C   0  0  0  0  0  0  0  0  0  0  0  0
   44.7575    6.5419   12.7442 C   0  0  0  0  0  0  0  0  0  0  0  0
   44.0292    5.6646   12.0435 N   0  0  0  0  0  0  0  0  0  0  0  0
   45.0135    2.9462    9.6209 N   0  0  0  0  0  0  0  0  0  0  0  0
   44.5821    4.2713   10.0656 C   0  0  0  0  0  0  0  0  0  0  0  0
   44.5333    4.3650   11.5995 C   0  0  0  0  0  0  0  0  0  0  0  0
   46.0667    5.2257    7.9447 H   0  0  0  0  0  0  0  0  0  0  0  0
   45.2715    2.9983    6.9574 H   0  0  0  0  0  0  0  0  0  0  0  0
   42.8049    1.8697   12.4638 H   0  0  0  0  0  0  0  0  0  0  0  0
   43.8541    1.1058   11.2508 H   0  0  0  0  0  0  0  0  0  0  0  0
   42.3304    1.8987   10.7514 H   0  0  0  0  0  0  0  0  0  0  0  0
   45.4703    7.1390   12.7481 H   0  0  0  0  0  0  0  0  0  0  0  0
   45.3018    5.7900   13.8968 H   0  0  0  0  0  0  0  0  0  0  0  0
   43.8547    6.6265   13.2948 H   0  0  0  0  0  0  0  0  0  0  0  0
   45.8504    4.9823    7.7705 H   0  0  0  0  0  0  0  0  0  0  0  0
   45.2104    2.5950    7.0930 H   0  0  0  0  0  0  0  0  0  0  0  0
   44.1497    1.1307   11.6567 H   0  0  0  0  0  0  0  0  0  0  0  0
   42.5441    1.7180   11.1310 H   0  0  0  0  0  0  0  0  0  0  0  0
   43.0743    1.9477   12.8109 H   0  0  0  0  0  0  0  0  0  0  0  0
   45.2223    7.4344   12.3178 H   0  0  0  0  0  0  0  0  0  0  0  0
   45.3414    6.2174   13.6119 H   0  0  0  0  0  0  0  0  0  0  0  0
   43.7471    6.7945   13.0826 H   0  0  0  0  0  0  0  0  0  0  0  0
   43.0608    5.7748   11.7461 H   0  0  0  0  0  0  0  0  0  0  0  0
   44.0183    5.6848   13.0625 H   0  0  0  0  0  0  0  0  0  0  0  0
   45.0365    2.9302    8.6019 H   0  0  0  0  0  0  0  0  0  0  0  0
   44.3236    2.2505    9.9010 H   0  0  0  0  0  0  0  0  0  0  0  0
   45.2763    5.0217    9.6710 H   0  0  0  0  0  0  0  0  0  0  0  0
   43.5930    4.4817    9.6425 H   0  0  0  0  0  0  0  0  0  0  0  0
   43.8880    3.5777   12.0059 H   0  0  0  0  0  0  0  0  0  0  0  0
   45.5374    4.2141   12.0116 H   0  0  0  0  0  0  0  0  0  0  0  0
  2  1  1  0
  3  4  1  0
  4  1  1  0
  5  2  2  0
  6  3  1  0
  7  2  1  0
  8  5  1  0
  9  7  2  0
 10  4  2  0
 11  6  2  0
 12  1  1  0
 13  3  1  0
  5  6  1  0
  8  9  1  0
 15 14  1  0
 16 17  1  0
 17 14  1  0
 18 15  2  0
 19 16  1  0
 20 15  1  0
 21 18  1  0
 22 20  2  0
 23 17  2  0
 24 19  2  0
 25 14  1  0
 26 16  1  0
 18 19  1  0
 21 22  1  0
 28 29  1  0
 29 30  1  0
 30 27  1  0
  8 31  1  0
  9 32  1  0
 12 33  1  0
 12 34  1  0
 12 35  1  0
 13 36  1  0
 13 37  1  0
 13 38  1  0
 21 39  1  0
 22 40  1  0
 25 41  1  0
 25 42  1  0
 25 43  1  0
 26 44  1  0
 26 45  1  0
 26 46  1  0
 27 47  1  0
 27 48  1  0
 28 49  1  0
 28 50  1  0
 29 51  1  0
 29 52  1  0
 30 53  1  0
 30 54  1  0
M  END
> <Uni-Dock RESULT> 
ENERGY=   -6.392  LOWER_BOUND=    2.405  UPPER_BOUND=    3.122
INTER + INTRA:          -6.392
INTER:                  -6.392
INTRA:                   0.000
UNBOUND:                 0.000

$$$$

     RDKit          3D

 54 55  0  0  0  0  0  0  0  0999 V2000
   46.4896    8.2114   13.1441 N   0  0  0  0  0  0  0  0  0  0  0  0
   46.1786    6.8745   13.0953 C   0  0  0  0  0  0  0  0  0  0  0  0
   44.6841    8.5864   11.6112 N   0  0  0  0  0  0  0  0  0  0  0  0
   45.7329    9.1161   12.3951 C   0  0  0  0  0  0  0  0  0  0  0  0
   45.1529    6.4101   12.3346 C   0  0  0  0  0  0  0  0  0  0  0  0
   44.3258    7.2383   11.5362 C   0  0  0  0  0  0  0  0  0  0  0  0
   46.8074    5.8667   13.7616 N   0  0  0  0  0  0  0  0  0  0  0  0
   45.1359    5.0604   12.5302 N   0  0  0  0  0  0  0  0  0  0  0  0
   46.1562    4.7780   13.4016 C   0  0  0  0  0  0  0  0  0  0  0  0
   45.9620   10.3292   12.4115 O   0  0  0  0  0  0  0  0  0  0  0  0
   43.4026    6.7888   10.8653 O   0  0  0  0  0  0  0  0  0  0  0  0
   47.5879    8.6733   13.9729 C   0  0  0  0  0  0  0  0  0  0  0  0
   43.9121    9.5416   10.8414 C   0  0  0  0  0  0  0  0  0  0  0  0
   46.5293    8.3005   12.9925 N   0  0  0  0  0  0  0  0  0  0  0  0
   46.2994    6.9480   13.0566 C   0  0  0  0  0  0  0  0  0  0  0  0
   44.5196    8.4808   11.6969 N   0  0  0  0  0  0  0  0  0  0  0  0
   45.6292    9.1138   12.2996 C   0  0  0  0  0  0  0  0  0  0  0  0
   45.2172    6.3813   12.4614 C   0  0  0  0  0  0  0  0  0  0  0  0
   44.2446    7.1117   11.7348 C   0  0  0  0  0  0  0  0  0  0  0  0
   47.0708    6.0193   13.6868 N   0  0  0  0  0  0  0  0  0  0  0  0
   45.3118    5.0470   12.7272 N   0  0  0  0  0  0  0  0  0  0  0  0
   46.4503    4.8757   13.4719 C   0  0  0  0  0  0  0  0  0  0  0  0
   45.7873   10.3350   12.2118 O   0  0  0  0  0  0  0  0  0  0  0  0
   43.2780    6.5702   11.2087 O   0  0  0  0  0  0  0  0  0  0  0  0
   47.6952    8.8721   13.6409 C   0  0  0  0  0  0  0  0  0  0  0  0
   43.5989    9.3428   10.9824 C   0  0  0  0  0  0  0  0  0  0  0  0
   44.2181    8.9920   12.1160 N   0  0  0  0  0  0  0  0  0  0  0  0
   46.7281    6.2807   12.8753 N   0  0  0  0  0  0  0  0  0  0  0  0
   45.4159    6.9178   12.7658 C   0  0  0  0  0  0  0  0  0  0  0  0
   45.5196    8.3251   12.1552 C   0  0  0  0  0  0  0  0  0  0  0  0
   44.4920    4.4019   12.1104 H   0  0  0  0  0  0  0  0  0  0  0  0
   46.3725    3.7705   13.7332 H   0  0  0  0  0  0  0  0  0  0  0  0
   47.7271    9.7551   13.8994 H   0  0  0  0  0  0  0  0  0  0  0  0
   48.5106    8.1802   13.6512 H   0  0  0  0  0  0  0  0  0  0  0  0
   47.3795    8.4173   15.0165 H   0  0  0  0  0  0  0  0  0  0  0  0
   43.1565    9.0614   10.2146 H   0  0  0  0  0  0  0  0  0  0  0  0
   44.5883   10.1185   10.2018 H   0  0  0  0  0  0  0  0  0  0  0  0
   43.4160   10.2316   11.5318 H   0  0  0  0  0  0  0  0  0  0  0  0
   44.6637    4.3290   12.4291 H   0  0  0  0  0  0  0  0  0  0  0  0
   46.7709    3.9038   13.8244 H   0  0  0  0  0  0  0  0  0  0  0  0
   48.5975    8.4196   13.2177 H   0  0  0  0  0  0  0  0  0  0  0  0
   47.6469    8.6604   14.7136 H   0  0  0  0  0  0  0  0  0  0  0  0
   47.7495    9.9548   13.5010 H   0  0  0  0  0  0  0  0  0  0  0  0
   42.7642    8.7917   10.5421 H   0  0  0  0  0  0  0  0  0  0  0  0
   44.1426    9.8608   10.1855 H   0  0  0  0  0  0  0  0  0  0  0  0
   43.2036   10.0931   11.6752 H   0  0  0  0  0  0  0  0  0  0  0  0
   43.8846    9.1458   13.0665 H   0  0  0  0  0  0  0  0  0  0  0  0
   44.3320    9.9160   11.7011 H   0  0  0  0  0  0  0  0  0  0  0  0
   46.6124    5.3516   13.2785 H   0  0  0  0  0  0  0  0  0  0  0  0
   47.3086    6.8044   13.5287 H   0  0  0  0  0  0  0  0  0  0  0  0
   44.7677    6.2911   12.1430 H   0  0  0  0  0  0  0  0  0  0  0  0
   44.9642    6.9710   13.7633 H   0  0  0  0  0  0  0  0  0  0  0  0
   46.2146    8.9400   12.7385 H   0  0  0  0  0  0  0  0  0  0  0  0
   45.9148    8.2577   11.1353 H   0  0  0  0  0  0  0  0  0  0  0  0
  2  1  1  0
  3  4  1  0
  4  1  1  0
  5  2  2  0
  6  3  1  0
  7  2  1  0
  8  5  1  0
  9  7  2  0
 10  4  2  0
 11  6  2  0
 12  1  1  0
 13  3  1  0
  5  6  1  0
  8  9  1  0
 15 14  1  0
 16 17  1  0
 17 14  1  0
 18 15  2  0
 19 16  1  0
 20 15  1  0
 21 18  1  0
 22 20  2  0
 23 17  2  0
 24 19  2  0
 25 14  1  0
 26 16  1  0
 18 19  1  0
 21 22  1  0
 28 29  1  0
 29 30  1  0
 30 27  1  0
  8 31  1  0
  9 32  1  0
 12 33  1  0
 12 34  1  0
 12 35  1  0
 13 36  1  0
 13 37  1  0
 13 38  1  0
 21 39  1  0
 22 40  1  0
 25 41  1  0
 25 42  1  0
 25 43  1  0
 26 44  1  0
 26 45  1  0
 26 46  1  0
 27 47  1  0
 27 48  1  0
 28 49  1  0
 28 50  1  0
 29 51  1  0
 29 52  1  0
 30 53  1  0
 30 54  1  0
M  END
> <Uni-Dock RESULT> 
ENERGY=   -6.012  LOWER_BOUND=    1.968  UPPER_BOUND=    2.993
INTER + INTRA:          -6.012
INTER:                  -6.012
INTRA:                   0.000
UNBOUND:                 0.000

$$$$
