
     RDKit          3D

 54 55  0  0  0  0  0  0  0  0999 V2000
   46.1325    5.1419   13.0334 N   0  0  0  0  0  0  0  0  0  0  0  0
   45.6480    6.4040   12.7909 C   0  0  0  0  0  0  0  0  0  0  0  0
   44.1318    4.2872   12.0248 N   0  0  0  0  0  0  0  0  0  0  0  0
   45.3730    4.0339   12.6496 C   0  0  0  0  0  0  0  0  0  0  0  0
   44.4472    6.6011   12.1863 C   0  0  0  0  0  0  0  0  0  0  0  0
   43.5986    5.5505   11.7576 C   0  0  0  0  0  0  0  0  0  0  0  0
   46.2560    7.5832   13.0986 N   0  0  0  0  0  0  0  0  0  0  0  0
   44.2945    7.9542   12.1110 N   0  0  0  0  0  0  0  0  0  0  0  0
   45.4151    8.5069   12.6761 C   0  0  0  0  0  0  0  0  0  0  0  0
   45.7607    2.8778   12.8435 O   0  0  0  0  0  0  0  0  0  0  0  0
   42.5194    5.7615   11.2143 O   0  0  0  0  0  0  0  0  0  0  0  0
   47.4194    4.9684   13.6814 C   0  0  0  0  0  0  0  0  0  0  0  0
   43.3601    3.1239   11.6347 C   0  0  0  0  0  0  0  0  0  0  0  0
   45.9257    4.8983   13.1957 N   0  0  0  0  0  0  0  0  0  0  0  0
   44.8861    4.2679   12.5567 C   0  0  0  0  0  0  0  0  0  0  0  0
   45.1070    6.9590   12.2829 N   0  0  0  0  0  0  0  0  0  0  0  0
   46.0636    6.2830   13.0720 C   0  0  0  0  0  0  0  0  0  0  0  0
   43.9880    4.9588   11.8068 C   0  0  0  0  0  0  0  0  0  0  0  0
   44.0348    6.3619   11.6154 C   0  0  0  0  0  0  0  0  0  0  0  0
   44.6083    2.9346   12.5727 N   0  0  0  0  0  0  0  0  0  0  0  0
   43.1132    4.0256   11.3338 N   0  0  0  0  0  0  0  0  0  0  0  0
   43.5294    2.8145   11.8239 C   0  0  0  0  0  0  0  0  0  0  0  0
   46.9793    6.8997   13.6249 O   0  0  0  0  0  0  0  0  0  0  0  0
   43.2083    6.9569   10.9318 O   0  0  0  0  0  0  0  0  0  0  0  0
   46.8665    4.1287   13.9886 C   0  0  0  0  0  0  0  0  0  0  0  0
   45.2687    8.3949   12.1679 C   0  0  0  0  0  0  0  0  0  0  0  0
   46.2937    6.0414   13.1210 N   0  0  0  0  0  0  0  0  0  0  0  0
   44.4676    3.8642   12.6519 N   0  0  0  0  0  0  0  0  0  0  0  0
   44.3228    5.1223   11.9170 C   0  0  0  0  0  0  0  0  0  0  0  0
   44.9023    6.2995   12.7235 C   0  0  0  0  0  0  0  0  0  0  0  0
   43.5048    8.4473   11.7139 H   0  0  0  0  0  0  0  0  0  0  0  0
   45.5587    9.5772   12.7497 H   0  0  0  0  0  0  0  0  0  0  0  0
   47.3892    5.4412   14.6682 H   0  0  0  0  0  0  0  0  0  0  0  0
   47.6730    3.9126   13.8080 H   0  0  0  0  0  0  0  0  0  0  0  0
   48.1939    5.4431   13.0707 H   0  0  0  0  0  0  0  0  0  0  0  0
   43.9523    2.5215   10.9379 H   0  0  0  0  0  0  0  0  0  0  0  0
   42.4132    3.3891   11.1580 H   0  0  0  0  0  0  0  0  0  0  0  0
   43.1533    2.5197   12.5241 H   0  0  0  0  0  0  0  0  0  0  0  0
   42.3145    4.2006   10.7372 H   0  0  0  0  0  0  0  0  0  0  0  0
   43.0103    1.8908   11.6025 H   0  0  0  0  0  0  0  0  0  0  0  0
   47.6370    4.7623   14.4355 H   0  0  0  0  0  0  0  0  0  0  0  0
   46.3242    3.6191   14.7913 H   0  0  0  0  0  0  0  0  0  0  0  0
   47.3527    3.3876   13.3463 H   0  0  0  0  0  0  0  0  0  0  0  0
   45.2295    8.8385   13.1682 H   0  0  0  0  0  0  0  0  0  0  0  0
   44.4976    8.8554   11.5453 H   0  0  0  0  0  0  0  0  0  0  0  0
   46.2508    8.6085   11.7333 H   0  0  0  0  0  0  0  0  0  0  0  0
   46.8752    5.9841   12.2861 H   0  0  0  0  0  0  0  0  0  0  0  0
   46.6365    6.8398   13.6542 H   0  0  0  0  0  0  0  0  0  0  0  0
   44.5360    3.0897   11.9961 H   0  0  0  0  0  0  0  0  0  0  0  0
   45.3663    3.9125   13.1437 H   0  0  0  0  0  0  0  0  0  0  0  0
   43.2659    5.2991   11.6950 H   0  0  0  0  0  0  0  0  0  0  0  0
   44.8575    5.0420   10.9632 H   0  0  0  0  0  0  0  0  0  0  0  0
   44.3032    6.4587   13.6271 H   0  0  0  0  0  0  0  0  0  0  0  0
   44.8556    7.2160   12.1258 H   0  0  0  0  0  0  0  0  0  0  0  0
  2  1  1  0
  3  4  1  0
  4  1  1  0
  5  2  2  0
  6  3  1  0
  7  2  1  0
  8  5  1  0
  9  7  2  0
 10  4  2  0
 11  6  2  0
 12  1  1  0
 13  3  1  0
  5  6  1  0
  8  9  1  0
 15 14  1  0
 16 17  1  0
 17 14  1  0
 18 15  2  0
 19 16  1  0
 20 15  1  0
 21 18  1  0
 22 20  2  0
 23 17  2  0
 24 19  2  0
 25 14  1  0
 26 16  1  0
 18 19  1  0
 21 22  1  0
 28 29  1  0
 29 30  1  0
 30 27  1  0
  8 31  1  0
  9 32  1  0
 12 33  1  0
 12 34  1  0
 12 35  1  0
 13 36  1  0
 13 37  1  0
 13 38  1  0
 21 39  1  0
 22 40  1  0
 25 41  1  0
 25 42  1  0
 25 43  1  0
 26 44  1  0
 26 45  1  0
 26 46  1  0
 27 47  1  0
 27 48  1  0
 28 49  1  0
 28 50  1  0
 29 51  1  0
 29 52  1  0
 30 53  1  0
 30 54  1  0
M  END
> <Uni-Dock RESULT> 
ENERGY=   -7.241  LOWER_BOUND=    0.000  UPPER_BOUND=    0.000
INTER + INTRA:          -7.241
INTER:                  -7.241
INTRA:                   0.000
UNBOUND:                 0.000

$$$$

     RDKit          3D

 54 55  0  0  0  0  0  0  0  0999 V2000
   45.9693    4.9211   13.1839 N   0  0  0  0  0  0  0  0  0  0  0  0
   44.9687    4.3136   12.4654 C   0  0  0  0  0  0  0  0  0  0  0  0
   45.0986    7.0244   12.4298 N   0  0  0  0  0  0  0  0  0  0  0  0
   46.0600    6.3153   13.1835 C   0  0  0  0  0  0  0  0  0  0  0  0
   44.0644    5.0362   11.7538 C   0  0  0  0  0  0  0  0  0  0  0  0
   44.0650    6.4514   11.6850 C   0  0  0  0  0  0  0  0  0  0  0  0
   44.7390    2.9754   12.3591 N   0  0  0  0  0  0  0  0  0  0  0  0
   43.2354    4.1185   11.1788 N   0  0  0  0  0  0  0  0  0  0  0  0
   43.6833    2.8842   11.5742 C   0  0  0  0  0  0  0  0  0  0  0  0
   46.9393    6.9124   13.8117 O   0  0  0  0  0  0  0  0  0  0  0  0
   43.2340    7.0751   11.0331 O   0  0  0  0  0  0  0  0  0  0  0  0
   46.9181    4.1180   13.9328 C   0  0  0  0  0  0  0  0  0  0  0  0
   45.2110    8.4694   12.4431 C   0  0  0  0  0  0  0  0  0  0  0  0
   46.1764    5.1692   13.0290 N   0  0  0  0  0  0  0  0  0  0  0  0
   45.7324    6.4413   12.7625 C   0  0  0  0  0  0  0  0  0  0  0  0
   44.1214    4.3622   12.0931 N   0  0  0  0  0  0  0  0  0  0  0  0
   45.3677    4.0801   12.6949 C   0  0  0  0  0  0  0  0  0  0  0  0
   44.5247    6.6663   12.1815 C   0  0  0  0  0  0  0  0  0  0  0  0
   43.6280    5.6366   11.8032 C   0  0  0  0  0  0  0  0  0  0  0  0
   46.3905    7.6051   13.0220 N   0  0  0  0  0  0  0  0  0  0  0  0
   44.4198    8.0216   12.0716 N   0  0  0  0  0  0  0  0  0  0  0  0
   45.5734    8.5475   12.5938 C   0  0  0  0  0  0  0  0  0  0  0  0
   45.7178    2.9162   12.9121 O   0  0  0  0  0  0  0  0  0  0  0  0
   42.5440    5.8726   11.2801 O   0  0  0  0  0  0  0  0  0  0  0  0
   47.4719    4.9658   13.6506 C   0  0  0  0  0  0  0  0  0  0  0  0
   43.2983    3.2180   11.7547 C   0  0  0  0  0  0  0  0  0  0  0  0
   45.5971    4.1184   12.9390 N   0  0  0  0  0  0  0  0  0  0  0  0
   45.9166    6.9518   12.5333 N   0  0  0  0  0  0  0  0  0  0  0  0
   44.6125    6.3179   12.3297 C   0  0  0  0  0  0  0  0  0  0  0  0
   44.7761    4.8339   11.9518 C   0  0  0  0  0  0  0  0  0  0  0  0
   42.4454    4.3173   10.5783 H   0  0  0  0  0  0  0  0  0  0  0  0
   43.2035    1.9661   11.2603 H   0  0  0  0  0  0  0  0  0  0  0  0
   47.4461    3.4524   13.2425 H   0  0  0  0  0  0  0  0  0  0  0  0
   47.6544    4.7363   14.4530 H   0  0  0  0  0  0  0  0  0  0  0  0
   46.3757    3.5225   14.6739 H   0  0  0  0  0  0  0  0  0  0  0  0
   45.1320    8.8229   13.4764 H   0  0  0  0  0  0  0  0  0  0  0  0
   44.4388    8.9559   11.8420 H   0  0  0  0  0  0  0  0  0  0  0  0
   46.1947    8.7533   12.0551 H   0  0  0  0  0  0  0  0  0  0  0  0
   43.6389    8.5325   11.6797 H   0  0  0  0  0  0  0  0  0  0  0  0
   45.7578    9.6133   12.6336 H   0  0  0  0  0  0  0  0  0  0  0  0
   47.6901    3.9053   13.8008 H   0  0  0  0  0  0  0  0  0  0  0  0
   48.2476    5.3947   13.0083 H   0  0  0  0  0  0  0  0  0  0  0  0
   47.4836    5.4663   14.6240 H   0  0  0  0  0  0  0  0  0  0  0  0
   43.8505    2.5752   11.0612 H   0  0  0  0  0  0  0  0  0  0  0  0
   42.3501    3.5050   11.2935 H   0  0  0  0  0  0  0  0  0  0  0  0
   43.0918    2.6466   12.6656 H   0  0  0  0  0  0  0  0  0  0  0  0
   45.1112    4.1089   13.8348 H   0  0  0  0  0  0  0  0  0  0  0  0
   45.6838    3.1446   12.6502 H   0  0  0  0  0  0  0  0  0  0  0  0
   45.8262    7.7167   13.1977 H   0  0  0  0  0  0  0  0  0  0  0  0
   46.5195    6.2494   12.9749 H   0  0  0  0  0  0  0  0  0  0  0  0
   44.0632    6.8498   11.5467 H   0  0  0  0  0  0  0  0  0  0  0  0
   44.0315    6.3912   13.2565 H   0  0  0  0  0  0  0  0  0  0  0  0
   45.2575    4.7533   10.9708 H   0  0  0  0  0  0  0  0  0  0  0  0
   43.7915    4.3595   11.8808 H   0  0  0  0  0  0  0  0  0  0  0  0
  2  1  1  0
  3  4  1  0
  4  1  1  0
  5  2  2  0
  6  3  1  0
  7  2  1  0
  8  5  1  0
  9  7  2  0
 10  4  2  0
 11  6  2  0
 12  1  1  0
 13  3  1  0
  5  6  1  0
  8  9  1  0
 15 14  1  0
 16 17  1  0
 17 14  1  0
 18 15  2  0
 19 16  1  0
 20 15  1  0
 21 18  1  0
 22 20  2  0
 23 17  2  0
 24 19  2  0
 25 14  1  0
 26 16  1  0
 18 19  1  0
 21 22  1  0
 28 29  1  0
 29 30  1  0
 30 27  1  0
  8 31  1  0
  9 32  1  0
 12 33  1  0
 12 34  1  0
 12 35  1  0
 13 36  1  0
 13 37  1  0
 13 38  1  0
 21 39  1  0
 22 40  1  0
 25 41  1  0
 25 42  1  0
 25 43  1  0
 26 44  1  0
 26 45  1  0
 26 46  1  0
 27 47  1  0
 27 48  1  0
 28 49  1  0
 28 50  1  0
 29 51  1  0
 29 52  1  0
 30 53  1  0
 30 54  1  0
M  END
> <Uni-Dock RESULT> 
ENERGY=   -7.120  LOWER_BOUND=    0.291  UPPER_BOUND=    3.320
INTER + INTRA:          -7.120
INTER:                  -7.120
INTRA:                   0.000
UNBOUND:                 0.000

$$$$

     RDKit          3D

 54 55  0  0  0  0  0  0  0  0999 V2000
   45.9693    4.9209   13.1839 N   0  0  0  0  0  0  0  0  0  0  0  0
   44.9686    4.3132   12.4657 C   0  0  0  0  0  0  0  0  0  0  0  0
   45.0982    7.0241   12.4301 N   0  0  0  0  0  0  0  0  0  0  0  0
   46.0599    6.3150   13.1834 C   0  0  0  0  0  0  0  0  0  0  0  0
   44.0640    5.0358   11.7544 C   0  0  0  0  0  0  0  0  0  0  0  0
   44.0644    6.4510   11.6856 C   0  0  0  0  0  0  0  0  0  0  0  0
   44.7390    2.9750   12.3595 N   0  0  0  0  0  0  0  0  0  0  0  0
   43.2350    4.1179   11.1796 N   0  0  0  0  0  0  0  0  0  0  0  0
   43.6831    2.8837   11.5749 C   0  0  0  0  0  0  0  0  0  0  0  0
   46.9393    6.9123   13.8114 O   0  0  0  0  0  0  0  0  0  0  0  0
   43.2331    7.0746   11.0339 O   0  0  0  0  0  0  0  0  0  0  0  0
   46.9185    4.1179   13.9324 C   0  0  0  0  0  0  0  0  0  0  0  0
   45.2104    8.4691   12.4433 C   0  0  0  0  0  0  0  0  0  0  0  0
   46.1764    5.1690   13.0289 N   0  0  0  0  0  0  0  0  0  0  0  0
   45.7321    6.4410   12.7626 C   0  0  0  0  0  0  0  0  0  0  0  0
   44.1212    4.3617   12.0936 N   0  0  0  0  0  0  0  0  0  0  0  0
   45.3676    4.0798   12.6951 C   0  0  0  0  0  0  0  0  0  0  0  0
   44.5243    6.6659   12.1819 C   0  0  0  0  0  0  0  0  0  0  0  0
   43.6276    5.6361   11.8039 C   0  0  0  0  0  0  0  0  0  0  0  0
   46.3902    7.6049   13.0218 N   0  0  0  0  0  0  0  0  0  0  0  0
   44.4191    8.0212   12.0721 N   0  0  0  0  0  0  0  0  0  0  0  0
   45.5729    8.5472   12.5940 C   0  0  0  0  0  0  0  0  0  0  0  0
   45.7179    2.9159   12.9122 O   0  0  0  0  0  0  0  0  0  0  0  0
   42.5434    5.8719   11.2811 O   0  0  0  0  0  0  0  0  0  0  0  0
   47.4721    4.9658   13.6501 C   0  0  0  0  0  0  0  0  0  0  0  0
   43.2981    3.2175   11.7554 C   0  0  0  0  0  0  0  0  0  0  0  0
   45.5972    4.1181   12.9391 N   0  0  0  0  0  0  0  0  0  0  0  0
   45.9162    6.9516   12.5333 N   0  0  0  0  0  0  0  0  0  0  0  0
   44.6121    6.3175   12.3301 C   0  0  0  0  0  0  0  0  0  0  0  0
   44.7757    4.8335   11.9521 C   0  0  0  0  0  0  0  0  0  0  0  0
   42.4447    4.3167   10.5793 H   0  0  0  0  0  0  0  0  0  0  0  0
   43.2033    1.9656   11.2611 H   0  0  0  0  0  0  0  0  0  0  0  0
   47.4463    3.4524   13.2420 H   0  0  0  0  0  0  0  0  0  0  0  0
   47.6548    4.7363   14.4524 H   0  0  0  0  0  0  0  0  0  0  0  0
   46.3764    3.5223   14.6737 H   0  0  0  0  0  0  0  0  0  0  0  0
   45.1317    8.8226   13.4767 H   0  0  0  0  0  0  0  0  0  0  0  0
   44.4380    8.9555   11.8425 H   0  0  0  0  0  0  0  0  0  0  0  0
   46.1940    8.7531   12.0550 H   0  0  0  0  0  0  0  0  0  0  0  0
   43.6381    8.5320   11.6804 H   0  0  0  0  0  0  0  0  0  0  0  0
   45.7571    9.6131   12.6337 H   0  0  0  0  0  0  0  0  0  0  0  0
   47.6904    3.9053   13.8003 H   0  0  0  0  0  0  0  0  0  0  0  0
   48.2476    5.3947   13.0075 H   0  0  0  0  0  0  0  0  0  0  0  0
   47.4840    5.4663   14.6235 H   0  0  0  0  0  0  0  0  0  0  0  0
   43.8501    2.5748   11.0618 H   0  0  0  0  0  0  0  0  0  0  0  0
   42.3497    3.5044   11.2946 H   0  0  0  0  0  0  0  0  0  0  0  0
   43.0920    2.6460   12.6664 H   0  0  0  0  0  0  0  0  0  0  0  0
   45.1115    4.1086   13.8350 H   0  0  0  0  0  0  0  0  0  0  0  0
   45.6839    3.1443   12.6503 H   0  0  0  0  0  0  0  0  0  0  0  0
   45.8259    7.7164   13.1977 H   0  0  0  0  0  0  0  0  0  0  0  0
   46.5193    6.2492   12.9747 H   0  0  0  0  0  0  0  0  0  0  0  0
   44.0626    6.8493   11.5473 H   0  0  0  0  0  0  0  0  0  0  0  0
   44.0314    6.3907   13.2571 H   0  0  0  0  0  0  0  0  0  0  0  0
   45.2569    4.7530   10.9710 H   0  0  0  0  0  0  0  0  0  0  0  0
   43.7912    4.3591   11.8814 H   0  0  0  0  0  0  0  0  0  0  0  0
  2  1  1  0
  3  4  1  0
  4  1  1  0
  5  2  2  0
  6  3  1  0
  7  2  1  0
  8  5  1  0
  9  7  2  0
 10  4  2  0
 11  6  2  0
 12  1  1  0
 13  3  1  0
  5  6  1  0
  8  9  1  0
 15 14  1  0
 16 17  1  0
 17 14  1  0
 18 15  2  0
 19 16  1  0
 20 15  1  0
 21 18  1  0
 22 20  2  0
 23 17  2  0
 24 19  2  0
 25 14  1  0
 26 16  1  0
 18 19  1  0
 21 22  1  0
 28 29  1  0
 29 30  1  0
 30 27  1  0
  8 31  1  0
  9 32  1  0
 12 33  1  0
 12 34  1  0
 12 35  1  0
 13 36  1  0
 13 37  1  0
 13 38  1  0
 21 39  1  0
 22 40  1  0
 25 41  1  0
 25 42  1  0
 25 43  1  0
 26 44  1  0
 26 45  1  0
 26 46  1  0
 27 47  1  0
 27 48  1  0
 28 49  1  0
 28 50  1  0
 29 51  1  0
 29 52  1  0
 30 53  1  0
 30 54  1  0
M  END
> <Uni-Dock RESULT> 
ENERGY=   -7.119  LOWER_BOUND=    0.291  UPPER_BOUND=    3.320
INTER + INTRA:          -7.119
INTER:                  -7.119
INTRA:                   0.000
UNBOUND:                 0.000

$$$$

     RDKit          3D

 54 55  0  0  0  0  0  0  0  0999 V2000
   45.3556    4.9522   10.0387 N   0  0  0  0  0  0  0  0  0  0  0  0
   45.6709    4.3020    8.8707 C   0  0  0  0  0  0  0  0  0  0  0  0
   44.1464    2.9867   10.6907 N   0  0  0  0  0  0  0  0  0  0  0  0
   44.5722    4.2990   10.9935 C   0  0  0  0  0  0  0  0  0  0  0  0
   45.2390    3.0380    8.6212 C   0  0  0  0  0  0  0  0  0  0  0  0
   44.4414    2.2859    9.5188 C   0  0  0  0  0  0  0  0  0  0  0  0
   46.4189    4.7903    7.8427 N   0  0  0  0  0  0  0  0  0  0  0  0
   45.7338    2.7198    7.3908 N   0  0  0  0  0  0  0  0  0  0  0  0
   46.4417    3.8119    6.9589 C   0  0  0  0  0  0  0  0  0  0  0  0
   44.2595    4.8366   12.0600 O   0  0  0  0  0  0  0  0  0  0  0  0
   44.0673    1.1460    9.2639 O   0  0  0  0  0  0  0  0  0  0  0  0
   45.8340    6.3023   10.2721 C   0  0  0  0  0  0  0  0  0  0  0  0
   43.3349    2.3274   11.6947 C   0  0  0  0  0  0  0  0  0  0  0  0
   45.0154    4.9654   10.1507 N   0  0  0  0  0  0  0  0  0  0  0  0
   44.3748    3.8811   10.6987 C   0  0  0  0  0  0  0  0  0  0  0  0
   45.8029    3.5018    8.4222 N   0  0  0  0  0  0  0  0  0  0  0  0
   45.7578    4.7991    8.9790 C   0  0  0  0  0  0  0  0  0  0  0  0
   44.4457    2.6498   10.1284 C   0  0  0  0  0  0  0  0  0  0  0  0
   45.1691    2.3708    8.9425 C   0  0  0  0  0  0  0  0  0  0  0  0
   43.6151    3.8691   11.8290 N   0  0  0  0  0  0  0  0  0  0  0  0
   43.7031    1.8335   10.9298 N   0  0  0  0  0  0  0  0  0  0  0  0
   43.2202    2.6165   11.9466 C   0  0  0  0  0  0  0  0  0  0  0  0
   46.3531    5.7394    8.4443 O   0  0  0  0  0  0  0  0  0  0  0  0
   45.2137    1.2474    8.4523 O   0  0  0  0  0  0  0  0  0  0  0  0
   44.9180    6.2663   10.7867 C   0  0  0  0  0  0  0  0  0  0  0  0
   46.5785    3.3515    7.2069 C   0  0  0  0  0  0  0  0  0  0  0  0
   45.7939    5.0160    9.2346 N   0  0  0  0  0  0  0  0  0  0  0  0
   43.8554    3.7242   10.9282 N   0  0  0  0  0  0  0  0  0  0  0  0
   44.6898    2.9328   10.0219 C   0  0  0  0  0  0  0  0  0  0  0  0
   45.1343    3.7729    8.8101 C   0  0  0  0  0  0  0  0  0  0  0  0
   45.6003    1.8455    6.8986 H   0  0  0  0  0  0  0  0  0  0  0  0
   46.9462    3.8333    6.0014 H   0  0  0  0  0  0  0  0  0  0  0  0
   45.4501    6.9585    9.4846 H   0  0  0  0  0  0  0  0  0  0  0  0
   45.5054    6.6896   11.2401 H   0  0  0  0  0  0  0  0  0  0  0  0
   46.9284    6.3026   10.2488 H   0  0  0  0  0  0  0  0  0  0  0  0
   43.9015    2.2724   12.6301 H   0  0  0  0  0  0  0  0  0  0  0  0
   43.0399    1.3176   11.3989 H   0  0  0  0  0  0  0  0  0  0  0  0
   42.4337    2.9236   11.8712 H   0  0  0  0  0  0  0  0  0  0  0  0
   43.5441    0.8432   10.7939 H   0  0  0  0  0  0  0  0  0  0  0  0
   42.5926    2.2203   12.7345 H   0  0  0  0  0  0  0  0  0  0  0  0
   45.4769    7.0302   10.2400 H   0  0  0  0  0  0  0  0  0  0  0  0
   43.8660    6.5657   10.8285 H   0  0  0  0  0  0  0  0  0  0  0  0
   45.3208    6.1984   11.8023 H   0  0  0  0  0  0  0  0  0  0  0  0
   46.1685    4.0153    6.4388 H   0  0  0  0  0  0  0  0  0  0  0  0
   46.5723    2.3259    6.8294 H   0  0  0  0  0  0  0  0  0  0  0  0
   47.6129    3.6506    7.4058 H   0  0  0  0  0  0  0  0  0  0  0  0
   46.6570    4.7862    9.7253 H   0  0  0  0  0  0  0  0  0  0  0  0
   46.0675    5.5424    8.4056 H   0  0  0  0  0  0  0  0  0  0  0  0
   43.9542    3.3749   11.8784 H   0  0  0  0  0  0  0  0  0  0  0  0
   44.2375    4.6759   10.9243 H   0  0  0  0  0  0  0  0  0  0  0  0
   44.1355    2.0502    9.6881 H   0  0  0  0  0  0  0  0  0  0  0  0
   45.5772    2.5867   10.5647 H   0  0  0  0  0  0  0  0  0  0  0  0
   44.2620    4.0298    8.1986 H   0  0  0  0  0  0  0  0  0  0  0  0
   45.8193    3.1888    8.1863 H   0  0  0  0  0  0  0  0  0  0  0  0
  2  1  1  0
  3  4  1  0
  4  1  1  0
  5  2  2  0
  6  3  1  0
  7  2  1  0
  8  5  1  0
  9  7  2  0
 10  4  2  0
 11  6  2  0
 12  1  1  0
 13  3  1  0
  5  6  1  0
  8  9  1  0
 15 14  1  0
 16 17  1  0
 17 14  1  0
 18 15  2  0
 19 16  1  0
 20 15  1  0
 21 18  1  0
 22 20  2  0
 23 17  2  0
 24 19  2  0
 25 14  1  0
 26 16  1  0
 18 19  1  0
 21 22  1  0
 28 29  1  0
 29 30  1  0
 30 27  1  0
  8 31  1  0
  9 32  1  0
 12 33  1  0
 12 34  1  0
 12 35  1  0
 13 36  1  0
 13 37  1  0
 13 38  1  0
 21 39  1  0
 22 40  1  0
 25 41  1  0
 25 42  1  0
 25 43  1  0
 26 44  1  0
 26 45  1  0
 26 46  1  0
 27 47  1  0
 27 48  1  0
 28 49  1  0
 28 50  1  0
 29 51  1  0
 29 52  1  0
 30 53  1  0
 30 54  1  0
M  END
> <Uni-Dock RESULT> 
ENERGY=   -7.044  LOWER_BOUND=    3.164  UPPER_BOUND=    4.341
INTER + INTRA:          -7.044
INTER:                  -7.044
INTRA:                   0.000
UNBOUND:                 0.000

$$$$

     RDKit          3D

 54 55  0  0  0  0  0  0  0  0999 V2000
   44.1336    5.7320   12.1794 N   0  0  0  0  0  0  0  0  0  0  0  0
   44.6482    7.0002   12.0649 C   0  0  0  0  0  0  0  0  0  0  0  0
   46.1866    5.1018   13.2464 N   0  0  0  0  0  0  0  0  0  0  0  0
   44.9036    4.7349   12.7833 C   0  0  0  0  0  0  0  0  0  0  0  0
   45.8890    7.3088   12.5251 C   0  0  0  0  0  0  0  0  0  0  0  0
   46.7515    6.3760   13.1524 C   0  0  0  0  0  0  0  0  0  0  0  0
   44.0353    8.0810   11.5072 N   0  0  0  0  0  0  0  0  0  0  0  0
   46.0625    8.6325   12.2465 N   0  0  0  0  0  0  0  0  0  0  0  0
   44.9135    9.0570   11.6301 C   0  0  0  0  0  0  0  0  0  0  0  0
   44.4901    3.5787   12.9120 O   0  0  0  0  0  0  0  0  0  0  0  0
   47.8670    6.6861   13.5574 O   0  0  0  0  0  0  0  0  0  0  0  0
   42.8044    5.4378   11.6766 C   0  0  0  0  0  0  0  0  0  0  0  0
   46.9686    4.0525   13.8696 C   0  0  0  0  0  0  0  0  0  0  0  0
   44.3262    5.4496   12.0715 N   0  0  0  0  0  0  0  0  0  0  0  0
   45.3984    4.9708   12.7839 C   0  0  0  0  0  0  0  0  0  0  0  0
   45.2286    7.6495   12.3820 N   0  0  0  0  0  0  0  0  0  0  0  0
   44.2134    6.8243   11.8496 C   0  0  0  0  0  0  0  0  0  0  0  0
   46.3527    5.8023   13.2783 C   0  0  0  0  0  0  0  0  0  0  0  0
   46.3356    7.2092   13.1115 C   0  0  0  0  0  0  0  0  0  0  0  0
   45.6586    3.6690   13.0884 N   0  0  0  0  0  0  0  0  0  0  0  0
   47.2458    4.9934   13.9172 N   0  0  0  0  0  0  0  0  0  0  0  0
   46.7834    3.7103   13.7754 C   0  0  0  0  0  0  0  0  0  0  0  0
   43.2704    7.3080   11.2161 O   0  0  0  0  0  0  0  0  0  0  0  0
   47.2129    7.9332   13.5705 O   0  0  0  0  0  0  0  0  0  0  0  0
   43.3255    4.5325   11.5581 C   0  0  0  0  0  0  0  0  0  0  0  0
   45.0921    9.0722   12.1401 C   0  0  0  0  0  0  0  0  0  0  0  0
   43.9777    6.5849   11.8775 N   0  0  0  0  0  0  0  0  0  0  0  0
   45.8047    4.5444   12.7683 N   0  0  0  0  0  0  0  0  0  0  0  0
   46.0132    5.9423   13.1512 C   0  0  0  0  0  0  0  0  0  0  0  0
   45.3955    6.8949   12.1106 C   0  0  0  0  0  0  0  0  0  0  0  0
   46.8828    9.1870   12.4569 H   0  0  0  0  0  0  0  0  0  0  0  0
   44.7781   10.0781   11.2974 H   0  0  0  0  0  0  0  0  0  0  0  0
   42.7744    5.6463   10.6025 H   0  0  0  0  0  0  0  0  0  0  0  0
   42.5302    4.3918   11.8367 H   0  0  0  0  0  0  0  0  0  0  0  0
   42.0781    6.0726   12.1939 H   0  0  0  0  0  0  0  0  0  0  0  0
   46.4170    3.6616   14.7309 H   0  0  0  0  0  0  0  0  0  0  0  0
   47.9482    4.4019   14.2047 H   0  0  0  0  0  0  0  0  0  0  0  0
   47.1085    3.2385   13.1507 H   0  0  0  0  0  0  0  0  0  0  0  0
   48.0845    5.2900   14.3999 H   0  0  0  0  0  0  0  0  0  0  0  0
   47.3050    2.8576   14.1907 H   0  0  0  0  0  0  0  0  0  0  0  0
   42.5346    5.0551   11.0139 H   0  0  0  0  0  0  0  0  0  0  0  0
   43.8070    3.8223   10.8785 H   0  0  0  0  0  0  0  0  0  0  0  0
   42.8743    3.9908   12.3955 H   0  0  0  0  0  0  0  0  0  0  0  0
   45.0698    9.2488   11.0598 H   0  0  0  0  0  0  0  0  0  0  0  0
   45.9084    9.6523   12.5775 H   0  0  0  0  0  0  0  0  0  0  0  0
   44.1438    9.4160   12.5661 H   0  0  0  0  0  0  0  0  0  0  0  0
   43.4524    6.7557   12.7339 H   0  0  0  0  0  0  0  0  0  0  0  0
   43.6097    7.2330   11.1819 H   0  0  0  0  0  0  0  0  0  0  0  0
   45.7709    3.9620   13.6015 H   0  0  0  0  0  0  0  0  0  0  0  0
   44.8759    4.4930   12.3364 H   0  0  0  0  0  0  0  0  0  0  0  0
   47.0846    6.1391   13.2559 H   0  0  0  0  0  0  0  0  0  0  0  0
   45.5424    6.1195   14.1253 H   0  0  0  0  0  0  0  0  0  0  0  0
   45.9349    6.8048   11.1610 H   0  0  0  0  0  0  0  0  0  0  0  0
   45.4929    7.9305   12.4533 H   0  0  0  0  0  0  0  0  0  0  0  0
  2  1  1  0
  3  4  1  0
  4  1  1  0
  5  2  2  0
  6  3  1  0
  7  2  1  0
  8  5  1  0
  9  7  2  0
 10  4  2  0
 11  6  2  0
 12  1  1  0
 13  3  1  0
  5  6  1  0
  8  9  1  0
 15 14  1  0
 16 17  1  0
 17 14  1  0
 18 15  2  0
 19 16  1  0
 20 15  1  0
 21 18  1  0
 22 20  2  0
 23 17  2  0
 24 19  2  0
 25 14  1  0
 26 16  1  0
 18 19  1  0
 21 22  1  0
 28 29  1  0
 29 30  1  0
 30 27  1  0
  8 31  1  0
  9 32  1  0
 12 33  1  0
 12 34  1  0
 12 35  1  0
 13 36  1  0
 13 37  1  0
 13 38  1  0
 21 39  1  0
 22 40  1  0
 25 41  1  0
 25 42  1  0
 25 43  1  0
 26 44  1  0
 26 45  1  0
 26 46  1  0
 27 47  1  0
 27 48  1  0
 28 49  1  0
 28 50  1  0
 29 51  1  0
 29 52  1  0
 30 53  1  0
 30 54  1  0
M  END
> <Uni-Dock RESULT> 
ENERGY=   -6.704  LOWER_BOUND=    1.028  UPPER_BOUND=    3.007
INTER + INTRA:          -6.704
INTER:                  -6.704
INTRA:                   0.000
UNBOUND:                 0.000

$$$$

     RDKit          3D

 54 55  0  0  0  0  0  0  0  0999 V2000
   44.9980    7.5040   12.0107 N   0  0  0  0  0  0  0  0  0  0  0  0
   44.2513    6.3516   12.0352 C   0  0  0  0  0  0  0  0  0  0  0  0
   46.6531    6.3419   13.2993 N   0  0  0  0  0  0  0  0  0  0  0  0
   46.2384    7.5275   12.6531 C   0  0  0  0  0  0  0  0  0  0  0  0
   44.6901    5.2330   12.6698 C   0  0  0  0  0  0  0  0  0  0  0  0
   45.9296    5.1480   13.3509 C   0  0  0  0  0  0  0  0  0  0  0  0
   43.0300    6.1595   11.4638 N   0  0  0  0  0  0  0  0  0  0  0  0
   43.7085    4.3033   12.4906 N   0  0  0  0  0  0  0  0  0  0  0  0
   42.7237    4.9103   11.7544 C   0  0  0  0  0  0  0  0  0  0  0  0
   46.9499    8.5365   12.6620 O   0  0  0  0  0  0  0  0  0  0  0  0
   46.2975    4.1227   13.9145 O   0  0  0  0  0  0  0  0  0  0  0  0
   44.4983    8.6805   11.3233 C   0  0  0  0  0  0  0  0  0  0  0  0
   47.9427    6.3880   13.9594 C   0  0  0  0  0  0  0  0  0  0  0  0
   45.1318    7.6378   12.3150 N   0  0  0  0  0  0  0  0  0  0  0  0
   46.2055    7.0749   12.9605 C   0  0  0  0  0  0  0  0  0  0  0  0
   44.2252    5.4278   12.1053 N   0  0  0  0  0  0  0  0  0  0  0  0
   44.0979    6.8136   11.8639 C   0  0  0  0  0  0  0  0  0  0  0  0
   46.2864    5.7349   13.1713 C   0  0  0  0  0  0  0  0  0  0  0  0
   45.2962    4.8106   12.7561 C   0  0  0  0  0  0  0  0  0  0  0  0
   47.2905    7.7292   13.4602 N   0  0  0  0  0  0  0  0  0  0  0  0
   47.4659    5.5396   13.8276 N   0  0  0  0  0  0  0  0  0  0  0  0
   48.0388    6.7760   13.9802 C   0  0  0  0  0  0  0  0  0  0  0  0
   43.1101    7.2670   11.2781 O   0  0  0  0  0  0  0  0  0  0  0  0
   45.3987    3.6057   12.9616 O   0  0  0  0  0  0  0  0  0  0  0  0
   45.0783    9.0732   12.1071 C   0  0  0  0  0  0  0  0  0  0  0  0
   43.1416    4.5911   11.6291 C   0  0  0  0  0  0  0  0  0  0  0  0
   44.2126    7.1084   11.7470 N   0  0  0  0  0  0  0  0  0  0  0  0
   46.5453    7.1511   13.4358 N   0  0  0  0  0  0  0  0  0  0  0  0
   46.0283    5.8817   12.9206 C   0  0  0  0  0  0  0  0  0  0  0  0
   44.5178    5.9785   12.6364 C   0  0  0  0  0  0  0  0  0  0  0  0
   43.7131    3.3521   12.8367 H   0  0  0  0  0  0  0  0  0  0  0  0
   41.8168    4.3955   11.4644 H   0  0  0  0  0  0  0  0  0  0  0  0
   43.5487    8.9826   11.7762 H   0  0  0  0  0  0  0  0  0  0  0  0
   45.1977    9.5181   11.3877 H   0  0  0  0  0  0  0  0  0  0  0  0
   44.3403    8.4374   10.2677 H   0  0  0  0  0  0  0  0  0  0  0  0
   48.7119    6.6359   13.2205 H   0  0  0  0  0  0  0  0  0  0  0  0
   48.2030    5.4409   14.4382 H   0  0  0  0  0  0  0  0  0  0  0  0
   47.9257    7.1770   14.7184 H   0  0  0  0  0  0  0  0  0  0  0  0
   47.8390    4.6516   14.1384 H   0  0  0  0  0  0  0  0  0  0  0  0
   48.9920    6.9156   14.4736 H   0  0  0  0  0  0  0  0  0  0  0  0
   44.1686    9.3754   11.5819 H   0  0  0  0  0  0  0  0  0  0  0  0
   45.1043    9.5761   13.0790 H   0  0  0  0  0  0  0  0  0  0  0  0
   45.9440    9.3804   11.5117 H   0  0  0  0  0  0  0  0  0  0  0  0
   42.2085    4.9140   12.1024 H   0  0  0  0  0  0  0  0  0  0  0  0
   43.3020    3.5323   11.8473 H   0  0  0  0  0  0  0  0  0  0  0  0
   43.0424    4.7197   10.5462 H   0  0  0  0  0  0  0  0  0  0  0  0
   44.6406    6.9432   10.8371 H   0  0  0  0  0  0  0  0  0  0  0  0
   43.2061    7.1391   11.5885 H   0  0  0  0  0  0  0  0  0  0  0  0
   47.5261    7.2491   13.1851 H   0  0  0  0  0  0  0  0  0  0  0  0
   46.0407    7.8959   12.9433 H   0  0  0  0  0  0  0  0  0  0  0  0
   46.2276    5.0835   13.6421 H   0  0  0  0  0  0  0  0  0  0  0  0
   46.5540    5.6334   11.9911 H   0  0  0  0  0  0  0  0  0  0  0  0
   43.9729    6.1156   13.5772 H   0  0  0  0  0  0  0  0  0  0  0  0
   44.1669    5.0471   12.1796 H   0  0  0  0  0  0  0  0  0  0  0  0
  2  1  1  0
  3  4  1  0
  4  1  1  0
  5  2  2  0
  6  3  1  0
  7  2  1  0
  8  5  1  0
  9  7  2  0
 10  4  2  0
 11  6  2  0
 12  1  1  0
 13  3  1  0
  5  6  1  0
  8  9  1  0
 15 14  1  0
 16 17  1  0
 17 14  1  0
 18 15  2  0
 19 16  1  0
 20 15  1  0
 21 18  1  0
 22 20  2  0
 23 17  2  0
 24 19  2  0
 25 14  1  0
 26 16  1  0
 18 19  1  0
 21 22  1  0
 28 29  1  0
 29 30  1  0
 30 27  1  0
  8 31  1  0
  9 32  1  0
 12 33  1  0
 12 34  1  0
 12 35  1  0
 13 36  1  0
 13 37  1  0
 13 38  1  0
 21 39  1  0
 22 40  1  0
 25 41  1  0
 25 42  1  0
 25 43  1  0
 26 44  1  0
 26 45  1  0
 26 46  1  0
 27 47  1  0
 27 48  1  0
 28 49  1  0
 28 50  1  0
 29 51  1  0
 29 52  1  0
 30 53  1  0
 30 54  1  0
M  END
> <Uni-Dock RESULT> 
ENERGY=   -6.615  LOWER_BOUND=    1.089  UPPER_BOUND=    3.988
INTER + INTRA:          -6.615
INTER:                  -6.615
INTRA:                   0.000
UNBOUND:                 0.000

$$$$

     RDKit          3D

 54 55  0  0  0  0  0  0  0  0999 V2000
   45.1045    7.2342   12.4103 N   0  0  0  0  0  0  0  0  0  0  0  0
   46.2625    6.7710   12.9855 C   0  0  0  0  0  0  0  0  0  0  0  0
   44.3944    4.9504   12.2356 N   0  0  0  0  0  0  0  0  0  0  0  0
   44.1255    6.3194   12.0146 C   0  0  0  0  0  0  0  0  0  0  0  0
   46.4791    5.4436   13.1791 C   0  0  0  0  0  0  0  0  0  0  0  0
   45.5550    4.4329   12.8158 C   0  0  0  0  0  0  0  0  0  0  0  0
   47.3107    7.5212   13.4250 N   0  0  0  0  0  0  0  0  0  0  0  0
   47.7090    5.3560   13.7619 N   0  0  0  0  0  0  0  0  0  0  0  0
   48.1737    6.6397   13.8909 C   0  0  0  0  0  0  0  0  0  0  0  0
   43.0666    6.6812   11.4929 O   0  0  0  0  0  0  0  0  0  0  0  0
   45.7804    3.2420   13.0040 O   0  0  0  0  0  0  0  0  0  0  0  0
   44.9065    8.6591   12.2187 C   0  0  0  0  0  0  0  0  0  0  0  0
   43.3658    4.0186   11.8178 C   0  0  0  0  0  0  0  0  0  0  0  0
   44.9883    7.0933   12.1020 N   0  0  0  0  0  0  0  0  0  0  0  0
   44.4086    5.8503   12.0295 C   0  0  0  0  0  0  0  0  0  0  0  0
   46.6956    6.1088   13.4679 N   0  0  0  0  0  0  0  0  0  0  0  0
   46.1661    7.2554   12.8356 C   0  0  0  0  0  0  0  0  0  0  0  0
   44.9534    4.7736   12.6545 C   0  0  0  0  0  0  0  0  0  0  0  0
   46.1427    4.8266   13.4228 C   0  0  0  0  0  0  0  0  0  0  0  0
   43.2682    5.5206   11.3619 N   0  0  0  0  0  0  0  0  0  0  0  0
   44.1248    3.7286   12.3694 N   0  0  0  0  0  0  0  0  0  0  0  0
   43.1186    4.2294   11.5840 C   0  0  0  0  0  0  0  0  0  0  0  0
   46.7287    8.3501   12.9337 O   0  0  0  0  0  0  0  0  0  0  0  0
   46.6094    3.8359   13.9752 O   0  0  0  0  0  0  0  0  0  0  0  0
   44.3789    8.2212   11.4218 C   0  0  0  0  0  0  0  0  0  0  0  0
   47.9178    6.2992   14.2237 C   0  0  0  0  0  0  0  0  0  0  0  0
   45.9157    7.4712   12.7691 N   0  0  0  0  0  0  0  0  0  0  0  0
   44.1688    5.4790   11.6399 N   0  0  0  0  0  0  0  0  0  0  0  0
   45.0692    5.1342   12.7419 C   0  0  0  0  0  0  0  0  0  0  0  0
   46.3046    6.0537   12.7502 C   0  0  0  0  0  0  0  0  0  0  0  0
   48.1806    4.5053   14.0420 H   0  0  0  0  0  0  0  0  0  0  0  0
   49.1381    6.8653   14.3275 H   0  0  0  0  0  0  0  0  0  0  0  0
   45.7025    9.0471   11.5754 H   0  0  0  0  0  0  0  0  0  0  0  0
   43.9426    8.8775   11.7515 H   0  0  0  0  0  0  0  0  0  0  0  0
   44.9446    9.1592   13.1916 H   0  0  0  0  0  0  0  0  0  0  0  0
   42.4372    4.2522   12.3488 H   0  0  0  0  0  0  0  0  0  0  0  0
   43.6359    2.9786   12.0166 H   0  0  0  0  0  0  0  0  0  0  0  0
   43.1899    4.1410   10.7440 H   0  0  0  0  0  0  0  0  0  0  0  0
   44.2374    2.7721   12.6807 H   0  0  0  0  0  0  0  0  0  0  0  0
   42.3140    3.6101   11.2089 H   0  0  0  0  0  0  0  0  0  0  0  0
   44.9493    9.1422   11.5681 H   0  0  0  0  0  0  0  0  0  0  0  0
   44.3294    8.0074   10.3494 H   0  0  0  0  0  0  0  0  0  0  0  0
   43.3677    8.3706   11.8132 H   0  0  0  0  0  0  0  0  0  0  0  0
   48.6943    6.6825   13.5537 H   0  0  0  0  0  0  0  0  0  0  0  0
   48.2732    5.3751   14.6864 H   0  0  0  0  0  0  0  0  0  0  0  0
   47.7392    7.0431   15.0071 H   0  0  0  0  0  0  0  0  0  0  0  0
   45.4319    7.6739   13.6428 H   0  0  0  0  0  0  0  0  0  0  0  0
   46.7594    8.0433   12.7697 H   0  0  0  0  0  0  0  0  0  0  0  0
   43.2128    5.2376   11.8897 H   0  0  0  0  0  0  0  0  0  0  0  0
   44.1983    6.4997   11.5443 H   0  0  0  0  0  0  0  0  0  0  0  0
   45.3766    4.0877   12.6520 H   0  0  0  0  0  0  0  0  0  0  0  0
   44.5312    5.2459   13.6906 H   0  0  0  0  0  0  0  0  0  0  0  0
   46.9096    5.8680   11.8556 H   0  0  0  0  0  0  0  0  0  0  0  0
   46.9250    5.8320   13.6251 H   0  0  0  0  0  0  0  0  0  0  0  0
  2  1  1  0
  3  4  1  0
  4  1  1  0
  5  2  2  0
  6  3  1  0
  7  2  1  0
  8  5  1  0
  9  7  2  0
 10  4  2  0
 11  6  2  0
 12  1  1  0
 13  3  1  0
  5  6  1  0
  8  9  1  0
 15 14  1  0
 16 17  1  0
 17 14  1  0
 18 15  2  0
 19 16  1  0
 20 15  1  0
 21 18  1  0
 22 20  2  0
 23 17  2  0
 24 19  2  0
 25 14  1  0
 26 16  1  0
 18 19  1  0
 21 22  1  0
 28 29  1  0
 29 30  1  0
 30 27  1  0
  8 31  1  0
  9 32  1  0
 12 33  1  0
 12 34  1  0
 12 35  1  0
 13 36  1  0
 13 37  1  0
 13 38  1  0
 21 39  1  0
 22 40  1  0
 25 41  1  0
 25 42  1  0
 25 43  1  0
 26 44  1  0
 26 45  1  0
 26 46  1  0
 27 47  1  0
 27 48  1  0
 28 49  1  0
 28 50  1  0
 29 51  1  0
 29 52  1  0
 30 53  1  0
 30 54  1  0
M  END
> <Uni-Dock RESULT> 
ENERGY=   -6.421  LOWER_BOUND=    1.011  UPPER_BOUND=    2.931
INTER + INTRA:          -6.421
INTER:                  -6.421
INTRA:                   0.000
UNBOUND:                 0.000

$$$$

     RDKit          3D

 54 55  0  0  0  0  0  0  0  0999 V2000
   44.5309    5.6322   12.1110 N   0  0  0  0  0  0  0  0  0  0  0  0
   45.5137    5.0460   12.8706 C   0  0  0  0  0  0  0  0  0  0  0  0
   45.6289    7.7305   12.4876 N   0  0  0  0  0  0  0  0  0  0  0  0
   44.5654    7.0124   11.8974 C   0  0  0  0  0  0  0  0  0  0  0  0
   46.5192    5.7766   13.4197 C   0  0  0  0  0  0  0  0  0  0  0  0
   46.6492    7.1791   13.2664 C   0  0  0  0  0  0  0  0  0  0  0  0
   45.6286    3.7234   13.1745 N   0  0  0  0  0  0  0  0  0  0  0  0
   47.2951    4.8802   14.0939 N   0  0  0  0  0  0  0  0  0  0  0  0
   46.7162    3.6498   13.9165 C   0  0  0  0  0  0  0  0  0  0  0  0
   43.7077    7.5903   11.2231 O   0  0  0  0  0  0  0  0  0  0  0  0
   47.5695    7.8104   13.7753 O   0  0  0  0  0  0  0  0  0  0  0  0
   43.4717    4.8212   11.5396 C   0  0  0  0  0  0  0  0  0  0  0  0
   45.6457    9.1609   12.2536 C   0  0  0  0  0  0  0  0  0  0  0  0
   44.3563    5.9199   12.2342 N   0  0  0  0  0  0  0  0  0  0  0  0
   44.9272    7.1683   12.2786 C   0  0  0  0  0  0  0  0  0  0  0  0
   46.3823    5.0677   13.1929 N   0  0  0  0  0  0  0  0  0  0  0  0
   45.0826    4.8204   12.6983 C   0  0  0  0  0  0  0  0  0  0  0  0
   46.1821    7.3600   12.7633 C   0  0  0  0  0  0  0  0  0  0  0  0
   47.0038    6.3171   13.2579 C   0  0  0  0  0  0  0  0  0  0  0  0
   44.3616    8.3379   11.8697 N   0  0  0  0  0  0  0  0  0  0  0  0
   46.4141    8.6995   12.6551 N   0  0  0  0  0  0  0  0  0  0  0  0
   45.2834    9.2501   12.1087 C   0  0  0  0  0  0  0  0  0  0  0  0
   44.6177    3.6767   12.6814 O   0  0  0  0  0  0  0  0  0  0  0  0
   48.1335    6.5229   13.6891 O   0  0  0  0  0  0  0  0  0  0  0  0
   43.0135    5.7519   11.7100 C   0  0  0  0  0  0  0  0  0  0  0  0
   47.1183    3.9133   13.6693 C   0  0  0  0  0  0  0  0  0  0  0  0
   44.8436    4.8434   12.4616 N   0  0  0  0  0  0  0  0  0  0  0  0
   44.8031    7.7231   12.4330 N   0  0  0  0  0  0  0  0  0  0  0  0
   46.0550    7.0034   12.6754 C   0  0  0  0  0  0  0  0  0  0  0  0
   45.7819    5.6168   13.2875 C   0  0  0  0  0  0  0  0  0  0  0  0
   48.1338    5.0898   14.6204 H   0  0  0  0  0  0  0  0  0  0  0  0
   47.1297    2.7476   14.3486 H   0  0  0  0  0  0  0  0  0  0  0  0
   42.9279    4.3225   12.3481 H   0  0  0  0  0  0  0  0  0  0  0  0
   42.7644    5.4223   10.9622 H   0  0  0  0  0  0  0  0  0  0  0  0
   43.9142    4.0703   10.8775 H   0  0  0  0  0  0  0  0  0  0  0  0
   45.6950    9.3443   11.1752 H   0  0  0  0  0  0  0  0  0  0  0  0
   46.4922    9.6552   12.7365 H   0  0  0  0  0  0  0  0  0  0  0  0
   44.7157    9.5947   12.6356 H   0  0  0  0  0  0  0  0  0  0  0  0
   47.2592    9.1855   12.9273 H   0  0  0  0  0  0  0  0  0  0  0  0
   45.1930   10.3105   11.9109 H   0  0  0  0  0  0  0  0  0  0  0  0
   42.6930    4.7072   11.7372 H   0  0  0  0  0  0  0  0  0  0  0  0
   42.3183    6.3465   12.3111 H   0  0  0  0  0  0  0  0  0  0  0  0
   42.9894    6.0978   10.6717 H   0  0  0  0  0  0  0  0  0  0  0  0
   46.5526    3.4399   14.4784 H   0  0  0  0  0  0  0  0  0  0  0  0
   48.1138    4.1731   14.0375 H   0  0  0  0  0  0  0  0  0  0  0  0
   47.2189    3.1931   12.8506 H   0  0  0  0  0  0  0  0  0  0  0  0
   45.2732    4.6511   11.5578 H   0  0  0  0  0  0  0  0  0  0  0  0
   44.6872    3.9377   12.9027 H   0  0  0  0  0  0  0  0  0  0  0  0
   44.9223    8.3661   11.6540 H   0  0  0  0  0  0  0  0  0  0  0  0
   44.1149    7.0240   12.1339 H   0  0  0  0  0  0  0  0  0  0  0  0
   46.6947    7.5917   13.3405 H   0  0  0  0  0  0  0  0  0  0  0  0
   46.5847    6.8785   11.7237 H   0  0  0  0  0  0  0  0  0  0  0  0
   45.3536    5.7331   14.2894 H   0  0  0  0  0  0  0  0  0  0  0  0
   46.7226    5.0651   13.3881 H   0  0  0  0  0  0  0  0  0  0  0  0
  2  1  1  0
  3  4  1  0
  4  1  1  0
  5  2  2  0
  6  3  1  0
  7  2  1  0
  8  5  1  0
  9  7  2  0
 10  4  2  0
 11  6  2  0
 12  1  1  0
 13  3  1  0
  5  6  1  0
  8  9  1  0
 15 14  1  0
 16 17  1  0
 17 14  1  0
 18 15  2  0
 19 16  1  0
 20 15  1  0
 21 18  1  0
 22 20  2  0
 23 17  2  0
 24 19  2  0
 25 14  1  0
 26 16  1  0
 18 19  1  0
 21 22  1  0
 28 29  1  0
 29 30  1  0
 30 27  1  0
  8 31  1  0
  9 32  1  0
 12 33  1  0
 12 34  1  0
 12 35  1  0
 13 36  1  0
 13 37  1  0
 13 38  1  0
 21 39  1  0
 22 40  1  0
 25 41  1  0
 25 42  1  0
 25 43  1  0
 26 44  1  0
 26 45  1  0
 26 46  1  0
 27 47  1  0
 27 48  1  0
 28 49  1  0
 28 50  1  0
 29 51  1  0
 29 52  1  0
 30 53  1  0
 30 54  1  0
M  END
> <Uni-Dock RESULT> 
ENERGY=   -6.354  LOWER_BOUND=    1.102  UPPER_BOUND=    4.170
INTER + INTRA:          -6.354
INTER:                  -6.354
INTRA:                   0.000
UNBOUND:                 0.000

$$$$
