
     RDKit          3D

 25 24  0  0  0  0  0  0  0  0999 V2000
    0.0000    0.0000    0.0000 Zn  0  0  0  0  0 15  0  0  0  0  0  0
    0.7322   -1.0836   -0.0941 N   0  0  0  0  0  0  0  0  0  0  0  0
    1.4038    0.1465   -0.0180 C   0  0  0  0  0  0  0  0  0  0  0  0
    1.4286   -2.2783   -0.1955 O   0  0  0  0  0  0  0  0  0  0  0  0
    3.0771    0.4199   -0.0323 S   0  0  0  0  0  0  0  0  0  0  0  0
   -0.6303   -1.2429   -0.0778 C   0  0  0  0  0  0  0  0  0  0  0  0
    0.4618    1.3236    0.0872 C   0  0  0  0  0  0  0  0  0  0  0  0
   -1.4357   -0.1775    0.0164 C   0  0  0  0  0  0  0  0  0  0  0  0
   -0.8674    1.1442    0.1013 C   0  0  0  0  0  0  0  0  0  0  0  0
    0.7740    1.0583   -0.0120 N   0  0  0  0  0  0  0  0  0  0  0  0
   -0.6131    1.2714    0.0096 C   0  0  0  0  0  0  0  0  0  0  0  0
    1.6648    2.1207   -0.0257 O   0  0  0  0  0  0  0  0  0  0  0  0
   -1.4372    2.7531    0.0224 S   0  0  0  0  0  0  0  0  0  0  0  0
    1.3852   -0.1698   -0.0215 C   0  0  0  0  0  0  0  0  0  0  0  0
   -1.4043   -0.0163    0.0218 C   0  0  0  0  0  0  0  0  0  0  0  0
    0.6532   -1.2908   -0.0102 C   0  0  0  0  0  0  0  0  0  0  0  0
   -0.7853   -1.2062    0.0121 C   0  0  0  0  0  0  0  0  0  0  0  0
   -1.0175   -2.2546   -0.1438 H   0  0  0  0  0  0  0  0  0  0  0  0
    0.9001    2.3105    0.1502 H   0  0  0  0  0  0  0  0  0  0  0  0
   -2.5109   -0.2954    0.0298 H   0  0  0  0  0  0  0  0  0  0  0  0
   -1.5417    1.9876    0.1766 H   0  0  0  0  0  0  0  0  0  0  0  0
    2.4702   -0.1896   -0.0383 H   0  0  0  0  0  0  0  0  0  0  0  0
   -2.4832    0.0601    0.0385 H   0  0  0  0  0  0  0  0  0  0  0  0
    1.1282   -2.2627   -0.0176 H   0  0  0  0  0  0  0  0  0  0  0  0
   -1.3524   -2.1282    0.0209 H   0  0  0  0  0  0  0  0  0  0  0  0
  3  2  1  0
  4  2  1  0
  5  3  2  0
  6  2  1  0
  7  3  1  0
  8  6  2  0
  9  7  2  0
  8  9  1  0
 11 10  1  0
 12 10  1  0
 13 11  2  0
 14 10  1  0
 15 11  1  0
 16 14  2  0
 17 16  1  0
 15 17  2  0
  6 18  1  0
  7 19  1  0
  8 20  1  0
  9 21  1  0
 14 22  1  0
 15 23  1  0
 16 24  1  0
 17 25  1  0
M  CHG  3   1   2   4  -1  12  -1
M  END
$$$$
