
     RDKit          3D

 25 24  0  0  0  0  0  0  0  0999 V2000
    0.0000    0.0000    0.0000 Zn  0  0  0  0  0 15  0  0  0  0  0  0
    0.8343   -1.0114   -0.0111 N   0  0  0  0  0  0  0  0  0  0  0  0
    1.3834    0.2803   -0.0061 C   0  0  0  0  0  0  0  0  0  0  0  0
    1.6439   -2.1370   -0.0228 O   0  0  0  0  0  0  0  0  0  0  0  0
    3.0228    0.7131   -0.0127 S   0  0  0  0  0  0  0  0  0  0  0  0
   -0.5067   -1.3006   -0.0053 C   0  0  0  0  0  0  0  0  0  0  0  0
    0.3310    1.3650    0.0067 C   0  0  0  0  0  0  0  0  0  0  0  0
   -1.4122   -0.3143    0.0061 C   0  0  0  0  0  0  0  0  0  0  0  0
   -0.9748    1.0589    0.0122 C   0  0  0  0  0  0  0  0  0  0  0  0
    1.2292    0.4561    0.0127 N   0  0  0  0  0  0  0  0  0  0  0  0
    1.0561   -0.9364   -0.0195 C   0  0  0  0  0  0  0  0  0  0  0  0
    2.4943    1.0234    0.0281 O   0  0  0  0  0  0  0  0  0  0  0  0
    2.2570   -2.1331   -0.0448 S   0  0  0  0  0  0  0  0  0  0  0  0
    0.2143    1.3789    0.0320 C   0  0  0  0  0  0  0  0  0  0  0  0
   -0.3986   -1.3465   -0.0316 C   0  0  0  0  0  0  0  0  0  0  0  0
   -1.0638    0.9802    0.0205 C   0  0  0  0  0  0  0  0  0  0  0  0
   -1.3746   -0.4267   -0.0123 C   0  0  0  0  0  0  0  0  0  0  0  0
   -0.7938   -2.3471   -0.0102 H   0  0  0  0  0  0  0  0  0  0  0  0
    0.6715    2.3917    0.0112 H   0  0  0  0  0  0  0  0  0  0  0  0
   -2.4712   -0.5347    0.0107 H   0  0  0  0  0  0  0  0  0  0  0  0
   -1.7283    1.8361    0.0213 H   0  0  0  0  0  0  0  0  0  0  0  0
    0.4911    2.4279    0.0566 H   0  0  0  0  0  0  0  0  0  0  0  0
   -0.6193   -2.4051   -0.0563 H   0  0  0  0  0  0  0  0  0  0  0  0
   -1.8694    1.7021    0.0356 H   0  0  0  0  0  0  0  0  0  0  0  0
   -2.4164   -0.7208   -0.0210 H   0  0  0  0  0  0  0  0  0  0  0  0
  3  2  1  0
  4  2  1  0
  5  3  2  0
  6  2  1  0
  7  3  1  0
  8  6  2  0
  9  7  2  0
  8  9  1  0
 11 10  1  0
 12 10  1  0
 13 11  2  0
 14 10  1  0
 15 11  1  0
 16 14  2  0
 17 16  1  0
 15 17  2  0
  6 18  1  0
  7 19  1  0
  8 20  1  0
  9 21  1  0
 14 22  1  0
 15 23  1  0
 16 24  1  0
 17 25  1  0
M  CHG  3   1   2   4  -1  12  -1
M  END
$$$$
