
     RDKit          3D

 25 24  0  0  0  0  0  0  0  0999 V2000
    0.0000    0.0000    0.0000 Zn  0  0  0  0  0 15  0  0  0  0  0  0
    1.1350    0.6563   -0.0112 N   0  0  0  0  0  0  0  0  0  0  0  0
    1.1981   -0.7443    0.0544 C   0  0  0  0  0  0  0  0  0  0  0  0
    2.2867    1.4282   -0.0274 O   0  0  0  0  0  0  0  0  0  0  0  0
    2.5827   -1.7206    0.1225 S   0  0  0  0  0  0  0  0  0  0  0  0
   -0.0203    1.3942   -0.0645 C   0  0  0  0  0  0  0  0  0  0  0  0
   -0.1668   -1.3933    0.0614 C   0  0  0  0  0  0  0  0  0  0  0  0
   -1.2132    0.7862   -0.0565 C   0  0  0  0  0  0  0  0  0  0  0  0
   -1.2833   -0.6518    0.0085 C   0  0  0  0  0  0  0  0  0  0  0  0
    0.9451   -0.9088   -0.0121 N   0  0  0  0  0  0  0  0  0  0  0  0
    1.3421    0.4374    0.0062 C   0  0  0  0  0  0  0  0  0  0  0  0
    1.8787   -1.9338   -0.0257 O   0  0  0  0  0  0  0  0  0  0  0  0
    2.9208    1.0557    0.0150 S   0  0  0  0  0  0  0  0  0  0  0  0
   -0.3538   -1.3501   -0.0183 C   0  0  0  0  0  0  0  0  0  0  0  0
    0.1719    1.3939    0.0189 C   0  0  0  0  0  0  0  0  0  0  0  0
   -1.3667   -0.4745   -0.0068 C   0  0  0  0  0  0  0  0  0  0  0  0
   -1.0901    0.9398    0.0124 C   0  0  0  0  0  0  0  0  0  0  0  0
    0.0765    2.4740   -0.1126 H   0  0  0  0  0  0  0  0  0  0  0  0
   -0.2066   -2.4732    0.1104 H   0  0  0  0  0  0  0  0  0  0  0  0
   -2.1283    1.3614   -0.0984 H   0  0  0  0  0  0  0  0  0  0  0  0
   -2.2607   -1.1171    0.0135 H   0  0  0  0  0  0  0  0  0  0  0  0
   -0.5187   -2.4226   -0.0329 H   0  0  0  0  0  0  0  0  0  0  0  0
    0.3920    2.4529    0.0332 H   0  0  0  0  0  0  0  0  0  0  0  0
   -2.3934   -0.8151   -0.0116 H   0  0  0  0  0  0  0  0  0  0  0  0
   -1.9280    1.6252    0.0215 H   0  0  0  0  0  0  0  0  0  0  0  0
  3  2  1  0
  4  2  1  0
  5  3  2  0
  6  2  1  0
  7  3  1  0
  8  6  2  0
  9  7  2  0
  8  9  1  0
 11 10  1  0
 12 10  1  0
 13 11  2  0
 14 10  1  0
 15 11  1  0
 16 14  2  0
 17 16  1  0
 15 17  2  0
  6 18  1  0
  7 19  1  0
  8 20  1  0
  9 21  1  0
 14 22  1  0
 15 23  1  0
 16 24  1  0
 17 25  1  0
M  CHG  3   1   2   4  -1  12  -1
M  END
$$$$
