
     RDKit          3D

 25 24  0  0  0  0  0  0  0  0999 V2000
    0.0000    0.0000    0.0000 Zn  0  0  0  0  0 15  0  0  0  0  0  0
    0.8499   -0.9958    0.0727 N   0  0  0  0  0  0  0  0  0  0  0  0
    1.3761    0.3055    0.0746 C   0  0  0  0  0  0  0  0  0  0  0  0
    1.6770   -2.1061    0.1467 O   0  0  0  0  0  0  0  0  0  0  0  0
    3.0050    0.7681    0.1607 S   0  0  0  0  0  0  0  0  0  0  0  0
   -0.4837   -1.3093    0.0008 C   0  0  0  0  0  0  0  0  0  0  0  0
    0.3073    1.3705   -0.0126 C   0  0  0  0  0  0  0  0  0  0  0  0
   -1.4042   -0.3400   -0.0755 C   0  0  0  0  0  0  0  0  0  0  0  0
   -0.9910    1.0406   -0.0821 C   0  0  0  0  0  0  0  0  0  0  0  0
    1.2604    0.3596    0.0356 N   0  0  0  0  0  0  0  0  0  0  0  0
    0.2951    1.3748    0.1235 C   0  0  0  0  0  0  0  0  0  0  0  0
    2.6156    0.6512    0.0654 O   0  0  0  0  0  0  0  0  0  0  0  0
    0.5525    3.0440    0.2730 S   0  0  0  0  0  0  0  0  0  0  0  0
    0.9903   -0.9800   -0.0846 C   0  0  0  0  0  0  0  0  0  0  0  0
   -1.1195    0.8452    0.0722 C   0  0  0  0  0  0  0  0  0  0  0  0
   -0.2754   -1.4146   -0.1269 C   0  0  0  0  0  0  0  0  0  0  0  0
   -1.3600   -0.4690   -0.0456 C   0  0  0  0  0  0  0  0  0  0  0  0
   -0.7525   -2.3607    0.0085 H   0  0  0  0  0  0  0  0  0  0  0  0
    0.6296    2.4030   -0.0168 H   0  0  0  0  0  0  0  0  0  0  0  0
   -2.4575   -0.5797   -0.1325 H   0  0  0  0  0  0  0  0  0  0  0  0
   -1.7562    1.8038   -0.1446 H   0  0  0  0  0  0  0  0  0  0  0  0
    1.8354   -1.6584   -0.1428 H   0  0  0  0  0  0  0  0  0  0  0  0
   -1.9251    1.5644    0.1341 H   0  0  0  0  0  0  0  0  0  0  0  0
   -0.4960   -2.4694   -0.2216 H   0  0  0  0  0  0  0  0  0  0  0  0
   -2.3734   -0.8480   -0.0823 H   0  0  0  0  0  0  0  0  0  0  0  0
  3  2  1  0
  4  2  1  0
  5  3  2  0
  6  2  1  0
  7  3  1  0
  8  6  2  0
  9  7  2  0
  8  9  1  0
 11 10  1  0
 12 10  1  0
 13 11  2  0
 14 10  1  0
 15 11  1  0
 16 14  2  0
 17 16  1  0
 15 17  2  0
  6 18  1  0
  7 19  1  0
  8 20  1  0
  9 21  1  0
 14 22  1  0
 15 23  1  0
 16 24  1  0
 17 25  1  0
M  CHG  3   1   2   4  -1  12  -1
M  END
$$$$
