
     RDKit          3D

 25 24  0  0  0  0  0  0  0  0999 V2000
    0.0000    0.0000    0.0000 Zn  0  0  0  0  0 15  0  0  0  0  0  0
    1.0132    0.8310   -0.0463 N   0  0  0  0  0  0  0  0  0  0  0  0
   -0.2759    1.3844    0.0008 C   0  0  0  0  0  0  0  0  0  0  0  0
    2.1404    1.6368   -0.0969 O   0  0  0  0  0  0  0  0  0  0  0  0
   -0.7033    3.0251    0.0058 S   0  0  0  0  0  0  0  0  0  0  0  0
    1.2980   -0.5110   -0.0478 C   0  0  0  0  0  0  0  0  0  0  0  0
   -1.3629    0.3356    0.0516 C   0  0  0  0  0  0  0  0  0  0  0  0
    0.3097   -1.4132   -0.0020 C   0  0  0  0  0  0  0  0  0  0  0  0
   -1.0611   -0.9713    0.0492 C   0  0  0  0  0  0  0  0  0  0  0  0
    0.6187    1.1537    0.0736 N   0  0  0  0  0  0  0  0  0  0  0  0
   -0.7847    1.1701    0.0876 C   0  0  0  0  0  0  0  0  0  0  0  0
    1.3525    2.3278    0.1475 O   0  0  0  0  0  0  0  0  0  0  0  0
   -1.8077    2.5184    0.1897 S   0  0  0  0  0  0  0  0  0  0  0  0
    1.3955    0.0261   -0.0110 C   0  0  0  0  0  0  0  0  0  0  0  0
   -1.3884   -0.2126   -0.0018 C   0  0  0  0  0  0  0  0  0  0  0  0
    0.8271   -1.1837   -0.0889 C   0  0  0  0  0  0  0  0  0  0  0  0
   -0.6093   -1.3013   -0.0838 C   0  0  0  0  0  0  0  0  0  0  0  0
    2.3429   -0.8015   -0.0871 H   0  0  0  0  0  0  0  0  0  0  0  0
   -2.3878    0.6794    0.0898 H   0  0  0  0  0  0  0  0  0  0  0  0
    0.5267   -2.4729   -0.0028 H   0  0  0  0  0  0  0  0  0  0  0  0
   -1.8400   -1.7222    0.0856 H   0  0  0  0  0  0  0  0  0  0  0  0
    2.4726    0.1584   -0.0119 H   0  0  0  0  0  0  0  0  0  0  0  0
   -2.4674   -0.2882    0.0029 H   0  0  0  0  0  0  0  0  0  0  0  0
    1.4332   -2.0772   -0.1559 H   0  0  0  0  0  0  0  0  0  0  0  0
   -1.0421   -2.2915   -0.1479 H   0  0  0  0  0  0  0  0  0  0  0  0
  3  2  1  0
  4  2  1  0
  5  3  2  0
  6  2  1  0
  7  3  1  0
  8  6  2  0
  9  7  2  0
  8  9  1  0
 11 10  1  0
 12 10  1  0
 13 11  2  0
 14 10  1  0
 15 11  1  0
 16 14  2  0
 17 16  1  0
 15 17  2  0
  6 18  1  0
  7 19  1  0
  8 20  1  0
  9 21  1  0
 14 22  1  0
 15 23  1  0
 16 24  1  0
 17 25  1  0
M  CHG  3   1   2   4  -1  12  -1
M  END
$$$$
