
     RDKit          3D

 17 16  0  0  0  0  0  0  0  0999 V2000
    0.0000    0.0000    0.0000 Zn  0  0  0  0  0 15  0  0  0  0  0  0
    0.4217    0.7930   -0.4605 N   0  0  0  0  0  0  0  0  0  0  0  0
    0.6306   -0.5349   -0.3860 C   0  0  0  0  0  0  0  0  0  0  0  0
    1.4864    1.6231   -0.7989 O   0  0  0  0  0  0  0  0  0  0  0  0
    2.1140   -1.1897   -0.6861 S   0  0  0  0  0  0  0  0  0  0  0  0
   -0.8063    1.2718   -0.2060 C   0  0  0  0  0  0  0  0  0  0  0  0
   -0.3682   -1.4291   -0.0576 C   0  0  0  0  0  0  0  0  0  0  0  0
   -1.8318    0.4136    0.1254 C   0  0  0  0  0  0  0  0  0  0  0  0
   -1.6464   -0.9478    0.2089 C   0  0  0  0  0  0  0  0  0  0  0  0
    0.4919    0.7354   -0.1146 N   0  0  0  0  0  0  0  0  0  0  0  0
    0.6084   -0.6052   -0.1431 C   0  0  0  0  0  0  0  0  0  0  0  0
    1.6095    1.5489   -0.1947 O   0  0  0  0  0  0  0  0  0  0  0  0
    2.0980   -1.2878   -0.2747 S   0  0  0  0  0  0  0  0  0  0  0  0
   -0.7040    1.2975   -0.0087 C   0  0  0  0  0  0  0  0  0  0  0  0
   -0.5055   -1.4159   -0.0632 C   0  0  0  0  0  0  0  0  0  0  0  0
   -1.8571    0.5501    0.0752 C   0  0  0  0  0  0  0  0  0  0  0  0
   -1.7413   -0.8230    0.0464 C   0  0  0  0  0  0  0  0  0  0  0  0
  3  2  1  0
  4  2  1  0
  5  3  2  0
  6  2  1  0
  7  3  1  0
  8  6  2  0
  9  7  2  0
  8  9  1  0
 11 10  1  0
 12 10  1  0
 13 11  2  0
 14 10  1  0
 15 11  1  0
 16 14  2  0
 17 16  1  0
 15 17  2  0
M  CHG  3   1   2   4  -1  12  -1
M  END
