
     RDKit          3D

 25 24  0  0  0  0  0  0  0  0999 V2000
    0.0000    0.0000    0.0000 Zn  0  0  0  0  0 15  0  0  0  0  0  0
    1.3082   -0.0833   -0.0297 N   0  0  0  0  0  0  0  0  0  0  0  0
    0.7405    1.1999   -0.0672 C   0  0  0  0  0  0  0  0  0  0  0  0
    2.6828   -0.2627   -0.0573 O   0  0  0  0  0  0  0  0  0  0  0  0
    1.5445    2.6905   -0.1477 S   0  0  0  0  0  0  0  0  0  0  0  0
    0.6031   -1.2582    0.0355 C   0  0  0  0  0  0  0  0  0  0  0  0
   -0.7701    1.1743   -0.0279 C   0  0  0  0  0  0  0  0  0  0  0  0
   -0.7353   -1.2440    0.0688 C   0  0  0  0  0  0  0  0  0  0  0  0
   -1.4388    0.0133    0.0359 C   0  0  0  0  0  0  0  0  0  0  0  0
    0.7684   -1.0623   -0.0174 N   0  0  0  0  0  0  0  0  0  0  0  0
    1.3985    0.1917    0.0084 C   0  0  0  0  0  0  0  0  0  0  0  0
    1.5048   -2.2370   -0.0369 O   0  0  0  0  0  0  0  0  0  0  0  0
    3.0620    0.5192    0.0202 S   0  0  0  0  0  0  0  0  0  0  0  0
   -0.5883   -1.2655   -0.0258 C   0  0  0  0  0  0  0  0  0  0  0  0
    0.4171    1.3409    0.0266 C   0  0  0  0  0  0  0  0  0  0  0  0
   -1.4293   -0.2238   -0.0091 C   0  0  0  0  0  0  0  0  0  0  0  0
   -0.9056    1.1186    0.0179 C   0  0  0  0  0  0  0  0  0  0  0  0
    1.1709   -2.1828    0.0585 H   0  0  0  0  0  0  0  0  0  0  0  0
   -1.2870    2.1242   -0.0532 H   0  0  0  0  0  0  0  0  0  0  0  0
   -1.2979   -2.1665    0.1203 H   0  0  0  0  0  0  0  0  0  0  0  0
   -2.5209   -0.0045    0.0640 H   0  0  0  0  0  0  0  0  0  0  0  0
   -0.9413   -2.2915   -0.0463 H   0  0  0  0  0  0  0  0  0  0  0  0
    0.8220    2.3438    0.0469 H   0  0  0  0  0  0  0  0  0  0  0  0
   -2.5002   -0.3763   -0.0156 H   0  0  0  0  0  0  0  0  0  0  0  0
   -1.6081    1.9421    0.0310 H   0  0  0  0  0  0  0  0  0  0  0  0
  3  2  1  0
  4  2  1  0
  5  3  2  0
  6  2  1  0
  7  3  1  0
  8  6  2  0
  9  7  2  0
  8  9  1  0
 11 10  1  0
 12 10  1  0
 13 11  2  0
 14 10  1  0
 15 11  1  0
 16 14  2  0
 17 16  1  0
 15 17  2  0
  6 18  1  0
  7 19  1  0
  8 20  1  0
  9 21  1  0
 14 22  1  0
 15 23  1  0
 16 24  1  0
 17 25  1  0
M  CHG  3   1   2   4  -1  12  -1
M  END
$$$$
