
     RDKit          3D

 49 52  0  0  0  0  0  0  0  0999 V2000
    1.1059   -0.6992    0.2671 C   0  0  0  0  0  0  0  0  0  0  0  0
    0.6810    0.0676    1.4641 C   0  0  0  0  0  0  0  0  0  0  0  0
   -0.6914    0.6659    1.4958 C   0  0  0  0  0  0  0  0  0  0  0  0
   -1.4919    0.4670    0.4287 C   0  0  0  0  0  0  0  0  0  0  0  0
   -1.0898   -0.3054   -0.6724 N   0  0  0  0  0  0  0  0  0  0  0  0
    0.1958   -0.8245   -0.7123 C   0  0  0  0  0  0  0  0  0  0  0  0
   -2.8836    1.0822    0.4196 C   0  0  0  0  0  0  0  0  0  0  0  0
   -3.8447    0.3994   -0.3277 N   0  0  0  0  0  0  0  0  0  0  0  0
   -3.4473   -0.5636   -1.3514 C   0  0  2  0  0  0  0  0  0  0  0  0
   -1.9918   -0.3909   -1.8236 C   0  0  0  0  0  0  0  0  0  0  0  0
   -5.2674    0.7724   -0.2677 C   0  0  1  0  0  0  0  0  0  0  0  0
   -6.1210   -0.3315   -0.9019 C   0  0  0  0  0  0  0  0  0  0  0  0
   -5.6372   -0.6799   -2.2962 C   0  0  0  0  0  0  0  0  0  0  0  0
   -4.2688   -0.3669   -2.5029 O   0  0  0  0  0  0  0  0  0  0  0  0
    2.4466   -1.3192    0.0853 C   0  0  0  0  0  0  0  0  0  0  0  0
    2.7426   -1.9151   -0.9473 O   0  0  0  0  0  0  0  0  0  0  0  0
    3.3110   -1.1727    1.1372 N   0  0  0  0  0  0  0  0  0  0  0  0
    4.6784   -1.6359    1.0978 C   0  0  0  0  0  0  0  0  0  0  0  0
    5.6145   -0.5313    0.6930 C   0  0  0  0  0  0  0  0  0  0  0  0
    5.7871   -0.1975   -0.6598 C   0  0  0  0  0  0  0  0  0  0  0  0
    6.6445    0.8425   -1.0235 C   0  0  0  0  0  0  0  0  0  0  0  0
    7.3239    1.5507   -0.0374 C   0  0  0  0  0  0  0  0  0  0  0  0
    7.1629    1.2426    1.3057 C   0  0  0  0  0  0  0  0  0  0  0  0
    6.3074    0.2059    1.6594 C   0  0  0  0  0  0  0  0  0  0  0  0
    8.1449    2.5480   -0.3911 F   0  0  0  0  0  0  0  0  0  0  0  0
    6.1503   -0.0845    2.9589 F   0  0  0  0  0  0  0  0  0  0  0  0
    1.4187    0.2360    2.4375 O   0  0  0  0  0  0  0  0  0  0  0  0
   -1.0399    1.3566    2.6394 O   0  0  0  0  0  0  0  0  0  0  0  0
   -3.1316    2.1192    1.0270 O   0  0  0  0  0  0  0  0  0  0  0  0
   -5.7940    0.9933    1.1581 C   0  0  0  0  0  0  0  0  0  0  0  0
    0.4303   -1.3642   -1.6288 H   0  0  0  0  0  0  0  0  0  0  0  0
   -3.5932   -1.5734   -0.9461 H   0  0  0  0  0  0  0  0  0  0  0  0
   -1.7294   -1.2273   -2.4841 H   0  0  0  0  0  0  0  0  0  0  0  0
   -1.8919    0.5207   -2.4281 H   0  0  0  0  0  0  0  0  0  0  0  0
   -5.3794    1.7017   -0.8400 H   0  0  0  0  0  0  0  0  0  0  0  0
   -6.0556   -1.2360   -0.2811 H   0  0  0  0  0  0  0  0  0  0  0  0
   -7.1826   -0.0595   -0.9318 H   0  0  0  0  0  0  0  0  0  0  0  0
   -5.7964   -1.7436   -2.5050 H   0  0  0  0  0  0  0  0  0  0  0  0
   -6.2091   -0.1189   -3.0429 H   0  0  0  0  0  0  0  0  0  0  0  0
    3.0235   -0.6147    1.9407 H   0  0  0  0  0  0  0  0  0  0  0  0
    4.7744   -2.4808    0.4061 H   0  0  0  0  0  0  0  0  0  0  0  0
    4.9252   -2.0115    2.0968 H   0  0  0  0  0  0  0  0  0  0  0  0
    5.2492   -0.7463   -1.4320 H   0  0  0  0  0  0  0  0  0  0  0  0
    6.7837    1.1058   -2.0676 H   0  0  0  0  0  0  0  0  0  0  0  0
    7.6933    1.8028    2.0663 H   0  0  0  0  0  0  0  0  0  0  0  0
   -0.2438    1.3541    3.2091 H   0  0  0  0  0  0  0  0  0  0  0  0
   -6.8841    1.1047    1.1585 H   0  0  0  0  0  0  0  0  0  0  0  0
   -5.5363    0.1514    1.8101 H   0  0  0  0  0  0  0  0  0  0  0  0
   -5.3925    1.9035    1.6104 H   0  0  0  0  0  0  0  0  0  0  0  0
  1  2  1  0
  2  3  1  0
  3  4  2  0
  5  6  1  0
  6  1  2  0
  4  7  1  0
  5  4  1  0
 10  5  1  0
  7  8  1  0
  9 10  1  0
  8 11  1  0
  9  8  1  0
 14  9  1  0
 11 12  1  0
 12 13  1  0
 13 14  1  0
  1 15  1  0
 15 16  2  0
 15 17  1  0
 17 18  1  0
 18 19  1  0
 19 20  2  0
 19 24  1  0
 20 21  1  0
 21 22  2  0
 22 23  1  0
 23 24  2  0
 22 25  1  0
 24 26  1  0
  2 27  2  0
  3 28  1  0
  7 29  2  0
 11 30  1  0
  6 31  1  0
  9 32  1  1
 10 33  1  0
 10 34  1  0
 11 35  1  6
 12 36  1  0
 12 37  1  0
 13 38  1  0
 13 39  1  0
 17 40  1  0
 18 41  1  0
 18 42  1  0
 20 43  1  0
 21 44  1  0
 23 45  1  0
 28 46  1  0
 30 47  1  0
 30 48  1  0
 30 49  1  0
M  END
$$$$
