
     RDKit          3D

 49 52  0  0  0  0  0  0  0  0999 V2000
    0.9624    0.7014    0.3321 C   0  0  0  0  0  0  0  0  0  0  0  0
    0.8741   -0.7763    0.2855 C   0  0  0  0  0  0  0  0  0  0  0  0
   -0.4740   -1.4253    0.2204 C   0  0  0  0  0  0  0  0  0  0  0  0
   -1.5668   -0.6315    0.1935 C   0  0  0  0  0  0  0  0  0  0  0  0
   -1.4568    0.7781    0.1939 N   0  0  0  0  0  0  0  0  0  0  0  0
   -0.2024    1.3662    0.2884 C   0  0  0  0  0  0  0  0  0  0  0  0
   -2.9542   -1.2806    0.1681 C   0  0  0  0  0  0  0  0  0  0  0  0
   -4.0267   -0.4279   -0.0983 N   0  0  0  0  0  0  0  0  0  0  0  0
   -3.7729    0.9006   -0.6235 C   0  0  2  0  0  0  0  0  0  0  0  0
   -2.6731    1.6083    0.1802 C   0  0  0  0  0  0  0  0  0  0  0  0
   -5.3698   -0.9811   -0.2583 C   0  0  1  0  0  0  0  0  0  0  0  0
   -6.4301    0.0069    0.2387 C   0  0  0  0  0  0  0  0  0  0  0  0
   -5.8612    1.4053    0.4034 C   0  0  0  0  0  0  0  0  0  0  0  0
   -4.9669    1.6871   -0.6649 O   0  0  0  0  0  0  0  0  0  0  0  0
    2.2292    1.4765    0.4238 C   0  0  0  0  0  0  0  0  0  0  0  0
    2.2280    2.7008    0.5192 O   0  0  0  0  0  0  0  0  0  0  0  0
    3.3801    0.7339    0.3962 N   0  0  0  0  0  0  0  0  0  0  0  0
    4.6714    1.3366    0.6358 C   0  0  0  0  0  0  0  0  0  0  0  0
    5.7884    0.4357    0.1901 C   0  0  0  0  0  0  0  0  0  0  0  0
    5.9201    0.0715   -1.1601 C   0  0  0  0  0  0  0  0  0  0  0  0
    6.9642   -0.7620   -1.5656 C   0  0  0  0  0  0  0  0  0  0  0  0
    7.8770   -1.2284   -0.6252 C   0  0  0  0  0  0  0  0  0  0  0  0
    7.7688   -0.8785    0.7128 C   0  0  0  0  0  0  0  0  0  0  0  0
    6.7263   -0.0486    1.1088 C   0  0  0  0  0  0  0  0  0  0  0  0
    8.8774   -2.0270   -1.0192 F   0  0  0  0  0  0  0  0  0  0  0  0
    6.6294    0.2866    2.4032 F   0  0  0  0  0  0  0  0  0  0  0  0
    1.8736   -1.4980    0.3079 O   0  0  0  0  0  0  0  0  0  0  0  0
   -0.4834   -2.8054    0.1824 O   0  0  0  0  0  0  0  0  0  0  0  0
   -3.1331   -2.4714    0.4084 O   0  0  0  0  0  0  0  0  0  0  0  0
   -5.6197   -1.4100   -1.7076 C   0  0  0  0  0  0  0  0  0  0  0  0
   -0.2238    2.4550    0.3225 H   0  0  0  0  0  0  0  0  0  0  0  0
   -3.4348    0.7822   -1.6609 H   0  0  0  0  0  0  0  0  0  0  0  0
   -2.4803    2.5923   -0.2656 H   0  0  0  0  0  0  0  0  0  0  0  0
   -2.9968    1.7892    1.2126 H   0  0  0  0  0  0  0  0  0  0  0  0
   -5.4503   -1.8875    0.3548 H   0  0  0  0  0  0  0  0  0  0  0  0
   -7.2786    0.0316   -0.4559 H   0  0  0  0  0  0  0  0  0  0  0  0
   -6.8380   -0.3232    1.2018 H   0  0  0  0  0  0  0  0  0  0  0  0
   -6.6695    2.1434    0.3799 H   0  0  0  0  0  0  0  0  0  0  0  0
   -5.3489    1.5199    1.3659 H   0  0  0  0  0  0  0  0  0  0  0  0
    3.3066   -0.2824    0.4387 H   0  0  0  0  0  0  0  0  0  0  0  0
    4.7352    2.2948    0.1068 H   0  0  0  0  0  0  0  0  0  0  0  0
    4.7317    1.5562    1.7075 H   0  0  0  0  0  0  0  0  0  0  0  0
    5.2074    0.4363   -1.8976 H   0  0  0  0  0  0  0  0  0  0  0  0
    7.0717   -1.0499   -2.6071 H   0  0  0  0  0  0  0  0  0  0  0  0
    8.4855   -1.2459    1.4374 H   0  0  0  0  0  0  0  0  0  0  0  0
    0.4528   -3.0860    0.2388 H   0  0  0  0  0  0  0  0  0  0  0  0
   -6.5993   -1.8893   -1.8065 H   0  0  0  0  0  0  0  0  0  0  0  0
   -5.5903   -0.5550   -2.3915 H   0  0  0  0  0  0  0  0  0  0  0  0
   -4.8598   -2.1253   -2.0400 H   0  0  0  0  0  0  0  0  0  0  0  0
  1  2  1  0
  2  3  1  0
  3  4  2  0
  5  6  1  0
  6  1  2  0
  4  7  1  0
  5  4  1  0
 10  5  1  0
  7  8  1  0
  9 10  1  0
  8 11  1  0
  9  8  1  0
 14  9  1  0
 11 12  1  0
 12 13  1  0
 13 14  1  0
  1 15  1  0
 15 16  2  0
 15 17  1  0
 17 18  1  0
 18 19  1  0
 19 20  2  0
 19 24  1  0
 20 21  1  0
 21 22  2  0
 22 23  1  0
 23 24  2  0
 22 25  1  0
 24 26  1  0
  2 27  2  0
  3 28  1  0
  7 29  2  0
 11 30  1  0
  6 31  1  0
  9 32  1  6
 10 33  1  0
 10 34  1  0
 11 35  1  1
 12 36  1  0
 12 37  1  0
 13 38  1  0
 13 39  1  0
 17 40  1  0
 18 41  1  0
 18 42  1  0
 20 43  1  0
 21 44  1  0
 23 45  1  0
 28 46  1  0
 30 47  1  0
 30 48  1  0
 30 49  1  0
M  END
$$$$
