
     RDKit          3D

 49 52  0  0  0  0  0  0  0  0999 V2000
    0.9740   -0.7359    0.3265 C   0  0  0  0  0  0  0  0  0  0  0  0
    0.7940    0.7332    0.2947 C   0  0  0  0  0  0  0  0  0  0  0  0
   -0.5842    1.3027    0.4294 C   0  0  0  0  0  0  0  0  0  0  0  0
   -1.6219    0.4458    0.5507 C   0  0  0  0  0  0  0  0  0  0  0  0
   -1.4337   -0.9504    0.5262 N   0  0  0  0  0  0  0  0  0  0  0  0
   -0.1461   -1.4655    0.4403 C   0  0  0  0  0  0  0  0  0  0  0  0
   -3.0304    1.0140    0.6843 C   0  0  0  0  0  0  0  0  0  0  0  0
   -4.0827    0.1279    0.4775 N   0  0  0  0  0  0  0  0  0  0  0  0
   -3.8725   -1.2611    0.1473 C   0  0  2  0  0  0  0  0  0  0  0  0
   -2.5809   -1.8500    0.7305 C   0  0  0  0  0  0  0  0  0  0  0  0
   -5.4036    0.6649    0.1560 C   0  0  1  0  0  0  0  0  0  0  0  0
   -6.0654   -0.1935   -0.9305 C   0  0  0  0  0  0  0  0  0  0  0  0
   -4.9920   -0.6824   -1.9004 C   0  0  0  0  0  0  0  0  0  0  0  0
   -3.9317   -1.4149   -1.2711 O   0  0  0  0  0  0  0  0  0  0  0  0
    2.2842   -1.4360    0.2433 C   0  0  0  0  0  0  0  0  0  0  0  0
    2.3604   -2.6617    0.2388 O   0  0  0  0  0  0  0  0  0  0  0  0
    3.3849   -0.6229    0.1725 N   0  0  0  0  0  0  0  0  0  0  0  0
    4.7037   -1.1602   -0.0727 C   0  0  0  0  0  0  0  0  0  0  0  0
    5.7756   -0.1620    0.2636 C   0  0  0  0  0  0  0  0  0  0  0  0
    5.9064    0.3379    1.5699 C   0  0  0  0  0  0  0  0  0  0  0  0
    6.9107    1.2590    1.8739 C   0  0  0  0  0  0  0  0  0  0  0  0
    7.7856    1.6770    0.8765 C   0  0  0  0  0  0  0  0  0  0  0  0
    7.6788    1.1925   -0.4189 C   0  0  0  0  0  0  0  0  0  0  0  0
    6.6761    0.2759   -0.7139 C   0  0  0  0  0  0  0  0  0  0  0  0
    8.7480    2.5599    1.1731 F   0  0  0  0  0  0  0  0  0  0  0  0
    6.5816   -0.1899   -1.9673 F   0  0  0  0  0  0  0  0  0  0  0  0
    1.7416    1.5115    0.1632 O   0  0  0  0  0  0  0  0  0  0  0  0
   -0.6776    2.6802    0.3948 O   0  0  0  0  0  0  0  0  0  0  0  0
   -3.2478    2.1926    0.9567 O   0  0  0  0  0  0  0  0  0  0  0  0
   -6.2771    0.7682    1.4025 C   0  0  0  0  0  0  0  0  0  0  0  0
   -0.1005   -2.5534    0.4707 H   0  0  0  0  0  0  0  0  0  0  0  0
   -4.6956   -1.8462    0.5782 H   0  0  0  0  0  0  0  0  0  0  0  0
   -2.7018   -1.9989    1.8108 H   0  0  0  0  0  0  0  0  0  0  0  0
   -2.3893   -2.8270    0.2703 H   0  0  0  0  0  0  0  0  0  0  0  0
   -5.2749    1.6762   -0.2511 H   0  0  0  0  0  0  0  0  0  0  0  0
   -6.8361    0.3800   -1.4571 H   0  0  0  0  0  0  0  0  0  0  0  0
   -6.5626   -1.0617   -0.4798 H   0  0  0  0  0  0  0  0  0  0  0  0
   -5.4359   -1.3326   -2.6609 H   0  0  0  0  0  0  0  0  0  0  0  0
   -4.5389    0.1662   -2.4258 H   0  0  0  0  0  0  0  0  0  0  0  0
    3.2426    0.3800    0.0546 H   0  0  0  0  0  0  0  0  0  0  0  0
    4.7405   -1.4532   -1.1278 H   0  0  0  0  0  0  0  0  0  0  0  0
    4.8474   -2.0709    0.5207 H   0  0  0  0  0  0  0  0  0  0  0  0
    5.2239    0.0108    2.3523 H   0  0  0  0  0  0  0  0  0  0  0  0
    7.0163    1.6522    2.8805 H   0  0  0  0  0  0  0  0  0  0  0  0
    8.3664    1.5226   -1.1884 H   0  0  0  0  0  0  0  0  0  0  0  0
    0.2382    3.0113    0.2961 H   0  0  0  0  0  0  0  0  0  0  0  0
   -6.4234   -0.2126    1.8682 H   0  0  0  0  0  0  0  0  0  0  0  0
   -7.2608    1.1802    1.1555 H   0  0  0  0  0  0  0  0  0  0  0  0
   -5.8134    1.4201    2.1506 H   0  0  0  0  0  0  0  0  0  0  0  0
  1  2  1  0
  2  3  1  0
  3  4  2  0
  5  6  1  0
  6  1  2  0
  4  7  1  0
  5  4  1  0
 10  5  1  0
  7  8  1  0
  9 10  1  0
  8 11  1  0
  9  8  1  0
 14  9  1  0
 11 12  1  0
 12 13  1  0
 13 14  1  0
  1 15  1  0
 15 16  2  0
 15 17  1  0
 17 18  1  0
 18 19  1  0
 19 20  2  0
 19 24  1  0
 20 21  1  0
 21 22  2  0
 22 23  1  0
 23 24  2  0
 22 25  1  0
 24 26  1  0
  2 27  2  0
  3 28  1  0
  7 29  2  0
 11 30  1  0
  6 31  1  0
  9 32  1  1
 10 33  1  0
 10 34  1  0
 11 35  1  6
 12 36  1  0
 12 37  1  0
 13 38  1  0
 13 39  1  0
 17 40  1  0
 18 41  1  0
 18 42  1  0
 20 43  1  0
 21 44  1  0
 23 45  1  0
 28 46  1  0
 30 47  1  0
 30 48  1  0
 30 49  1  0
M  END
$$$$
