
     RDKit          3D

 49 52  0  0  0  0  0  0  0  0999 V2000
   -1.0275    0.3927    0.5407 C   0  0  0  0  0  0  0  0  0  0  0  0
   -0.7470    1.2577   -0.6277 C   0  0  0  0  0  0  0  0  0  0  0  0
    0.5951    1.1811   -1.2870 C   0  0  0  0  0  0  0  0  0  0  0  0
    1.5086    0.3230   -0.7817 C   0  0  0  0  0  0  0  0  0  0  0  0
    1.2328   -0.4656    0.3529 N   0  0  0  0  0  0  0  0  0  0  0  0
   -0.0257   -0.4058    0.9385 C   0  0  0  0  0  0  0  0  0  0  0  0
    2.8790    0.2361   -1.4447 C   0  0  0  0  0  0  0  0  0  0  0  0
    3.8822   -0.4027   -0.7231 N   0  0  0  0  0  0  0  0  0  0  0  0
    3.6597   -0.9555    0.5914 C   0  0  2  0  0  0  0  0  0  0  0  0
    2.2246   -1.4458    0.8250 C   0  0  0  0  0  0  0  0  0  0  0  0
    5.2772   -0.1483   -1.0778 C   0  0  1  0  0  0  0  0  0  0  0  0
    6.1240   -0.0178    0.1954 C   0  0  0  0  0  0  0  0  0  0  0  0
    5.2935    0.6699    1.2768 C   0  0  0  0  0  0  0  0  0  0  0  0
    4.0577    0.0044    1.5709 O   0  0  0  0  0  0  0  0  0  0  0  0
   -2.3223    0.3447    1.2725 C   0  0  0  0  0  0  0  0  0  0  0  0
   -2.5203   -0.4659    2.1726 O   0  0  0  0  0  0  0  0  0  0  0  0
   -3.2586    1.2588    0.8641 N   0  0  0  0  0  0  0  0  0  0  0  0
   -4.6059    1.2826    1.3905 C   0  0  0  0  0  0  0  0  0  0  0  0
   -5.5664    0.4322    0.5981 C   0  0  0  0  0  0  0  0  0  0  0  0
   -5.4456    0.2464   -0.7895 C   0  0  0  0  0  0  0  0  0  0  0  0
   -6.3811   -0.5260   -1.4828 C   0  0  0  0  0  0  0  0  0  0  0  0
   -7.4451   -1.1012   -0.7966 C   0  0  0  0  0  0  0  0  0  0  0  0
   -7.5990   -0.9150    0.5684 C   0  0  0  0  0  0  0  0  0  0  0  0
   -6.6637   -0.1457    1.2511 C   0  0  0  0  0  0  0  0  0  0  0  0
   -8.3400   -1.8379   -1.4676 F   0  0  0  0  0  0  0  0  0  0  0  0
   -6.8345    0.0503    2.5665 F   0  0  0  0  0  0  0  0  0  0  0  0
   -1.5855    2.0379   -1.0867 O   0  0  0  0  0  0  0  0  0  0  0  0
    0.7911    2.0223   -2.3647 O   0  0  0  0  0  0  0  0  0  0  0  0
    3.1086    0.7041   -2.5577 O   0  0  0  0  0  0  0  0  0  0  0  0
    5.8184   -1.2315   -2.0058 C   0  0  0  0  0  0  0  0  0  0  0  0
   -0.1540   -1.0781    1.7859 H   0  0  0  0  0  0  0  0  0  0  0  0
    4.3052   -1.8358    0.7091 H   0  0  0  0  0  0  0  0  0  0  0  0
    2.0623   -2.3796    0.2724 H   0  0  0  0  0  0  0  0  0  0  0  0
    2.0826   -1.6519    1.8930 H   0  0  0  0  0  0  0  0  0  0  0  0
    5.3281    0.8099   -1.6111 H   0  0  0  0  0  0  0  0  0  0  0  0
    7.0418    0.5444   -0.0091 H   0  0  0  0  0  0  0  0  0  0  0  0
    6.4279   -1.0093    0.5542 H   0  0  0  0  0  0  0  0  0  0  0  0
    5.8636    0.7342    2.2091 H   0  0  0  0  0  0  0  0  0  0  0  0
    5.0511    1.6956    0.9755 H   0  0  0  0  0  0  0  0  0  0  0  0
   -3.0377    1.8731    0.0823 H   0  0  0  0  0  0  0  0  0  0  0  0
   -4.5759    0.9569    2.4362 H   0  0  0  0  0  0  0  0  0  0  0  0
   -4.9462    2.3234    1.3642 H   0  0  0  0  0  0  0  0  0  0  0  0
   -4.6245    0.6969   -1.3426 H   0  0  0  0  0  0  0  0  0  0  0  0
   -6.2876   -0.6798   -2.5537 H   0  0  0  0  0  0  0  0  0  0  0  0
   -8.4362   -1.3577    1.0943 H   0  0  0  0  0  0  0  0  0  0  0  0
   -0.0494    2.5083   -2.4864 H   0  0  0  0  0  0  0  0  0  0  0  0
    5.7722   -2.2192   -1.5339 H   0  0  0  0  0  0  0  0  0  0  0  0
    5.2323   -1.2821   -2.9296 H   0  0  0  0  0  0  0  0  0  0  0  0
    6.8601   -1.0289   -2.2748 H   0  0  0  0  0  0  0  0  0  0  0  0
  1  2  1  0
  2  3  1  0
  3  4  2  0
  5  6  1  0
  6  1  2  0
  4  7  1  0
  5  4  1  0
 10  5  1  0
  7  8  1  0
  9 10  1  0
  8 11  1  0
  9  8  1  0
 14  9  1  0
 11 12  1  0
 12 13  1  0
 13 14  1  0
  1 15  1  0
 15 16  2  0
 15 17  1  0
 17 18  1  0
 18 19  1  0
 19 20  2  0
 19 24  1  0
 20 21  1  0
 21 22  2  0
 22 23  1  0
 23 24  2  0
 22 25  1  0
 24 26  1  0
  2 27  2  0
  3 28  1  0
  7 29  2  0
 11 30  1  0
  6 31  1  0
  9 32  1  6
 10 33  1  0
 10 34  1  0
 11 35  1  6
 12 36  1  0
 12 37  1  0
 13 38  1  0
 13 39  1  0
 17 40  1  0
 18 41  1  0
 18 42  1  0
 20 43  1  0
 21 44  1  0
 23 45  1  0
 28 46  1  0
 30 47  1  0
 30 48  1  0
 30 49  1  0
M  END
$$$$
