
     RDKit          3D

 30 33  0  0  0  0  0  0  0  0999 V2000
    0.0590   -1.0871    0.1907 C   0  0  0  0  0  0  0  0  0  0  0  0
    0.2064    0.2647   -0.0883 C   0  0  0  0  0  0  0  0  0  0  0  0
   -0.8888    1.0904   -0.3026 C   0  0  0  0  0  0  0  0  0  0  0  0
   -2.1274    0.4879   -0.2216 C   0  0  0  0  0  0  0  0  0  0  0  0
   -2.3062   -0.8148    0.0459 N   0  0  0  0  0  0  0  0  0  0  0  0
   -1.2115   -1.6032    0.2522 C   0  0  0  0  0  0  0  0  0  0  0  0
   -3.2900    1.3721   -0.4506 C   0  0  0  0  0  0  0  0  0  0  0  0
   -4.5606    0.7520   -0.3673 N   0  0  0  0  0  0  0  0  0  0  0  0
   -4.7758   -0.6278   -0.0780 C   0  0  2  0  0  0  0  0  0  0  0  0
   -3.5841   -1.4687    0.1362 C   0  0  0  0  0  0  0  0  0  0  0  0
   -5.7505    1.5809   -0.5948 C   0  0  1  0  0  0  0  0  0  0  0  0
   -6.9553    0.8103   -0.1324 C   0  0  0  0  0  0  0  0  0  0  0  0
   -6.9627   -0.6088   -0.5864 C   0  0  0  0  0  0  0  0  0  0  0  0
   -5.7198   -1.1142   -0.9495 O   0  0  0  0  0  0  0  0  0  0  0  0
    1.2514   -1.9324    0.4127 C   0  0  0  0  0  0  0  0  0  0  0  0
    1.1587   -3.1604    0.6681 O   0  0  0  0  0  0  0  0  0  0  0  0
    2.5185   -1.3430    0.3349 N   0  0  0  0  0  0  0  0  0  0  0  0
    3.7884   -2.0075    0.5217 C   0  0  0  0  0  0  0  0  0  0  0  0
    4.8595   -0.9624    0.3390 C   0  0  0  0  0  0  0  0  0  0  0  0
    5.5049   -0.4496    1.4659 C   0  0  0  0  0  0  0  0  0  0  0  0
    6.4890    0.5085    1.3400 C   0  0  0  0  0  0  0  0  0  0  0  0
    6.8029    0.9325    0.0618 C   0  0  0  0  0  0  0  0  0  0  0  0
    6.1618    0.4219   -1.0449 C   0  0  0  0  0  0  0  0  0  0  0  0
    5.1758   -0.5362   -0.9386 C   0  0  0  0  0  0  0  0  0  0  0  0
    7.7757    1.8768   -0.0341 F   0  0  0  0  0  0  0  0  0  0  0  0
    4.5283   -1.0562   -2.0089 F   0  0  0  0  0  0  0  0  0  0  0  0
    1.3462    0.7788   -0.1544 O   0  0  0  0  0  0  0  0  0  0  0  0
   -0.7063    2.4190   -0.5755 O   0  0  0  0  0  0  0  0  0  0  0  0
   -3.1342    2.5949   -0.7022 O   0  0  0  0  0  0  0  0  0  0  0  0
   -5.6534    2.8817    0.1693 C   0  0  0  0  0  0  0  0  0  0  0  0
  1  2  1  0
  2  3  1  0
  3  4  2  0
  5  6  1  0
  6  1  2  0
  4  7  1  0
  5  4  1  0
 10  5  1  0
  7  8  1  0
  9 10  1  6
  8 11  1  0
  9  8  1  0
 14  9  1  0
 11 12  1  0
 12 13  1  0
 13 14  1  0
  1 15  1  0
 15 16  2  0
 15 17  1  0
 17 18  1  0
 18 19  1  0
 19 20  2  0
 19 24  1  0
 20 21  1  0
 21 22  2  0
 22 23  1  0
 23 24  2  0
 22 25  1  0
 24 26  1  0
  2 27  2  0
  3 28  1  0
  7 29  2  0
 11 30  1  1
M  END
