
     RDKit          3D

 49 52  0  0  0  0  0  0  0  0999 V2000
    1.0020   -0.6233    0.4384 C   0  0  0  0  0  0  0  0  0  0  0  0
    0.8466    0.6988   -0.2235 C   0  0  0  0  0  0  0  0  0  0  0  0
   -0.5404    1.2631   -0.3777 C   0  0  0  0  0  0  0  0  0  0  0  0
   -1.5784    0.5124    0.0617 C   0  0  0  0  0  0  0  0  0  0  0  0
   -1.4094   -0.7493    0.6492 N   0  0  0  0  0  0  0  0  0  0  0  0
   -0.1239   -1.2419    0.8262 C   0  0  0  0  0  0  0  0  0  0  0  0
   -2.9741    1.0750   -0.1300 C   0  0  0  0  0  0  0  0  0  0  0  0
   -4.0464    0.2404    0.1358 N   0  0  0  0  0  0  0  0  0  0  0  0
   -3.8658   -1.1504    0.4892 C   0  0  2  0  0  0  0  0  0  0  0  0
   -2.5614   -1.4466    1.2450 C   0  0  0  0  0  0  0  0  0  0  0  0
   -5.3663    0.5966   -0.3844 C   0  0  1  0  0  0  0  0  0  0  0  0
   -6.0897   -0.6571   -0.8923 C   0  0  0  0  0  0  0  0  0  0  0  0
   -5.0725   -1.5897   -1.5451 C   0  0  0  0  0  0  0  0  0  0  0  0
   -3.9715   -1.9384   -0.6962 O   0  0  0  0  0  0  0  0  0  0  0  0
    2.3070   -1.2917    0.7028 C   0  0  0  0  0  0  0  0  0  0  0  0
    2.3678   -2.3965    1.2367 O   0  0  0  0  0  0  0  0  0  0  0  0
    3.4191   -0.5944    0.3119 N   0  0  0  0  0  0  0  0  0  0  0  0
    4.7382   -1.1817    0.3637 C   0  0  0  0  0  0  0  0  0  0  0  0
    5.8232   -0.1488    0.2297 C   0  0  0  0  0  0  0  0  0  0  0  0
    5.8210    1.0165    1.0147 C   0  0  0  0  0  0  0  0  0  0  0  0
    6.8513    1.9512    0.8928 C   0  0  0  0  0  0  0  0  0  0  0  0
    7.8892    1.7182   -0.0032 C   0  0  0  0  0  0  0  0  0  0  0  0
    7.9210    0.5683   -0.7779 C   0  0  0  0  0  0  0  0  0  0  0  0
    6.8908   -0.3568   -0.6515 C   0  0  0  0  0  0  0  0  0  0  0  0
    8.8770    2.6159   -0.1144 F   0  0  0  0  0  0  0  0  0  0  0  0
    6.9359   -1.4711   -1.3957 F   0  0  0  0  0  0  0  0  0  0  0  0
    1.8332    1.3136   -0.6305 O   0  0  0  0  0  0  0  0  0  0  0  0
   -0.6445    2.5146   -0.9665 O   0  0  0  0  0  0  0  0  0  0  0  0
   -3.1250    2.2304   -0.5344 O   0  0  0  0  0  0  0  0  0  0  0  0
   -6.1901    1.3340    0.6668 C   0  0  0  0  0  0  0  0  0  0  0  0
   -0.0839   -2.2104    1.3231 H   0  0  0  0  0  0  0  0  0  0  0  0
   -4.6818   -1.4461    1.1615 H   0  0  0  0  0  0  0  0  0  0  0  0
   -2.3882   -2.5297    1.2587 H   0  0  0  0  0  0  0  0  0  0  0  0
   -2.6582   -1.1033    2.2827 H   0  0  0  0  0  0  0  0  0  0  0  0
   -5.2288    1.2711   -1.2394 H   0  0  0  0  0  0  0  0  0  0  0  0
   -6.8805   -0.3856   -1.6003 H   0  0  0  0  0  0  0  0  0  0  0  0
   -6.5733   -1.1817   -0.0585 H   0  0  0  0  0  0  0  0  0  0  0  0
   -5.5573   -2.5202   -1.8575 H   0  0  0  0  0  0  0  0  0  0  0  0
   -4.6561   -1.1250   -2.4462 H   0  0  0  0  0  0  0  0  0  0  0  0
    3.2853    0.2576   -0.2358 H   0  0  0  0  0  0  0  0  0  0  0  0
    4.8616   -1.7234    1.3087 H   0  0  0  0  0  0  0  0  0  0  0  0
    4.7855   -1.9174   -0.4469 H   0  0  0  0  0  0  0  0  0  0  0  0
    5.0139    1.2009    1.7216 H   0  0  0  0  0  0  0  0  0  0  0  0
    6.8506    2.8575    1.4909 H   0  0  0  0  0  0  0  0  0  0  0  0
    8.7366    0.3924   -1.4688 H   0  0  0  0  0  0  0  0  0  0  0  0
   -1.5915    2.7760   -0.9737 H   0  0  0  0  0  0  0  0  0  0  0  0
   -6.3412    0.7161    1.5588 H   0  0  0  0  0  0  0  0  0  0  0  0
   -7.1727    1.6084    0.2696 H   0  0  0  0  0  0  0  0  0  0  0  0
   -5.6838    2.2515    0.9855 H   0  0  0  0  0  0  0  0  0  0  0  0
  1  2  1  0
  2  3  1  0
  3  4  2  0
  5  6  1  0
  6  1  2  0
  4  7  1  0
  5  4  1  0
 10  5  1  0
  7  8  1  0
  9 10  1  0
  8 11  1  0
  9  8  1  0
 14  9  1  0
 11 12  1  0
 12 13  1  0
 13 14  1  0
  1 15  1  0
 15 16  2  0
 15 17  1  0
 17 18  1  0
 18 19  1  0
 19 20  2  0
 19 24  1  0
 20 21  1  0
 21 22  2  0
 22 23  1  0
 23 24  2  0
 22 25  1  0
 24 26  1  0
  2 27  2  0
  3 28  1  0
  7 29  2  0
 11 30  1  0
  6 31  1  0
  9 32  1  1
 10 33  1  0
 10 34  1  0
 11 35  1  6
 12 36  1  0
 12 37  1  0
 13 38  1  0
 13 39  1  0
 17 40  1  0
 18 41  1  0
 18 42  1  0
 20 43  1  0
 21 44  1  0
 23 45  1  0
 28 46  1  0
 30 47  1  0
 30 48  1  0
 30 49  1  0
M  END
$$$$
