
     RDKit          3D

110111  0  0  0  0  0  0  0  0999 V2000
   -4.8260   -0.0613   -0.0246 N   0  0  0  0  0  0  0  0  0  0  0  0
   -3.8129   -0.9694    0.1939 C   0  0  0  0  0  0  0  0  0  0  0  0
   -5.7132   -0.2336   -1.1752 C   0  0  0  0  0  0  0  0  0  0  0  0
   -5.1982    1.0563    0.8499 C   0  0  0  0  0  0  0  0  0  0  0  0
   -2.9651   -0.6486    1.2231 N   0  0  0  0  0  0  0  0  0  0  0  0
   -3.6745   -1.9916   -0.4734 O   0  0  0  0  0  0  0  0  0  0  0  0
   -7.1757   -0.2739   -0.7275 C   0  0  0  0  0  0  0  0  0  0  0  0
   -6.6873    0.9820    1.2117 C   0  0  0  0  0  0  0  0  0  0  0  0
   -1.7952   -1.4741    1.4739 C   0  0  0  0  0  0  0  0  0  0  0  0
   -7.5101    0.8970    0.0379 O   0  0  0  0  0  0  0  0  0  0  0  0
   -0.6388   -1.1024    0.5298 C   0  0  0  0  0  0  0  0  0  0  0  0
   -0.2726    0.3150    0.7033 N   0  0  0  0  0  0  0  0  0  0  0  0
    0.6258    0.7996   -0.3593 C   0  0  0  0  0  0  0  0  0  0  0  0
    2.0294    0.1644   -0.3445 C   0  0  1  0  0  0  0  0  0  0  0  0
    2.9391    0.8411   -1.3797 C   0  0  0  0  0  0  0  0  0  0  0  0
    2.5805    0.3171    0.9736 O   0  0  0  0  0  0  0  0  0  0  0  0
    4.0244   -0.0239   -1.7314 O   0  0  0  0  0  0  0  0  0  0  0  0
    5.2346    0.1289   -1.1205 C   0  0  0  0  0  0  0  0  0  0  0  0
    5.5188    0.9419   -0.0226 C   0  0  0  0  0  0  0  0  0  0  0  0
    6.2580   -0.6453   -1.6766 C   0  0  0  0  0  0  0  0  0  0  0  0
    6.8144    0.9869    0.5068 C   0  0  0  0  0  0  0  0  0  0  0  0
    7.5516   -0.5999   -1.1546 C   0  0  0  0  0  0  0  0  0  0  0  0
    7.8209    0.2157   -0.0651 C   0  0  0  0  0  0  0  0  0  0  0  0
    9.0938    0.2292    0.4228 O   0  0  0  0  0  0  0  0  0  0  0  0
   -5.4916    0.1905   -0.2392 N   0  0  0  0  0  0  0  0  0  0  0  0
   -4.5900    1.0364    0.3781 C   0  0  0  0  0  0  0  0  0  0  0  0
   -5.1502   -1.0818   -0.8843 C   0  0  0  0  0  0  0  0  0  0  0  0
   -6.9229    0.3960   -0.0032 C   0  0  0  0  0  0  0  0  0  0  0  0
   -3.2717    0.6932    0.2156 N   0  0  0  0  0  0  0  0  0  0  0  0
   -4.9345    2.0067    1.0468 O   0  0  0  0  0  0  0  0  0  0  0  0
   -6.3613   -1.7077   -1.5835 C   0  0  0  0  0  0  0  0  0  0  0  0
   -7.6039   -0.9347    0.3260 C   0  0  0  0  0  0  0  0  0  0  0  0
   -2.2353    1.5438    0.7756 C   0  0  0  0  0  0  0  0  0  0  0  0
   -7.4723   -1.9267   -0.7061 O   0  0  0  0  0  0  0  0  0  0  0  0
   -0.8792    0.8229    0.8405 C   0  0  0  0  0  0  0  0  0  0  0  0
    0.1727    1.7210    1.3314 N   0  0  0  0  0  0  0  0  0  0  0  0
    1.4346    1.0158    1.6243 C   0  0  0  0  0  0  0  0  0  0  0  0
    2.1006    0.3184    0.4191 C   0  0  1  0  0  0  0  0  0  0  0  0
    3.5879    0.0489    0.6990 C   0  0  0  0  0  0  0  0  0  0  0  0
    1.4550   -0.9415    0.1637 O   0  0  0  0  0  0  0  0  0  0  0  0
    4.1527   -0.5306   -0.4878 O   0  0  0  0  0  0  0  0  0  0  0  0
    5.5181   -0.6005   -0.5338 C   0  0  0  0  0  0  0  0  0  0  0  0
    6.3694   -0.5499    0.5714 C   0  0  0  0  0  0  0  0  0  0  0  0
    6.0598   -0.7594   -1.8139 C   0  0  0  0  0  0  0  0  0  0  0  0
    7.7527   -0.6333    0.3902 C   0  0  0  0  0  0  0  0  0  0  0  0
    7.4429   -0.8398   -1.9963 C   0  0  0  0  0  0  0  0  0  0  0  0
    8.2797   -0.7728   -0.8882 C   0  0  0  0  0  0  0  0  0  0  0  0
    9.6352   -0.8410   -1.0120 O   0  0  0  0  0  0  0  0  0  0  0  0
   -0.4314    0.1940   -0.5850 C   0  0  0  0  0  0  0  0  0  0  0  0
    0.4323   -0.1887    0.3637 C   0  0  0  0  0  0  0  0  0  0  0  0
    1.8672   -0.1391    0.0794 C   0  0  0  0  0  0  0  0  0  0  0  0
    2.5630   -0.5809    1.1373 O   0  0  0  0  0  0  0  0  0  0  0  0
    2.4012    0.2378   -0.9445 O   0  0  0  0  0  0  0  0  0  0  0  0
   -1.8662    0.1505   -0.3020 C   0  0  0  0  0  0  0  0  0  0  0  0
   -2.5641    0.5453   -1.3764 O   0  0  0  0  0  0  0  0  0  0  0  0
   -2.4009   -0.1833    0.7379 O   0  0  0  0  0  0  0  0  0  0  0  0
   -5.4670   -1.1327   -1.7464 H   0  0  0  0  0  0  0  0  0  0  0  0
   -5.5487    0.6360   -1.8226 H   0  0  0  0  0  0  0  0  0  0  0  0
   -4.9979    1.9737    0.2843 H   0  0  0  0  0  0  0  0  0  0  0  0
   -4.6054    1.0786    1.7678 H   0  0  0  0  0  0  0  0  0  0  0  0
   -2.7449    0.3366    1.2594 H   0  0  0  0  0  0  0  0  0  0  0  0
   -7.8369   -0.3013   -1.5993 H   0  0  0  0  0  0  0  0  0  0  0  0
   -7.3830   -1.1622   -0.1203 H   0  0  0  0  0  0  0  0  0  0  0  0
   -6.9836    1.8802    1.7624 H   0  0  0  0  0  0  0  0  0  0  0  0
   -6.8938    0.1141    1.8486 H   0  0  0  0  0  0  0  0  0  0  0  0
   -2.0557   -2.5316    1.3548 H   0  0  0  0  0  0  0  0  0  0  0  0
   -1.5033   -1.3091    2.5165 H   0  0  0  0  0  0  0  0  0  0  0  0
    0.2179   -1.7490    0.7451 H   0  0  0  0  0  0  0  0  0  0  0  0
   -0.9466   -1.2848   -0.5056 H   0  0  0  0  0  0  0  0  0  0  0  0
    0.2107    0.4309    1.5975 H   0  0  0  0  0  0  0  0  0  0  0  0
    0.7271    1.8806   -0.2039 H   0  0  0  0  0  0  0  0  0  0  0  0
    0.1519    0.6671   -1.3398 H   0  0  0  0  0  0  0  0  0  0  0  0
    1.9699   -0.9089   -0.5610 H   0  0  0  0  0  0  0  0  0  0  0  0
    3.2765    1.8348   -1.0656 H   0  0  0  0  0  0  0  0  0  0  0  0
    2.3764    0.9848   -2.3093 H   0  0  0  0  0  0  0  0  0  0  0  0
    2.5294   -0.5575    1.3996 H   0  0  0  0  0  0  0  0  0  0  0  0
    4.7545    1.5427    0.4593 H   0  0  0  0  0  0  0  0  0  0  0  0
    6.0472   -1.2860   -2.5293 H   0  0  0  0  0  0  0  0  0  0  0  0
    7.0108    1.6232    1.3636 H   0  0  0  0  0  0  0  0  0  0  0  0
    8.3415   -1.1990   -1.5969 H   0  0  0  0  0  0  0  0  0  0  0  0
    9.1311    0.8488    1.1697 H   0  0  0  0  0  0  0  0  0  0  0  0
   -4.3486   -0.9230   -1.6104 H   0  0  0  0  0  0  0  0  0  0  0  0
   -4.7831   -1.7493   -0.0963 H   0  0  0  0  0  0  0  0  0  0  0  0
   -7.3366    0.8116   -0.9293 H   0  0  0  0  0  0  0  0  0  0  0  0
   -7.0971    1.1180    0.8010 H   0  0  0  0  0  0  0  0  0  0  0  0
   -3.0510    0.3018   -0.6854 H   0  0  0  0  0  0  0  0  0  0  0  0
   -6.0882   -2.6747   -2.0153 H   0  0  0  0  0  0  0  0  0  0  0  0
   -6.7058   -1.0684   -2.4044 H   0  0  0  0  0  0  0  0  0  0  0  0
   -8.6726   -0.7804    0.5010 H   0  0  0  0  0  0  0  0  0  0  0  0
   -7.1802   -1.3616    1.2423 H   0  0  0  0  0  0  0  0  0  0  0  0
   -2.5415    1.8650    1.7790 H   0  0  0  0  0  0  0  0  0  0  0  0
   -2.1713    2.4386    0.1426 H   0  0  0  0  0  0  0  0  0  0  0  0
   -0.9772   -0.0540    1.4923 H   0  0  0  0  0  0  0  0  0  0  0  0
   -0.6311    0.4723   -0.1669 H   0  0  0  0  0  0  0  0  0  0  0  0
   -0.1522    2.1642    2.1925 H   0  0  0  0  0  0  0  0  0  0  0  0
    1.2622    0.2933    2.4320 H   0  0  0  0  0  0  0  0  0  0  0  0
    2.1199    1.7787    2.0115 H   0  0  0  0  0  0  0  0  0  0  0  0
    2.0028    0.9253   -0.4896 H   0  0  0  0  0  0  0  0  0  0  0  0
    3.6862   -0.6676    1.5226 H   0  0  0  0  0  0  0  0  0  0  0  0
    4.0949    0.9909    0.9399 H   0  0  0  0  0  0  0  0  0  0  0  0
    2.0148   -1.3970   -0.4935 H   0  0  0  0  0  0  0  0  0  0  0  0
    5.9898   -0.4614    1.5839 H   0  0  0  0  0  0  0  0  0  0  0  0
    5.4004   -0.8053   -2.6770 H   0  0  0  0  0  0  0  0  0  0  0  0
    8.4191   -0.5904    1.2471 H   0  0  0  0  0  0  0  0  0  0  0  0
    7.8413   -0.9540   -2.9997 H   0  0  0  0  0  0  0  0  0  0  0  0
    9.8567   -0.9298   -1.9534 H   0  0  0  0  0  0  0  0  0  0  0  0
   -0.1191    0.5382   -1.5634 H   0  0  0  0  0  0  0  0  0  0  0  0
    0.1195   -0.5365    1.3412 H   0  0  0  0  0  0  0  0  0  0  0  0
    3.4984   -0.5146    0.8544 H   0  0  0  0  0  0  0  0  0  0  0  0
   -3.4997    0.4773   -1.0926 H   0  0  0  0  0  0  0  0  0  0  0  0
  3  7  1  0
  4  8  1  0
  5  9  1  0
  7 10  1  0
  9 11  1  0
 11 12  1  0
 12 13  1  0
 13 14  1  0
 14 15  1  0
 14 16  1  0
 15 17  1  0
 17 18  1  0
 18 19  2  0
 18 20  1  0
 19 21  1  0
 20 22  2  0
 21 23  2  0
 23 24  1  0
  8 10  1  0
 22 23  1  0
  1  2  1  0
  1  3  1  0
  1  4  1  0
  2  5  1  0
  2  6  2  0
 27 31  1  0
 28 32  1  0
 29 33  1  0
 31 34  1  0
 33 35  1  0
 35 36  1  0
 36 37  1  0
 37 38  1  0
 38 39  1  0
 38 40  1  0
 39 41  1  0
 41 42  1  0
 42 43  2  0
 42 44  1  0
 43 45  1  0
 44 46  2  0
 45 47  2  0
 47 48  1  0
 32 34  1  0
 46 47  1  0
 25 26  1  0
 25 27  1  0
 25 28  1  0
 26 29  1  0
 26 30  2  0
 49 50  2  0
 49 54  1  0
 50 51  1  0
 51 52  1  0
 51 53  2  0
 54 55  1  0
 54 56  2  0
  3 57  1  0
  3 58  1  0
  4 59  1  0
  4 60  1  0
  5 61  1  0
  7 62  1  0
  7 63  1  0
  8 64  1  0
  8 65  1  0
  9 66  1  0
  9 67  1  0
 11 68  1  0
 11 69  1  0
 12 70  1  0
 13 71  1  0
 13 72  1  0
 14 73  1  6
 15 74  1  0
 15 75  1  0
 16 76  1  0
 19 77  1  0
 20 78  1  0
 21 79  1  0
 22 80  1  0
 24 81  1  0
 27 82  1  0
 27 83  1  0
 28 84  1  0
 28 85  1  0
 29 86  1  0
 31 87  1  0
 31 88  1  0
 32 89  1  0
 32 90  1  0
 33 91  1  0
 33 92  1  0
 35 93  1  0
 35 94  1  0
 36 95  1  0
 37 96  1  0
 37 97  1  0
 38 98  1  6
 39 99  1  0
 39100  1  0
 40101  1  0
 43102  1  0
 44103  1  0
 45104  1  0
 46105  1  0
 48106  1  0
 49107  1  0
 50108  1  0
 52109  1  0
 55110  1  0
M  END
$$$$
