
     RDKit          3D

110111  0  0  0  0  0  0  0  0999 V2000
   -4.7678    0.2216   -1.0872 N   0  0  0  0  0  0  0  0  0  0  0  0
   -3.8903    0.7372   -0.1440 C   0  0  0  0  0  0  0  0  0  0  0  0
   -5.0815   -1.2111   -1.1556 C   0  0  0  0  0  0  0  0  0  0  0  0
   -5.9174    1.0547   -1.4489 C   0  0  0  0  0  0  0  0  0  0  0  0
   -2.8510   -0.0990    0.1673 N   0  0  0  0  0  0  0  0  0  0  0  0
   -4.0209    1.8481    0.3607 O   0  0  0  0  0  0  0  0  0  0  0  0
   -6.3024   -1.5109   -0.2726 C   0  0  0  0  0  0  0  0  0  0  0  0
   -7.1176    0.7014   -0.5628 C   0  0  0  0  0  0  0  0  0  0  0  0
   -1.8266    0.3038    1.1176 C   0  0  0  0  0  0  0  0  0  0  0  0
   -7.4285   -0.7036   -0.6626 O   0  0  0  0  0  0  0  0  0  0  0  0
   -0.8655    1.3625    0.5459 C   0  0  0  0  0  0  0  0  0  0  0  0
    0.3175    1.6121    1.3802 N   0  0  0  0  0  0  0  0  0  0  0  0
    1.2520    0.4758    1.4025 C   0  0  0  0  0  0  0  0  0  0  0  0
    2.6413    0.9304    1.9010 C   0  0  1  0  0  0  0  0  0  0  0  0
    3.6065   -0.2539    2.0598 C   0  0  0  0  0  0  0  0  0  0  0  0
    3.1846    1.8878    0.9774 O   0  0  0  0  0  0  0  0  0  0  0  0
    3.6795   -1.0217    0.8544 O   0  0  0  0  0  0  0  0  0  0  0  0
    4.8087   -0.9491    0.0893 C   0  0  0  0  0  0  0  0  0  0  0  0
    5.7650    0.0678    0.1207 C   0  0  0  0  0  0  0  0  0  0  0  0
    4.9548   -1.9972   -0.8248 C   0  0  0  0  0  0  0  0  0  0  0  0
    6.8695    0.0210   -0.7369 C   0  0  0  0  0  0  0  0  0  0  0  0
    6.0552   -2.0470   -1.6798 C   0  0  0  0  0  0  0  0  0  0  0  0
    7.0068   -1.0383   -1.6273 C   0  0  0  0  0  0  0  0  0  0  0  0
    8.0688   -1.1201   -2.4772 O   0  0  0  0  0  0  0  0  0  0  0  0
    4.3433    0.3390   -1.6432 N   0  0  0  0  0  0  0  0  0  0  0  0
    3.3210    1.2375   -1.4227 C   0  0  0  0  0  0  0  0  0  0  0  0
    4.8436    0.1575   -3.0065 C   0  0  0  0  0  0  0  0  0  0  0  0
    5.1059   -0.3491   -0.5985 C   0  0  0  0  0  0  0  0  0  0  0  0
    2.8404    1.2518   -0.1384 N   0  0  0  0  0  0  0  0  0  0  0  0
    2.8651    1.9604   -2.3042 O   0  0  0  0  0  0  0  0  0  0  0  0
    5.4447   -1.2398   -3.1856 C   0  0  0  0  0  0  0  0  0  0  0  0
    6.5069   -0.7305   -1.0864 C   0  0  0  0  0  0  0  0  0  0  0  0
    1.6938    2.0734    0.2180 C   0  0  0  0  0  0  0  0  0  0  0  0
    6.4889   -1.5622   -2.2523 O   0  0  0  0  0  0  0  0  0  0  0  0
    0.3619    1.5302   -0.3408 C   0  0  0  0  0  0  0  0  0  0  0  0
    0.1685    0.0748   -0.2087 N   0  0  0  0  0  0  0  0  0  0  0  0
    0.0539   -0.3954    1.1736 C   0  0  0  0  0  0  0  0  0  0  0  0
   -1.2368    0.0044    1.9094 C   0  0  1  0  0  0  0  0  0  0  0  0
   -2.4960   -0.4781    1.1765 C   0  0  0  0  0  0  0  0  0  0  0  0
   -1.1951   -0.5721    3.2255 O   0  0  0  0  0  0  0  0  0  0  0  0
   -3.6264   -0.0840    1.9691 O   0  0  0  0  0  0  0  0  0  0  0  0
   -4.8618   -0.2691    1.4099 C   0  0  0  0  0  0  0  0  0  0  0  0
   -5.9170    0.3156    2.1154 C   0  0  0  0  0  0  0  0  0  0  0  0
   -5.1311   -0.9764    0.2358 C   0  0  0  0  0  0  0  0  0  0  0  0
   -7.2281    0.2067    1.6500 C   0  0  0  0  0  0  0  0  0  0  0  0
   -6.4453   -1.0830   -0.2352 C   0  0  0  0  0  0  0  0  0  0  0  0
   -7.4827   -0.4873    0.4748 C   0  0  0  0  0  0  0  0  0  0  0  0
   -8.7748   -0.5626    0.0484 O   0  0  0  0  0  0  0  0  0  0  0  0
   -0.4245   -0.5196   -0.0118 C   0  0  0  0  0  0  0  0  0  0  0  0
    0.4223    0.5179    0.0406 C   0  0  0  0  0  0  0  0  0  0  0  0
    1.8755    0.3592    0.1559 C   0  0  0  0  0  0  0  0  0  0  0  0
    2.2815   -0.9181    0.1814 O   0  0  0  0  0  0  0  0  0  0  0  0
    2.6664    1.2825    0.2181 O   0  0  0  0  0  0  0  0  0  0  0  0
   -1.8760   -0.3587   -0.1196 C   0  0  0  0  0  0  0  0  0  0  0  0
   -2.2795    0.9184   -0.1643 O   0  0  0  0  0  0  0  0  0  0  0  0
   -2.6673   -1.2820   -0.1681 O   0  0  0  0  0  0  0  0  0  0  0  0
   -4.2393   -1.8372   -0.8498 H   0  0  0  0  0  0  0  0  0  0  0  0
   -5.3116   -1.4364   -2.2040 H   0  0  0  0  0  0  0  0  0  0  0  0
   -5.6719    2.1174   -1.3663 H   0  0  0  0  0  0  0  0  0  0  0  0
   -6.1488    0.8409   -2.4980 H   0  0  0  0  0  0  0  0  0  0  0  0
   -2.5392   -0.6746   -0.6011 H   0  0  0  0  0  0  0  0  0  0  0  0
   -6.5902   -2.5610   -0.3824 H   0  0  0  0  0  0  0  0  0  0  0  0
   -6.0822   -1.3254    0.7860 H   0  0  0  0  0  0  0  0  0  0  0  0
   -6.9305    0.9495    0.4882 H   0  0  0  0  0  0  0  0  0  0  0  0
   -8.0003    1.2571   -0.8920 H   0  0  0  0  0  0  0  0  0  0  0  0
   -2.3161    0.6871    2.0211 H   0  0  0  0  0  0  0  0  0  0  0  0
   -1.2927   -0.6141    1.3817 H   0  0  0  0  0  0  0  0  0  0  0  0
   -0.5534    1.0877   -0.4696 H   0  0  0  0  0  0  0  0  0  0  0  0
   -1.4059    2.3108    0.4449 H   0  0  0  0  0  0  0  0  0  0  0  0
    0.8188    2.4289    1.0157 H   0  0  0  0  0  0  0  0  0  0  0  0
    1.3503    0.0685    0.3894 H   0  0  0  0  0  0  0  0  0  0  0  0
    0.8667   -0.3073    2.0637 H   0  0  0  0  0  0  0  0  0  0  0  0
    2.5449    1.4380    2.8686 H   0  0  0  0  0  0  0  0  0  0  0  0
    3.2119   -0.9280    2.8302 H   0  0  0  0  0  0  0  0  0  0  0  0
    4.5883    0.0710    2.4205 H   0  0  0  0  0  0  0  0  0  0  0  0
    3.2463    1.4357    0.1146 H   0  0  0  0  0  0  0  0  0  0  0  0
    5.6764    0.9209    0.7869 H   0  0  0  0  0  0  0  0  0  0  0  0
    4.2096   -2.7874   -0.8643 H   0  0  0  0  0  0  0  0  0  0  0  0
    7.6050    0.8184   -0.6969 H   0  0  0  0  0  0  0  0  0  0  0  0
    6.1686   -2.8702   -2.3795 H   0  0  0  0  0  0  0  0  0  0  0  0
    8.6548   -0.3625   -2.3176 H   0  0  0  0  0  0  0  0  0  0  0  0
    4.0367    0.3186   -3.7290 H   0  0  0  0  0  0  0  0  0  0  0  0
    5.6072    0.9278   -3.1689 H   0  0  0  0  0  0  0  0  0  0  0  0
    5.1815    0.2875    0.2889 H   0  0  0  0  0  0  0  0  0  0  0  0
    4.5384   -1.2504   -0.3370 H   0  0  0  0  0  0  0  0  0  0  0  0
    2.9437    0.3948    0.3806 H   0  0  0  0  0  0  0  0  0  0  0  0
    5.8580   -1.3472   -4.1937 H   0  0  0  0  0  0  0  0  0  0  0  0
    4.6636   -2.0010   -3.0694 H   0  0  0  0  0  0  0  0  0  0  0  0
    7.0444   -1.2746   -0.3028 H   0  0  0  0  0  0  0  0  0  0  0  0
    7.0910    0.1671   -1.3228 H   0  0  0  0  0  0  0  0  0  0  0  0
    1.6631    2.1153    1.3110 H   0  0  0  0  0  0  0  0  0  0  0  0
    1.8642    3.0908   -0.1521 H   0  0  0  0  0  0  0  0  0  0  0  0
    0.3235    1.7510   -1.4138 H   0  0  0  0  0  0  0  0  0  0  0  0
   -0.4779    2.0788    0.0992 H   0  0  0  0  0  0  0  0  0  0  0  0
    0.9642   -0.3802   -0.6602 H   0  0  0  0  0  0  0  0  0  0  0  0
    0.1033   -1.4915    1.1536 H   0  0  0  0  0  0  0  0  0  0  0  0
    0.9265   -0.0983    1.7689 H   0  0  0  0  0  0  0  0  0  0  0  0
   -1.2822    1.0895    2.0536 H   0  0  0  0  0  0  0  0  0  0  0  0
   -2.5522   -0.0119    0.1860 H   0  0  0  0  0  0  0  0  0  0  0  0
   -2.4834   -1.5716    1.0981 H   0  0  0  0  0  0  0  0  0  0  0  0
   -2.1110   -0.5277    3.5638 H   0  0  0  0  0  0  0  0  0  0  0  0
   -5.7192    0.8611    3.0346 H   0  0  0  0  0  0  0  0  0  0  0  0
   -4.3435   -1.4576   -0.3364 H   0  0  0  0  0  0  0  0  0  0  0  0
   -8.0455    0.6640    2.1992 H   0  0  0  0  0  0  0  0  0  0  0  0
   -6.6358   -1.6343   -1.1507 H   0  0  0  0  0  0  0  0  0  0  0  0
   -8.8012   -1.0622   -0.7845 H   0  0  0  0  0  0  0  0  0  0  0  0
   -0.0837   -1.5489    0.0221 H   0  0  0  0  0  0  0  0  0  0  0  0
    0.0842    1.5475    0.0110 H   0  0  0  0  0  0  0  0  0  0  0  0
    3.2564   -0.8548    0.2654 H   0  0  0  0  0  0  0  0  0  0  0  0
   -3.2552    0.8566   -0.2323 H   0  0  0  0  0  0  0  0  0  0  0  0
  3  7  1  0
  4  8  1  0
  5  9  1  0
  7 10  1  0
  9 11  1  0
 11 12  1  0
 12 13  1  0
 13 14  1  0
 14 15  1  0
 14 16  1  0
 15 17  1  0
 17 18  1  0
 18 19  2  0
 18 20  1  0
 19 21  1  0
 20 22  2  0
 21 23  2  0
 23 24  1  0
  8 10  1  0
 22 23  1  0
  1  2  1  0
  1  3  1  0
  1  4  1  0
  2  5  1  0
  2  6  2  0
 27 31  1  0
 28 32  1  0
 29 33  1  0
 31 34  1  0
 33 35  1  0
 35 36  1  0
 36 37  1  0
 37 38  1  0
 38 39  1  0
 38 40  1  0
 39 41  1  0
 41 42  1  0
 42 43  2  0
 42 44  1  0
 43 45  1  0
 44 46  2  0
 45 47  2  0
 47 48  1  0
 32 34  1  0
 46 47  1  0
 25 26  1  0
 25 27  1  0
 25 28  1  0
 26 29  1  0
 26 30  2  0
 49 50  2  0
 49 54  1  0
 50 51  1  0
 51 52  1  0
 51 53  2  0
 54 55  1  0
 54 56  2  0
  3 57  1  0
  3 58  1  0
  4 59  1  0
  4 60  1  0
  5 61  1  0
  7 62  1  0
  7 63  1  0
  8 64  1  0
  8 65  1  0
  9 66  1  0
  9 67  1  0
 11 68  1  0
 11 69  1  0
 12 70  1  0
 13 71  1  0
 13 72  1  0
 14 73  1  1
 15 74  1  0
 15 75  1  0
 16 76  1  0
 19 77  1  0
 20 78  1  0
 21 79  1  0
 22 80  1  0
 24 81  1  0
 27 82  1  0
 27 83  1  0
 28 84  1  0
 28 85  1  0
 29 86  1  0
 31 87  1  0
 31 88  1  0
 32 89  1  0
 32 90  1  0
 33 91  1  0
 33 92  1  0
 35 93  1  0
 35 94  1  0
 36 95  1  0
 37 96  1  0
 37 97  1  0
 38 98  1  1
 39 99  1  0
 39100  1  0
 40101  1  0
 43102  1  0
 44103  1  0
 45104  1  0
 46105  1  0
 48106  1  0
 49107  1  0
 50108  1  0
 52109  1  0
 55110  1  0
M  END
$$$$
