
     RDKit          3D

110111  0  0  0  0  0  0  0  0999 V2000
    5.4292   -0.1055    0.5441 N   0  0  0  0  0  0  0  0  0  0  0  0
    4.1182    0.3214    0.6657 C   0  0  0  0  0  0  0  0  0  0  0  0
    6.2457   -0.2080    1.7559 C   0  0  0  0  0  0  0  0  0  0  0  0
    6.1988   -0.0101   -0.7018 C   0  0  0  0  0  0  0  0  0  0  0  0
    3.4512    0.4634   -0.5251 N   0  0  0  0  0  0  0  0  0  0  0  0
    3.5897    0.5711    1.7445 O   0  0  0  0  0  0  0  0  0  0  0  0
    7.4702    0.7069    1.6489 C   0  0  0  0  0  0  0  0  0  0  0  0
    7.6757   -0.3661   -0.4953 C   0  0  0  0  0  0  0  0  0  0  0  0
    2.0730    0.9212   -0.5549 C   0  0  0  0  0  0  0  0  0  0  0  0
    8.3076    0.4375    0.5099 O   0  0  0  0  0  0  0  0  0  0  0  0
    1.0743   -0.1373   -0.0564 C   0  0  0  0  0  0  0  0  0  0  0  0
   -0.3154    0.3052   -0.2543 N   0  0  0  0  0  0  0  0  0  0  0  0
   -1.2567   -0.6665    0.3378 C   0  0  0  0  0  0  0  0  0  0  0  0
   -2.6970   -0.1264    0.2189 C   0  0  1  0  0  0  0  0  0  0  0  0
   -3.7023   -1.0329    0.9443 C   0  0  0  0  0  0  0  0  0  0  0  0
   -2.7203    1.1873    0.8022 O   0  0  0  0  0  0  0  0  0  0  0  0
   -4.7321   -1.4772    0.0505 O   0  0  0  0  0  0  0  0  0  0  0  0
   -5.8774   -0.7387   -0.0434 C   0  0  0  0  0  0  0  0  0  0  0  0
   -6.9421   -1.3877   -0.6796 C   0  0  0  0  0  0  0  0  0  0  0  0
   -6.0518    0.5665    0.4160 C   0  0  0  0  0  0  0  0  0  0  0  0
   -8.1761   -0.7524   -0.8405 C   0  0  0  0  0  0  0  0  0  0  0  0
   -7.2846    1.2076    0.2516 C   0  0  0  0  0  0  0  0  0  0  0  0
   -8.3353    0.5455   -0.3686 C   0  0  0  0  0  0  0  0  0  0  0  0
   -9.5196    1.2075   -0.4966 O   0  0  0  0  0  0  0  0  0  0  0  0
   -4.5315    0.0095    0.1039 N   0  0  0  0  0  0  0  0  0  0  0  0
   -3.4951   -0.5925    0.7844 C   0  0  0  0  0  0  0  0  0  0  0  0
   -5.8338   -0.6600    0.0549 C   0  0  0  0  0  0  0  0  0  0  0  0
   -4.4473    1.2710   -0.6390 C   0  0  0  0  0  0  0  0  0  0  0  0
   -2.3354    0.1415    0.8236 N   0  0  0  0  0  0  0  0  0  0  0  0
   -3.5884   -1.6976    1.3070 O   0  0  0  0  0  0  0  0  0  0  0  0
   -6.9729    0.3625    0.0142 C   0  0  0  0  0  0  0  0  0  0  0  0
   -5.5819    1.3961   -1.6590 C   0  0  0  0  0  0  0  0  0  0  0  0
   -1.1997   -0.3332    1.6004 C   0  0  0  0  0  0  0  0  0  0  0  0
   -6.8788    1.3171   -1.0555 O   0  0  0  0  0  0  0  0  0  0  0  0
   -0.4992   -1.5755    1.0128 C   0  0  0  0  0  0  0  0  0  0  0  0
   -0.2593   -1.5282   -0.4400 N   0  0  0  0  0  0  0  0  0  0  0  0
    0.7322   -0.5298   -0.8750 C   0  0  0  0  0  0  0  0  0  0  0  0
    2.1644   -1.0998   -0.9753 C   0  0  1  0  0  0  0  0  0  0  0  0
    2.8630   -1.2168    0.3869 C   0  0  0  0  0  0  0  0  0  0  0  0
    2.0882   -2.3928   -1.6010 O   0  0  0  0  0  0  0  0  0  0  0  0
    4.2795   -1.3905    0.2439 O   0  0  0  0  0  0  0  0  0  0  0  0
    5.0737   -0.2859    0.1170 C   0  0  0  0  0  0  0  0  0  0  0  0
    4.6418    1.0397    0.0195 C   0  0  0  0  0  0  0  0  0  0  0  0
    6.4441   -0.5629    0.0773 C   0  0  0  0  0  0  0  0  0  0  0  0
    5.5737    2.0751   -0.1200 C   0  0  0  0  0  0  0  0  0  0  0  0
    7.3760    0.4693   -0.0536 C   0  0  0  0  0  0  0  0  0  0  0  0
    6.9324    1.7801   -0.1545 C   0  0  0  0  0  0  0  0  0  0  0  0
    7.8694    2.7616   -0.2862 O   0  0  0  0  0  0  0  0  0  0  0  0
    0.4661    0.0799    0.6943 C   0  0  0  0  0  0  0  0  0  0  0  0
   -0.4085    0.0139   -0.3177 C   0  0  0  0  0  0  0  0  0  0  0  0
   -1.7814    0.4745   -0.1018 C   0  0  0  0  0  0  0  0  0  0  0  0
   -2.4980    0.3209   -1.2253 O   0  0  0  0  0  0  0  0  0  0  0  0
   -2.2549    0.9345    0.9182 O   0  0  0  0  0  0  0  0  0  0  0  0
    1.8581   -0.3583    0.5748 C   0  0  0  0  0  0  0  0  0  0  0  0
    2.1742   -0.8337   -0.6387 O   0  0  0  0  0  0  0  0  0  0  0  0
    2.6779   -0.3060    1.4726 O   0  0  0  0  0  0  0  0  0  0  0  0
    6.5601   -1.2554    1.8291 H   0  0  0  0  0  0  0  0  0  0  0  0
    5.6717    0.0327    2.6554 H   0  0  0  0  0  0  0  0  0  0  0  0
    5.7522   -0.6758   -1.4477 H   0  0  0  0  0  0  0  0  0  0  0  0
    6.1133    1.0242   -1.0566 H   0  0  0  0  0  0  0  0  0  0  0  0
    3.7290   -0.1649   -1.2614 H   0  0  0  0  0  0  0  0  0  0  0  0
    8.0925    0.6128    2.5433 H   0  0  0  0  0  0  0  0  0  0  0  0
    7.1556    1.7542    1.5800 H   0  0  0  0  0  0  0  0  0  0  0  0
    8.2299   -0.2242   -1.4281 H   0  0  0  0  0  0  0  0  0  0  0  0
    7.7884   -1.4171   -0.2068 H   0  0  0  0  0  0  0  0  0  0  0  0
    1.8576    1.1848   -1.5956 H   0  0  0  0  0  0  0  0  0  0  0  0
    1.9955    1.8320    0.0514 H   0  0  0  0  0  0  0  0  0  0  0  0
    1.2537   -0.3309    1.0076 H   0  0  0  0  0  0  0  0  0  0  0  0
    1.2463   -1.0795   -0.5921 H   0  0  0  0  0  0  0  0  0  0  0  0
   -0.5056    0.3941   -1.2540 H   0  0  0  0  0  0  0  0  0  0  0  0
   -1.1776   -1.6386   -0.1628 H   0  0  0  0  0  0  0  0  0  0  0  0
   -1.0114   -0.7938    1.4001 H   0  0  0  0  0  0  0  0  0  0  0  0
   -2.9641   -0.0160   -0.8387 H   0  0  0  0  0  0  0  0  0  0  0  0
   -4.1217   -0.5787    1.8525 H   0  0  0  0  0  0  0  0  0  0  0  0
   -3.2042   -1.9526    1.2732 H   0  0  0  0  0  0  0  0  0  0  0  0
   -1.8544    1.5798    0.5629 H   0  0  0  0  0  0  0  0  0  0  0  0
   -6.8099   -2.4042   -1.0459 H   0  0  0  0  0  0  0  0  0  0  0  0
   -5.2535    1.1219    0.8964 H   0  0  0  0  0  0  0  0  0  0  0  0
   -8.9865   -1.2801   -1.3298 H   0  0  0  0  0  0  0  0  0  0  0  0
   -7.4186    2.2263    0.6073 H   0  0  0  0  0  0  0  0  0  0  0  0
  -10.1611    0.6166   -0.9228 H   0  0  0  0  0  0  0  0  0  0  0  0
   -5.8422   -1.2697   -0.8558 H   0  0  0  0  0  0  0  0  0  0  0  0
   -5.9570   -1.3322    0.9096 H   0  0  0  0  0  0  0  0  0  0  0  0
   -3.4746    1.3498   -1.1358 H   0  0  0  0  0  0  0  0  0  0  0  0
   -4.5299    2.0731    0.1028 H   0  0  0  0  0  0  0  0  0  0  0  0
   -2.4900    1.1370    0.8655 H   0  0  0  0  0  0  0  0  0  0  0  0
   -6.9931    0.9335    0.9507 H   0  0  0  0  0  0  0  0  0  0  0  0
   -7.9368   -0.1501   -0.0768 H   0  0  0  0  0  0  0  0  0  0  0  0
   -5.5192    2.3580   -2.1803 H   0  0  0  0  0  0  0  0  0  0  0  0
   -5.5104    0.6036   -2.4142 H   0  0  0  0  0  0  0  0  0  0  0  0
   -0.4915    0.4995    1.6564 H   0  0  0  0  0  0  0  0  0  0  0  0
   -1.5421   -0.5459    2.6191 H   0  0  0  0  0  0  0  0  0  0  0  0
   -1.1272   -2.4546    1.1971 H   0  0  0  0  0  0  0  0  0  0  0  0
    0.4280   -1.7600    1.5618 H   0  0  0  0  0  0  0  0  0  0  0  0
   -1.1642   -1.2827   -0.8569 H   0  0  0  0  0  0  0  0  0  0  0  0
    0.4409   -0.2539   -1.8970 H   0  0  0  0  0  0  0  0  0  0  0  0
    0.7018    0.3966   -0.2920 H   0  0  0  0  0  0  0  0  0  0  0  0
    2.7529   -0.4681   -1.6483 H   0  0  0  0  0  0  0  0  0  0  0  0
    2.6359   -0.3756    1.0530 H   0  0  0  0  0  0  0  0  0  0  0  0
    2.5201   -2.1235    0.8961 H   0  0  0  0  0  0  0  0  0  0  0  0
    1.2343   -2.7664   -1.2946 H   0  0  0  0  0  0  0  0  0  0  0  0
    3.5915    1.3053    0.0366 H   0  0  0  0  0  0  0  0  0  0  0  0
    6.7885   -1.5904    0.1569 H   0  0  0  0  0  0  0  0  0  0  0  0
    5.2202    3.1000   -0.1955 H   0  0  0  0  0  0  0  0  0  0  0  0
    8.4382    0.2461   -0.0817 H   0  0  0  0  0  0  0  0  0  0  0  0
    7.4109    3.6124   -0.3828 H   0  0  0  0  0  0  0  0  0  0  0  0
    0.1911    0.4684    1.6695 H   0  0  0  0  0  0  0  0  0  0  0  0
   -0.1557   -0.3703   -1.2978 H   0  0  0  0  0  0  0  0  0  0  0  0
   -3.3862    0.6567   -0.9869 H   0  0  0  0  0  0  0  0  0  0  0  0
    3.1174   -1.0806   -0.5481 H   0  0  0  0  0  0  0  0  0  0  0  0
  3  7  1  0
  4  8  1  0
  5  9  1  0
  7 10  1  0
  9 11  1  0
 11 12  1  0
 12 13  1  0
 13 14  1  0
 14 15  1  0
 14 16  1  0
 15 17  1  0
 17 18  1  0
 18 19  2  0
 18 20  1  0
 19 21  1  0
 20 22  2  0
 21 23  2  0
 23 24  1  0
  8 10  1  0
 22 23  1  0
  1  2  1  0
  1  3  1  0
  1  4  1  0
  2  5  1  0
  2  6  2  0
 27 31  1  0
 28 32  1  0
 29 33  1  0
 31 34  1  0
 33 35  1  0
 35 36  1  0
 36 37  1  0
 37 38  1  0
 38 39  1  0
 38 40  1  0
 39 41  1  0
 41 42  1  0
 42 43  2  0
 42 44  1  0
 43 45  1  0
 44 46  2  0
 45 47  2  0
 47 48  1  0
 32 34  1  0
 46 47  1  0
 25 26  1  0
 25 27  1  0
 25 28  1  0
 26 29  1  0
 26 30  2  0
 49 50  2  0
 49 54  1  0
 50 51  1  0
 51 52  1  0
 51 53  2  0
 54 55  1  0
 54 56  2  0
  3 57  1  0
  3 58  1  0
  4 59  1  0
  4 60  1  0
  5 61  1  0
  7 62  1  0
  7 63  1  0
  8 64  1  0
  8 65  1  0
  9 66  1  0
  9 67  1  0
 11 68  1  0
 11 69  1  0
 12 70  1  0
 13 71  1  0
 13 72  1  0
 14 73  1  6
 15 74  1  0
 15 75  1  0
 16 76  1  0
 19 77  1  0
 20 78  1  0
 21 79  1  0
 22 80  1  0
 24 81  1  0
 27 82  1  0
 27 83  1  0
 28 84  1  0
 28 85  1  0
 29 86  1  0
 31 87  1  0
 31 88  1  0
 32 89  1  0
 32 90  1  0
 33 91  1  0
 33 92  1  0
 35 93  1  0
 35 94  1  0
 36 95  1  0
 37 96  1  0
 37 97  1  0
 38 98  1  6
 39 99  1  0
 39100  1  0
 40101  1  0
 43102  1  0
 44103  1  0
 45104  1  0
 46105  1  0
 48106  1  0
 49107  1  0
 50108  1  0
 52109  1  0
 55110  1  0
M  END
$$$$
