
     RDKit          3D

110111  0  0  0  0  0  0  0  0999 V2000
   -5.2383    0.0536    0.7842 N   0  0  0  0  0  0  0  0  0  0  0  0
   -3.8664    0.0534    0.9460 C   0  0  0  0  0  0  0  0  0  0  0  0
   -6.0483   -0.8216    1.6378 C   0  0  0  0  0  0  0  0  0  0  0  0
   -5.9559    0.6318   -0.3582 C   0  0  0  0  0  0  0  0  0  0  0  0
   -3.1770    0.8259    0.0444 N   0  0  0  0  0  0  0  0  0  0  0  0
   -3.2931   -0.6002    1.8126 O   0  0  0  0  0  0  0  0  0  0  0  0
   -7.0943   -1.5705    0.8055 C   0  0  0  0  0  0  0  0  0  0  0  0
   -7.4725    0.6067   -0.1437 C   0  0  0  0  0  0  0  0  0  0  0  0
   -1.7292    0.9223    0.1231 C   0  0  0  0  0  0  0  0  0  0  0  0
   -7.9902   -0.7084    0.0863 O   0  0  0  0  0  0  0  0  0  0  0  0
   -1.0140   -0.3422   -0.3927 C   0  0  0  0  0  0  0  0  0  0  0  0
    0.4557   -0.3066   -0.2976 N   0  0  0  0  0  0  0  0  0  0  0  0
    1.0555    0.6970   -1.1925 C   0  0  0  0  0  0  0  0  0  0  0  0
    2.5839    0.4991   -1.2921 C   0  0  1  0  0  0  0  0  0  0  0  0
    3.3066    0.8443    0.0199 C   0  0  0  0  0  0  0  0  0  0  0  0
    2.8209   -0.8743   -1.6456 O   0  0  0  0  0  0  0  0  0  0  0  0
    4.6154    1.3656   -0.2449 O   0  0  0  0  0  0  0  0  0  0  0  0
    5.6970    0.5601   -0.0344 C   0  0  0  0  0  0  0  0  0  0  0  0
    6.9068    1.2389    0.1398 C   0  0  0  0  0  0  0  0  0  0  0  0
    5.6897   -0.8343   -0.0233 C   0  0  0  0  0  0  0  0  0  0  0  0
    8.0930    0.5350    0.3498 C   0  0  0  0  0  0  0  0  0  0  0  0
    6.8776   -1.5446    0.1851 C   0  0  0  0  0  0  0  0  0  0  0  0
    8.0691   -0.8525    0.3738 C   0  0  0  0  0  0  0  0  0  0  0  0
    9.2467   -1.5068    0.5806 O   0  0  0  0  0  0  0  0  0  0  0  0
   -5.0006   -0.0612    0.7791 N   0  0  0  0  0  0  0  0  0  0  0  0
   -3.6449    0.1423    0.9263 C   0  0  0  0  0  0  0  0  0  0  0  0
   -5.6204   -1.0294   -0.1314 C   0  0  0  0  0  0  0  0  0  0  0  0
   -5.9230    0.8837    1.4084 C   0  0  0  0  0  0  0  0  0  0  0  0
   -2.8583   -0.8267    0.3586 N   0  0  0  0  0  0  0  0  0  0  0  0
   -3.1756    1.1138    1.5107 O   0  0  0  0  0  0  0  0  0  0  0  0
   -6.9646   -0.5125   -0.6538 C   0  0  0  0  0  0  0  0  0  0  0  0
   -7.3044    0.2532    1.6021 C   0  0  0  0  0  0  0  0  0  0  0  0
   -1.4119   -0.7547    0.4667 C   0  0  0  0  0  0  0  0  0  0  0  0
   -7.9052   -0.2216    0.3877 O   0  0  0  0  0  0  0  0  0  0  0  0
   -0.8005    0.3233   -0.4438 C   0  0  0  0  0  0  0  0  0  0  0  0
    0.6691    0.3176   -0.3550 N   0  0  0  0  0  0  0  0  0  0  0  0
    1.2354    1.3327   -1.2559 C   0  0  0  0  0  0  0  0  0  0  0  0
    2.7726    1.2927   -1.2827 C   0  0  1  0  0  0  0  0  0  0  0  0
    3.3041   -0.0065   -1.9063 C   0  0  0  0  0  0  0  0  0  0  0  0
    3.2484    2.4108   -2.0481 O   0  0  0  0  0  0  0  0  0  0  0  0
    4.7395   -0.0069   -1.8917 O   0  0  0  0  0  0  0  0  0  0  0  0
    5.3818   -0.5000   -0.7903 C   0  0  0  0  0  0  0  0  0  0  0  0
    4.7836   -0.9434    0.3901 C   0  0  0  0  0  0  0  0  0  0  0  0
    6.7763   -0.5333   -0.9045 C   0  0  0  0  0  0  0  0  0  0  0  0
    5.5758   -1.4164    1.4415 C   0  0  0  0  0  0  0  0  0  0  0  0
    7.5690   -1.0074    0.1426 C   0  0  0  0  0  0  0  0  0  0  0  0
    6.9588   -1.4459    1.3105 C   0  0  0  0  0  0  0  0  0  0  0  0
    7.6875   -1.9182    2.3605 O   0  0  0  0  0  0  0  0  0  0  0  0
   -0.5535    0.2681   -0.2640 C   0  0  0  0  0  0  0  0  0  0  0  0
    0.5539   -0.2643    0.2673 C   0  0  0  0  0  0  0  0  0  0  0  0
    1.8563    0.1020   -0.2898 C   0  0  0  0  0  0  0  0  0  0  0  0
    2.8367   -0.5361    0.3658 O   0  0  0  0  0  0  0  0  0  0  0  0
    2.0758    0.8655   -1.2097 O   0  0  0  0  0  0  0  0  0  0  0  0
   -1.8561   -0.0996    0.2920 C   0  0  0  0  0  0  0  0  0  0  0  0
   -2.8374    0.5259   -0.3742 O   0  0  0  0  0  0  0  0  0  0  0  0
   -2.0746   -0.8541    1.2195 O   0  0  0  0  0  0  0  0  0  0  0  0
   -5.4258   -1.5342    2.1873 H   0  0  0  0  0  0  0  0  0  0  0  0
   -6.5438   -0.1716    2.3683 H   0  0  0  0  0  0  0  0  0  0  0  0
   -5.6246    1.6607   -0.5234 H   0  0  0  0  0  0  0  0  0  0  0  0
   -5.6877    0.0341   -1.2373 H   0  0  0  0  0  0  0  0  0  0  0  0
   -3.6485    1.6758   -0.2176 H   0  0  0  0  0  0  0  0  0  0  0  0
   -6.6007   -2.2144    0.0683 H   0  0  0  0  0  0  0  0  0  0  0  0
   -7.7029   -2.2131    1.4495 H   0  0  0  0  0  0  0  0  0  0  0  0
   -7.7481    1.2305    0.7149 H   0  0  0  0  0  0  0  0  0  0  0  0
   -7.9850    1.0154   -1.0202 H   0  0  0  0  0  0  0  0  0  0  0  0
   -1.4489    1.7911   -0.4812 H   0  0  0  0  0  0  0  0  0  0  0  0
   -1.4479    1.1281    1.1624 H   0  0  0  0  0  0  0  0  0  0  0  0
   -1.3146   -0.5434   -1.4288 H   0  0  0  0  0  0  0  0  0  0  0  0
   -1.3511   -1.2116    0.1829 H   0  0  0  0  0  0  0  0  0  0  0  0
    0.7116   -0.1170    0.6735 H   0  0  0  0  0  0  0  0  0  0  0  0
    0.6396    0.5617   -2.1986 H   0  0  0  0  0  0  0  0  0  0  0  0
    0.8272    1.7158   -0.8623 H   0  0  0  0  0  0  0  0  0  0  0  0
    2.9761    1.1133   -2.1107 H   0  0  0  0  0  0  0  0  0  0  0  0
    3.3215    0.0085    0.7293 H   0  0  0  0  0  0  0  0  0  0  0  0
    2.7786    1.6660    0.5176 H   0  0  0  0  0  0  0  0  0  0  0  0
    2.0767   -1.3702   -1.2428 H   0  0  0  0  0  0  0  0  0  0  0  0
    6.9243    2.3257    0.1155 H   0  0  0  0  0  0  0  0  0  0  0  0
    4.7804   -1.3987   -0.1985 H   0  0  0  0  0  0  0  0  0  0  0  0
    9.0289    1.0676    0.4889 H   0  0  0  0  0  0  0  0  0  0  0  0
    6.8496   -2.6294    0.1852 H   0  0  0  0  0  0  0  0  0  0  0  0
    9.0765   -2.4624    0.5510 H   0  0  0  0  0  0  0  0  0  0  0  0
   -4.9527   -1.2471   -0.9706 H   0  0  0  0  0  0  0  0  0  0  0  0
   -5.7694   -1.9485    0.4469 H   0  0  0  0  0  0  0  0  0  0  0  0
   -5.9910    1.7521    0.7422 H   0  0  0  0  0  0  0  0  0  0  0  0
   -5.5167    1.2208    2.3681 H   0  0  0  0  0  0  0  0  0  0  0  0
   -3.2534   -1.7533    0.4051 H   0  0  0  0  0  0  0  0  0  0  0  0
   -7.4238   -1.2535   -1.3157 H   0  0  0  0  0  0  0  0  0  0  0  0
   -6.8202    0.4035   -1.2388 H   0  0  0  0  0  0  0  0  0  0  0  0
   -7.2354   -0.6013    2.2855 H   0  0  0  0  0  0  0  0  0  0  0  0
   -7.9934    0.9764    2.0498 H   0  0  0  0  0  0  0  0  0  0  0  0
   -1.0266   -1.7416    0.1876 H   0  0  0  0  0  0  0  0  0  0  0  0
   -1.1480   -0.5713    1.5149 H   0  0  0  0  0  0  0  0  0  0  0  0
   -1.1870    1.3120   -0.1712 H   0  0  0  0  0  0  0  0  0  0  0  0
   -1.1109    0.1248   -1.4768 H   0  0  0  0  0  0  0  0  0  0  0  0
    0.9266    0.5597    0.6049 H   0  0  0  0  0  0  0  0  0  0  0  0
    0.8622    1.1896   -2.2785 H   0  0  0  0  0  0  0  0  0  0  0  0
    0.9097    2.3339   -0.9457 H   0  0  0  0  0  0  0  0  0  0  0  0
    3.1674    1.4280   -0.2700 H   0  0  0  0  0  0  0  0  0  0  0  0
    2.8911   -0.9170   -1.4594 H   0  0  0  0  0  0  0  0  0  0  0  0
    3.0255   -0.0309   -2.9668 H   0  0  0  0  0  0  0  0  0  0  0  0
    4.2088    2.2686   -2.1559 H   0  0  0  0  0  0  0  0  0  0  0  0
    3.7085   -0.9336    0.5348 H   0  0  0  0  0  0  0  0  0  0  0  0
    7.2483   -0.1896   -1.8224 H   0  0  0  0  0  0  0  0  0  0  0  0
    5.1118   -1.7632    2.3606 H   0  0  0  0  0  0  0  0  0  0  0  0
    8.6474   -1.0252    0.0254 H   0  0  0  0  0  0  0  0  0  0  0  0
    8.6289   -1.8788    2.1247 H   0  0  0  0  0  0  0  0  0  0  0  0
   -0.5343    0.9641   -1.0946 H   0  0  0  0  0  0  0  0  0  0  0  0
    0.5342   -0.9605    1.0974 H   0  0  0  0  0  0  0  0  0  0  0  0
    3.6574   -0.2309   -0.0743 H   0  0  0  0  0  0  0  0  0  0  0  0
   -3.6584    0.2199    0.0645 H   0  0  0  0  0  0  0  0  0  0  0  0
  3  7  1  0
  4  8  1  0
  5  9  1  0
  7 10  1  0
  9 11  1  0
 11 12  1  0
 12 13  1  0
 13 14  1  0
 14 15  1  0
 14 16  1  0
 15 17  1  0
 17 18  1  0
 18 19  2  0
 18 20  1  0
 19 21  1  0
 20 22  2  0
 21 23  2  0
 23 24  1  0
  8 10  1  0
 22 23  1  0
  1  2  1  0
  1  3  1  0
  1  4  1  0
  2  5  1  0
  2  6  2  0
 27 31  1  0
 28 32  1  0
 29 33  1  0
 31 34  1  0
 33 35  1  0
 35 36  1  0
 36 37  1  0
 37 38  1  0
 38 39  1  0
 38 40  1  0
 39 41  1  0
 41 42  1  0
 42 43  2  0
 42 44  1  0
 43 45  1  0
 44 46  2  0
 45 47  2  0
 47 48  1  0
 32 34  1  0
 46 47  1  0
 25 26  1  0
 25 27  1  0
 25 28  1  0
 26 29  1  0
 26 30  2  0
 49 50  2  0
 49 54  1  0
 50 51  1  0
 51 52  1  0
 51 53  2  0
 54 55  1  0
 54 56  2  0
  3 57  1  0
  3 58  1  0
  4 59  1  0
  4 60  1  0
  5 61  1  0
  7 62  1  0
  7 63  1  0
  8 64  1  0
  8 65  1  0
  9 66  1  0
  9 67  1  0
 11 68  1  0
 11 69  1  0
 12 70  1  0
 13 71  1  0
 13 72  1  0
 14 73  1  6
 15 74  1  0
 15 75  1  0
 16 76  1  0
 19 77  1  0
 20 78  1  0
 21 79  1  0
 22 80  1  0
 24 81  1  0
 27 82  1  0
 27 83  1  0
 28 84  1  0
 28 85  1  0
 29 86  1  0
 31 87  1  0
 31 88  1  0
 32 89  1  0
 32 90  1  0
 33 91  1  0
 33 92  1  0
 35 93  1  0
 35 94  1  0
 36 95  1  0
 37 96  1  0
 37 97  1  0
 38 98  1  1
 39 99  1  0
 39100  1  0
 40101  1  0
 43102  1  0
 44103  1  0
 45104  1  0
 46105  1  0
 48106  1  0
 49107  1  0
 50108  1  0
 52109  1  0
 55110  1  0
M  END
$$$$
