
     RDKit          3D

110111  0  0  0  0  0  0  0  0999 V2000
   -4.8330    0.3171   -0.1509 N   0  0  0  0  0  0  0  0  0  0  0  0
   -3.7965    1.1342   -0.5487 C   0  0  0  0  0  0  0  0  0  0  0  0
   -6.0278    0.9271    0.4293 C   0  0  0  0  0  0  0  0  0  0  0  0
   -4.9150   -1.1323   -0.3720 C   0  0  0  0  0  0  0  0  0  0  0  0
   -2.6899    0.4728   -1.0117 N   0  0  0  0  0  0  0  0  0  0  0  0
   -3.8599    2.3561   -0.5041 O   0  0  0  0  0  0  0  0  0  0  0  0
   -6.7127   -0.0417    1.4009 C   0  0  0  0  0  0  0  0  0  0  0  0
   -6.3701   -1.6139   -0.3871 C   0  0  0  0  0  0  0  0  0  0  0  0
   -1.4871    1.1991   -1.3778 C   0  0  0  0  0  0  0  0  0  0  0  0
   -7.0767   -1.3047    0.8220 O   0  0  0  0  0  0  0  0  0  0  0  0
   -0.6488    1.5862   -0.1444 C   0  0  0  0  0  0  0  0  0  0  0  0
    0.5572    2.3836   -0.4093 N   0  0  0  0  0  0  0  0  0  0  0  0
    1.5465    1.7394   -1.2845 C   0  0  0  0  0  0  0  0  0  0  0  0
    2.1717    0.4115   -0.8004 C   0  0  1  0  0  0  0  0  0  0  0  0
    2.6564    0.4624    0.6547 C   0  0  0  0  0  0  0  0  0  0  0  0
    1.2437   -0.6751   -0.9700 O   0  0  0  0  0  0  0  0  0  0  0  0
    3.3125   -0.7730    0.9743 O   0  0  0  0  0  0  0  0  0  0  0  0
    4.6727   -0.8537    0.8730 C   0  0  0  0  0  0  0  0  0  0  0  0
    5.5306    0.1181    0.3514 C   0  0  0  0  0  0  0  0  0  0  0  0
    5.2102   -2.0565    1.3464 C   0  0  0  0  0  0  0  0  0  0  0  0
    6.9130   -0.1024    0.3288 C   0  0  0  0  0  0  0  0  0  0  0  0
    6.5868   -2.2821    1.3164 C   0  0  0  0  0  0  0  0  0  0  0  0
    7.4275   -1.3011    0.8165 C   0  0  0  0  0  0  0  0  0  0  0  0
    8.7641   -1.5506    0.8210 O   0  0  0  0  0  0  0  0  0  0  0  0
   -4.3066    0.2175    0.5170 N   0  0  0  0  0  0  0  0  0  0  0  0
   -3.1129    0.9140    0.5142 C   0  0  0  0  0  0  0  0  0  0  0  0
   -5.1859    0.0077   -0.6347 C   0  0  0  0  0  0  0  0  0  0  0  0
   -4.7794   -0.3574    1.7759 C   0  0  0  0  0  0  0  0  0  0  0  0
   -2.6931    1.3450   -0.7148 N   0  0  0  0  0  0  0  0  0  0  0  0
   -2.4817    1.1439    1.5432 O   0  0  0  0  0  0  0  0  0  0  0  0
   -6.6199   -0.2976   -0.1903 C   0  0  0  0  0  0  0  0  0  0  0  0
   -5.5902   -1.6332    1.5239 C   0  0  0  0  0  0  0  0  0  0  0  0
   -1.3898    1.9598   -0.8977 C   0  0  0  0  0  0  0  0  0  0  0  0
   -6.7118   -1.4596    0.6438 O   0  0  0  0  0  0  0  0  0  0  0  0
   -0.4685    1.1133   -1.8048 C   0  0  0  0  0  0  0  0  0  0  0  0
   -0.4869   -0.3350   -1.5664 N   0  0  0  0  0  0  0  0  0  0  0  0
    0.0160   -0.7274   -0.2407 C   0  0  0  0  0  0  0  0  0  0  0  0
    1.3896   -1.4312   -0.2479 C   0  0  1  0  0  0  0  0  0  0  0  0
    2.5299   -0.4930   -0.6596 C   0  0  0  0  0  0  0  0  0  0  0  0
    1.6607   -1.9342    1.0718 O   0  0  0  0  0  0  0  0  0  0  0  0
    3.7508   -1.2558   -0.6173 O   0  0  0  0  0  0  0  0  0  0  0  0
    4.8400   -0.4980   -0.2839 C   0  0  0  0  0  0  0  0  0  0  0  0
    4.9476    0.1407    0.9517 C   0  0  0  0  0  0  0  0  0  0  0  0
    5.9024   -0.4694   -1.1850 C   0  0  0  0  0  0  0  0  0  0  0  0
    6.1042    0.8548    1.2704 C   0  0  0  0  0  0  0  0  0  0  0  0
    7.0594    0.2417   -0.8680 C   0  0  0  0  0  0  0  0  0  0  0  0
    7.1490    0.9021    0.3537 C   0  0  0  0  0  0  0  0  0  0  0  0
    8.2964    1.5815    0.6229 O   0  0  0  0  0  0  0  0  0  0  0  0
    0.1509   -0.7174   -0.5855 C   0  0  0  0  0  0  0  0  0  0  0  0
    0.0331    0.4171    0.1164 C   0  0  0  0  0  0  0  0  0  0  0  0
    1.0180    0.7196    1.1550 C   0  0  0  0  0  0  0  0  0  0  0  0
    0.7344    1.8974    1.7309 O   0  0  0  0  0  0  0  0  0  0  0  0
    1.9718    0.0427    1.4844 O   0  0  0  0  0  0  0  0  0  0  0  0
   -0.7816   -1.1058   -1.6466 C   0  0  0  0  0  0  0  0  0  0  0  0
   -1.7752   -0.2256   -1.8418 O   0  0  0  0  0  0  0  0  0  0  0  0
   -0.6914   -2.1287   -2.3006 O   0  0  0  0  0  0  0  0  0  0  0  0
   -5.7742    1.8618    0.9417 H   0  0  0  0  0  0  0  0  0  0  0  0
   -6.6980    1.1667   -0.4076 H   0  0  0  0  0  0  0  0  0  0  0  0
   -4.3696   -1.6064    0.4540 H   0  0  0  0  0  0  0  0  0  0  0  0
   -4.4213   -1.3962   -1.3121 H   0  0  0  0  0  0  0  0  0  0  0  0
   -2.5441   -0.4542   -0.6461 H   0  0  0  0  0  0  0  0  0  0  0  0
   -6.0492   -0.2545    2.2463 H   0  0  0  0  0  0  0  0  0  0  0  0
   -7.6213    0.4107    1.8056 H   0  0  0  0  0  0  0  0  0  0  0  0
   -6.4127   -2.7002   -0.5276 H   0  0  0  0  0  0  0  0  0  0  0  0
   -6.9158   -1.1553   -1.2221 H   0  0  0  0  0  0  0  0  0  0  0  0
   -1.7688    2.0975   -1.9398 H   0  0  0  0  0  0  0  0  0  0  0  0
   -0.9246    0.5412   -2.0465 H   0  0  0  0  0  0  0  0  0  0  0  0
   -0.3975    0.6904    0.4337 H   0  0  0  0  0  0  0  0  0  0  0  0
   -1.2737    2.1812    0.5329 H   0  0  0  0  0  0  0  0  0  0  0  0
    0.2598    3.2611   -0.8390 H   0  0  0  0  0  0  0  0  0  0  0  0
    2.3670    2.4600   -1.3972 H   0  0  0  0  0  0  0  0  0  0  0  0
    1.1127    1.6003   -2.2822 H   0  0  0  0  0  0  0  0  0  0  0  0
    3.0191    0.1757   -1.4545 H   0  0  0  0  0  0  0  0  0  0  0  0
    1.7969    0.5074    1.3341 H   0  0  0  0  0  0  0  0  0  0  0  0
    3.2727    1.3412    0.8735 H   0  0  0  0  0  0  0  0  0  0  0  0
    1.6580   -1.4391   -0.5239 H   0  0  0  0  0  0  0  0  0  0  0  0
    5.1606    1.0539   -0.0533 H   0  0  0  0  0  0  0  0  0  0  0  0
    4.5518   -2.8224    1.7484 H   0  0  0  0  0  0  0  0  0  0  0  0
    7.5671    0.6696   -0.0653 H   0  0  0  0  0  0  0  0  0  0  0  0
    6.9987   -3.2132    1.6975 H   0  0  0  0  0  0  0  0  0  0  0  0
    9.2310   -0.7710    0.4757 H   0  0  0  0  0  0  0  0  0  0  0  0
   -4.7753   -0.8449   -1.1864 H   0  0  0  0  0  0  0  0  0  0  0  0
   -5.1708    0.8867   -1.2825 H   0  0  0  0  0  0  0  0  0  0  0  0
   -3.9410   -0.5682    2.4469 H   0  0  0  0  0  0  0  0  0  0  0  0
   -5.4086    0.4059    2.2498 H   0  0  0  0  0  0  0  0  0  0  0  0
   -3.0433    0.8335   -1.5088 H   0  0  0  0  0  0  0  0  0  0  0  0
   -7.2620   -0.4627   -1.0622 H   0  0  0  0  0  0  0  0  0  0  0  0
   -7.0361    0.5460    0.3690 H   0  0  0  0  0  0  0  0  0  0  0  0
   -5.9728   -2.0295    2.4703 H   0  0  0  0  0  0  0  0  0  0  0  0
   -4.9472   -2.4043    1.0813 H   0  0  0  0  0  0  0  0  0  0  0  0
   -0.9095    2.1440    0.0696 H   0  0  0  0  0  0  0  0  0  0  0  0
   -1.5601    2.9345   -1.3677 H   0  0  0  0  0  0  0  0  0  0  0  0
    0.5541    1.5038   -1.7559 H   0  0  0  0  0  0  0  0  0  0  0  0
   -0.8070    1.2621   -2.8400 H   0  0  0  0  0  0  0  0  0  0  0  0
    0.0203   -0.8280   -2.3015 H   0  0  0  0  0  0  0  0  0  0  0  0
   -0.7176   -1.4252    0.1854 H   0  0  0  0  0  0  0  0  0  0  0  0
    0.0466    0.1099    0.4664 H   0  0  0  0  0  0  0  0  0  0  0  0
    1.3650   -2.3064   -0.9073 H   0  0  0  0  0  0  0  0  0  0  0  0
    2.3958   -0.1371   -1.6876 H   0  0  0  0  0  0  0  0  0  0  0  0
    2.5572    0.3720    0.0123 H   0  0  0  0  0  0  0  0  0  0  0  0
    2.5731   -2.2820    1.0370 H   0  0  0  0  0  0  0  0  0  0  0  0
    4.1468    0.0675    1.6819 H   0  0  0  0  0  0  0  0  0  0  0  0
    5.8297   -0.9975   -2.1312 H   0  0  0  0  0  0  0  0  0  0  0  0
    6.1716    1.3507    2.2336 H   0  0  0  0  0  0  0  0  0  0  0  0
    7.8915    0.2701   -1.5644 H   0  0  0  0  0  0  0  0  0  0  0  0
    8.1802    2.0691    1.4607 H   0  0  0  0  0  0  0  0  0  0  0  0
    0.9548   -1.4232   -0.4042 H   0  0  0  0  0  0  0  0  0  0  0  0
   -0.7586    1.1357   -0.0501 H   0  0  0  0  0  0  0  0  0  0  0  0
    1.4469    2.0105    2.3934 H   0  0  0  0  0  0  0  0  0  0  0  0
   -2.3030   -0.6222   -2.5663 H   0  0  0  0  0  0  0  0  0  0  0  0
  3  7  1  0
  4  8  1  0
  5  9  1  0
  7 10  1  0
  9 11  1  0
 11 12  1  0
 12 13  1  0
 13 14  1  0
 14 15  1  0
 14 16  1  0
 15 17  1  0
 17 18  1  0
 18 19  2  0
 18 20  1  0
 19 21  1  0
 20 22  2  0
 21 23  2  0
 23 24  1  0
  8 10  1  0
 22 23  1  0
  1  2  1  0
  1  3  1  0
  1  4  1  0
  2  5  1  0
  2  6  2  0
 27 31  1  0
 28 32  1  0
 29 33  1  0
 31 34  1  0
 33 35  1  0
 35 36  1  0
 36 37  1  0
 37 38  1  0
 38 39  1  0
 38 40  1  0
 39 41  1  0
 41 42  1  0
 42 43  2  0
 42 44  1  0
 43 45  1  0
 44 46  2  0
 45 47  2  0
 47 48  1  0
 32 34  1  0
 46 47  1  0
 25 26  1  0
 25 27  1  0
 25 28  1  0
 26 29  1  0
 26 30  2  0
 49 50  2  0
 49 54  1  0
 50 51  1  0
 51 52  1  0
 51 53  2  0
 54 55  1  0
 54 56  2  0
  3 57  1  0
  3 58  1  0
  4 59  1  0
  4 60  1  0
  5 61  1  0
  7 62  1  0
  7 63  1  0
  8 64  1  0
  8 65  1  0
  9 66  1  0
  9 67  1  0
 11 68  1  0
 11 69  1  0
 12 70  1  0
 13 71  1  0
 13 72  1  0
 14 73  1  6
 15 74  1  0
 15 75  1  0
 16 76  1  0
 19 77  1  0
 20 78  1  0
 21 79  1  0
 22 80  1  0
 24 81  1  0
 27 82  1  0
 27 83  1  0
 28 84  1  0
 28 85  1  0
 29 86  1  0
 31 87  1  0
 31 88  1  0
 32 89  1  0
 32 90  1  0
 33 91  1  0
 33 92  1  0
 35 93  1  0
 35 94  1  0
 36 95  1  0
 37 96  1  0
 37 97  1  0
 38 98  1  6
 39 99  1  0
 39100  1  0
 40101  1  0
 43102  1  0
 44103  1  0
 45104  1  0
 46105  1  0
 48106  1  0
 49107  1  0
 50108  1  0
 52109  1  0
 55110  1  0
M  END
$$$$
