
     RDKit          3D

 56 57  0  0  0  0  0  0  0  0999 V2000
    4.3818   -0.1551   -0.0119 N   0  0  0  0  0  0  0  0  0  0  0  0
    3.2189    0.4481   -0.5582 C   0  0  0  0  0  0  0  0  0  0  0  0
    4.9655   -1.3810   -0.5473 C   0  0  0  0  0  0  0  0  0  0  0  0
    5.0880    0.4139    1.1437 C   0  0  0  0  0  0  0  0  0  0  0  0
    2.7484    1.6323    0.0400 N   0  0  0  0  0  0  0  0  0  0  0  0
    2.6870   -0.1197   -1.5437 O   0  0  0  0  0  0  0  0  0  0  0  0
    6.1339   -1.7059    0.3657 C   0  0  0  0  0  0  0  0  0  0  0  0
    6.5212    0.5725    0.6874 C   0  0  0  0  0  0  0  0  0  0  0  0
    1.5917    2.3654   -0.3870 C   0  0  0  0  0  0  0  0  0  0  0  0
    7.0614   -0.6841    0.4547 O   0  0  0  0  0  0  0  0  0  0  0  0
    0.3202    1.5582   -0.3217 C   0  0  0  0  0  0  0  0  0  0  0  0
    0.0049    1.0874    0.9845 N   0  0  0  0  0  0  0  0  0  0  0  0
   -1.1889    0.3322    1.1241 C   0  0  0  0  0  0  0  0  0  0  0  0
   -1.2396   -1.0025    0.4949 C   0  0  0  0  0  0  0  0  0  0  0  0
   -1.6245   -1.0722   -0.9356 C   0  0  0  0  0  0  0  0  0  0  0  0
   -0.3008   -1.9103    0.9245 O   0  0  0  0  0  0  0  0  0  0  0  0
   -2.5792   -0.1189   -1.3220 O   0  0  0  0  0  0  0  0  0  0  0  0
   -3.8346   -0.0550   -0.7411 C   0  0  0  0  0  0  0  0  0  0  0  0
   -4.1037   -0.9936    0.2557 C   0  0  0  0  0  0  0  0  0  0  0  0
   -4.7582    0.8851   -1.1307 C   0  0  0  0  0  0  0  0  0  0  0  0
   -5.3429   -0.9513    0.8489 C   0  0  0  0  0  0  0  0  0  0  0  0
   -5.9820    0.8897   -0.5105 C   0  0  0  0  0  0  0  0  0  0  0  0
   -6.2711   -0.0147    0.4649 C   0  0  0  0  0  0  0  0  0  0  0  0
   -7.4971   -0.0204    1.0964 O   0  0  0  0  0  0  0  0  0  0  0  0
    4.1187    0.7262   -0.3680 N   0  0  0  0  0  0  0  0  0  0  0  0
    2.7479    0.4139   -0.6723 C   0  0  0  0  0  0  0  0  0  0  0  0
    4.5014    1.1398    0.9869 C   0  0  0  0  0  0  0  0  0  0  0  0
    5.1675    0.6484   -1.3671 C   0  0  0  0  0  0  0  0  0  0  0  0
    2.4474    0.0287   -1.9710 N   0  0  0  0  0  0  0  0  0  0  0  0
    1.9481    0.5246    0.2897 O   0  0  0  0  0  0  0  0  0  0  0  0
    5.9511    1.5866    0.9261 C   0  0  0  0  0  0  0  0  0  0  0  0
    6.3404   -0.0350   -0.6929 C   0  0  0  0  0  0  0  0  0  0  0  0
    1.1982   -0.3348   -2.5416 C   0  0  0  0  0  0  0  0  0  0  0  0
    6.7821    0.6065    0.4416 O   0  0  0  0  0  0  0  0  0  0  0  0
    0.5263   -1.5322   -1.9432 C   0  0  0  0  0  0  0  0  0  0  0  0
    0.2611   -1.2868   -0.5480 N   0  0  0  0  0  0  0  0  0  0  0  0
   -0.3965   -2.4256    0.0921 C   0  0  0  0  0  0  0  0  0  0  0  0
   -0.5993   -1.9962    1.5494 C   0  0  0  0  0  0  0  0  0  0  0  0
   -1.5069   -0.7674    1.4524 C   0  0  0  0  0  0  0  0  0  0  0  0
   -1.2252   -3.0120    2.2693 O   0  0  0  0  0  0  0  0  0  0  0  0
   -2.6801   -1.2007    0.7889 O   0  0  0  0  0  0  0  0  0  0  0  0
   -3.7236   -0.3240    0.5347 C   0  0  0  0  0  0  0  0  0  0  0  0
   -3.6792    1.0044    0.9090 C   0  0  0  0  0  0  0  0  0  0  0  0
   -4.8279   -0.8307   -0.1160 C   0  0  0  0  0  0  0  0  0  0  0  0
   -4.7193    1.8915    0.6591 C   0  0  0  0  0  0  0  0  0  0  0  0
   -5.8756    0.0246   -0.3778 C   0  0  0  0  0  0  0  0  0  0  0  0
   -5.8226    1.3584    0.0019 C   0  0  0  0  0  0  0  0  0  0  0  0
   -6.9340    2.1632   -0.3032 O   0  0  0  0  0  0  0  0  0  0  0  0
   -0.5339   -0.0023    0.4185 C   0  0  0  0  0  0  0  0  0  0  0  0
    0.5211    0.0049   -0.3672 C   0  0  0  0  0  0  0  0  0  0  0  0
    1.8580   -0.1642    0.1947 C   0  0  0  0  0  0  0  0  0  0  0  0
    3.0055   -0.1668   -0.5683 O   0  0  0  0  0  0  0  0  0  0  0  0
    2.0229   -0.3212    1.4534 O   0  0  0  0  0  0  0  0  0  0  0  0
   -1.9057    0.1661   -0.1133 C   0  0  0  0  0  0  0  0  0  0  0  0
   -2.1213    0.3398   -1.4829 O   0  0  0  0  0  0  0  0  0  0  0  0
   -2.8465    0.1439    0.7252 O   0  0  0  0  0  0  0  0  0  0  0  0
  3  7  1  0
  4  8  1  0
  5  9  1  0
  7 10  1  0
  9 11  1  0
 11 12  1  0
 12 13  1  0
 13 14  1  0
 14 15  1  0
 14 16  1  0
 15 17  1  0
 17 18  1  0
 18 19  2  0
 18 20  1  0
 19 21  1  0
 20 22  2  0
 21 23  2  0
 23 24  1  0
  8 10  1  0
 22 23  1  0
  1  2  1  0
  1  3  1  0
  1  4  1  0
  2  5  1  0
  2  6  2  0
 27 31  1  0
 28 32  1  0
 29 33  1  0
 31 34  1  0
 33 35  1  0
 35 36  1  0
 36 37  1  0
 37 38  1  0
 38 39  1  0
 38 40  1  0
 39 41  1  0
 41 42  1  0
 42 43  2  0
 42 44  1  0
 43 45  1  0
 44 46  2  0
 45 47  2  0
 47 48  1  0
 32 34  1  0
 46 47  1  0
 25 26  1  0
 25 27  1  0
 25 28  1  0
 26 29  1  0
 26 30  2  0
 49 50  2  0
 49 54  1  0
 50 51  1  0
 51 52  1  0
 51 53  2  0
 54 55  1  0
 54 56  2  0
M  END
