
     RDKit          2D

 56 57  0  0  0  0  0  0  0  0999 V2000
    7.9367   -7.8277    0.0000 N   0  0  0  0  0  0  0  0  0  0  0  0
    7.1912   -7.4286    0.0000 C   0  0  0  0  0  0  0  0  0  0  0  0
    8.6585   -7.3887    0.0000 C   0  0  0  0  0  0  0  0  0  0  0  0
    7.9367   -8.6260    0.0000 C   0  0  0  0  0  0  0  0  0  0  0  0
    6.5103   -7.8277    0.0000 N   0  0  0  0  0  0  0  0  0  0  0  0
    7.1912   -6.5904    0.0000 O   0  0  0  0  0  0  0  0  0  0  0  0
    9.3434   -7.8277    0.0000 C   0  0  0  0  0  0  0  0  0  0  0  0
    8.6585   -9.0212    0.0000 C   0  0  0  0  0  0  0  0  0  0  0  0
    5.7727   -7.4286    0.0000 C   0  0  0  0  0  0  0  0  0  0  0  0
    9.3434   -8.6260    0.0000 O   0  0  0  0  0  0  0  0  0  0  0  0
    5.0750   -7.8277    0.0000 C   0  0  0  0  0  0  0  0  0  0  0  0
    4.3662   -7.4286    0.0000 N   0  0  0  0  0  0  0  0  0  0  0  0
    3.6485   -7.8277    0.0000 C   0  0  0  0  0  0  0  0  0  0  0  0
    2.9508   -7.4286    0.0000 C   0  0  0  0  0  0  0  0  0  0  0  0
    2.2132   -7.8277    0.0000 C   0  0  0  0  0  0  0  0  0  0  0  0
    2.9508   -6.5904    0.0000 O   0  0  0  0  0  0  0  0  0  0  0  0
    1.5043   -7.4286    0.0000 O   0  0  0  0  0  0  0  0  0  0  0  0
    0.8065   -7.8397    0.0000 C   0  0  0  0  0  0  0  0  0  0  0  0
    0.0889   -7.4286    0.0000 C   0  0  0  0  0  0  0  0  0  0  0  0
    0.8065   -8.6540    0.0000 C   0  0  0  0  0  0  0  0  0  0  0  0
   -0.6319   -7.8397    0.0000 C   0  0  0  0  0  0  0  0  0  0  0  0
    0.0889   -9.0611    0.0000 C   0  0  0  0  0  0  0  0  0  0  0  0
   -0.6319   -8.6540    0.0000 C   0  0  0  0  0  0  0  0  0  0  0  0
   -1.3641   -9.0850    0.0000 O   0  0  0  0  0  0  0  0  0  0  0  0
    7.7801   -5.4177    0.0000 N   0  0  0  0  0  0  0  0  0  0  0  0
    7.0347   -5.0186    0.0000 C   0  0  0  0  0  0  0  0  0  0  0  0
    8.5019   -4.9787    0.0000 C   0  0  0  0  0  0  0  0  0  0  0  0
    7.7801   -6.2161    0.0000 C   0  0  0  0  0  0  0  0  0  0  0  0
    6.3537   -5.4177    0.0000 N   0  0  0  0  0  0  0  0  0  0  0  0
    7.0347   -4.1804    0.0000 O   0  0  0  0  0  0  0  0  0  0  0  0
    9.1869   -5.4177    0.0000 C   0  0  0  0  0  0  0  0  0  0  0  0
    8.5019   -6.6112    0.0000 C   0  0  0  0  0  0  0  0  0  0  0  0
    5.6161   -5.0186    0.0000 C   0  0  0  0  0  0  0  0  0  0  0  0
    9.1869   -6.2161    0.0000 O   0  0  0  0  0  0  0  0  0  0  0  0
    4.9184   -5.4177    0.0000 C   0  0  0  0  0  0  0  0  0  0  0  0
    4.2096   -5.0186    0.0000 N   0  0  0  0  0  0  0  0  0  0  0  0
    3.4919   -5.4177    0.0000 C   0  0  0  0  0  0  0  0  0  0  0  0
    2.7942   -5.0186    0.0000 C   0  0  0  0  0  0  0  0  0  0  0  0
    2.0566   -5.4177    0.0000 C   0  0  0  0  0  0  0  0  0  0  0  0
    2.7942   -4.1804    0.0000 O   0  0  0  0  0  0  0  0  0  0  0  0
    1.3477   -5.0186    0.0000 O   0  0  0  0  0  0  0  0  0  0  0  0
    0.6499   -5.4297    0.0000 C   0  0  0  0  0  0  0  0  0  0  0  0
   -0.0677   -5.0186    0.0000 C   0  0  0  0  0  0  0  0  0  0  0  0
    0.6499   -6.2441    0.0000 C   0  0  0  0  0  0  0  0  0  0  0  0
   -0.7885   -5.4297    0.0000 C   0  0  0  0  0  0  0  0  0  0  0  0
   -0.0677   -6.6511    0.0000 C   0  0  0  0  0  0  0  0  0  0  0  0
   -0.7885   -6.2441    0.0000 C   0  0  0  0  0  0  0  0  0  0  0  0
   -1.5207   -6.6750    0.0000 O   0  0  0  0  0  0  0  0  0  0  0  0
   11.6542   -6.4579    0.0000 C   0  0  0  0  0  0  0  0  0  0  0  0
   11.6542   -5.6137    0.0000 C   0  0  0  0  0  0  0  0  0  0  0  0
   12.3929   -5.1834    0.0000 C   0  0  0  0  0  0  0  0  0  0  0  0
   13.1355   -5.6057    0.0000 O   0  0  0  0  0  0  0  0  0  0  0  0
   12.3929   -4.3882    0.0000 O   0  0  0  0  0  0  0  0  0  0  0  0
   10.7800   -6.6159    0.0000 C   0  0  0  0  0  0  0  0  0  0  0  0
   10.0822   -6.2023    0.0000 O   0  0  0  0  0  0  0  0  0  0  0  0
   10.7800   -7.4279    0.0000 O   0  0  0  0  0  0  0  0  0  0  0  0
  3  7  1  0
  4  8  1  0
  5  9  1  0
  7 10  1  0
  9 11  1  0
 11 12  1  0
 12 13  1  0
 13 14  1  0
 14 15  1  0
 14 16  1  0
 15 17  1  0
 17 18  1  0
 18 19  1  0
 18 20  2  0
 19 21  2  0
 20 22  1  0
 21 23  1  0
 23 24  1  0
  8 10  1  0
 22 23  2  0
  1  2  1  0
  1  3  1  0
  1  4  1  0
  2  5  1  0
  2  6  2  0
 27 31  1  0
 28 32  1  0
 29 33  1  0
 31 34  1  0
 33 35  1  0
 35 36  1  0
 36 37  1  0
 37 38  1  0
 38 39  1  0
 38 40  1  0
 39 41  1  0
 41 42  1  0
 42 43  1  0
 42 44  2  0
 43 45  2  0
 44 46  1  0
 45 47  1  0
 47 48  1  0
 32 34  1  0
 46 47  2  0
 25 26  1  0
 25 27  1  0
 25 28  1  0
 26 29  1  0
 26 30  2  0
 49 50  2  0
 49 54  1  0
 50 51  1  0
 51 52  1  0
 51 53  2  0
 54 55  1  0
 54 56  2  0
M  END
> <chembl_id>
CHEMBL1329567

> <chembl_pref_name>
XAMOTEROL FUMARATE
