
     RDKit          3D

110111  0  0  0  0  0  0  0  0999 V2000
   -5.2939   -0.4455   -0.0273 N   0  0  0  0  0  0  0  0  0  0  0  0
   -3.9659   -0.6559   -0.3334 C   0  0  0  0  0  0  0  0  0  0  0  0
   -6.1099   -1.5900    0.3771 C   0  0  0  0  0  0  0  0  0  0  0  0
   -5.9389    0.8633    0.1093 C   0  0  0  0  0  0  0  0  0  0  0  0
   -3.3005    0.4592   -0.7782 N   0  0  0  0  0  0  0  0  0  0  0  0
   -3.4213   -1.7487   -0.2166 O   0  0  0  0  0  0  0  0  0  0  0  0
   -7.5952   -1.3153    0.1334 C   0  0  0  0  0  0  0  0  0  0  0  0
   -7.0799    0.8134    1.1300 C   0  0  0  0  0  0  0  0  0  0  0  0
   -1.9066    0.3657   -1.1818 C   0  0  0  0  0  0  0  0  0  0  0  0
   -8.0916   -0.1487    0.8060 O   0  0  0  0  0  0  0  0  0  0  0  0
   -0.9443    0.2555    0.0169 C   0  0  0  0  0  0  0  0  0  0  0  0
    0.4725    0.1396   -0.3457 N   0  0  0  0  0  0  0  0  0  0  0  0
    1.0610    1.4013   -0.8084 C   0  0  0  0  0  0  0  0  0  0  0  0
    2.5087    1.1980   -1.2916 C   0  0  1  0  0  0  0  0  0  0  0  0
    3.4263    0.6314   -0.1995 C   0  0  0  0  0  0  0  0  0  0  0  0
    2.5006    0.3172   -2.4299 O   0  0  0  0  0  0  0  0  0  0  0  0
    4.7600    0.6100   -0.7320 O   0  0  0  0  0  0  0  0  0  0  0  0
    5.7398    0.1029    0.0781 C   0  0  0  0  0  0  0  0  0  0  0  0
    7.0142    0.0664   -0.4985 C   0  0  0  0  0  0  0  0  0  0  0  0
    5.5676   -0.3604    1.3837 C   0  0  0  0  0  0  0  0  0  0  0  0
    8.1079   -0.4309    0.2148 C   0  0  0  0  0  0  0  0  0  0  0  0
    6.6612   -0.8572    2.1001 C   0  0  0  0  0  0  0  0  0  0  0  0
    7.9197   -0.8905    1.5122 C   0  0  0  0  0  0  0  0  0  0  0  0
    8.9531   -1.3862    2.2493 O   0  0  0  0  0  0  0  0  0  0  0  0
    4.7285   -0.3015    0.0885 N   0  0  0  0  0  0  0  0  0  0  0  0
    3.5242   -0.9528    0.3091 C   0  0  0  0  0  0  0  0  0  0  0  0
    5.6090   -0.8818   -0.9292 C   0  0  0  0  0  0  0  0  0  0  0  0
    4.8897    1.1500    0.2511 C   0  0  0  0  0  0  0  0  0  0  0  0
    2.7046   -0.3364    1.2223 N   0  0  0  0  0  0  0  0  0  0  0  0
    3.2084   -1.9946   -0.2566 O   0  0  0  0  0  0  0  0  0  0  0  0
    7.0532   -0.4028   -0.7704 C   0  0  0  0  0  0  0  0  0  0  0  0
    6.3651    1.5468    0.3554 C   0  0  0  0  0  0  0  0  0  0  0  0
    1.4265   -0.9405    1.5825 C   0  0  0  0  0  0  0  0  0  0  0  0
    7.1224    1.0309   -0.7471 O   0  0  0  0  0  0  0  0  0  0  0  0
    0.3727   -0.8368    0.4618 C   0  0  0  0  0  0  0  0  0  0  0  0
    0.1953    0.5690    0.0510 N   0  0  0  0  0  0  0  0  0  0  0  0
   -0.5640    0.6940   -1.2101 C   0  0  0  0  0  0  0  0  0  0  0  0
   -2.0887    0.8129   -0.9914 C   0  0  1  0  0  0  0  0  0  0  0  0
   -2.7706   -0.5328   -0.7069 C   0  0  0  0  0  0  0  0  0  0  0  0
   -2.2964    1.7179    0.1090 O   0  0  0  0  0  0  0  0  0  0  0  0
   -4.0846   -0.5689   -1.2832 O   0  0  0  0  0  0  0  0  0  0  0  0
   -5.1673   -0.3499   -0.4814 C   0  0  0  0  0  0  0  0  0  0  0  0
   -5.1555    0.2690    0.7679 C   0  0  0  0  0  0  0  0  0  0  0  0
   -6.3864   -0.7749   -1.0198 C   0  0  0  0  0  0  0  0  0  0  0  0
   -6.3473    0.4449    1.4812 C   0  0  0  0  0  0  0  0  0  0  0  0
   -7.5769   -0.6039   -0.3112 C   0  0  0  0  0  0  0  0  0  0  0  0
   -7.5480    0.0031    0.9363 C   0  0  0  0  0  0  0  0  0  0  0  0
   -8.7289    0.1551    1.5998 O   0  0  0  0  0  0  0  0  0  0  0  0
    0.5596    0.1291   -0.6439 C   0  0  0  0  0  0  0  0  0  0  0  0
   -0.5594   -0.1291    0.0447 C   0  0  0  0  0  0  0  0  0  0  0  0
   -1.8502    0.2645   -0.5212 C   0  0  0  0  0  0  0  0  0  0  0  0
   -2.8450   -0.0767    0.3107 O   0  0  0  0  0  0  0  0  0  0  0  0
   -2.0503    0.8208   -1.5831 O   0  0  0  0  0  0  0  0  0  0  0  0
    1.8504   -0.2645   -0.0777 C   0  0  0  0  0  0  0  0  0  0  0  0
    2.8451    0.0768   -0.9098 O   0  0  0  0  0  0  0  0  0  0  0  0
    2.0500   -0.8210    0.9843 O   0  0  0  0  0  0  0  0  0  0  0  0
   -5.9232   -1.7505    1.4452 H   0  0  0  0  0  0  0  0  0  0  0  0
   -5.7922   -2.4878   -0.1634 H   0  0  0  0  0  0  0  0  0  0  0  0
   -5.2060    1.6210    0.4032 H   0  0  0  0  0  0  0  0  0  0  0  0
   -6.3321    1.1193   -0.8809 H   0  0  0  0  0  0  0  0  0  0  0  0
   -3.8727    1.0757   -1.3330 H   0  0  0  0  0  0  0  0  0  0  0  0
   -8.1980   -2.1681    0.4613 H   0  0  0  0  0  0  0  0  0  0  0  0
   -7.7820   -1.1758   -0.9370 H   0  0  0  0  0  0  0  0  0  0  0  0
   -7.5660    1.7918    1.2012 H   0  0  0  0  0  0  0  0  0  0  0  0
   -6.6920    0.5670    2.1252 H   0  0  0  0  0  0  0  0  0  0  0  0
   -1.6955    1.2702   -1.7599 H   0  0  0  0  0  0  0  0  0  0  0  0
   -1.7919   -0.4968   -1.8483 H   0  0  0  0  0  0  0  0  0  0  0  0
   -1.1990   -0.6368    0.5992 H   0  0  0  0  0  0  0  0  0  0  0  0
   -1.0932    1.1018    0.6991 H   0  0  0  0  0  0  0  0  0  0  0  0
    0.5842   -0.5582   -1.0877 H   0  0  0  0  0  0  0  0  0  0  0  0
    0.4790    1.8003   -1.6462 H   0  0  0  0  0  0  0  0  0  0  0  0
    1.0469    2.1373    0.0038 H   0  0  0  0  0  0  0  0  0  0  0  0
    2.9084    2.1548   -1.6463 H   0  0  0  0  0  0  0  0  0  0  0  0
    3.3889    1.2760    0.6861 H   0  0  0  0  0  0  0  0  0  0  0  0
    3.1273   -0.3940    0.0474 H   0  0  0  0  0  0  0  0  0  0  0  0
    3.4323    0.0601   -2.5696 H   0  0  0  0  0  0  0  0  0  0  0  0
    7.1551    0.4246   -1.5154 H   0  0  0  0  0  0  0  0  0  0  0  0
    4.6006   -0.3526    1.8761 H   0  0  0  0  0  0  0  0  0  0  0  0
    9.0853   -0.4517   -0.2564 H   0  0  0  0  0  0  0  0  0  0  0  0
    6.5296   -1.2184    3.1170 H   0  0  0  0  0  0  0  0  0  0  0  0
    9.7613   -1.3533    1.7114 H   0  0  0  0  0  0  0  0  0  0  0  0
    5.5716   -1.9750   -0.8830 H   0  0  0  0  0  0  0  0  0  0  0  0
    5.2150   -0.5685   -1.9038 H   0  0  0  0  0  0  0  0  0  0  0  0
    4.4392    1.6111   -0.6367 H   0  0  0  0  0  0  0  0  0  0  0  0
    4.3485    1.5191    1.1255 H   0  0  0  0  0  0  0  0  0  0  0  0
    3.2118    0.0659    1.9957 H   0  0  0  0  0  0  0  0  0  0  0  0
    7.6585   -0.7537   -1.6122 H   0  0  0  0  0  0  0  0  0  0  0  0
    7.4990   -0.7956    0.1513 H   0  0  0  0  0  0  0  0  0  0  0  0
    6.4599    2.6370    0.3444 H   0  0  0  0  0  0  0  0  0  0  0  0
    6.8038    1.1820    1.2924 H   0  0  0  0  0  0  0  0  0  0  0  0
    1.5947   -1.9907    1.8464 H   0  0  0  0  0  0  0  0  0  0  0  0
    1.0705   -0.4175    2.4771 H   0  0  0  0  0  0  0  0  0  0  0  0
   -0.5693   -1.2462    0.8349 H   0  0  0  0  0  0  0  0  0  0  0  0
    0.6906   -1.4435   -0.3928 H   0  0  0  0  0  0  0  0  0  0  0  0
    1.1428    0.9231   -0.1194 H   0  0  0  0  0  0  0  0  0  0  0  0
   -0.3108   -0.0865   -1.9370 H   0  0  0  0  0  0  0  0  0  0  0  0
   -0.2384    1.6432   -1.6555 H   0  0  0  0  0  0  0  0  0  0  0  0
   -2.5407    1.2787   -1.8744 H   0  0  0  0  0  0  0  0  0  0  0  0
   -2.7825   -0.7906    0.3576 H   0  0  0  0  0  0  0  0  0  0  0  0
   -2.2248   -1.3311   -1.2224 H   0  0  0  0  0  0  0  0  0  0  0  0
   -1.4913    1.6174    0.6602 H   0  0  0  0  0  0  0  0  0  0  0  0
   -4.2394    0.6482    1.2067 H   0  0  0  0  0  0  0  0  0  0  0  0
   -6.4088   -1.2462   -1.9992 H   0  0  0  0  0  0  0  0  0  0  0  0
   -6.3143    0.9348    2.4491 H   0  0  0  0  0  0  0  0  0  0  0  0
   -8.5186   -0.9396   -0.7345 H   0  0  0  0  0  0  0  0  0  0  0  0
   -8.5521    0.6082    2.4401 H   0  0  0  0  0  0  0  0  0  0  0  0
    0.5578    0.6206   -1.6100 H   0  0  0  0  0  0  0  0  0  0  0  0
   -0.5578   -0.6205    1.0108 H   0  0  0  0  0  0  0  0  0  0  0  0
   -3.6565    0.2237   -0.1494 H   0  0  0  0  0  0  0  0  0  0  0  0
    3.6564   -0.2238   -0.4493 H   0  0  0  0  0  0  0  0  0  0  0  0
  3  7  1  0
  4  8  1  0
  5  9  1  0
  7 10  1  0
  9 11  1  0
 11 12  1  0
 12 13  1  0
 13 14  1  0
 14 15  1  0
 14 16  1  0
 15 17  1  0
 17 18  1  0
 18 19  2  0
 18 20  1  0
 19 21  1  0
 20 22  2  0
 21 23  2  0
 23 24  1  0
  8 10  1  0
 22 23  1  0
  1  2  1  0
  1  3  1  0
  1  4  1  0
  2  5  1  0
  2  6  2  0
 27 31  1  0
 28 32  1  0
 29 33  1  0
 31 34  1  0
 33 35  1  0
 35 36  1  0
 36 37  1  0
 37 38  1  0
 38 39  1  0
 38 40  1  0
 39 41  1  0
 41 42  1  0
 42 43  2  0
 42 44  1  0
 43 45  1  0
 44 46  2  0
 45 47  2  0
 47 48  1  0
 32 34  1  0
 46 47  1  0
 25 26  1  0
 25 27  1  0
 25 28  1  0
 26 29  1  0
 26 30  2  0
 49 50  2  0
 49 54  1  0
 50 51  1  0
 51 52  1  0
 51 53  2  0
 54 55  1  0
 54 56  2  0
  3 57  1  0
  3 58  1  0
  4 59  1  0
  4 60  1  0
  5 61  1  0
  7 62  1  0
  7 63  1  0
  8 64  1  0
  8 65  1  0
  9 66  1  0
  9 67  1  0
 11 68  1  0
 11 69  1  0
 12 70  1  0
 13 71  1  0
 13 72  1  0
 14 73  1  6
 15 74  1  0
 15 75  1  0
 16 76  1  0
 19 77  1  0
 20 78  1  0
 21 79  1  0
 22 80  1  0
 24 81  1  0
 27 82  1  0
 27 83  1  0
 28 84  1  0
 28 85  1  0
 29 86  1  0
 31 87  1  0
 31 88  1  0
 32 89  1  0
 32 90  1  0
 33 91  1  0
 33 92  1  0
 35 93  1  0
 35 94  1  0
 36 95  1  0
 37 96  1  0
 37 97  1  0
 38 98  1  6
 39 99  1  0
 39100  1  0
 40101  1  0
 43102  1  0
 44103  1  0
 45104  1  0
 46105  1  0
 48106  1  0
 49107  1  0
 50108  1  0
 52109  1  0
 55110  1  0
M  END
$$$$
