
     RDKit          3D

110111  0  0  0  0  0  0  0  0999 V2000
   -3.8942    0.4022   -0.6597 N   0  0  0  0  0  0  0  0  0  0  0  0
   -3.3685   -0.8156   -1.0453 C   0  0  0  0  0  0  0  0  0  0  0  0
   -4.9988    0.9717   -1.4346 C   0  0  0  0  0  0  0  0  0  0  0  0
   -3.6638    1.0361    0.6413 C   0  0  0  0  0  0  0  0  0  0  0  0
   -2.3954   -1.3141   -0.2184 N   0  0  0  0  0  0  0  0  0  0  0  0
   -3.7557   -1.4277   -2.0376 O   0  0  0  0  0  0  0  0  0  0  0  0
   -6.1324    1.4176   -0.5048 C   0  0  0  0  0  0  0  0  0  0  0  0
   -4.3247    2.4149    0.7300 C   0  0  0  0  0  0  0  0  0  0  0  0
   -1.7293   -2.5666   -0.5380 C   0  0  0  0  0  0  0  0  0  0  0  0
   -5.7368    2.3831    0.4834 O   0  0  0  0  0  0  0  0  0  0  0  0
   -0.6949   -2.4379   -1.6739 C   0  0  0  0  0  0  0  0  0  0  0  0
    0.1237   -1.2195   -1.6751 N   0  0  0  0  0  0  0  0  0  0  0  0
    1.2336   -1.1921   -0.7189 C   0  0  0  0  0  0  0  0  0  0  0  0
    0.8404   -0.8356    0.7290 C   0  0  1  0  0  0  0  0  0  0  0  0
    2.0529   -0.4976    1.6092 C   0  0  0  0  0  0  0  0  0  0  0  0
   -0.0664    0.2824    0.7122 O   0  0  0  0  0  0  0  0  0  0  0  0
    2.6780    0.6926    1.1147 O   0  0  0  0  0  0  0  0  0  0  0  0
    4.0211    0.6491    0.8663 C   0  0  0  0  0  0  0  0  0  0  0  0
    4.6946    1.8600    1.0464 C   0  0  0  0  0  0  0  0  0  0  0  0
    4.7193   -0.4617    0.3893 C   0  0  0  0  0  0  0  0  0  0  0  0
    6.0618    1.9540    0.7830 C   0  0  0  0  0  0  0  0  0  0  0  0
    6.0909   -0.3700    0.1256 C   0  0  0  0  0  0  0  0  0  0  0  0
    6.7501    0.8383    0.3284 C   0  0  0  0  0  0  0  0  0  0  0  0
    8.0830    0.9739    0.0775 O   0  0  0  0  0  0  0  0  0  0  0  0
    5.0977   -0.0580    0.3209 N   0  0  0  0  0  0  0  0  0  0  0  0
    3.9543    0.5013    0.8469 C   0  0  0  0  0  0  0  0  0  0  0  0
    5.2063   -1.4065   -0.2444 C   0  0  0  0  0  0  0  0  0  0  0  0
    6.3648    0.6570    0.4742 C   0  0  0  0  0  0  0  0  0  0  0  0
    2.7999   -0.1879    0.5784 N   0  0  0  0  0  0  0  0  0  0  0  0
    3.9608    1.5378    1.5050 O   0  0  0  0  0  0  0  0  0  0  0  0
    6.6190   -1.9719   -0.0701 C   0  0  0  0  0  0  0  0  0  0  0  0
    7.3564    0.2515   -0.6201 C   0  0  0  0  0  0  0  0  0  0  0  0
    1.5153    0.3211    1.0232 C   0  0  0  0  0  0  0  0  0  0  0  0
    7.6329   -1.1569   -0.6699 O   0  0  0  0  0  0  0  0  0  0  0  0
    0.9967    1.4634    0.1294 C   0  0  0  0  0  0  0  0  0  0  0  0
   -0.2708    2.0718    0.5536 N   0  0  0  0  0  0  0  0  0  0  0  0
   -1.4334    1.1645    0.5666 C   0  0  0  0  0  0  0  0  0  0  0  0
   -1.8493    0.7134   -0.8500 C   0  0  1  0  0  0  0  0  0  0  0  0
   -3.1491   -0.1079   -0.8614 C   0  0  0  0  0  0  0  0  0  0  0  0
   -1.9896    1.8708   -1.6873 O   0  0  0  0  0  0  0  0  0  0  0  0
   -4.1643    0.5562   -0.1046 O   0  0  0  0  0  0  0  0  0  0  0  0
   -5.3803   -0.0621   -0.0076 C   0  0  0  0  0  0  0  0  0  0  0  0
   -5.7396   -1.2707   -0.6090 C   0  0  0  0  0  0  0  0  0  0  0  0
   -6.3190    0.6166    0.7740 C   0  0  0  0  0  0  0  0  0  0  0  0
   -7.0258   -1.7941   -0.4278 C   0  0  0  0  0  0  0  0  0  0  0  0
   -7.6018    0.0982    0.9561 C   0  0  0  0  0  0  0  0  0  0  0  0
   -7.9468   -1.1039    0.3537 C   0  0  0  0  0  0  0  0  0  0  0  0
   -9.2098   -1.5763    0.5499 O   0  0  0  0  0  0  0  0  0  0  0  0
    0.5128    0.0245    0.4299 C   0  0  0  0  0  0  0  0  0  0  0  0
   -0.5128   -0.0303   -0.4313 C   0  0  0  0  0  0  0  0  0  0  0  0
   -1.9020   -0.2214   -0.0063 C   0  0  0  0  0  0  0  0  0  0  0  0
   -2.0536   -0.3362    1.3215 O   0  0  0  0  0  0  0  0  0  0  0  0
   -2.8517   -0.2779   -0.7656 O   0  0  0  0  0  0  0  0  0  0  0  0
    1.9023    0.2216    0.0069 C   0  0  0  0  0  0  0  0  0  0  0  0
    2.0535    0.3433   -1.3201 O   0  0  0  0  0  0  0  0  0  0  0  0
    2.8517    0.2714    0.7667 O   0  0  0  0  0  0  0  0  0  0  0  0
   -5.3791    0.2624   -2.1758 H   0  0  0  0  0  0  0  0  0  0  0  0
   -4.5910    1.8357   -1.9713 H   0  0  0  0  0  0  0  0  0  0  0  0
   -4.0843    0.3656    1.4004 H   0  0  0  0  0  0  0  0  0  0  0  0
   -2.5909    1.1346    0.8228 H   0  0  0  0  0  0  0  0  0  0  0  0
   -1.8073   -0.6276    0.2371 H   0  0  0  0  0  0  0  0  0  0  0  0
   -6.9492    1.8582   -1.0868 H   0  0  0  0  0  0  0  0  0  0  0  0
   -6.5401    0.5524    0.0320 H   0  0  0  0  0  0  0  0  0  0  0  0
   -4.1724    2.8428    1.7265 H   0  0  0  0  0  0  0  0  0  0  0  0
   -3.8731    3.1034    0.0055 H   0  0  0  0  0  0  0  0  0  0  0  0
   -2.4862   -3.3091   -0.8155 H   0  0  0  0  0  0  0  0  0  0  0  0
   -1.2526   -2.9195    0.3807 H   0  0  0  0  0  0  0  0  0  0  0  0
   -1.2468   -2.4308   -2.6225 H   0  0  0  0  0  0  0  0  0  0  0  0
   -0.0641   -3.3339   -1.7095 H   0  0  0  0  0  0  0  0  0  0  0  0
   -0.4896   -0.4209   -1.5015 H   0  0  0  0  0  0  0  0  0  0  0  0
    1.9094   -0.4163   -1.0970 H   0  0  0  0  0  0  0  0  0  0  0  0
    1.8022   -2.1286   -0.7449 H   0  0  0  0  0  0  0  0  0  0  0  0
    0.3135   -1.6743    1.1887 H   0  0  0  0  0  0  0  0  0  0  0  0
    1.6961   -0.2489    2.6161 H   0  0  0  0  0  0  0  0  0  0  0  0
    2.7225   -1.3573    1.7118 H   0  0  0  0  0  0  0  0  0  0  0  0
    0.4925    1.0578    0.5021 H   0  0  0  0  0  0  0  0  0  0  0  0
    4.1546    2.7362    1.3951 H   0  0  0  0  0  0  0  0  0  0  0  0
    4.2221   -1.4040    0.1837 H   0  0  0  0  0  0  0  0  0  0  0  0
    6.5842    2.8955    0.9284 H   0  0  0  0  0  0  0  0  0  0  0  0
    6.6182   -1.2427   -0.2449 H   0  0  0  0  0  0  0  0  0  0  0  0
    8.4227    0.1315   -0.2680 H   0  0  0  0  0  0  0  0  0  0  0  0
    4.9641   -1.3170   -1.3096 H   0  0  0  0  0  0  0  0  0  0  0  0
    4.4760   -2.0713    0.2259 H   0  0  0  0  0  0  0  0  0  0  0  0
    6.1941    1.7384    0.4504 H   0  0  0  0  0  0  0  0  0  0  0  0
    6.7597    0.3964    1.4634 H   0  0  0  0  0  0  0  0  0  0  0  0
    2.8015   -0.7158   -0.2797 H   0  0  0  0  0  0  0  0  0  0  0  0
    6.8596   -2.0771    0.9945 H   0  0  0  0  0  0  0  0  0  0  0  0
    6.6869   -2.9678   -0.5201 H   0  0  0  0  0  0  0  0  0  0  0  0
    6.9664    0.5378   -1.6044 H   0  0  0  0  0  0  0  0  0  0  0  0
    8.3109    0.7698   -0.4814 H   0  0  0  0  0  0  0  0  0  0  0  0
    1.6125    0.6668    2.0591 H   0  0  0  0  0  0  0  0  0  0  0  0
    0.8274   -0.5298    1.0096 H   0  0  0  0  0  0  0  0  0  0  0  0
    0.9277    1.1201   -0.9090 H   0  0  0  0  0  0  0  0  0  0  0  0
    1.7444    2.2662    0.1107 H   0  0  0  0  0  0  0  0  0  0  0  0
   -0.1434    2.4528    1.4947 H   0  0  0  0  0  0  0  0  0  0  0  0
   -2.2517    1.7461    1.0079 H   0  0  0  0  0  0  0  0  0  0  0  0
   -1.2675    0.3042    1.2232 H   0  0  0  0  0  0  0  0  0  0  0  0
   -1.0611    0.0989   -1.2991 H   0  0  0  0  0  0  0  0  0  0  0  0
   -3.4837   -0.2251   -1.9000 H   0  0  0  0  0  0  0  0  0  0  0  0
   -2.9462   -1.0902   -0.4152 H   0  0  0  0  0  0  0  0  0  0  0  0
   -1.3726    2.5300   -1.3052 H   0  0  0  0  0  0  0  0  0  0  0  0
   -5.0458   -1.8293   -1.2273 H   0  0  0  0  0  0  0  0  0  0  0  0
   -6.0495    1.5612    1.2395 H   0  0  0  0  0  0  0  0  0  0  0  0
   -7.2877   -2.7326   -0.9064 H   0  0  0  0  0  0  0  0  0  0  0  0
   -8.3269    0.6346    1.5608 H   0  0  0  0  0  0  0  0  0  0  0  0
   -9.3198   -2.3948    0.0391 H   0  0  0  0  0  0  0  0  0  0  0  0
    0.3778   -0.0714    1.5015 H   0  0  0  0  0  0  0  0  0  0  0  0
   -0.3778    0.0662   -1.5028 H   0  0  0  0  0  0  0  0  0  0  0  0
   -3.0194   -0.4570    1.4374 H   0  0  0  0  0  0  0  0  0  0  0  0
    3.0191    0.4671   -1.4378 H   0  0  0  0  0  0  0  0  0  0  0  0
  3  7  1  0
  4  8  1  0
  5  9  1  0
  7 10  1  0
  9 11  1  0
 11 12  1  0
 12 13  1  0
 13 14  1  0
 14 15  1  0
 14 16  1  0
 15 17  1  0
 17 18  1  0
 18 19  2  0
 18 20  1  0
 19 21  1  0
 20 22  2  0
 21 23  2  0
 23 24  1  0
  8 10  1  0
 22 23  1  0
  1  2  1  0
  1  3  1  0
  1  4  1  0
  2  5  1  0
  2  6  2  0
 27 31  1  0
 28 32  1  0
 29 33  1  0
 31 34  1  0
 33 35  1  0
 35 36  1  0
 36 37  1  0
 37 38  1  0
 38 39  1  0
 38 40  1  0
 39 41  1  0
 41 42  1  0
 42 43  2  0
 42 44  1  0
 43 45  1  0
 44 46  2  0
 45 47  2  0
 47 48  1  0
 32 34  1  0
 46 47  1  0
 25 26  1  0
 25 27  1  0
 25 28  1  0
 26 29  1  0
 26 30  2  0
 49 50  2  0
 49 54  1  0
 50 51  1  0
 51 52  1  0
 51 53  2  0
 54 55  1  0
 54 56  2  0
  3 57  1  0
  3 58  1  0
  4 59  1  0
  4 60  1  0
  5 61  1  0
  7 62  1  0
  7 63  1  0
  8 64  1  0
  8 65  1  0
  9 66  1  0
  9 67  1  0
 11 68  1  0
 11 69  1  0
 12 70  1  0
 13 71  1  0
 13 72  1  0
 14 73  1  1
 15 74  1  0
 15 75  1  0
 16 76  1  0
 19 77  1  0
 20 78  1  0
 21 79  1  0
 22 80  1  0
 24 81  1  0
 27 82  1  0
 27 83  1  0
 28 84  1  0
 28 85  1  0
 29 86  1  0
 31 87  1  0
 31 88  1  0
 32 89  1  0
 32 90  1  0
 33 91  1  0
 33 92  1  0
 35 93  1  0
 35 94  1  0
 36 95  1  0
 37 96  1  0
 37 97  1  0
 38 98  1  6
 39 99  1  0
 39100  1  0
 40101  1  0
 43102  1  0
 44103  1  0
 45104  1  0
 46105  1  0
 48106  1  0
 49107  1  0
 50108  1  0
 52109  1  0
 55110  1  0
M  END
$$$$
