
     RDKit          3D

 22 14  0  0  0  0  0  0  0  0999 V2000
   47.7057    2.3906    4.7893 O   0  0  0  0  0  0  0  0  0  0  0  0
   46.8959    0.8085    7.1601 O   0  0  0  0  0  0  0  0  0  0  0  0
   45.9695    3.4279    6.7679 O   0  0  0  0  0  0  0  0  0  0  0  0
   47.1085    2.3834    6.4330 Si  0  0  0  0  0  4  0  0  0  0  0  0
   47.5125    2.4787    6.5492 Al  0  0  0  0  0 15  0  0  0  0  0  0
   47.5125    2.4787    6.5492 Al  0  0  0  0  0 15  0  0  0  0  0  0
   47.5125    2.4787    6.5492 Mg  0  0  0  0  0 15  0  0  0  0  0  0
   48.2866    2.4193    5.0432 O   0  0  0  0  0  0  0  0  0  0  0  0
   47.3162    1.1255    7.5137 O   0  0  0  0  0  0  0  0  0  0  0  0
   47.3900    3.9253    7.2618 O   0  0  0  0  0  0  0  0  0  0  0  0
   47.3191    2.5443    6.4935 Si  0  0  0  0  0  4  0  0  0  0  0  0
   48.1894    2.6598    4.9907 O   0  0  0  0  0  0  0  0  0  0  0  0
   47.6912    1.0644    7.5042 O   0  0  0  0  0  0  0  0  0  0  0  0
   46.8044    3.7419    7.2049 O   0  0  0  0  0  0  0  0  0  0  0  0
   47.3652    2.4485    6.4970 Si  0  0  0  0  0  4  0  0  0  0  0  0
   47.3352    2.7725    6.6970 O   0  0  0  0  0  0  0  0  0  0  0  0
   47.7106    1.0645    7.4709 O   0  0  0  0  0  0  0  0  0  0  0  0
   48.1945    2.6397    4.9974 O   0  0  0  0  0  0  0  0  0  0  0  0
   46.7975    3.7517    7.2253 O   0  0  0  0  0  0  0  0  0  0  0  0
   47.3475    2.4590    6.5031 Si  0  0  0  0  0  4  0  0  0  0  0  0
   47.4672    1.8944    7.1569 H   0  0  0  0  0  0  0  0  0  0  0  0
   47.7352    2.7693    5.7936 H   0  0  0  0  0  0  0  0  0  0  0  0
  4  1  1  0
  4  2  1  0
  4  3  2  0
 11  8  1  0
 11  9  1  0
 11 10  2  0
 15 12  1  0
 15 13  1  0
 15 14  2  0
 20 17  1  0
 20 18  1  0
 20 19  2  0
 16 21  1  0
 16 22  1  0
M  CHG  8   1  -1   2  -1   5   3   6   3   7   2   8  -1   9  -1  12  -1
M  CHG  3  13  -1  17  -1  18  -1
M  END
> <Uni-Dock RESULT> 
ENERGY=   -8.365  LOWER_BOUND=    0.000  UPPER_BOUND=    0.000
INTER + INTRA:          -8.365
INTER:                  -8.365
INTRA:                   0.000
UNBOUND:                 0.000

$$$$

     RDKit          3D

 22 14  0  0  0  0  0  0  0  0999 V2000
   46.5245    3.5690    7.2780 O   0  0  0  0  0  0  0  0  0  0  0  0
   47.4197    0.7949    7.8097 O   0  0  0  0  0  0  0  0  0  0  0  0
   48.9579    2.5516    6.2538 O   0  0  0  0  0  0  0  0  0  0  0  0
   47.5093    2.2095    6.7875 Si  0  0  0  0  0  4  0  0  0  0  0  0
   47.2001    2.1273    6.4985 Al  0  0  0  0  0 15  0  0  0  0  0  0
   47.2001    2.1273    6.4985 Al  0  0  0  0  0 15  0  0  0  0  0  0
   47.2001    2.1273    6.4985 Mg  0  0  0  0  0 15  0  0  0  0  0  0
   46.0704    3.3209    6.9105 O   0  0  0  0  0  0  0  0  0  0  0  0
   47.2268    0.6229    7.2306 O   0  0  0  0  0  0  0  0  0  0  0  0
   47.9434    2.2735    5.0695 O   0  0  0  0  0  0  0  0  0  0  0  0
   47.3819    2.2240    6.5477 Si  0  0  0  0  0  4  0  0  0  0  0  0
   46.2184    3.4973    6.7799 O   0  0  0  0  0  0  0  0  0  0  0  0
   46.8629    0.5698    7.1346 O   0  0  0  0  0  0  0  0  0  0  0  0
   48.4075    2.2740    5.4749 O   0  0  0  0  0  0  0  0  0  0  0  0
   47.3116    2.1681    6.6046 Si  0  0  0  0  0  4  0  0  0  0  0  0
   47.4912    2.1665    6.2675 O   0  0  0  0  0  0  0  0  0  0  0  0
   46.8362    0.5967    7.1417 O   0  0  0  0  0  0  0  0  0  0  0  0
   46.2094    3.4808    6.7910 O   0  0  0  0  0  0  0  0  0  0  0  0
   48.4223    2.2622    5.4607 O   0  0  0  0  0  0  0  0  0  0  0  0
   47.3326    2.1696    6.6005 Si  0  0  0  0  0  4  0  0  0  0  0  0
   47.2269    1.3113    6.7135 H   0  0  0  0  0  0  0  0  0  0  0  0
   46.8822    2.9042    6.5143 H   0  0  0  0  0  0  0  0  0  0  0  0
  4  1  1  0
  4  2  1  0
  4  3  2  0
 11  8  1  0
 11  9  1  0
 11 10  2  0
 15 12  1  0
 15 13  1  0
 15 14  2  0
 20 17  1  0
 20 18  1  0
 20 19  2  0
 16 21  1  0
 16 22  1  0
M  CHG  8   1  -1   2  -1   5   3   6   3   7   2   8  -1   9  -1  12  -1
M  CHG  3  13  -1  17  -1  18  -1
M  END
> <Uni-Dock RESULT> 
ENERGY=   -8.268  LOWER_BOUND=    0.495  UPPER_BOUND=    1.903
INTER + INTRA:          -8.268
INTER:                  -8.268
INTRA:                   0.000
UNBOUND:                 0.000

$$$$

     RDKit          3D

 22 14  0  0  0  0  0  0  0  0999 V2000
   47.6270    1.0727    7.6312 O   0  0  0  0  0  0  0  0  0  0  0  0
   48.7186    2.5966    5.3364 O   0  0  0  0  0  0  0  0  0  0  0  0
   47.2070    3.8552    7.3374 O   0  0  0  0  0  0  0  0  0  0  0  0
   47.5260    2.4883    6.6093 Si  0  0  0  0  0  4  0  0  0  0  0  0
   47.2034    2.2845    6.4087 Al  0  0  0  0  0 15  0  0  0  0  0  0
   47.2034    2.2845    6.4087 Al  0  0  0  0  0 15  0  0  0  0  0  0
   47.2034    2.2845    6.4087 Mg  0  0  0  0  0 15  0  0  0  0  0  0
   47.2278    0.7980    7.2213 O   0  0  0  0  0  0  0  0  0  0  0  0
   48.1474    2.5886    5.0610 O   0  0  0  0  0  0  0  0  0  0  0  0
   45.9200    3.2387    6.6497 O   0  0  0  0  0  0  0  0  0  0  0  0
   47.2683    2.4159    6.5614 Si  0  0  0  0  0  4  0  0  0  0  0  0
   47.0998    0.9129    7.4224 O   0  0  0  0  0  0  0  0  0  0  0  0
   47.9987    2.2844    4.8883 O   0  0  0  0  0  0  0  0  0  0  0  0
   46.3951    3.5862    6.8322 O   0  0  0  0  0  0  0  0  0  0  0  0
   47.3199    2.3544    6.4917 Si  0  0  0  0  0  4  0  0  0  0  0  0
   47.0233    2.5938    6.5158 O   0  0  0  0  0  0  0  0  0  0  0  0
   47.9969    2.2503    4.9060 O   0  0  0  0  0  0  0  0  0  0  0  0
   47.1116    0.9069    7.4051 O   0  0  0  0  0  0  0  0  0  0  0  0
   46.3857    3.6064    6.8243 O   0  0  0  0  0  0  0  0  0  0  0  0
   47.3193    2.3744    6.4993 Si  0  0  0  0  0  4  0  0  0  0  0  0
   47.5404    2.4995    5.6651 H   0  0  0  0  0  0  0  0  0  0  0  0
   47.0463    1.7601    7.0453 H   0  0  0  0  0  0  0  0  0  0  0  0
  4  1  1  0
  4  2  1  0
  4  3  2  0
 11  8  1  0
 11  9  1  0
 11 10  2  0
 15 12  1  0
 15 13  1  0
 15 14  2  0
 20 17  1  0
 20 18  1  0
 20 19  2  0
 16 21  1  0
 16 22  1  0
M  CHG  8   1  -1   2  -1   5   3   6   3   7   2   8  -1   9  -1  12  -1
M  CHG  3  13  -1  17  -1  18  -1
M  END
> <Uni-Dock RESULT> 
ENERGY=   -8.177  LOWER_BOUND=    0.323  UPPER_BOUND=    2.003
INTER + INTRA:          -8.177
INTER:                  -8.177
INTRA:                   0.000
UNBOUND:                 0.000

$$$$

     RDKit          3D

 22 14  0  0  0  0  0  0  0  0999 V2000
   48.5346    2.6316    5.1412 O   0  0  0  0  0  0  0  0  0  0  0  0
   47.0186    3.8653    7.3681 O   0  0  0  0  0  0  0  0  0  0  0  0
   48.0914    1.2820    7.5881 O   0  0  0  0  0  0  0  0  0  0  0  0
   47.5894    2.4056    6.5952 Si  0  0  0  0  0  4  0  0  0  0  0  0
   47.2608    2.3126    6.3320 Al  0  0  0  0  0 15  0  0  0  0  0  0
   47.2608    2.3126    6.3320 Al  0  0  0  0  0 15  0  0  0  0  0  0
   47.2608    2.3126    6.3320 Mg  0  0  0  0  0 15  0  0  0  0  0  0
   47.9848    2.5942    4.8263 O   0  0  0  0  0  0  0  0  0  0  0  0
   46.5089    3.5232    7.2091 O   0  0  0  0  0  0  0  0  0  0  0  0
   46.8810    0.7833    6.6962 O   0  0  0  0  0  0  0  0  0  0  0  0
   47.4268    2.2469    6.4459 Si  0  0  0  0  0  4  0  0  0  0  0  0
   48.1038    2.3586    4.8464 O   0  0  0  0  0  0  0  0  0  0  0  0
   46.2855    3.6000    6.9113 O   0  0  0  0  0  0  0  0  0  0  0  0
   47.2651    0.9488    7.1488 O   0  0  0  0  0  0  0  0  0  0  0  0
   47.3888    2.3432    6.4216 Si  0  0  0  0  0  4  0  0  0  0  0  0
   47.2732    1.9955    6.5292 O   0  0  0  0  0  0  0  0  0  0  0  0
   46.3002    3.6049    6.8761 O   0  0  0  0  0  0  0  0  0  0  0  0
   48.0938    2.3780    4.8485 O   0  0  0  0  0  0  0  0  0  0  0  0
   47.2539    0.9362    7.1653 O   0  0  0  0  0  0  0  0  0  0  0  0
   47.3954    2.3314    6.4382 Si  0  0  0  0  0  4  0  0  0  0  0  0
   46.7605    2.8126    6.7931 H   0  0  0  0  0  0  0  0  0  0  0  0
   47.7488    2.1297    5.6738 H   0  0  0  0  0  0  0  0  0  0  0  0
  4  1  1  0
  4  2  1  0
  4  3  2  0
 11  8  1  0
 11  9  1  0
 11 10  2  0
 15 12  1  0
 15 13  1  0
 15 14  2  0
 20 17  1  0
 20 18  1  0
 20 19  2  0
 16 21  1  0
 16 22  1  0
M  CHG  8   1  -1   2  -1   5   3   6   3   7   2   8  -1   9  -1  12  -1
M  CHG  3  13  -1  17  -1  18  -1
M  END
> <Uni-Dock RESULT> 
ENERGY=   -8.106  LOWER_BOUND=    0.373  UPPER_BOUND=    1.905
INTER + INTRA:          -8.106
INTER:                  -8.106
INTRA:                   0.000
UNBOUND:                 0.000

$$$$

     RDKit          3D

 22 14  0  0  0  0  0  0  0  0999 V2000
   44.0505    5.0162   10.2791 O   0  0  0  0  0  0  0  0  0  0  0  0
   43.4036    5.3951   13.1458 O   0  0  0  0  0  0  0  0  0  0  0  0
   44.3574    2.9405   12.1771 O   0  0  0  0  0  0  0  0  0  0  0  0
   43.6181    4.2891   11.8097 Si  0  0  0  0  0  4  0  0  0  0  0  0
   43.2176    4.2652   11.6519 Al  0  0  0  0  0 15  0  0  0  0  0  0
   43.2176    4.2652   11.6519 Al  0  0  0  0  0 15  0  0  0  0  0  0
   43.2176    4.2652   11.6519 Mg  0  0  0  0  0 15  0  0  0  0  0  0
   43.4271    5.0485   10.1643 O   0  0  0  0  0  0  0  0  0  0  0  0
   42.8533    5.0918   13.0604 O   0  0  0  0  0  0  0  0  0  0  0  0
   42.8995    2.6799   11.6153 O   0  0  0  0  0  0  0  0  0  0  0  0
   43.4080    4.1765   11.6789 Si  0  0  0  0  0  4  0  0  0  0  0  0
   43.5341    4.8259   10.0691 O   0  0  0  0  0  0  0  0  0  0  0  0
   42.5496    5.2456   12.8915 O   0  0  0  0  0  0  0  0  0  0  0  0
   43.4176    2.7159   11.9470 O   0  0  0  0  0  0  0  0  0  0  0  0
   43.3691    4.2732   11.7001 Si  0  0  0  0  0  4  0  0  0  0  0  0
   43.2772    3.9033   11.7233 O   0  0  0  0  0  0  0  0  0  0  0  0
   42.5523    5.2623   12.8568 O   0  0  0  0  0  0  0  0  0  0  0  0
   43.5264    4.8430   10.0803 O   0  0  0  0  0  0  0  0  0  0  0  0
   43.4117    2.6982   11.9614 O   0  0  0  0  0  0  0  0  0  0  0  0
   43.3801    4.2571   11.7090 Si  0  0  0  0  0  4  0  0  0  0  0  0
   42.9200    4.5645   12.3831 H   0  0  0  0  0  0  0  0  0  0  0  0
   43.4557    4.3276   10.8492 H   0  0  0  0  0  0  0  0  0  0  0  0
  4  1  1  0
  4  2  1  0
  4  3  2  0
 11  8  1  0
 11  9  1  0
 11 10  2  0
 15 12  1  0
 15 13  1  0
 15 14  2  0
 20 17  1  0
 20 18  1  0
 20 19  2  0
 16 21  1  0
 16 22  1  0
M  CHG  8   1  -1   2  -1   5   3   6   3   7   2   8  -1   9  -1  12  -1
M  CHG  3  13  -1  17  -1  18  -1
M  END
> <Uni-Dock RESULT> 
ENERGY=   -6.501  LOWER_BOUND=    6.225  UPPER_BOUND=    7.086
INTER + INTRA:          -6.501
INTER:                  -6.501
INTRA:                   0.000
UNBOUND:                 0.000

$$$$

     RDKit          3D

 22 14  0  0  0  0  0  0  0  0999 V2000
   42.2593    5.6763   11.2899 O   0  0  0  0  0  0  0  0  0  0  0  0
   44.9998    6.0951   12.3358 O   0  0  0  0  0  0  0  0  0  0  0  0
   43.7459    3.5897   12.4906 O   0  0  0  0  0  0  0  0  0  0  0  0
   43.5292    5.1516   12.3718 Si  0  0  0  0  0  4  0  0  0  0  0  0
   43.3063    5.3504   12.6827 Al  0  0  0  0  0 15  0  0  0  0  0  0
   43.3063    5.3504   12.6827 Al  0  0  0  0  0 15  0  0  0  0  0  0
   43.3063    5.3504   12.6827 Mg  0  0  0  0  0 15  0  0  0  0  0  0
   42.0523    6.0342   11.7714 O   0  0  0  0  0  0  0  0  0  0  0  0
   44.7687    6.1266   12.9254 O   0  0  0  0  0  0  0  0  0  0  0  0
   42.9133    4.1643   13.7096 O   0  0  0  0  0  0  0  0  0  0  0  0
   43.3466    5.1745   12.5719 Si  0  0  0  0  0  4  0  0  0  0  0  0
   41.9349    5.7970   11.7665 O   0  0  0  0  0  0  0  0  0  0  0  0
   44.5851    6.4282   13.0662 O   0  0  0  0  0  0  0  0  0  0  0  0
   43.3260    3.9009   13.3354 O   0  0  0  0  0  0  0  0  0  0  0  0
   43.3793    5.2753   12.5628 Si  0  0  0  0  0  4  0  0  0  0  0  0
   43.3155    5.0049   12.8249 O   0  0  0  0  0  0  0  0  0  0  0  0
   44.5553    6.4439   13.0476 O   0  0  0  0  0  0  0  0  0  0  0  0
   41.9478    5.8147   11.7674 O   0  0  0  0  0  0  0  0  0  0  0  0
   43.3356    3.8876   13.3524 O   0  0  0  0  0  0  0  0  0  0  0  0
   43.3867    5.2551   12.5634 Si  0  0  0  0  0  4  0  0  0  0  0  0
   44.0227    5.6984   12.9629 H   0  0  0  0  0  0  0  0  0  0  0  0
   42.5808    5.3476   12.2603 H   0  0  0  0  0  0  0  0  0  0  0  0
  4  1  1  0
  4  2  1  0
  4  3  2  0
 11  8  1  0
 11  9  1  0
 11 10  2  0
 15 12  1  0
 15 13  1  0
 15 14  2  0
 20 17  1  0
 20 18  1  0
 20 19  2  0
 16 21  1  0
 16 22  1  0
M  CHG  8   1  -1   2  -1   5   3   6   3   7   2   8  -1   9  -1  12  -1
M  CHG  3  13  -1  17  -1  18  -1
M  END
> <Uni-Dock RESULT> 
ENERGY=   -6.398  LOWER_BOUND=    7.401  UPPER_BOUND=    8.101
INTER + INTRA:          -6.398
INTER:                  -6.398
INTRA:                   0.000
UNBOUND:                 0.000

$$$$

     RDKit          3D

 22 14  0  0  0  0  0  0  0  0999 V2000
   44.8037    6.2414   12.5673 O   0  0  0  0  0  0  0  0  0  0  0  0
   43.7933    3.4646   12.7871 O   0  0  0  0  0  0  0  0  0  0  0  0
   42.7613    5.2463   10.8809 O   0  0  0  0  0  0  0  0  0  0  0  0
   43.5048    5.1087   12.2697 Si  0  0  0  0  0  4  0  0  0  0  0  0
   43.3167    5.2777   12.6188 Al  0  0  0  0  0 15  0  0  0  0  0  0
   43.3167    5.2777   12.6188 Al  0  0  0  0  0 15  0  0  0  0  0  0
   43.3167    5.2777   12.6188 Mg  0  0  0  0  0 15  0  0  0  0  0  0
   44.5210    6.3572   13.1236 O   0  0  0  0  0  0  0  0  0  0  0  0
   43.2846    3.6758   13.1014 O   0  0  0  0  0  0  0  0  0  0  0  0
   41.9395    5.9145   12.0588 O   0  0  0  0  0  0  0  0  0  0  0  0
   43.3453    5.2792   12.4091 Si  0  0  0  0  0  4  0  0  0  0  0  0
   44.4412    6.5248   12.9350 O   0  0  0  0  0  0  0  0  0  0  0  0
   43.2897    3.7854   13.4653 O   0  0  0  0  0  0  0  0  0  0  0  0
   42.1448    5.5757   11.5867 O   0  0  0  0  0  0  0  0  0  0  0  0
   43.3909    5.2248   12.4883 Si  0  0  0  0  0  4  0  0  0  0  0  0
   43.0493    5.3446   12.3666 O   0  0  0  0  0  0  0  0  0  0  0  0
   43.3154    3.8112   13.4780 O   0  0  0  0  0  0  0  0  0  0  0  0
   44.4463    6.5083   12.9484 O   0  0  0  0  0  0  0  0  0  0  0  0
   42.1233    5.5692   11.5797 O   0  0  0  0  0  0  0  0  0  0  0  0
   43.3817    5.2222   12.4691 Si  0  0  0  0  0  4  0  0  0  0  0  0
   43.1406    4.4983   12.8915 H   0  0  0  0  0  0  0  0  0  0  0  0
   43.7601    5.9904   12.5983 H   0  0  0  0  0  0  0  0  0  0  0  0
  4  1  1  0
  4  2  1  0
  4  3  2  0
 11  8  1  0
 11  9  1  0
 11 10  2  0
 15 12  1  0
 15 13  1  0
 15 14  2  0
 20 17  1  0
 20 18  1  0
 20 19  2  0
 16 21  1  0
 16 22  1  0
M  CHG  8   1  -1   2  -1   5   3   6   3   7   2   8  -1   9  -1  12  -1
M  CHG  3  13  -1  17  -1  18  -1
M  END
> <Uni-Dock RESULT> 
ENERGY=   -6.347  LOWER_BOUND=    7.273  UPPER_BOUND=    7.878
INTER + INTRA:          -6.347
INTER:                  -6.347
INTRA:                   0.000
UNBOUND:                 0.000

$$$$

     RDKit          3D

 22 14  0  0  0  0  0  0  0  0999 V2000
   43.7720    4.4844   13.2964 O   0  0  0  0  0  0  0  0  0  0  0  0
   44.2653    4.6167   10.3777 O   0  0  0  0  0  0  0  0  0  0  0  0
   43.0372    6.7353   11.7475 O   0  0  0  0  0  0  0  0  0  0  0  0
   43.3462    5.1845   11.7514 Si  0  0  0  0  0  4  0  0  0  0  0  0
   43.0133    4.9107   11.7521 Al  0  0  0  0  0 15  0  0  0  0  0  0
   43.0133    4.9107   11.7521 Al  0  0  0  0  0 15  0  0  0  0  0  0
   43.0133    4.9107   11.7521 Mg  0  0  0  0  0 15  0  0  0  0  0  0
   43.3321    4.0440   13.1726 O   0  0  0  0  0  0  0  0  0  0  0  0
   43.6564    4.4762   10.2696 O   0  0  0  0  0  0  0  0  0  0  0  0
   41.7108    5.8694   11.7466 O   0  0  0  0  0  0  0  0  0  0  0  0
   43.0924    5.1008   11.8012 Si  0  0  0  0  0  4  0  0  0  0  0  0
   43.2332    4.2467   13.3111 O   0  0  0  0  0  0  0  0  0  0  0  0
   43.5084    4.1282   10.3075 O   0  0  0  0  0  0  0  0  0  0  0  0
   42.1755    6.2560   11.6270 O   0  0  0  0  0  0  0  0  0  0  0  0
   43.1358    5.0117   11.7626 Si  0  0  0  0  0  4  0  0  0  0  0  0
   42.8272    5.2335   11.7253 O   0  0  0  0  0  0  0  0  0  0  0  0
   43.5132    4.1079   10.3399 O   0  0  0  0  0  0  0  0  0  0  0  0
   43.2421    4.2325   13.2970 O   0  0  0  0  0  0  0  0  0  0  0  0
   42.1629    6.2694   11.6123 O   0  0  0  0  0  0  0  0  0  0  0  0
   43.1348    5.0329   11.7591 Si  0  0  0  0  0  4  0  0  0  0  0  0
   43.1838    4.7137   10.9490 H   0  0  0  0  0  0  0  0  0  0  0  0
   43.0288    4.7848   12.5820 H   0  0  0  0  0  0  0  0  0  0  0  0
  4  1  1  0
  4  2  1  0
  4  3  2  0
 11  8  1  0
 11  9  1  0
 11 10  2  0
 15 12  1  0
 15 13  1  0
 15 14  2  0
 20 17  1  0
 20 18  1  0
 20 19  2  0
 16 21  1  0
 16 22  1  0
M  CHG  8   1  -1   2  -1   5   3   6   3   7   2   8  -1   9  -1  12  -1
M  CHG  3  13  -1  17  -1  18  -1
M  END
> <Uni-Dock RESULT> 
ENERGY=   -6.274  LOWER_BOUND=    6.537  UPPER_BOUND=    7.499
INTER + INTRA:          -6.274
INTER:                  -6.274
INTRA:                   0.000
UNBOUND:                 0.000

$$$$

     RDKit          3D

 22 14  0  0  0  0  0  0  0  0999 V2000
   43.7825    2.8054   11.9929 O   0  0  0  0  0  0  0  0  0  0  0  0
   44.0855    5.2963   10.4170 O   0  0  0  0  0  0  0  0  0  0  0  0
   44.0499    5.3396   13.2223 O   0  0  0  0  0  0  0  0  0  0  0  0
   43.6193    4.5453   11.9246 Si  0  0  0  0  0  4  0  0  0  0  0  0
   43.1992    4.4741   11.8596 Al  0  0  0  0  0 15  0  0  0  0  0  0
   43.1992    4.4741   11.8596 Al  0  0  0  0  0 15  0  0  0  0  0  0
   43.1992    4.4741   11.8596 Mg  0  0  0  0  0 15  0  0  0  0  0  0
   43.1832    2.7815   11.7851 O   0  0  0  0  0  0  0  0  0  0  0  0
   43.4737    5.4312   10.5148 O   0  0  0  0  0  0  0  0  0  0  0  0
   42.4780    5.1657   13.1314 O   0  0  0  0  0  0  0  0  0  0  0  0
   43.3592    4.5079   11.9941 Si  0  0  0  0  0  4  0  0  0  0  0  0
   43.1968    2.7759   12.0494 O   0  0  0  0  0  0  0  0  0  0  0  0
   43.1865    5.2598   10.3343 O   0  0  0  0  0  0  0  0  0  0  0  0
   43.0586    5.3695   13.1657 O   0  0  0  0  0  0  0  0  0  0  0  0
   43.3547    4.4912   11.8891 Si  0  0  0  0  0  4  0  0  0  0  0  0
   43.1789    4.6836   12.1684 O   0  0  0  0  0  0  0  0  0  0  0  0
   43.1837    5.2214   10.3332 O   0  0  0  0  0  0  0  0  0  0  0  0
   43.1973    2.7798   12.0279 O   0  0  0  0  0  0  0  0  0  0  0  0
   43.0525    5.3908   13.1738 O   0  0  0  0  0  0  0  0  0  0  0  0
   43.3631    4.5044   11.9038 Si  0  0  0  0  0  4  0  0  0  0  0  0
   43.2073    5.0425   11.2354 H   0  0  0  0  0  0  0  0  0  0  0  0
   43.2112    3.6962   12.1752 H   0  0  0  0  0  0  0  0  0  0  0  0
  4  1  1  0
  4  2  1  0
  4  3  2  0
 11  8  1  0
 11  9  1  0
 11 10  2  0
 15 12  1  0
 15 13  1  0
 15 14  2  0
 20 17  1  0
 20 18  1  0
 20 19  2  0
 16 21  1  0
 16 22  1  0
M  CHG  8   1  -1   2  -1   5   3   6   3   7   2   8  -1   9  -1  12  -1
M  CHG  3  13  -1  17  -1  18  -1
M  END
> <Uni-Dock RESULT> 
ENERGY=   -6.225  LOWER_BOUND=    6.405  UPPER_BOUND=    7.325
INTER + INTRA:          -6.225
INTER:                  -6.225
INTRA:                   0.000
UNBOUND:                 0.000

$$$$
