
     RDKit          3D

 22 14  0  0  0  0  0  0  0  0999 V2000
   46.7483    3.7279    7.2310 O   0  0  0  0  0  0  0  0  0  0  0  0
   48.1364    2.4388    4.9368 O   0  0  0  0  0  0  0  0  0  0  0  0
   47.3968    0.9489    7.2241 O   0  0  0  0  0  0  0  0  0  0  0  0
   47.6307    2.3805    6.5987 Si  0  0  0  0  0  4  0  0  0  0  0  0
   47.4780    2.3740    6.4977 Al  0  0  0  0  0 15  0  0  0  0  0  0
   47.4780    2.3740    6.4977 Al  0  0  0  0  0 15  0  0  0  0  0  0
   47.4780    2.3740    6.4977 Mg  0  0  0  0  0 15  0  0  0  0  0  0
   46.8304    3.7553    7.3130 O   0  0  0  0  0  0  0  0  0  0  0  0
   48.1515    2.4451    4.9240 O   0  0  0  0  0  0  0  0  0  0  0  0
   47.4572    0.9451    7.2331 O   0  0  0  0  0  0  0  0  0  0  0  0
   47.4729    2.3506    6.5206 Si  0  0  0  0  0  4  0  0  0  0  0  0
   48.1849    2.3197    4.9481 O   0  0  0  0  0  0  0  0  0  0  0  0
   46.8930    3.8338    7.1777 O   0  0  0  0  0  0  0  0  0  0  0  0
   47.4063    1.0185    7.3631 O   0  0  0  0  0  0  0  0  0  0  0  0
   47.4280    2.3242    6.5018 Si  0  0  0  0  0  4  0  0  0  0  0  0
   47.4544    2.0430    6.7117 O   0  0  0  0  0  0  0  0  0  0  0  0
   48.1618    2.3527    4.9430 O   0  0  0  0  0  0  0  0  0  0  0  0
   46.7723    3.7840    7.1598 O   0  0  0  0  0  0  0  0  0  0  0  0
   47.3598    0.9865    7.2968 O   0  0  0  0  0  0  0  0  0  0  0  0
   47.6181    2.3729    6.5910 Si  0  0  0  0  0  4  0  0  0  0  0  0
   47.1222    2.9513    6.9664 H   0  0  0  0  0  0  0  0  0  0  0  0
   47.8576    2.1278    5.8148 H   0  0  0  0  0  0  0  0  0  0  0  0
  4  1  1  0
  4  2  1  0
  4  3  2  0
 11  8  1  0
 11  9  1  0
 11 10  2  0
 15 12  1  0
 15 13  1  0
 15 14  2  0
 20 17  1  0
 20 18  1  0
 20 19  2  0
 16 21  1  0
 16 22  1  0
M  CHG  8   1  -1   2  -1   5   3   6   3   7   2   8  -1   9  -1  12  -1
M  CHG  3  13  -1  17  -1  18  -1
M  END
> <Uni-Dock RESULT> 
ENERGY=   -9.314  LOWER_BOUND=    0.000  UPPER_BOUND=    0.000
INTER + INTRA:          -9.314
INTER:                  -9.314
INTRA:                   0.000
UNBOUND:                 0.000

$$$$

     RDKit          3D

 22 14  0  0  0  0  0  0  0  0999 V2000
   47.3971    0.9656    7.4539 O   0  0  0  0  0  0  0  0  0  0  0  0
   48.1843    2.4043    4.9715 O   0  0  0  0  0  0  0  0  0  0  0  0
   47.1138    3.7929    7.1906 O   0  0  0  0  0  0  0  0  0  0  0  0
   47.3273    2.3965    6.4836 Si  0  0  0  0  0  4  0  0  0  0  0  0
   47.5056    2.3898    6.5249 Al  0  0  0  0  0 15  0  0  0  0  0  0
   47.5056    2.3898    6.5249 Al  0  0  0  0  0 15  0  0  0  0  0  0
   47.5056    2.3898    6.5249 Mg  0  0  0  0  0 15  0  0  0  0  0  0
   47.2798    0.9450    7.4489 O   0  0  0  0  0  0  0  0  0  0  0  0
   48.1829    2.3997    4.9513 O   0  0  0  0  0  0  0  0  0  0  0  0
   47.0661    3.8023    7.1535 O   0  0  0  0  0  0  0  0  0  0  0  0
   47.4938    2.4124    6.5461 Si  0  0  0  0  0  4  0  0  0  0  0  0
   48.1496    2.5273    4.9532 O   0  0  0  0  0  0  0  0  0  0  0  0
   47.3308    0.8743    7.3047 O   0  0  0  0  0  0  0  0  0  0  0  0
   47.0024    3.7230    7.2741 O   0  0  0  0  0  0  0  0  0  0  0  0
   47.5398    2.4347    6.5677 Si  0  0  0  0  0  4  0  0  0  0  0  0
   47.3850    2.7148    6.7141 O   0  0  0  0  0  0  0  0  0  0  0  0
   48.1672    2.4924    4.9639 O   0  0  0  0  0  0  0  0  0  0  0  0
   47.4292    0.9127    7.3833 O   0  0  0  0  0  0  0  0  0  0  0  0
   47.0843    3.7512    7.2645 O   0  0  0  0  0  0  0  0  0  0  0  0
   47.3419    2.4030    6.4880 Si  0  0  0  0  0  4  0  0  0  0  0  0
   47.3767    1.7766    7.0606 H   0  0  0  0  0  0  0  0  0  0  0  0
   47.7553    2.6781    5.7999 H   0  0  0  0  0  0  0  0  0  0  0  0
  4  1  1  0
  4  2  1  0
  4  3  2  0
 11  8  1  0
 11  9  1  0
 11 10  2  0
 15 12  1  0
 15 13  1  0
 15 14  2  0
 20 17  1  0
 20 18  1  0
 20 19  2  0
 16 21  1  0
 16 22  1  0
M  CHG  8   1  -1   2  -1   5   3   6   3   7   2   8  -1   9  -1  12  -1
M  CHG  3  13  -1  17  -1  18  -1
M  END
> <Uni-Dock RESULT> 
ENERGY=   -9.269  LOWER_BOUND=    0.198  UPPER_BOUND=    1.822
INTER + INTRA:          -9.269
INTER:                  -9.269
INTRA:                   0.000
UNBOUND:                 0.000

$$$$

     RDKit          3D

 22 14  0  0  0  0  0  0  0  0999 V2000
   48.0811    2.4408    4.9382 O   0  0  0  0  0  0  0  0  0  0  0  0
   47.2984    0.8080    7.2990 O   0  0  0  0  0  0  0  0  0  0  0  0
   46.8967    3.6072    7.2576 O   0  0  0  0  0  0  0  0  0  0  0  0
   47.6282    2.3677    6.6065 Si  0  0  0  0  0  4  0  0  0  0  0  0
   47.4761    2.3059    6.5253 Al  0  0  0  0  0 15  0  0  0  0  0  0
   47.4761    2.3059    6.5253 Al  0  0  0  0  0 15  0  0  0  0  0  0
   47.4761    2.3059    6.5253 Mg  0  0  0  0  0 15  0  0  0  0  0  0
   48.1887    2.4872    4.9596 O   0  0  0  0  0  0  0  0  0  0  0  0
   47.3070    0.7915    7.3084 O   0  0  0  0  0  0  0  0  0  0  0  0
   46.9398    3.6074    7.3010 O   0  0  0  0  0  0  0  0  0  0  0  0
   47.4686    2.3375    6.5322 Si  0  0  0  0  0  4  0  0  0  0  0  0
   47.2669    0.8649    7.4105 O   0  0  0  0  0  0  0  0  0  0  0  0
   48.2197    2.3232    4.9819 O   0  0  0  0  0  0  0  0  0  0  0  0
   47.0035    3.6955    7.1867 O   0  0  0  0  0  0  0  0  0  0  0  0
   47.4142    2.3401    6.5222 Si  0  0  0  0  0  4  0  0  0  0  0  0
   47.3576    2.6486    6.6819 O   0  0  0  0  0  0  0  0  0  0  0  0
   47.2682    0.8490    7.3732 O   0  0  0  0  0  0  0  0  0  0  0  0
   48.0999    2.3490    4.9336 O   0  0  0  0  0  0  0  0  0  0  0  0
   46.9243    3.6593    7.1899 O   0  0  0  0  0  0  0  0  0  0  0  0
   47.6118    2.3664    6.6044 Si  0  0  0  0  0  4  0  0  0  0  0  0
   47.7701    2.5069    5.7818 H   0  0  0  0  0  0  0  0  0  0  0  0
   47.3005    1.7621    7.1123 H   0  0  0  0  0  0  0  0  0  0  0  0
  4  1  1  0
  4  2  1  0
  4  3  2  0
 11  8  1  0
 11  9  1  0
 11 10  2  0
 15 12  1  0
 15 13  1  0
 15 14  2  0
 20 17  1  0
 20 18  1  0
 20 19  2  0
 16 21  1  0
 16 22  1  0
M  CHG  8   1  -1   2  -1   5   3   6   3   7   2   8  -1   9  -1  12  -1
M  CHG  3  13  -1  17  -1  18  -1
M  END
> <Uni-Dock RESULT> 
ENERGY=   -9.202  LOWER_BOUND=    0.188  UPPER_BOUND=    2.249
INTER + INTRA:          -9.202
INTER:                  -9.202
INTRA:                   0.000
UNBOUND:                 0.000

$$$$

     RDKit          3D

 22 14  0  0  0  0  0  0  0  0999 V2000
   45.1556    1.8467    9.0412 O   0  0  0  0  0  0  0  0  0  0  0  0
   46.3887    4.0652    7.4890 O   0  0  0  0  0  0  0  0  0  0  0  0
   44.0332    4.4700    9.0011 O   0  0  0  0  0  0  0  0  0  0  0  0
   45.0178    3.4241    8.3438 Si  0  0  0  0  0  4  0  0  0  0  0  0
   45.1488    3.4515    8.4688 Al  0  0  0  0  0 15  0  0  0  0  0  0
   45.1488    3.4515    8.4688 Al  0  0  0  0  0 15  0  0  0  0  0  0
   45.1488    3.4515    8.4688 Mg  0  0  0  0  0 15  0  0  0  0  0  0
   45.0685    1.7994    8.9750 O   0  0  0  0  0  0  0  0  0  0  0  0
   46.3981    4.0662    7.4705 O   0  0  0  0  0  0  0  0  0  0  0  0
   44.0070    4.4769    8.9463 O   0  0  0  0  0  0  0  0  0  0  0  0
   45.1217    3.4636    8.4835 Si  0  0  0  0  0  4  0  0  0  0  0  0
   46.3244    4.1756    7.4701 O   0  0  0  0  0  0  0  0  0  0  0  0
   45.1993    1.7865    8.8696 O   0  0  0  0  0  0  0  0  0  0  0  0
   43.9295    4.3540    9.0077 O   0  0  0  0  0  0  0  0  0  0  0  0
   45.1421    3.4899    8.5278 Si  0  0  0  0  0  4  0  0  0  0  0  0
   44.8503    3.6702    8.6068 O   0  0  0  0  0  0  0  0  0  0  0  0
   46.3466    4.1447    7.4841 O   0  0  0  0  0  0  0  0  0  0  0  0
   45.2320    1.8252    8.9911 O   0  0  0  0  0  0  0  0  0  0  0  0
   43.9911    4.4035    9.0444 O   0  0  0  0  0  0  0  0  0  0  0  0
   45.0256    3.4326    8.3557 Si  0  0  0  0  0  4  0  0  0  0  0  0
   45.0241    2.7023    8.7893 H   0  0  0  0  0  0  0  0  0  0  0  0
   45.5721    3.9821    8.0101 H   0  0  0  0  0  0  0  0  0  0  0  0
  4  1  1  0
  4  2  1  0
  4  3  2  0
 11  8  1  0
 11  9  1  0
 11 10  2  0
 15 12  1  0
 15 13  1  0
 15 14  2  0
 20 17  1  0
 20 18  1  0
 20 19  2  0
 16 21  1  0
 16 22  1  0
M  CHG  8   1  -1   2  -1   5   3   6   3   7   2   8  -1   9  -1  12  -1
M  CHG  3  13  -1  17  -1  18  -1
M  END
> <Uni-Dock RESULT> 
ENERGY=   -7.336  LOWER_BOUND=    2.854  UPPER_BOUND=    3.762
INTER + INTRA:          -7.336
INTER:                  -7.336
INTRA:                   0.000
UNBOUND:                 0.000

$$$$

     RDKit          3D

 22 14  0  0  0  0  0  0  0  0999 V2000
   46.0440    3.9172    7.2182 O   0  0  0  0  0  0  0  0  0  0  0  0
   44.8929    1.7712    8.9274 O   0  0  0  0  0  0  0  0  0  0  0  0
   43.9247    4.4252    9.0603 O   0  0  0  0  0  0  0  0  0  0  0  0
   45.0852    3.4645    8.5855 Si  0  0  0  0  0  4  0  0  0  0  0  0
   44.9867    3.3945    8.4478 Al  0  0  0  0  0 15  0  0  0  0  0  0
   44.9867    3.3945    8.4478 Al  0  0  0  0  0 15  0  0  0  0  0  0
   44.9867    3.3945    8.4478 Mg  0  0  0  0  0 15  0  0  0  0  0  0
   46.1253    3.9760    7.2826 O   0  0  0  0  0  0  0  0  0  0  0  0
   44.9011    1.7550    8.9374 O   0  0  0  0  0  0  0  0  0  0  0  0
   43.9496    4.4246    9.1162 O   0  0  0  0  0  0  0  0  0  0  0  0
   44.9706    3.4226    8.4551 Si  0  0  0  0  0  4  0  0  0  0  0  0
   44.8140    1.8007    9.0253 O   0  0  0  0  0  0  0  0  0  0  0  0
   46.1822    3.8180    7.2959 O   0  0  0  0  0  0  0  0  0  0  0  0
   44.0270    4.5415    9.0439 O   0  0  0  0  0  0  0  0  0  0  0  0
   44.9235    3.4180    8.4262 Si  0  0  0  0  0  4  0  0  0  0  0  0
   44.7504    3.6782    8.5881 O   0  0  0  0  0  0  0  0  0  0  0  0
   44.8312    1.7923    8.9895 O   0  0  0  0  0  0  0  0  0  0  0  0
   46.0830    3.8322    7.2104 O   0  0  0  0  0  0  0  0  0  0  0  0
   43.9613    4.4928    9.0138 O   0  0  0  0  0  0  0  0  0  0  0  0
   45.0712    3.4609    8.5774 Si  0  0  0  0  0  4  0  0  0  0  0  0
   45.4615    3.7747    7.8914 H   0  0  0  0  0  0  0  0  0  0  0  0
   44.7481    2.7306    8.8641 H   0  0  0  0  0  0  0  0  0  0  0  0
  4  1  1  0
  4  2  1  0
  4  3  2  0
 11  8  1  0
 11  9  1  0
 11 10  2  0
 15 12  1  0
 15 13  1  0
 15 14  2  0
 20 17  1  0
 20 18  1  0
 20 19  2  0
 16 21  1  0
 16 22  1  0
M  CHG  8   1  -1   2  -1   5   3   6   3   7   2   8  -1   9  -1  12  -1
M  CHG  3  13  -1  17  -1  18  -1
M  END
> <Uni-Dock RESULT> 
ENERGY=   -7.286  LOWER_BOUND=    2.919  UPPER_BOUND=    3.958
INTER + INTRA:          -7.286
INTER:                  -7.286
INTRA:                   0.000
UNBOUND:                 0.000

$$$$

     RDKit          3D

 22 14  0  0  0  0  0  0  0  0999 V2000
   43.9937    4.5697    9.3065 O   0  0  0  0  0  0  0  0  0  0  0  0
   45.0963    1.8217    9.0159 O   0  0  0  0  0  0  0  0  0  0  0  0
   46.1264    3.9791    7.5049 O   0  0  0  0  0  0  0  0  0  0  0  0
   44.9432    3.4407    8.4023 Si  0  0  0  0  0  4  0  0  0  0  0  0
   45.0399    3.4528    8.5574 Al  0  0  0  0  0 15  0  0  0  0  0  0
   45.0399    3.4528    8.5574 Al  0  0  0  0  0 15  0  0  0  0  0  0
   45.0399    3.4528    8.5574 Mg  0  0  0  0  0 15  0  0  0  0  0  0
   43.9139    4.5868    9.2196 O   0  0  0  0  0  0  0  0  0  0  0  0
   45.0877    1.8028    9.0160 O   0  0  0  0  0  0  0  0  0  0  0  0
   46.1015    3.9492    7.4575 O   0  0  0  0  0  0  0  0  0  0  0  0
   45.0566    3.4724    8.5365 Si  0  0  0  0  0  4  0  0  0  0  0  0
   45.1759    1.7930    8.9184 O   0  0  0  0  0  0  0  0  0  0  0  0
   43.8533    4.4470    9.2916 O   0  0  0  0  0  0  0  0  0  0  0  0
   46.0268    4.0882    7.4556 O   0  0  0  0  0  0  0  0  0  0  0  0
   45.1035    3.4830    8.5641 Si  0  0  0  0  0  4  0  0  0  0  0  0
   45.2829    3.6138    8.2909 O   0  0  0  0  0  0  0  0  0  0  0  0
   45.1585    1.8053    8.9530 O   0  0  0  0  0  0  0  0  0  0  0  0
   43.9527    4.5026    9.3577 O   0  0  0  0  0  0  0  0  0  0  0  0
   46.0913    4.0617    7.5078 O   0  0  0  0  0  0  0  0  0  0  0  0
   44.9571    3.4417    8.4113 Si  0  0  0  0  0  4  0  0  0  0  0  0
   44.5735    4.0798    8.8201 H   0  0  0  0  0  0  0  0  0  0  0  0
   45.2634    2.6647    8.5613 H   0  0  0  0  0  0  0  0  0  0  0  0
  4  1  1  0
  4  2  1  0
  4  3  2  0
 11  8  1  0
 11  9  1  0
 11 10  2  0
 15 12  1  0
 15 13  1  0
 15 14  2  0
 20 17  1  0
 20 18  1  0
 20 19  2  0
 16 21  1  0
 16 22  1  0
M  CHG  8   1  -1   2  -1   5   3   6   3   7   2   8  -1   9  -1  12  -1
M  CHG  3  13  -1  17  -1  18  -1
M  END
> <Uni-Dock RESULT> 
ENERGY=   -7.160  LOWER_BOUND=    2.940  UPPER_BOUND=    3.804
INTER + INTRA:          -7.160
INTER:                  -7.160
INTRA:                   0.000
UNBOUND:                 0.000

$$$$

     RDKit          3D

 22 14  0  0  0  0  0  0  0  0999 V2000
   42.7607    6.9034   11.1907 O   0  0  0  0  0  0  0  0  0  0  0  0
   43.2177    3.9839   10.8453 O   0  0  0  0  0  0  0  0  0  0  0  0
   42.7241    5.0958   13.3985 O   0  0  0  0  0  0  0  0  0  0  0  0
   43.1270    5.3661   11.8952 Si  0  0  0  0  0  4  0  0  0  0  0  0
   42.9573    5.3373   11.8324 Al  0  0  0  0  0 15  0  0  0  0  0  0
   42.9573    5.3373   11.8324 Al  0  0  0  0  0 15  0  0  0  0  0  0
   42.9573    5.3373   11.8324 Mg  0  0  0  0  0 15  0  0  0  0  0  0
   42.8641    6.9533   11.2226 O   0  0  0  0  0  0  0  0  0  0  0  0
   43.2303    3.9727   10.8331 O   0  0  0  0  0  0  0  0  0  0  0  0
   42.7822    5.0802   13.4093 O   0  0  0  0  0  0  0  0  0  0  0  0
   42.9526    5.3428   11.8648 Si  0  0  0  0  0  4  0  0  0  0  0  0
   43.2384    3.9082   10.9479 O   0  0  0  0  0  0  0  0  0  0  0  0
   42.9087    6.8757   11.0799 O   0  0  0  0  0  0  0  0  0  0  0  0
   42.7826    5.2367   13.4296 O   0  0  0  0  0  0  0  0  0  0  0  0
   42.8995    5.3286   11.8723 Si  0  0  0  0  0  4  0  0  0  0  0  0
   42.9095    5.3167   12.2239 O   0  0  0  0  0  0  0  0  0  0  0  0
   43.2232    3.9309   10.9179 O   0  0  0  0  0  0  0  0  0  0  0  0
   42.7792    6.8740   11.1035 O   0  0  0  0  0  0  0  0  0  0  0  0
   42.7153    5.1841   13.4122 O   0  0  0  0  0  0  0  0  0  0  0  0
   43.1115    5.3602   11.8960 Si  0  0  0  0  0  4  0  0  0  0  0  0
   42.8688    6.1371   11.6532 H   0  0  0  0  0  0  0  0  0  0  0  0
   43.0937    4.5579   11.6201 H   0  0  0  0  0  0  0  0  0  0  0  0
  4  1  1  0
  4  2  1  0
  4  3  2  0
 11  8  1  0
 11  9  1  0
 11 10  2  0
 15 12  1  0
 15 13  1  0
 15 14  2  0
 20 17  1  0
 20 18  1  0
 20 19  2  0
 16 21  1  0
 16 22  1  0
M  CHG  8   1  -1   2  -1   5   3   6   3   7   2   8  -1   9  -1  12  -1
M  CHG  3  13  -1  17  -1  18  -1
M  END
> <Uni-Dock RESULT> 
ENERGY=   -7.149  LOWER_BOUND=    6.877  UPPER_BOUND=    7.699
INTER + INTRA:          -7.149
INTER:                  -7.149
INTRA:                   0.000
UNBOUND:                 0.000

$$$$

     RDKit          3D

 22 14  0  0  0  0  0  0  0  0999 V2000
   43.4092    4.0480   10.8540 O   0  0  0  0  0  0  0  0  0  0  0  0
   42.9440    6.9752   11.1126 O   0  0  0  0  0  0  0  0  0  0  0  0
   42.8096    5.2676   13.3632 O   0  0  0  0  0  0  0  0  0  0  0  0
   42.8158    5.3785   11.7874 Si  0  0  0  0  0  4  0  0  0  0  0  0
   42.9947    5.4173   11.7793 Al  0  0  0  0  0 15  0  0  0  0  0  0
   42.9947    5.4173   11.7793 Al  0  0  0  0  0 15  0  0  0  0  0  0
   42.9947    5.4173   11.7793 Mg  0  0  0  0  0 15  0  0  0  0  0  0
   43.3031    3.9944   10.8452 O   0  0  0  0  0  0  0  0  0  0  0  0
   42.9345    6.9892   11.1006 O   0  0  0  0  0  0  0  0  0  0  0  0
   42.7500    5.2816   13.3620 O   0  0  0  0  0  0  0  0  0  0  0  0
   42.9912    5.4040   11.8095 Si  0  0  0  0  0  4  0  0  0  0  0  0
   42.8948    7.0243   11.2214 O   0  0  0  0  0  0  0  0  0  0  0  0
   43.2935    4.1053   10.7187 O   0  0  0  0  0  0  0  0  0  0  0  0
   42.7505    5.1249   13.3435 O   0  0  0  0  0  0  0  0  0  0  0  0
   43.0399    5.4147   11.8336 Si  0  0  0  0  0  4  0  0  0  0  0  0
   42.9398    5.3415   12.1630 O   0  0  0  0  0  0  0  0  0  0  0  0
   42.9181    7.0091   11.1919 O   0  0  0  0  0  0  0  0  0  0  0  0
   43.4125    4.0980   10.7747 O   0  0  0  0  0  0  0  0  0  0  0  0
   42.8179    5.1784   13.3571 O   0  0  0  0  0  0  0  0  0  0  0  0
   42.8303    5.3837   11.7936 Si  0  0  0  0  0  4  0  0  0  0  0  0
   43.1568    4.6825   11.4427 H   0  0  0  0  0  0  0  0  0  0  0  0
   42.8874    6.2281   11.7323 H   0  0  0  0  0  0  0  0  0  0  0  0
  4  1  1  0
  4  2  1  0
  4  3  2  0
 11  8  1  0
 11  9  1  0
 11 10  2  0
 15 12  1  0
 15 13  1  0
 15 14  2  0
 20 17  1  0
 20 18  1  0
 20 19  2  0
 16 21  1  0
 16 22  1  0
M  CHG  8   1  -1   2  -1   5   3   6   3   7   2   8  -1   9  -1  12  -1
M  CHG  3  13  -1  17  -1  18  -1
M  END
> <Uni-Dock RESULT> 
ENERGY=   -7.094  LOWER_BOUND=    6.803  UPPER_BOUND=    7.808
INTER + INTRA:          -7.094
INTER:                  -7.094
INTRA:                   0.000
UNBOUND:                 0.000

$$$$

     RDKit          3D

 22 14  0  0  0  0  0  0  0  0999 V2000
   44.4595    5.8016   13.1053 O   0  0  0  0  0  0  0  0  0  0  0  0
   43.1665    3.4759   11.7745 O   0  0  0  0  0  0  0  0  0  0  0  0
   42.0003    6.0507   11.6793 O   0  0  0  0  0  0  0  0  0  0  0  0
   43.0548    5.1029   12.3758 Si  0  0  0  0  0  4  0  0  0  0  0  0
   43.1703    5.1078   12.2337 Al  0  0  0  0  0 15  0  0  0  0  0  0
   43.1703    5.1078   12.2337 Al  0  0  0  0  0 15  0  0  0  0  0  0
   43.1703    5.1078   12.2337 Mg  0  0  0  0  0 15  0  0  0  0  0  0
   44.4086    5.8159   13.2121 O   0  0  0  0  0  0  0  0  0  0  0  0
   43.1646    3.4558   11.7796 O   0  0  0  0  0  0  0  0  0  0  0  0
   41.9571    6.0253   11.7144 O   0  0  0  0  0  0  0  0  0  0  0  0
   43.1509    5.1342   12.2285 Si  0  0  0  0  0  4  0  0  0  0  0  0
   43.0453    3.4844   11.7309 O   0  0  0  0  0  0  0  0  0  0  0  0
   44.4585    5.6553   13.2217 O   0  0  0  0  0  0  0  0  0  0  0  0
   42.0131    6.1416   11.8051 O   0  0  0  0  0  0  0  0  0  0  0  0
   43.1643    5.1498   12.1771 Si  0  0  0  0  0  4  0  0  0  0  0  0
   42.8909    5.3658   12.1272 O   0  0  0  0  0  0  0  0  0  0  0  0
   43.0854    3.4859   11.7367 O   0  0  0  0  0  0  0  0  0  0  0  0
   44.5024    5.7188   13.1150 O   0  0  0  0  0  0  0  0  0  0  0  0
   42.0345    6.1212   11.7231 O   0  0  0  0  0  0  0  0  0  0  0  0
   43.0589    5.1053   12.3599 Si  0  0  0  0  0  4  0  0  0  0  0  0
   43.7118    5.5537   12.6668 H   0  0  0  0  0  0  0  0  0  0  0  0
   42.9081    4.4038   11.9071 H   0  0  0  0  0  0  0  0  0  0  0  0
  4  1  1  0
  4  2  1  0
  4  3  2  0
 11  8  1  0
 11  9  1  0
 11 10  2  0
 15 12  1  0
 15 13  1  0
 15 14  2  0
 20 17  1  0
 20 18  1  0
 20 19  2  0
 16 21  1  0
 16 22  1  0
M  CHG  8   1  -1   2  -1   5   3   6   3   7   2   8  -1   9  -1  12  -1
M  CHG  3  13  -1  17  -1  18  -1
M  END
> <Uni-Dock RESULT> 
ENERGY=   -7.077  LOWER_BOUND=    7.289  UPPER_BOUND=    7.908
INTER + INTRA:          -7.077
INTER:                  -7.077
INTRA:                   0.000
UNBOUND:                 0.000

$$$$
