
     RDKit          3D

 22 14  0  0  0  0  0  0  0  0999 V2000
   46.9151    3.8622    7.0512 O   0  0  0  0  0  0  0  0  0  0  0  0
   47.3420    0.9032    7.4333 O   0  0  0  0  0  0  0  0  0  0  0  0
   48.2202    2.2811    5.0720 O   0  0  0  0  0  0  0  0  0  0  0  0
   47.4669    2.3282    6.4391 Si  0  0  0  0  0  4  0  0  0  0  0  0
   47.4860    2.3436    6.4989 Al  0  0  0  0  0 15  0  0  0  0  0  0
   47.4860    2.3436    6.4989 Al  0  0  0  0  0 15  0  0  0  0  0  0
   47.4860    2.3436    6.4989 Mg  0  0  0  0  0 15  0  0  0  0  0  0
   46.9194    3.8772    7.0154 O   0  0  0  0  0  0  0  0  0  0  0  0
   47.2478    0.9118    7.4172 O   0  0  0  0  0  0  0  0  0  0  0  0
   48.1772    2.2358    5.0564 O   0  0  0  0  0  0  0  0  0  0  0  0
   47.5997    2.3498    6.5066 Si  0  0  0  0  0  4  0  0  0  0  0  0
   47.3296    0.7963    7.2255 O   0  0  0  0  0  0  0  0  0  0  0  0
   46.8339    3.7414    7.2082 O   0  0  0  0  0  0  0  0  0  0  0  0
   48.1224    2.4751    5.0314 O   0  0  0  0  0  0  0  0  0  0  0  0
   47.6583    2.3619    6.5306 Si  0  0  0  0  0  4  0  0  0  0  0  0
   47.6557    2.3203    6.1648 O   0  0  0  0  0  0  0  0  0  0  0  0
   46.8709    3.8080    7.1133 O   0  0  0  0  0  0  0  0  0  0  0  0
   47.3071    0.8586    7.3485 O   0  0  0  0  0  0  0  0  0  0  0  0
   48.1657    2.3528    5.0357 O   0  0  0  0  0  0  0  0  0  0  0  0
   47.6004    2.3551    6.4981 Si  0  0  0  0  0  4  0  0  0  0  0  0
   47.3201    3.1571    6.5499 H   0  0  0  0  0  0  0  0  0  0  0  0
   47.4823    1.5535    6.7821 H   0  0  0  0  0  0  0  0  0  0  0  0
  4  1  1  0
  4  2  1  0
  4  3  2  0
 11  8  1  0
 11  9  1  0
 11 10  2  0
 15 12  1  0
 15 13  1  0
 15 14  2  0
 20 17  1  0
 20 18  1  0
 20 19  2  0
 16 21  1  0
 16 22  1  0
M  CHG  8   1  -1   2  -1   5   3   6   3   7   2   8  -1   9  -1  12  -1
M  CHG  3  13  -1  17  -1  18  -1
M  END
> <Uni-Dock RESULT> 
ENERGY=   -9.529  LOWER_BOUND=    0.000  UPPER_BOUND=    0.000
INTER + INTRA:          -9.529
INTER:                  -9.529
INTRA:                   0.000
UNBOUND:                 0.000

$$$$

     RDKit          3D

 22 14  0  0  0  0  0  0  0  0999 V2000
   48.1857    2.3287    4.9439 O   0  0  0  0  0  0  0  0  0  0  0  0
   46.8809    3.8254    7.2113 O   0  0  0  0  0  0  0  0  0  0  0  0
   47.4114    1.0066    7.3466 O   0  0  0  0  0  0  0  0  0  0  0  0
   47.4317    2.3273    6.5136 Si  0  0  0  0  0  4  0  0  0  0  0  0
   47.4774    2.3720    6.5039 Al  0  0  0  0  0 15  0  0  0  0  0  0
   47.4774    2.3720    6.5039 Al  0  0  0  0  0 15  0  0  0  0  0  0
   47.4774    2.3720    6.5039 Mg  0  0  0  0  0 15  0  0  0  0  0  0
   48.1839    2.2897    4.9438 O   0  0  0  0  0  0  0  0  0  0  0  0
   46.8132    3.8211    7.1436 O   0  0  0  0  0  0  0  0  0  0  0  0
   47.3481    1.0174    7.3515 O   0  0  0  0  0  0  0  0  0  0  0  0
   47.5645    2.3599    6.5766 Si  0  0  0  0  0  4  0  0  0  0  0  0
   46.7289    3.6841    7.3194 O   0  0  0  0  0  0  0  0  0  0  0  0
   48.1170    2.5314    4.9393 O   0  0  0  0  0  0  0  0  0  0  0  0
   47.4416    0.9046    7.1529 O   0  0  0  0  0  0  0  0  0  0  0  0
   47.6223    2.3680    6.6038 Si  0  0  0  0  0  4  0  0  0  0  0  0
   47.4552    2.0562    6.7057 O   0  0  0  0  0  0  0  0  0  0  0  0
   48.1462    2.4133    4.9382 O   0  0  0  0  0  0  0  0  0  0  0  0
   46.7972    3.7724    7.2355 O   0  0  0  0  0  0  0  0  0  0  0  0
   47.4014    0.9524    7.2666 O   0  0  0  0  0  0  0  0  0  0  0  0
   47.5649    2.3500    6.5752 Si  0  0  0  0  0  4  0  0  0  0  0  0
   47.8617    2.1080    5.8150 H   0  0  0  0  0  0  0  0  0  0  0  0
   47.1154    2.9519    6.9909 H   0  0  0  0  0  0  0  0  0  0  0  0
  4  1  1  0
  4  2  1  0
  4  3  2  0
 11  8  1  0
 11  9  1  0
 11 10  2  0
 15 12  1  0
 15 13  1  0
 15 14  2  0
 20 17  1  0
 20 18  1  0
 20 19  2  0
 16 21  1  0
 16 22  1  0
M  CHG  8   1  -1   2  -1   5   3   6   3   7   2   8  -1   9  -1  12  -1
M  CHG  3  13  -1  17  -1  18  -1
M  END
> <Uni-Dock RESULT> 
ENERGY=   -9.318  LOWER_BOUND=    0.180  UPPER_BOUND=    2.221
INTER + INTRA:          -9.318
INTER:                  -9.318
INTRA:                   0.000
UNBOUND:                 0.000

$$$$

     RDKit          3D

 22 14  0  0  0  0  0  0  0  0999 V2000
   45.0307    1.7816    8.9132 O   0  0  0  0  0  0  0  0  0  0  0  0
   43.8720    4.5254    9.3746 O   0  0  0  0  0  0  0  0  0  0  0  0
   46.0248    4.0666    7.5307 O   0  0  0  0  0  0  0  0  0  0  0  0
   45.0527    3.4966    8.6117 Si  0  0  0  0  0  4  0  0  0  0  0  0
   44.9950    3.4676    8.6076 Al  0  0  0  0  0 15  0  0  0  0  0  0
   44.9950    3.4676    8.6076 Al  0  0  0  0  0 15  0  0  0  0  0  0
   44.9950    3.4676    8.6076 Mg  0  0  0  0  0 15  0  0  0  0  0  0
   45.0652    1.7787    8.8951 O   0  0  0  0  0  0  0  0  0  0  0  0
   43.9212    4.5066    9.4547 O   0  0  0  0  0  0  0  0  0  0  0  0
   46.0438    4.1068    7.5773 O   0  0  0  0  0  0  0  0  0  0  0  0
   44.9498    3.4782    8.5033 Si  0  0  0  0  0  4  0  0  0  0  0  0
   44.0415    4.6852    9.3525 O   0  0  0  0  0  0  0  0  0  0  0  0
   44.8890    1.8359    9.0642 O   0  0  0  0  0  0  0  0  0  0  0  0
   46.1392    3.8798    7.5603 O   0  0  0  0  0  0  0  0  0  0  0  0
   44.9104    3.4693    8.4532 Si  0  0  0  0  0  4  0  0  0  0  0  0
   45.2350    3.6157    8.3597 O   0  0  0  0  0  0  0  0  0  0  0  0
   44.9774    1.8071    8.9858 O   0  0  0  0  0  0  0  0  0  0  0  0
   43.9513    4.5866    9.3933 O   0  0  0  0  0  0  0  0  0  0  0  0
   46.0929    4.0007    7.5524 O   0  0  0  0  0  0  0  0  0  0  0  0
   44.9585    3.4758    8.4989 Si  0  0  0  0  0  4  0  0  0  0  0  0
   45.1885    2.6594    8.5710 H   0  0  0  0  0  0  0  0  0  0  0  0
   44.5616    4.1276    8.8921 H   0  0  0  0  0  0  0  0  0  0  0  0
  4  1  1  0
  4  2  1  0
  4  3  2  0
 11  8  1  0
 11  9  1  0
 11 10  2  0
 15 12  1  0
 15 13  1  0
 15 14  2  0
 20 17  1  0
 20 18  1  0
 20 19  2  0
 16 21  1  0
 16 22  1  0
M  CHG  8   1  -1   2  -1   5   3   6   3   7   2   8  -1   9  -1  12  -1
M  CHG  3  13  -1  17  -1  18  -1
M  END
> <Uni-Dock RESULT> 
ENERGY=   -7.160  LOWER_BOUND=    2.990  UPPER_BOUND=    3.954
INTER + INTRA:          -7.160
INTER:                  -7.160
INTRA:                   0.000
UNBOUND:                 0.000

$$$$

     RDKit          3D

 22 14  0  0  0  0  0  0  0  0999 V2000
   44.3285    5.7314   13.2032 O   0  0  0  0  0  0  0  0  0  0  0  0
   43.1233    3.4574   11.6346 O   0  0  0  0  0  0  0  0  0  0  0  0
   41.9550    6.0803   11.6651 O   0  0  0  0  0  0  0  0  0  0  0  0
   43.0549    5.1058   12.1936 Si  0  0  0  0  0  4  0  0  0  0  0  0
   43.1154    5.0937   12.1741 Al  0  0  0  0  0 15  0  0  0  0  0  0
   43.1154    5.0937   12.1741 Al  0  0  0  0  0 15  0  0  0  0  0  0
   43.1154    5.0937   12.1741 Mg  0  0  0  0  0 15  0  0  0  0  0  0
   44.3067    5.7632   13.2097 O   0  0  0  0  0  0  0  0  0  0  0  0
   43.1048    3.4355   11.7262 O   0  0  0  0  0  0  0  0  0  0  0  0
   41.9135    6.0373   11.6893 O   0  0  0  0  0  0  0  0  0  0  0  0
   43.1366    5.1387   12.0714 Si  0  0  0  0  0  4  0  0  0  0  0  0
   42.8904    3.4804   11.6324 O   0  0  0  0  0  0  0  0  0  0  0  0
   44.3884    5.5259   13.2109 O   0  0  0  0  0  0  0  0  0  0  0  0
   42.0139    6.2103   11.8339 O   0  0  0  0  0  0  0  0  0  0  0  0
   43.1691    5.1581   12.0193 Si  0  0  0  0  0  4  0  0  0  0  0  0
   42.8389    5.3172   12.0537 O   0  0  0  0  0  0  0  0  0  0  0  0
   44.3475    5.6405   13.2149 O   0  0  0  0  0  0  0  0  0  0  0  0
   43.0247    3.4544   11.6606 O   0  0  0  0  0  0  0  0  0  0  0  0
   41.9571    6.1323   11.7471 O   0  0  0  0  0  0  0  0  0  0  0  0
   43.1323    5.1474   12.0739 Si  0  0  0  0  0  4  0  0  0  0  0  0
   43.5732    5.6181   12.6295 H   0  0  0  0  0  0  0  0  0  0  0  0
   42.9343    4.3456   11.8393 H   0  0  0  0  0  0  0  0  0  0  0  0
  4  1  1  0
  4  2  1  0
  4  3  2  0
 11  8  1  0
 11  9  1  0
 11 10  2  0
 15 12  1  0
 15 13  1  0
 15 14  2  0
 20 17  1  0
 20 18  1  0
 20 19  2  0
 16 21  1  0
 16 22  1  0
M  CHG  8   1  -1   2  -1   5   3   6   3   7   2   8  -1   9  -1  12  -1
M  CHG  3  13  -1  17  -1  18  -1
M  END
> <Uni-Dock RESULT> 
ENERGY=   -7.146  LOWER_BOUND=    7.246  UPPER_BOUND=    7.851
INTER + INTRA:          -7.146
INTER:                  -7.146
INTRA:                   0.000
UNBOUND:                 0.000

$$$$

     RDKit          3D

 22 14  0  0  0  0  0  0  0  0999 V2000
   43.9108    4.6246    9.2988 O   0  0  0  0  0  0  0  0  0  0  0  0
   44.7929    1.7490    9.1065 O   0  0  0  0  0  0  0  0  0  0  0  0
   45.8731    3.7953    7.4061 O   0  0  0  0  0  0  0  0  0  0  0  0
   44.8550    3.3873    8.5177 Si  0  0  0  0  0  4  0  0  0  0  0  0
   44.8580    3.3890    8.5823 Al  0  0  0  0  0 15  0  0  0  0  0  0
   44.8580    3.3890    8.5823 Al  0  0  0  0  0 15  0  0  0  0  0  0
   44.8580    3.3890    8.5823 Mg  0  0  0  0  0 15  0  0  0  0  0  0
   43.9196    4.6488    9.2694 O   0  0  0  0  0  0  0  0  0  0  0  0
   44.7043    1.7492    9.0699 O   0  0  0  0  0  0  0  0  0  0  0  0
   45.8435    3.7504    7.3706 O   0  0  0  0  0  0  0  0  0  0  0  0
   44.9643    3.4076    8.6192 Si  0  0  0  0  0  4  0  0  0  0  0  0
   44.8445    1.6991    8.8838 O   0  0  0  0  0  0  0  0  0  0  0  0
   43.8225    4.4576    9.3997 O   0  0  0  0  0  0  0  0  0  0  0  0
   45.7515    3.9788    7.3867 O   0  0  0  0  0  0  0  0  0  0  0  0
   45.0132    3.4205    8.6591 Si  0  0  0  0  0  4  0  0  0  0  0  0
   45.0951    3.4755    8.3044 O   0  0  0  0  0  0  0  0  0  0  0  0
   43.8654    4.5508    9.3343 O   0  0  0  0  0  0  0  0  0  0  0  0
   44.7856    1.7239    9.0080 O   0  0  0  0  0  0  0  0  0  0  0  0
   45.8150    3.8663    7.3743 O   0  0  0  0  0  0  0  0  0  0  0  0
   44.9658    3.4150    8.6126 Si  0  0  0  0  0  4  0  0  0  0  0  0
   44.5361    4.1327    8.7701 H   0  0  0  0  0  0  0  0  0  0  0  0
   44.9426    2.5588    8.6725 H   0  0  0  0  0  0  0  0  0  0  0  0
  4  1  1  0
  4  2  1  0
  4  3  2  0
 11  8  1  0
 11  9  1  0
 11 10  2  0
 15 12  1  0
 15 13  1  0
 15 14  2  0
 20 17  1  0
 20 18  1  0
 20 19  2  0
 16 21  1  0
 16 22  1  0
M  CHG  8   1  -1   2  -1   5   3   6   3   7   2   8  -1   9  -1  12  -1
M  CHG  3  13  -1  17  -1  18  -1
M  END
> <Uni-Dock RESULT> 
ENERGY=   -7.109  LOWER_BOUND=    3.060  UPPER_BOUND=    3.537
INTER + INTRA:          -7.109
INTER:                  -7.109
INTRA:                   0.000
UNBOUND:                 0.000

$$$$

     RDKit          3D

 22 14  0  0  0  0  0  0  0  0999 V2000
   43.8748    4.4935    9.3563 O   0  0  0  0  0  0  0  0  0  0  0  0
   46.1876    4.0953    7.4653 O   0  0  0  0  0  0  0  0  0  0  0  0
   44.9836    1.9106    8.8876 O   0  0  0  0  0  0  0  0  0  0  0  0
   45.0586    3.4478    8.6233 Si  0  0  0  0  0  4  0  0  0  0  0  0
   45.0262    3.4868    8.5831 Al  0  0  0  0  0 15  0  0  0  0  0  0
   45.0262    3.4868    8.5831 Al  0  0  0  0  0 15  0  0  0  0  0  0
   45.0262    3.4868    8.5831 Mg  0  0  0  0  0 15  0  0  0  0  0  0
   43.8658    4.4648    9.3812 O   0  0  0  0  0  0  0  0  0  0  0  0
   46.2264    4.1386    7.5415 O   0  0  0  0  0  0  0  0  0  0  0  0
   45.0455    1.9163    8.9042 O   0  0  0  0  0  0  0  0  0  0  0  0
   44.9669    3.4277    8.5055 Si  0  0  0  0  0  4  0  0  0  0  0  0
   46.3216    3.9202    7.5436 O   0  0  0  0  0  0  0  0  0  0  0  0
   43.9907    4.6476    9.2634 O   0  0  0  0  0  0  0  0  0  0  0  0
   44.8668    1.9650    9.0673 O   0  0  0  0  0  0  0  0  0  0  0  0
   44.9252    3.4146    8.4582 Si  0  0  0  0  0  4  0  0  0  0  0  0
   45.0248    3.1178    8.6518 O   0  0  0  0  0  0  0  0  0  0  0  0
   43.9318    4.5606    9.3247 O   0  0  0  0  0  0  0  0  0  0  0  0
   46.2569    4.0410    7.5167 O   0  0  0  0  0  0  0  0  0  0  0  0
   44.9525    1.9244    8.9786 O   0  0  0  0  0  0  0  0  0  0  0  0
   44.9634    3.4213    8.5124 Si  0  0  0  0  0  4  0  0  0  0  0  0
   44.3863    3.7492    9.0453 H   0  0  0  0  0  0  0  0  0  0  0  0
   45.6673    3.5937    8.0521 H   0  0  0  0  0  0  0  0  0  0  0  0
  4  1  1  0
  4  2  1  0
  4  3  2  0
 11  8  1  0
 11  9  1  0
 11 10  2  0
 15 12  1  0
 15 13  1  0
 15 14  2  0
 20 17  1  0
 20 18  1  0
 20 19  2  0
 16 21  1  0
 16 22  1  0
M  CHG  8   1  -1   2  -1   5   3   6   3   7   2   8  -1   9  -1  12  -1
M  CHG  3  13  -1  17  -1  18  -1
M  END
> <Uni-Dock RESULT> 
ENERGY=   -7.103  LOWER_BOUND=    2.994  UPPER_BOUND=    3.891
INTER + INTRA:          -7.103
INTER:                  -7.103
INTRA:                   0.000
UNBOUND:                 0.000

$$$$

     RDKit          3D

 22 14  0  0  0  0  0  0  0  0999 V2000
   46.0069    3.7592    7.3056 O   0  0  0  0  0  0  0  0  0  0  0  0
   43.9569    4.6242    9.3386 O   0  0  0  0  0  0  0  0  0  0  0  0
   44.7460    1.8797    9.0371 O   0  0  0  0  0  0  0  0  0  0  0  0
   44.8483    3.3572    8.5419 Si  0  0  0  0  0  4  0  0  0  0  0  0
   44.8895    3.4051    8.5558 Al  0  0  0  0  0 15  0  0  0  0  0  0
   44.8895    3.4051    8.5558 Al  0  0  0  0  0 15  0  0  0  0  0  0
   44.8895    3.4051    8.5558 Mg  0  0  0  0  0 15  0  0  0  0  0  0
   46.0097    3.7212    7.2968 O   0  0  0  0  0  0  0  0  0  0  0  0
   43.9119    4.6325    9.2544 O   0  0  0  0  0  0  0  0  0  0  0  0
   44.6830    1.8861    9.0249 O   0  0  0  0  0  0  0  0  0  0  0  0
   44.9535    3.3806    8.6471 Si  0  0  0  0  0  4  0  0  0  0  0  0
   43.7979    4.4545    9.3644 O   0  0  0  0  0  0  0  0  0  0  0  0
   45.9196    3.9539    7.3229 O   0  0  0  0  0  0  0  0  0  0  0  0
   44.8407    1.8271    8.8445 O   0  0  0  0  0  0  0  0  0  0  0  0
   45.0001    3.3850    8.6914 Si  0  0  0  0  0  4  0  0  0  0  0  0
   44.8478    3.0504    8.6715 O   0  0  0  0  0  0  0  0  0  0  0  0
   45.9612    3.8408    7.3060 O   0  0  0  0  0  0  0  0  0  0  0  0
   43.8764    4.5631    9.3251 O   0  0  0  0  0  0  0  0  0  0  0  0
   44.7651    1.8452    8.9483 O   0  0  0  0  0  0  0  0  0  0  0  0
   44.9554    3.3713    8.6438 Si  0  0  0  0  0  4  0  0  0  0  0  0
   45.4790    3.3270    7.9741 H   0  0  0  0  0  0  0  0  0  0  0  0
   44.3418    3.8380    9.0218 H   0  0  0  0  0  0  0  0  0  0  0  0
  4  1  1  0
  4  2  1  0
  4  3  2  0
 11  8  1  0
 11  9  1  0
 11 10  2  0
 15 12  1  0
 15 13  1  0
 15 14  2  0
 20 17  1  0
 20 18  1  0
 20 19  2  0
 16 21  1  0
 16 22  1  0
M  CHG  8   1  -1   2  -1   5   3   6   3   7   2   8  -1   9  -1  12  -1
M  CHG  3  13  -1  17  -1  18  -1
M  END
> <Uni-Dock RESULT> 
ENERGY=   -7.017  LOWER_BOUND=    3.070  UPPER_BOUND=    4.068
INTER + INTRA:          -7.017
INTER:                  -7.017
INTRA:                   0.000
UNBOUND:                 0.000

$$$$

     RDKit          3D

 22 14  0  0  0  0  0  0  0  0999 V2000
   43.2857    2.7891   12.0436 O   0  0  0  0  0  0  0  0  0  0  0  0
   43.3908    5.2884   10.3623 O   0  0  0  0  0  0  0  0  0  0  0  0
   42.8608    5.3661   13.1833 O   0  0  0  0  0  0  0  0  0  0  0  0
   43.1077    4.5152   11.8974 Si  0  0  0  0  0  4  0  0  0  0  0  0
   43.1613    4.4897   11.8716 Al  0  0  0  0  0 15  0  0  0  0  0  0
   43.1613    4.4897   11.8716 Al  0  0  0  0  0 15  0  0  0  0  0  0
   43.1613    4.4897   11.8716 Mg  0  0  0  0  0 15  0  0  0  0  0  0
   43.2697    2.7912   12.0792 O   0  0  0  0  0  0  0  0  0  0  0  0
   43.3089    5.2457   10.3364 O   0  0  0  0  0  0  0  0  0  0  0  0
   42.8107    5.3903   13.1508 O   0  0  0  0  0  0  0  0  0  0  0  0
   43.2556    4.5317   11.9201 Si  0  0  0  0  0  4  0  0  0  0  0  0
   43.2388    5.4446   10.4472 O   0  0  0  0  0  0  0  0  0  0  0  0
   43.2986    2.7981   11.8300 O   0  0  0  0  0  0  0  0  0  0  0  0
   42.7900    5.1772   13.2736 O   0  0  0  0  0  0  0  0  0  0  0  0
   43.3177    4.5389   11.9357 Si  0  0  0  0  0  4  0  0  0  0  0  0
   43.0878    4.7012   12.1730 O   0  0  0  0  0  0  0  0  0  0  0  0
   43.2803    2.7927   11.9502 O   0  0  0  0  0  0  0  0  0  0  0  0
   43.3054    5.3399   10.3832 O   0  0  0  0  0  0  0  0  0  0  0  0
   42.8075    5.2957   13.2237 O   0  0  0  0  0  0  0  0  0  0  0  0
   43.2519    4.5306   11.9294 Si  0  0  0  0  0  4  0  0  0  0  0  0
   43.1888    3.7263   12.2008 H   0  0  0  0  0  0  0  0  0  0  0  0
   43.2071    5.0416   11.2409 H   0  0  0  0  0  0  0  0  0  0  0  0
  4  1  1  0
  4  2  1  0
  4  3  2  0
 11  8  1  0
 11  9  1  0
 11 10  2  0
 15 12  1  0
 15 13  1  0
 15 14  2  0
 20 17  1  0
 20 18  1  0
 20 19  2  0
 16 21  1  0
 16 22  1  0
M  CHG  8   1  -1   2  -1   5   3   6   3   7   2   8  -1   9  -1  12  -1
M  CHG  3  13  -1  17  -1  18  -1
M  END
> <Uni-Dock RESULT> 
ENERGY=   -6.951  LOWER_BOUND=    6.746  UPPER_BOUND=    7.680
INTER + INTRA:          -6.951
INTER:                  -6.951
INTRA:                   0.000
UNBOUND:                 0.000

$$$$

     RDKit          3D

 22 14  0  0  0  0  0  0  0  0999 V2000
   43.4670    5.0432   10.2166 O   0  0  0  0  0  0  0  0  0  0  0  0
   42.9022    5.3563   13.1606 O   0  0  0  0  0  0  0  0  0  0  0  0
   43.2854    2.7838   11.9436 O   0  0  0  0  0  0  0  0  0  0  0  0
   43.1595    4.3312   11.7758 Si  0  0  0  0  0  4  0  0  0  0  0  0
   43.2035    4.3787   11.7742 Al  0  0  0  0  0 15  0  0  0  0  0  0
   43.2035    4.3787   11.7742 Al  0  0  0  0  0 15  0  0  0  0  0  0
   43.2035    4.3787   11.7742 Mg  0  0  0  0  0 15  0  0  0  0  0  0
   43.4630    5.0079   10.2005 O   0  0  0  0  0  0  0  0  0  0  0  0
   42.8187    5.3768   13.1180 O   0  0  0  0  0  0  0  0  0  0  0  0
   43.2264    2.7876   11.9692 O   0  0  0  0  0  0  0  0  0  0  0  0
   43.3060    4.3424   11.8090 Si  0  0  0  0  0  4  0  0  0  0  0  0
   42.7766    5.1733   13.2347 O   0  0  0  0  0  0  0  0  0  0  0  0
   43.4114    5.2242   10.3167 O   0  0  0  0  0  0  0  0  0  0  0  0
   43.2569    2.7754   11.7246 O   0  0  0  0  0  0  0  0  0  0  0  0
   43.3693    4.3419   11.8206 Si  0  0  0  0  0  4  0  0  0  0  0  0
   43.2176    4.0065   11.8212 O   0  0  0  0  0  0  0  0  0  0  0  0
   43.4323    5.1197   10.2580 O   0  0  0  0  0  0  0  0  0  0  0  0
   42.8250    5.2929   13.1813 O   0  0  0  0  0  0  0  0  0  0  0  0
   43.2513    2.7680   11.8540 O   0  0  0  0  0  0  0  0  0  0  0  0
   43.3054    4.3341   11.8034 Si  0  0  0  0  0  4  0  0  0  0  0  0
   43.3745    4.4553   10.9637 H   0  0  0  0  0  0  0  0  0  0  0  0
   43.0185    4.6743   12.5376 H   0  0  0  0  0  0  0  0  0  0  0  0
  4  1  1  0
  4  2  1  0
  4  3  2  0
 11  8  1  0
 11  9  1  0
 11 10  2  0
 15 12  1  0
 15 13  1  0
 15 14  2  0
 20 17  1  0
 20 18  1  0
 20 19  2  0
 16 21  1  0
 16 22  1  0
M  CHG  8   1  -1   2  -1   5   3   6   3   7   2   8  -1   9  -1  12  -1
M  CHG  3  13  -1  17  -1  18  -1
M  END
> <Uni-Dock RESULT> 
ENERGY=   -6.919  LOWER_BOUND=    6.570  UPPER_BOUND=    7.347
INTER + INTRA:          -6.919
INTER:                  -6.919
INTRA:                   0.000
UNBOUND:                 0.000

$$$$
