
     RDKit          3D

 22 14  0  0  0  0  0  0  0  0999 V2000
   47.0391    4.0797    6.9402 O   0  0  0  0  0  0  0  0  0  0  0  0
   47.2285    1.1921    7.6442 O   0  0  0  0  0  0  0  0  0  0  0  0
   48.1730    2.1086    5.1333 O   0  0  0  0  0  0  0  0  0  0  0  0
   47.3929    2.4439    6.4636 Si  0  0  0  0  0  4  0  0  0  0  0  0
   47.4584    2.4561    6.5453 Al  0  0  0  0  0 15  0  0  0  0  0  0
   47.4584    2.4561    6.5453 Al  0  0  0  0  0 15  0  0  0  0  0  0
   47.4584    2.4561    6.5453 Mg  0  0  0  0  0 15  0  0  0  0  0  0
   46.9289    3.8880    7.3128 O   0  0  0  0  0  0  0  0  0  0  0  0
   47.4407    0.9446    7.3373 O   0  0  0  0  0  0  0  0  0  0  0  0
   48.1426    2.5604    5.0962 O   0  0  0  0  0  0  0  0  0  0  0  0
   47.3212    2.4311    6.4350 Si  0  0  0  0  0  4  0  0  0  0  0  0
   47.4375    0.9543    7.3500 O   0  0  0  0  0  0  0  0  0  0  0  0
   46.8914    3.8819    7.3054 O   0  0  0  0  0  0  0  0  0  0  0  0
   48.1358    2.5439    5.0748 O   0  0  0  0  0  0  0  0  0  0  0  0
   47.3688    2.4442    6.4512 Si  0  0  0  0  0  4  0  0  0  0  0  0
   47.6027    2.4899    6.2021 O   0  0  0  0  0  0  0  0  0  0  0  0
   47.4411    0.9111    7.3079 O   0  0  0  0  0  0  0  0  0  0  0  0
   46.8908    3.9025    7.3068 O   0  0  0  0  0  0  0  0  0  0  0  0
   48.1133    2.5637    5.0880 O   0  0  0  0  0  0  0  0  0  0  0  0
   47.3883    2.4469    6.4787 Si  0  0  0  0  0  4  0  0  0  0  0  0
   47.5374    1.6423    6.6980 H   0  0  0  0  0  0  0  0  0  0  0  0
   47.2351    3.2360    6.7359 H   0  0  0  0  0  0  0  0  0  0  0  0
  4  1  1  0
  4  2  1  0
  4  3  2  0
 11  8  1  0
 11  9  1  0
 11 10  2  0
 15 12  1  0
 15 13  1  0
 15 14  2  0
 20 17  1  0
 20 18  1  0
 20 19  2  0
 16 21  1  0
 16 22  1  0
M  CHG  8   1  -1   2  -1   5   3   6   3   7   2   8  -1   9  -1  12  -1
M  CHG  3  13  -1  17  -1  18  -1
M  END
> <Uni-Dock RESULT> 
ENERGY=   -9.339  LOWER_BOUND=    0.000  UPPER_BOUND=    0.000
INTER + INTRA:          -9.339
INTER:                  -9.339
INTRA:                   0.000
UNBOUND:                 0.000

$$$$

     RDKit          3D

 22 14  0  0  0  0  0  0  0  0999 V2000
   46.5446    3.5965    7.3603 O   0  0  0  0  0  0  0  0  0  0  0  0
   48.0804    2.6838    4.9774 O   0  0  0  0  0  0  0  0  0  0  0  0
   47.5251    0.8760    7.0893 O   0  0  0  0  0  0  0  0  0  0  0  0
   47.4865    2.3656    6.5692 Si  0  0  0  0  0  4  0  0  0  0  0  0
   47.4092    2.3805    6.4991 Al  0  0  0  0  0 15  0  0  0  0  0  0
   47.4092    2.3805    6.4991 Al  0  0  0  0  0 15  0  0  0  0  0  0
   47.4092    2.3805    6.4991 Mg  0  0  0  0  0 15  0  0  0  0  0  0
   46.6418    3.8216    7.0031 O   0  0  0  0  0  0  0  0  0  0  0  0
   48.1765    2.2466    4.9808 O   0  0  0  0  0  0  0  0  0  0  0  0
   47.2649    1.0656    7.4098 O   0  0  0  0  0  0  0  0  0  0  0  0
   47.5536    2.3880    6.6025 Si  0  0  0  0  0  4  0  0  0  0  0  0
   48.1690    2.2608    4.9787 O   0  0  0  0  0  0  0  0  0  0  0  0
   46.6745    3.8384    7.0155 O   0  0  0  0  0  0  0  0  0  0  0  0
   47.2864    1.0493    7.4167 O   0  0  0  0  0  0  0  0  0  0  0  0
   47.5069    2.3733    6.5853 Si  0  0  0  0  0  4  0  0  0  0  0  0
   47.3817    2.0843    6.7257 O   0  0  0  0  0  0  0  0  0  0  0  0
   48.2062    2.2133    4.9807 O   0  0  0  0  0  0  0  0  0  0  0  0
   46.6612    3.8485    7.0277 O   0  0  0  0  0  0  0  0  0  0  0  0
   47.2858    1.0807    7.4263 O   0  0  0  0  0  0  0  0  0  0  0  0
   47.4835    2.3794    6.5616 Si  0  0  0  0  0  4  0  0  0  0  0  0
   47.8367    2.0778    5.8530 H   0  0  0  0  0  0  0  0  0  0  0  0
   47.0091    2.9792    6.9186 H   0  0  0  0  0  0  0  0  0  0  0  0
  4  1  1  0
  4  2  1  0
  4  3  2  0
 11  8  1  0
 11  9  1  0
 11 10  2  0
 15 12  1  0
 15 13  1  0
 15 14  2  0
 20 17  1  0
 20 18  1  0
 20 19  2  0
 16 21  1  0
 16 22  1  0
M  CHG  8   1  -1   2  -1   5   3   6   3   7   2   8  -1   9  -1  12  -1
M  CHG  3  13  -1  17  -1  18  -1
M  END
> <Uni-Dock RESULT> 
ENERGY=   -9.160  LOWER_BOUND=    0.283  UPPER_BOUND=    1.818
INTER + INTRA:          -9.160
INTER:                  -9.160
INTRA:                   0.000
UNBOUND:                 0.000

$$$$

     RDKit          3D

 22 14  0  0  0  0  0  0  0  0999 V2000
   43.2693    2.7524   11.4273 O   0  0  0  0  0  0  0  0  0  0  0  0
   42.8185    4.9863   13.3447 O   0  0  0  0  0  0  0  0  0  0  0  0
   43.2632    5.5364   10.5995 O   0  0  0  0  0  0  0  0  0  0  0  0
   43.2480    4.4614   11.7548 Si  0  0  0  0  0  4  0  0  0  0  0  0
   43.1498    4.4341   11.7816 Al  0  0  0  0  0 15  0  0  0  0  0  0
   43.1498    4.4341   11.7816 Al  0  0  0  0  0 15  0  0  0  0  0  0
   43.1498    4.4341   11.7816 Mg  0  0  0  0  0 15  0  0  0  0  0  0
   43.1789    2.7270   11.8502 O   0  0  0  0  0  0  0  0  0  0  0  0
   42.7984    5.3895   13.1512 O   0  0  0  0  0  0  0  0  0  0  0  0
   43.2972    5.1554   10.3544 O   0  0  0  0  0  0  0  0  0  0  0  0
   43.3246    4.4647   11.7706 Si  0  0  0  0  0  4  0  0  0  0  0  0
   42.7945    5.3749   13.1571 O   0  0  0  0  0  0  0  0  0  0  0  0
   43.2151    2.7250   11.8639 O   0  0  0  0  0  0  0  0  0  0  0  0
   43.3144    5.1770   10.3497 O   0  0  0  0  0  0  0  0  0  0  0  0
   43.2751    4.4597   11.7557 Si  0  0  0  0  0  4  0  0  0  0  0  0
   43.1997    4.5922   11.4464 O   0  0  0  0  0  0  0  0  0  0  0  0
   42.8139    5.4310   13.1461 O   0  0  0  0  0  0  0  0  0  0  0  0
   43.2144    2.7065   11.8546 O   0  0  0  0  0  0  0  0  0  0  0  0
   43.3265    5.1480   10.3591 O   0  0  0  0  0  0  0  0  0  0  0  0
   43.2442    4.4510   11.7665 Si  0  0  0  0  0  4  0  0  0  0  0  0
   43.0240    5.0904   12.2768 H   0  0  0  0  0  0  0  0  0  0  0  0
   43.2256    3.6198   11.6213 H   0  0  0  0  0  0  0  0  0  0  0  0
  4  1  1  0
  4  2  1  0
  4  3  2  0
 11  8  1  0
 11  9  1  0
 11 10  2  0
 15 12  1  0
 15 13  1  0
 15 14  2  0
 20 17  1  0
 20 18  1  0
 20 19  2  0
 16 21  1  0
 16 22  1  0
M  CHG  8   1  -1   2  -1   5   3   6   3   7   2   8  -1   9  -1  12  -1
M  CHG  3  13  -1  17  -1  18  -1
M  END
> <Uni-Dock RESULT> 
ENERGY=   -7.063  LOWER_BOUND=    6.566  UPPER_BOUND=    7.319
INTER + INTRA:          -7.063
INTER:                  -7.063
INTRA:                   0.000
UNBOUND:                 0.000

$$$$

     RDKit          3D

 22 14  0  0  0  0  0  0  0  0999 V2000
   43.1974    5.6388   10.5731 O   0  0  0  0  0  0  0  0  0  0  0  0
   43.3503    2.8378   11.5737 O   0  0  0  0  0  0  0  0  0  0  0  0
   42.8147    4.9631   13.3718 O   0  0  0  0  0  0  0  0  0  0  0  0
   43.2305    4.5286   11.9127 Si  0  0  0  0  0  4  0  0  0  0  0  0
   43.1482    4.4921   11.8579 Al  0  0  0  0  0 15  0  0  0  0  0  0
   43.1482    4.4921   11.8579 Al  0  0  0  0  0 15  0  0  0  0  0  0
   43.1482    4.4921   11.8579 Mg  0  0  0  0  0 15  0  0  0  0  0  0
   43.2573    5.2762   10.3436 O   0  0  0  0  0  0  0  0  0  0  0  0
   43.2517    2.7954   12.0084 O   0  0  0  0  0  0  0  0  0  0  0  0
   42.7762    5.3611   13.1561 O   0  0  0  0  0  0  0  0  0  0  0  0
   43.3077    4.5355   11.9234 Si  0  0  0  0  0  4  0  0  0  0  0  0
   43.2505    2.7966   11.9922 O   0  0  0  0  0  0  0  0  0  0  0  0
   43.2961    5.2762   10.3428 O   0  0  0  0  0  0  0  0  0  0  0  0
   42.7900    5.3593   13.1803 O   0  0  0  0  0  0  0  0  0  0  0  0
   43.2563    4.5363   11.9162 Si  0  0  0  0  0  4  0  0  0  0  0  0
   43.0757    4.7060   12.1559 O   0  0  0  0  0  0  0  0  0  0  0  0
   43.2631    2.7837   12.0499 O   0  0  0  0  0  0  0  0  0  0  0  0
   43.2929    5.2926   10.3307 O   0  0  0  0  0  0  0  0  0  0  0  0
   42.8056    5.3691   13.1532 O   0  0  0  0  0  0  0  0  0  0  0  0
   43.2313    4.5229   11.8977 Si  0  0  0  0  0  4  0  0  0  0  0  0
   43.1762    3.7273   12.1836 H   0  0  0  0  0  0  0  0  0  0  0  0
   43.1928    5.0430   11.2342 H   0  0  0  0  0  0  0  0  0  0  0  0
  4  1  1  0
  4  2  1  0
  4  3  2  0
 11  8  1  0
 11  9  1  0
 11 10  2  0
 15 12  1  0
 15 13  1  0
 15 14  2  0
 20 17  1  0
 20 18  1  0
 20 19  2  0
 16 21  1  0
 16 22  1  0
M  CHG  8   1  -1   2  -1   5   3   6   3   7   2   8  -1   9  -1  12  -1
M  CHG  3  13  -1  17  -1  18  -1
M  END
> <Uni-Dock RESULT> 
ENERGY=   -6.966  LOWER_BOUND=    6.645  UPPER_BOUND=    7.391
INTER + INTRA:          -6.966
INTER:                  -6.966
INTRA:                   0.000
UNBOUND:                 0.000

$$$$

     RDKit          3D

 22 14  0  0  0  0  0  0  0  0999 V2000
   42.7788    4.9509   13.2886 O   0  0  0  0  0  0  0  0  0  0  0  0
   43.4041    5.3903   10.4101 O   0  0  0  0  0  0  0  0  0  0  0  0
   43.3204    2.7589   11.4617 O   0  0  0  0  0  0  0  0  0  0  0  0
   43.2915    4.3095   11.7544 Si  0  0  0  0  0  4  0  0  0  0  0  0
   43.1987    4.3524   11.7287 Al  0  0  0  0  0 15  0  0  0  0  0  0
   43.1987    4.3524   11.7287 Al  0  0  0  0  0 15  0  0  0  0  0  0
   43.1987    4.3524   11.7287 Mg  0  0  0  0  0 15  0  0  0  0  0  0
   42.7870    5.3257   13.0715 O   0  0  0  0  0  0  0  0  0  0  0  0
   43.4473    5.0120   10.1746 O   0  0  0  0  0  0  0  0  0  0  0  0
   43.1930    2.7554   11.8977 O   0  0  0  0  0  0  0  0  0  0  0  0
   43.3677    4.3165   11.7709 Si  0  0  0  0  0  4  0  0  0  0  0  0
   43.4411    5.0250   10.1821 O   0  0  0  0  0  0  0  0  0  0  0  0
   42.8236    5.3361   13.0791 O   0  0  0  0  0  0  0  0  0  0  0  0
   43.2137    2.7389   11.8888 O   0  0  0  0  0  0  0  0  0  0  0  0
   43.3166    4.3095   11.7648 Si  0  0  0  0  0  4  0  0  0  0  0  0
   43.2087    3.9825   11.7828 O   0  0  0  0  0  0  0  0  0  0  0  0
   43.4716    4.9845   10.1493 O   0  0  0  0  0  0  0  0  0  0  0  0
   42.8158    5.3383   13.0982 O   0  0  0  0  0  0  0  0  0  0  0  0
   43.2195    2.7616   11.9117 O   0  0  0  0  0  0  0  0  0  0  0  0
   43.2880    4.3251   11.7557 Si  0  0  0  0  0  4  0  0  0  0  0  0
   43.3727    4.4238   10.9185 H   0  0  0  0  0  0  0  0  0  0  0  0
   43.0148    4.6507   12.4848 H   0  0  0  0  0  0  0  0  0  0  0  0
  4  1  1  0
  4  2  1  0
  4  3  2  0
 11  8  1  0
 11  9  1  0
 11 10  2  0
 15 12  1  0
 15 13  1  0
 15 14  2  0
 20 17  1  0
 20 18  1  0
 20 19  2  0
 16 21  1  0
 16 22  1  0
M  CHG  8   1  -1   2  -1   5   3   6   3   7   2   8  -1   9  -1  12  -1
M  CHG  3  13  -1  17  -1  18  -1
M  END
> <Uni-Dock RESULT> 
ENERGY=   -6.956  LOWER_BOUND=    6.412  UPPER_BOUND=    7.225
INTER + INTRA:          -6.956
INTER:                  -6.956
INTRA:                   0.000
UNBOUND:                 0.000

$$$$

     RDKit          3D

 22 14  0  0  0  0  0  0  0  0999 V2000
   42.8218    3.4365   11.7613 O   0  0  0  0  0  0  0  0  0  0  0  0
   44.5144    5.4122   13.2110 O   0  0  0  0  0  0  0  0  0  0  0  0
   42.1520    6.2596   11.8929 O   0  0  0  0  0  0  0  0  0  0  0  0
   43.1796    5.0921   12.1605 Si  0  0  0  0  0  4  0  0  0  0  0  0
   43.1669    5.0501   12.2564 Al  0  0  0  0  0 15  0  0  0  0  0  0
   43.1669    5.0501   12.2564 Al  0  0  0  0  0 15  0  0  0  0  0  0
   43.1669    5.0501   12.2564 Mg  0  0  0  0  0 15  0  0  0  0  0  0
   43.1798    3.3617   11.9936 O   0  0  0  0  0  0  0  0  0  0  0  0
   44.3419    5.8252   13.2211 O   0  0  0  0  0  0  0  0  0  0  0  0
   41.9234    5.9098   11.7147 O   0  0  0  0  0  0  0  0  0  0  0  0
   43.2227    5.1038   12.0964 Si  0  0  0  0  0  4  0  0  0  0  0  0
   44.3454    5.8098   13.2246 O   0  0  0  0  0  0  0  0  0  0  0  0
   43.2059    3.3632   11.9649 O   0  0  0  0  0  0  0  0  0  0  0  0
   41.9262    5.9336   11.7005 O   0  0  0  0  0  0  0  0  0  0  0  0
   43.1903    5.0939   12.1357 Si  0  0  0  0  0  4  0  0  0  0  0  0
   42.8802    5.2428   12.1134 O   0  0  0  0  0  0  0  0  0  0  0  0
   44.3445    5.8687   13.2114 O   0  0  0  0  0  0  0  0  0  0  0  0
   43.1963    3.3457   11.9594 O   0  0  0  0  0  0  0  0  0  0  0  0
   41.9383    5.9057   11.6883 O   0  0  0  0  0  0  0  0  0  0  0  0
   43.1886    5.0803   12.1667 Si  0  0  0  0  0  4  0  0  0  0  0  0
   43.6035    5.6375   12.6516 H   0  0  0  0  0  0  0  0  0  0  0  0
   43.0170    4.2701   12.0043 H   0  0  0  0  0  0  0  0  0  0  0  0
  4  1  1  0
  4  2  1  0
  4  3  2  0
 11  8  1  0
 11  9  1  0
 11 10  2  0
 15 12  1  0
 15 13  1  0
 15 14  2  0
 20 17  1  0
 20 18  1  0
 20 19  2  0
 16 21  1  0
 16 22  1  0
M  CHG  8   1  -1   2  -1   5   3   6   3   7   2   8  -1   9  -1  12  -1
M  CHG  3  13  -1  17  -1  18  -1
M  END
> <Uni-Dock RESULT> 
ENERGY=   -6.947  LOWER_BOUND=    7.290  UPPER_BOUND=    7.920
INTER + INTRA:          -6.947
INTER:                  -6.947
INTRA:                   0.000
UNBOUND:                 0.000

$$$$

     RDKit          3D

 22 14  0  0  0  0  0  0  0  0999 V2000
   44.3360    6.1506   13.0949 O   0  0  0  0  0  0  0  0  0  0  0  0
   43.5292    3.4311   12.1875 O   0  0  0  0  0  0  0  0  0  0  0  0
   41.8833    5.6674   11.6161 O   0  0  0  0  0  0  0  0  0  0  0  0
   43.1405    5.1036   12.3858 Si  0  0  0  0  0  4  0  0  0  0  0  0
   43.2222    5.0882   12.3211 Al  0  0  0  0  0 15  0  0  0  0  0  0
   43.2222    5.0882   12.3211 Al  0  0  0  0  0 15  0  0  0  0  0  0
   43.2222    5.0882   12.3211 Mg  0  0  0  0  0 15  0  0  0  0  0  0
   44.5550    5.7791   13.1373 O   0  0  0  0  0  0  0  0  0  0  0  0
   43.1575    3.4265   11.9381 O   0  0  0  0  0  0  0  0  0  0  0  0
   42.0727    6.0563   11.7552 O   0  0  0  0  0  0  0  0  0  0  0  0
   43.1038    5.0907   12.4537 Si  0  0  0  0  0  4  0  0  0  0  0  0
   43.1730    3.4276   11.9429 O   0  0  0  0  0  0  0  0  0  0  0  0
   44.5426    5.7690   13.1727 O   0  0  0  0  0  0  0  0  0  0  0  0
   42.0454    6.0516   11.7589 O   0  0  0  0  0  0  0  0  0  0  0  0
   43.1280    5.1045   12.4099 Si  0  0  0  0  0  4  0  0  0  0  0  0
   42.9531    5.3210   12.2064 O   0  0  0  0  0  0  0  0  0  0  0  0
   43.1154    3.4133   11.9312 O   0  0  0  0  0  0  0  0  0  0  0  0
   44.5539    5.7855   13.1780 O   0  0  0  0  0  0  0  0  0  0  0  0
   42.0649    6.0564   11.7848 O   0  0  0  0  0  0  0  0  0  0  0  0
   43.1547    5.0976   12.3902 Si  0  0  0  0  0  4  0  0  0  0  0  0
   42.9573    4.3505   12.0428 H   0  0  0  0  0  0  0  0  0  0  0  0
   43.7563    5.5931   12.7140 H   0  0  0  0  0  0  0  0  0  0  0  0
  4  1  1  0
  4  2  1  0
  4  3  2  0
 11  8  1  0
 11  9  1  0
 11 10  2  0
 15 12  1  0
 15 13  1  0
 15 14  2  0
 20 17  1  0
 20 18  1  0
 20 19  2  0
 16 21  1  0
 16 22  1  0
M  CHG  8   1  -1   2  -1   5   3   6   3   7   2   8  -1   9  -1  12  -1
M  CHG  3  13  -1  17  -1  18  -1
M  END
> <Uni-Dock RESULT> 
ENERGY=   -6.920  LOWER_BOUND=    7.346  UPPER_BOUND=    7.791
INTER + INTRA:          -6.920
INTER:                  -6.920
INTRA:                   0.000
UNBOUND:                 0.000

$$$$

     RDKit          3D

 22 14  0  0  0  0  0  0  0  0999 V2000
   43.3124    3.8053   11.1165 O   0  0  0  0  0  0  0  0  0  0  0  0
   43.0547    6.7583   10.8286 O   0  0  0  0  0  0  0  0  0  0  0  0
   42.7575    5.5464   13.3740 O   0  0  0  0  0  0  0  0  0  0  0  0
   42.9096    5.3469   11.8159 Si  0  0  0  0  0  4  0  0  0  0  0  0
   43.0085    5.3642   11.7838 Al  0  0  0  0  0 15  0  0  0  0  0  0
   43.0085    5.3642   11.7838 Al  0  0  0  0  0 15  0  0  0  0  0  0
   43.0085    5.3642   11.7838 Mg  0  0  0  0  0 15  0  0  0  0  0  0
   43.3657    4.0443   10.7591 O   0  0  0  0  0  0  0  0  0  0  0  0
   42.9999    6.9738   11.2171 O   0  0  0  0  0  0  0  0  0  0  0  0
   42.8352    5.0990   13.3581 O   0  0  0  0  0  0  0  0  0  0  0  0
   42.8332    5.3399   11.8007 Si  0  0  0  0  0  4  0  0  0  0  0  0
   43.0065    6.9665   11.2042 O   0  0  0  0  0  0  0  0  0  0  0  0
   43.3298    4.0415   10.7448 O   0  0  0  0  0  0  0  0  0  0  0  0
   42.8141    5.1093   13.3732 O   0  0  0  0  0  0  0  0  0  0  0  0
   42.8837    5.3396   11.8128 Si  0  0  0  0  0  4  0  0  0  0  0  0
   42.9555    5.2893   12.1462 O   0  0  0  0  0  0  0  0  0  0  0  0
   42.9758    7.0001   11.2440 O   0  0  0  0  0  0  0  0  0  0  0  0
   43.3356    4.0219   10.7420 O   0  0  0  0  0  0  0  0  0  0  0  0
   42.8081    5.0886   13.3485 O   0  0  0  0  0  0  0  0  0  0  0  0
   42.9146    5.3462   11.8007 Si  0  0  0  0  0  4  0  0  0  0  0  0
   42.9328    6.1920   11.7548 H   0  0  0  0  0  0  0  0  0  0  0  0
   43.1372    4.6113   11.4504 H   0  0  0  0  0  0  0  0  0  0  0  0
  4  1  1  0
  4  2  1  0
  4  3  2  0
 11  8  1  0
 11  9  1  0
 11 10  2  0
 15 12  1  0
 15 13  1  0
 15 14  2  0
 20 17  1  0
 20 18  1  0
 20 19  2  0
 16 21  1  0
 16 22  1  0
M  CHG  8   1  -1   2  -1   5   3   6   3   7   2   8  -1   9  -1  12  -1
M  CHG  3  13  -1  17  -1  18  -1
M  END
> <Uni-Dock RESULT> 
ENERGY=   -6.853  LOWER_BOUND=    6.758  UPPER_BOUND=    7.927
INTER + INTRA:          -6.853
INTER:                  -6.853
INTRA:                   0.000
UNBOUND:                 0.000

$$$$

     RDKit          3D

 22 14  0  0  0  0  0  0  0  0999 V2000
   45.5780    2.8629   12.4826 O   0  0  0  0  0  0  0  0  0  0  0  0
   43.4079    4.7884   13.1556 O   0  0  0  0  0  0  0  0  0  0  0  0
   42.8343    2.4831   11.6086 O   0  0  0  0  0  0  0  0  0  0  0  0
   43.9346    3.3965   12.2763 Si  0  0  0  0  0  4  0  0  0  0  0  0
   43.9387    3.3827   12.3807 Al  0  0  0  0  0 15  0  0  0  0  0  0
   43.9387    3.3827   12.3807 Al  0  0  0  0  0 15  0  0  0  0  0  0
   43.9387    3.3827   12.3807 Mg  0  0  0  0  0 15  0  0  0  0  0  0
   45.6036    3.2186   12.7286 O   0  0  0  0  0  0  0  0  0  0  0  0
   43.0019    4.6585   13.0187 O   0  0  0  0  0  0  0  0  0  0  0  0
   43.1985    2.2152   11.5634 O   0  0  0  0  0  0  0  0  0  0  0  0
   43.9506    3.4386   12.2124 Si  0  0  0  0  0  4  0  0  0  0  0  0
   43.0155    4.6604   13.0274 O   0  0  0  0  0  0  0  0  0  0  0  0
   45.6150    3.2438   12.7013 O   0  0  0  0  0  0  0  0  0  0  0  0
   43.1815    2.2200   11.5417 O   0  0  0  0  0  0  0  0  0  0  0  0
   43.9427    3.4066   12.2525 Si  0  0  0  0  0  4  0  0  0  0  0  0
   43.7795    3.1124   12.1772 O   0  0  0  0  0  0  0  0  0  0  0  0
   42.9651    4.6650   12.9943 O   0  0  0  0  0  0  0  0  0  0  0  0
   45.6322    3.2324   12.7023 O   0  0  0  0  0  0  0  0  0  0  0  0
   43.2131    2.2289   11.5402 O   0  0  0  0  0  0  0  0  0  0  0  0
   43.9443    3.4045   12.2863 Si  0  0  0  0  0  4  0  0  0  0  0  0
   43.2991    3.8878   12.5468 H   0  0  0  0  0  0  0  0  0  0  0  0
   44.7374    3.1478   12.4181 H   0  0  0  0  0  0  0  0  0  0  0  0
  4  1  1  0
  4  2  1  0
  4  3  2  0
 11  8  1  0
 11  9  1  0
 11 10  2  0
 15 12  1  0
 15 13  1  0
 15 14  2  0
 20 17  1  0
 20 18  1  0
 20 19  2  0
 16 21  1  0
 16 22  1  0
M  CHG  8   1  -1   2  -1   5   3   6   3   7   2   8  -1   9  -1  12  -1
M  CHG  3  13  -1  17  -1  18  -1
M  END
> <Uni-Dock RESULT> 
ENERGY=   -6.693  LOWER_BOUND=    6.585  UPPER_BOUND=    7.179
INTER + INTRA:          -6.693
INTER:                  -6.693
INTRA:                   0.000
UNBOUND:                 0.000

$$$$
