
     RDKit          3D

 22 14  0  0  0  0  0  0  0  0999 V2000
   46.8894    3.8404    7.0580 O   0  0  0  0  0  0  0  0  0  0  0  0
   47.2421    0.8971    7.3683 O   0  0  0  0  0  0  0  0  0  0  0  0
   48.1465    2.2949    5.0503 O   0  0  0  0  0  0  0  0  0  0  0  0
   47.6363    2.3645    6.5439 Si  0  0  0  0  0  4  0  0  0  0  0  0
   47.4786    2.3492    6.5051 Al  0  0  0  0  0 15  0  0  0  0  0  0
   47.4786    2.3492    6.5051 Al  0  0  0  0  0 15  0  0  0  0  0  0
   47.4786    2.3492    6.5051 Mg  0  0  0  0  0 15  0  0  0  0  0  0
   47.3230    0.9146    7.4492 O   0  0  0  0  0  0  0  0  0  0  0  0
   46.8888    3.8775    7.0353 O   0  0  0  0  0  0  0  0  0  0  0  0
   48.2059    2.2584    5.0664 O   0  0  0  0  0  0  0  0  0  0  0  0
   47.4968    2.3464    6.4695 Si  0  0  0  0  0  4  0  0  0  0  0  0
   47.4492    0.8043    7.2671 O   0  0  0  0  0  0  0  0  0  0  0  0
   46.8019    3.7256    7.2580 O   0  0  0  0  0  0  0  0  0  0  0  0
   48.1616    2.5222    5.0353 O   0  0  0  0  0  0  0  0  0  0  0  0
   47.5016    2.3449    6.4602 Si  0  0  0  0  0  4  0  0  0  0  0  0
   47.6586    2.3185    6.1531 O   0  0  0  0  0  0  0  0  0  0  0  0
   46.9099    3.8813    7.0200 O   0  0  0  0  0  0  0  0  0  0  0  0
   47.2377    0.9131    7.4200 O   0  0  0  0  0  0  0  0  0  0  0  0
   48.1688    2.2405    5.0592 O   0  0  0  0  0  0  0  0  0  0  0  0
   47.5981    2.3620    6.5212 Si  0  0  0  0  0  4  0  0  0  0  0  0
   47.4672    1.5856    6.7972 H   0  0  0  0  0  0  0  0  0  0  0  0
   47.3100    3.1437    6.5650 H   0  0  0  0  0  0  0  0  0  0  0  0
  4  1  1  0
  4  2  1  0
  4  3  2  0
 11  8  1  0
 11  9  1  0
 11 10  2  0
 15 12  1  0
 15 13  1  0
 15 14  2  0
 20 17  1  0
 20 18  1  0
 20 19  2  0
 16 21  1  0
 16 22  1  0
M  CHG  8   1  -1   2  -1   5   3   6   3   7   2   8  -1   9  -1  12  -1
M  CHG  3  13  -1  17  -1  18  -1
M  END
> <Uni-Dock RESULT> 
ENERGY=   -9.497  LOWER_BOUND=    0.000  UPPER_BOUND=    0.000
INTER + INTRA:          -9.497
INTER:                  -9.497
INTRA:                   0.000
UNBOUND:                 0.000

$$$$

     RDKit          3D

 22 14  0  0  0  0  0  0  0  0999 V2000
   48.1685    2.3423    4.9655 O   0  0  0  0  0  0  0  0  0  0  0  0
   46.7433    3.7814    7.1521 O   0  0  0  0  0  0  0  0  0  0  0  0
   47.3636    1.0008    7.3218 O   0  0  0  0  0  0  0  0  0  0  0  0
   47.6044    2.3867    6.6026 Si  0  0  0  0  0  4  0  0  0  0  0  0
   47.4700    2.3778    6.5105 Al  0  0  0  0  0 15  0  0  0  0  0  0
   47.4700    2.3778    6.5105 Al  0  0  0  0  0 15  0  0  0  0  0  0
   47.4700    2.3778    6.5105 Mg  0  0  0  0  0 15  0  0  0  0  0  0
   46.8409    3.8372    7.1799 O   0  0  0  0  0  0  0  0  0  0  0  0
   48.1823    2.3066    4.9445 O   0  0  0  0  0  0  0  0  0  0  0  0
   47.3890    1.0228    7.3850 O   0  0  0  0  0  0  0  0  0  0  0  0
   47.4677    2.3445    6.5327 Si  0  0  0  0  0  4  0  0  0  0  0  0
   46.7945    3.7018    7.3819 O   0  0  0  0  0  0  0  0  0  0  0  0
   48.1120    2.5810    4.9402 O   0  0  0  0  0  0  0  0  0  0  0  0
   47.5067    0.8924    7.1808 O   0  0  0  0  0  0  0  0  0  0  0  0
   47.4668    2.3361    6.5391 Si  0  0  0  0  0  4  0  0  0  0  0  0
   47.4464    2.0495    6.7317 O   0  0  0  0  0  0  0  0  0  0  0  0
   48.1936    2.2886    4.9600 O   0  0  0  0  0  0  0  0  0  0  0  0
   46.7693    3.8222    7.1273 O   0  0  0  0  0  0  0  0  0  0  0  0
   47.3494    1.0283    7.3726 O   0  0  0  0  0  0  0  0  0  0  0  0
   47.5675    2.3721    6.5823 Si  0  0  0  0  0  4  0  0  0  0  0  0
   47.1068    2.9554    6.9612 H   0  0  0  0  0  0  0  0  0  0  0  0
   47.8567    2.1284    5.8386 H   0  0  0  0  0  0  0  0  0  0  0  0
  4  1  1  0
  4  2  1  0
  4  3  2  0
 11  8  1  0
 11  9  1  0
 11 10  2  0
 15 12  1  0
 15 13  1  0
 15 14  2  0
 20 17  1  0
 20 18  1  0
 20 19  2  0
 16 21  1  0
 16 22  1  0
M  CHG  8   1  -1   2  -1   5   3   6   3   7   2   8  -1   9  -1  12  -1
M  CHG  3  13  -1  17  -1  18  -1
M  END
> <Uni-Dock RESULT> 
ENERGY=   -9.300  LOWER_BOUND=    0.188  UPPER_BOUND=    2.229
INTER + INTRA:          -9.300
INTER:                  -9.300
INTRA:                   0.000
UNBOUND:                 0.000

$$$$

     RDKit          3D

 22 14  0  0  0  0  0  0  0  0999 V2000
   47.2639    0.8642    7.3894 O   0  0  0  0  0  0  0  0  0  0  0  0
   48.1058    2.3407    4.9409 O   0  0  0  0  0  0  0  0  0  0  0  0
   46.9022    3.6604    7.1667 O   0  0  0  0  0  0  0  0  0  0  0  0
   47.6035    2.3655    6.5949 Si  0  0  0  0  0  4  0  0  0  0  0  0
   47.4689    2.3077    6.5230 Al  0  0  0  0  0 15  0  0  0  0  0  0
   47.4689    2.3077    6.5230 Al  0  0  0  0  0 15  0  0  0  0  0  0
   47.4689    2.3077    6.5230 Mg  0  0  0  0  0 15  0  0  0  0  0  0
   48.2170    2.3258    4.9694 O   0  0  0  0  0  0  0  0  0  0  0  0
   47.2426    0.8599    7.4271 O   0  0  0  0  0  0  0  0  0  0  0  0
   46.9594    3.7024    7.1572 O   0  0  0  0  0  0  0  0  0  0  0  0
   47.4565    2.3426    6.5383 Si  0  0  0  0  0  4  0  0  0  0  0  0
   48.1888    2.5715    4.9801 O   0  0  0  0  0  0  0  0  0  0  0  0
   47.3606    0.7420    7.1982 O   0  0  0  0  0  0  0  0  0  0  0  0
   46.8729    3.5650    7.3720 O   0  0  0  0  0  0  0  0  0  0  0  0
   47.4534    2.3522    6.5416 Si  0  0  0  0  0  4  0  0  0  0  0  0
   47.3467    2.6544    6.6718 O   0  0  0  0  0  0  0  0  0  0  0  0
   47.2458    0.8801    7.4438 O   0  0  0  0  0  0  0  0  0  0  0  0
   48.1375    2.2966    4.9386 O   0  0  0  0  0  0  0  0  0  0  0  0
   46.9309    3.6948    7.1275 O   0  0  0  0  0  0  0  0  0  0  0  0
   47.5613    2.3595    6.5820 Si  0  0  0  0  0  4  0  0  0  0  0  0
   47.7667    2.4946    5.7848 H   0  0  0  0  0  0  0  0  0  0  0  0
   47.2931    1.7740    7.1125 H   0  0  0  0  0  0  0  0  0  0  0  0
  4  1  1  0
  4  2  1  0
  4  3  2  0
 11  8  1  0
 11  9  1  0
 11 10  2  0
 15 12  1  0
 15 13  1  0
 15 14  2  0
 20 17  1  0
 20 18  1  0
 20 19  2  0
 16 21  1  0
 16 22  1  0
M  CHG  8   1  -1   2  -1   5   3   6   3   7   2   8  -1   9  -1  12  -1
M  CHG  3  13  -1  17  -1  18  -1
M  END
> <Uni-Dock RESULT> 
ENERGY=   -9.185  LOWER_BOUND=    0.191  UPPER_BOUND=    2.291
INTER + INTRA:          -9.185
INTER:                  -9.185
INTRA:                   0.000
UNBOUND:                 0.000

$$$$

     RDKit          3D

 22 14  0  0  0  0  0  0  0  0999 V2000
   46.2950    4.0668    7.5025 O   0  0  0  0  0  0  0  0  0  0  0  0
   45.0628    1.8020    8.9978 O   0  0  0  0  0  0  0  0  0  0  0  0
   43.9973    4.4472    9.1073 O   0  0  0  0  0  0  0  0  0  0  0  0
   44.9574    3.4173    8.3910 Si  0  0  0  0  0  4  0  0  0  0  0  0
   45.0781    3.4333    8.4997 Al  0  0  0  0  0 15  0  0  0  0  0  0
   45.0781    3.4333    8.4997 Al  0  0  0  0  0 15  0  0  0  0  0  0
   45.0781    3.4333    8.4997 Mg  0  0  0  0  0 15  0  0  0  0  0  0
   45.0243    1.7565    8.8986 O   0  0  0  0  0  0  0  0  0  0  0  0
   46.3010    4.1090    7.4933 O   0  0  0  0  0  0  0  0  0  0  0  0
   43.9376    4.4107    9.0922 O   0  0  0  0  0  0  0  0  0  0  0  0
   45.0495    3.4571    8.5146 Si  0  0  0  0  0  4  0  0  0  0  0  0
   44.8155    1.8118    9.0195 O   0  0  0  0  0  0  0  0  0  0  0  0
   46.3972    3.8425    7.4938 O   0  0  0  0  0  0  0  0  0  0  0  0
   44.0581    4.6160    8.9662 O   0  0  0  0  0  0  0  0  0  0  0  0
   45.0417    3.4628    8.5190 Si  0  0  0  0  0  4  0  0  0  0  0  0
   44.7944    3.6665    8.6490 O   0  0  0  0  0  0  0  0  0  0  0  0
   46.2788    4.1227    7.4903 O   0  0  0  0  0  0  0  0  0  0  0  0
   45.0892    1.7758    8.9581 O   0  0  0  0  0  0  0  0  0  0  0  0
   43.9617    4.4032    9.1256 O   0  0  0  0  0  0  0  0  0  0  0  0
   44.9828    3.4315    8.4248 Si  0  0  0  0  0  4  0  0  0  0  0  0
   44.9180    2.6927    8.8070 H   0  0  0  0  0  0  0  0  0  0  0  0
   45.5221    3.9408    8.0430 H   0  0  0  0  0  0  0  0  0  0  0  0
  4  1  1  0
  4  2  1  0
  4  3  2  0
 11  8  1  0
 11  9  1  0
 11 10  2  0
 15 12  1  0
 15 13  1  0
 15 14  2  0
 20 17  1  0
 20 18  1  0
 20 19  2  0
 16 21  1  0
 16 22  1  0
M  CHG  8   1  -1   2  -1   5   3   6   3   7   2   8  -1   9  -1  12  -1
M  CHG  3  13  -1  17  -1  18  -1
M  END
> <Uni-Dock RESULT> 
ENERGY=   -7.317  LOWER_BOUND=    2.878  UPPER_BOUND=    3.777
INTER + INTRA:          -7.317
INTER:                  -7.317
INTRA:                   0.000
UNBOUND:                 0.000

$$$$

     RDKit          3D

 22 14  0  0  0  0  0  0  0  0999 V2000
   44.9403    1.7955    9.0004 O   0  0  0  0  0  0  0  0  0  0  0  0
   46.0683    3.8551    7.1648 O   0  0  0  0  0  0  0  0  0  0  0  0
   43.9688    4.4518    9.0035 O   0  0  0  0  0  0  0  0  0  0  0  0
   45.1101    3.4589    8.5481 Si  0  0  0  0  0  4  0  0  0  0  0  0
   45.0219    3.3903    8.4292 Al  0  0  0  0  0 15  0  0  0  0  0  0
   45.0219    3.3903    8.4292 Al  0  0  0  0  0 15  0  0  0  0  0  0
   45.0219    3.3903    8.4292 Mg  0  0  0  0  0 15  0  0  0  0  0  0
   46.1661    3.8576    7.2267 O   0  0  0  0  0  0  0  0  0  0  0  0
   44.9105    1.7799    9.0282 O   0  0  0  0  0  0  0  0  0  0  0  0
   44.0137    4.5054    9.0186 O   0  0  0  0  0  0  0  0  0  0  0  0
   44.9971    3.4185    8.4435 Si  0  0  0  0  0  4  0  0  0  0  0  0
   46.0751    4.0859    7.2564 O   0  0  0  0  0  0  0  0  0  0  0  0
   45.1166    1.7344    8.8392 O   0  0  0  0  0  0  0  0  0  0  0  0
   43.9051    4.3146    9.1745 O   0  0  0  0  0  0  0  0  0  0  0  0
   44.9909    3.4264    8.4468 Si  0  0  0  0  0  4  0  0  0  0  0  0
   44.7781    3.6701    8.5689 O   0  0  0  0  0  0  0  0  0  0  0  0
   44.9035    1.7966    9.0472 O   0  0  0  0  0  0  0  0  0  0  0  0
   46.1093    3.8196    7.1679 O   0  0  0  0  0  0  0  0  0  0  0  0
   43.9982    4.4981    8.9804 O   0  0  0  0  0  0  0  0  0  0  0  0
   45.0765    3.4472    8.5214 Si  0  0  0  0  0  4  0  0  0  0  0  0
   45.4676    3.7721    7.8598 H   0  0  0  0  0  0  0  0  0  0  0  0
   44.8200    2.7287    8.8590 H   0  0  0  0  0  0  0  0  0  0  0  0
  4  1  1  0
  4  2  1  0
  4  3  2  0
 11  8  1  0
 11  9  1  0
 11 10  2  0
 15 12  1  0
 15 13  1  0
 15 14  2  0
 20 17  1  0
 20 18  1  0
 20 19  2  0
 16 21  1  0
 16 22  1  0
M  CHG  8   1  -1   2  -1   5   3   6   3   7   2   8  -1   9  -1  12  -1
M  CHG  3  13  -1  17  -1  18  -1
M  END
> <Uni-Dock RESULT> 
ENERGY=   -7.284  LOWER_BOUND=    2.880  UPPER_BOUND=    4.093
INTER + INTRA:          -7.284
INTER:                  -7.284
INTRA:                   0.000
UNBOUND:                 0.000

$$$$

     RDKit          3D

 22 14  0  0  0  0  0  0  0  0999 V2000
   44.4679    6.3962   12.9598 O   0  0  0  0  0  0  0  0  0  0  0  0
   43.4223    3.6094   13.1154 O   0  0  0  0  0  0  0  0  0  0  0  0
   41.9879    5.6939   11.7954 O   0  0  0  0  0  0  0  0  0  0  0  0
   43.3495    5.1896   12.4180 Si  0  0  0  0  0  4  0  0  0  0  0  0
   43.3069    5.2223   12.5721 Al  0  0  0  0  0 15  0  0  0  0  0  0
   43.3069    5.2223   12.5721 Al  0  0  0  0  0 15  0  0  0  0  0  0
   43.3069    5.2223   12.5721 Mg  0  0  0  0  0 15  0  0  0  0  0  0
   43.5031    3.5742   13.0403 O   0  0  0  0  0  0  0  0  0  0  0  0
   44.4644    6.4390   12.9523 O   0  0  0  0  0  0  0  0  0  0  0  0
   41.9863    5.6437   11.7443 O   0  0  0  0  0  0  0  0  0  0  0  0
   43.2740    5.2322   12.5516 Si  0  0  0  0  0  4  0  0  0  0  0  0
   43.2916    3.5345   12.9179 O   0  0  0  0  0  0  0  0  0  0  0  0
   44.5943    6.2232   13.0820 O   0  0  0  0  0  0  0  0  0  0  0  0
   42.0769    5.8973   11.7425 O   0  0  0  0  0  0  0  0  0  0  0  0
   43.2650    5.2340   12.5462 Si  0  0  0  0  0  4  0  0  0  0  0  0
   42.9800    5.3175   12.3690 O   0  0  0  0  0  0  0  0  0  0  0  0
   44.4526    6.4452   12.9297 O   0  0  0  0  0  0  0  0  0  0  0  0
   43.4757    3.6015   13.1218 O   0  0  0  0  0  0  0  0  0  0  0  0
   41.9715    5.6380   11.7830 O   0  0  0  0  0  0  0  0  0  0  0  0
   43.3278    5.2044   12.4540 Si  0  0  0  0  0  4  0  0  0  0  0  0
   43.2239    4.4247   12.7325 H   0  0  0  0  0  0  0  0  0  0  0  0
   43.7169    5.9246   12.6150 H   0  0  0  0  0  0  0  0  0  0  0  0
  4  1  1  0
  4  2  1  0
  4  3  2  0
 11  8  1  0
 11  9  1  0
 11 10  2  0
 15 12  1  0
 15 13  1  0
 15 14  2  0
 20 17  1  0
 20 18  1  0
 20 19  2  0
 16 21  1  0
 16 22  1  0
M  CHG  8   1  -1   2  -1   5   3   6   3   7   2   8  -1   9  -1  12  -1
M  CHG  3  13  -1  17  -1  18  -1
M  END
> <Uni-Dock RESULT> 
ENERGY=   -7.080  LOWER_BOUND=    7.879  UPPER_BOUND=    8.030
INTER + INTRA:          -7.080
INTER:                  -7.080
INTRA:                   0.000
UNBOUND:                 0.000

$$$$

     RDKit          3D

 22 14  0  0  0  0  0  0  0  0999 V2000
   42.8472    5.3779   13.1769 O   0  0  0  0  0  0  0  0  0  0  0  0
   43.1708    2.7549   11.7991 O   0  0  0  0  0  0  0  0  0  0  0  0
   43.3019    5.2327   10.3892 O   0  0  0  0  0  0  0  0  0  0  0  0
   43.3228    4.4767   11.7762 Si  0  0  0  0  0  4  0  0  0  0  0  0
   43.1607    4.4605   11.7854 Al  0  0  0  0  0 15  0  0  0  0  0  0
   43.1607    4.4605   11.7854 Al  0  0  0  0  0 15  0  0  0  0  0  0
   43.1607    4.4605   11.7854 Mg  0  0  0  0  0 15  0  0  0  0  0  0
   43.2747    2.7410   11.8484 O   0  0  0  0  0  0  0  0  0  0  0  0
   42.8405    5.4210   13.1781 O   0  0  0  0  0  0  0  0  0  0  0  0
   43.3619    5.2018   10.3651 O   0  0  0  0  0  0  0  0  0  0  0  0
   43.1658    4.4784   11.7498 Si  0  0  0  0  0  4  0  0  0  0  0  0
   43.3285    2.7551   11.6072 O   0  0  0  0  0  0  0  0  0  0  0  0
   42.8273    5.1678   13.3045 O   0  0  0  0  0  0  0  0  0  0  0  0
   43.3199    5.4368   10.4898 O   0  0  0  0  0  0  0  0  0  0  0  0
   43.1673    4.4824   11.7401 Si  0  0  0  0  0  4  0  0  0  0  0  0
   43.2115    4.6349   11.4329 O   0  0  0  0  0  0  0  0  0  0  0  0
   42.8554    5.4348   13.1614 O   0  0  0  0  0  0  0  0  0  0  0  0
   43.1846    2.7422   11.8502 O   0  0  0  0  0  0  0  0  0  0  0  0
   43.3238    5.1848   10.3614 O   0  0  0  0  0  0  0  0  0  0  0  0
   43.2791    4.4804   11.7684 Si  0  0  0  0  0  4  0  0  0  0  0  0
   43.2184    3.6601   11.6287 H   0  0  0  0  0  0  0  0  0  0  0  0
   43.0522    5.0868   12.2946 H   0  0  0  0  0  0  0  0  0  0  0  0
  4  1  1  0
  4  2  1  0
  4  3  2  0
 11  8  1  0
 11  9  1  0
 11 10  2  0
 15 12  1  0
 15 13  1  0
 15 14  2  0
 20 17  1  0
 20 18  1  0
 20 19  2  0
 16 21  1  0
 16 22  1  0
M  CHG  8   1  -1   2  -1   5   3   6   3   7   2   8  -1   9  -1  12  -1
M  CHG  3  13  -1  17  -1  18  -1
M  END
> <Uni-Dock RESULT> 
ENERGY=   -6.987  LOWER_BOUND=    6.656  UPPER_BOUND=    7.189
INTER + INTRA:          -6.987
INTER:                  -6.987
INTRA:                   0.000
UNBOUND:                 0.000

$$$$

     RDKit          3D

 22 14  0  0  0  0  0  0  0  0999 V2000
   43.4625    5.0288   10.2159 O   0  0  0  0  0  0  0  0  0  0  0  0
   42.7696    5.3370   13.0984 O   0  0  0  0  0  0  0  0  0  0  0  0
   43.2563    2.7826   11.9223 O   0  0  0  0  0  0  0  0  0  0  0  0
   43.3691    4.3543   11.8086 Si  0  0  0  0  0  4  0  0  0  0  0  0
   43.2144    4.3757   11.7613 Al  0  0  0  0  0 15  0  0  0  0  0  0
   43.2144    4.3757   11.7613 Al  0  0  0  0  0 15  0  0  0  0  0  0
   43.2144    4.3757   11.7613 Mg  0  0  0  0  0 15  0  0  0  0  0  0
   42.8739    5.3825   13.1193 O   0  0  0  0  0  0  0  0  0  0  0  0
   43.4680    5.0060   10.1792 O   0  0  0  0  0  0  0  0  0  0  0  0
   43.2992    2.7781   11.9794 O   0  0  0  0  0  0  0  0  0  0  0  0
   43.2164    4.3361   11.7673 Si  0  0  0  0  0  4  0  0  0  0  0  0
   42.8769    5.1729   13.2509 O   0  0  0  0  0  0  0  0  0  0  0  0
   43.4147    5.2523   10.3085 O   0  0  0  0  0  0  0  0  0  0  0  0
   43.3493    2.7519   11.7161 O   0  0  0  0  0  0  0  0  0  0  0  0
   43.2167    4.3257   11.7697 Si  0  0  0  0  0  4  0  0  0  0  0  0
   43.2337    3.9845   11.8233 O   0  0  0  0  0  0  0  0  0  0  0  0
   43.4821    4.9840   10.1821 O   0  0  0  0  0  0  0  0  0  0  0  0
   42.7899    5.3860   13.0867 O   0  0  0  0  0  0  0  0  0  0  0  0
   43.2581    2.7856   11.9817 O   0  0  0  0  0  0  0  0  0  0  0  0
   43.3273    4.3471   11.7949 Si  0  0  0  0  0  4  0  0  0  0  0  0
   43.0205    4.6898   12.4910 H   0  0  0  0  0  0  0  0  0  0  0  0
   43.3889    4.4527   10.9696 H   0  0  0  0  0  0  0  0  0  0  0  0
  4  1  1  0
  4  2  1  0
  4  3  2  0
 11  8  1  0
 11  9  1  0
 11 10  2  0
 15 12  1  0
 15 13  1  0
 15 14  2  0
 20 17  1  0
 20 18  1  0
 20 19  2  0
 16 21  1  0
 16 22  1  0
M  CHG  8   1  -1   2  -1   5   3   6   3   7   2   8  -1   9  -1  12  -1
M  CHG  3  13  -1  17  -1  18  -1
M  END
> <Uni-Dock RESULT> 
ENERGY=   -6.897  LOWER_BOUND=    6.530  UPPER_BOUND=    7.324
INTER + INTRA:          -6.897
INTER:                  -6.897
INTRA:                   0.000
UNBOUND:                 0.000

$$$$

     RDKit          3D

 22 14  0  0  0  0  0  0  0  0999 V2000
   42.0229    5.9411   11.7441 O   0  0  0  0  0  0  0  0  0  0  0  0
   43.3816    3.3773   12.4257 O   0  0  0  0  0  0  0  0  0  0  0  0
   44.4965    5.9123   13.1152 O   0  0  0  0  0  0  0  0  0  0  0  0
   43.2374    5.0871   12.6364 Si  0  0  0  0  0  4  0  0  0  0  0  0
   43.2846    5.0794   12.4804 Al  0  0  0  0  0 15  0  0  0  0  0  0
   43.2846    5.0794   12.4804 Al  0  0  0  0  0 15  0  0  0  0  0  0
   43.2846    5.0794   12.4804 Mg  0  0  0  0  0 15  0  0  0  0  0  0
   43.3012    3.3553   12.5060 O   0  0  0  0  0  0  0  0  0  0  0  0
   42.0212    5.9843   11.7390 O   0  0  0  0  0  0  0  0  0  0  0  0
   44.5009    5.8794   13.1787 O   0  0  0  0  0  0  0  0  0  0  0  0
   43.3150    5.0988   12.4979 Si  0  0  0  0  0  4  0  0  0  0  0  0
   43.5085    3.3785   12.6392 O   0  0  0  0  0  0  0  0  0  0  0  0
   41.9238    5.7262   11.6747 O   0  0  0  0  0  0  0  0  0  0  0  0
   44.3824    6.1097   13.1050 O   0  0  0  0  0  0  0  0  0  0  0  0
   43.3234    5.1032   12.5027 Si  0  0  0  0  0  4  0  0  0  0  0  0
   43.5868    5.2683   12.6542 O   0  0  0  0  0  0  0  0  0  0  0  0
   42.0310    5.9981   11.7591 O   0  0  0  0  0  0  0  0  0  0  0  0
   43.3298    3.3613   12.4208 O   0  0  0  0  0  0  0  0  0  0  0  0
   44.5184    5.8648   13.1436 O   0  0  0  0  0  0  0  0  0  0  0  0
   43.2592    5.0935   12.5981 Si  0  0  0  0  0  4  0  0  0  0  0  0
   43.4654    4.2859   12.5600 H   0  0  0  0  0  0  0  0  0  0  0  0
   42.8015    5.6841   12.2270 H   0  0  0  0  0  0  0  0  0  0  0  0
  4  1  1  0
  4  2  1  0
  4  3  2  0
 11  8  1  0
 11  9  1  0
 11 10  2  0
 15 12  1  0
 15 13  1  0
 15 14  2  0
 20 17  1  0
 20 18  1  0
 20 19  2  0
 16 21  1  0
 16 22  1  0
M  CHG  8   1  -1   2  -1   5   3   6   3   7   2   8  -1   9  -1  12  -1
M  CHG  3  13  -1  17  -1  18  -1
M  END
> <Uni-Dock RESULT> 
ENERGY=   -6.883  LOWER_BOUND=    7.592  UPPER_BOUND=    7.931
INTER + INTRA:          -6.883
INTER:                  -6.883
INTRA:                   0.000
UNBOUND:                 0.000

$$$$
