
     RDKit          3D

 22 14  0  0  0  0  0  0  0  0999 V2000
   48.1714    2.5705    4.9663 O   0  0  0  0  0  0  0  0  0  0  0  0
   46.8881    3.8183    7.3587 O   0  0  0  0  0  0  0  0  0  0  0  0
   47.5244    1.0342    7.2923 O   0  0  0  0  0  0  0  0  0  0  0  0
   47.4056    2.3907    6.5117 Si  0  0  0  0  0  4  0  0  0  0  0  0
   47.4974    2.4534    6.5322 Al  0  0  0  0  0 15  0  0  0  0  0  0
   47.4974    2.4534    6.5322 Al  0  0  0  0  0 15  0  0  0  0  0  0
   47.4974    2.4534    6.5322 Mg  0  0  0  0  0 15  0  0  0  0  0  0
   48.2260    2.2700    4.9770 O   0  0  0  0  0  0  0  0  0  0  0  0
   46.9703    3.9626    7.1110 O   0  0  0  0  0  0  0  0  0  0  0  0
   47.3922    1.1933    7.5342 O   0  0  0  0  0  0  0  0  0  0  0  0
   47.4010    2.3878    6.5067 Si  0  0  0  0  0  4  0  0  0  0  0  0
   48.0863    2.4851    4.9201 O   0  0  0  0  0  0  0  0  0  0  0  0
   46.9310    3.8658    7.3132 O   0  0  0  0  0  0  0  0  0  0  0  0
   47.4627    1.0560    7.3370 O   0  0  0  0  0  0  0  0  0  0  0  0
   47.5097    2.4068    6.5586 Si  0  0  0  0  0  4  0  0  0  0  0  0
   47.5025    2.0895    6.7067 O   0  0  0  0  0  0  0  0  0  0  0  0
   46.8933    3.8269    7.3692 O   0  0  0  0  0  0  0  0  0  0  0  0
   48.1874    2.5219    4.9449 O   0  0  0  0  0  0  0  0  0  0  0  0
   47.5115    1.0598    7.3176 O   0  0  0  0  0  0  0  0  0  0  0  0
   47.3974    2.4051    6.4972 Si  0  0  0  0  0  4  0  0  0  0  0  0
   47.1618    2.9390    7.0942 H   0  0  0  0  0  0  0  0  0  0  0  0
   47.8279    2.3317    5.7959 H   0  0  0  0  0  0  0  0  0  0  0  0
  4  1  1  0
  4  2  1  0
  4  3  2  0
 11  8  1  0
 11  9  1  0
 11 10  2  0
 15 12  1  0
 15 13  1  0
 15 14  2  0
 20 17  1  0
 20 18  1  0
 20 19  2  0
 16 21  1  0
 16 22  1  0
M  CHG  8   1  -1   2  -1   5   3   6   3   7   2   8  -1   9  -1  12  -1
M  CHG  3  13  -1  17  -1  18  -1
M  END
> <Uni-Dock RESULT> 
ENERGY=   -9.337  LOWER_BOUND=    0.000  UPPER_BOUND=    0.000
INTER + INTRA:          -9.337
INTER:                  -9.337
INTRA:                   0.000
UNBOUND:                 0.000

$$$$

     RDKit          3D

 22 14  0  0  0  0  0  0  0  0999 V2000
   46.7233    3.8241    7.0487 O   0  0  0  0  0  0  0  0  0  0  0  0
   48.2126    2.2845    4.9657 O   0  0  0  0  0  0  0  0  0  0  0  0
   47.3465    1.0524    7.3933 O   0  0  0  0  0  0  0  0  0  0  0  0
   47.5411    2.3729    6.5672 Si  0  0  0  0  0  4  0  0  0  0  0  0
   47.4559    2.3835    6.4937 Al  0  0  0  0  0 15  0  0  0  0  0  0
   47.4559    2.3835    6.4937 Al  0  0  0  0  0 15  0  0  0  0  0  0
   47.4559    2.3835    6.4937 Mg  0  0  0  0  0 15  0  0  0  0  0  0
   46.6446    3.6753    7.3038 O   0  0  0  0  0  0  0  0  0  0  0  0
   48.1314    2.5706    4.9449 O   0  0  0  0  0  0  0  0  0  0  0  0
   47.5023    0.9121    7.1538 O   0  0  0  0  0  0  0  0  0  0  0  0
   47.5453    2.3759    6.5724 Si  0  0  0  0  0  4  0  0  0  0  0  0
   46.7988    3.8258    7.1533 O   0  0  0  0  0  0  0  0  0  0  0  0
   48.1718    2.3466    4.9408 O   0  0  0  0  0  0  0  0  0  0  0  0
   47.4118    1.0231    7.3592 O   0  0  0  0  0  0  0  0  0  0  0  0
   47.4410    2.3385    6.5216 Si  0  0  0  0  0  4  0  0  0  0  0  0
   47.4287    2.0603    6.7340 O   0  0  0  0  0  0  0  0  0  0  0  0
   48.2086    2.2790    4.9528 O   0  0  0  0  0  0  0  0  0  0  0  0
   46.7024    3.8206    7.1000 O   0  0  0  0  0  0  0  0  0  0  0  0
   47.3627    1.0419    7.3602 O   0  0  0  0  0  0  0  0  0  0  0  0
   47.5498    2.3923    6.5619 Si  0  0  0  0  0  4  0  0  0  0  0  0
   47.8556    2.1110    5.8378 H   0  0  0  0  0  0  0  0  0  0  0  0
   47.0834    2.9790    6.9094 H   0  0  0  0  0  0  0  0  0  0  0  0
  4  1  1  0
  4  2  1  0
  4  3  2  0
 11  8  1  0
 11  9  1  0
 11 10  2  0
 15 12  1  0
 15 13  1  0
 15 14  2  0
 20 17  1  0
 20 18  1  0
 20 19  2  0
 16 21  1  0
 16 22  1  0
M  CHG  8   1  -1   2  -1   5   3   6   3   7   2   8  -1   9  -1  12  -1
M  CHG  3  13  -1  17  -1  18  -1
M  END
> <Uni-Dock RESULT> 
ENERGY=   -9.304  LOWER_BOUND=    0.146  UPPER_BOUND=    1.905
INTER + INTRA:          -9.304
INTER:                  -9.304
INTRA:                   0.000
UNBOUND:                 0.000

$$$$

     RDKit          3D

 22 14  0  0  0  0  0  0  0  0999 V2000
   48.1451    2.2736    4.9597 O   0  0  0  0  0  0  0  0  0  0  0  0
   47.2429    0.8753    7.4412 O   0  0  0  0  0  0  0  0  0  0  0  0
   46.9300    3.6971    7.1244 O   0  0  0  0  0  0  0  0  0  0  0  0
   47.5451    2.3578    6.5844 Si  0  0  0  0  0  4  0  0  0  0  0  0
   47.4658    2.3010    6.5274 Al  0  0  0  0  0 15  0  0  0  0  0  0
   47.4658    2.3010    6.5274 Al  0  0  0  0  0 15  0  0  0  0  0  0
   47.4658    2.3010    6.5274 Mg  0  0  0  0  0 15  0  0  0  0  0  0
   48.1079    2.5767    4.9479 O   0  0  0  0  0  0  0  0  0  0  0  0
   47.3637    0.7439    7.2024 O   0  0  0  0  0  0  0  0  0  0  0  0
   46.8396    3.5227    7.3748 O   0  0  0  0  0  0  0  0  0  0  0  0
   47.5520    2.3605    6.5846 Si  0  0  0  0  0  4  0  0  0  0  0  0
   48.2392    2.3542    4.9958 O   0  0  0  0  0  0  0  0  0  0  0  0
   47.2455    0.8322    7.3758 O   0  0  0  0  0  0  0  0  0  0  0  0
   46.9390    3.6699    7.1983 O   0  0  0  0  0  0  0  0  0  0  0  0
   47.4393    2.3476    6.5397 Si  0  0  0  0  0  4  0  0  0  0  0  0
   47.3445    2.6594    6.6679 O   0  0  0  0  0  0  0  0  0  0  0  0
   47.2314    0.8669    7.4441 O   0  0  0  0  0  0  0  0  0  0  0  0
   48.1511    2.3237    4.9367 O   0  0  0  0  0  0  0  0  0  0  0  0
   46.9197    3.6700    7.1494 O   0  0  0  0  0  0  0  0  0  0  0  0
   47.5609    2.3433    6.5795 Si  0  0  0  0  0  4  0  0  0  0  0  0
   47.2721    1.7783    7.1220 H   0  0  0  0  0  0  0  0  0  0  0  0
   47.7806    2.4653    5.7925 H   0  0  0  0  0  0  0  0  0  0  0  0
  4  1  1  0
  4  2  1  0
  4  3  2  0
 11  8  1  0
 11  9  1  0
 11 10  2  0
 15 12  1  0
 15 13  1  0
 15 14  2  0
 20 17  1  0
 20 18  1  0
 20 19  2  0
 16 21  1  0
 16 22  1  0
M  CHG  8   1  -1   2  -1   5   3   6   3   7   2   8  -1   9  -1  12  -1
M  CHG  3  13  -1  17  -1  18  -1
M  END
> <Uni-Dock RESULT> 
ENERGY=   -9.203  LOWER_BOUND=    0.242  UPPER_BOUND=    1.815
INTER + INTRA:          -9.203
INTER:                  -9.203
INTRA:                   0.000
UNBOUND:                 0.000

$$$$

     RDKit          3D

 22 14  0  0  0  0  0  0  0  0999 V2000
   46.2032    4.1364    7.5656 O   0  0  0  0  0  0  0  0  0  0  0  0
   43.8665    4.4694    9.3974 O   0  0  0  0  0  0  0  0  0  0  0  0
   45.0123    1.9009    8.8971 O   0  0  0  0  0  0  0  0  0  0  0  0
   44.9446    3.4234    8.5217 Si  0  0  0  0  0  4  0  0  0  0  0  0
   45.0066    3.4825    8.5954 Al  0  0  0  0  0 15  0  0  0  0  0  0
   45.0066    3.4825    8.5954 Al  0  0  0  0  0 15  0  0  0  0  0  0
   45.0066    3.4825    8.5954 Mg  0  0  0  0  0 15  0  0  0  0  0  0
   46.3073    3.8526    7.5209 O   0  0  0  0  0  0  0  0  0  0  0  0
   44.0090    4.6901    9.2564 O   0  0  0  0  0  0  0  0  0  0  0  0
   44.7673    1.9656    9.0897 O   0  0  0  0  0  0  0  0  0  0  0  0
   44.9429    3.4220    8.5147 Si  0  0  0  0  0  4  0  0  0  0  0  0
   46.1617    4.0645    7.4667 O   0  0  0  0  0  0  0  0  0  0  0  0
   43.9134    4.5317    9.3890 O   0  0  0  0  0  0  0  0  0  0  0  0
   44.9350    1.9031    8.9146 O   0  0  0  0  0  0  0  0  0  0  0  0
   45.0166    3.4309    8.6115 Si  0  0  0  0  0  4  0  0  0  0  0  0
   45.0145    3.0833    8.6544 O   0  0  0  0  0  0  0  0  0  0  0  0
   43.8653    4.4745    9.4110 O   0  0  0  0  0  0  0  0  0  0  0  0
   46.2356    4.0984    7.5414 O   0  0  0  0  0  0  0  0  0  0  0  0
   44.9856    1.9162    8.9200 O   0  0  0  0  0  0  0  0  0  0  0  0
   44.9401    3.4410    8.5094 Si  0  0  0  0  0  4  0  0  0  0  0  0
   44.3892    3.7404    9.0606 H   0  0  0  0  0  0  0  0  0  0  0  0
   45.6163    3.6237    8.0714 H   0  0  0  0  0  0  0  0  0  0  0  0
  4  1  1  0
  4  2  1  0
  4  3  2  0
 11  8  1  0
 11  9  1  0
 11 10  2  0
 15 12  1  0
 15 13  1  0
 15 14  2  0
 20 17  1  0
 20 18  1  0
 20 19  2  0
 16 21  1  0
 16 22  1  0
M  CHG  8   1  -1   2  -1   5   3   6   3   7   2   8  -1   9  -1  12  -1
M  CHG  3  13  -1  17  -1  18  -1
M  END
> <Uni-Dock RESULT> 
ENERGY=   -7.112  LOWER_BOUND=    2.959  UPPER_BOUND=    3.435
INTER + INTRA:          -7.112
INTER:                  -7.112
INTRA:                   0.000
UNBOUND:                 0.000

$$$$

     RDKit          3D

 22 14  0  0  0  0  0  0  0  0999 V2000
   43.2875    5.2247   10.3333 O   0  0  0  0  0  0  0  0  0  0  0  0
   43.3103    2.8008   12.0801 O   0  0  0  0  0  0  0  0  0  0  0  0
   42.8023    5.4012   13.1480 O   0  0  0  0  0  0  0  0  0  0  0  0
   43.2554    4.5315   11.9224 Si  0  0  0  0  0  4  0  0  0  0  0  0
   43.1639    4.4896   11.8710 Al  0  0  0  0  0 15  0  0  0  0  0  0
   43.1639    4.4896   11.8710 Al  0  0  0  0  0 15  0  0  0  0  0  0
   43.1639    4.4896   11.8710 Mg  0  0  0  0  0 15  0  0  0  0  0  0
   43.2369    5.4943   10.4680 O   0  0  0  0  0  0  0  0  0  0  0  0
   43.3504    2.8019   11.7846 O   0  0  0  0  0  0  0  0  0  0  0  0
   42.8065    5.1269   13.3093 O   0  0  0  0  0  0  0  0  0  0  0  0
   43.2618    4.5351   11.9218 Si  0  0  0  0  0  4  0  0  0  0  0  0
   43.3851    5.2990   10.3734 O   0  0  0  0  0  0  0  0  0  0  0  0
   43.2929    2.7893   12.0046 O   0  0  0  0  0  0  0  0  0  0  0  0
   42.8363    5.3484   13.1963 O   0  0  0  0  0  0  0  0  0  0  0  0
   43.1412    4.5216   11.9094 Si  0  0  0  0  0  4  0  0  0  0  0  0
   43.0822    4.7318   12.1833 O   0  0  0  0  0  0  0  0  0  0  0  0
   43.3008    2.7900   12.0820 O   0  0  0  0  0  0  0  0  0  0  0  0
   43.2837    5.2800   10.3343 O   0  0  0  0  0  0  0  0  0  0  0  0
   42.8019    5.3649   13.1601 O   0  0  0  0  0  0  0  0  0  0  0  0
   43.2692    4.5234   11.9074 Si  0  0  0  0  0  4  0  0  0  0  0  0
   43.1978    3.7448   12.2000 H   0  0  0  0  0  0  0  0  0  0  0  0
   43.2117    4.9922   11.2296 H   0  0  0  0  0  0  0  0  0  0  0  0
  4  1  1  0
  4  2  1  0
  4  3  2  0
 11  8  1  0
 11  9  1  0
 11 10  2  0
 15 12  1  0
 15 13  1  0
 15 14  2  0
 20 17  1  0
 20 18  1  0
 20 19  2  0
 16 21  1  0
 16 22  1  0
M  CHG  8   1  -1   2  -1   5   3   6   3   7   2   8  -1   9  -1  12  -1
M  CHG  3  13  -1  17  -1  18  -1
M  END
> <Uni-Dock RESULT> 
ENERGY=   -6.948  LOWER_BOUND=    6.685  UPPER_BOUND=    7.420
INTER + INTRA:          -6.948
INTER:                  -6.948
INTRA:                   0.000
UNBOUND:                 0.000

$$$$

     RDKit          3D

 22 14  0  0  0  0  0  0  0  0999 V2000
   42.8021    5.3842   13.0575 O   0  0  0  0  0  0  0  0  0  0  0  0
   43.4853    4.9865   10.1761 O   0  0  0  0  0  0  0  0  0  0  0  0
   43.2366    2.7745   11.9667 O   0  0  0  0  0  0  0  0  0  0  0  0
   43.3097    4.3309   11.7770 Si  0  0  0  0  0  4  0  0  0  0  0  0
   43.2084    4.3690   11.7443 Al  0  0  0  0  0 15  0  0  0  0  0  0
   43.2084    4.3690   11.7443 Al  0  0  0  0  0 15  0  0  0  0  0  0
   43.2084    4.3690   11.7443 Mg  0  0  0  0  0 15  0  0  0  0  0  0
   42.7859    5.1350   13.2336 O   0  0  0  0  0  0  0  0  0  0  0  0
   43.4286    5.2487   10.3063 O   0  0  0  0  0  0  0  0  0  0  0  0
   43.3038    2.7610   11.6558 O   0  0  0  0  0  0  0  0  0  0  0  0
   43.3154    4.3315   11.7815 Si  0  0  0  0  0  4  0  0  0  0  0  0
   42.9041    5.3429   13.1249 O   0  0  0  0  0  0  0  0  0  0  0  0
   43.4451    5.0514   10.1939 O   0  0  0  0  0  0  0  0  0  0  0  0
   43.2864    2.7661   11.9056 O   0  0  0  0  0  0  0  0  0  0  0  0
   43.1979    4.3158   11.7530 Si  0  0  0  0  0  4  0  0  0  0  0  0
   43.2209    3.9722   11.8171 O   0  0  0  0  0  0  0  0  0  0  0  0
   43.4774    4.9872   10.1640 O   0  0  0  0  0  0  0  0  0  0  0  0
   42.7964    5.3576   13.1058 O   0  0  0  0  0  0  0  0  0  0  0  0
   43.2416    2.7804   11.9291 O   0  0  0  0  0  0  0  0  0  0  0  0
   43.3183    4.3511   11.7783 Si  0  0  0  0  0  4  0  0  0  0  0  0
   43.3773    4.4312   10.9495 H   0  0  0  0  0  0  0  0  0  0  0  0
   43.0271    4.7036   12.4664 H   0  0  0  0  0  0  0  0  0  0  0  0
  4  1  1  0
  4  2  1  0
  4  3  2  0
 11  8  1  0
 11  9  1  0
 11 10  2  0
 15 12  1  0
 15 13  1  0
 15 14  2  0
 20 17  1  0
 20 18  1  0
 20 19  2  0
 16 21  1  0
 16 22  1  0
M  CHG  8   1  -1   2  -1   5   3   6   3   7   2   8  -1   9  -1  12  -1
M  CHG  3  13  -1  17  -1  18  -1
M  END
> <Uni-Dock RESULT> 
ENERGY=   -6.931  LOWER_BOUND=    6.480  UPPER_BOUND=    7.263
INTER + INTRA:          -6.931
INTER:                  -6.931
INTRA:                   0.000
UNBOUND:                 0.000

$$$$

     RDKit          3D

 22 14  0  0  0  0  0  0  0  0999 V2000
   45.7857    1.4139    8.6221 O   0  0  0  0  0  0  0  0  0  0  0  0
   43.8841    2.5466   10.6291 O   0  0  0  0  0  0  0  0  0  0  0  0
   44.4591    3.9118    8.1865 O   0  0  0  0  0  0  0  0  0  0  0  0
   44.8069    2.7372    9.1678 Si  0  0  0  0  0  4  0  0  0  0  0  0
   44.7339    2.6524    9.1514 Al  0  0  0  0  0 15  0  0  0  0  0  0
   44.7339    2.6524    9.1514 Al  0  0  0  0  0 15  0  0  0  0  0  0
   44.7339    2.6524    9.1514 Mg  0  0  0  0  0 15  0  0  0  0  0  0
   45.8379    1.5783    8.3699 O   0  0  0  0  0  0  0  0  0  0  0  0
   44.0254    2.2850   10.6525 O   0  0  0  0  0  0  0  0  0  0  0  0
   44.2586    4.0067    8.4148 O   0  0  0  0  0  0  0  0  0  0  0  0
   44.8139    2.7393    9.1685 Si  0  0  0  0  0  4  0  0  0  0  0  0
   45.8845    1.4966    8.6152 O   0  0  0  0  0  0  0  0  0  0  0  0
   43.8928    2.4687   10.6293 O   0  0  0  0  0  0  0  0  0  0  0  0
   44.4394    3.9564    8.2490 O   0  0  0  0  0  0  0  0  0  0  0  0
   44.7190    2.6876    9.1119 Si  0  0  0  0  0  4  0  0  0  0  0  0
   44.6820    2.9665    8.9033 O   0  0  0  0  0  0  0  0  0  0  0  0
   43.8704    2.5432   10.6327 O   0  0  0  0  0  0  0  0  0  0  0  0
   45.8113    1.4250    8.5742 O   0  0  0  0  0  0  0  0  0  0  0  0
   44.4352    3.9155    8.2162 O   0  0  0  0  0  0  0  0  0  0  0  0
   44.8188    2.7259    9.1824 Si  0  0  0  0  0  4  0  0  0  0  0  0
   44.2475    2.8160    9.7844 H   0  0  0  0  0  0  0  0  0  0  0  0
   45.2724    2.1748    8.7664 H   0  0  0  0  0  0  0  0  0  0  0  0
  4  1  1  0
  4  2  1  0
  4  3  2  0
 11  8  1  0
 11  9  1  0
 11 10  2  0
 15 12  1  0
 15 13  1  0
 15 14  2  0
 20 17  1  0
 20 18  1  0
 20 19  2  0
 16 21  1  0
 16 22  1  0
M  CHG  8   1  -1   2  -1   5   3   6   3   7   2   8  -1   9  -1  12  -1
M  CHG  3  13  -1  17  -1  18  -1
M  END
> <Uni-Dock RESULT> 
ENERGY=   -6.910  LOWER_BOUND=    3.432  UPPER_BOUND=    4.205
INTER + INTRA:          -6.910
INTER:                  -6.910
INTRA:                   0.000
UNBOUND:                 0.000

$$$$

     RDKit          3D

 22 14  0  0  0  0  0  0  0  0999 V2000
   43.2484    3.3583   12.2230 O   0  0  0  0  0  0  0  0  0  0  0  0
   42.0368    6.0517   11.7705 O   0  0  0  0  0  0  0  0  0  0  0  0
   44.4929    5.7441   13.1967 O   0  0  0  0  0  0  0  0  0  0  0  0
   43.2381    5.0620   12.5456 Si  0  0  0  0  0  4  0  0  0  0  0  0
   43.2541    5.0540   12.4340 Al  0  0  0  0  0 15  0  0  0  0  0  0
   43.2541    5.0540   12.4340 Al  0  0  0  0  0 15  0  0  0  0  0  0
   43.2541    5.0540   12.4340 Mg  0  0  0  0  0 15  0  0  0  0  0  0
   43.5085    3.3464   12.3830 O   0  0  0  0  0  0  0  0  0  0  0  0
   41.9271    5.7931   11.6704 O   0  0  0  0  0  0  0  0  0  0  0  0
   44.3443    6.0177   13.1306 O   0  0  0  0  0  0  0  0  0  0  0  0
   43.2363    5.0587   12.5519 Si  0  0  0  0  0  4  0  0  0  0  0  0
   43.2479    3.3393   12.3507 O   0  0  0  0  0  0  0  0  0  0  0  0
   42.0187    5.9960   11.7185 O   0  0  0  0  0  0  0  0  0  0  0  0
   44.4475    5.8061   13.2160 O   0  0  0  0  0  0  0  0  0  0  0  0
   43.3023    5.0744   12.4506 Si  0  0  0  0  0  4  0  0  0  0  0  0
   43.5661    5.2121   12.6353 O   0  0  0  0  0  0  0  0  0  0  0  0
   42.0361    6.0603   11.7588 O   0  0  0  0  0  0  0  0  0  0  0  0
   43.2899    3.3321   12.2489 O   0  0  0  0  0  0  0  0  0  0  0  0
   44.4713    5.7726   13.1831 O   0  0  0  0  0  0  0  0  0  0  0  0
   43.2191    5.0510   12.5450 Si  0  0  0  0  0  4  0  0  0  0  0  0
   42.8049    5.7005   12.2231 H   0  0  0  0  0  0  0  0  0  0  0  0
   43.3913    4.2494   12.4435 H   0  0  0  0  0  0  0  0  0  0  0  0
  4  1  1  0
  4  2  1  0
  4  3  2  0
 11  8  1  0
 11  9  1  0
 11 10  2  0
 15 12  1  0
 15 13  1  0
 15 14  2  0
 20 17  1  0
 20 18  1  0
 20 19  2  0
 16 21  1  0
 16 22  1  0
M  CHG  8   1  -1   2  -1   5   3   6   3   7   2   8  -1   9  -1  12  -1
M  CHG  3  13  -1  17  -1  18  -1
M  END
> <Uni-Dock RESULT> 
ENERGY=   -6.870  LOWER_BOUND=    7.458  UPPER_BOUND=    7.907
INTER + INTRA:          -6.870
INTER:                  -6.870
INTRA:                   0.000
UNBOUND:                 0.000

$$$$

     RDKit          3D

 22 14  0  0  0  0  0  0  0  0999 V2000
   41.9343    5.8587   11.7155 O   0  0  0  0  0  0  0  0  0  0  0  0
   43.4043    3.3666   12.4609 O   0  0  0  0  0  0  0  0  0  0  0  0
   44.3717    5.9474   13.2123 O   0  0  0  0  0  0  0  0  0  0  0  0
   43.3493    5.1023   12.3731 Si  0  0  0  0  0  4  0  0  0  0  0  0
   43.2649    5.0688   12.4405 Al  0  0  0  0  0 15  0  0  0  0  0  0
   43.2649    5.0688   12.4405 Al  0  0  0  0  0 15  0  0  0  0  0  0
   43.2649    5.0688   12.4405 Mg  0  0  0  0  0 15  0  0  0  0  0  0
   42.0575    6.1251   11.8005 O   0  0  0  0  0  0  0  0  0  0  0  0
   43.1457    3.3777   12.3130 O   0  0  0  0  0  0  0  0  0  0  0  0
   44.5050    5.6668   13.2815 O   0  0  0  0  0  0  0  0  0  0  0  0
   43.3513    5.1054   12.3668 Si  0  0  0  0  0  4  0  0  0  0  0  0
   42.0125    5.9246   11.6368 O   0  0  0  0  0  0  0  0  0  0  0  0
   43.3271    3.3595   12.4493 O   0  0  0  0  0  0  0  0  0  0  0  0
   44.4257    5.8904   13.2014 O   0  0  0  0  0  0  0  0  0  0  0  0
   43.2942    5.1006   12.4744 Si  0  0  0  0  0  4  0  0  0  0  0  0
   43.5394    5.3024   12.6221 O   0  0  0  0  0  0  0  0  0  0  0  0
   43.4018    3.3564   12.4710 O   0  0  0  0  0  0  0  0  0  0  0  0
   41.9373    5.9141   11.7169 O   0  0  0  0  0  0  0  0  0  0  0  0
   44.3804    5.9107   13.2189 O   0  0  0  0  0  0  0  0  0  0  0  0
   43.3400    5.0939   12.3551 Si  0  0  0  0  0  4  0  0  0  0  0  0
   43.5342    4.3101   12.5667 H   0  0  0  0  0  0  0  0  0  0  0  0
   42.7211    5.5939   12.1326 H   0  0  0  0  0  0  0  0  0  0  0  0
  4  1  1  0
  4  2  1  0
  4  3  2  0
 11  8  1  0
 11  9  1  0
 11 10  2  0
 15 12  1  0
 15 13  1  0
 15 14  2  0
 20 17  1  0
 20 18  1  0
 20 19  2  0
 16 21  1  0
 16 22  1  0
M  CHG  8   1  -1   2  -1   5   3   6   3   7   2   8  -1   9  -1  12  -1
M  CHG  3  13  -1  17  -1  18  -1
M  END
> <Uni-Dock RESULT> 
ENERGY=   -6.823  LOWER_BOUND=    7.519  UPPER_BOUND=    8.011
INTER + INTRA:          -6.823
INTER:                  -6.823
INTRA:                   0.000
UNBOUND:                 0.000

$$$$
