
     RDKit          3D

 22 14  0  0  0  0  0  0  0  0999 V2000
   47.2741    0.8979    7.3691 O   0  0  0  0  0  0  0  0  0  0  0  0
   46.9977    3.8876    7.1146 O   0  0  0  0  0  0  0  0  0  0  0  0
   48.1455    2.3041    5.0578 O   0  0  0  0  0  0  0  0  0  0  0  0
   47.5906    2.3679    6.5181 Si  0  0  0  0  0  4  0  0  0  0  0  0
   47.5020    2.3644    6.5149 Al  0  0  0  0  0 15  0  0  0  0  0  0
   47.5020    2.3644    6.5149 Al  0  0  0  0  0 15  0  0  0  0  0  0
   47.5020    2.3644    6.5149 Mg  0  0  0  0  0 15  0  0  0  0  0  0
   46.9446    3.8540    7.1527 O   0  0  0  0  0  0  0  0  0  0  0  0
   47.3899    0.8700    7.3676 O   0  0  0  0  0  0  0  0  0  0  0  0
   48.1636    2.3840    5.0617 O   0  0  0  0  0  0  0  0  0  0  0  0
   47.5100    2.3496    6.4776 Si  0  0  0  0  0  4  0  0  0  0  0  0
   47.2681    0.9002    7.3747 O   0  0  0  0  0  0  0  0  0  0  0  0
   46.9748    3.8863    7.1018 O   0  0  0  0  0  0  0  0  0  0  0  0
   48.1343    2.2944    5.0461 O   0  0  0  0  0  0  0  0  0  0  0  0
   47.6309    2.3767    6.5370 Si  0  0  0  0  0  4  0  0  0  0  0  0
   47.6660    2.3491    6.1612 O   0  0  0  0  0  0  0  0  0  0  0  0
   47.4343    0.8222    7.2949 O   0  0  0  0  0  0  0  0  0  0  0  0
   46.9225    3.7956    7.2570 O   0  0  0  0  0  0  0  0  0  0  0  0
   48.1631    2.4850    5.0454 O   0  0  0  0  0  0  0  0  0  0  0  0
   47.4880    2.3547    6.4622 Si  0  0  0  0  0  4  0  0  0  0  0  0
   47.4946    1.5827    6.7754 H   0  0  0  0  0  0  0  0  0  0  0  0
   47.3454    3.1614    6.6081 H   0  0  0  0  0  0  0  0  0  0  0  0
  4  1  1  0
  4  2  1  0
  4  3  2  0
 11  8  1  0
 11  9  1  0
 11 10  2  0
 15 12  1  0
 15 13  1  0
 15 14  2  0
 20 17  1  0
 20 18  1  0
 20 19  2  0
 16 21  1  0
 16 22  1  0
M  CHG  8   1  -1   2  -1   5   3   6   3   7   2   8  -1   9  -1  12  -1
M  CHG  3  13  -1  17  -1  18  -1
M  END
> <Uni-Dock RESULT> 
ENERGY=   -9.561  LOWER_BOUND=    0.000  UPPER_BOUND=    0.000
INTER + INTRA:          -9.561
INTER:                  -9.561
INTRA:                   0.000
UNBOUND:                 0.000

$$$$

     RDKit          3D

 22 14  0  0  0  0  0  0  0  0999 V2000
   47.0183    3.8850    7.2521 O   0  0  0  0  0  0  0  0  0  0  0  0
   47.3949    0.8959    7.3007 O   0  0  0  0  0  0  0  0  0  0  0  0
   48.1510    2.4695    5.0630 O   0  0  0  0  0  0  0  0  0  0  0  0
   47.4390    2.4116    6.4538 Si  0  0  0  0  0  4  0  0  0  0  0  0
   47.5008    2.4155    6.5174 Al  0  0  0  0  0 15  0  0  0  0  0  0
   47.5008    2.4155    6.5174 Al  0  0  0  0  0 15  0  0  0  0  0  0
   47.5008    2.4155    6.5174 Mg  0  0  0  0  0 15  0  0  0  0  0  0
   47.4022    0.9298    7.3655 O   0  0  0  0  0  0  0  0  0  0  0  0
   46.9418    3.9124    7.1651 O   0  0  0  0  0  0  0  0  0  0  0  0
   48.1360    2.3896    5.0526 O   0  0  0  0  0  0  0  0  0  0  0  0
   47.5231    2.4301    6.4864 Si  0  0  0  0  0  4  0  0  0  0  0  0
   47.0182    3.8827    7.2604 O   0  0  0  0  0  0  0  0  0  0  0  0
   47.4198    0.8972    7.3091 O   0  0  0  0  0  0  0  0  0  0  0  0
   48.1672    2.4792    5.0635 O   0  0  0  0  0  0  0  0  0  0  0  0
   47.3980    2.4028    6.4366 Si  0  0  0  0  0  4  0  0  0  0  0  0
   47.6534    2.4292    6.1586 O   0  0  0  0  0  0  0  0  0  0  0  0
   46.9660    3.9599    7.0831 O   0  0  0  0  0  0  0  0  0  0  0  0
   47.3395    0.9884    7.4515 O   0  0  0  0  0  0  0  0  0  0  0  0
   48.1485    2.2885    5.0425 O   0  0  0  0  0  0  0  0  0  0  0  0
   47.5493    2.4251    6.4924 Si  0  0  0  0  0  4  0  0  0  0  0  0
   47.3117    3.1979    6.6938 H   0  0  0  0  0  0  0  0  0  0  0  0
   47.5372    1.6194    6.6998 H   0  0  0  0  0  0  0  0  0  0  0  0
  4  1  1  0
  4  2  1  0
  4  3  2  0
 11  8  1  0
 11  9  1  0
 11 10  2  0
 15 12  1  0
 15 13  1  0
 15 14  2  0
 20 17  1  0
 20 18  1  0
 20 19  2  0
 16 21  1  0
 16 22  1  0
M  CHG  8   1  -1   2  -1   5   3   6   3   7   2   8  -1   9  -1  12  -1
M  CHG  3  13  -1  17  -1  18  -1
M  END
> <Uni-Dock RESULT> 
ENERGY=   -9.536  LOWER_BOUND=    0.079  UPPER_BOUND=    1.911
INTER + INTRA:          -9.536
INTER:                  -9.536
INTRA:                   0.000
UNBOUND:                 0.000

$$$$

     RDKit          3D

 22 14  0  0  0  0  0  0  0  0999 V2000
   46.7890    3.8093    7.1649 O   0  0  0  0  0  0  0  0  0  0  0  0
   48.2074    2.3363    4.9518 O   0  0  0  0  0  0  0  0  0  0  0  0
   47.3913    1.0371    7.3396 O   0  0  0  0  0  0  0  0  0  0  0  0
   47.5535    2.3827    6.5603 Si  0  0  0  0  0  4  0  0  0  0  0  0
   47.4853    2.3914    6.5041 Al  0  0  0  0  0 15  0  0  0  0  0  0
   47.4853    2.3914    6.5041 Al  0  0  0  0  0 15  0  0  0  0  0  0
   47.4853    2.3914    6.5041 Mg  0  0  0  0  0 15  0  0  0  0  0  0
   48.1630    2.3908    4.9303 O   0  0  0  0  0  0  0  0  0  0  0  0
   46.8574    3.8068    7.2623 O   0  0  0  0  0  0  0  0  0  0  0  0
   47.4518    1.0044    7.2948 O   0  0  0  0  0  0  0  0  0  0  0  0
   47.4691    2.3633    6.5291 Si  0  0  0  0  0  4  0  0  0  0  0  0
   46.7880    3.8141    7.1578 O   0  0  0  0  0  0  0  0  0  0  0  0
   48.1851    2.3279    4.9406 O   0  0  0  0  0  0  0  0  0  0  0  0
   47.3733    1.0320    7.3417 O   0  0  0  0  0  0  0  0  0  0  0  0
   47.5950    2.3914    6.5764 Si  0  0  0  0  0  4  0  0  0  0  0  0
   47.4678    2.0620    6.7126 O   0  0  0  0  0  0  0  0  0  0  0  0
   46.8360    3.7570    7.3437 O   0  0  0  0  0  0  0  0  0  0  0  0
   48.1515    2.5118    4.9303 O   0  0  0  0  0  0  0  0  0  0  0  0
   47.5035    0.9468    7.2279 O   0  0  0  0  0  0  0  0  0  0  0  0
   47.4503    2.3498    6.5146 Si  0  0  0  0  0  4  0  0  0  0  0  0
   47.1268    2.9595    6.9812 H   0  0  0  0  0  0  0  0  0  0  0  0
   47.8614    2.1525    5.8186 H   0  0  0  0  0  0  0  0  0  0  0  0
  4  1  1  0
  4  2  1  0
  4  3  2  0
 11  8  1  0
 11  9  1  0
 11 10  2  0
 15 12  1  0
 15 13  1  0
 15 14  2  0
 20 17  1  0
 20 18  1  0
 20 19  2  0
 16 21  1  0
 16 22  1  0
M  CHG  8   1  -1   2  -1   5   3   6   3   7   2   8  -1   9  -1  12  -1
M  CHG  3  13  -1  17  -1  18  -1
M  END
> <Uni-Dock RESULT> 
ENERGY=   -9.349  LOWER_BOUND=    0.191  UPPER_BOUND=    2.235
INTER + INTRA:          -9.349
INTER:                  -9.349
INTRA:                   0.000
UNBOUND:                 0.000

$$$$

     RDKit          3D

 22 14  0  0  0  0  0  0  0  0999 V2000
   48.1216    2.3427    4.9403 O   0  0  0  0  0  0  0  0  0  0  0  0
   47.2882    0.8731    7.4352 O   0  0  0  0  0  0  0  0  0  0  0  0
   46.9803    3.6822    7.1722 O   0  0  0  0  0  0  0  0  0  0  0  0
   47.5511    2.3566    6.5711 Si  0  0  0  0  0  4  0  0  0  0  0  0
   47.4853    2.3136    6.5297 Al  0  0  0  0  0 15  0  0  0  0  0  0
   47.4853    2.3136    6.5297 Al  0  0  0  0  0 15  0  0  0  0  0  0
   47.4853    2.3136    6.5297 Mg  0  0  0  0  0 15  0  0  0  0  0  0
   47.2806    0.8357    7.3724 O   0  0  0  0  0  0  0  0  0  0  0  0
   48.2087    2.4190    4.9682 O   0  0  0  0  0  0  0  0  0  0  0  0
   46.9836    3.6491    7.2472 O   0  0  0  0  0  0  0  0  0  0  0  0
   47.4683    2.3508    6.5311 Si  0  0  0  0  0  4  0  0  0  0  0  0
   48.1207    2.3345    4.9379 O   0  0  0  0  0  0  0  0  0  0  0  0
   47.2633    0.8704    7.4276 O   0  0  0  0  0  0  0  0  0  0  0  0
   46.9658    3.6891    7.1623 O   0  0  0  0  0  0  0  0  0  0  0  0
   47.5915    2.3606    6.5910 Si  0  0  0  0  0  4  0  0  0  0  0  0
   47.3684    2.6503    6.6886 O   0  0  0  0  0  0  0  0  0  0  0  0
   48.1993    2.5163    4.9675 O   0  0  0  0  0  0  0  0  0  0  0  0
   47.3438    0.7818    7.2837 O   0  0  0  0  0  0  0  0  0  0  0  0
   46.9568    3.6094    7.3376 O   0  0  0  0  0  0  0  0  0  0  0  0
   47.4413    2.3471    6.5300 Si  0  0  0  0  0  4  0  0  0  0  0  0
   47.7760    2.5229    5.7876 H   0  0  0  0  0  0  0  0  0  0  0  0
   47.3115    1.7677    7.1129 H   0  0  0  0  0  0  0  0  0  0  0  0
  4  1  1  0
  4  2  1  0
  4  3  2  0
 11  8  1  0
 11  9  1  0
 11 10  2  0
 15 12  1  0
 15 13  1  0
 15 14  2  0
 20 17  1  0
 20 18  1  0
 20 19  2  0
 16 21  1  0
 16 22  1  0
M  CHG  8   1  -1   2  -1   5   3   6   3   7   2   8  -1   9  -1  12  -1
M  CHG  3  13  -1  17  -1  18  -1
M  END
> <Uni-Dock RESULT> 
ENERGY=   -9.253  LOWER_BOUND=    0.187  UPPER_BOUND=    2.280
INTER + INTRA:          -9.253
INTER:                  -9.253
INTRA:                   0.000
UNBOUND:                 0.000

$$$$

     RDKit          3D

 22 14  0  0  0  0  0  0  0  0999 V2000
   46.1211    3.8857    7.2829 O   0  0  0  0  0  0  0  0  0  0  0  0
   44.8300    1.8058    9.0396 O   0  0  0  0  0  0  0  0  0  0  0  0
   43.9660    4.5092    9.0281 O   0  0  0  0  0  0  0  0  0  0  0  0
   45.0177    3.4593    8.5422 Si  0  0  0  0  0  4  0  0  0  0  0  0
   44.9837    3.4150    8.4732 Al  0  0  0  0  0 15  0  0  0  0  0  0
   44.9837    3.4150    8.4732 Al  0  0  0  0  0 15  0  0  0  0  0  0
   44.9837    3.4150    8.4732 Mg  0  0  0  0  0 15  0  0  0  0  0  0
   44.8548    1.7815    8.9748 O   0  0  0  0  0  0  0  0  0  0  0  0
   46.1711    3.9686    7.3523 O   0  0  0  0  0  0  0  0  0  0  0  0
   43.9502    4.4623    9.0935 O   0  0  0  0  0  0  0  0  0  0  0  0
   44.9588    3.4475    8.4724 Si  0  0  0  0  0  4  0  0  0  0  0  0
   46.1231    3.8781    7.2794 O   0  0  0  0  0  0  0  0  0  0  0  0
   44.8109    1.8004    9.0224 O   0  0  0  0  0  0  0  0  0  0  0  0
   43.9549    4.5154    9.0142 O   0  0  0  0  0  0  0  0  0  0  0  0
   45.0460    3.4661    8.5769 Si  0  0  0  0  0  4  0  0  0  0  0  0
   44.7397    3.6853    8.6134 O   0  0  0  0  0  0  0  0  0  0  0  0
   46.1393    4.0607    7.3601 O   0  0  0  0  0  0  0  0  0  0  0  0
   44.9567    1.7593    8.9124 O   0  0  0  0  0  0  0  0  0  0  0  0
   43.9031    4.4006    9.1601 O   0  0  0  0  0  0  0  0  0  0  0  0
   44.9358    3.4394    8.4603 Si  0  0  0  0  0  4  0  0  0  0  0  0
   45.4616    3.8219    7.9394 H   0  0  0  0  0  0  0  0  0  0  0  0
   44.7499    2.7378    8.8670 H   0  0  0  0  0  0  0  0  0  0  0  0
  4  1  1  0
  4  2  1  0
  4  3  2  0
 11  8  1  0
 11  9  1  0
 11 10  2  0
 15 12  1  0
 15 13  1  0
 15 14  2  0
 20 17  1  0
 20 18  1  0
 20 19  2  0
 16 21  1  0
 16 22  1  0
M  CHG  8   1  -1   2  -1   5   3   6   3   7   2   8  -1   9  -1  12  -1
M  CHG  3  13  -1  17  -1  18  -1
M  END
> <Uni-Dock RESULT> 
ENERGY=   -7.367  LOWER_BOUND=    2.974  UPPER_BOUND=    4.140
INTER + INTRA:          -7.367
INTER:                  -7.367
INTRA:                   0.000
UNBOUND:                 0.000

$$$$

     RDKit          3D

 22 14  0  0  0  0  0  0  0  0999 V2000
   42.8121    6.8823   11.0982 O   0  0  0  0  0  0  0  0  0  0  0  0
   43.2633    3.9072   10.9415 O   0  0  0  0  0  0  0  0  0  0  0  0
   42.7354    5.2195   13.4021 O   0  0  0  0  0  0  0  0  0  0  0  0
   43.0372    5.3550   11.8740 Si  0  0  0  0  0  4  0  0  0  0  0  0
   42.9620    5.3410   11.8290 Al  0  0  0  0  0 15  0  0  0  0  0  0
   42.9620    5.3410   11.8290 Al  0  0  0  0  0 15  0  0  0  0  0  0
   42.9620    5.3410   11.8290 Mg  0  0  0  0  0 15  0  0  0  0  0  0
   43.2301    3.9373   10.8833 O   0  0  0  0  0  0  0  0  0  0  0  0
   42.8987    6.9306   11.1642 O   0  0  0  0  0  0  0  0  0  0  0  0
   42.7738    5.1470   13.4027 O   0  0  0  0  0  0  0  0  0  0  0  0
   42.9457    5.3489   11.8656 Si  0  0  0  0  0  4  0  0  0  0  0  0
   42.8106    6.8801   11.0900 O   0  0  0  0  0  0  0  0  0  0  0  0
   43.2377    3.9015   10.9399 O   0  0  0  0  0  0  0  0  0  0  0  0
   42.7177    5.2242   13.4065 O   0  0  0  0  0  0  0  0  0  0  0  0
   43.0821    5.3581   11.8794 Si  0  0  0  0  0  4  0  0  0  0  0  0
   42.9132    5.3135   12.2151 O   0  0  0  0  0  0  0  0  0  0  0  0
   42.8853    6.9699   11.2527 O   0  0  0  0  0  0  0  0  0  0  0  0
   43.2491    4.0107   10.7883 O   0  0  0  0  0  0  0  0  0  0  0  0
   42.7924    5.0465   13.4087 O   0  0  0  0  0  0  0  0  0  0  0  0
   42.9213    5.3368   11.8662 Si  0  0  0  0  0  4  0  0  0  0  0  0
   42.8770    6.1439   11.6643 H   0  0  0  0  0  0  0  0  0  0  0  0
   43.0960    4.5655   11.6074 H   0  0  0  0  0  0  0  0  0  0  0  0
  4  1  1  0
  4  2  1  0
  4  3  2  0
 11  8  1  0
 11  9  1  0
 11 10  2  0
 15 12  1  0
 15 13  1  0
 15 14  2  0
 20 17  1  0
 20 18  1  0
 20 19  2  0
 16 21  1  0
 16 22  1  0
M  CHG  8   1  -1   2  -1   5   3   6   3   7   2   8  -1   9  -1  12  -1
M  CHG  3  13  -1  17  -1  18  -1
M  END
> <Uni-Dock RESULT> 
ENERGY=   -7.179  LOWER_BOUND=    6.895  UPPER_BOUND=    8.055
INTER + INTRA:          -7.179
INTER:                  -7.179
INTRA:                   0.000
UNBOUND:                 0.000

$$$$

     RDKit          3D

 22 14  0  0  0  0  0  0  0  0999 V2000
   43.3561    4.0319   10.8148 O   0  0  0  0  0  0  0  0  0  0  0  0
   42.8776    6.9815   11.2021 O   0  0  0  0  0  0  0  0  0  0  0  0
   42.7927    5.1484   13.3672 O   0  0  0  0  0  0  0  0  0  0  0  0
   42.8970    5.3590   11.8215 Si  0  0  0  0  0  4  0  0  0  0  0  0
   42.9809    5.3802   11.8014 Al  0  0  0  0  0 15  0  0  0  0  0  0
   42.9809    5.3802   11.8014 Al  0  0  0  0  0 15  0  0  0  0  0  0
   42.9809    5.3802   11.8014 Mg  0  0  0  0  0 15  0  0  0  0  0  0
   42.9256    6.9639   11.1493 O   0  0  0  0  0  0  0  0  0  0  0  0
   43.2569    3.9730   10.8442 O   0  0  0  0  0  0  0  0  0  0  0  0
   42.7535    5.2201   13.3738 O   0  0  0  0  0  0  0  0  0  0  0  0
   42.9874    5.3639   11.8384 Si  0  0  0  0  0  4  0  0  0  0  0  0
   43.3595    4.0358   10.8079 O   0  0  0  0  0  0  0  0  0  0  0  0
   42.9026    6.9867   11.2085 O   0  0  0  0  0  0  0  0  0  0  0  0
   42.8088    5.1422   13.3749 O   0  0  0  0  0  0  0  0  0  0  0  0
   42.8524    5.3561   11.8143 Si  0  0  0  0  0  4  0  0  0  0  0  0
   42.9282    5.3212   12.1835 O   0  0  0  0  0  0  0  0  0  0  0  0
   43.2481    3.9149   10.9223 O   0  0  0  0  0  0  0  0  0  0  0  0
   42.9336    6.9136   11.0389 O   0  0  0  0  0  0  0  0  0  0  0  0
   42.7312    5.3173   13.3966 O   0  0  0  0  0  0  0  0  0  0  0  0
   43.0105    5.3750   11.8478 Si  0  0  0  0  0  4  0  0  0  0  0  0
   43.1276    4.6304   11.4927 H   0  0  0  0  0  0  0  0  0  0  0  0
   42.8868    6.1890   11.7281 H   0  0  0  0  0  0  0  0  0  0  0  0
  4  1  1  0
  4  2  1  0
  4  3  2  0
 11  8  1  0
 11  9  1  0
 11 10  2  0
 15 12  1  0
 15 13  1  0
 15 14  2  0
 20 17  1  0
 20 18  1  0
 20 19  2  0
 16 21  1  0
 16 22  1  0
M  CHG  8   1  -1   2  -1   5   3   6   3   7   2   8  -1   9  -1  12  -1
M  CHG  3  13  -1  17  -1  18  -1
M  END
> <Uni-Dock RESULT> 
ENERGY=   -7.139  LOWER_BOUND=    6.875  UPPER_BOUND=    7.815
INTER + INTRA:          -7.139
INTER:                  -7.139
INTRA:                   0.000
UNBOUND:                 0.000

$$$$

     RDKit          3D

 22 14  0  0  0  0  0  0  0  0999 V2000
   44.4702    5.7202   13.1336 O   0  0  0  0  0  0  0  0  0  0  0  0
   43.0191    3.4852   11.7271 O   0  0  0  0  0  0  0  0  0  0  0  0
   42.0212    6.1421   11.7542 O   0  0  0  0  0  0  0  0  0  0  0  0
   43.0855    5.1281   12.2868 Si  0  0  0  0  0  4  0  0  0  0  0  0
   43.1490    5.1189   12.2254 Al  0  0  0  0  0 15  0  0  0  0  0  0
   43.1490    5.1189   12.2254 Al  0  0  0  0  0 15  0  0  0  0  0  0
   43.1490    5.1189   12.2254 Mg  0  0  0  0  0 15  0  0  0  0  0  0
   43.0924    3.4804   11.7270 O   0  0  0  0  0  0  0  0  0  0  0  0
   44.4011    5.7611   13.2216 O   0  0  0  0  0  0  0  0  0  0  0  0
   41.9694    6.0799   11.7408 O   0  0  0  0  0  0  0  0  0  0  0  0
   43.1329    5.1541   12.2122 Si  0  0  0  0  0  4  0  0  0  0  0  0
   44.4761    5.7140   13.1323 O   0  0  0  0  0  0  0  0  0  0  0  0
   43.0300    3.4904   11.7037 O   0  0  0  0  0  0  0  0  0  0  0  0
   42.0285    6.1549   11.7425 O   0  0  0  0  0  0  0  0  0  0  0  0
   43.0614    5.1163   12.3232 Si  0  0  0  0  0  4  0  0  0  0  0  0
   42.8700    5.3690   12.1165 O   0  0  0  0  0  0  0  0  0  0  0  0
   44.3590    5.8493   13.2223 O   0  0  0  0  0  0  0  0  0  0  0  0
   43.1881    3.4600   11.7993 O   0  0  0  0  0  0  0  0  0  0  0  0
   41.9103    6.0104   11.6944 O   0  0  0  0  0  0  0  0  0  0  0  0
   43.1386    5.1559   12.1856 Si  0  0  0  0  0  4  0  0  0  0  0  0
   43.6784    5.5743   12.6629 H   0  0  0  0  0  0  0  0  0  0  0  0
   42.8986    4.4134   11.8969 H   0  0  0  0  0  0  0  0  0  0  0  0
  4  1  1  0
  4  2  1  0
  4  3  2  0
 11  8  1  0
 11  9  1  0
 11 10  2  0
 15 12  1  0
 15 13  1  0
 15 14  2  0
 20 17  1  0
 20 18  1  0
 20 19  2  0
 16 21  1  0
 16 22  1  0
M  CHG  8   1  -1   2  -1   5   3   6   3   7   2   8  -1   9  -1  12  -1
M  CHG  3  13  -1  17  -1  18  -1
M  END
> <Uni-Dock RESULT> 
ENERGY=   -7.135  LOWER_BOUND=    7.325  UPPER_BOUND=    8.013
INTER + INTRA:          -7.135
INTER:                  -7.135
INTRA:                   0.000
UNBOUND:                 0.000

$$$$

     RDKit          3D

 22 14  0  0  0  0  0  0  0  0999 V2000
   43.2803    5.2451   10.3613 O   0  0  0  0  0  0  0  0  0  0  0  0
   43.3774    2.8233   12.1515 O   0  0  0  0  0  0  0  0  0  0  0  0
   42.8299    5.4183   13.1623 O   0  0  0  0  0  0  0  0  0  0  0  0
   43.2596    4.5432   11.9399 Si  0  0  0  0  0  4  0  0  0  0  0  0
   43.1868    4.5075   11.9038 Al  0  0  0  0  0 15  0  0  0  0  0  0
   43.1868    4.5075   11.9038 Al  0  0  0  0  0 15  0  0  0  0  0  0
   43.1868    4.5075   11.9038 Mg  0  0  0  0  0 15  0  0  0  0  0  0
   43.3525    2.8114   12.0834 O   0  0  0  0  0  0  0  0  0  0  0  0
   43.3669    5.3201   10.3938 O   0  0  0  0  0  0  0  0  0  0  0  0
   42.8590    5.3608   13.2130 O   0  0  0  0  0  0  0  0  0  0  0  0
   43.1689    4.5376   11.9249 Si  0  0  0  0  0  4  0  0  0  0  0  0
   43.2793    5.2383   10.3561 O   0  0  0  0  0  0  0  0  0  0  0  0
   43.3515    2.8191   12.1504 O   0  0  0  0  0  0  0  0  0  0  0  0
   42.8126    5.4256   13.1604 O   0  0  0  0  0  0  0  0  0  0  0  0
   43.3039    4.5469   11.9482 Si  0  0  0  0  0  4  0  0  0  0  0  0
   43.1062    4.7326   12.2121 O   0  0  0  0  0  0  0  0  0  0  0  0
   43.3519    5.4071   10.4358 O   0  0  0  0  0  0  0  0  0  0  0  0
   43.3873    2.8072   11.9670 O   0  0  0  0  0  0  0  0  0  0  0  0
   42.8648    5.2860   13.2826 O   0  0  0  0  0  0  0  0  0  0  0  0
   43.1432    4.5297   11.9296 Si  0  0  0  0  0  4  0  0  0  0  0  0
   43.2125    5.0286   11.2660 H   0  0  0  0  0  0  0  0  0  0  0  0
   43.2418    3.7613   12.2332 H   0  0  0  0  0  0  0  0  0  0  0  0
  4  1  1  0
  4  2  1  0
  4  3  2  0
 11  8  1  0
 11  9  1  0
 11 10  2  0
 15 12  1  0
 15 13  1  0
 15 14  2  0
 20 17  1  0
 20 18  1  0
 20 19  2  0
 16 21  1  0
 16 22  1  0
M  CHG  8   1  -1   2  -1   5   3   6   3   7   2   8  -1   9  -1  12  -1
M  CHG  3  13  -1  17  -1  18  -1
M  END
> <Uni-Dock RESULT> 
ENERGY=   -6.892  LOWER_BOUND=    6.773  UPPER_BOUND=    7.683
INTER + INTRA:          -6.892
INTER:                  -6.892
INTRA:                   0.000
UNBOUND:                 0.000

$$$$
