
     RDKit          3D

 22 14  0  0  0  0  0  0  0  0999 V2000
   46.8351    0.9388    7.0899 O   0  0  0  0  0  0  0  0  0  0  0  0
   46.4796    3.8723    6.7950 O   0  0  0  0  0  0  0  0  0  0  0  0
   48.2398    2.4194    5.1681 O   0  0  0  0  0  0  0  0  0  0  0  0
   47.4992    2.4709    6.5673 Si  0  0  0  0  0  4  0  0  0  0  0  0
   47.5266    2.4830    6.4947 Al  0  0  0  0  0 15  0  0  0  0  0  0
   47.5266    2.4830    6.4947 Al  0  0  0  0  0 15  0  0  0  0  0  0
   47.5266    2.4830    6.4947 Mg  0  0  0  0  0 15  0  0  0  0  0  0
   47.0056    3.9473    7.2350 O   0  0  0  0  0  0  0  0  0  0  0  0
   47.6318    0.9686    7.3060 O   0  0  0  0  0  0  0  0  0  0  0  0
   48.0691    2.5594    5.0113 O   0  0  0  0  0  0  0  0  0  0  0  0
   47.3997    2.4569    6.4266 Si  0  0  0  0  0  4  0  0  0  0  0  0
   47.0332    3.9229    7.2453 O   0  0  0  0  0  0  0  0  0  0  0  0
   47.6364    1.0174    7.3418 O   0  0  0  0  0  0  0  0  0  0  0  0
   48.1028    2.5533    5.0144 O   0  0  0  0  0  0  0  0  0  0  0  0
   47.3338    2.4386    6.3774 Si  0  0  0  0  0  4  0  0  0  0  0  0
   47.6451    2.5041    6.1330 O   0  0  0  0  0  0  0  0  0  0  0  0
   47.0398    4.0034    7.1089 O   0  0  0  0  0  0  0  0  0  0  0  0
   47.5430    1.0884    7.4629 O   0  0  0  0  0  0  0  0  0  0  0  0
   48.1099    2.3837    4.9992 O   0  0  0  0  0  0  0  0  0  0  0  0
   47.4135    2.4566    6.4078 Si  0  0  0  0  0  4  0  0  0  0  0  0
   47.2984    3.2572    6.6660 H   0  0  0  0  0  0  0  0  0  0  0  0
   47.6361    1.6879    6.6851 H   0  0  0  0  0  0  0  0  0  0  0  0
  4  1  1  0
  4  2  1  0
  4  3  2  0
 11  8  1  0
 11  9  1  0
 11 10  2  0
 15 12  1  0
 15 13  1  0
 15 14  2  0
 20 17  1  0
 20 18  1  0
 20 19  2  0
 16 21  1  0
 16 22  1  0
M  CHG  8   1  -1   2  -1   5   3   6   3   7   2   8  -1   9  -1  12  -1
M  CHG  3  13  -1  17  -1  18  -1
M  END
> <Uni-Dock RESULT> 
ENERGY=   -9.251  LOWER_BOUND=    0.000  UPPER_BOUND=    0.000
INTER + INTRA:          -9.251
INTER:                  -9.251
INTRA:                   0.000
UNBOUND:                 0.000

$$$$

     RDKit          3D

 22 14  0  0  0  0  0  0  0  0999 V2000
   47.1316    3.9521    7.2455 O   0  0  0  0  0  0  0  0  0  0  0  0
   47.9158    1.0956    7.4550 O   0  0  0  0  0  0  0  0  0  0  0  0
   47.9709    2.4749    5.0156 O   0  0  0  0  0  0  0  0  0  0  0  0
   47.3194    2.4012    6.4576 Si  0  0  0  0  0  4  0  0  0  0  0  0
   47.3616    2.3914    6.3920 Al  0  0  0  0  0 15  0  0  0  0  0  0
   47.3616    2.3914    6.3920 Al  0  0  0  0  0 15  0  0  0  0  0  0
   47.3616    2.3914    6.3920 Mg  0  0  0  0  0 15  0  0  0  0  0  0
   47.2599    0.9387    7.3100 O   0  0  0  0  0  0  0  0  0  0  0  0
   46.4838    3.8286    6.7480 O   0  0  0  0  0  0  0  0  0  0  0  0
   48.2137    2.3636    5.0602 O   0  0  0  0  0  0  0  0  0  0  0  0
   47.4888    2.4347    6.4499 Si  0  0  0  0  0  4  0  0  0  0  0  0
   47.2323    0.9595    7.2937 O   0  0  0  0  0  0  0  0  0  0  0  0
   46.4584    3.7773    6.7681 O   0  0  0  0  0  0  0  0  0  0  0  0
   48.1902    2.3661    5.0352 O   0  0  0  0  0  0  0  0  0  0  0  0
   47.5653    2.4627    6.4713 Si  0  0  0  0  0  4  0  0  0  0  0  0
   47.5779    2.3836    6.0782 O   0  0  0  0  0  0  0  0  0  0  0  0
   47.3452    0.8883    7.2081 O   0  0  0  0  0  0  0  0  0  0  0  0
   46.4273    3.7078    6.9185 O   0  0  0  0  0  0  0  0  0  0  0  0
   48.1784    2.5348    5.0141 O   0  0  0  0  0  0  0  0  0  0  0  0
   47.4953    2.4348    6.4275 Si  0  0  0  0  0  4  0  0  0  0  0  0
   47.4529    1.6338    6.7056 H   0  0  0  0  0  0  0  0  0  0  0  0
   47.0539    3.1568    6.3922 H   0  0  0  0  0  0  0  0  0  0  0  0
  4  1  1  0
  4  2  1  0
  4  3  2  0
 11  8  1  0
 11  9  1  0
 11 10  2  0
 15 12  1  0
 15 13  1  0
 15 14  2  0
 20 17  1  0
 20 18  1  0
 20 19  2  0
 16 21  1  0
 16 22  1  0
M  CHG  8   1  -1   2  -1   5   3   6   3   7   2   8  -1   9  -1  12  -1
M  CHG  3  13  -1  17  -1  18  -1
M  END
> <Uni-Dock RESULT> 
ENERGY=   -9.213  LOWER_BOUND=    0.203  UPPER_BOUND=    1.939
INTER + INTRA:          -9.213
INTER:                  -9.213
INTRA:                   0.000
UNBOUND:                 0.000

$$$$

     RDKit          3D

 22 14  0  0  0  0  0  0  0  0999 V2000
   46.2608    3.6785    6.9204 O   0  0  0  0  0  0  0  0  0  0  0  0
   47.7054    2.1919    4.7939 O   0  0  0  0  0  0  0  0  0  0  0  0
   47.6070    1.2752    7.4409 O   0  0  0  0  0  0  0  0  0  0  0  0
   47.5236    2.5441    6.4964 Si  0  0  0  0  0  4  0  0  0  0  0  0
   47.5289    2.4723    6.5279 Al  0  0  0  0  0 15  0  0  0  0  0  0
   47.5289    2.4723    6.5279 Al  0  0  0  0  0 15  0  0  0  0  0  0
   47.5289    2.4723    6.5279 Mg  0  0  0  0  0 15  0  0  0  0  0  0
   48.2694    2.5452    4.9755 O   0  0  0  0  0  0  0  0  0  0  0  0
   46.9266    3.8401    7.3818 O   0  0  0  0  0  0  0  0  0  0  0  0
   47.5202    1.0790    7.2757 O   0  0  0  0  0  0  0  0  0  0  0  0
   47.3995    2.4250    6.4785 Si  0  0  0  0  0  4  0  0  0  0  0  0
   48.2776    2.5641    5.0077 O   0  0  0  0  0  0  0  0  0  0  0  0
   46.9707    3.8521    7.3418 O   0  0  0  0  0  0  0  0  0  0  0  0
   47.5420    1.0835    7.3019 O   0  0  0  0  0  0  0  0  0  0  0  0
   47.3253    2.3898    6.4600 Si  0  0  0  0  0  4  0  0  0  0  0  0
   47.5183    2.1320    6.6992 O   0  0  0  0  0  0  0  0  0  0  0  0
   48.2902    2.4064    4.9976 O   0  0  0  0  0  0  0  0  0  0  0  0
   46.9828    3.9348    7.1954 O   0  0  0  0  0  0  0  0  0  0  0  0
   47.4389    1.1405    7.4250 O   0  0  0  0  0  0  0  0  0  0  0  0
   47.4037    2.4076    6.4935 Si  0  0  0  0  0  4  0  0  0  0  0  0
   47.8879    2.3098    5.8030 H   0  0  0  0  0  0  0  0  0  0  0  0
   47.1806    2.9751    7.0813 H   0  0  0  0  0  0  0  0  0  0  0  0
  4  1  1  0
  4  2  1  0
  4  3  2  0
 11  8  1  0
 11  9  1  0
 11 10  2  0
 15 12  1  0
 15 13  1  0
 15 14  2  0
 20 17  1  0
 20 18  1  0
 20 19  2  0
 16 21  1  0
 16 22  1  0
M  CHG  8   1  -1   2  -1   5   3   6   3   7   2   8  -1   9  -1  12  -1
M  CHG  3  13  -1  17  -1  18  -1
M  END
> <Uni-Dock RESULT> 
ENERGY=   -8.848  LOWER_BOUND=    0.259  UPPER_BOUND=    2.215
INTER + INTRA:          -8.848
INTER:                  -8.848
INTRA:                   0.000
UNBOUND:                 0.000

$$$$

     RDKit          3D

 22 14  0  0  0  0  0  0  0  0999 V2000
   48.7386    2.5896    5.4484 O   0  0  0  0  0  0  0  0  0  0  0  0
   46.8696    3.7266    7.4566 O   0  0  0  0  0  0  0  0  0  0  0  0
   47.2628    0.9641    7.1915 O   0  0  0  0  0  0  0  0  0  0  0  0
   47.3273    2.3667    6.4583 Si  0  0  0  0  0  4  0  0  0  0  0  0
   47.3199    2.3070    6.5088 Al  0  0  0  0  0 15  0  0  0  0  0  0
   47.3199    2.3070    6.5088 Al  0  0  0  0  0 15  0  0  0  0  0  0
   47.3199    2.3070    6.5088 Mg  0  0  0  0  0 15  0  0  0  0  0  0
   46.3732    3.6648    6.9814 O   0  0  0  0  0  0  0  0  0  0  0  0
   48.1645    2.1848    5.0140 O   0  0  0  0  0  0  0  0  0  0  0  0
   47.3061    1.0356    7.4491 O   0  0  0  0  0  0  0  0  0  0  0  0
   47.4358    2.3426    6.5908 Si  0  0  0  0  0  4  0  0  0  0  0  0
   46.3715    3.6433    6.9499 O   0  0  0  0  0  0  0  0  0  0  0  0
   48.1164    2.2219    5.0134 O   0  0  0  0  0  0  0  0  0  0  0  0
   47.2888    1.0120    7.4310 O   0  0  0  0  0  0  0  0  0  0  0  0
   47.5030    2.3507    6.6409 Si  0  0  0  0  0  4  0  0  0  0  0  0
   47.3233    2.0073    6.7444 O   0  0  0  0  0  0  0  0  0  0  0  0
   46.3429    3.5832    7.0937 O   0  0  0  0  0  0  0  0  0  0  0  0
   48.0911    2.3879    4.9983 O   0  0  0  0  0  0  0  0  0  0  0  0
   47.4136    0.9355    7.3436 O   0  0  0  0  0  0  0  0  0  0  0  0
   47.4322    2.3212    6.5995 Si  0  0  0  0  0  4  0  0  0  0  0  0
   46.8464    2.8550    6.9039 H   0  0  0  0  0  0  0  0  0  0  0  0
   47.7900    2.0585    5.8781 H   0  0  0  0  0  0  0  0  0  0  0  0
  4  1  1  0
  4  2  1  0
  4  3  2  0
 11  8  1  0
 11  9  1  0
 11 10  2  0
 15 12  1  0
 15 13  1  0
 15 14  2  0
 20 17  1  0
 20 18  1  0
 20 19  2  0
 16 21  1  0
 16 22  1  0
M  CHG  8   1  -1   2  -1   5   3   6   3   7   2   8  -1   9  -1  12  -1
M  CHG  3  13  -1  17  -1  18  -1
M  END
> <Uni-Dock RESULT> 
ENERGY=   -8.647  LOWER_BOUND=    0.336  UPPER_BOUND=    1.841
INTER + INTRA:          -8.647
INTER:                  -8.647
INTRA:                   0.000
UNBOUND:                 0.000

$$$$

     RDKit          3D

 22 14  0  0  0  0  0  0  0  0999 V2000
   45.9364    3.7868    6.9987 O   0  0  0  0  0  0  0  0  0  0  0  0
   44.7123    1.7882    8.8224 O   0  0  0  0  0  0  0  0  0  0  0  0
   44.1373    4.5244    9.0182 O   0  0  0  0  0  0  0  0  0  0  0  0
   45.1965    3.4450    8.5470 Si  0  0  0  0  0  4  0  0  0  0  0  0
   45.1341    3.4843    8.5741 Al  0  0  0  0  0 15  0  0  0  0  0  0
   45.1341    3.4843    8.5741 Al  0  0  0  0  0 15  0  0  0  0  0  0
   45.1341    3.4843    8.5741 Mg  0  0  0  0  0 15  0  0  0  0  0  0
   45.2395    1.9052    9.2516 O   0  0  0  0  0  0  0  0  0  0  0  0
   46.3474    4.1994    7.5845 O   0  0  0  0  0  0  0  0  0  0  0  0
   43.9055    4.3864    8.9951 O   0  0  0  0  0  0  0  0  0  0  0  0
   45.0441    3.4459    8.4653 Si  0  0  0  0  0  4  0  0  0  0  0  0
   45.2638    1.9347    9.2538 O   0  0  0  0  0  0  0  0  0  0  0  0
   46.3672    4.1566    7.6227 O   0  0  0  0  0  0  0  0  0  0  0  0
   43.9195    4.4111    9.0146 O   0  0  0  0  0  0  0  0  0  0  0  0
   44.9860    3.4346    8.4054 Si  0  0  0  0  0  4  0  0  0  0  0  0
   44.8300    3.6938    8.6688 O   0  0  0  0  0  0  0  0  0  0  0  0
   45.1174    1.9422    9.3141 O   0  0  0  0  0  0  0  0  0  0  0  0
   46.4313    4.0013    7.6084 O   0  0  0  0  0  0  0  0  0  0  0  0
   43.9570    4.5308    8.8993 O   0  0  0  0  0  0  0  0  0  0  0  0
   45.0308    3.4626    8.4747 Si  0  0  0  0  0  4  0  0  0  0  0  0
   45.0017    2.7689    8.9633 H   0  0  0  0  0  0  0  0  0  0  0  0
   45.5706    3.9901    8.0903 H   0  0  0  0  0  0  0  0  0  0  0  0
  4  1  1  0
  4  2  1  0
  4  3  2  0
 11  8  1  0
 11  9  1  0
 11 10  2  0
 15 12  1  0
 15 13  1  0
 15 14  2  0
 20 17  1  0
 20 18  1  0
 20 19  2  0
 16 21  1  0
 16 22  1  0
M  CHG  8   1  -1   2  -1   5   3   6   3   7   2   8  -1   9  -1  12  -1
M  CHG  3  13  -1  17  -1  18  -1
M  END
> <Uni-Dock RESULT> 
ENERGY=   -7.138  LOWER_BOUND=    2.851  UPPER_BOUND=    4.045
INTER + INTRA:          -7.138
INTER:                  -7.138
INTRA:                   0.000
UNBOUND:                 0.000

$$$$

     RDKit          3D

 22 14  0  0  0  0  0  0  0  0999 V2000
   44.6912    5.7892   12.5573 O   0  0  0  0  0  0  0  0  0  0  0  0
   43.2068    3.6888   11.0729 O   0  0  0  0  0  0  0  0  0  0  0  0
   41.9754    6.0609   11.9174 O   0  0  0  0  0  0  0  0  0  0  0  0
   43.1558    5.0385   12.1825 Si  0  0  0  0  0  4  0  0  0  0  0  0
   43.0941    5.0787   12.1554 Al  0  0  0  0  0 15  0  0  0  0  0  0
   43.0941    5.0787   12.1554 Al  0  0  0  0  0 15  0  0  0  0  0  0
   43.0941    5.0787   12.1554 Mg  0  0  0  0  0 15  0  0  0  0  0  0
   43.0341    3.4236   11.6859 O   0  0  0  0  0  0  0  0  0  0  0  0
   44.2468    5.7361   13.2516 O   0  0  0  0  0  0  0  0  0  0  0  0
   41.9361    6.0304   11.6512 O   0  0  0  0  0  0  0  0  0  0  0  0
   43.1593    5.1249   12.0327 Si  0  0  0  0  0  4  0  0  0  0  0  0
   43.0339    3.4394   11.7207 O   0  0  0  0  0  0  0  0  0  0  0  0
   44.2357    5.6768   13.2585 O   0  0  0  0  0  0  0  0  0  0  0  0
   41.9182    6.0376   11.6797 O   0  0  0  0  0  0  0  0  0  0  0  0
   43.1886    5.1611   11.9626 Si  0  0  0  0  0  4  0  0  0  0  0  0
   42.8197    5.3071   12.0217 O   0  0  0  0  0  0  0  0  0  0  0  0
   42.9172    3.4650   11.6166 O   0  0  0  0  0  0  0  0  0  0  0  0
   44.3219    5.5336   13.2363 O   0  0  0  0  0  0  0  0  0  0  0  0
   41.9968    6.1776   11.7369 O   0  0  0  0  0  0  0  0  0  0  0  0
   43.1406    5.1387   12.0318 Si  0  0  0  0  0  4  0  0  0  0  0  0
   42.9191    4.3491   11.8124 H   0  0  0  0  0  0  0  0  0  0  0  0
   43.5435    5.5800   12.6321 H   0  0  0  0  0  0  0  0  0  0  0  0
  4  1  1  0
  4  2  1  0
  4  3  2  0
 11  8  1  0
 11  9  1  0
 11 10  2  0
 15 12  1  0
 15 13  1  0
 15 14  2  0
 20 17  1  0
 20 18  1  0
 20 19  2  0
 16 21  1  0
 16 22  1  0
M  CHG  8   1  -1   2  -1   5   3   6   3   7   2   8  -1   9  -1  12  -1
M  CHG  3  13  -1  17  -1  18  -1
M  END
> <Uni-Dock RESULT> 
ENERGY=   -6.956  LOWER_BOUND=    6.951  UPPER_BOUND=    7.904
INTER + INTRA:          -6.956
INTER:                  -6.956
INTRA:                   0.000
UNBOUND:                 0.000

$$$$

     RDKit          3D

 22 14  0  0  0  0  0  0  0  0999 V2000
   44.0713    2.9763   12.0981 O   0  0  0  0  0  0  0  0  0  0  0  0
   43.8351    5.5613   10.6558 O   0  0  0  0  0  0  0  0  0  0  0  0
   42.6810    5.1580   13.1781 O   0  0  0  0  0  0  0  0  0  0  0  0
   43.1809    4.4612   11.8462 Si  0  0  0  0  0  4  0  0  0  0  0  0
   43.1625    4.5104   11.9046 Al  0  0  0  0  0 15  0  0  0  0  0  0
   43.1625    4.5104   11.9046 Al  0  0  0  0  0 15  0  0  0  0  0  0
   43.1625    4.5104   11.9046 Mg  0  0  0  0  0 15  0  0  0  0  0  0
   43.2465    5.3208   10.3882 O   0  0  0  0  0  0  0  0  0  0  0  0
   43.2636    2.8033   12.1004 O   0  0  0  0  0  0  0  0  0  0  0  0
   42.8392    5.3776   13.1869 O   0  0  0  0  0  0  0  0  0  0  0  0
   43.3006    4.5400   11.9430 Si  0  0  0  0  0  4  0  0  0  0  0  0
   43.2236    5.2925   10.3998 O   0  0  0  0  0  0  0  0  0  0  0  0
   43.2435    2.8219   12.0462 O   0  0  0  0  0  0  0  0  0  0  0  0
   42.8075    5.3677   13.1958 O   0  0  0  0  0  0  0  0  0  0  0  0
   43.3753    4.5595   11.9766 Si  0  0  0  0  0  4  0  0  0  0  0  0
   43.0964    4.7250   12.2127 O   0  0  0  0  0  0  0  0  0  0  0  0
   43.2200    5.4358   10.4673 O   0  0  0  0  0  0  0  0  0  0  0  0
   43.3010    2.8183   11.8877 O   0  0  0  0  0  0  0  0  0  0  0  0
   42.8389    5.2381   13.3019 O   0  0  0  0  0  0  0  0  0  0  0  0
   43.2900    4.5493   11.9616 Si  0  0  0  0  0  4  0  0  0  0  0  0
   43.1934    5.0613   11.2913 H   0  0  0  0  0  0  0  0  0  0  0  0
   43.1976    3.7449   12.2100 H   0  0  0  0  0  0  0  0  0  0  0  0
  4  1  1  0
  4  2  1  0
  4  3  2  0
 11  8  1  0
 11  9  1  0
 11 10  2  0
 15 12  1  0
 15 13  1  0
 15 14  2  0
 20 17  1  0
 20 18  1  0
 20 19  2  0
 16 21  1  0
 16 22  1  0
M  CHG  8   1  -1   2  -1   5   3   6   3   7   2   8  -1   9  -1  12  -1
M  CHG  3  13  -1  17  -1  18  -1
M  END
> <Uni-Dock RESULT> 
ENERGY=   -6.723  LOWER_BOUND=    6.691  UPPER_BOUND=    7.452
INTER + INTRA:          -6.723
INTER:                  -6.723
INTRA:                   0.000
UNBOUND:                 0.000

$$$$

     RDKit          3D

 22 14  0  0  0  0  0  0  0  0999 V2000
   44.2399    5.0794   10.4226 O   0  0  0  0  0  0  0  0  0  0  0  0
   43.3532    5.1551   13.2557 O   0  0  0  0  0  0  0  0  0  0  0  0
   43.0760    2.8575   11.6745 O   0  0  0  0  0  0  0  0  0  0  0  0
   43.1946    4.4370   11.6699 Si  0  0  0  0  0  4  0  0  0  0  0  0
   43.1912    4.3606   11.6876 Al  0  0  0  0  0 15  0  0  0  0  0  0
   43.1912    4.3606   11.6876 Al  0  0  0  0  0 15  0  0  0  0  0  0
   43.1912    4.3606   11.6876 Mg  0  0  0  0  0 15  0  0  0  0  0  0
   42.7329    5.3465   13.0223 O   0  0  0  0  0  0  0  0  0  0  0  0
   43.4901    4.9535   10.0996 O   0  0  0  0  0  0  0  0  0  0  0  0
   43.2103    2.7938   11.9008 O   0  0  0  0  0  0  0  0  0  0  0  0
   43.3314    4.3485   11.7278 Si  0  0  0  0  0  4  0  0  0  0  0  0
   42.7172    5.3430   12.9877 O   0  0  0  0  0  0  0  0  0  0  0  0
   43.4527    4.9877   10.1332 O   0  0  0  0  0  0  0  0  0  0  0  0
   43.1838    2.7824   11.8820 O   0  0  0  0  0  0  0  0  0  0  0  0
   43.4109    4.3292   11.7477 Si  0  0  0  0  0  4  0  0  0  0  0  0
   43.2062    3.9843   11.7469 O   0  0  0  0  0  0  0  0  0  0  0  0
   42.7228    5.2216   13.0894 O   0  0  0  0  0  0  0  0  0  0  0  0
   43.4583    5.1408   10.2035 O   0  0  0  0  0  0  0  0  0  0  0  0
   43.2572    2.7542   11.7308 O   0  0  0  0  0  0  0  0  0  0  0  0
   43.3264    4.3257   11.7268 Si  0  0  0  0  0  4  0  0  0  0  0  0
   42.9843    4.6621   12.4272 H   0  0  0  0  0  0  0  0  0  0  0  0
   43.3830    4.4352   10.8888 H   0  0  0  0  0  0  0  0  0  0  0  0
  4  1  1  0
  4  2  1  0
  4  3  2  0
 11  8  1  0
 11  9  1  0
 11 10  2  0
 15 12  1  0
 15 13  1  0
 15 14  2  0
 20 17  1  0
 20 18  1  0
 20 19  2  0
 16 21  1  0
 16 22  1  0
M  CHG  8   1  -1   2  -1   5   3   6   3   7   2   8  -1   9  -1  12  -1
M  CHG  3  13  -1  17  -1  18  -1
M  END
> <Uni-Dock RESULT> 
ENERGY=   -6.708  LOWER_BOUND=    6.390  UPPER_BOUND=    7.242
INTER + INTRA:          -6.708
INTER:                  -6.708
INTRA:                   0.000
UNBOUND:                 0.000

$$$$

     RDKit          3D

 22 14  0  0  0  0  0  0  0  0999 V2000
   43.6421    4.4755    8.8054 O   0  0  0  0  0  0  0  0  0  0  0  0
   45.9525    3.7957    7.0681 O   0  0  0  0  0  0  0  0  0  0  0  0
   45.0351    2.0567    9.0657 O   0  0  0  0  0  0  0  0  0  0  0  0
   45.1198    3.5644    8.5875 Si  0  0  0  0  0  4  0  0  0  0  0  0
   45.1235    3.4863    8.5956 Al  0  0  0  0  0 15  0  0  0  0  0  0
   45.1235    3.4863    8.5956 Al  0  0  0  0  0 15  0  0  0  0  0  0
   45.1235    3.4863    8.5956 Mg  0  0  0  0  0 15  0  0  0  0  0  0
   46.3566    4.0784    7.5505 O   0  0  0  0  0  0  0  0  0  0  0  0
   44.0660    4.4866    9.5143 O   0  0  0  0  0  0  0  0  0  0  0  0
   45.0426    1.9245    8.8295 O   0  0  0  0  0  0  0  0  0  0  0  0
   45.0288    3.4558    8.4883 Si  0  0  0  0  0  4  0  0  0  0  0  0
   46.3499    4.0857    7.5875 O   0  0  0  0  0  0  0  0  0  0  0  0
   44.1194    4.5118    9.5001 O   0  0  0  0  0  0  0  0  0  0  0  0
   45.0526    1.9204    8.8622 O   0  0  0  0  0  0  0  0  0  0  0  0
   44.9720    3.4275    8.4329 Si  0  0  0  0  0  4  0  0  0  0  0  0
   45.1000    3.1084    8.6396 O   0  0  0  0  0  0  0  0  0  0  0  0
   46.3875    3.9404    7.5366 O   0  0  0  0  0  0  0  0  0  0  0  0
   44.1717    4.6384    9.4017 O   0  0  0  0  0  0  0  0  0  0  0  0
   44.9049    1.9321    8.9465 O   0  0  0  0  0  0  0  0  0  0  0  0
   45.0297    3.4346    8.4979 Si  0  0  0  0  0  4  0  0  0  0  0  0
   45.7393    3.5775    8.0543 H   0  0  0  0  0  0  0  0  0  0  0  0
   44.5312    3.7731    9.0931 H   0  0  0  0  0  0  0  0  0  0  0  0
  4  1  1  0
  4  2  1  0
  4  3  2  0
 11  8  1  0
 11  9  1  0
 11 10  2  0
 15 12  1  0
 15 13  1  0
 15 14  2  0
 20 17  1  0
 20 18  1  0
 20 19  2  0
 16 21  1  0
 16 22  1  0
M  CHG  8   1  -1   2  -1   5   3   6   3   7   2   8  -1   9  -1  12  -1
M  CHG  3  13  -1  17  -1  18  -1
M  END
> <Uni-Dock RESULT> 
ENERGY=   -6.687  LOWER_BOUND=    2.896  UPPER_BOUND=    3.907
INTER + INTRA:          -6.687
INTER:                  -6.687
INTRA:                   0.000
UNBOUND:                 0.000

$$$$
