
     RDKit          3D

 22 14  0  0  0  0  0  0  0  0999 V2000
   46.9498    3.8839    7.3119 O   0  0  0  0  0  0  0  0  0  0  0  0
   47.4770    0.9171    7.2825 O   0  0  0  0  0  0  0  0  0  0  0  0
   48.1184    2.5879    5.0590 O   0  0  0  0  0  0  0  0  0  0  0  0
   47.3885    2.4451    6.4494 Si  0  0  0  0  0  4  0  0  0  0  0  0
   47.4834    2.4585    6.5257 Al  0  0  0  0  0 15  0  0  0  0  0  0
   47.4834    2.4585    6.5257 Al  0  0  0  0  0 15  0  0  0  0  0  0
   47.4834    2.4585    6.5257 Mg  0  0  0  0  0 15  0  0  0  0  0  0
   47.0226    4.0120    7.0921 O   0  0  0  0  0  0  0  0  0  0  0  0
   47.3485    1.0754    7.4989 O   0  0  0  0  0  0  0  0  0  0  0  0
   48.1574    2.3029    5.0733 O   0  0  0  0  0  0  0  0  0  0  0  0
   47.4051    2.4437    6.4384 Si  0  0  0  0  0  4  0  0  0  0  0  0
   47.0158    3.9808    7.1474 O   0  0  0  0  0  0  0  0  0  0  0  0
   47.3856    1.0512    7.4654 O   0  0  0  0  0  0  0  0  0  0  0  0
   48.1666    2.3703    5.0657 O   0  0  0  0  0  0  0  0  0  0  0  0
   47.3656    2.4319    6.4243 Si  0  0  0  0  0  4  0  0  0  0  0  0
   47.6320    2.4879    6.1573 O   0  0  0  0  0  0  0  0  0  0  0  0
   46.9666    3.9066    7.2933 O   0  0  0  0  0  0  0  0  0  0  0  0
   47.4895    0.9203    7.2924 O   0  0  0  0  0  0  0  0  0  0  0  0
   48.1301    2.5700    5.0748 O   0  0  0  0  0  0  0  0  0  0  0  0
   47.3475    2.4372    6.4422 Si  0  0  0  0  0  4  0  0  0  0  0  0
   47.5504    1.6616    6.7005 H   0  0  0  0  0  0  0  0  0  0  0  0
   47.2679    3.2260    6.7191 H   0  0  0  0  0  0  0  0  0  0  0  0
  4  1  1  0
  4  2  1  0
  4  3  2  0
 11  8  1  0
 11  9  1  0
 11 10  2  0
 15 12  1  0
 15 13  1  0
 15 14  2  0
 20 17  1  0
 20 18  1  0
 20 19  2  0
 16 21  1  0
 16 22  1  0
M  CHG  8   1  -1   2  -1   5   3   6   3   7   2   8  -1   9  -1  12  -1
M  CHG  3  13  -1  17  -1  18  -1
M  END
> <Uni-Dock RESULT> 
ENERGY=   -9.433  LOWER_BOUND=    0.000  UPPER_BOUND=    0.000
INTER + INTRA:          -9.433
INTER:                  -9.433
INTRA:                   0.000
UNBOUND:                 0.000

$$$$

     RDKit          3D

 22 14  0  0  0  0  0  0  0  0999 V2000
   46.6127    3.7792    7.0210 O   0  0  0  0  0  0  0  0  0  0  0  0
   48.2091    2.2574    4.9676 O   0  0  0  0  0  0  0  0  0  0  0  0
   47.3286    1.0468    7.3977 O   0  0  0  0  0  0  0  0  0  0  0  0
   47.5131    2.3705    6.5611 Si  0  0  0  0  0  4  0  0  0  0  0  0
   47.4159    2.3635    6.4869 Al  0  0  0  0  0 15  0  0  0  0  0  0
   47.4159    2.3635    6.4869 Al  0  0  0  0  0 15  0  0  0  0  0  0
   47.4159    2.3635    6.4869 Mg  0  0  0  0  0 15  0  0  0  0  0  0
   46.5435    3.6389    7.2344 O   0  0  0  0  0  0  0  0  0  0  0  0
   48.1293    2.5437    4.9582 O   0  0  0  0  0  0  0  0  0  0  0  0
   47.4848    0.9193    7.1922 O   0  0  0  0  0  0  0  0  0  0  0  0
   47.5058    2.3520    6.5627 Si  0  0  0  0  0  4  0  0  0  0  0  0
   46.5524    3.6671    7.1778 O   0  0  0  0  0  0  0  0  0  0  0  0
   48.1297    2.4883    4.9545 O   0  0  0  0  0  0  0  0  0  0  0  0
   47.4364    0.9346    7.2380 O   0  0  0  0  0  0  0  0  0  0  0  0
   47.5450    2.3640    6.5773 Si  0  0  0  0  0  4  0  0  0  0  0  0
   47.4035    2.0386    6.7170 O   0  0  0  0  0  0  0  0  0  0  0  0
   46.5917    3.7651    7.0434 O   0  0  0  0  0  0  0  0  0  0  0  0
   48.1954    2.2570    4.9588 O   0  0  0  0  0  0  0  0  0  0  0  0
   47.3276    1.0424    7.3715 O   0  0  0  0  0  0  0  0  0  0  0  0
   47.5487    2.3895    6.5738 Si  0  0  0  0  0  4  0  0  0  0  0  0
   47.8418    2.1221    5.8308 H   0  0  0  0  0  0  0  0  0  0  0  0
   47.0023    2.9296    6.9128 H   0  0  0  0  0  0  0  0  0  0  0  0
  4  1  1  0
  4  2  1  0
  4  3  2  0
 11  8  1  0
 11  9  1  0
 11 10  2  0
 15 12  1  0
 15 13  1  0
 15 14  2  0
 20 17  1  0
 20 18  1  0
 20 19  2  0
 16 21  1  0
 16 22  1  0
M  CHG  8   1  -1   2  -1   5   3   6   3   7   2   8  -1   9  -1  12  -1
M  CHG  3  13  -1  17  -1  18  -1
M  END
> <Uni-Dock RESULT> 
ENERGY=   -9.262  LOWER_BOUND=    0.295  UPPER_BOUND=    1.822
INTER + INTRA:          -9.262
INTER:                  -9.262
INTRA:                   0.000
UNBOUND:                 0.000

$$$$

     RDKit          3D

 22 14  0  0  0  0  0  0  0  0999 V2000
   47.4094    0.8987    7.3367 O   0  0  0  0  0  0  0  0  0  0  0  0
   48.1554    2.6012    4.9648 O   0  0  0  0  0  0  0  0  0  0  0  0
   47.0042    3.7194    7.3251 O   0  0  0  0  0  0  0  0  0  0  0  0
   47.3642    2.4204    6.5068 Si  0  0  0  0  0  4  0  0  0  0  0  0
   47.4833    2.4099    6.5334 Al  0  0  0  0  0 15  0  0  0  0  0  0
   47.4833    2.4099    6.5334 Al  0  0  0  0  0 15  0  0  0  0  0  0
   47.4833    2.4099    6.5334 Mg  0  0  0  0  0 15  0  0  0  0  0  0
   47.3074    1.0317    7.5414 O   0  0  0  0  0  0  0  0  0  0  0  0
   48.1779    2.3057    4.9891 O   0  0  0  0  0  0  0  0  0  0  0  0
   47.0781    3.8647    7.0877 O   0  0  0  0  0  0  0  0  0  0  0  0
   47.3698    2.4377    6.5153 Si  0  0  0  0  0  4  0  0  0  0  0  0
   47.3416    1.0038    7.4953 O   0  0  0  0  0  0  0  0  0  0  0  0
   48.1874    2.3603    4.9922 O   0  0  0  0  0  0  0  0  0  0  0  0
   47.0719    3.8430    7.1523 O   0  0  0  0  0  0  0  0  0  0  0  0
   47.3324    2.4325    6.4937 Si  0  0  0  0  0  4  0  0  0  0  0  0
   47.3551    2.7346    6.7252 O   0  0  0  0  0  0  0  0  0  0  0  0
   47.4074    0.9099    7.3685 O   0  0  0  0  0  0  0  0  0  0  0  0
   48.1709    2.5992    4.9696 O   0  0  0  0  0  0  0  0  0  0  0  0
   47.0254    3.7228    7.3094 O   0  0  0  0  0  0  0  0  0  0  0  0
   47.3296    2.4078    6.4860 Si  0  0  0  0  0  4  0  0  0  0  0  0
   47.7448    2.6988    5.8135 H   0  0  0  0  0  0  0  0  0  0  0  0
   47.3500    1.7965    7.0614 H   0  0  0  0  0  0  0  0  0  0  0  0
  4  1  1  0
  4  2  1  0
  4  3  2  0
 11  8  1  0
 11  9  1  0
 11 10  2  0
 15 12  1  0
 15 13  1  0
 15 14  2  0
 20 17  1  0
 20 18  1  0
 20 19  2  0
 16 21  1  0
 16 22  1  0
M  CHG  8   1  -1   2  -1   5   3   6   3   7   2   8  -1   9  -1  12  -1
M  CHG  3  13  -1  17  -1  18  -1
M  END
> <Uni-Dock RESULT> 
ENERGY=   -9.201  LOWER_BOUND=    0.182  UPPER_BOUND=    2.258
INTER + INTRA:          -9.201
INTER:                  -9.201
INTRA:                   0.000
UNBOUND:                 0.000

$$$$

     RDKit          3D

 22 14  0  0  0  0  0  0  0  0999 V2000
   48.1676    2.2738    4.9582 O   0  0  0  0  0  0  0  0  0  0  0  0
   47.1925    0.8643    7.4368 O   0  0  0  0  0  0  0  0  0  0  0  0
   46.8984    3.6816    7.0862 O   0  0  0  0  0  0  0  0  0  0  0  0
   47.5455    2.3374    6.5755 Si  0  0  0  0  0  4  0  0  0  0  0  0
   47.4510    2.2893    6.5142 Al  0  0  0  0  0 15  0  0  0  0  0  0
   47.4510    2.2893    6.5142 Al  0  0  0  0  0 15  0  0  0  0  0  0
   47.4510    2.2893    6.5142 Mg  0  0  0  0  0 15  0  0  0  0  0  0
   48.1235    2.5346    4.9541 O   0  0  0  0  0  0  0  0  0  0  0  0
   47.3357    0.7443    7.2055 O   0  0  0  0  0  0  0  0  0  0  0  0
   46.8156    3.5303    7.3168 O   0  0  0  0  0  0  0  0  0  0  0  0
   47.5293    2.3480    6.5805 Si  0  0  0  0  0  4  0  0  0  0  0  0
   48.1234    2.4708    4.9530 O   0  0  0  0  0  0  0  0  0  0  0  0
   47.2966    0.7648    7.2391 O   0  0  0  0  0  0  0  0  0  0  0  0
   46.8171    3.5717    7.2624 O   0  0  0  0  0  0  0  0  0  0  0  0
   47.5670    2.3498    6.6022 Si  0  0  0  0  0  4  0  0  0  0  0  0
   47.3225    2.6362    6.6617 O   0  0  0  0  0  0  0  0  0  0  0  0
   48.1552    2.3030    4.9466 O   0  0  0  0  0  0  0  0  0  0  0  0
   47.1803    0.8588    7.4276 O   0  0  0  0  0  0  0  0  0  0  0  0
   46.8836    3.6603    7.0920 O   0  0  0  0  0  0  0  0  0  0  0  0
   47.5850    2.3351    6.5905 Si  0  0  0  0  0  4  0  0  0  0  0  0
   47.2560    1.7458    7.0945 H   0  0  0  0  0  0  0  0  0  0  0  0
   47.7745    2.4859    5.7864 H   0  0  0  0  0  0  0  0  0  0  0  0
  4  1  1  0
  4  2  1  0
  4  3  2  0
 11  8  1  0
 11  9  1  0
 11 10  2  0
 15 12  1  0
 15 13  1  0
 15 14  2  0
 20 17  1  0
 20 18  1  0
 20 19  2  0
 16 21  1  0
 16 22  1  0
M  CHG  8   1  -1   2  -1   5   3   6   3   7   2   8  -1   9  -1  12  -1
M  CHG  3  13  -1  17  -1  18  -1
M  END
> <Uni-Dock RESULT> 
ENERGY=   -9.180  LOWER_BOUND=    0.272  UPPER_BOUND=    1.826
INTER + INTRA:          -9.180
INTER:                  -9.180
INTRA:                   0.000
UNBOUND:                 0.000

$$$$

     RDKit          3D

 22 14  0  0  0  0  0  0  0  0999 V2000
   45.2737    1.8182    8.9713 O   0  0  0  0  0  0  0  0  0  0  0  0
   46.3149    4.2738    7.5687 O   0  0  0  0  0  0  0  0  0  0  0  0
   43.9322    4.3269    9.1392 O   0  0  0  0  0  0  0  0  0  0  0  0
   45.0531    3.4574    8.4506 Si  0  0  0  0  0  4  0  0  0  0  0  0
   45.1434    3.4691    8.5325 Al  0  0  0  0  0 15  0  0  0  0  0  0
   45.1434    3.4691    8.5325 Al  0  0  0  0  0 15  0  0  0  0  0  0
   45.1434    3.4691    8.5325 Mg  0  0  0  0  0 15  0  0  0  0  0  0
   45.0523    1.8556    9.1112 O   0  0  0  0  0  0  0  0  0  0  0  0
   46.4289    3.9993    7.5605 O   0  0  0  0  0  0  0  0  0  0  0  0
   44.0447    4.5492    8.9951 O   0  0  0  0  0  0  0  0  0  0  0  0
   45.0478    3.4722    8.4631 Si  0  0  0  0  0  4  0  0  0  0  0  0
   45.1107    1.8519    9.0857 O   0  0  0  0  0  0  0  0  0  0  0  0
   46.4157    4.0511    7.5755 O   0  0  0  0  0  0  0  0  0  0  0  0
   44.0192    4.5086    9.0438 O   0  0  0  0  0  0  0  0  0  0  0  0
   45.0282    3.4646    8.4249 Si  0  0  0  0  0  4  0  0  0  0  0  0
   44.8373    3.6808    8.6744 O   0  0  0  0  0  0  0  0  0  0  0  0
   45.2541    1.8187    8.9988 O   0  0  0  0  0  0  0  0  0  0  0  0
   46.3263    4.2743    7.5804 O   0  0  0  0  0  0  0  0  0  0  0  0
   43.9553    4.3398    9.1372 O   0  0  0  0  0  0  0  0  0  0  0  0
   45.0382    3.4433    8.4136 Si  0  0  0  0  0  4  0  0  0  0  0  0
   45.5702    4.0126    8.0936 H   0  0  0  0  0  0  0  0  0  0  0  0
   45.0228    2.7140    8.8295 H   0  0  0  0  0  0  0  0  0  0  0  0
  4  1  1  0
  4  2  1  0
  4  3  2  0
 11  8  1  0
 11  9  1  0
 11 10  2  0
 15 12  1  0
 15 13  1  0
 15 14  2  0
 20 17  1  0
 20 18  1  0
 20 19  2  0
 16 21  1  0
 16 22  1  0
M  CHG  8   1  -1   2  -1   5   3   6   3   7   2   8  -1   9  -1  12  -1
M  CHG  3  13  -1  17  -1  18  -1
M  END
> <Uni-Dock RESULT> 
ENERGY=   -7.334  LOWER_BOUND=    2.837  UPPER_BOUND=    4.047
INTER + INTRA:          -7.334
INTER:                  -7.334
INTRA:                   0.000
UNBOUND:                 0.000

$$$$

     RDKit          3D

 22 14  0  0  0  0  0  0  0  0999 V2000
   43.1674    2.7034   11.8367 O   0  0  0  0  0  0  0  0  0  0  0  0
   42.7987    5.3988   13.1328 O   0  0  0  0  0  0  0  0  0  0  0  0
   43.3251    5.1240   10.3411 O   0  0  0  0  0  0  0  0  0  0  0  0
   43.2580    4.4332   11.7570 Si  0  0  0  0  0  4  0  0  0  0  0  0
   43.1373    4.4148   11.7669 Al  0  0  0  0  0 15  0  0  0  0  0  0
   43.1373    4.4148   11.7669 Al  0  0  0  0  0 15  0  0  0  0  0  0
   43.1373    4.4148   11.7669 Mg  0  0  0  0  0 15  0  0  0  0  0  0
   43.2122    2.7106   11.5761 O   0  0  0  0  0  0  0  0  0  0  0  0
   42.7967    5.1328   13.2658 O   0  0  0  0  0  0  0  0  0  0  0  0
   43.2911    5.3721   10.4832 O   0  0  0  0  0  0  0  0  0  0  0  0
   43.2493    4.4439   11.7425 Si  0  0  0  0  0  4  0  0  0  0  0  0
   43.1910    2.7112   11.6363 O   0  0  0  0  0  0  0  0  0  0  0  0
   42.7822    5.1786   13.2379 O   0  0  0  0  0  0  0  0  0  0  0  0
   43.2853    5.3205   10.4387 O   0  0  0  0  0  0  0  0  0  0  0  0
   43.2907    4.4491   11.7547 Si  0  0  0  0  0  4  0  0  0  0  0  0
   43.1940    4.5926   11.4150 O   0  0  0  0  0  0  0  0  0  0  0  0
   43.1617    2.6969   11.8041 O   0  0  0  0  0  0  0  0  0  0  0  0
   42.7827    5.3952   13.1334 O   0  0  0  0  0  0  0  0  0  0  0  0
   43.3075    5.1357   10.3573 O   0  0  0  0  0  0  0  0  0  0  0  0
   43.2972    4.4316   11.7729 Si  0  0  0  0  0  4  0  0  0  0  0  0
   43.0106    5.0380   12.2824 H   0  0  0  0  0  0  0  0  0  0  0  0
   43.2074    3.6141   11.6032 H   0  0  0  0  0  0  0  0  0  0  0  0
  4  1  1  0
  4  2  1  0
  4  3  2  0
 11  8  1  0
 11  9  1  0
 11 10  2  0
 15 12  1  0
 15 13  1  0
 15 14  2  0
 20 17  1  0
 20 18  1  0
 20 19  2  0
 16 21  1  0
 16 22  1  0
M  CHG  8   1  -1   2  -1   5   3   6   3   7   2   8  -1   9  -1  12  -1
M  CHG  3  13  -1  17  -1  18  -1
M  END
> <Uni-Dock RESULT> 
ENERGY=   -7.124  LOWER_BOUND=    6.610  UPPER_BOUND=    7.339
INTER + INTRA:          -7.124
INTER:                  -7.124
INTRA:                   0.000
UNBOUND:                 0.000

$$$$

     RDKit          3D

 22 14  0  0  0  0  0  0  0  0999 V2000
   42.8224    6.7764   11.0301 O   0  0  0  0  0  0  0  0  0  0  0  0
   43.1861    3.7851   11.0510 O   0  0  0  0  0  0  0  0  0  0  0  0
   42.7287    5.2684   13.4462 O   0  0  0  0  0  0  0  0  0  0  0  0
   43.0616    5.2987   11.9052 Si  0  0  0  0  0  4  0  0  0  0  0  0
   42.9497    5.2822   11.8582 Al  0  0  0  0  0 15  0  0  0  0  0  0
   42.9497    5.2822   11.8582 Al  0  0  0  0  0 15  0  0  0  0  0  0
   42.9497    5.2822   11.8582 Mg  0  0  0  0  0 15  0  0  0  0  0  0
   42.7790    6.8848   11.2675 O   0  0  0  0  0  0  0  0  0  0  0  0
   43.2005    3.9670   10.8162 O   0  0  0  0  0  0  0  0  0  0  0  0
   42.7697    4.9839   13.4287 O   0  0  0  0  0  0  0  0  0  0  0  0
   43.0497    5.2930   11.9203 Si  0  0  0  0  0  4  0  0  0  0  0  0
   42.7791    6.8552   11.2110 O   0  0  0  0  0  0  0  0  0  0  0  0
   43.1824    3.9341   10.8572 O   0  0  0  0  0  0  0  0  0  0  0  0
   42.7442    5.0460   13.4419 O   0  0  0  0  0  0  0  0  0  0  0  0
   43.0932    5.2934   11.9226 Si  0  0  0  0  0  4  0  0  0  0  0  0
   42.9051    5.2788   12.2540 O   0  0  0  0  0  0  0  0  0  0  0  0
   42.8056    6.7939   11.0536 O   0  0  0  0  0  0  0  0  0  0  0  0
   43.1710    3.7842   11.0450 O   0  0  0  0  0  0  0  0  0  0  0  0
   42.7187    5.2474   13.4333 O   0  0  0  0  0  0  0  0  0  0  0  0
   43.1034    5.3032   11.9007 Si  0  0  0  0  0  4  0  0  0  0  0  0
   43.0662    4.4946   11.6680 H   0  0  0  0  0  0  0  0  0  0  0  0
   42.8778    6.0731   11.6527 H   0  0  0  0  0  0  0  0  0  0  0  0
  4  1  1  0
  4  2  1  0
  4  3  2  0
 11  8  1  0
 11  9  1  0
 11 10  2  0
 15 12  1  0
 15 13  1  0
 15 14  2  0
 20 17  1  0
 20 18  1  0
 20 19  2  0
 16 21  1  0
 16 22  1  0
M  CHG  8   1  -1   2  -1   5   3   6   3   7   2   8  -1   9  -1  12  -1
M  CHG  3  13  -1  17  -1  18  -1
M  END
> <Uni-Dock RESULT> 
ENERGY=   -7.115  LOWER_BOUND=    6.863  UPPER_BOUND=    7.783
INTER + INTRA:          -7.115
INTER:                  -7.115
INTRA:                   0.000
UNBOUND:                 0.000

$$$$

     RDKit          3D

 22 14  0  0  0  0  0  0  0  0999 V2000
   43.9400    4.6452    9.2465 O   0  0  0  0  0  0  0  0  0  0  0  0
   45.9055    3.5853    7.2231 O   0  0  0  0  0  0  0  0  0  0  0  0
   44.5975    1.8764    9.0980 O   0  0  0  0  0  0  0  0  0  0  0  0
   44.9231    3.3506    8.6430 Si  0  0  0  0  0  4  0  0  0  0  0  0
   44.8415    3.3644    8.5527 Al  0  0  0  0  0 15  0  0  0  0  0  0
   44.8415    3.3644    8.5527 Al  0  0  0  0  0 15  0  0  0  0  0  0
   44.8415    3.3644    8.5527 Mg  0  0  0  0  0 15  0  0  0  0  0  0
   43.8334    4.4618    9.4046 O   0  0  0  0  0  0  0  0  0  0  0  0
   45.8263    3.8686    7.2664 O   0  0  0  0  0  0  0  0  0  0  0  0
   44.7906    1.7946    8.9006 O   0  0  0  0  0  0  0  0  0  0  0  0
   44.9158    3.3325    8.6389 Si  0  0  0  0  0  4  0  0  0  0  0  0
   43.8524    4.5020    9.3588 O   0  0  0  0  0  0  0  0  0  0  0  0
   45.8278    3.8156    7.2500 O   0  0  0  0  0  0  0  0  0  0  0  0
   44.7343    1.8006    8.9390 O   0  0  0  0  0  0  0  0  0  0  0  0
   44.9515    3.3394    8.6628 Si  0  0  0  0  0  4  0  0  0  0  0  0
   44.7893    2.9957    8.6941 O   0  0  0  0  0  0  0  0  0  0  0  0
   43.9153    4.6270    9.2606 O   0  0  0  0  0  0  0  0  0  0  0  0
   45.8937    3.5874    7.2120 O   0  0  0  0  0  0  0  0  0  0  0  0
   44.6015    1.8783    9.0718 O   0  0  0  0  0  0  0  0  0  0  0  0
   44.9555    3.3649    8.6661 Si  0  0  0  0  0  4  0  0  0  0  0  0
   45.3847    3.2667    7.9481 H   0  0  0  0  0  0  0  0  0  0  0  0
   44.3505    3.8306    9.0158 H   0  0  0  0  0  0  0  0  0  0  0  0
  4  1  1  0
  4  2  1  0
  4  3  2  0
 11  8  1  0
 11  9  1  0
 11 10  2  0
 15 12  1  0
 15 13  1  0
 15 14  2  0
 20 17  1  0
 20 18  1  0
 20 19  2  0
 16 21  1  0
 16 22  1  0
M  CHG  8   1  -1   2  -1   5   3   6   3   7   2   8  -1   9  -1  12  -1
M  CHG  3  13  -1  17  -1  18  -1
M  END
> <Uni-Dock RESULT> 
ENERGY=   -7.036  LOWER_BOUND=    3.079  UPPER_BOUND=    3.913
INTER + INTRA:          -7.036
INTER:                  -7.036
INTRA:                   0.000
UNBOUND:                 0.000

$$$$

     RDKit          3D

 22 14  0  0  0  0  0  0  0  0999 V2000
   43.2982    5.2301   10.3255 O   0  0  0  0  0  0  0  0  0  0  0  0
   43.2507    2.7532   12.0411 O   0  0  0  0  0  0  0  0  0  0  0  0
   42.7851    5.3518   13.1260 O   0  0  0  0  0  0  0  0  0  0  0  0
   43.2559    4.4893   11.8927 Si  0  0  0  0  0  4  0  0  0  0  0  0
   43.1475    4.4561   11.8463 Al  0  0  0  0  0 15  0  0  0  0  0  0
   43.1475    4.4561   11.8463 Al  0  0  0  0  0 15  0  0  0  0  0  0
   43.1475    4.4561   11.8463 Mg  0  0  0  0  0 15  0  0  0  0  0  0
   43.2487    5.4557   10.4545 O   0  0  0  0  0  0  0  0  0  0  0  0
   43.3105    2.7702   11.7503 O   0  0  0  0  0  0  0  0  0  0  0  0
   42.7886    5.1048   13.2740 O   0  0  0  0  0  0  0  0  0  0  0  0
   43.2420    4.4938   11.9064 Si  0  0  0  0  0  4  0  0  0  0  0  0
   43.2499    5.3995   10.4243 O   0  0  0  0  0  0  0  0  0  0  0  0
   43.2846    2.7672   11.7993 O   0  0  0  0  0  0  0  0  0  0  0  0
   42.7707    5.1650   13.2469 O   0  0  0  0  0  0  0  0  0  0  0  0
   43.2848    4.4928   11.9146 Si  0  0  0  0  0  4  0  0  0  0  0  0
   43.0675    4.6788   12.1667 O   0  0  0  0  0  0  0  0  0  0  0  0
   43.2818    5.2588   10.3326 O   0  0  0  0  0  0  0  0  0  0  0  0
   43.2362    2.7500   12.0343 O   0  0  0  0  0  0  0  0  0  0  0  0
   42.7736    5.3278   13.1253 O   0  0  0  0  0  0  0  0  0  0  0  0
   43.2982    4.4879   11.8928 Si  0  0  0  0  0  4  0  0  0  0  0  0
   43.1730    3.6926   12.1403 H   0  0  0  0  0  0  0  0  0  0  0  0
   43.2019    4.9970   11.2320 H   0  0  0  0  0  0  0  0  0  0  0  0
  4  1  1  0
  4  2  1  0
  4  3  2  0
 11  8  1  0
 11  9  1  0
 11 10  2  0
 15 12  1  0
 15 13  1  0
 15 14  2  0
 20 17  1  0
 20 18  1  0
 20 19  2  0
 16 21  1  0
 16 22  1  0
M  CHG  8   1  -1   2  -1   5   3   6   3   7   2   8  -1   9  -1  12  -1
M  CHG  3  13  -1  17  -1  18  -1
M  END
> <Uni-Dock RESULT> 
ENERGY=   -7.013  LOWER_BOUND=    6.675  UPPER_BOUND=    7.402
INTER + INTRA:          -7.013
INTER:                  -7.013
INTRA:                   0.000
UNBOUND:                 0.000

$$$$
