
     RDKit          3D

 22 14  0  0  0  0  0  0  0  0999 V2000
   47.2433    0.9068    7.4130 O   0  0  0  0  0  0  0  0  0  0  0  0
   46.9117    3.8683    7.0331 O   0  0  0  0  0  0  0  0  0  0  0  0
   48.1650    2.2398    5.0610 O   0  0  0  0  0  0  0  0  0  0  0  0
   47.5941    2.3562    6.5158 Si  0  0  0  0  0  4  0  0  0  0  0  0
   47.4785    2.3428    6.5057 Al  0  0  0  0  0 15  0  0  0  0  0  0
   47.4785    2.3428    6.5057 Al  0  0  0  0  0 15  0  0  0  0  0  0
   47.4785    2.3428    6.5057 Mg  0  0  0  0  0 15  0  0  0  0  0  0
   47.3240    0.8199    7.2701 O   0  0  0  0  0  0  0  0  0  0  0  0
   46.8459    3.7613    7.1900 O   0  0  0  0  0  0  0  0  0  0  0  0
   48.1320    2.4399    5.0415 O   0  0  0  0  0  0  0  0  0  0  0  0
   47.6121    2.3501    6.5211 Si  0  0  0  0  0  4  0  0  0  0  0  0
   46.9270    3.8978    6.9589 O   0  0  0  0  0  0  0  0  0  0  0  0
   47.2184    0.9259    7.4394 O   0  0  0  0  0  0  0  0  0  0  0  0
   48.1563    2.1813    5.0773 O   0  0  0  0  0  0  0  0  0  0  0  0
   47.6124    2.3663    6.5473 Si  0  0  0  0  0  4  0  0  0  0  0  0
   47.6437    2.3087    6.1829 O   0  0  0  0  0  0  0  0  0  0  0  0
   47.4389    0.8020    7.2888 O   0  0  0  0  0  0  0  0  0  0  0  0
   46.8403    3.7550    7.2180 O   0  0  0  0  0  0  0  0  0  0  0  0
   48.1678    2.4910    5.0570 O   0  0  0  0  0  0  0  0  0  0  0  0
   47.4672    2.3232    6.4591 Si  0  0  0  0  0  4  0  0  0  0  0  0
   47.4753    1.5515    6.7997 H   0  0  0  0  0  0  0  0  0  0  0  0
   47.3167    3.1681    6.5345 H   0  0  0  0  0  0  0  0  0  0  0  0
  4  1  1  0
  4  2  1  0
  4  3  2  0
 11  8  1  0
 11  9  1  0
 11 10  2  0
 15 12  1  0
 15 13  1  0
 15 14  2  0
 20 17  1  0
 20 18  1  0
 20 19  2  0
 16 21  1  0
 16 22  1  0
M  CHG  8   1  -1   2  -1   5   3   6   3   7   2   8  -1   9  -1  12  -1
M  CHG  3  13  -1  17  -1  18  -1
M  END
> <Uni-Dock RESULT> 
ENERGY=   -9.499  LOWER_BOUND=    0.000  UPPER_BOUND=    0.000
INTER + INTRA:          -9.499
INTER:                  -9.499
INTRA:                   0.000
UNBOUND:                 0.000

$$$$

     RDKit          3D

 22 14  0  0  0  0  0  0  0  0999 V2000
   48.1861    2.5336    4.9500 O   0  0  0  0  0  0  0  0  0  0  0  0
   46.9035    3.8373    7.3333 O   0  0  0  0  0  0  0  0  0  0  0  0
   47.5234    1.0576    7.3040 O   0  0  0  0  0  0  0  0  0  0  0  0
   47.4063    2.3977    6.5000 Si  0  0  0  0  0  4  0  0  0  0  0  0
   47.5048    2.4565    6.5218 Al  0  0  0  0  0 15  0  0  0  0  0  0
   47.5048    2.4565    6.5218 Al  0  0  0  0  0 15  0  0  0  0  0  0
   47.5048    2.4565    6.5218 Mg  0  0  0  0  0 15  0  0  0  0  0  0
   48.2212    2.3525    4.9716 O   0  0  0  0  0  0  0  0  0  0  0  0
   46.9611    3.9303    7.1646 O   0  0  0  0  0  0  0  0  0  0  0  0
   47.4427    1.1562    7.4629 O   0  0  0  0  0  0  0  0  0  0  0  0
   47.3943    2.3872    6.4883 Si  0  0  0  0  0  4  0  0  0  0  0  0
   46.9000    3.7936    7.4017 O   0  0  0  0  0  0  0  0  0  0  0  0
   48.1855    2.5745    4.9502 O   0  0  0  0  0  0  0  0  0  0  0  0
   47.5574    1.0470    7.2540 O   0  0  0  0  0  0  0  0  0  0  0  0
   47.3764    2.4112    6.4814 Si  0  0  0  0  0  4  0  0  0  0  0  0
   47.5063    2.1317    6.6865 O   0  0  0  0  0  0  0  0  0  0  0  0
   48.1380    2.2854    4.9223 O   0  0  0  0  0  0  0  0  0  0  0  0
   46.9596    3.9488    7.1421 O   0  0  0  0  0  0  0  0  0  0  0  0
   47.3818    1.1672    7.4802 O   0  0  0  0  0  0  0  0  0  0  0  0
   47.5400    2.4247    6.5428 Si  0  0  0  0  0  4  0  0  0  0  0  0
   47.8531    2.2886    5.7714 H   0  0  0  0  0  0  0  0  0  0  0  0
   47.1551    2.9493    7.1076 H   0  0  0  0  0  0  0  0  0  0  0  0
  4  1  1  0
  4  2  1  0
  4  3  2  0
 11  8  1  0
 11  9  1  0
 11 10  2  0
 15 12  1  0
 15 13  1  0
 15 14  2  0
 20 17  1  0
 20 18  1  0
 20 19  2  0
 16 21  1  0
 16 22  1  0
M  CHG  8   1  -1   2  -1   5   3   6   3   7   2   8  -1   9  -1  12  -1
M  CHG  3  13  -1  17  -1  18  -1
M  END
> <Uni-Dock RESULT> 
ENERGY=   -9.302  LOWER_BOUND=    0.216  UPPER_BOUND=    1.824
INTER + INTRA:          -9.302
INTER:                  -9.302
INTRA:                   0.000
UNBOUND:                 0.000

$$$$

     RDKit          3D

 22 14  0  0  0  0  0  0  0  0999 V2000
   46.6881    3.8140    7.0756 O   0  0  0  0  0  0  0  0  0  0  0  0
   48.1930    2.3021    4.9603 O   0  0  0  0  0  0  0  0  0  0  0  0
   47.3549    1.0532    7.3790 O   0  0  0  0  0  0  0  0  0  0  0  0
   47.5351    2.3813    6.5667 Si  0  0  0  0  0  4  0  0  0  0  0  0
   47.4428    2.3877    6.4954 Al  0  0  0  0  0 15  0  0  0  0  0  0
   47.4428    2.3877    6.4954 Al  0  0  0  0  0 15  0  0  0  0  0  0
   47.4428    2.3877    6.4954 Mg  0  0  0  0  0 15  0  0  0  0  0  0
   46.6400    3.7119    7.2230 O   0  0  0  0  0  0  0  0  0  0  0  0
   48.1342    2.4941    4.9490 O   0  0  0  0  0  0  0  0  0  0  0  0
   47.4514    0.9577    7.2271 O   0  0  0  0  0  0  0  0  0  0  0  0
   47.5456    2.3870    6.5824 Si  0  0  0  0  0  4  0  0  0  0  0  0
   48.1966    2.2214    4.9684 O   0  0  0  0  0  0  0  0  0  0  0  0
   46.6920    3.8326    7.0392 O   0  0  0  0  0  0  0  0  0  0  0  0
   47.3176    1.0925    7.4078 O   0  0  0  0  0  0  0  0  0  0  0  0
   47.5650    2.4043    6.5660 Si  0  0  0  0  0  4  0  0  0  0  0  0
   47.4243    2.0929    6.7085 O   0  0  0  0  0  0  0  0  0  0  0  0
   46.7149    3.7260    7.3126 O   0  0  0  0  0  0  0  0  0  0  0  0
   48.1359    2.5225    4.9429 O   0  0  0  0  0  0  0  0  0  0  0  0
   47.5138    0.9480    7.2152 O   0  0  0  0  0  0  0  0  0  0  0  0
   47.4064    2.3541    6.5108 Si  0  0  0  0  0  4  0  0  0  0  0  0
   47.0434    2.9750    6.9516 H   0  0  0  0  0  0  0  0  0  0  0  0
   47.8606    2.0951    5.8260 H   0  0  0  0  0  0  0  0  0  0  0  0
  4  1  1  0
  4  2  1  0
  4  3  2  0
 11  8  1  0
 11  9  1  0
 11 10  2  0
 15 12  1  0
 15 13  1  0
 15 14  2  0
 20 17  1  0
 20 18  1  0
 20 19  2  0
 16 21  1  0
 16 22  1  0
M  CHG  8   1  -1   2  -1   5   3   6   3   7   2   8  -1   9  -1  12  -1
M  CHG  3  13  -1  17  -1  18  -1
M  END
> <Uni-Dock RESULT> 
ENERGY=   -9.268  LOWER_BOUND=    0.196  UPPER_BOUND=    2.227
INTER + INTRA:          -9.268
INTER:                  -9.268
INTRA:                   0.000
UNBOUND:                 0.000

$$$$

     RDKit          3D

 22 14  0  0  0  0  0  0  0  0999 V2000
   47.4066    0.8952    7.3607 O   0  0  0  0  0  0  0  0  0  0  0  0
   48.1574    2.5419    4.9629 O   0  0  0  0  0  0  0  0  0  0  0  0
   47.0090    3.7227    7.2866 O   0  0  0  0  0  0  0  0  0  0  0  0
   47.3734    2.4122    6.5083 Si  0  0  0  0  0  4  0  0  0  0  0  0
   47.4866    2.3930    6.5297 Al  0  0  0  0  0 15  0  0  0  0  0  0
   47.4866    2.3930    6.5297 Al  0  0  0  0  0 15  0  0  0  0  0  0
   47.4866    2.3930    6.5297 Mg  0  0  0  0  0 15  0  0  0  0  0  0
   47.3371    0.9933    7.5023 O   0  0  0  0  0  0  0  0  0  0  0  0
   48.1858    2.3440    4.9839 O   0  0  0  0  0  0  0  0  0  0  0  0
   47.0693    3.8266    7.1220 O   0  0  0  0  0  0  0  0  0  0  0  0
   47.3541    2.4081    6.5104 Si  0  0  0  0  0  4  0  0  0  0  0  0
   48.1567    2.6227    4.9722 O   0  0  0  0  0  0  0  0  0  0  0  0
   47.4295    0.8766    7.3324 O   0  0  0  0  0  0  0  0  0  0  0  0
   47.0080    3.6797    7.3303 O   0  0  0  0  0  0  0  0  0  0  0  0
   47.3521    2.3930    6.4837 Si  0  0  0  0  0  4  0  0  0  0  0  0
   47.3670    2.6872    6.7080 O   0  0  0  0  0  0  0  0  0  0  0  0
   47.2195    0.9904    7.5043 O   0  0  0  0  0  0  0  0  0  0  0  0
   48.1865    2.3159    4.9763 O   0  0  0  0  0  0  0  0  0  0  0  0
   47.0383    3.8438    7.0684 O   0  0  0  0  0  0  0  0  0  0  0  0
   47.5020    2.4221    6.5697 Si  0  0  0  0  0  4  0  0  0  0  0  0
   47.3483    1.7694    7.0815 H   0  0  0  0  0  0  0  0  0  0  0  0
   47.7444    2.7225    5.7995 H   0  0  0  0  0  0  0  0  0  0  0  0
  4  1  1  0
  4  2  1  0
  4  3  2  0
 11  8  1  0
 11  9  1  0
 11 10  2  0
 15 12  1  0
 15 13  1  0
 15 14  2  0
 20 17  1  0
 20 18  1  0
 20 19  2  0
 16 21  1  0
 16 22  1  0
M  CHG  8   1  -1   2  -1   5   3   6   3   7   2   8  -1   9  -1  12  -1
M  CHG  3  13  -1  17  -1  18  -1
M  END
> <Uni-Dock RESULT> 
ENERGY=   -9.223  LOWER_BOUND=    0.204  UPPER_BOUND=    1.802
INTER + INTRA:          -9.223
INTER:                  -9.223
INTRA:                   0.000
UNBOUND:                 0.000

$$$$

     RDKit          3D

 22 14  0  0  0  0  0  0  0  0999 V2000
   42.8258    6.8162   11.0496 O   0  0  0  0  0  0  0  0  0  0  0  0
   43.2032    3.8361   11.0061 O   0  0  0  0  0  0  0  0  0  0  0  0
   42.7325    5.2475   13.4348 O   0  0  0  0  0  0  0  0  0  0  0  0
   43.0570    5.3172   11.9032 Si  0  0  0  0  0  4  0  0  0  0  0  0
   42.9546    5.3042   11.8484 Al  0  0  0  0  0 15  0  0  0  0  0  0
   42.9546    5.3042   11.8484 Al  0  0  0  0  0 15  0  0  0  0  0  0
   42.9546    5.3042   11.8484 Mg  0  0  0  0  0 15  0  0  0  0  0  0
   42.7924    6.8866   11.2182 O   0  0  0  0  0  0  0  0  0  0  0  0
   43.2009    3.9573   10.8456 O   0  0  0  0  0  0  0  0  0  0  0  0
   42.7526    5.0453   13.4208 O   0  0  0  0  0  0  0  0  0  0  0  0
   43.0725    5.3278   11.9091 Si  0  0  0  0  0  4  0  0  0  0  0  0
   43.1856    3.7959   11.0745 O   0  0  0  0  0  0  0  0  0  0  0  0
   42.8248    6.7982   11.0128 O   0  0  0  0  0  0  0  0  0  0  0  0
   42.7172    5.3050   13.4199 O   0  0  0  0  0  0  0  0  0  0  0  0
   43.0908    5.3178   11.8865 Si  0  0  0  0  0  4  0  0  0  0  0  0
   42.9113    5.3045   12.2100 O   0  0  0  0  0  0  0  0  0  0  0  0
   42.8897    6.9311   11.2673 O   0  0  0  0  0  0  0  0  0  0  0  0
   43.2090    3.9679   10.8197 O   0  0  0  0  0  0  0  0  0  0  0  0
   42.8040    5.0069   13.4248 O   0  0  0  0  0  0  0  0  0  0  0  0
   42.9158    5.3111   11.8820 Si  0  0  0  0  0  4  0  0  0  0  0  0
   42.8791    6.1211   11.6493 H   0  0  0  0  0  0  0  0  0  0  0  0
   43.0734    4.4871   11.6859 H   0  0  0  0  0  0  0  0  0  0  0  0
  4  1  1  0
  4  2  1  0
  4  3  2  0
 11  8  1  0
 11  9  1  0
 11 10  2  0
 15 12  1  0
 15 13  1  0
 15 14  2  0
 20 17  1  0
 20 18  1  0
 20 19  2  0
 16 21  1  0
 16 22  1  0
M  CHG  8   1  -1   2  -1   5   3   6   3   7   2   8  -1   9  -1  12  -1
M  CHG  3  13  -1  17  -1  18  -1
M  END
> <Uni-Dock RESULT> 
ENERGY=   -7.104  LOWER_BOUND=    6.903  UPPER_BOUND=    8.056
INTER + INTRA:          -7.104
INTER:                  -7.104
INTRA:                   0.000
UNBOUND:                 0.000

$$$$

     RDKit          3D

 22 14  0  0  0  0  0  0  0  0999 V2000
   44.7265    1.7081    9.0659 O   0  0  0  0  0  0  0  0  0  0  0  0
   43.9582    4.6064    9.2518 O   0  0  0  0  0  0  0  0  0  0  0  0
   45.8183    3.6753    7.3062 O   0  0  0  0  0  0  0  0  0  0  0  0
   44.9777    3.3636    8.5917 Si  0  0  0  0  0  4  0  0  0  0  0  0
   44.8702    3.3384    8.5539 Al  0  0  0  0  0 15  0  0  0  0  0  0
   44.8702    3.3384    8.5539 Al  0  0  0  0  0 15  0  0  0  0  0  0
   44.8702    3.3384    8.5539 Mg  0  0  0  0  0 15  0  0  0  0  0  0
   44.8461    1.6693    8.9292 O   0  0  0  0  0  0  0  0  0  0  0  0
   43.8844    4.4571    9.3646 O   0  0  0  0  0  0  0  0  0  0  0  0
   45.7550    3.8683    7.3224 O   0  0  0  0  0  0  0  0  0  0  0  0
   44.9953    3.3588    8.5994 Si  0  0  0  0  0  4  0  0  0  0  0  0
   43.9815    4.6546    9.1907 O   0  0  0  0  0  0  0  0  0  0  0  0
   44.6942    1.7169    9.0896 O   0  0  0  0  0  0  0  0  0  0  0  0
   45.8170    3.6141    7.3076 O   0  0  0  0  0  0  0  0  0  0  0  0
   44.9879    3.3680    8.6278 Si  0  0  0  0  0  4  0  0  0  0  0  0
   45.0953    3.4045    8.2753 O   0  0  0  0  0  0  0  0  0  0  0  0
   44.9568    1.6622    8.9684 O   0  0  0  0  0  0  0  0  0  0  0  0
   43.8749    4.4436    9.3886 O   0  0  0  0  0  0  0  0  0  0  0  0
   45.7778    3.9183    7.3556 O   0  0  0  0  0  0  0  0  0  0  0  0
   44.8712    3.3293    8.5029 Si  0  0  0  0  0  4  0  0  0  0  0  0
   44.9511    2.5058    8.6675 H   0  0  0  0  0  0  0  0  0  0  0  0
   44.5641    4.1047    8.7189 H   0  0  0  0  0  0  0  0  0  0  0  0
  4  1  1  0
  4  2  1  0
  4  3  2  0
 11  8  1  0
 11  9  1  0
 11 10  2  0
 15 12  1  0
 15 13  1  0
 15 14  2  0
 20 17  1  0
 20 18  1  0
 20 19  2  0
 16 21  1  0
 16 22  1  0
M  CHG  8   1  -1   2  -1   5   3   6   3   7   2   8  -1   9  -1  12  -1
M  CHG  3  13  -1  17  -1  18  -1
M  END
> <Uni-Dock RESULT> 
ENERGY=   -7.093  LOWER_BOUND=    3.014  UPPER_BOUND=    3.484
INTER + INTRA:          -7.093
INTER:                  -7.093
INTRA:                   0.000
UNBOUND:                 0.000

$$$$

     RDKit          3D

 22 14  0  0  0  0  0  0  0  0999 V2000
   43.9101    4.6007    9.2459 O   0  0  0  0  0  0  0  0  0  0  0  0
   45.9784    3.6840    7.2693 O   0  0  0  0  0  0  0  0  0  0  0  0
   44.6849    1.8597    9.0331 O   0  0  0  0  0  0  0  0  0  0  0  0
   44.9552    3.3508    8.6337 Si  0  0  0  0  0  4  0  0  0  0  0  0
   44.8822    3.3738    8.5455 Al  0  0  0  0  0 15  0  0  0  0  0  0
   44.8822    3.3738    8.5455 Al  0  0  0  0  0 15  0  0  0  0  0  0
   44.8822    3.3738    8.5455 Mg  0  0  0  0  0 15  0  0  0  0  0  0
   43.8361    4.4643    9.3479 O   0  0  0  0  0  0  0  0  0  0  0  0
   45.9101    3.8720    7.2902 O   0  0  0  0  0  0  0  0  0  0  0  0
   44.8213    1.8064    8.8915 O   0  0  0  0  0  0  0  0  0  0  0  0
   44.9612    3.3526    8.6525 Si  0  0  0  0  0  4  0  0  0  0  0  0
   45.9858    3.6038    7.2584 O   0  0  0  0  0  0  0  0  0  0  0  0
   43.9211    4.6278    9.2172 O   0  0  0  0  0  0  0  0  0  0  0  0
   44.6392    1.8900    9.0604 O   0  0  0  0  0  0  0  0  0  0  0  0
   44.9826    3.3737    8.6460 Si  0  0  0  0  0  4  0  0  0  0  0  0
   44.8353    3.0349    8.6703 O   0  0  0  0  0  0  0  0  0  0  0  0
   43.8865    4.4564    9.4540 O   0  0  0  0  0  0  0  0  0  0  0  0
   45.9112    3.9011    7.2917 O   0  0  0  0  0  0  0  0  0  0  0  0
   44.8853    1.8006    8.8934 O   0  0  0  0  0  0  0  0  0  0  0  0
   44.8457    3.3371    8.5429 Si  0  0  0  0  0  4  0  0  0  0  0  0
   44.3447    3.8236    9.0161 H   0  0  0  0  0  0  0  0  0  0  0  0
   45.4665    3.2630    7.9502 H   0  0  0  0  0  0  0  0  0  0  0  0
  4  1  1  0
  4  2  1  0
  4  3  2  0
 11  8  1  0
 11  9  1  0
 11 10  2  0
 15 12  1  0
 15 13  1  0
 15 14  2  0
 20 17  1  0
 20 18  1  0
 20 19  2  0
 16 21  1  0
 16 22  1  0
M  CHG  8   1  -1   2  -1   5   3   6   3   7   2   8  -1   9  -1  12  -1
M  CHG  3  13  -1  17  -1  18  -1
M  END
> <Uni-Dock RESULT> 
ENERGY=   -7.020  LOWER_BOUND=    3.052  UPPER_BOUND=    4.054
INTER + INTRA:          -7.020
INTER:                  -7.020
INTRA:                   0.000
UNBOUND:                 0.000

$$$$

     RDKit          3D

 22 14  0  0  0  0  0  0  0  0999 V2000
   43.3567    4.0745   10.7618 O   0  0  0  0  0  0  0  0  0  0  0  0
   42.9188    7.0100   11.2265 O   0  0  0  0  0  0  0  0  0  0  0  0
   42.8142    5.1272   13.3611 O   0  0  0  0  0  0  0  0  0  0  0  0
   42.8801    5.3754   11.8151 Si  0  0  0  0  0  4  0  0  0  0  0  0
   42.9924    5.3968   11.7911 Al  0  0  0  0  0 15  0  0  0  0  0  0
   42.9924    5.3968   11.7911 Al  0  0  0  0  0 15  0  0  0  0  0  0
   42.9924    5.3968   11.7911 Mg  0  0  0  0  0 15  0  0  0  0  0  0
   43.3493    3.9707   10.9157 O   0  0  0  0  0  0  0  0  0  0  0  0
   42.9640    6.9237   11.0506 O   0  0  0  0  0  0  0  0  0  0  0  0
   42.7924    5.3285   13.3835 O   0  0  0  0  0  0  0  0  0  0  0  0
   42.8639    5.3642   11.8147 Si  0  0  0  0  0  4  0  0  0  0  0  0
   42.9178    7.0352   11.3037 O   0  0  0  0  0  0  0  0  0  0  0  0
   43.3663    4.0994   10.7308 O   0  0  0  0  0  0  0  0  0  0  0  0
   42.8342    5.0736   13.3391 O   0  0  0  0  0  0  0  0  0  0  0  0
   42.8515    5.3790   11.7908 Si  0  0  0  0  0  4  0  0  0  0  0  0
   42.9451    5.3226   12.1445 O   0  0  0  0  0  0  0  0  0  0  0  0
   43.2443    3.9195   10.9292 O   0  0  0  0  0  0  0  0  0  0  0  0
   42.9629    6.9187   11.0219 O   0  0  0  0  0  0  0  0  0  0  0  0
   42.7406    5.3666   13.3822 O   0  0  0  0  0  0  0  0  0  0  0  0
   43.0219    5.3824   11.8312 Si  0  0  0  0  0  4  0  0  0  0  0  0
   43.1375    4.6354   11.4568 H   0  0  0  0  0  0  0  0  0  0  0  0
   42.8947    6.2324   11.7720 H   0  0  0  0  0  0  0  0  0  0  0  0
  4  1  1  0
  4  2  1  0
  4  3  2  0
 11  8  1  0
 11  9  1  0
 11 10  2  0
 15 12  1  0
 15 13  1  0
 15 14  2  0
 20 17  1  0
 20 18  1  0
 20 19  2  0
 16 21  1  0
 16 22  1  0
M  CHG  8   1  -1   2  -1   5   3   6   3   7   2   8  -1   9  -1  12  -1
M  CHG  3  13  -1  17  -1  18  -1
M  END
> <Uni-Dock RESULT> 
ENERGY=   -7.016  LOWER_BOUND=    6.858  UPPER_BOUND=    7.806
INTER + INTRA:          -7.016
INTER:                  -7.016
INTRA:                   0.000
UNBOUND:                 0.000

$$$$

     RDKit          3D

 22 14  0  0  0  0  0  0  0  0999 V2000
   43.2081    2.7277   11.8287 O   0  0  0  0  0  0  0  0  0  0  0  0
   42.8346    5.4043   13.1407 O   0  0  0  0  0  0  0  0  0  0  0  0
   43.3300    5.1661   10.3460 O   0  0  0  0  0  0  0  0  0  0  0  0
   43.2745    4.4649   11.7465 Si  0  0  0  0  0  4  0  0  0  0  0  0
   43.1618    4.4407   11.7655 Al  0  0  0  0  0 15  0  0  0  0  0  0
   43.1618    4.4407   11.7655 Al  0  0  0  0  0 15  0  0  0  0  0  0
   43.1618    4.4407   11.7655 Mg  0  0  0  0  0 15  0  0  0  0  0  0
   43.2352    2.7356   11.6451 O   0  0  0  0  0  0  0  0  0  0  0  0
   42.8221    5.2254   13.2316 O   0  0  0  0  0  0  0  0  0  0  0  0
   43.2968    5.3422   10.4429 O   0  0  0  0  0  0  0  0  0  0  0  0
   43.2931    4.4597   11.7424 Si  0  0  0  0  0  4  0  0  0  0  0  0
   42.8252    5.4683   13.0916 O   0  0  0  0  0  0  0  0  0  0  0  0
   43.1938    2.7273   11.8670 O   0  0  0  0  0  0  0  0  0  0  0  0
   43.3258    5.1066   10.3318 O   0  0  0  0  0  0  0  0  0  0  0  0
   43.3023    4.4608   11.7717 Si  0  0  0  0  0  4  0  0  0  0  0  0
   43.2102    4.5951   11.4392 O   0  0  0  0  0  0  0  0  0  0  0  0
   43.3493    2.7285   11.6171 O   0  0  0  0  0  0  0  0  0  0  0  0
   42.8259    5.2054   13.2525 O   0  0  0  0  0  0  0  0  0  0  0  0
   43.3368    5.3839   10.4710 O   0  0  0  0  0  0  0  0  0  0  0  0
   43.1353    4.4451   11.7212 Si  0  0  0  0  0  4  0  0  0  0  0  0
   43.2385    3.6171   11.5971 H   0  0  0  0  0  0  0  0  0  0  0  0
   43.0367    5.1099   12.2602 H   0  0  0  0  0  0  0  0  0  0  0  0
  4  1  1  0
  4  2  1  0
  4  3  2  0
 11  8  1  0
 11  9  1  0
 11 10  2  0
 15 12  1  0
 15 13  1  0
 15 14  2  0
 20 17  1  0
 20 18  1  0
 20 19  2  0
 16 21  1  0
 16 22  1  0
M  CHG  8   1  -1   2  -1   5   3   6   3   7   2   8  -1   9  -1  12  -1
M  CHG  3  13  -1  17  -1  18  -1
M  END
> <Uni-Dock RESULT> 
ENERGY=   -6.994  LOWER_BOUND=    6.633  UPPER_BOUND=    7.168
INTER + INTRA:          -6.994
INTER:                  -6.994
INTRA:                   0.000
UNBOUND:                 0.000

$$$$
