
     RDKit          3D

 74 77  0  0  0  0  0  0  0  0999 V2000
    0.7566   -0.4522   -0.8050 N   0  0  0  0  0  0  0  0  0  0  0  0
    2.9216   -0.5171    0.3302 C   0  0  0  0  0  0  0  0  0  0  0  0
   -2.8524    0.6615   -0.1211 C   0  0  0  0  0  0  0  0  0  0  0  0
    1.4229   -0.6272    0.4834 C   0  0  0  0  0  0  0  0  0  0  0  0
   -0.7036   -0.5209   -0.7028 C   0  0  0  0  0  0  0  0  0  0  0  0
   -1.3462    0.7598   -0.1488 C   0  0  0  0  0  0  0  0  0  0  0  0
   -3.6104    1.0403   -1.2371 C   0  0  0  0  0  0  0  0  0  0  0  0
   -3.5105    0.1609    1.0101 C   0  0  0  0  0  0  0  0  0  0  0  0
    3.6406   -1.5194   -0.3374 C   0  0  0  0  0  0  0  0  0  0  0  0
    3.6166    0.5896    0.8380 C   0  0  0  0  0  0  0  0  0  0  0  0
   -5.0015    0.9299   -1.2172 C   0  0  0  0  0  0  0  0  0  0  0  0
   -4.9018    0.0526    1.0278 C   0  0  0  0  0  0  0  0  0  0  0  0
    5.0249   -1.4225   -0.4848 C   0  0  0  0  0  0  0  0  0  0  0  0
    5.0020    0.6848    0.6904 C   0  0  0  0  0  0  0  0  0  0  0  0
   -5.6469    0.4381   -0.0847 C   0  0  0  0  0  0  0  0  0  0  0  0
    5.7054   -0.3212    0.0305 C   0  0  0  0  0  0  0  0  0  0  0  0
   -2.2762    0.7268    0.1274 N   0  0  0  0  0  0  0  0  0  0  0  0
   -1.3066    1.4961   -0.6775 C   0  0  1  0  0  0  0  0  0  0  0  0
   -1.4557    0.6639    1.2218 C   0  0  0  0  0  0  0  0  0  0  0  0
   -0.4419    1.6474    0.5969 C   0  0  1  0  0  0  0  0  0  0  0  0
   -2.7942   -0.5236   -0.4323 C   0  0  2  0  0  0  0  0  0  0  0  0
   -0.7694    0.3030   -1.9672 S   0  0  0  0  0  0  0  0  0  0  0  0
   -2.4164   -0.5546   -1.9276 C   0  0  0  0  0  0  0  0  0  0  0  0
    0.9650    1.1767    0.5314 N   0  0  0  0  0  0  0  0  0  0  0  0
   -4.2875   -0.7249   -0.1893 C   0  0  0  0  0  0  0  0  0  0  0  0
    1.9445    1.9467   -0.0517 C   0  0  0  0  0  0  0  0  0  0  0  0
   -1.5008   -0.0409    2.2036 O   0  0  0  0  0  0  0  0  0  0  0  0
   -4.9213   -1.7221   -0.5015 O   0  0  0  0  0  0  0  0  0  0  0  0
    1.6855    3.0407   -0.5551 O   0  0  0  0  0  0  0  0  0  0  0  0
    3.3466    1.3613   -0.1078 C   0  0  0  0  0  0  0  0  0  0  0  0
   -4.9158    0.3181    0.3885 O   0  0  0  0  0  0  0  0  0  0  0  0
   -3.3808    0.2198   -2.8364 C   0  0  0  0  0  0  0  0  0  0  0  0
   -2.2293   -1.9835   -2.4449 C   0  0  0  0  0  0  0  0  0  0  0  0
    3.6692    0.3284    0.9463 C   0  0  0  0  0  0  0  0  0  0  0  0
    3.6912   -1.0357    0.6240 C   0  0  0  0  0  0  0  0  0  0  0  0
    3.9204    0.7215    2.2687 C   0  0  0  0  0  0  0  0  0  0  0  0
    3.9606   -1.9880    1.6079 C   0  0  0  0  0  0  0  0  0  0  0  0
    4.1895   -0.2334    3.2496 C   0  0  0  0  0  0  0  0  0  0  0  0
    4.2098   -1.5872    2.9191 C   0  0  0  0  0  0  0  0  0  0  0  0
    1.0440    0.4364   -1.2126 H   0  0  0  0  0  0  0  0  0  0  0  0
    1.1901   -1.6132    0.9052 H   0  0  0  0  0  0  0  0  0  0  0  0
    1.0790    0.1184    1.2088 H   0  0  0  0  0  0  0  0  0  0  0  0
   -1.0893   -0.6997   -1.7140 H   0  0  0  0  0  0  0  0  0  0  0  0
   -1.0045   -1.3963   -0.1131 H   0  0  0  0  0  0  0  0  0  0  0  0
   -0.9867    0.9718    0.8652 H   0  0  0  0  0  0  0  0  0  0  0  0
   -1.0527    1.6242   -0.7591 H   0  0  0  0  0  0  0  0  0  0  0  0
   -3.1226    1.4219   -2.1313 H   0  0  0  0  0  0  0  0  0  0  0  0
   -2.9437   -0.1490    1.8851 H   0  0  0  0  0  0  0  0  0  0  0  0
    3.1154   -2.3774   -0.7522 H   0  0  0  0  0  0  0  0  0  0  0  0
    3.0841    1.3860    1.3521 H   0  0  0  0  0  0  0  0  0  0  0  0
   -5.5818    1.2265   -2.0869 H   0  0  0  0  0  0  0  0  0  0  0  0
   -5.4048   -0.3341    1.9100 H   0  0  0  0  0  0  0  0  0  0  0  0
    5.5701   -2.2054   -1.0052 H   0  0  0  0  0  0  0  0  0  0  0  0
    5.5332    1.5454    1.0883 H   0  0  0  0  0  0  0  0  0  0  0  0
   -6.7301    0.3535   -0.0695 H   0  0  0  0  0  0  0  0  0  0  0  0
    6.7833   -0.2459   -0.0851 H   0  0  0  0  0  0  0  0  0  0  0  0
   -1.7320    2.4271   -1.0623 H   0  0  0  0  0  0  0  0  0  0  0  0
   -0.5043    2.6379    1.0647 H   0  0  0  0  0  0  0  0  0  0  0  0
   -2.2994   -1.3495    0.1000 H   0  0  0  0  0  0  0  0  0  0  0  0
    1.2209    0.2950    0.9666 H   0  0  0  0  0  0  0  0  0  0  0  0
    4.0584    2.1890   -0.0069 H   0  0  0  0  0  0  0  0  0  0  0  0
    3.4914    0.9410   -1.1092 H   0  0  0  0  0  0  0  0  0  0  0  0
   -5.8441    0.0241    0.4992 H   0  0  0  0  0  0  0  0  0  0  0  0
   -2.9958    0.2954   -3.8595 H   0  0  0  0  0  0  0  0  0  0  0  0
   -3.5700    1.2352   -2.4722 H   0  0  0  0  0  0  0  0  0  0  0  0
   -4.3512   -0.2860   -2.9026 H   0  0  0  0  0  0  0  0  0  0  0  0
   -1.5119   -2.5458   -1.8338 H   0  0  0  0  0  0  0  0  0  0  0  0
   -3.1753   -2.5345   -2.4239 H   0  0  0  0  0  0  0  0  0  0  0  0
   -1.8692   -1.9963   -3.4810 H   0  0  0  0  0  0  0  0  0  0  0  0
    3.5002   -1.3670   -0.3943 H   0  0  0  0  0  0  0  0  0  0  0  0
    3.9073    1.7742    2.5444 H   0  0  0  0  0  0  0  0  0  0  0  0
    3.9790   -3.0450    1.3514 H   0  0  0  0  0  0  0  0  0  0  0  0
    4.3853    0.0785    4.2725 H   0  0  0  0  0  0  0  0  0  0  0  0
    4.4243   -2.3299    3.6845 H   0  0  0  0  0  0  0  0  0  0  0  0
  2  4  1  0
  3  6  1  0
  4  1  1  0
  5  1  1  0
  6  5  1  0
  7  3  2  0
  8  3  1  0
  9  2  2  0
 10  2  1  0
 11  7  1  0
 12  8  2  0
 13  9  1  0
 14 10  2  0
 15 12  1  0
 16 14  1  0
 13 16  2  0
 11 15  2  0
 18 17  1  0
 19 17  1  0
 20 19  1  0
 21 17  1  0
 18 22  1  0
 23 21  1  0
 20 24  1  0
 21 25  1  0
 26 24  1  0
 27 19  2  0
 28 25  2  0
 29 26  2  0
 30 26  1  0
 31 25  1  0
 32 23  1  0
 33 23  1  0
 34 30  1  0
 35 34  2  0
 36 34  1  0
 37 35  1  0
 38 36  2  0
 39 38  1  0
 22 23  1  0
 18 20  1  0
 37 39  2  0
  1 40  1  0
  4 41  1  0
  4 42  1  0
  5 43  1  0
  5 44  1  0
  6 45  1  0
  6 46  1  0
  7 47  1  0
  8 48  1  0
  9 49  1  0
 10 50  1  0
 11 51  1  0
 12 52  1  0
 13 53  1  0
 14 54  1  0
 15 55  1  0
 16 56  1  0
 18 57  1  6
 20 58  1  1
 21 59  1  1
 24 60  1  0
 30 61  1  0
 30 62  1  0
 31 63  1  0
 32 64  1  0
 32 65  1  0
 32 66  1  0
 33 67  1  0
 33 68  1  0
 33 69  1  0
 35 70  1  0
 36 71  1  0
 37 72  1  0
 38 73  1  0
 39 74  1  0
M  END
$$$$
