
     RDKit          3D

 74 77  0  0  0  0  0  0  0  0999 V2000
   -0.7259   -0.0188    0.0773 N   0  0  0  0  0  0  0  0  0  0  0  0
   -3.1164   -0.0729   -0.4553 C   0  0  0  0  0  0  0  0  0  0  0  0
    3.0743    0.1296    0.1577 C   0  0  0  0  0  0  0  0  0  0  0  0
   -1.7210    0.1769   -0.9773 C   0  0  0  0  0  0  0  0  0  0  0  0
    0.6323    0.1531   -0.4445 C   0  0  0  0  0  0  0  0  0  0  0  0
    1.6653   -0.0370    0.6740 C   0  0  0  0  0  0  0  0  0  0  0  0
    3.7969   -0.9772   -0.3076 C   0  0  0  0  0  0  0  0  0  0  0  0
    3.6656    1.3989    0.1068 C   0  0  0  0  0  0  0  0  0  0  0  0
   -3.6965    0.8096    0.4683 C   0  0  0  0  0  0  0  0  0  0  0  0
   -3.8511   -1.1903   -0.8762 C   0  0  0  0  0  0  0  0  0  0  0  0
    5.0908   -0.8180   -0.8070 C   0  0  0  0  0  0  0  0  0  0  0  0
    4.9595    1.5559   -0.3939 C   0  0  0  0  0  0  0  0  0  0  0  0
   -4.9863    0.5857    0.9524 C   0  0  0  0  0  0  0  0  0  0  0  0
   -5.1415   -1.4132   -0.3911 C   0  0  0  0  0  0  0  0  0  0  0  0
    5.6717    0.4478   -0.8507 C   0  0  0  0  0  0  0  0  0  0  0  0
   -5.7084   -0.5251    0.5219 C   0  0  0  0  0  0  0  0  0  0  0  0
   -2.2646   -0.7949    1.2353 N   0  0  0  0  0  0  0  0  0  0  0  0
   -1.4632    0.4370    1.0759 C   0  0  1  0  0  0  0  0  0  0  0  0
   -1.1684   -1.6142    1.2155 C   0  0  0  0  0  0  0  0  0  0  0  0
   -0.1972   -0.4185    1.3207 C   0  0  1  0  0  0  0  0  0  0  0  0
   -3.3425   -1.0388    0.2714 C   0  0  2  0  0  0  0  0  0  0  0  0
   -1.8477    0.9764   -0.6385 S   0  0  0  0  0  0  0  0  0  0  0  0
   -3.5603    0.2673   -0.5228 C   0  0  0  0  0  0  0  0  0  0  0  0
    0.8825   -0.3657    0.3011 N   0  0  0  0  0  0  0  0  0  0  0  0
   -4.6223   -1.5669    0.9156 C   0  0  0  0  0  0  0  0  0  0  0  0
    1.6699    0.7572    0.1708 C   0  0  0  0  0  0  0  0  0  0  0  0
   -1.0664   -2.8047    1.0256 O   0  0  0  0  0  0  0  0  0  0  0  0
   -5.6411   -1.8757    0.3156 O   0  0  0  0  0  0  0  0  0  0  0  0
    1.5147    1.7480    0.8825 O   0  0  0  0  0  0  0  0  0  0  0  0
    2.7344    0.6649   -0.9059 C   0  0  0  0  0  0  0  0  0  0  0  0
   -4.5844   -1.6590    2.2590 O   0  0  0  0  0  0  0  0  0  0  0  0
   -4.4562    1.2931    0.1870 C   0  0  0  0  0  0  0  0  0  0  0  0
   -4.0748    0.0040   -1.9398 C   0  0  0  0  0  0  0  0  0  0  0  0
    4.1236    0.5311   -0.3346 C   0  0  0  0  0  0  0  0  0  0  0  0
    4.8137    1.6667    0.1158 C   0  0  0  0  0  0  0  0  0  0  0  0
    4.7349   -0.7265   -0.2220 C   0  0  0  0  0  0  0  0  0  0  0  0
    6.0961    1.5498    0.6551 C   0  0  0  0  0  0  0  0  0  0  0  0
    6.0182   -0.8409    0.3181 C   0  0  0  0  0  0  0  0  0  0  0  0
    6.6993    0.2965    0.7540 C   0  0  0  0  0  0  0  0  0  0  0  0
   -0.8356   -0.9588    0.4563 H   0  0  0  0  0  0  0  0  0  0  0  0
   -1.6748    1.2024   -1.3650 H   0  0  0  0  0  0  0  0  0  0  0  0
   -1.5199   -0.4959   -1.8206 H   0  0  0  0  0  0  0  0  0  0  0  0
    0.7410    1.1574   -0.8730 H   0  0  0  0  0  0  0  0  0  0  0  0
    0.8214   -0.5704   -1.2478 H   0  0  0  0  0  0  0  0  0  0  0  0
    1.4877    0.6840    1.4826 H   0  0  0  0  0  0  0  0  0  0  0  0
    1.5598   -1.0313    1.1272 H   0  0  0  0  0  0  0  0  0  0  0  0
    3.3568   -1.9713   -0.2824 H   0  0  0  0  0  0  0  0  0  0  0  0
    3.1195    2.2730    0.4560 H   0  0  0  0  0  0  0  0  0  0  0  0
   -3.1342    1.6729    0.8172 H   0  0  0  0  0  0  0  0  0  0  0  0
   -3.4237   -1.8956   -1.5848 H   0  0  0  0  0  0  0  0  0  0  0  0
    5.6446   -1.6832   -1.1625 H   0  0  0  0  0  0  0  0  0  0  0  0
    5.4112    2.5440   -0.4285 H   0  0  0  0  0  0  0  0  0  0  0  0
   -5.4253    1.2767    1.6670 H   0  0  0  0  0  0  0  0  0  0  0  0
   -5.7048   -2.2804   -0.7254 H   0  0  0  0  0  0  0  0  0  0  0  0
    6.6794    0.5711   -1.2396 H   0  0  0  0  0  0  0  0  0  0  0  0
   -6.7124   -0.6996    0.8995 H   0  0  0  0  0  0  0  0  0  0  0  0
   -1.6790    1.1788    1.8506 H   0  0  0  0  0  0  0  0  0  0  0  0
    0.2168   -0.3241    2.3322 H   0  0  0  0  0  0  0  0  0  0  0  0
   -3.0027   -1.8391   -0.4023 H   0  0  0  0  0  0  0  0  0  0  0  0
    1.1033   -1.1953   -0.2395 H   0  0  0  0  0  0  0  0  0  0  0  0
    2.5220   -0.1745   -1.5793 H   0  0  0  0  0  0  0  0  0  0  0  0
    2.6659    1.5658   -1.5286 H   0  0  0  0  0  0  0  0  0  0  0  0
   -5.4556   -2.0317    2.5092 H   0  0  0  0  0  0  0  0  0  0  0  0
   -4.1433    1.4756    1.2217 H   0  0  0  0  0  0  0  0  0  0  0  0
   -4.4570    2.2566   -0.3367 H   0  0  0  0  0  0  0  0  0  0  0  0
   -5.4974    0.9508    0.2207 H   0  0  0  0  0  0  0  0  0  0  0  0
   -5.0909   -0.4006   -1.9157 H   0  0  0  0  0  0  0  0  0  0  0  0
   -4.1084    0.9226   -2.5361 H   0  0  0  0  0  0  0  0  0  0  0  0
   -3.4493   -0.7199   -2.4726 H   0  0  0  0  0  0  0  0  0  0  0  0
    4.3498    2.6500    0.0562 H   0  0  0  0  0  0  0  0  0  0  0  0
    4.2203   -1.6270   -0.5541 H   0  0  0  0  0  0  0  0  0  0  0  0
    6.6213    2.4378    1.0010 H   0  0  0  0  0  0  0  0  0  0  0  0
    6.4879   -1.8180    0.4010 H   0  0  0  0  0  0  0  0  0  0  0  0
    7.6980    0.2059    1.1755 H   0  0  0  0  0  0  0  0  0  0  0  0
  2  4  1  0
  3  6  1  0
  4  1  1  0
  5  1  1  0
  6  5  1  0
  7  3  2  0
  8  3  1  0
  9  2  2  0
 10  2  1  0
 11  7  1  0
 12  8  2  0
 13  9  1  0
 14 10  2  0
 15 12  1  0
 16 14  1  0
 13 16  2  0
 11 15  2  0
 18 17  1  0
 19 17  1  0
 20 19  1  0
 21 17  1  0
 18 22  1  0
 23 21  1  0
 20 24  1  0
 21 25  1  0
 26 24  1  0
 27 19  2  0
 28 25  2  0
 29 26  2  0
 30 26  1  0
 31 25  1  0
 32 23  1  0
 33 23  1  0
 34 30  1  0
 35 34  2  0
 36 34  1  0
 37 35  1  0
 38 36  2  0
 39 38  1  0
 22 23  1  0
 18 20  1  0
 37 39  2  0
  1 40  1  0
  4 41  1  0
  4 42  1  0
  5 43  1  0
  5 44  1  0
  6 45  1  0
  6 46  1  0
  7 47  1  0
  8 48  1  0
  9 49  1  0
 10 50  1  0
 11 51  1  0
 12 52  1  0
 13 53  1  0
 14 54  1  0
 15 55  1  0
 16 56  1  0
 18 57  1  1
 20 58  1  1
 21 59  1  6
 24 60  1  0
 30 61  1  0
 30 62  1  0
 31 63  1  0
 32 64  1  0
 32 65  1  0
 32 66  1  0
 33 67  1  0
 33 68  1  0
 33 69  1  0
 35 70  1  0
 36 71  1  0
 37 72  1  0
 38 73  1  0
 39 74  1  0
M  END
$$$$
