
     RDKit          3D

 74 77  0  0  0  0  0  0  0  0999 V2000
    0.8895   -1.5353    1.1704 N   0  0  0  0  0  0  0  0  0  0  0  0
    2.7971   -0.5045   -0.0470 C   0  0  0  0  0  0  0  0  0  0  0  0
   -2.6353   -0.2045    0.6387 C   0  0  0  0  0  0  0  0  0  0  0  0
    2.0541   -1.7696    0.3133 C   0  0  0  0  0  0  0  0  0  0  0  0
   -0.2461   -0.9738    0.4316 C   0  0  0  0  0  0  0  0  0  0  0  0
   -1.4447   -0.7771    1.3696 C   0  0  0  0  0  0  0  0  0  0  0  0
   -3.5865   -1.0529    0.0565 C   0  0  0  0  0  0  0  0  0  0  0  0
   -2.7890    1.1825    0.5070 C   0  0  0  0  0  0  0  0  0  0  0  0
    2.6739    0.0586   -1.3253 C   0  0  0  0  0  0  0  0  0  0  0  0
    3.6099    0.1364    0.9005 C   0  0  0  0  0  0  0  0  0  0  0  0
   -4.6762   -0.5229   -0.6361 C   0  0  0  0  0  0  0  0  0  0  0  0
   -3.8795    1.7105   -0.1858 C   0  0  0  0  0  0  0  0  0  0  0  0
    3.3514    1.2353   -1.6491 C   0  0  0  0  0  0  0  0  0  0  0  0
    4.2869    1.3125    0.5743 C   0  0  0  0  0  0  0  0  0  0  0  0
   -4.8229    0.8579   -0.7563 C   0  0  0  0  0  0  0  0  0  0  0  0
    4.1577    1.8612   -0.7002 C   0  0  0  0  0  0  0  0  0  0  0  0
   -2.5015   -0.5821    0.8756 N   0  0  0  0  0  0  0  0  0  0  0  0
   -1.4010    0.3777    1.0953 C   0  0  1  0  0  0  0  0  0  0  0  0
   -1.8907   -1.5799    1.5870 C   0  0  0  0  0  0  0  0  0  0  0  0
   -0.8140   -0.6136    2.1289 C   0  0  1  0  0  0  0  0  0  0  0  0
   -2.9182   -0.8458   -0.5042 C   0  0  2  0  0  0  0  0  0  0  0  0
   -0.6052    0.4909   -0.5585 S   0  0  0  0  0  0  0  0  0  0  0  0
   -2.2320    0.2015   -1.4071 C   0  0  0  0  0  0  0  0  0  0  0  0
    0.6010   -1.0331    1.9448 N   0  0  0  0  0  0  0  0  0  0  0  0
   -4.4346   -0.8836   -0.6747 C   0  0  0  0  0  0  0  0  0  0  0  0
    1.6309   -0.1863    2.2929 C   0  0  0  0  0  0  0  0  0  0  0  0
   -2.0862   -2.7733    1.6088 O   0  0  0  0  0  0  0  0  0  0  0  0
   -5.0238   -1.0927   -1.7259 O   0  0  0  0  0  0  0  0  0  0  0  0
    1.4297    0.8931    2.8415 O   0  0  0  0  0  0  0  0  0  0  0  0
    3.0161   -0.6936    1.9402 C   0  0  0  0  0  0  0  0  0  0  0  0
   -5.1392   -0.6443    0.4493 O   0  0  0  0  0  0  0  0  0  0  0  0
   -2.9710    1.5444   -1.4898 C   0  0  0  0  0  0  0  0  0  0  0  0
   -1.9563   -0.3408   -2.8116 C   0  0  0  0  0  0  0  0  0  0  0  0
    3.6076    0.0311    0.7585 C   0  0  0  0  0  0  0  0  0  0  0  0
    4.3323    1.2168    0.9491 C   0  0  0  0  0  0  0  0  0  0  0  0
    3.4110   -0.4437   -0.5462 C   0  0  0  0  0  0  0  0  0  0  0  0
    4.8642    1.9053   -0.1422 C   0  0  0  0  0  0  0  0  0  0  0  0
    3.9419    0.2485   -1.6368 C   0  0  0  0  0  0  0  0  0  0  0  0
    4.6701    1.4207   -1.4344 C   0  0  0  0  0  0  0  0  0  0  0  0
    1.1553   -0.8968    1.9188 H   0  0  0  0  0  0  0  0  0  0  0  0
    1.7699   -2.3263   -0.5886 H   0  0  0  0  0  0  0  0  0  0  0  0
    2.7471   -2.4296    0.8500 H   0  0  0  0  0  0  0  0  0  0  0  0
   -0.5297   -1.6516   -0.3828 H   0  0  0  0  0  0  0  0  0  0  0  0
    0.0211   -0.0103   -0.0175 H   0  0  0  0  0  0  0  0  0  0  0  0
   -1.7268   -1.7312    1.8332 H   0  0  0  0  0  0  0  0  0  0  0  0
   -1.1749   -0.1095    2.1980 H   0  0  0  0  0  0  0  0  0  0  0  0
   -3.4837   -2.1327    0.1400 H   0  0  0  0  0  0  0  0  0  0  0  0
   -2.0588    1.8598    0.9441 H   0  0  0  0  0  0  0  0  0  0  0  0
    2.0450   -0.4157   -2.0757 H   0  0  0  0  0  0  0  0  0  0  0  0
    3.7203   -0.2814    1.8988 H   0  0  0  0  0  0  0  0  0  0  0  0
   -5.4109   -1.1877   -1.0824 H   0  0  0  0  0  0  0  0  0  0  0  0
   -3.9916    2.7874   -0.2815 H   0  0  0  0  0  0  0  0  0  0  0  0
    3.2495    1.6644   -2.6424 H   0  0  0  0  0  0  0  0  0  0  0  0
    4.9151    1.8007    1.3145 H   0  0  0  0  0  0  0  0  0  0  0  0
   -5.6720    1.2693   -1.2953 H   0  0  0  0  0  0  0  0  0  0  0  0
    4.6848    2.7769   -0.9541 H   0  0  0  0  0  0  0  0  0  0  0  0
   -1.7492    1.3300    1.5066 H   0  0  0  0  0  0  0  0  0  0  0  0
   -1.0101   -0.3397    3.1737 H   0  0  0  0  0  0  0  0  0  0  0  0
   -2.5691   -1.8551   -0.7645 H   0  0  0  0  0  0  0  0  0  0  0  0
    0.8081   -1.8398    1.3648 H   0  0  0  0  0  0  0  0  0  0  0  0
    3.6554   -0.5729    2.8234 H   0  0  0  0  0  0  0  0  0  0  0  0
    2.9894   -1.7721    1.7429 H   0  0  0  0  0  0  0  0  0  0  0  0
   -6.0773   -0.7354    0.1814 H   0  0  0  0  0  0  0  0  0  0  0  0
   -2.3693    2.3050   -1.9988 H   0  0  0  0  0  0  0  0  0  0  0  0
   -3.2376    1.9319   -0.5017 H   0  0  0  0  0  0  0  0  0  0  0  0
   -3.9015    1.4472   -2.0597 H   0  0  0  0  0  0  0  0  0  0  0  0
   -1.3975    0.3803   -3.4200 H   0  0  0  0  0  0  0  0  0  0  0  0
   -2.8925   -0.5544   -3.3390 H   0  0  0  0  0  0  0  0  0  0  0  0
   -1.3794   -1.2721   -2.7844 H   0  0  0  0  0  0  0  0  0  0  0  0
    4.4768    1.6168    1.9512 H   0  0  0  0  0  0  0  0  0  0  0  0
    2.8384   -1.3509   -0.7272 H   0  0  0  0  0  0  0  0  0  0  0  0
    5.4230    2.8247    0.0164 H   0  0  0  0  0  0  0  0  0  0  0  0
    3.7821   -0.1228   -2.6463 H   0  0  0  0  0  0  0  0  0  0  0  0
    5.0791    1.9619   -2.2832 H   0  0  0  0  0  0  0  0  0  0  0  0
  2  4  1  0
  3  6  1  0
  4  1  1  0
  5  1  1  0
  6  5  1  0
  7  3  2  0
  8  3  1  0
  9  2  2  0
 10  2  1  0
 11  7  1  0
 12  8  2  0
 13  9  1  0
 14 10  2  0
 15 12  1  0
 16 14  1  0
 13 16  2  0
 11 15  2  0
 18 17  1  0
 19 17  1  0
 20 19  1  0
 21 17  1  0
 18 22  1  0
 23 21  1  0
 20 24  1  0
 21 25  1  0
 26 24  1  0
 27 19  2  0
 28 25  2  0
 29 26  2  0
 30 26  1  0
 31 25  1  0
 32 23  1  0
 33 23  1  0
 34 30  1  0
 35 34  2  0
 36 34  1  0
 37 35  1  0
 38 36  2  0
 39 38  1  0
 22 23  1  0
 18 20  1  0
 37 39  2  0
  1 40  1  0
  4 41  1  0
  4 42  1  0
  5 43  1  0
  5 44  1  0
  6 45  1  0
  6 46  1  0
  7 47  1  0
  8 48  1  0
  9 49  1  0
 10 50  1  0
 11 51  1  0
 12 52  1  0
 13 53  1  0
 14 54  1  0
 15 55  1  0
 16 56  1  0
 18 57  1  1
 20 58  1  1
 21 59  1  6
 24 60  1  0
 30 61  1  0
 30 62  1  0
 31 63  1  0
 32 64  1  0
 32 65  1  0
 32 66  1  0
 33 67  1  0
 33 68  1  0
 33 69  1  0
 35 70  1  0
 36 71  1  0
 37 72  1  0
 38 73  1  0
 39 74  1  0
M  END
$$$$
