
     RDKit          3D

 74 77  0  0  0  0  0  0  0  0999 V2000
    0.2229    0.8199   -0.0812 N   0  0  0  0  0  0  0  0  0  0  0  0
    2.6253    0.5205    0.4907 C   0  0  0  0  0  0  0  0  0  0  0  0
   -2.6877   -0.3878   -0.6717 C   0  0  0  0  0  0  0  0  0  0  0  0
    1.2596    0.9863    0.9382 C   0  0  0  0  0  0  0  0  0  0  0  0
   -0.1707   -0.5824   -0.2656 C   0  0  0  0  0  0  0  0  0  0  0  0
   -1.3370   -0.7245   -1.2594 C   0  0  0  0  0  0  0  0  0  0  0  0
   -3.5457   -1.4070   -0.2348 C   0  0  0  0  0  0  0  0  0  0  0  0
   -3.0993    0.9455   -0.5444 C   0  0  0  0  0  0  0  0  0  0  0  0
    3.1575   -0.6886    0.9608 C   0  0  0  0  0  0  0  0  0  0  0  0
    3.3755    1.2836   -0.4171 C   0  0  0  0  0  0  0  0  0  0  0  0
   -4.7926   -1.0979    0.3115 C   0  0  0  0  0  0  0  0  0  0  0  0
   -4.3457    1.2539    0.0032 C   0  0  0  0  0  0  0  0  0  0  0  0
    4.4138   -1.1236    0.5345 C   0  0  0  0  0  0  0  0  0  0  0  0
    4.6322    0.8472   -0.8410 C   0  0  0  0  0  0  0  0  0  0  0  0
   -5.1917    0.2324    0.4304 C   0  0  0  0  0  0  0  0  0  0  0  0
    5.1503   -0.3559   -0.3653 C   0  0  0  0  0  0  0  0  0  0  0  0
   -2.3289    1.4876    0.6224 N   0  0  0  0  0  0  0  0  0  0  0  0
   -1.3802    1.4069   -0.5035 C   0  0  1  0  0  0  0  0  0  0  0  0
   -1.4046    1.1002    1.5488 C   0  0  0  0  0  0  0  0  0  0  0  0
   -0.2409    1.3087    0.5496 C   0  0  1  0  0  0  0  0  0  0  0  0
   -3.6022    0.7923    0.4693 C   0  0  2  0  0  0  0  0  0  0  0  0
   -1.8370   -0.1319   -1.4058 S   0  0  0  0  0  0  0  0  0  0  0  0
   -3.3580   -0.4623   -0.4004 C   0  0  0  0  0  0  0  0  0  0  0  0
    0.7219    0.1817    0.4348 N   0  0  0  0  0  0  0  0  0  0  0  0
   -4.5970    1.7800   -0.1348 C   0  0  0  0  0  0  0  0  0  0  0  0
    1.6308    0.1343   -0.5992 C   0  0  0  0  0  0  0  0  0  0  0  0
   -1.5343    0.6488    2.6625 O   0  0  0  0  0  0  0  0  0  0  0  0
   -4.3558    2.7131   -0.8866 O   0  0  0  0  0  0  0  0  0  0  0  0
    1.7042    1.0262   -1.4421 O   0  0  0  0  0  0  0  0  0  0  0  0
    2.5148   -1.0995   -0.6106 C   0  0  0  0  0  0  0  0  0  0  0  0
   -5.8751    1.5145    0.2214 O   0  0  0  0  0  0  0  0  0  0  0  0
   -4.4962   -0.8132   -1.3679 C   0  0  0  0  0  0  0  0  0  0  0  0
   -3.0719   -1.6941    0.4749 C   0  0  0  0  0  0  0  0  0  0  0  0
    3.9729   -0.7740   -0.4048 C   0  0  0  0  0  0  0  0  0  0  0  0
    4.5500   -0.8417    0.8719 C   0  0  0  0  0  0  0  0  0  0  0  0
    4.7675   -0.3756   -1.4904 C   0  0  0  0  0  0  0  0  0  0  0  0
    5.9002   -0.5319    1.0544 C   0  0  0  0  0  0  0  0  0  0  0  0
    6.1175   -0.0678   -1.3069 C   0  0  0  0  0  0  0  0  0  0  0  0
    6.6832   -0.1469   -0.0345 C   0  0  0  0  0  0  0  0  0  0  0  0
    0.5590    1.1970   -0.9655 H   0  0  0  0  0  0  0  0  0  0  0  0
    0.9653    0.4955    1.8744 H   0  0  0  0  0  0  0  0  0  0  0  0
    1.3284    2.0530    1.1874 H   0  0  0  0  0  0  0  0  0  0  0  0
    0.6795   -1.1479   -0.6656 H   0  0  0  0  0  0  0  0  0  0  0  0
   -0.4468   -1.0327    0.6953 H   0  0  0  0  0  0  0  0  0  0  0  0
   -1.3608   -1.7606   -1.6218 H   0  0  0  0  0  0  0  0  0  0  0  0
   -1.1648   -0.1111   -2.1536 H   0  0  0  0  0  0  0  0  0  0  0  0
   -3.2470   -2.4494   -0.3162 H   0  0  0  0  0  0  0  0  0  0  0  0
   -2.4433    1.7520   -0.8639 H   0  0  0  0  0  0  0  0  0  0  0  0
    2.5926   -1.3005    1.6607 H   0  0  0  0  0  0  0  0  0  0  0  0
    2.9845    2.2255   -0.7958 H   0  0  0  0  0  0  0  0  0  0  0  0
   -5.4512   -1.8950    0.6455 H   0  0  0  0  0  0  0  0  0  0  0  0
   -4.6525    2.2916    0.0991 H   0  0  0  0  0  0  0  0  0  0  0  0
    4.8167   -2.0633    0.9030 H   0  0  0  0  0  0  0  0  0  0  0  0
    5.2074    1.4464   -1.5416 H   0  0  0  0  0  0  0  0  0  0  0  0
   -6.1621    0.4728    0.8558 H   0  0  0  0  0  0  0  0  0  0  0  0
    6.1286   -0.6949   -0.6957 H   0  0  0  0  0  0  0  0  0  0  0  0
   -1.3672    2.3124   -1.1180 H   0  0  0  0  0  0  0  0  0  0  0  0
    0.2858    2.2544    0.7290 H   0  0  0  0  0  0  0  0  0  0  0  0
   -3.9648    0.5274    1.4708 H   0  0  0  0  0  0  0  0  0  0  0  0
    0.7254   -0.5484    1.1382 H   0  0  0  0  0  0  0  0  0  0  0  0
    2.3707   -1.6090   -1.5728 H   0  0  0  0  0  0  0  0  0  0  0  0
    2.1852   -1.8165    0.1527 H   0  0  0  0  0  0  0  0  0  0  0  0
   -6.3988    2.2067   -0.2343 H   0  0  0  0  0  0  0  0  0  0  0  0
   -4.6935   -0.0137   -2.0894 H   0  0  0  0  0  0  0  0  0  0  0  0
   -5.4248   -1.0063   -0.8185 H   0  0  0  0  0  0  0  0  0  0  0  0
   -4.2709   -1.7209   -1.9425 H   0  0  0  0  0  0  0  0  0  0  0  0
   -2.2526   -1.5290    1.1822 H   0  0  0  0  0  0  0  0  0  0  0  0
   -2.8057   -2.5671   -0.1300 H   0  0  0  0  0  0  0  0  0  0  0  0
   -3.9583   -1.9655    1.0566 H   0  0  0  0  0  0  0  0  0  0  0  0
    3.9568   -1.1360    1.7350 H   0  0  0  0  0  0  0  0  0  0  0  0
    4.3323   -0.2926   -2.4852 H   0  0  0  0  0  0  0  0  0  0  0  0
    6.3414   -0.5874    2.0485 H   0  0  0  0  0  0  0  0  0  0  0  0
    6.7252    0.2399   -2.1562 H   0  0  0  0  0  0  0  0  0  0  0  0
    7.7330    0.0964    0.1096 H   0  0  0  0  0  0  0  0  0  0  0  0
  2  4  1  0
  3  6  1  0
  4  1  1  0
  5  1  1  0
  6  5  1  0
  7  3  2  0
  8  3  1  0
  9  2  2  0
 10  2  1  0
 11  7  1  0
 12  8  2  0
 13  9  1  0
 14 10  2  0
 15 12  1  0
 16 14  1  0
 13 16  2  0
 11 15  2  0
 18 17  1  0
 19 17  1  0
 20 19  1  0
 21 17  1  0
 18 22  1  0
 23 21  1  0
 20 24  1  0
 21 25  1  0
 26 24  1  0
 27 19  2  0
 28 25  2  0
 29 26  2  0
 30 26  1  0
 31 25  1  0
 32 23  1  0
 33 23  1  0
 34 30  1  0
 35 34  2  0
 36 34  1  0
 37 35  1  0
 38 36  2  0
 39 38  1  0
 22 23  1  0
 18 20  1  0
 37 39  2  0
  1 40  1  0
  4 41  1  0
  4 42  1  0
  5 43  1  0
  5 44  1  0
  6 45  1  0
  6 46  1  0
  7 47  1  0
  8 48  1  0
  9 49  1  0
 10 50  1  0
 11 51  1  0
 12 52  1  0
 13 53  1  0
 14 54  1  0
 15 55  1  0
 16 56  1  0
 18 57  1  6
 20 58  1  1
 21 59  1  1
 24 60  1  0
 30 61  1  0
 30 62  1  0
 31 63  1  0
 32 64  1  0
 32 65  1  0
 32 66  1  0
 33 67  1  0
 33 68  1  0
 33 69  1  0
 35 70  1  0
 36 71  1  0
 37 72  1  0
 38 73  1  0
 39 74  1  0
M  END
$$$$
