
     RDKit          3D

 74 77  0  0  0  0  0  0  0  0999 V2000
    0.0578   -0.8433   -0.9059 N   0  0  0  0  0  0  0  0  0  0  0  0
    2.2522    0.3498   -0.8687 C   0  0  0  0  0  0  0  0  0  0  0  0
   -2.2488    0.1327    0.8987 C   0  0  0  0  0  0  0  0  0  0  0  0
    0.7930    0.3737   -1.2582 C   0  0  0  0  0  0  0  0  0  0  0  0
   -0.0278   -1.0993    0.5387 C   0  0  0  0  0  0  0  0  0  0  0  0
   -0.8254   -0.0735    1.3647 C   0  0  0  0  0  0  0  0  0  0  0  0
   -2.6662    1.3846    0.4265 C   0  0  0  0  0  0  0  0  0  0  0  0
   -3.1748   -0.9187    0.9390 C   0  0  0  0  0  0  0  0  0  0  0  0
    3.0910   -0.6867   -1.3036 C   0  0  0  0  0  0  0  0  0  0  0  0
    2.7967    1.3746   -0.0813 C   0  0  0  0  0  0  0  0  0  0  0  0
   -3.9792    1.5768   -0.0071 C   0  0  0  0  0  0  0  0  0  0  0  0
   -4.4864   -0.7265    0.5015 C   0  0  0  0  0  0  0  0  0  0  0  0
    4.4414   -0.7043   -0.9511 C   0  0  0  0  0  0  0  0  0  0  0  0
    4.1485    1.3576    0.2688 C   0  0  0  0  0  0  0  0  0  0  0  0
   -4.8877    0.5206    0.0273 C   0  0  0  0  0  0  0  0  0  0  0  0
    4.9696    0.3185   -0.1656 C   0  0  0  0  0  0  0  0  0  0  0  0
   -2.3140   -0.6468    1.4587 N   0  0  0  0  0  0  0  0  0  0  0  0
   -1.4556    0.5421    1.3100 C   0  0  1  0  0  0  0  0  0  0  0  0
   -1.3130   -1.5200    1.1475 C   0  0  0  0  0  0  0  0  0  0  0  0
   -0.2374   -0.4213    1.3064 C   0  0  1  0  0  0  0  0  0  0  0  0
   -3.5814   -0.6458    0.7401 C   0  0  2  0  0  0  0  0  0  0  0  0
   -1.9497    1.2928   -0.2956 S   0  0  0  0  0  0  0  0  0  0  0  0
   -3.3870    0.1549   -0.5669 C   0  0  0  0  0  0  0  0  0  0  0  0
    0.7427   -0.3075    0.1943 N   0  0  0  0  0  0  0  0  0  0  0  0
   -4.6392   -0.0655    1.6746 C   0  0  0  0  0  0  0  0  0  0  0  0
    1.6323    0.7459    0.1497 C   0  0  0  0  0  0  0  0  0  0  0  0
   -1.3445   -2.6699    0.7753 O   0  0  0  0  0  0  0  0  0  0  0  0
   -4.4781    0.7582    2.5611 O   0  0  0  0  0  0  0  0  0  0  0  0
    1.6291    1.6403    0.9936 O   0  0  0  0  0  0  0  0  0  0  0  0
    2.6032    0.7071   -1.0153 C   0  0  0  0  0  0  0  0  0  0  0  0
   -5.8774   -0.5435    1.4183 O   0  0  0  0  0  0  0  0  0  0  0  0
   -3.0203   -0.7801   -1.7317 C   0  0  0  0  0  0  0  0  0  0  0  0
   -4.5914    1.0071   -0.9885 C   0  0  0  0  0  0  0  0  0  0  0  0
    4.0126    0.3923   -0.5827 C   0  0  0  0  0  0  0  0  0  0  0  0
    4.5192   -0.9118   -0.6755 C   0  0  0  0  0  0  0  0  0  0  0  0
    4.8300    1.4042   -0.0570 C   0  0  0  0  0  0  0  0  0  0  0  0
    5.8247   -1.1920   -0.2649 C   0  0  0  0  0  0  0  0  0  0  0  0
    6.1338    1.1210    0.3530 C   0  0  0  0  0  0  0  0  0  0  0  0
    6.6320   -0.1759    0.2462 C   0  0  0  0  0  0  0  0  0  0  0  0
   -0.8924   -0.7553   -1.2693 H   0  0  0  0  0  0  0  0  0  0  0  0
    0.7505    0.4952   -2.3479 H   0  0  0  0  0  0  0  0  0  0  0  0
    0.2942    1.2575   -0.8455 H   0  0  0  0  0  0  0  0  0  0  0  0
    0.9747   -1.2042    0.9694 H   0  0  0  0  0  0  0  0  0  0  0  0
   -0.4922   -2.0862    0.6555 H   0  0  0  0  0  0  0  0  0  0  0  0
   -0.8569   -0.4089    2.4096 H   0  0  0  0  0  0  0  0  0  0  0  0
   -0.2921    0.8850    1.3798 H   0  0  0  0  0  0  0  0  0  0  0  0
   -1.9719    2.2206    0.3949 H   0  0  0  0  0  0  0  0  0  0  0  0
   -2.8818   -1.8965    1.3138 H   0  0  0  0  0  0  0  0  0  0  0  0
    2.6823   -1.4920   -1.9105 H   0  0  0  0  0  0  0  0  0  0  0  0
    2.1704    2.1919    0.2674 H   0  0  0  0  0  0  0  0  0  0  0  0
   -4.2936    2.5522   -0.3695 H   0  0  0  0  0  0  0  0  0  0  0  0
   -5.1953   -1.5505    0.5342 H   0  0  0  0  0  0  0  0  0  0  0  0
    5.0781   -1.5181   -1.2864 H   0  0  0  0  0  0  0  0  0  0  0  0
    4.5609    2.1546    0.8820 H   0  0  0  0  0  0  0  0  0  0  0  0
   -5.9094    0.6710   -0.3114 H   0  0  0  0  0  0  0  0  0  0  0  0
    6.0205    0.3038    0.1104 H   0  0  0  0  0  0  0  0  0  0  0  0
   -1.5123    1.2177    2.1684 H   0  0  0  0  0  0  0  0  0  0  0  0
    0.2761   -0.4977    2.2734 H   0  0  0  0  0  0  0  0  0  0  0  0
   -3.8554   -1.6887    0.5375 H   0  0  0  0  0  0  0  0  0  0  0  0
    0.8779   -1.0931   -0.4317 H   0  0  0  0  0  0  0  0  0  0  0  0
    2.2703   -0.0197   -1.7668 H   0  0  0  0  0  0  0  0  0  0  0  0
    2.5705    1.6831   -1.5159 H   0  0  0  0  0  0  0  0  0  0  0  0
   -6.4462   -0.0983    2.0831 H   0  0  0  0  0  0  0  0  0  0  0  0
   -3.8343   -1.4894   -1.9224 H   0  0  0  0  0  0  0  0  0  0  0  0
   -2.1177   -1.3664   -1.5338 H   0  0  0  0  0  0  0  0  0  0  0  0
   -2.8534   -0.2232   -2.6611 H   0  0  0  0  0  0  0  0  0  0  0  0
   -4.8504    1.7639   -0.2392 H   0  0  0  0  0  0  0  0  0  0  0  0
   -5.4743    0.3780   -1.1506 H   0  0  0  0  0  0  0  0  0  0  0  0
   -4.4004    1.5354   -1.9304 H   0  0  0  0  0  0  0  0  0  0  0  0
    3.9083   -1.7204   -1.0694 H   0  0  0  0  0  0  0  0  0  0  0  0
    4.4495    2.4200    0.0448 H   0  0  0  0  0  0  0  0  0  0  0  0
    6.2142   -2.2038   -0.3423 H   0  0  0  0  0  0  0  0  0  0  0  0
    6.7586    1.9130    0.7600 H   0  0  0  0  0  0  0  0  0  0  0  0
    7.6483   -0.3965    0.5657 H   0  0  0  0  0  0  0  0  0  0  0  0
  2  4  1  0
  3  6  1  0
  4  1  1  0
  5  1  1  0
  6  5  1  0
  7  3  2  0
  8  3  1  0
  9  2  2  0
 10  2  1  0
 11  7  1  0
 12  8  2  0
 13  9  1  0
 14 10  2  0
 15 12  1  0
 16 14  1  0
 13 16  2  0
 11 15  2  0
 18 17  1  0
 19 17  1  0
 20 19  1  0
 21 17  1  0
 18 22  1  0
 23 21  1  0
 20 24  1  0
 21 25  1  0
 26 24  1  0
 27 19  2  0
 28 25  2  0
 29 26  2  0
 30 26  1  0
 31 25  1  0
 32 23  1  0
 33 23  1  0
 34 30  1  0
 35 34  2  0
 36 34  1  0
 37 35  1  0
 38 36  2  0
 39 38  1  0
 22 23  1  0
 18 20  1  0
 37 39  2  0
  1 40  1  0
  4 41  1  0
  4 42  1  0
  5 43  1  0
  5 44  1  0
  6 45  1  0
  6 46  1  0
  7 47  1  0
  8 48  1  0
  9 49  1  0
 10 50  1  0
 11 51  1  0
 12 52  1  0
 13 53  1  0
 14 54  1  0
 15 55  1  0
 16 56  1  0
 18 57  1  1
 20 58  1  1
 21 59  1  6
 24 60  1  0
 30 61  1  0
 30 62  1  0
 31 63  1  0
 32 64  1  0
 32 65  1  0
 32 66  1  0
 33 67  1  0
 33 68  1  0
 33 69  1  0
 35 70  1  0
 36 71  1  0
 37 72  1  0
 38 73  1  0
 39 74  1  0
M  END
$$$$
