
     RDKit          3D

 74 77  0  0  0  0  0  0  0  0999 V2000
    0.1521   -1.1830   -0.4620 N   0  0  0  0  0  0  0  0  0  0  0  0
    2.3209   -0.5243    0.5886 C   0  0  0  0  0  0  0  0  0  0  0  0
   -2.3238    0.6435   -0.1856 C   0  0  0  0  0  0  0  0  0  0  0  0
    0.8991   -0.9954    0.7842 C   0  0  0  0  0  0  0  0  0  0  0  0
   -0.0583    0.0522   -1.2301 C   0  0  0  0  0  0  0  0  0  0  0  0
   -0.9422    1.1247   -0.5663 C   0  0  0  0  0  0  0  0  0  0  0  0
   -3.2373    0.2392   -1.1696 C   0  0  0  0  0  0  0  0  0  0  0  0
   -2.7137    0.5983    1.1602 C   0  0  0  0  0  0  0  0  0  0  0  0
    3.2111   -1.2548   -0.2127 C   0  0  0  0  0  0  0  0  0  0  0  0
    2.7794    0.6410    1.2208 C   0  0  0  0  0  0  0  0  0  0  0  0
   -4.5097   -0.2117   -0.8142 C   0  0  0  0  0  0  0  0  0  0  0  0
   -3.9874    0.1494    1.5132 C   0  0  0  0  0  0  0  0  0  0  0  0
    4.5270   -0.8240   -0.3869 C   0  0  0  0  0  0  0  0  0  0  0  0
    4.0970    1.0699    1.0473 C   0  0  0  0  0  0  0  0  0  0  0  0
   -4.8842   -0.2570    0.5272 C   0  0  0  0  0  0  0  0  0  0  0  0
    4.9687    0.3389    0.2422 C   0  0  0  0  0  0  0  0  0  0  0  0
   -2.3812   -0.0142    1.6211 N   0  0  0  0  0  0  0  0  0  0  0  0
   -1.4133    0.9595    1.0898 C   0  0  1  0  0  0  0  0  0  0  0  0
   -1.4864   -1.0436    1.6230 C   0  0  0  0  0  0  0  0  0  0  0  0
   -0.3004   -0.0757    1.4097 C   0  0  1  0  0  0  0  0  0  0  0  0
   -3.6727   -0.1139    0.9514 C   0  0  2  0  0  0  0  0  0  0  0  0
   -1.8846    1.1861   -0.6735 S   0  0  0  0  0  0  0  0  0  0  0  0
   -3.4327    0.1691   -0.5541 C   0  0  0  0  0  0  0  0  0  0  0  0
    0.6520   -0.4333    0.3258 N   0  0  0  0  0  0  0  0  0  0  0  0
   -4.6937    0.8177    1.6126 C   0  0  0  0  0  0  0  0  0  0  0  0
    1.6428    0.4472   -0.0566 C   0  0  0  0  0  0  0  0  0  0  0  0
   -1.6476   -2.2411    1.6565 O   0  0  0  0  0  0  0  0  0  0  0  0
   -5.8920    0.8486    1.3643 O   0  0  0  0  0  0  0  0  0  0  0  0
    1.7641    1.5535    0.4662 O   0  0  0  0  0  0  0  0  0  0  0  0
    2.5463   -0.0537   -1.1687 C   0  0  0  0  0  0  0  0  0  0  0  0
   -4.1858    1.6764    2.5212 O   0  0  0  0  0  0  0  0  0  0  0  0
   -3.1806   -1.1394   -1.3246 C   0  0  0  0  0  0  0  0  0  0  0  0
   -4.5496    0.9398   -1.2690 C   0  0  0  0  0  0  0  0  0  0  0  0
    3.9826   -0.1994   -0.7313 C   0  0  0  0  0  0  0  0  0  0  0  0
    4.8355    0.9141   -0.7245 C   0  0  0  0  0  0  0  0  0  0  0  0
    4.4807   -1.4382   -0.3034 C   0  0  0  0  0  0  0  0  0  0  0  0
    6.1643    0.7883   -0.3149 C   0  0  0  0  0  0  0  0  0  0  0  0
    5.8110   -1.5621    0.1064 C   0  0  0  0  0  0  0  0  0  0  0  0
    6.6526   -0.4497    0.0983 C   0  0  0  0  0  0  0  0  0  0  0  0
   -0.7628   -1.5709   -0.2265 H   0  0  0  0  0  0  0  0  0  0  0  0
    0.9449   -1.9611    1.3029 H   0  0  0  0  0  0  0  0  0  0  0  0
    0.3572   -0.3264    1.4612 H   0  0  0  0  0  0  0  0  0  0  0  0
   -0.5162   -0.2430   -2.1819 H   0  0  0  0  0  0  0  0  0  0  0  0
    0.9032    0.5002   -1.5060 H   0  0  0  0  0  0  0  0  0  0  0  0
   -1.0572    1.9672   -1.2608 H   0  0  0  0  0  0  0  0  0  0  0  0
   -0.4320    1.5384    0.3121 H   0  0  0  0  0  0  0  0  0  0  0  0
   -2.9634    0.2726   -2.2219 H   0  0  0  0  0  0  0  0  0  0  0  0
   -2.0288    0.9123    1.9455 H   0  0  0  0  0  0  0  0  0  0  0  0
    2.8700   -2.1593   -0.7135 H   0  0  0  0  0  0  0  0  0  0  0  0
    2.1117    1.2238    1.8512 H   0  0  0  0  0  0  0  0  0  0  0  0
   -5.2082   -0.5295   -1.5840 H   0  0  0  0  0  0  0  0  0  0  0  0
   -4.2802    0.1179    2.5588 H   0  0  0  0  0  0  0  0  0  0  0  0
    5.2033   -1.3932   -1.0184 H   0  0  0  0  0  0  0  0  0  0  0  0
    4.4421    1.9767    1.5381 H   0  0  0  0  0  0  0  0  0  0  0  0
   -5.8748   -0.6075    0.8043 H   0  0  0  0  0  0  0  0  0  0  0  0
    5.9927    0.6753    0.1036 H   0  0  0  0  0  0  0  0  0  0  0  0
   -1.3713    1.8835    1.6741 H   0  0  0  0  0  0  0  0  0  0  0  0
    0.2341    0.1186    2.3488 H   0  0  0  0  0  0  0  0  0  0  0  0
   -4.0542   -1.1317    1.1068 H   0  0  0  0  0  0  0  0  0  0  0  0
    0.5986   -1.3495   -0.1063 H   0  0  0  0  0  0  0  0  0  0  0  0
    2.4761    0.6535   -2.0052 H   0  0  0  0  0  0  0  0  0  0  0  0
    2.1800   -1.0103   -1.5608 H   0  0  0  0  0  0  0  0  0  0  0  0
   -4.9627    2.1813    2.8394 H   0  0  0  0  0  0  0  0  0  0  0  0
   -3.0076   -0.9541   -2.3915 H   0  0  0  0  0  0  0  0  0  0  0  0
   -2.3170   -1.6939   -0.9456 H   0  0  0  0  0  0  0  0  0  0  0  0
   -4.0516   -1.8013   -1.2495 H   0  0  0  0  0  0  0  0  0  0  0  0
   -4.7193    1.9306   -0.8324 H   0  0  0  0  0  0  0  0  0  0  0  0
   -5.4939    0.3848   -1.2259 H   0  0  0  0  0  0  0  0  0  0  0  0
   -4.3206    1.0921   -2.3310 H   0  0  0  0  0  0  0  0  0  0  0  0
    4.4647    1.8910   -1.0305 H   0  0  0  0  0  0  0  0  0  0  0  0
    3.8401   -2.3174   -0.2882 H   0  0  0  0  0  0  0  0  0  0  0  0
    6.8155    1.6596   -0.3138 H   0  0  0  0  0  0  0  0  0  0  0  0
    6.1903   -2.5275    0.4337 H   0  0  0  0  0  0  0  0  0  0  0  0
    7.6874   -0.5451    0.4185 H   0  0  0  0  0  0  0  0  0  0  0  0
  2  4  1  0
  3  6  1  0
  4  1  1  0
  5  1  1  0
  6  5  1  0
  7  3  2  0
  8  3  1  0
  9  2  2  0
 10  2  1  0
 11  7  1  0
 12  8  2  0
 13  9  1  0
 14 10  2  0
 15 12  1  0
 16 14  1  0
 13 16  2  0
 11 15  2  0
 18 17  1  0
 19 17  1  0
 20 19  1  0
 21 17  1  0
 18 22  1  0
 23 21  1  0
 20 24  1  0
 21 25  1  0
 26 24  1  0
 27 19  2  0
 28 25  2  0
 29 26  2  0
 30 26  1  0
 31 25  1  0
 32 23  1  0
 33 23  1  0
 34 30  1  0
 35 34  2  0
 36 34  1  0
 37 35  1  0
 38 36  2  0
 39 38  1  0
 22 23  1  0
 18 20  1  0
 37 39  2  0
  1 40  1  0
  4 41  1  0
  4 42  1  0
  5 43  1  0
  5 44  1  0
  6 45  1  0
  6 46  1  0
  7 47  1  0
  8 48  1  0
  9 49  1  0
 10 50  1  0
 11 51  1  0
 12 52  1  0
 13 53  1  0
 14 54  1  0
 15 55  1  0
 16 56  1  0
 18 57  1  1
 20 58  1  1
 21 59  1  6
 24 60  1  0
 30 61  1  0
 30 62  1  0
 31 63  1  0
 32 64  1  0
 32 65  1  0
 32 66  1  0
 33 67  1  0
 33 68  1  0
 33 69  1  0
 35 70  1  0
 36 71  1  0
 37 72  1  0
 38 73  1  0
 39 74  1  0
M  END
$$$$
