
     RDKit          2D

 40 43  0  0  0  0  0  0  0  0999 V2000
    0.6375   -2.1167    0.0000 N   0  0  0  0  0  0  0  0  0  0  0  0
   -0.7833   -1.8292    0.0000 C   0  0  0  0  0  0  0  0  0  0  0  0
    2.8292   -2.0667    0.0000 C   0  0  0  0  0  0  0  0  0  0  0  0
    0.0292   -1.5667    0.0000 C   0  0  0  0  0  0  0  0  0  0  0  0
    1.4042   -1.7542    0.0000 C   0  0  0  0  0  0  0  0  0  0  0  0
    2.0042   -2.3167    0.0000 C   0  0  0  0  0  0  0  0  0  0  0  0
    3.0667   -1.3500    0.0000 C   0  0  0  0  0  0  0  0  0  0  0  0
    3.3625   -2.6250    0.0000 C   0  0  0  0  0  0  0  0  0  0  0  0
   -1.3208   -1.2917    0.0000 C   0  0  0  0  0  0  0  0  0  0  0  0
   -0.9958   -2.5500    0.0000 C   0  0  0  0  0  0  0  0  0  0  0  0
    3.8292   -1.1875    0.0000 C   0  0  0  0  0  0  0  0  0  0  0  0
    4.1167   -2.4542    0.0000 C   0  0  0  0  0  0  0  0  0  0  0  0
   -2.0708   -1.4917    0.0000 C   0  0  0  0  0  0  0  0  0  0  0  0
   -1.7500   -2.7375    0.0000 C   0  0  0  0  0  0  0  0  0  0  0  0
    4.3417   -1.7417    0.0000 C   0  0  0  0  0  0  0  0  0  0  0  0
   -2.2708   -2.2042    0.0000 C   0  0  0  0  0  0  0  0  0  0  0  0
    0.4125    1.0333    0.0000 N   0  0  0  0  0  0  0  0  0  0  0  0
    0.4125    0.2333    0.0000 C   0  0  0  0  0  0  0  0  0  0  0  0
   -0.3625    1.0250    0.0000 C   0  0  0  0  0  0  0  0  0  0  0  0
   -0.3750    0.2208    0.0000 C   0  0  0  0  0  0  0  0  0  0  0  0
    1.1667    1.2750    0.0000 C   0  0  0  0  0  0  0  0  0  0  0  0
    1.1667   -0.0167    0.0000 S   0  0  0  0  0  0  0  0  0  0  0  0
    1.6417    0.6333    0.0000 C   0  0  0  0  0  0  0  0  0  0  0  0
   -0.9375   -0.3375    0.0000 N   0  0  0  0  0  0  0  0  0  0  0  0
    1.4167    2.0333    0.0000 C   0  0  0  0  0  0  0  0  0  0  0  0
   -1.6500    0.0083    0.0000 C   0  0  0  0  0  0  0  0  0  0  0  0
   -0.9250    1.5875    0.0000 O   0  0  0  0  0  0  0  0  0  0  0  0
    0.8792    2.6458    0.0000 O   0  0  0  0  0  0  0  0  0  0  0  0
   -1.7833    0.7833    0.0000 O   0  0  0  0  0  0  0  0  0  0  0  0
   -2.2083   -0.5542    0.0000 C   0  0  0  0  0  0  0  0  0  0  0  0
    2.1542    2.2083    0.0000 O   0  0  0  0  0  0  0  0  0  0  0  0
    2.3167    0.2333    0.0000 C   0  0  0  0  0  0  0  0  0  0  0  0
    2.3167    1.0208    0.0000 C   0  0  0  0  0  0  0  0  0  0  0  0
   -2.9208   -0.2042    0.0000 C   0  0  0  0  0  0  0  0  0  0  0  0
   -2.9833    0.5833    0.0000 C   0  0  0  0  0  0  0  0  0  0  0  0
   -3.5750   -0.6542    0.0000 C   0  0  0  0  0  0  0  0  0  0  0  0
   -3.6958    0.9208    0.0000 C   0  0  0  0  0  0  0  0  0  0  0  0
   -4.2875   -0.3167    0.0000 C   0  0  0  0  0  0  0  0  0  0  0  0
   -4.3458    0.4750    0.0000 C   0  0  0  0  0  0  0  0  0  0  0  0
    0.2610   -0.7552    0.0000 H   0  0  0  0  0  0  0  0  0  0  0  0
  2  4  1  0
  3  6  1  0
  4  1  1  0
  5  1  1  0
  6  5  1  0
  7  3  1  0
  8  3  2  0
  9  2  2  0
 10  2  1  0
 11  7  2  0
 12  8  1  0
 13  9  1  0
 14 10  2  0
 15 12  2  0
 16 14  1  0
 13 16  2  0
 11 15  1  0
 18 17  1  0
 19 17  1  0
 20 19  1  0
 21 17  1  0
 18 22  1  0
 23 21  1  0
 20 24  1  6
 21 25  1  1
 26 24  1  0
 27 19  2  0
 28 25  2  0
 29 26  2  0
 30 26  1  0
 31 25  1  0
 32 23  1  0
 33 23  1  0
 34 30  1  0
 35 34  1  0
 36 34  2  0
 37 35  2  0
 38 36  1  0
 39 38  2  0
 22 23  1  0
 18 20  1  0
 37 39  1  0
 18 40  1  1
M  END
> <chembl_id>
CHEMBL2107679

> <chembl_pref_name>
BENETHAMINE PENICILLIN
