
     RDKit          3D

 74 77  0  0  0  0  0  0  0  0999 V2000
    0.8068   -0.6512   -0.3798 N   0  0  0  0  0  0  0  0  0  0  0  0
    2.9342    0.1750    0.5040 C   0  0  0  0  0  0  0  0  0  0  0  0
   -2.9079    0.2964   -0.4790 C   0  0  0  0  0  0  0  0  0  0  0  0
    1.4274    0.2422    0.5990 C   0  0  0  0  0  0  0  0  0  0  0  0
   -0.6441   -0.7685   -0.1993 C   0  0  0  0  0  0  0  0  0  0  0  0
   -1.4150    0.5059   -0.5714 C   0  0  0  0  0  0  0  0  0  0  0  0
   -3.6325   -0.1421   -1.5954 C   0  0  0  0  0  0  0  0  0  0  0  0
   -3.5821    0.5071    0.7310 C   0  0  0  0  0  0  0  0  0  0  0  0
    3.5964    0.6864   -0.6218 C   0  0  0  0  0  0  0  0  0  0  0  0
    3.6930   -0.4079    1.5294 C   0  0  0  0  0  0  0  0  0  0  0  0
   -5.0082   -0.3584   -1.5052 C   0  0  0  0  0  0  0  0  0  0  0  0
   -4.9584    0.2914    0.8190 C   0  0  0  0  0  0  0  0  0  0  0  0
    4.9872    0.6235   -0.7164 C   0  0  0  0  0  0  0  0  0  0  0  0
    5.0848   -0.4692    1.4336 C   0  0  0  0  0  0  0  0  0  0  0  0
   -5.6708   -0.1398   -0.2991 C   0  0  0  0  0  0  0  0  0  0  0  0
    5.7306    0.0477    0.3121 C   0  0  0  0  0  0  0  0  0  0  0  0
   -2.3561    0.5898   -0.9390 N   0  0  0  0  0  0  0  0  0  0  0  0
   -1.4257   -0.5276   -0.6766 C   0  0  1  0  0  0  0  0  0  0  0  0
   -1.3548    1.5195   -1.0120 C   0  0  0  0  0  0  0  0  0  0  0  0
   -0.2636    0.4269   -1.0419 C   0  0  1  0  0  0  0  0  0  0  0  0
   -3.4588    0.7986    0.0051 C   0  0  2  0  0  0  0  0  0  0  0  0
   -1.7306   -0.9190    1.0949 S   0  0  0  0  0  0  0  0  0  0  0  0
   -3.5169   -0.4348    0.9305 C   0  0  0  0  0  0  0  0  0  0  0  0
    0.8482    0.5757   -0.0677 N   0  0  0  0  0  0  0  0  0  0  0  0
   -4.7902    1.0931   -0.6811 C   0  0  0  0  0  0  0  0  0  0  0  0
    1.7155   -0.4687    0.1695 C   0  0  0  0  0  0  0  0  0  0  0  0
   -1.3787    2.7265   -0.9331 O   0  0  0  0  0  0  0  0  0  0  0  0
   -5.8481    1.3087   -0.1069 O   0  0  0  0  0  0  0  0  0  0  0  0
    1.6007   -1.5499   -0.4027 O   0  0  0  0  0  0  0  0  0  0  0  0
    2.8035   -0.1773    1.1862 C   0  0  0  0  0  0  0  0  0  0  0  0
   -4.7503    1.0834   -2.0282 O   0  0  0  0  0  0  0  0  0  0  0  0
   -4.0571   -0.0920    2.3197 C   0  0  0  0  0  0  0  0  0  0  0  0
   -4.2823   -1.6282    0.3432 C   0  0  0  0  0  0  0  0  0  0  0  0
    4.1804   -0.1601    0.5710 C   0  0  0  0  0  0  0  0  0  0  0  0
    4.8842   -1.3591    0.3833 C   0  0  0  0  0  0  0  0  0  0  0  0
    4.7657    1.0436    0.1547 C   0  0  0  0  0  0  0  0  0  0  0  0
    6.1560   -1.3529   -0.1922 C   0  0  0  0  0  0  0  0  0  0  0  0
    6.0384    1.0477   -0.4213 C   0  0  0  0  0  0  0  0  0  0  0  0
    6.7338   -0.1493   -0.5920 C   0  0  0  0  0  0  0  0  0  0  0  0
    1.2260   -1.5755   -0.2733 H   0  0  0  0  0  0  0  0  0  0  0  0
    1.1147   -0.0244    1.6160 H   0  0  0  0  0  0  0  0  0  0  0  0
    1.1227    1.2816    0.4308 H   0  0  0  0  0  0  0  0  0  0  0  0
   -0.8762   -1.0792    0.8274 H   0  0  0  0  0  0  0  0  0  0  0  0
   -0.9857   -1.5868   -0.8460 H   0  0  0  0  0  0  0  0  0  0  0  0
   -1.1558    0.8222   -1.5900 H   0  0  0  0  0  0  0  0  0  0  0  0
   -1.1350    1.3382    0.0854 H   0  0  0  0  0  0  0  0  0  0  0  0
   -3.1277   -0.3179   -2.5431 H   0  0  0  0  0  0  0  0  0  0  0  0
   -3.0390    0.8428    1.6114 H   0  0  0  0  0  0  0  0  0  0  0  0
    3.0224    1.1284   -1.4338 H   0  0  0  0  0  0  0  0  0  0  0  0
    3.2050   -0.8180    2.4103 H   0  0  0  0  0  0  0  0  0  0  0  0
   -5.5629   -0.6962   -2.3766 H   0  0  0  0  0  0  0  0  0  0  0  0
   -5.4752    0.4590    1.7603 H   0  0  0  0  0  0  0  0  0  0  0  0
    5.4887    1.0199   -1.5956 H   0  0  0  0  0  0  0  0  0  0  0  0
    5.6649   -0.9230    2.2327 H   0  0  0  0  0  0  0  0  0  0  0  0
   -6.7421   -0.3073   -0.2305 H   0  0  0  0  0  0  0  0  0  0  0  0
    6.8135   -0.0024    0.2369 H   0  0  0  0  0  0  0  0  0  0  0  0
   -1.5707   -1.3657   -1.3645 H   0  0  0  0  0  0  0  0  0  0  0  0
    0.1313    0.2792   -2.0551 H   0  0  0  0  0  0  0  0  0  0  0  0
   -3.2219    1.6989    0.5890 H   0  0  0  0  0  0  0  0  0  0  0  0
    0.9595    1.4463    0.4406 H   0  0  0  0  0  0  0  0  0  0  0  0
    2.7479   -0.9439    1.9690 H   0  0  0  0  0  0  0  0  0  0  0  0
    2.6113    0.7759    1.6937 H   0  0  0  0  0  0  0  0  0  0  0  0
   -5.6609    1.3109   -2.3115 H   0  0  0  0  0  0  0  0  0  0  0  0
   -5.1112    0.2027    2.2667 H   0  0  0  0  0  0  0  0  0  0  0  0
   -3.9949   -0.9500    2.9996 H   0  0  0  0  0  0  0  0  0  0  0  0
   -3.5101    0.7404    2.7771 H   0  0  0  0  0  0  0  0  0  0  0  0
   -5.3576   -1.4217    0.2948 H   0  0  0  0  0  0  0  0  0  0  0  0
   -4.1608   -2.5260    0.9608 H   0  0  0  0  0  0  0  0  0  0  0  0
   -3.9564   -1.8730   -0.6731 H   0  0  0  0  0  0  0  0  0  0  0  0
    4.4381   -2.3080    0.6764 H   0  0  0  0  0  0  0  0  0  0  0  0
    4.2387    1.9875    0.2745 H   0  0  0  0  0  0  0  0  0  0  0  0
    6.6931   -2.2887   -0.3327 H   0  0  0  0  0  0  0  0  0  0  0  0
    6.4872    1.9852   -0.7405 H   0  0  0  0  0  0  0  0  0  0  0  0
    7.7243   -0.1451   -1.0411 H   0  0  0  0  0  0  0  0  0  0  0  0
  2  4  1  0
  3  6  1  0
  4  1  1  0
  5  1  1  0
  6  5  1  0
  7  3  2  0
  8  3  1  0
  9  2  2  0
 10  2  1  0
 11  7  1  0
 12  8  2  0
 13  9  1  0
 14 10  2  0
 15 12  1  0
 16 14  1  0
 13 16  2  0
 11 15  2  0
 18 17  1  0
 19 17  1  0
 20 19  1  0
 21 17  1  0
 18 22  1  0
 23 21  1  0
 20 24  1  0
 21 25  1  0
 26 24  1  0
 27 19  2  0
 28 25  2  0
 29 26  2  0
 30 26  1  0
 31 25  1  0
 32 23  1  0
 33 23  1  0
 34 30  1  0
 35 34  2  0
 36 34  1  0
 37 35  1  0
 38 36  2  0
 39 38  1  0
 22 23  1  0
 18 20  1  0
 37 39  2  0
  1 40  1  0
  4 41  1  0
  4 42  1  0
  5 43  1  0
  5 44  1  0
  6 45  1  0
  6 46  1  0
  7 47  1  0
  8 48  1  0
  9 49  1  0
 10 50  1  0
 11 51  1  0
 12 52  1  0
 13 53  1  0
 14 54  1  0
 15 55  1  0
 16 56  1  0
 18 57  1  6
 20 58  1  6
 21 59  1  1
 24 60  1  0
 30 61  1  0
 30 62  1  0
 31 63  1  0
 32 64  1  0
 32 65  1  0
 32 66  1  0
 33 67  1  0
 33 68  1  0
 33 69  1  0
 35 70  1  0
 36 71  1  0
 37 72  1  0
 38 73  1  0
 39 74  1  0
M  END
$$$$
