
     RDKit          3D

 39 42  0  0  0  0  0  0  0  0999 V2000
    0.1829   -0.6697    0.8875 N   0  0  0  0  0  0  0  0  0  0  0  0
    2.4421    0.0719    0.3487 C   0  0  0  0  0  0  0  0  0  0  0  0
   -2.6729   -0.5262    0.5107 C   0  0  0  0  0  0  0  0  0  0  0  0
    1.3870   -0.0721    1.3865 C   0  0  0  0  0  0  0  0  0  0  0  0
   -0.7644   -0.7591    1.9741 C   0  0  0  0  0  0  0  0  0  0  0  0
   -2.0670   -1.3675    1.5825 C   0  0  0  0  0  0  0  0  0  0  0  0
   -2.4030   -0.7846   -0.8365 C   0  0  0  0  0  0  0  0  0  0  0  0
   -3.5154    0.5301    0.8002 C   0  0  0  0  0  0  0  0  0  0  0  0
    2.5147    1.2359   -0.4249 C   0  0  0  0  0  0  0  0  0  0  0  0
    3.3827   -0.9056    0.0962 C   0  0  0  0  0  0  0  0  0  0  0  0
   -2.9378   -0.0384   -1.8372 C   0  0  0  0  0  0  0  0  0  0  0  0
   -4.0534    1.2823   -0.2330 C   0  0  0  0  0  0  0  0  0  0  0  0
    3.4900    1.3776   -1.3896 C   0  0  0  0  0  0  0  0  0  0  0  0
    4.3617   -0.7718   -0.8670 C   0  0  0  0  0  0  0  0  0  0  0  0
   -3.7693    1.0038   -1.5484 C   0  0  0  0  0  0  0  0  0  0  0  0
    4.4221    0.3934   -1.6303 C   0  0  0  0  0  0  0  0  0  0  0  0
   -2.3035   -0.3256    0.5593 N   0  0  0  0  0  0  0  0  0  0  0  0
   -2.2025    1.1030    0.3208 C   0  0  1  0  0  0  0  0  0  0  0  0
   -1.3819   -0.1888    1.6040 C   0  0  0  0  0  0  0  0  0  0  0  0
   -0.8296    1.0120    0.9229 C   0  0  1  0  0  0  0  0  0  0  0  0
   -3.2243   -0.9329   -0.3670 C   0  0  2  0  0  0  0  0  0  0  0  0
   -2.1386    1.0959   -1.5140 S   0  0  0  0  0  0  0  0  0  0  0  0
   -2.8327   -0.5645   -1.7591 C   0  0  0  0  0  0  0  0  0  0  0  0
    0.1653    0.5701   -0.0662 N   0  0  0  0  0  0  0  0  0  0  0  0
   -4.6379   -0.6171   -0.0460 C   0  0  0  0  0  0  0  0  0  0  0  0
    1.5238    0.4283    0.2832 C   0  0  0  0  0  0  0  0  0  0  0  0
   -1.1445   -0.8261    2.6589 O   0  0  0  0  0  0  0  0  0  0  0  0
   -4.9581    0.1152    0.9495 O   0  0  0  0  0  0  0  0  0  0  0  0
    1.9307    0.6743    1.4507 O   0  0  0  0  0  0  0  0  0  0  0  0
    2.4985   -0.0210   -0.7459 C   0  0  0  0  0  0  0  0  0  0  0  0
   -5.6079   -1.1585   -0.8843 O   0  0  0  0  0  0  0  0  0  0  0  0
   -4.0733   -0.3699   -2.6288 C   0  0  0  0  0  0  0  0  0  0  0  0
   -1.8529   -1.5249   -2.3743 C   0  0  0  0  0  0  0  0  0  0  0  0
    3.8657   -0.1144   -0.2122 C   0  0  0  0  0  0  0  0  0  0  0  0
    4.6769    0.9960   -0.2867 C   0  0  0  0  0  0  0  0  0  0  0  0
    4.4039   -1.2440    0.3647 C   0  0  0  0  0  0  0  0  0  0  0  0
    5.9599    1.0061    0.1814 C   0  0  0  0  0  0  0  0  0  0  0  0
    5.6817   -1.2460    0.8349 C   0  0  0  0  0  0  0  0  0  0  0  0
    6.4814   -0.1292    0.7540 C   0  0  0  0  0  0  0  0  0  0  0  0
  2  4  1  0
  3  6  1  0
  4  1  1  0
  5  1  1  0
  6  5  1  0
  7  3  2  0
  8  3  1  0
  9  2  2  0
 10  2  1  0
 11  7  1  0
 12  8  2  0
 13  9  1  0
 14 10  2  0
 15 12  1  0
 16 14  1  0
 13 16  2  0
 11 15  2  0
 18 17  1  0
 19 17  1  0
 20 19  1  0
 21 17  1  0
 18 22  1  6
 23 21  1  0
 20 24  1  6
 21 25  1  1
 26 24  1  0
 27 19  2  0
 28 25  2  0
 29 26  2  0
 30 26  1  0
 31 25  1  0
 32 23  1  0
 33 23  1  0
 34 30  1  0
 35 34  2  0
 36 34  1  0
 37 35  1  0
 38 36  2  0
 39 38  1  0
 22 23  1  0
 18 20  1  0
 37 39  2  0
M  END
