
     RDKit          3D

 74 77  0  0  0  0  0  0  0  0999 V2000
   -0.1690   -1.2953    0.0154 N   0  0  0  0  0  0  0  0  0  0  0  0
   -2.3192   -0.1465   -0.5282 C   0  0  0  0  0  0  0  0  0  0  0  0
    2.3281    0.3619    0.7302 C   0  0  0  0  0  0  0  0  0  0  0  0
   -0.9029   -0.4681   -0.9454 C   0  0  0  0  0  0  0  0  0  0  0  0
    0.0515   -0.6540    1.3196 C   0  0  0  0  0  0  0  0  0  0  0  0
    0.9560    0.5927    1.3204 C   0  0  0  0  0  0  0  0  0  0  0  0
    2.7176    1.0239   -0.4427 C   0  0  0  0  0  0  0  0  0  0  0  0
    3.2304   -0.5190    1.3419 C   0  0  0  0  0  0  0  0  0  0  0  0
   -3.2181   -1.1721   -0.1983 C   0  0  0  0  0  0  0  0  0  0  0  0
   -2.7619    1.1840   -0.4799 C   0  0  0  0  0  0  0  0  0  0  0  0
    3.9792    0.7999   -0.9973 C   0  0  0  0  0  0  0  0  0  0  0  0
    4.4909   -0.7419    0.7857 C   0  0  0  0  0  0  0  0  0  0  0  0
   -4.5260   -0.8740    0.1861 C   0  0  0  0  0  0  0  0  0  0  0  0
   -4.0718    1.4804   -0.0982 C   0  0  0  0  0  0  0  0  0  0  0  0
    4.8642   -0.0845   -0.3845 C   0  0  0  0  0  0  0  0  0  0  0  0
   -4.9508    0.4529    0.2384 C   0  0  0  0  0  0  0  0  0  0  0  0
   -2.1789   -1.2163   -1.4344 N   0  0  0  0  0  0  0  0  0  0  0  0
   -1.2663   -1.5534   -0.3257 C   0  0  1  0  0  0  0  0  0  0  0  0
   -1.2750   -0.4031   -2.0524 C   0  0  0  0  0  0  0  0  0  0  0  0
   -0.1203   -0.9219   -1.1645 C   0  0  1  0  0  0  0  0  0  0  0  0
   -3.5098   -0.7407   -1.0771 C   0  0  2  0  0  0  0  0  0  0  0  0
   -1.8864   -0.5961    1.1190 S   0  0  0  0  0  0  0  0  0  0  0  0
   -3.3989    0.0334    0.2557 C   0  0  0  0  0  0  0  0  0  0  0  0
    0.7204    0.1262   -0.5269 N   0  0  0  0  0  0  0  0  0  0  0  0
   -4.4332   -1.9540   -1.0140 C   0  0  0  0  0  0  0  0  0  0  0  0
    1.6374   -0.2028    0.4498 C   0  0  0  0  0  0  0  0  0  0  0  0
   -1.4204    0.4650   -2.8816 O   0  0  0  0  0  0  0  0  0  0  0  0
   -4.1398   -3.0987   -0.7064 O   0  0  0  0  0  0  0  0  0  0  0  0
    1.7934   -1.3604    0.8315 O   0  0  0  0  0  0  0  0  0  0  0  0
    2.4137    0.9747    1.0125 C   0  0  0  0  0  0  0  0  0  0  0  0
   -5.7122   -1.6463   -1.3249 O   0  0  0  0  0  0  0  0  0  0  0  0
   -4.5938   -0.1359    1.2034 C   0  0  0  0  0  0  0  0  0  0  0  0
   -3.1888    1.5354    0.0035 C   0  0  0  0  0  0  0  0  0  0  0  0
    3.8961    0.8765    0.7480 C   0  0  0  0  0  0  0  0  0  0  0  0
    4.4739    1.5318   -0.3498 C   0  0  0  0  0  0  0  0  0  0  0  0
    4.7151    0.1074    1.5893 C   0  0  0  0  0  0  0  0  0  0  0  0
    5.8468    1.4302   -0.5910 C   0  0  0  0  0  0  0  0  0  0  0  0
    6.0874    0.0091    1.3475 C   0  0  0  0  0  0  0  0  0  0  0  0
    6.6533    0.6726    0.2595 C   0  0  0  0  0  0  0  0  0  0  0  0
    0.7416   -1.5173   -0.3888 H   0  0  0  0  0  0  0  0  0  0  0  0
   -0.3448    0.4475   -1.1710 H   0  0  0  0  0  0  0  0  0  0  0  0
   -0.9601   -1.0167   -1.8941 H   0  0  0  0  0  0  0  0  0  0  0  0
   -0.9064   -0.4029    1.7892 H   0  0  0  0  0  0  0  0  0  0  0  0
    0.4990   -1.4139    1.9720 H   0  0  0  0  0  0  0  0  0  0  0  0
    0.4531    1.4141    0.7963 H   0  0  0  0  0  0  0  0  0  0  0  0
    1.0846    0.9402    2.3539 H   0  0  0  0  0  0  0  0  0  0  0  0
    2.0404    1.7166   -0.9368 H   0  0  0  0  0  0  0  0  0  0  0  0
    2.9576   -1.0417    2.2559 H   0  0  0  0  0  0  0  0  0  0  0  0
   -2.8905   -2.2097   -0.2233 H   0  0  0  0  0  0  0  0  0  0  0  0
   -2.0884    1.9988   -0.7337 H   0  0  0  0  0  0  0  0  0  0  0  0
    4.2705    1.3138   -1.9113 H   0  0  0  0  0  0  0  0  0  0  0  0
    5.1801   -1.4307    1.2643 H   0  0  0  0  0  0  0  0  0  0  0  0
   -5.2067   -1.6757    0.4545 H   0  0  0  0  0  0  0  0  0  0  0  0
   -4.4047    2.5146   -0.0559 H   0  0  0  0  0  0  0  0  0  0  0  0
    5.8445   -0.2619   -0.8188 H   0  0  0  0  0  0  0  0  0  0  0  0
   -5.9678    0.6850    0.5427 H   0  0  0  0  0  0  0  0  0  0  0  0
   -1.1811   -2.6313   -0.1588 H   0  0  0  0  0  0  0  0  0  0  0  0
    0.5028   -1.6524   -1.6959 H   0  0  0  0  0  0  0  0  0  0  0  0
   -3.8689   -0.0957   -1.8887 H   0  0  0  0  0  0  0  0  0  0  0  0
    0.6652    1.0818   -0.8590 H   0  0  0  0  0  0  0  0  0  0  0  0
    2.2207    1.0217    2.0925 H   0  0  0  0  0  0  0  0  0  0  0  0
    2.0308    1.9189    0.6042 H   0  0  0  0  0  0  0  0  0  0  0  0
   -6.1894   -2.4984   -1.2495 H   0  0  0  0  0  0  0  0  0  0  0  0
   -5.5183    0.2143    0.7292 H   0  0  0  0  0  0  0  0  0  0  0  0
   -4.7451   -1.1785    1.5040 H   0  0  0  0  0  0  0  0  0  0  0  0
   -4.4657    0.4500    2.1218 H   0  0  0  0  0  0  0  0  0  0  0  0
   -2.3026    1.7418   -0.6058 H   0  0  0  0  0  0  0  0  0  0  0  0
   -4.0519    1.9600   -0.5237 H   0  0  0  0  0  0  0  0  0  0  0  0
   -3.0801    2.0916    0.9427 H   0  0  0  0  0  0  0  0  0  0  0  0
    3.8611    2.1274   -1.0251 H   0  0  0  0  0  0  0  0  0  0  0  0
    4.2850   -0.4277    2.4352 H   0  0  0  0  0  0  0  0  0  0  0  0
    6.2894    1.9402   -1.4428 H   0  0  0  0  0  0  0  0  0  0  0  0
    6.7124   -0.5913    2.0070 H   0  0  0  0  0  0  0  0  0  0  0  0
    7.7219    0.5950    0.0712 H   0  0  0  0  0  0  0  0  0  0  0  0
  2  4  1  0
  3  6  1  0
  4  1  1  0
  5  1  1  0
  6  5  1  0
  7  3  2  0
  8  3  1  0
  9  2  2  0
 10  2  1  0
 11  7  1  0
 12  8  2  0
 13  9  1  0
 14 10  2  0
 15 12  1  0
 16 14  1  0
 13 16  2  0
 11 15  2  0
 18 17  1  0
 19 17  1  0
 20 19  1  0
 21 17  1  0
 18 22  1  0
 23 21  1  0
 20 24  1  0
 21 25  1  0
 26 24  1  0
 27 19  2  0
 28 25  2  0
 29 26  2  0
 30 26  1  0
 31 25  1  0
 32 23  1  0
 33 23  1  0
 34 30  1  0
 35 34  2  0
 36 34  1  0
 37 35  1  0
 38 36  2  0
 39 38  1  0
 22 23  1  0
 18 20  1  0
 37 39  2  0
  1 40  1  0
  4 41  1  0
  4 42  1  0
  5 43  1  0
  5 44  1  0
  6 45  1  0
  6 46  1  0
  7 47  1  0
  8 48  1  0
  9 49  1  0
 10 50  1  0
 11 51  1  0
 12 52  1  0
 13 53  1  0
 14 54  1  0
 15 55  1  0
 16 56  1  0
 18 57  1  1
 20 58  1  6
 21 59  1  6
 24 60  1  0
 30 61  1  0
 30 62  1  0
 31 63  1  0
 32 64  1  0
 32 65  1  0
 32 66  1  0
 33 67  1  0
 33 68  1  0
 33 69  1  0
 35 70  1  0
 36 71  1  0
 37 72  1  0
 38 73  1  0
 39 74  1  0
M  END
$$$$
