
     RDKit          3D

 70 72  0  0  0  0  0  0  0  0999 V2000
   -0.5417    1.2034   -0.0144 C   0  0  0  0  0  0  0  0  0  0  0  0
    0.3147    0.1979   -0.3444 C   0  0  0  0  0  0  0  0  0  0  0  0
   -1.8538    0.9599    0.3113 N   0  0  0  0  0  0  0  0  0  0  0  0
   -1.4075   -1.3672   -0.0370 N   0  0  0  0  0  0  0  0  0  0  0  0
   -2.3237   -0.3540    0.3157 C   0  0  0  0  0  0  0  0  0  0  0  0
   -0.0660   -1.1702   -0.3738 C   0  0  0  0  0  0  0  0  0  0  0  0
    0.0655    2.4216   -0.0522 N   0  0  0  0  0  0  0  0  0  0  0  0
    1.5099    0.8145   -0.5878 N   0  0  0  0  0  0  0  0  0  0  0  0
    1.3099    2.1583   -0.3980 C   0  0  0  0  0  0  0  0  0  0  0  0
    2.7501    0.1943   -1.0202 C   0  0  0  0  0  0  0  0  0  0  0  0
   -3.4896   -0.6293    0.6144 O   0  0  0  0  0  0  0  0  0  0  0  0
    0.7204   -2.0658   -0.6668 O   0  0  0  0  0  0  0  0  0  0  0  0
    3.5146   -0.5076    0.0683 C   0  0  0  0  0  0  0  0  0  0  0  0
    4.5342   -1.1594   -0.1090 O   0  0  0  0  0  0  0  0  0  0  0  0
   -2.7318    2.0602    0.6651 C   0  0  0  0  0  0  0  0  0  0  0  0
   -1.9161   -2.7246   -0.0231 C   0  0  0  0  0  0  0  0  0  0  0  0
    3.0390   -0.3449    1.3161 O   0  0  0  0  0  0  0  0  0  0  0  0
   -0.6636   -1.1854   -0.1159 C   0  0  0  0  0  0  0  0  0  0  0  0
    0.2453   -0.1788   -0.2392 C   0  0  0  0  0  0  0  0  0  0  0  0
   -1.9692   -0.9407    0.2354 N   0  0  0  0  0  0  0  0  0  0  0  0
   -1.3809    1.3714    0.4443 N   0  0  0  0  0  0  0  0  0  0  0  0
   -2.3627    0.3638    0.5397 C   0  0  0  0  0  0  0  0  0  0  0  0
   -0.0665    1.1857    0.0088 C   0  0  0  0  0  0  0  0  0  0  0  0
   -0.1167   -2.4008   -0.3985 N   0  0  0  0  0  0  0  0  0  0  0  0
    1.4051   -0.7920   -0.6220 N   0  0  0  0  0  0  0  0  0  0  0  0
    1.1406   -2.1362   -0.6925 C   0  0  0  0  0  0  0  0  0  0  0  0
    2.6679   -0.1575   -0.9499 C   0  0  0  0  0  0  0  0  0  0  0  0
   -3.5211    0.6304    0.8745 O   0  0  0  0  0  0  0  0  0  0  0  0
    0.7463    2.0902   -0.1589 O   0  0  0  0  0  0  0  0  0  0  0  0
    3.4586    0.2213    0.2720 C   0  0  0  0  0  0  0  0  0  0  0  0
    3.2085   -0.0354    1.4375 O   0  0  0  0  0  0  0  0  0  0  0  0
   -2.9188   -2.0304    0.3567 C   0  0  0  0  0  0  0  0  0  0  0  0
   -1.8012    2.7232    0.7555 C   0  0  0  0  0  0  0  0  0  0  0  0
    4.5860    0.8950   -0.0459 O   0  0  0  0  0  0  0  0  0  0  0  0
    1.3411   -0.3127   -0.5580 N   0  0  0  0  0  0  0  0  0  0  0  0
   -1.3410    0.3125    0.5580 N   0  0  0  0  0  0  0  0  0  0  0  0
    1.0578    0.9505    0.1465 C   0  0  0  0  0  0  0  0  0  0  0  0
   -0.4284    1.3620    0.0703 C   0  0  0  0  0  0  0  0  0  0  0  0
    0.4285   -1.3622   -0.0705 C   0  0  0  0  0  0  0  0  0  0  0  0
   -1.0578   -0.9505   -0.1467 C   0  0  0  0  0  0  0  0  0  0  0  0
    2.0935    2.8952   -0.5251 H   0  0  0  0  0  0  0  0  0  0  0  0
    2.5035   -0.5192   -1.8121 H   0  0  0  0  0  0  0  0  0  0  0  0
    3.3850    0.9832   -1.4358 H   0  0  0  0  0  0  0  0  0  0  0  0
   -3.7500    1.7197    0.8710 H   0  0  0  0  0  0  0  0  0  0  0  0
   -2.7638    2.7741   -0.1639 H   0  0  0  0  0  0  0  0  0  0  0  0
   -2.3413    2.5538    1.5605 H   0  0  0  0  0  0  0  0  0  0  0  0
   -1.1692   -3.4553   -0.3436 H   0  0  0  0  0  0  0  0  0  0  0  0
   -2.7839   -2.7891   -0.6876 H   0  0  0  0  0  0  0  0  0  0  0  0
   -2.2406   -2.9696    0.9935 H   0  0  0  0  0  0  0  0  0  0  0  0
    3.6386   -0.8797    1.8790 H   0  0  0  0  0  0  0  0  0  0  0  0
    1.8885   -2.8714   -0.9642 H   0  0  0  0  0  0  0  0  0  0  0  0
    2.4511    0.7294   -1.5525 H   0  0  0  0  0  0  0  0  0  0  0  0
    3.2512   -0.8651   -1.5495 H   0  0  0  0  0  0  0  0  0  0  0  0
   -2.8013   -2.4882    1.3438 H   0  0  0  0  0  0  0  0  0  0  0  0
   -2.7363   -2.7800   -0.4192 H   0  0  0  0  0  0  0  0  0  0  0  0
   -3.9456   -1.6719    0.2515 H   0  0  0  0  0  0  0  0  0  0  0  0
   -0.9486    3.3767    0.9609 H   0  0  0  0  0  0  0  0  0  0  0  0
   -2.4586    2.7248    1.6297 H   0  0  0  0  0  0  0  0  0  0  0  0
   -2.3542    3.1176   -0.1029 H   0  0  0  0  0  0  0  0  0  0  0  0
    4.9961    1.1040    0.8212 H   0  0  0  0  0  0  0  0  0  0  0  0
    1.1433   -0.1663   -1.5490 H   0  0  0  0  0  0  0  0  0  0  0  0
   -1.1440    0.1651    1.5488 H   0  0  0  0  0  0  0  0  0  0  0  0
    1.6761    1.7432   -0.2892 H   0  0  0  0  0  0  0  0  0  0  0  0
    1.3642    0.8546    1.1955 H   0  0  0  0  0  0  0  0  0  0  0  0
   -0.5842    2.2688    0.6653 H   0  0  0  0  0  0  0  0  0  0  0  0
   -0.6920    1.6159   -0.9640 H   0  0  0  0  0  0  0  0  0  0  0  0
    0.5853   -2.2692   -0.6651 H   0  0  0  0  0  0  0  0  0  0  0  0
    0.6925   -1.6162    0.9637 H   0  0  0  0  0  0  0  0  0  0  0  0
   -1.6759   -1.7428    0.2897 H   0  0  0  0  0  0  0  0  0  0  0  0
   -1.3656   -0.8527   -1.1953 H   0  0  0  0  0  0  0  0  0  0  0  0
  2  1  2  0
  3  1  1  0
  4  5  1  0
  5  3  1  0
  6  2  1  0
  7  1  1  0
  8  2  1  0
  9  7  2  0
 10  8  1  0
 11  5  2  0
 12  6  2  0
 13 10  1  0
 14 13  2  0
 15  3  1  0
 16  4  1  0
 17 13  1  0
  6  4  1  0
  8  9  1  0
 19 18  2  0
 20 18  1  0
 21 22  1  0
 22 20  1  0
 23 19  1  0
 24 18  1  0
 25 19  1  0
 26 24  2  0
 27 25  1  0
 28 22  2  0
 29 23  2  0
 30 27  1  0
 31 30  2  0
 32 20  1  0
 33 21  1  0
 34 30  1  0
 23 21  1  0
 25 26  1  0
 36 40  1  0
 37 35  1  0
 38 37  1  0
 39 35  1  0
 40 39  1  0
 38 36  1  0
  9 41  1  0
 10 42  1  0
 10 43  1  0
 15 44  1  0
 15 45  1  0
 15 46  1  0
 16 47  1  0
 16 48  1  0
 16 49  1  0
 17 50  1  0
 26 51  1  0
 27 52  1  0
 27 53  1  0
 32 54  1  0
 32 55  1  0
 32 56  1  0
 33 57  1  0
 33 58  1  0
 33 59  1  0
 34 60  1  0
 35 61  1  0
 36 62  1  0
 37 63  1  0
 37 64  1  0
 38 65  1  0
 38 66  1  0
 39 67  1  0
 39 68  1  0
 40 69  1  0
 40 70  1  0
M  END
$$$$
