
     RDKit          3D

 70 72  0  0  0  0  0  0  0  0999 V2000
   -0.6146   -1.2100    0.2206 C   0  0  0  0  0  0  0  0  0  0  0  0
    0.2571   -0.1698    0.3254 C   0  0  0  0  0  0  0  0  0  0  0  0
   -1.9201   -1.0245   -0.1645 N   0  0  0  0  0  0  0  0  0  0  0  0
   -1.4199    1.3054   -0.3997 N   0  0  0  0  0  0  0  0  0  0  0  0
   -2.3675    0.2630   -0.4668 C   0  0  0  0  0  0  0  0  0  0  0  0
   -0.0997    1.1751    0.0394 C   0  0  0  0  0  0  0  0  0  0  0  0
   -0.0331   -2.3958    0.5531 N   0  0  0  0  0  0  0  0  0  0  0  0
    1.4355   -0.7330    0.7280 N   0  0  0  0  0  0  0  0  0  0  0  0
    1.2119   -2.0805    0.8492 C   0  0  0  0  0  0  0  0  0  0  0  0
    2.6822   -0.0484    1.0162 C   0  0  0  0  0  0  0  0  0  0  0  0
   -3.5424    0.4884   -0.7727 O   0  0  0  0  0  0  0  0  0  0  0  0
    0.6814    2.1108    0.1861 O   0  0  0  0  0  0  0  0  0  0  0  0
    3.4121    0.3672   -0.2313 C   0  0  0  0  0  0  0  0  0  0  0  0
    3.1600    0.0582   -1.3840 O   0  0  0  0  0  0  0  0  0  0  0  0
   -2.8256   -2.1567   -0.2339 C   0  0  0  0  0  0  0  0  0  0  0  0
   -1.8882    2.6396   -0.7182 C   0  0  0  0  0  0  0  0  0  0  0  0
    4.4850    1.1401    0.0424 O   0  0  0  0  0  0  0  0  0  0  0  0
   -0.3936   -1.1799   -0.4342 C   0  0  0  0  0  0  0  0  0  0  0  0
    0.2774    0.0042   -0.4073 C   0  0  0  0  0  0  0  0  0  0  0  0
   -1.6610   -1.3054    0.0805 N   0  0  0  0  0  0  0  0  0  0  0  0
   -1.5347    1.0043    0.7011 N   0  0  0  0  0  0  0  0  0  0  0  0
   -2.2758   -0.1954    0.6621 C   0  0  0  0  0  0  0  0  0  0  0  0
   -0.2596    1.1899    0.1611 C   0  0  0  0  0  0  0  0  0  0  0  0
    0.3365   -2.1651   -1.0266 N   0  0  0  0  0  0  0  0  0  0  0  0
    1.4792   -0.2547   -1.0045 N   0  0  0  0  0  0  0  0  0  0  0  0
    1.4699   -1.5800   -1.3589 C   0  0  0  0  0  0  0  0  0  0  0  0
    2.5479    0.6891   -1.2816 C   0  0  0  0  0  0  0  0  0  0  0  0
   -3.4200   -0.2501    1.1229 O   0  0  0  0  0  0  0  0  0  0  0  0
    0.3499    2.2550    0.1608 O   0  0  0  0  0  0  0  0  0  0  0  0
    3.4088    1.0293   -0.0959 C   0  0  0  0  0  0  0  0  0  0  0  0
    4.2954    1.8719   -0.0999 O   0  0  0  0  0  0  0  0  0  0  0  0
   -2.3469   -2.5832    0.0203 C   0  0  0  0  0  0  0  0  0  0  0  0
   -2.1879    2.1480    1.3076 C   0  0  0  0  0  0  0  0  0  0  0  0
    3.1913    0.3001    1.0137 O   0  0  0  0  0  0  0  0  0  0  0  0
    0.0906   -1.1873   -0.8833 N   0  0  0  0  0  0  0  0  0  0  0  0
   -0.0904    1.1875    0.8834 N   0  0  0  0  0  0  0  0  0  0  0  0
   -1.1907   -0.7119   -0.3364 C   0  0  0  0  0  0  0  0  0  0  0  0
   -1.1827    0.7995   -0.0239 C   0  0  0  0  0  0  0  0  0  0  0  0
    1.1829   -0.7995    0.0239 C   0  0  0  0  0  0  0  0  0  0  0  0
    1.1909    0.7120    0.3364 C   0  0  0  0  0  0  0  0  0  0  0  0
    1.9795   -2.7806    1.1550 H   0  0  0  0  0  0  0  0  0  0  0  0
    3.3172   -0.7310    1.5895 H   0  0  0  0  0  0  0  0  0  0  0  0
    2.4467    0.8260    1.6288 H   0  0  0  0  0  0  0  0  0  0  0  0
   -3.8158   -1.8661   -0.5944 H   0  0  0  0  0  0  0  0  0  0  0  0
   -2.9309   -2.5901    0.7657 H   0  0  0  0  0  0  0  0  0  0  0  0
   -2.4131   -2.9047   -0.9176 H   0  0  0  0  0  0  0  0  0  0  0  0
   -2.3852    3.0494    0.1671 H   0  0  0  0  0  0  0  0  0  0  0  0
   -1.0622    3.2993   -0.9995 H   0  0  0  0  0  0  0  0  0  0  0  0
   -2.6063    2.6098   -1.5435 H   0  0  0  0  0  0  0  0  0  0  0  0
    4.8559    1.3590   -0.8404 H   0  0  0  0  0  0  0  0  0  0  0  0
    2.3027   -2.0624   -1.8555 H   0  0  0  0  0  0  0  0  0  0  0  0
    2.0875    1.6005   -1.6739 H   0  0  0  0  0  0  0  0  0  0  0  0
    3.1839    0.2491   -2.0568 H   0  0  0  0  0  0  0  0  0  0  0  0
   -3.3607   -2.5206    0.4226 H   0  0  0  0  0  0  0  0  0  0  0  0
   -2.4062   -2.9102   -1.0225 H   0  0  0  0  0  0  0  0  0  0  0  0
   -1.7830   -3.3170    0.6039 H   0  0  0  0  0  0  0  0  0  0  0  0
   -2.9922    2.4800    0.6437 H   0  0  0  0  0  0  0  0  0  0  0  0
   -2.6274    1.8580    2.2675 H   0  0  0  0  0  0  0  0  0  0  0  0
   -1.4982    2.9793    1.4746 H   0  0  0  0  0  0  0  0  0  0  0  0
    3.8170    0.6653    1.6750 H   0  0  0  0  0  0  0  0  0  0  0  0
    0.0639   -2.2031   -0.9573 H   0  0  0  0  0  0  0  0  0  0  0  0
   -0.0637    2.2032    0.9577 H   0  0  0  0  0  0  0  0  0  0  0  0
   -1.9813   -0.9223   -1.0648 H   0  0  0  0  0  0  0  0  0  0  0  0
   -1.4333   -1.2754    0.5737 H   0  0  0  0  0  0  0  0  0  0  0  0
   -2.1376    1.0739    0.4377 H   0  0  0  0  0  0  0  0  0  0  0  0
   -1.1017    1.3687   -0.9585 H   0  0  0  0  0  0  0  0  0  0  0  0
    2.1378   -1.0750   -0.4374 H   0  0  0  0  0  0  0  0  0  0  0  0
    1.1008   -1.3694    0.9581 H   0  0  0  0  0  0  0  0  0  0  0  0
    1.4332    1.2754   -0.5739 H   0  0  0  0  0  0  0  0  0  0  0  0
    1.9814    0.9236    1.0647 H   0  0  0  0  0  0  0  0  0  0  0  0
  2  1  2  0
  3  1  1  0
  4  5  1  0
  5  3  1  0
  6  2  1  0
  7  1  1  0
  8  2  1  0
  9  7  2  0
 10  8  1  0
 11  5  2  0
 12  6  2  0
 13 10  1  0
 14 13  2  0
 15  3  1  0
 16  4  1  0
 17 13  1  0
  6  4  1  0
  8  9  1  0
 19 18  2  0
 20 18  1  0
 21 22  1  0
 22 20  1  0
 23 19  1  0
 24 18  1  0
 25 19  1  0
 26 24  2  0
 27 25  1  0
 28 22  2  0
 29 23  2  0
 30 27  1  0
 31 30  2  0
 32 20  1  0
 33 21  1  0
 34 30  1  0
 23 21  1  0
 25 26  1  0
 36 40  1  0
 37 35  1  0
 38 37  1  0
 39 35  1  0
 40 39  1  0
 38 36  1  0
  9 41  1  0
 10 42  1  0
 10 43  1  0
 15 44  1  0
 15 45  1  0
 15 46  1  0
 16 47  1  0
 16 48  1  0
 16 49  1  0
 17 50  1  0
 26 51  1  0
 27 52  1  0
 27 53  1  0
 32 54  1  0
 32 55  1  0
 32 56  1  0
 33 57  1  0
 33 58  1  0
 33 59  1  0
 34 60  1  0
 35 61  1  0
 36 62  1  0
 37 63  1  0
 37 64  1  0
 38 65  1  0
 38 66  1  0
 39 67  1  0
 39 68  1  0
 40 69  1  0
 40 70  1  0
M  END
$$$$
