
     RDKit          3D

 70 72  0  0  0  0  0  0  0  0999 V2000
   -0.4310    1.2977    0.1961 C   0  0  0  0  0  0  0  0  0  0  0  0
    0.2543    0.1459    0.4339 C   0  0  0  0  0  0  0  0  0  0  0  0
   -1.7161    1.2886   -0.2895 N   0  0  0  0  0  0  0  0  0  0  0  0
   -1.5882   -1.1032   -0.3128 N   0  0  0  0  0  0  0  0  0  0  0  0
   -2.3367    0.0676   -0.5575 C   0  0  0  0  0  0  0  0  0  0  0  0
   -0.2901   -1.1459    0.2019 C   0  0  0  0  0  0  0  0  0  0  0  0
    0.3077    2.4006    0.5019 N   0  0  0  0  0  0  0  0  0  0  0  0
    1.4777    0.5485    0.8915 N   0  0  0  0  0  0  0  0  0  0  0  0
    1.4638    1.9194    0.9133 C   0  0  0  0  0  0  0  0  0  0  0  0
    2.5774   -0.2971    1.3172 C   0  0  0  0  0  0  0  0  0  0  0  0
   -3.4928    0.0032   -0.9862 O   0  0  0  0  0  0  0  0  0  0  0  0
    0.3312   -2.1757    0.4477 O   0  0  0  0  0  0  0  0  0  0  0  0
    3.3237   -0.8979    0.1577 C   0  0  0  0  0  0  0  0  0  0  0  0
    3.1855   -0.6550   -1.0291 O   0  0  0  0  0  0  0  0  0  0  0  0
   -2.4138    2.5394   -0.5234 C   0  0  0  0  0  0  0  0  0  0  0  0
   -2.2501   -2.3603   -0.6016 C   0  0  0  0  0  0  0  0  0  0  0  0
    4.2689   -1.7742    0.5642 O   0  0  0  0  0  0  0  0  0  0  0  0
   -0.6078   -1.1419   -0.1196 C   0  0  0  0  0  0  0  0  0  0  0  0
    0.3284   -0.1756   -0.3313 C   0  0  0  0  0  0  0  0  0  0  0  0
   -1.9310   -0.8368    0.0875 N   0  0  0  0  0  0  0  0  0  0  0  0
   -1.3357    1.4713   -0.1416 N   0  0  0  0  0  0  0  0  0  0  0  0
   -2.3320    0.4994    0.0887 C   0  0  0  0  0  0  0  0  0  0  0  0
    0.0217    1.2124   -0.3513 C   0  0  0  0  0  0  0  0  0  0  0  0
   -0.0652   -2.3910   -0.1393 N   0  0  0  0  0  0  0  0  0  0  0  0
    1.5079   -0.8518   -0.4759 N   0  0  0  0  0  0  0  0  0  0  0  0
    1.2191   -2.1878   -0.3545 C   0  0  0  0  0  0  0  0  0  0  0  0
    2.8209   -0.2941   -0.7455 C   0  0  0  0  0  0  0  0  0  0  0  0
   -3.5063    0.8284    0.2819 O   0  0  0  0  0  0  0  0  0  0  0  0
    0.8740    2.0760   -0.5381 O   0  0  0  0  0  0  0  0  0  0  0  0
    3.5849    0.1116    0.4859 C   0  0  0  0  0  0  0  0  0  0  0  0
    4.7833    0.3596    0.5084 O   0  0  0  0  0  0  0  0  0  0  0  0
   -2.8936   -1.8976    0.3220 C   0  0  0  0  0  0  0  0  0  0  0  0
   -1.7749    2.8531   -0.1367 C   0  0  0  0  0  0  0  0  0  0  0  0
    2.8627    0.2128    1.6166 O   0  0  0  0  0  0  0  0  0  0  0  0
   -1.0581   -1.0236    0.2028 N   0  0  0  0  0  0  0  0  0  0  0  0
    1.0581    1.0235   -0.2007 N   0  0  0  0  0  0  0  0  0  0  0  0
    0.2231   -1.3361   -0.4543 C   0  0  0  0  0  0  0  0  0  0  0  0
    1.3710   -0.4035   -0.0113 C   0  0  0  0  0  0  0  0  0  0  0  0
   -1.3712    0.4033    0.0102 C   0  0  0  0  0  0  0  0  0  0  0  0
   -0.2240    1.3362    0.4549 C   0  0  0  0  0  0  0  0  0  0  0  0
    2.3109    2.5122    1.2363 H   0  0  0  0  0  0  0  0  0  0  0  0
    3.2674    0.3169    1.9045 H   0  0  0  0  0  0  0  0  0  0  0  0
    2.1637   -1.0845    1.9535 H   0  0  0  0  0  0  0  0  0  0  0  0
   -1.8458    3.1380   -1.2430 H   0  0  0  0  0  0  0  0  0  0  0  0
   -3.4189    2.3780   -0.9220 H   0  0  0  0  0  0  0  0  0  0  0  0
   -2.4959    3.0828    0.4233 H   0  0  0  0  0  0  0  0  0  0  0  0
   -3.1281   -2.4529    0.0458 H   0  0  0  0  0  0  0  0  0  0  0  0
   -1.5991   -3.2235   -0.4430 H   0  0  0  0  0  0  0  0  0  0  0  0
   -2.5870   -2.3581   -1.6435 H   0  0  0  0  0  0  0  0  0  0  0  0
    4.6612   -2.1106   -0.2710 H   0  0  0  0  0  0  0  0  0  0  0  0
    1.9721   -2.9631   -0.4304 H   0  0  0  0  0  0  0  0  0  0  0  0
    3.3943   -1.0656   -1.2717 H   0  0  0  0  0  0  0  0  0  0  0  0
    2.7025    0.5687   -1.4068 H   0  0  0  0  0  0  0  0  0  0  0  0
   -3.9082   -1.5078    0.4444 H   0  0  0  0  0  0  0  0  0  0  0  0
   -2.6141   -2.4378    1.2334 H   0  0  0  0  0  0  0  0  0  0  0  0
   -2.8842   -2.5857   -0.5302 H   0  0  0  0  0  0  0  0  0  0  0  0
   -0.9662    3.5516   -0.3660 H   0  0  0  0  0  0  0  0  0  0  0  0
   -2.1810    3.0911    0.8520 H   0  0  0  0  0  0  0  0  0  0  0  0
   -2.5716    2.9786   -0.8774 H   0  0  0  0  0  0  0  0  0  0  0  0
    3.5002    0.5219    2.2954 H   0  0  0  0  0  0  0  0  0  0  0  0
   -0.9395   -1.1823    1.2042 H   0  0  0  0  0  0  0  0  0  0  0  0
    0.9426    1.1861   -1.2024 H   0  0  0  0  0  0  0  0  0  0  0  0
    0.4908   -2.3734   -0.2256 H   0  0  0  0  0  0  0  0  0  0  0  0
    0.0925   -1.2779   -1.5421 H   0  0  0  0  0  0  0  0  0  0  0  0
    2.2743   -0.6442   -0.5827 H   0  0  0  0  0  0  0  0  0  0  0  0
    1.6099   -0.5820    1.0448 H   0  0  0  0  0  0  0  0  0  0  0  0
   -1.6064    0.5804   -1.0469 H   0  0  0  0  0  0  0  0  0  0  0  0
   -2.2762    0.6449    0.5789 H   0  0  0  0  0  0  0  0  0  0  0  0
   -0.4910    2.3742    0.2269 H   0  0  0  0  0  0  0  0  0  0  0  0
   -0.0957    1.2745    1.5431 H   0  0  0  0  0  0  0  0  0  0  0  0
  2  1  2  0
  3  1  1  0
  4  5  1  0
  5  3  1  0
  6  2  1  0
  7  1  1  0
  8  2  1  0
  9  7  2  0
 10  8  1  0
 11  5  2  0
 12  6  2  0
 13 10  1  0
 14 13  2  0
 15  3  1  0
 16  4  1  0
 17 13  1  0
  6  4  1  0
  8  9  1  0
 19 18  2  0
 20 18  1  0
 21 22  1  0
 22 20  1  0
 23 19  1  0
 24 18  1  0
 25 19  1  0
 26 24  2  0
 27 25  1  0
 28 22  2  0
 29 23  2  0
 30 27  1  0
 31 30  2  0
 32 20  1  0
 33 21  1  0
 34 30  1  0
 23 21  1  0
 25 26  1  0
 36 40  1  0
 37 35  1  0
 38 37  1  0
 39 35  1  0
 40 39  1  0
 38 36  1  0
  9 41  1  0
 10 42  1  0
 10 43  1  0
 15 44  1  0
 15 45  1  0
 15 46  1  0
 16 47  1  0
 16 48  1  0
 16 49  1  0
 17 50  1  0
 26 51  1  0
 27 52  1  0
 27 53  1  0
 32 54  1  0
 32 55  1  0
 32 56  1  0
 33 57  1  0
 33 58  1  0
 33 59  1  0
 34 60  1  0
 35 61  1  0
 36 62  1  0
 37 63  1  0
 37 64  1  0
 38 65  1  0
 38 66  1  0
 39 67  1  0
 39 68  1  0
 40 69  1  0
 40 70  1  0
M  END
$$$$
