
     RDKit          3D

 70 72  0  0  0  0  0  0  0  0999 V2000
   -0.6301   -1.2019   -0.1477 C   0  0  0  0  0  0  0  0  0  0  0  0
    0.2046   -0.1489   -0.3678 C   0  0  0  0  0  0  0  0  0  0  0  0
   -1.8832   -1.0320    0.3886 N   0  0  0  0  0  0  0  0  0  0  0  0
   -1.4040    1.3118    0.5229 N   0  0  0  0  0  0  0  0  0  0  0  0
   -2.2963    0.2467    0.7667 C   0  0  0  0  0  0  0  0  0  0  0  0
   -0.1377    1.1945   -0.0554 C   0  0  0  0  0  0  0  0  0  0  0  0
   -0.0679   -2.3834   -0.5272 N   0  0  0  0  0  0  0  0  0  0  0  0
    1.3365   -0.6989   -0.9011 N   0  0  0  0  0  0  0  0  0  0  0  0
    1.1261   -2.0518   -0.9749 C   0  0  0  0  0  0  0  0  0  0  0  0
    2.5240   -0.0017   -1.3564 C   0  0  0  0  0  0  0  0  0  0  0  0
   -3.3951    0.4448    1.2923 O   0  0  0  0  0  0  0  0  0  0  0  0
    0.6140    2.1360   -0.2840 O   0  0  0  0  0  0  0  0  0  0  0  0
    3.4470    0.3659   -0.2275 C   0  0  0  0  0  0  0  0  0  0  0  0
    3.3436    0.0729    0.9519 O   0  0  0  0  0  0  0  0  0  0  0  0
   -2.7382   -2.1761    0.6443 C   0  0  0  0  0  0  0  0  0  0  0  0
   -1.8614    2.6319    0.9077 C   0  0  0  0  0  0  0  0  0  0  0  0
    4.5222    1.0570   -0.6616 O   0  0  0  0  0  0  0  0  0  0  0  0
   -0.4844   -1.1764   -0.3291 C   0  0  0  0  0  0  0  0  0  0  0  0
    0.3204   -0.0802   -0.3956 C   0  0  0  0  0  0  0  0  0  0  0  0
   -1.8124   -1.0802    0.0085 N   0  0  0  0  0  0  0  0  0  0  0  0
   -1.4851    1.2811    0.2370 N   0  0  0  0  0  0  0  0  0  0  0  0
   -2.3463    0.1681    0.3306 C   0  0  0  0  0  0  0  0  0  0  0  0
   -0.1343    1.2373   -0.1182 C   0  0  0  0  0  0  0  0  0  0  0  0
    0.1891   -2.3216   -0.6294 N   0  0  0  0  0  0  0  0  0  0  0  0
    1.5511   -0.5652   -0.7399 N   0  0  0  0  0  0  0  0  0  0  0  0
    1.4219   -1.9243   -0.8710 C   0  0  0  0  0  0  0  0  0  0  0  0
    2.7670    0.1934   -0.9710 C   0  0  0  0  0  0  0  0  0  0  0  0
   -3.5211    0.3019    0.6865 O   0  0  0  0  0  0  0  0  0  0  0  0
    0.5996    2.2188   -0.1912 O   0  0  0  0  0  0  0  0  0  0  0  0
    3.5433    0.5205    0.2752 C   0  0  0  0  0  0  0  0  0  0  0  0
    4.6842    0.9614    0.2834 O   0  0  0  0  0  0  0  0  0  0  0  0
   -2.6303   -2.2747    0.1101 C   0  0  0  0  0  0  0  0  0  0  0  0
   -2.0620    2.5668    0.5749 C   0  0  0  0  0  0  0  0  0  0  0  0
    2.9057    0.3039    1.4402 O   0  0  0  0  0  0  0  0  0  0  0  0
    0.5849    1.3743   -0.2162 N   0  0  0  0  0  0  0  0  0  0  0  0
   -0.5959   -1.3850    0.0698 N   0  0  0  0  0  0  0  0  0  0  0  0
    1.3548    0.2381    0.3104 C   0  0  0  0  0  0  0  0  0  0  0  0
    0.8354   -1.1327   -0.1711 C   0  0  0  0  0  0  0  0  0  0  0  0
   -0.8636    1.1098   -0.1818 C   0  0  0  0  0  0  0  0  0  0  0  0
   -1.2833   -0.1794    0.5546 C   0  0  0  0  0  0  0  0  0  0  0  0
    1.8654   -2.7419   -1.3617 H   0  0  0  0  0  0  0  0  0  0  0  0
    2.2055    0.8962   -1.8949 H   0  0  0  0  0  0  0  0  0  0  0  0
    3.0555   -0.6645   -2.0485 H   0  0  0  0  0  0  0  0  0  0  0  0
   -2.4428   -2.6245    1.5971 H   0  0  0  0  0  0  0  0  0  0  0  0
   -3.7881   -1.8775    0.7067 H   0  0  0  0  0  0  0  0  0  0  0  0
   -2.6367   -2.9132   -0.1575 H   0  0  0  0  0  0  0  0  0  0  0  0
   -1.0954    3.3984    0.7656 H   0  0  0  0  0  0  0  0  0  0  0  0
   -2.1573    2.6182    1.9615 H   0  0  0  0  0  0  0  0  0  0  0  0
   -2.7397    2.8898    0.3058 H   0  0  0  0  0  0  0  0  0  0  0  0
    5.0297    1.2521    0.1553 H   0  0  0  0  0  0  0  0  0  0  0  0
    2.2476   -2.5703   -1.1426 H   0  0  0  0  0  0  0  0  0  0  0  0
    3.4040   -0.4114   -1.6249 H   0  0  0  0  0  0  0  0  0  0  0  0
    2.5013    1.1161   -1.4924 H   0  0  0  0  0  0  0  0  0  0  0  0
   -3.6959   -2.0319    0.1391 H   0  0  0  0  0  0  0  0  0  0  0  0
   -2.4435   -2.9257   -0.7475 H   0  0  0  0  0  0  0  0  0  0  0  0
   -2.3663   -2.7999    1.0330 H   0  0  0  0  0  0  0  0  0  0  0  0
   -2.4095    2.5355    1.6123 H   0  0  0  0  0  0  0  0  0  0  0  0
   -1.3513    3.3907    0.4646 H   0  0  0  0  0  0  0  0  0  0  0  0
   -2.9250    2.7529   -0.0715 H   0  0  0  0  0  0  0  0  0  0  0  0
    3.5323    0.6133    2.1287 H   0  0  0  0  0  0  0  0  0  0  0  0
    0.8577    1.5419   -1.1838 H   0  0  0  0  0  0  0  0  0  0  0  0
   -1.0212   -1.6800   -0.8085 H   0  0  0  0  0  0  0  0  0  0  0  0
    2.4036    0.3546    0.0139 H   0  0  0  0  0  0  0  0  0  0  0  0
    1.3405    0.2755    1.4072 H   0  0  0  0  0  0  0  0  0  0  0  0
    1.4123   -1.9281    0.3111 H   0  0  0  0  0  0  0  0  0  0  0  0
    1.0226   -1.2171   -1.2489 H   0  0  0  0  0  0  0  0  0  0  0  0
   -1.3618    1.9678    0.2816 H   0  0  0  0  0  0  0  0  0  0  0  0
   -1.2279    1.0544   -1.2147 H   0  0  0  0  0  0  0  0  0  0  0  0
   -2.3647   -0.3244    0.4464 H   0  0  0  0  0  0  0  0  0  0  0  0
   -1.0935   -0.0697    1.6300 H   0  0  0  0  0  0  0  0  0  0  0  0
  2  1  2  0
  3  1  1  0
  4  5  1  0
  5  3  1  0
  6  2  1  0
  7  1  1  0
  8  2  1  0
  9  7  2  0
 10  8  1  0
 11  5  2  0
 12  6  2  0
 13 10  1  0
 14 13  2  0
 15  3  1  0
 16  4  1  0
 17 13  1  0
  6  4  1  0
  8  9  1  0
 19 18  2  0
 20 18  1  0
 21 22  1  0
 22 20  1  0
 23 19  1  0
 24 18  1  0
 25 19  1  0
 26 24  2  0
 27 25  1  0
 28 22  2  0
 29 23  2  0
 30 27  1  0
 31 30  2  0
 32 20  1  0
 33 21  1  0
 34 30  1  0
 23 21  1  0
 25 26  1  0
 36 40  1  0
 37 35  1  0
 38 37  1  0
 39 35  1  0
 40 39  1  0
 38 36  1  0
  9 41  1  0
 10 42  1  0
 10 43  1  0
 15 44  1  0
 15 45  1  0
 15 46  1  0
 16 47  1  0
 16 48  1  0
 16 49  1  0
 17 50  1  0
 26 51  1  0
 27 52  1  0
 27 53  1  0
 32 54  1  0
 32 55  1  0
 32 56  1  0
 33 57  1  0
 33 58  1  0
 33 59  1  0
 34 60  1  0
 35 61  1  0
 36 62  1  0
 37 63  1  0
 37 64  1  0
 38 65  1  0
 38 66  1  0
 39 67  1  0
 39 68  1  0
 40 69  1  0
 40 70  1  0
M  END
$$$$
