
     RDKit          3D

 40 42  0  0  0  0  0  0  0  0999 V2000
   -0.7125    1.2758   -0.0669 C   0  0  0  0  0  0  0  0  0  0  0  0
    0.1066    0.2342   -0.4794 C   0  0  0  0  0  0  0  0  0  0  0  0
   -1.9858    0.9911    0.2864 N   0  0  0  0  0  0  0  0  0  0  0  0
   -1.6521   -1.2967   -0.1636 N   0  0  0  0  0  0  0  0  0  0  0  0
   -2.4377   -0.2867    0.2337 C   0  0  0  0  0  0  0  0  0  0  0  0
   -0.3662   -1.0792   -0.5310 C   0  0  0  0  0  0  0  0  0  0  0  0
    0.0257    2.3952   -0.1273 N   0  0  0  0  0  0  0  0  0  0  0  0
    1.3183    0.7869   -0.7730 N   0  0  0  0  0  0  0  0  0  0  0  0
    1.2707    2.1144   -0.5573 C   0  0  0  0  0  0  0  0  0  0  0  0
    2.4241   -0.0315   -1.2409 C   0  0  0  0  0  0  0  0  0  0  0  0
   -3.6387   -0.5713    0.5645 O   0  0  0  0  0  0  0  0  0  0  0  0
    0.3818   -2.0249   -0.9068 O   0  0  0  0  0  0  0  0  0  0  0  0
    3.1633   -0.4721   -0.0292 C   0  0  0  0  0  0  0  0  0  0  0  0
    2.8007   -0.1323    1.1455 O   0  0  0  0  0  0  0  0  0  0  0  0
   -2.8685    2.0567    0.7223 C   0  0  0  0  0  0  0  0  0  0  0  0
   -2.1112   -2.6784   -0.2297 C   0  0  0  0  0  0  0  0  0  0  0  0
    4.2815   -1.2811   -0.2371 O   0  0  0  0  0  0  0  0  0  0  0  0
   -0.8140   -1.2051   -0.1674 C   0  0  0  0  0  0  0  0  0  0  0  0
    0.1912   -0.3044    0.1287 C   0  0  0  0  0  0  0  0  0  0  0  0
   -2.1033   -0.8056   -0.1164 N   0  0  0  0  0  0  0  0  0  0  0  0
   -1.4685    1.3368    0.5066 N   0  0  0  0  0  0  0  0  0  0  0  0
   -2.4619    0.4484    0.2145 C   0  0  0  0  0  0  0  0  0  0  0  0
   -0.1819    0.9786    0.4669 C   0  0  0  0  0  0  0  0  0  0  0  0
   -0.1906   -2.3687   -0.4610 N   0  0  0  0  0  0  0  0  0  0  0  0
    1.3927   -0.8890    0.0223 N   0  0  0  0  0  0  0  0  0  0  0  0
    1.1462   -2.1671   -0.3433 C   0  0  0  0  0  0  0  0  0  0  0  0
    2.6473   -0.2250    0.2643 C   0  0  0  0  0  0  0  0  0  0  0  0
   -3.6826    0.7915    0.2531 O   0  0  0  0  0  0  0  0  0  0  0  0
    0.6977    1.8423    0.7469 O   0  0  0  0  0  0  0  0  0  0  0  0
    3.1360    0.3730   -0.9972 C   0  0  0  0  0  0  0  0  0  0  0  0
    4.2416    1.0072   -0.9796 O   0  0  0  0  0  0  0  0  0  0  0  0
   -3.1325   -1.7770   -0.4332 C   0  0  0  0  0  0  0  0  0  0  0  0
   -1.8866    2.6738    0.8578 C   0  0  0  0  0  0  0  0  0  0  0  0
    2.4692    0.2901   -2.2045 O   0  0  0  0  0  0  0  0  0  0  0  0
    0.9412    0.8825    0.3885 N   0  0  0  0  0  0  0  0  0  0  0  0
   -0.9492   -0.8859    0.4062 N   0  0  0  0  0  0  0  0  0  0  0  0
   -0.2709    1.4146   -0.1602 C   0  0  0  0  0  0  0  0  0  0  0  0
   -1.3236    0.3421   -0.2345 C   0  0  0  0  0  0  0  0  0  0  0  0
    1.3443   -0.3590   -0.2164 C   0  0  0  0  0  0  0  0  0  0  0  0
    0.2582   -1.3944   -0.1835 C   0  0  0  0  0  0  0  0  0  0  0  0
  2  1  2  0
  3  1  1  0
  4  5  1  0
  5  3  1  0
  6  2  1  0
  7  1  1  0
  8  2  1  0
  9  7  2  0
 10  8  1  0
 11  5  2  0
 12  6  2  0
 13 10  1  0
 14 13  2  0
 15  3  1  0
 16  4  1  0
 17 13  1  0
  6  4  1  0
  8  9  1  0
 19 18  2  0
 20 18  1  0
 21 22  1  0
 22 20  1  0
 23 19  1  0
 24 18  1  0
 25 19  1  0
 26 24  2  0
 27 25  1  0
 28 22  2  0
 29 23  2  0
 30 27  1  0
 31 30  2  0
 32 20  1  0
 33 21  1  0
 34 30  1  0
 23 21  1  0
 25 26  1  0
 36 40  1  0
 37 35  1  0
 38 37  1  0
 39 35  1  0
 40 39  1  0
 38 36  1  0
M  END
