
     RDKit          3D

 70 72  0  0  0  0  0  0  0  0999 V2000
   -0.2665   -1.2323   -0.5379 C   0  0  0  0  0  0  0  0  0  0  0  0
    0.3154   -0.0189   -0.3310 C   0  0  0  0  0  0  0  0  0  0  0  0
   -1.6089   -1.4360   -0.3286 N   0  0  0  0  0  0  0  0  0  0  0  0
   -1.7627    0.8669    0.3092 N   0  0  0  0  0  0  0  0  0  0  0  0
   -2.3938   -0.3837    0.1445 C   0  0  0  0  0  0  0  0  0  0  0  0
   -0.4037    1.1232    0.1147 C   0  0  0  0  0  0  0  0  0  0  0  0
    0.6349   -2.1641   -0.9562 N   0  0  0  0  0  0  0  0  0  0  0  0
    1.6379   -0.2054   -0.6226 N   0  0  0  0  0  0  0  0  0  0  0  0
    1.7834   -1.5182   -0.9930 C   0  0  0  0  0  0  0  0  0  0  0  0
    2.6929    0.7907   -0.5934 C   0  0  0  0  0  0  0  0  0  0  0  0
   -3.5898   -0.5333    0.4116 O   0  0  0  0  0  0  0  0  0  0  0  0
    0.1356    2.2098    0.3020 O   0  0  0  0  0  0  0  0  0  0  0  0
    3.1969    1.0522    0.7990 C   0  0  0  0  0  0  0  0  0  0  0  0
    2.9501    0.4237    1.8146 O   0  0  0  0  0  0  0  0  0  0  0  0
   -2.1864   -2.7533   -0.5159 C   0  0  0  0  0  0  0  0  0  0  0  0
   -2.5948    1.9513    0.7909 C   0  0  0  0  0  0  0  0  0  0  0  0
    4.0567    2.0933    0.8395 O   0  0  0  0  0  0  0  0  0  0  0  0
   -0.8153   -1.0514    0.3378 C   0  0  0  0  0  0  0  0  0  0  0  0
    0.2251   -0.1732    0.3584 C   0  0  0  0  0  0  0  0  0  0  0  0
   -2.0739   -0.6720   -0.0602 N   0  0  0  0  0  0  0  0  0  0  0  0
   -1.1853    1.5167   -0.4588 N   0  0  0  0  0  0  0  0  0  0  0  0
   -2.2859    0.6357   -0.4995 C   0  0  0  0  0  0  0  0  0  0  0  0
    0.1047    1.1865   -0.0376 C   0  0  0  0  0  0  0  0  0  0  0  0
   -0.4401   -2.2930    0.7532 N   0  0  0  0  0  0  0  0  0  0  0  0
    1.2944   -0.8999    0.8021 N   0  0  0  0  0  0  0  0  0  0  0  0
    0.8450   -2.1765    1.0220 C   0  0  0  0  0  0  0  0  0  0  0  0
    2.6427   -0.4207    1.0423 C   0  0  0  0  0  0  0  0  0  0  0  0
   -3.3880    1.0140   -0.9085 O   0  0  0  0  0  0  0  0  0  0  0  0
    1.0499    1.9685    0.0003 O   0  0  0  0  0  0  0  0  0  0  0  0
    3.4394   -0.2877   -0.2263 C   0  0  0  0  0  0  0  0  0  0  0  0
    3.1467   -0.6919   -1.3392 O   0  0  0  0  0  0  0  0  0  0  0  0
   -3.1542   -1.6396   -0.1047 C   0  0  0  0  0  0  0  0  0  0  0  0
   -1.4312    2.8715   -0.9125 C   0  0  0  0  0  0  0  0  0  0  0  0
    4.6251    0.3256   -0.0198 O   0  0  0  0  0  0  0  0  0  0  0  0
   -0.3050   -1.4506   -0.1076 N   0  0  0  0  0  0  0  0  0  0  0  0
    0.3049    1.4503    0.1074 N   0  0  0  0  0  0  0  0  0  0  0  0
    0.9119   -0.8578   -0.6897 C   0  0  0  0  0  0  0  0  0  0  0  0
    1.3630    0.4272    0.0374 C   0  0  0  0  0  0  0  0  0  0  0  0
   -1.3630   -0.4273   -0.0375 C   0  0  0  0  0  0  0  0  0  0  0  0
   -0.9118    0.8576    0.6900 C   0  0  0  0  0  0  0  0  0  0  0  0
    2.7357   -1.9487   -1.2780 H   0  0  0  0  0  0  0  0  0  0  0  0
    2.2984    1.7100   -1.0349 H   0  0  0  0  0  0  0  0  0  0  0  0
    3.5203    0.4237   -1.2087 H   0  0  0  0  0  0  0  0  0  0  0  0
   -3.2792   -2.7142   -0.5339 H   0  0  0  0  0  0  0  0  0  0  0  0
   -1.8716   -3.3957    0.3130 H   0  0  0  0  0  0  0  0  0  0  0  0
   -1.8392   -3.1775   -1.4638 H   0  0  0  0  0  0  0  0  0  0  0  0
   -2.8273    1.7671    1.8445 H   0  0  0  0  0  0  0  0  0  0  0  0
   -2.1032    2.9231    0.6996 H   0  0  0  0  0  0  0  0  0  0  0  0
   -3.5320    1.9791    0.2264 H   0  0  0  0  0  0  0  0  0  0  0  0
    4.3009    2.1672    1.7883 H   0  0  0  0  0  0  0  0  0  0  0  0
    1.4856   -2.9745    1.3761 H   0  0  0  0  0  0  0  0  0  0  0  0
    3.1419   -1.1357    1.7038 H   0  0  0  0  0  0  0  0  0  0  0  0
    2.5676    0.5461    1.5483 H   0  0  0  0  0  0  0  0  0  0  0  0
   -3.0405   -2.2472   -1.0078 H   0  0  0  0  0  0  0  0  0  0  0  0
   -3.1179   -2.2839    0.7787 H   0  0  0  0  0  0  0  0  0  0  0  0
   -4.1287   -1.1448   -0.1333 H   0  0  0  0  0  0  0  0  0  0  0  0
   -1.7730    2.8409   -1.9526 H   0  0  0  0  0  0  0  0  0  0  0  0
   -2.2243    3.3137   -0.3010 H   0  0  0  0  0  0  0  0  0  0  0  0
   -0.5423    3.5033   -0.8494 H   0  0  0  0  0  0  0  0  0  0  0  0
    5.0325    0.3695   -0.9119 H   0  0  0  0  0  0  0  0  0  0  0  0
   -0.0849   -1.7354    0.8478 H   0  0  0  0  0  0  0  0  0  0  0  0
    0.0846    1.7354   -0.8478 H   0  0  0  0  0  0  0  0  0  0  0  0
    0.7346   -0.6423   -1.7507 H   0  0  0  0  0  0  0  0  0  0  0  0
    1.7180   -1.5988   -0.6497 H   0  0  0  0  0  0  0  0  0  0  0  0
    1.6947    0.1830    1.0542 H   0  0  0  0  0  0  0  0  0  0  0  0
    2.2286    0.8523   -0.4823 H   0  0  0  0  0  0  0  0  0  0  0  0
   -1.6948   -0.1824   -1.0541 H   0  0  0  0  0  0  0  0  0  0  0  0
   -2.2289   -0.8522    0.4819 H   0  0  0  0  0  0  0  0  0  0  0  0
   -1.7177    1.5987    0.6495 H   0  0  0  0  0  0  0  0  0  0  0  0
   -0.7340    0.6424    1.7510 H   0  0  0  0  0  0  0  0  0  0  0  0
  2  1  2  0
  3  1  1  0
  4  5  1  0
  5  3  1  0
  6  2  1  0
  7  1  1  0
  8  2  1  0
  9  7  2  0
 10  8  1  0
 11  5  2  0
 12  6  2  0
 13 10  1  0
 14 13  2  0
 15  3  1  0
 16  4  1  0
 17 13  1  0
  6  4  1  0
  8  9  1  0
 19 18  2  0
 20 18  1  0
 21 22  1  0
 22 20  1  0
 23 19  1  0
 24 18  1  0
 25 19  1  0
 26 24  2  0
 27 25  1  0
 28 22  2  0
 29 23  2  0
 30 27  1  0
 31 30  2  0
 32 20  1  0
 33 21  1  0
 34 30  1  0
 23 21  1  0
 25 26  1  0
 36 40  1  0
 37 35  1  0
 38 37  1  0
 39 35  1  0
 40 39  1  0
 38 36  1  0
  9 41  1  0
 10 42  1  0
 10 43  1  0
 15 44  1  0
 15 45  1  0
 15 46  1  0
 16 47  1  0
 16 48  1  0
 16 49  1  0
 17 50  1  0
 26 51  1  0
 27 52  1  0
 27 53  1  0
 32 54  1  0
 32 55  1  0
 32 56  1  0
 33 57  1  0
 33 58  1  0
 33 59  1  0
 34 60  1  0
 35 61  1  0
 36 62  1  0
 37 63  1  0
 37 64  1  0
 38 65  1  0
 38 66  1  0
 39 67  1  0
 39 68  1  0
 40 69  1  0
 40 70  1  0
M  END
$$$$
