
     RDKit          2D

 40 42  0  0  0  0  0  0  0  0999 V2000
   -7.6342   -0.7569    0.0000 C   0  0  0  0  0  0  0  0  0  0  0  0
   -7.6342    0.0909    0.0000 C   0  0  0  0  0  0  0  0  0  0  0  0
   -8.3619   -1.1574    0.0000 N   0  0  0  0  0  0  0  0  0  0  0  0
   -9.0862    0.0709    0.0000 N   0  0  0  0  0  0  0  0  0  0  0  0
   -9.0862   -0.7302    0.0000 C   0  0  0  0  0  0  0  0  0  0  0  0
   -8.3619    0.4915    0.0000 C   0  0  0  0  0  0  0  0  0  0  0  0
   -6.8531   -1.0072    0.0000 N   0  0  0  0  0  0  0  0  0  0  0  0
   -6.8531    0.3446    0.0000 N   0  0  0  0  0  0  0  0  0  0  0  0
   -6.3825   -0.3297    0.0000 C   0  0  0  0  0  0  0  0  0  0  0  0
   -6.5794    1.1457    0.0000 C   0  0  0  0  0  0  0  0  0  0  0  0
   -9.8439   -1.1308    0.0000 O   0  0  0  0  0  0  0  0  0  0  0  0
   -8.3719    1.2726    0.0000 O   0  0  0  0  0  0  0  0  0  0  0  0
   -5.7583    1.3226    0.0000 C   0  0  0  0  0  0  0  0  0  0  0  0
   -5.5079    2.1237    0.0000 O   0  0  0  0  0  0  0  0  0  0  0  0
   -8.3719   -1.9619    0.0000 C   0  0  0  0  0  0  0  0  0  0  0  0
   -9.8439    0.4915    0.0000 C   0  0  0  0  0  0  0  0  0  0  0  0
   -5.2008    0.7218    0.0000 O   0  0  0  0  0  0  0  0  0  0  0  0
   -1.1216   -0.7811    0.0000 C   0  0  0  0  0  0  0  0  0  0  0  0
   -1.1216    0.0667    0.0000 C   0  0  0  0  0  0  0  0  0  0  0  0
   -1.8492   -1.1816    0.0000 N   0  0  0  0  0  0  0  0  0  0  0  0
   -2.5736    0.0467    0.0000 N   0  0  0  0  0  0  0  0  0  0  0  0
   -2.5736   -0.7544    0.0000 C   0  0  0  0  0  0  0  0  0  0  0  0
   -1.8492    0.4673    0.0000 C   0  0  0  0  0  0  0  0  0  0  0  0
   -0.3405   -1.0314    0.0000 N   0  0  0  0  0  0  0  0  0  0  0  0
   -0.3405    0.3204    0.0000 N   0  0  0  0  0  0  0  0  0  0  0  0
    0.1302   -0.3538    0.0000 C   0  0  0  0  0  0  0  0  0  0  0  0
   -0.0667    1.1216    0.0000 C   0  0  0  0  0  0  0  0  0  0  0  0
   -3.3313   -1.1550    0.0000 O   0  0  0  0  0  0  0  0  0  0  0  0
   -1.8592    1.2484    0.0000 O   0  0  0  0  0  0  0  0  0  0  0  0
    0.7544    1.2984    0.0000 C   0  0  0  0  0  0  0  0  0  0  0  0
    1.0048    2.0995    0.0000 O   0  0  0  0  0  0  0  0  0  0  0  0
   -1.8592   -1.9861    0.0000 C   0  0  0  0  0  0  0  0  0  0  0  0
   -3.3313    0.4673    0.0000 C   0  0  0  0  0  0  0  0  0  0  0  0
    1.3118    0.6976    0.0000 O   0  0  0  0  0  0  0  0  0  0  0  0
    3.3881   -1.5221    0.0000 N   0  0  0  0  0  0  0  0  0  0  0  0
    1.9461   -1.5856    0.0000 N   0  0  0  0  0  0  0  0  0  0  0  0
    3.0376   -2.2231    0.0000 C   0  0  0  0  0  0  0  0  0  0  0  0
    2.3132   -2.2231    0.0000 C   0  0  0  0  0  0  0  0  0  0  0  0
    3.0476   -0.8812    0.0000 C   0  0  0  0  0  0  0  0  0  0  0  0
    2.2865   -0.8812    0.0000 C   0  0  0  0  0  0  0  0  0  0  0  0
  2  1  2  0
  3  1  1  0
  4  5  1  0
  5  3  1  0
  6  2  1  0
  7  1  1  0
  8  2  1  0
  9  7  2  0
 10  8  1  0
 11  5  2  0
 12  6  2  0
 13 10  1  0
 14 13  2  0
 15  3  1  0
 16  4  1  0
 17 13  1  0
  6  4  1  0
  8  9  1  0
 19 18  2  0
 20 18  1  0
 21 22  1  0
 22 20  1  0
 23 19  1  0
 24 18  1  0
 25 19  1  0
 26 24  2  0
 27 25  1  0
 28 22  2  0
 29 23  2  0
 30 27  1  0
 31 30  2  0
 32 20  1  0
 33 21  1  0
 34 30  1  0
 23 21  1  0
 25 26  1  0
 36 40  1  0
 37 35  1  0
 38 37  1  0
 39 35  1  0
 40 39  1  0
 38 36  1  0
M  END
> <chembl_id>
CHEMBL2106660

> <chembl_pref_name>
ACEFYLLINE PIPERAZINE
