
     RDKit          3D

 70 72  0  0  0  0  0  0  0  0999 V2000
   -0.5280   -1.1991    0.1784 C   0  0  0  0  0  0  0  0  0  0  0  0
    0.3234   -0.2274   -0.2510 C   0  0  0  0  0  0  0  0  0  0  0  0
   -1.8514   -0.9390    0.4399 N   0  0  0  0  0  0  0  0  0  0  0  0
   -1.4317    1.3311   -0.1981 N   0  0  0  0  0  0  0  0  0  0  0  0
   -2.3409    0.3561    0.2644 C   0  0  0  0  0  0  0  0  0  0  0  0
   -0.0754    1.1202   -0.4584 C   0  0  0  0  0  0  0  0  0  0  0  0
    0.0969   -2.4023    0.3068 N   0  0  0  0  0  0  0  0  0  0  0  0
    1.5332   -0.8492   -0.3871 N   0  0  0  0  0  0  0  0  0  0  0  0
    1.3465   -2.1626   -0.0378 C   0  0  0  0  0  0  0  0  0  0  0  0
    2.7758   -0.2672   -0.8646 C   0  0  0  0  0  0  0  0  0  0  0  0
   -3.5170    0.6475    0.5017 O   0  0  0  0  0  0  0  0  0  0  0  0
    0.7094    1.9896   -0.8253 O   0  0  0  0  0  0  0  0  0  0  0  0
    3.5136    0.5579    0.1540 C   0  0  0  0  0  0  0  0  0  0  0  0
    4.5160    1.2178   -0.0811 O   0  0  0  0  0  0  0  0  0  0  0  0
   -2.7225   -2.0017    0.9088 C   0  0  0  0  0  0  0  0  0  0  0  0
   -1.9593    2.6702   -0.3718 C   0  0  0  0  0  0  0  0  0  0  0  0
    3.0385    0.4970    1.4115 O   0  0  0  0  0  0  0  0  0  0  0  0
   -0.5961   -1.1341   -0.5144 C   0  0  0  0  0  0  0  0  0  0  0  0
    0.2570   -0.0843   -0.3635 C   0  0  0  0  0  0  0  0  0  0  0  0
   -1.9132   -1.0578   -0.1309 N   0  0  0  0  0  0  0  0  0  0  0  0
   -1.4878    1.1977    0.5504 N   0  0  0  0  0  0  0  0  0  0  0  0
   -2.3915    0.1206    0.4473 C   0  0  0  0  0  0  0  0  0  0  0  0
   -0.1359    1.1609    0.1948 C   0  0  0  0  0  0  0  0  0  0  0  0
    0.0211   -2.2147   -1.0680 N   0  0  0  0  0  0  0  0  0  0  0  0
    1.4601   -0.5335   -0.8310 N   0  0  0  0  0  0  0  0  0  0  0  0
    1.2686   -1.8272   -1.2441 C   0  0  0  0  0  0  0  0  0  0  0  0
    2.7007    0.2139   -0.9221 C   0  0  0  0  0  0  0  0  0  0  0  0
   -3.5537    0.2168    0.8520 O   0  0  0  0  0  0  0  0  0  0  0  0
    0.6442    2.0977    0.3411 O   0  0  0  0  0  0  0  0  0  0  0  0
    3.3993    0.3335    0.4048 C   0  0  0  0  0  0  0  0  0  0  0  0
    3.1327   -0.2437    1.4454 O   0  0  0  0  0  0  0  0  0  0  0  0
   -2.7810   -2.2118   -0.2798 C   0  0  0  0  0  0  0  0  0  0  0  0
   -1.9631    2.4308    1.1468 C   0  0  0  0  0  0  0  0  0  0  0  0
    4.4603    1.1667    0.3456 O   0  0  0  0  0  0  0  0  0  0  0  0
   -0.4128   -1.4232    0.1074 N   0  0  0  0  0  0  0  0  0  0  0  0
    0.4127    1.4235   -0.1091 N   0  0  0  0  0  0  0  0  0  0  0  0
    0.9075   -1.0245   -0.4113 C   0  0  0  0  0  0  0  0  0  0  0  0
    1.3815    0.3399    0.1337 C   0  0  0  0  0  0  0  0  0  0  0  0
   -1.3819   -0.3394   -0.1333 C   0  0  0  0  0  0  0  0  0  0  0  0
   -0.9073    1.0252    0.4113 C   0  0  0  0  0  0  0  0  0  0  0  0
    2.1438   -2.8956   -0.0538 H   0  0  0  0  0  0  0  0  0  0  0  0
    3.4261   -1.0894   -1.1802 H   0  0  0  0  0  0  0  0  0  0  0  0
    2.5362    0.3517   -1.7340 H   0  0  0  0  0  0  0  0  0  0  0  0
   -2.3337   -2.3902    1.8553 H   0  0  0  0  0  0  0  0  0  0  0  0
   -3.7449   -1.6503    1.0699 H   0  0  0  0  0  0  0  0  0  0  0  0
   -2.7427   -2.8031    0.1638 H   0  0  0  0  0  0  0  0  0  0  0  0
   -2.2478    3.0626    0.6092 H   0  0  0  0  0  0  0  0  0  0  0  0
   -2.8520    2.6286   -1.0046 H   0  0  0  0  0  0  0  0  0  0  0  0
   -1.2348    3.3498   -0.8286 H   0  0  0  0  0  0  0  0  0  0  0  0
    3.6225    1.0969    1.9231 H   0  0  0  0  0  0  0  0  0  0  0  0
    2.0607   -2.4364   -1.6618 H   0  0  0  0  0  0  0  0  0  0  0  0
    2.4626    1.2057   -1.3174 H   0  0  0  0  0  0  0  0  0  0  0  0
    3.3581   -0.3066   -1.6261 H   0  0  0  0  0  0  0  0  0  0  0  0
   -2.7533   -2.5529   -1.3198 H   0  0  0  0  0  0  0  0  0  0  0  0
   -3.8166   -1.9784   -0.0186 H   0  0  0  0  0  0  0  0  0  0  0  0
   -2.4245   -3.0103    0.3788 H   0  0  0  0  0  0  0  0  0  0  0  0
   -1.5892    2.4827    2.1754 H   0  0  0  0  0  0  0  0  0  0  0  0
   -3.0547    2.4930    1.1597 H   0  0  0  0  0  0  0  0  0  0  0  0
   -1.5707    3.2895    0.5913 H   0  0  0  0  0  0  0  0  0  0  0  0
    4.8063    1.1822    1.2640 H   0  0  0  0  0  0  0  0  0  0  0  0
   -0.3262   -1.5432    1.1174 H   0  0  0  0  0  0  0  0  0  0  0  0
    0.3247    1.5398   -1.1192 H   0  0  0  0  0  0  0  0  0  0  0  0
    0.8703   -0.9950   -1.5073 H   0  0  0  0  0  0  0  0  0  0  0  0
    1.6381   -1.7953   -0.1421 H   0  0  0  0  0  0  0  0  0  0  0  0
    2.3333    0.6070   -0.3385 H   0  0  0  0  0  0  0  0  0  0  0  0
    1.5744    0.2639    1.2110 H   0  0  0  0  0  0  0  0  0  0  0  0
   -1.5755   -0.2640   -1.2104 H   0  0  0  0  0  0  0  0  0  0  0  0
   -2.3334   -0.6067    0.3395 H   0  0  0  0  0  0  0  0  0  0  0  0
   -1.6380    1.7965    0.1435 H   0  0  0  0  0  0  0  0  0  0  0  0
   -0.8673    0.9956    1.5073 H   0  0  0  0  0  0  0  0  0  0  0  0
  2  1  2  0
  3  1  1  0
  4  5  1  0
  5  3  1  0
  6  2  1  0
  7  1  1  0
  8  2  1  0
  9  7  2  0
 10  8  1  0
 11  5  2  0
 12  6  2  0
 13 10  1  0
 14 13  2  0
 15  3  1  0
 16  4  1  0
 17 13  1  0
  6  4  1  0
  8  9  1  0
 19 18  2  0
 20 18  1  0
 21 22  1  0
 22 20  1  0
 23 19  1  0
 24 18  1  0
 25 19  1  0
 26 24  2  0
 27 25  1  0
 28 22  2  0
 29 23  2  0
 30 27  1  0
 31 30  2  0
 32 20  1  0
 33 21  1  0
 34 30  1  0
 23 21  1  0
 25 26  1  0
 36 40  1  0
 37 35  1  0
 38 37  1  0
 39 35  1  0
 40 39  1  0
 38 36  1  0
  9 41  1  0
 10 42  1  0
 10 43  1  0
 15 44  1  0
 15 45  1  0
 15 46  1  0
 16 47  1  0
 16 48  1  0
 16 49  1  0
 17 50  1  0
 26 51  1  0
 27 52  1  0
 27 53  1  0
 32 54  1  0
 32 55  1  0
 32 56  1  0
 33 57  1  0
 33 58  1  0
 33 59  1  0
 34 60  1  0
 35 61  1  0
 36 62  1  0
 37 63  1  0
 37 64  1  0
 38 65  1  0
 38 66  1  0
 39 67  1  0
 39 68  1  0
 40 69  1  0
 40 70  1  0
M  END
$$$$
