
     RDKit          3D

104110  0  0  0  0  0  0  0  0999 V2000
   33.6966   13.5882   26.3419 C   0  0  0  0  0  0  0  0  0  0  0  0
   35.1222   13.1663   26.0133 C   0  0  0  0  0  0  0  0  0  0  0  0
   34.9636   11.7181   25.5623 C   0  0  0  0  0  0  0  0  0  0  0  0
   33.8529   11.1380   26.4502 C   0  0  2  0  0  0  0  0  0  0  0  0
   33.1560   12.3647   27.0918 C   0  0  2  0  0  0  0  0  0  0  0  0
   34.4375   10.3969   27.5347 O   0  0  0  0  0  0  0  0  0  0  0  0
   33.8358    9.2344   27.8543 C   0  0  0  0  0  0  0  0  0  0  0  0
   34.1915    8.9265   29.1291 N   0  0  0  0  0  0  0  0  0  0  0  0
   33.0874    8.5902   27.1431 O   0  0  0  0  0  0  0  0  0  0  0  0
   33.5363    7.8623   29.8828 C   0  0  2  0  0  0  0  0  0  0  0  0
   32.3988    8.5024   30.7308 C   0  0  0  0  0  0  0  0  0  0  0  0
   34.5584    7.0368   30.7520 C   0  0  0  0  0  0  0  0  0  0  0  0
   35.5274    7.9288   31.5608 C   0  0  0  0  0  0  0  0  0  0  0  0
   35.4042    6.1380   29.8145 C   0  0  0  0  0  0  0  0  0  0  0  0
   33.8174    6.1089   31.7440 C   0  0  0  0  0  0  0  0  0  0  0  0
   32.6015    9.1777   31.7379 O   0  0  0  0  0  0  0  0  0  0  0  0
   31.1153    8.3110   30.2118 N   0  0  0  0  0  0  0  0  0  0  0  0
   29.1356    9.5027   29.4964 C   0  0  1  0  0  0  0  0  0  0  0  0
   30.6509    9.3189   29.2633 C   0  0  0  0  0  0  0  0  0  0  0  0
   30.0422    8.0628   31.1767 C   0  0  1  0  0  0  0  0  0  0  0  0
   29.0515    9.2026   31.0012 C   0  0  0  0  0  0  0  0  0  0  0  0
   28.7633   10.8354   29.1235 O   0  0  0  0  0  0  0  0  0  0  0  0
   27.4119   11.0329   29.1530 C   0  0  0  0  0  0  0  0  0  0  0  0
   26.8530   11.0467   30.3794 N   0  0  0  0  0  0  0  0  0  0  0  0
   25.5392   11.2950   30.4564 C   0  0  0  0  0  0  0  0  0  0  0  0
   24.7843   11.5776   29.2992 C   0  0  0  0  0  0  0  0  0  0  0  0
   25.3594   11.6102   28.0789 N   0  0  0  0  0  0  0  0  0  0  0  0
   26.6937   11.3234   28.0021 C   0  0  0  0  0  0  0  0  0  0  0  0
   23.4226   11.8237   29.4356 C   0  0  0  0  0  0  0  0  0  0  0  0
   22.7953   11.8066   30.6845 C   0  0  0  0  0  0  0  0  0  0  0  0
   23.5419   11.5265   31.8207 C   0  0  0  0  0  0  0  0  0  0  0  0
   24.9098   11.2839   31.6963 C   0  0  0  0  0  0  0  0  0  0  0  0
   27.3452   11.2117   26.6296 C   0  0  0  0  0  0  0  0  0  0  0  0
   28.5724   12.0814   26.4432 C   0  0  0  0  0  0  0  0  0  0  0  0
   29.7806   11.6233   26.0798 C   0  0  0  0  0  0  0  0  0  0  0  0
   31.0158   12.4636   25.9634 C   0  0  0  0  0  0  0  0  0  0  0  0
   31.7466   12.2492   27.1628 O   0  0  0  0  0  0  0  0  0  0  0  0
   26.4797   11.5497   25.6237 F   0  0  0  0  0  0  0  0  0  0  0  0
   27.6705    9.9057   26.3633 F   0  0  0  0  0  0  0  0  0  0  0  0
   29.4486    6.7057   30.7666 C   0  0  0  0  0  0  0  0  0  0  0  0
   30.1785    5.6046   31.1644 N   0  0  0  0  0  0  0  0  0  0  0  0
   28.4532    6.5764   30.0521 O   0  0  0  0  0  0  0  0  0  0  0  0
   29.8200    4.2689   30.7126 C   0  0  2  0  0  0  0  0  0  0  0  0
   30.9446    3.3196   30.3134 C   0  0  0  0  0  0  0  0  0  0  0  0
   30.0996    3.9367   29.2428 C   0  0  1  0  0  0  0  0  0  0  0  0
   28.5783    3.6814   31.3533 C   0  0  0  0  0  0  0  0  0  0  0  0
   27.3891    4.3714   31.0657 N   0  0  0  0  0  0  0  0  0  0  0  0
   28.6252    2.6837   32.0545 O   0  0  0  0  0  0  0  0  0  0  0  0
   26.3203    4.7017   32.2950 S   0  0  0  0  0  0  0  0  0  0  0  0
   25.4860    3.1730   32.7669 C   0  0  0  0  0  0  0  0  0  0  0  0
   25.3092    5.5565   31.7112 O   0  0  0  0  0  0  0  0  0  0  0  0
   27.1151    5.1815   33.4111 O   0  0  0  0  0  0  0  0  0  0  0  0
   24.8099    2.4980   31.6276 C   0  0  0  0  0  0  0  0  0  0  0  0
   26.1018    2.3940   33.8938 C   0  0  0  0  0  0  0  0  0  0  0  0
   24.8612    3.2060   34.1352 C   0  0  0  0  0  0  0  0  0  0  0  0
   29.1968    3.0879   28.4232 C   0  0  0  0  0  0  0  0  0  0  0  0
   29.8070    2.8369   27.2330 F   0  0  0  0  0  0  0  0  0  0  0  0
   29.0019    1.8842   29.0183 F   0  0  0  0  0  0  0  0  0  0  0  0
   33.6566   14.4922   26.9650 H   0  0  0  0  0  0  0  0  0  0  0  0
   33.1420   13.7838   25.4174 H   0  0  0  0  0  0  0  0  0  0  0  0
   35.7389   13.2072   26.9168 H   0  0  0  0  0  0  0  0  0  0  0  0
   35.5924   13.7867   25.2462 H   0  0  0  0  0  0  0  0  0  0  0  0
   35.8990   11.1601   25.6345 H   0  0  0  0  0  0  0  0  0  0  0  0
   34.6300   11.6953   24.5199 H   0  0  0  0  0  0  0  0  0  0  0  0
   33.1894   10.5096   25.8413 H   0  0  0  0  0  0  0  0  0  0  0  0
   33.4731   12.4378   28.1444 H   0  0  0  0  0  0  0  0  0  0  0  0
   34.6196    9.6933   29.6277 H   0  0  0  0  0  0  0  0  0  0  0  0
   33.0642    7.1668   29.1737 H   0  0  0  0  0  0  0  0  0  0  0  0
   36.1747    8.5317   30.9084 H   0  0  0  0  0  0  0  0  0  0  0  0
   36.1810    7.3067   32.1882 H   0  0  0  0  0  0  0  0  0  0  0  0
   34.9994    8.6153   32.2315 H   0  0  0  0  0  0  0  0  0  0  0  0
   34.7740    5.4288   29.2671 H   0  0  0  0  0  0  0  0  0  0  0  0
   35.9376    6.7384   29.0697 H   0  0  0  0  0  0  0  0  0  0  0  0
   36.1439    5.5557   30.3774 H   0  0  0  0  0  0  0  0  0  0  0  0
   33.2705    6.6777   32.5064 H   0  0  0  0  0  0  0  0  0  0  0  0
   34.5274    5.4595   32.2732 H   0  0  0  0  0  0  0  0  0  0  0  0
   33.1050    5.4592   31.2218 H   0  0  0  0  0  0  0  0  0  0  0  0
   28.5691    8.7733   28.8931 H   0  0  0  0  0  0  0  0  0  0  0  0
   30.8672    9.0005   28.2415 H   0  0  0  0  0  0  0  0  0  0  0  0
   31.1701   10.2666   29.4392 H   0  0  0  0  0  0  0  0  0  0  0  0
   30.4063    8.0010   32.2064 H   0  0  0  0  0  0  0  0  0  0  0  0
   28.0434    8.9275   31.3391 H   0  0  0  0  0  0  0  0  0  0  0  0
   29.3656   10.0786   31.5830 H   0  0  0  0  0  0  0  0  0  0  0  0
   22.8294   12.0119   28.5487 H   0  0  0  0  0  0  0  0  0  0  0  0
   21.7270   12.0133   30.7794 H   0  0  0  0  0  0  0  0  0  0  0  0
   23.0714   11.5001   32.8030 H   0  0  0  0  0  0  0  0  0  0  0  0
   25.5041   11.0699   32.5805 H   0  0  0  0  0  0  0  0  0  0  0  0
   28.4609   13.1351   26.6812 H   0  0  0  0  0  0  0  0  0  0  0  0
   29.9224   10.5734   25.8456 H   0  0  0  0  0  0  0  0  0  0  0  0
   30.7610   13.5288   25.8696 H   0  0  0  0  0  0  0  0  0  0  0  0
   31.5733   12.1299   25.0842 H   0  0  0  0  0  0  0  0  0  0  0  0
   30.8127    5.6908   31.9563 H   0  0  0  0  0  0  0  0  0  0  0  0
   30.8340    2.2582   30.5230 H   0  0  0  0  0  0  0  0  0  0  0  0
   31.9630    3.6574   30.3912 H   0  0  0  0  0  0  0  0  0  0  0  0
   30.5228    4.7351   28.6448 H   0  0  0  0  0  0  0  0  0  0  0  0
   27.4905    5.2002   30.4659 H   0  0  0  0  0  0  0  0  0  0  0  0
   24.0871    3.1520   31.1396 H   0  0  0  0  0  0  0  0  0  0  0  0
   25.5356    2.1611   30.8803 H   0  0  0  0  0  0  0  0  0  0  0  0
   24.2744    1.6071   31.9771 H   0  0  0  0  0  0  0  0  0  0  0  0
   26.0214    1.3140   33.8923 H   0  0  0  0  0  0  0  0  0  0  0  0
   27.0503    2.7369   34.2951 H   0  0  0  0  0  0  0  0  0  0  0  0
   23.9332    2.6696   34.2983 H   0  0  0  0  0  0  0  0  0  0  0  0
   24.9465    4.1063   34.7419 H   0  0  0  0  0  0  0  0  0  0  0  0
   28.2319    3.5695   28.2380 H   0  0  0  0  0  0  0  0  0  0  0  0
  1  2  1  0
  2  3  1  0
  4  3  1  0
  4  5  1  0
  5  1  1  0
  4  6  1  0
  6  7  1  0
  7  8  1  0
  7  9  2  0
  8 10  1  0
 10 11  1  0
 10 12  1  0
 12 13  1  0
 12 14  1  0
 12 15  1  0
 11 16  2  0
 11 17  1  0
 19 17  1  0
 17 20  1  0
 18 19  1  0
 20 21  1  0
 18 21  1  0
 18 22  1  0
 22 23  1  0
 23 24  2  0
 28 23  1  0
 24 25  1  0
 26 27  1  0
 27 28  2  0
 26 29  1  0
 25 26  2  0
 32 25  1  0
 29 30  2  0
 30 31  1  0
 31 32  2  0
 28 33  1  0
 33 34  1  0
 34 35  2  0
 35 36  1  0
 36 37  1  0
  5 37  1  0
 33 38  1  0
 33 39  1  0
 20 40  1  0
 40 41  1  0
 40 42  2  0
 43 41  1  6
 43 44  1  0
 45 43  1  0
 44 45  1  0
 43 46  1  0
 46 47  1  0
 46 48  2  0
 47 49  1  0
 49 50  1  0
 49 51  2  0
 49 52  2  0
 50 53  1  0
 50 54  1  0
 55 50  1  0
 54 55  1  0
 45 56  1  0
 56 57  1  0
 56 58  1  0
  1 59  1  0
  1 60  1  0
  2 61  1  0
  2 62  1  0
  3 63  1  0
  3 64  1  0
  4 65  1  1
  5 66  1  6
  8 67  1  0
 10 68  1  1
 13 69  1  0
 13 70  1  0
 13 71  1  0
 14 72  1  0
 14 73  1  0
 14 74  1  0
 15 75  1  0
 15 76  1  0
 15 77  1  0
 18 78  1  1
 19 79  1  0
 19 80  1  0
 20 81  1  6
 21 82  1  0
 21 83  1  0
 29 84  1  0
 30 85  1  0
 31 86  1  0
 32 87  1  0
 34 88  1  0
 35 89  1  0
 36 90  1  0
 36 91  1  0
 41 92  1  0
 44 93  1  0
 44 94  1  0
 45 95  1  1
 47 96  1  0
 53 97  1  0
 53 98  1  0
 53 99  1  0
 54100  1  0
 54101  1  0
 55102  1  0
 55103  1  0
 56104  1  0
M  END
> <Uni-Dock RESULT> 
ENERGY=   -4.297  LOWER_BOUND=    0.000  UPPER_BOUND=    0.000
INTER + INTRA:          -4.297
INTER:                  -4.297
INTRA:                   0.000
UNBOUND:                 0.000

$$$$

     RDKit          3D

104110  0  0  0  0  0  0  0  0999 V2000
   29.9236   14.3621   26.9484 C   0  0  0  0  0  0  0  0  0  0  0  0
   31.2990   14.4128   26.2972 C   0  0  0  0  0  0  0  0  0  0  0  0
   31.4592   13.0153   25.7080 C   0  0  0  0  0  0  0  0  0  0  0  0
   30.7858   12.0725   26.7161 C   0  0  2  0  0  0  0  0  0  0  0  0
   29.9329   12.9885   27.6301 C   0  0  2  0  0  0  0  0  0  0  0  0
   31.7832   11.4778   27.5638 O   0  0  0  0  0  0  0  0  0  0  0  0
   31.6219   10.1703   27.8465 C   0  0  0  0  0  0  0  0  0  0  0  0
   32.3261    9.9066   28.9784 N   0  0  0  0  0  0  0  0  0  0  0  0
   30.9466    9.3749   27.2203 O   0  0  0  0  0  0  0  0  0  0  0  0
   32.1843    8.6495   29.7063 C   0  0  2  0  0  0  0  0  0  0  0  0
   31.1323    8.8615   30.8336 C   0  0  0  0  0  0  0  0  0  0  0  0
   33.5654    8.1204   30.2484 C   0  0  0  0  0  0  0  0  0  0  0  0
   34.3984    9.2122   30.9575 C   0  0  0  0  0  0  0  0  0  0  0  0
   34.3985    7.5795   29.0585 C   0  0  0  0  0  0  0  0  0  0  0  0
   33.3584    6.9523   31.2418 C   0  0  0  0  0  0  0  0  0  0  0  0
   31.3560    9.5030   31.8582 O   0  0  0  0  0  0  0  0  0  0  0  0
   29.8729    8.3228   30.5557 N   0  0  0  0  0  0  0  0  0  0  0  0
   27.5295    8.9008   30.3962 C   0  0  1  0  0  0  0  0  0  0  0  0
   28.9427    9.1992   29.8502 C   0  0  0  0  0  0  0  0  0  0  0  0
   29.1581    7.7023   31.6729 C   0  0  1  0  0  0  0  0  0  0  0  0
   27.8727    8.4971   31.8387 C   0  0  0  0  0  0  0  0  0  0  0  0
   26.7223   10.0785   30.2733 O   0  0  0  0  0  0  0  0  0  0  0  0
   25.4125    9.8553   30.5909 C   0  0  0  0  0  0  0  0  0  0  0  0
   25.1618    9.6235   31.8948 N   0  0  0  0  0  0  0  0  0  0  0  0
   23.8834    9.4570   32.2576 C   0  0  0  0  0  0  0  0  0  0  0  0
   22.8404    9.5685   31.3150 C   0  0  0  0  0  0  0  0  0  0  0  0
   23.0945    9.8490   30.0198 N   0  0  0  0  0  0  0  0  0  0  0  0
   24.4029    9.9851   29.6482 C   0  0  0  0  0  0  0  0  0  0  0  0
   21.5312    9.3819   31.7447 C   0  0  0  0  0  0  0  0  0  0  0  0
   21.2305    9.0986   33.0800 C   0  0  0  0  0  0  0  0  0  0  0  0
   22.2603    8.9882   34.0041 C   0  0  0  0  0  0  0  0  0  0  0  0
   23.5771    9.1794   33.5853 C   0  0  0  0  0  0  0  0  0  0  0  0
   24.7349   10.1608   28.1720 C   0  0  0  0  0  0  0  0  0  0  0  0
   25.5922   11.3710   27.8597 C   0  0  0  0  0  0  0  0  0  0  0  0
   26.7672   11.3236   27.2127 C   0  0  0  0  0  0  0  0  0  0  0  0
   27.6559   12.5041   26.9633 C   0  0  0  0  0  0  0  0  0  0  0  0
   28.6667   12.4475   27.9603 O   0  0  0  0  0  0  0  0  0  0  0  0
   23.6069   10.2822   27.4051 F   0  0  0  0  0  0  0  0  0  0  0  0
   25.3476    9.0336   27.6856 F   0  0  0  0  0  0  0  0  0  0  0  0
   28.8960    6.2572   31.2200 C   0  0  0  0  0  0  0  0  0  0  0  0
   29.9769    5.4064   31.3262 N   0  0  0  0  0  0  0  0  0  0  0  0
   27.8441    5.8768   30.7034 O   0  0  0  0  0  0  0  0  0  0  0  0
   29.9187    4.0555   30.7894 C   0  0  2  0  0  0  0  0  0  0  0  0
   31.1465    3.5178   30.0624 C   0  0  0  0  0  0  0  0  0  0  0  0
   29.9443    3.9149   29.2635 C   0  0  1  0  0  0  0  0  0  0  0  0
   29.0699    3.0812   31.5817 C   0  0  0  0  0  0  0  0  0  0  0  0
   27.7013    3.3950   31.6209 N   0  0  0  0  0  0  0  0  0  0  0  0
   29.5524    2.1032   32.1295 O   0  0  0  0  0  0  0  0  0  0  0  0
   26.8862    3.3096   33.0669 S   0  0  0  0  0  0  0  0  0  0  0  0
   26.6455    1.5741   33.4974 C   0  0  0  0  0  0  0  0  0  0  0  0
   25.5708    3.8524   32.8038 O   0  0  0  0  0  0  0  0  0  0  0  0
   27.7419    3.9378   34.0573 O   0  0  0  0  0  0  0  0  0  0  0  0
   25.9504    0.7976   32.4368 C   0  0  0  0  0  0  0  0  0  0  0  0
   27.6922    0.9501   34.3755 C   0  0  0  0  0  0  0  0  0  0  0  0
   26.3596    1.3318   34.9545 C   0  0  0  0  0  0  0  0  0  0  0  0
   29.1584    2.8848   28.5364 C   0  0  0  0  0  0  0  0  0  0  0  0
   29.5321    2.9042   27.2280 F   0  0  0  0  0  0  0  0  0  0  0  0
   29.4500    1.6443   29.0025 F   0  0  0  0  0  0  0  0  0  0  0  0
   29.7704   15.1713   27.6756 H   0  0  0  0  0  0  0  0  0  0  0  0
   29.1441   14.4372   26.1821 H   0  0  0  0  0  0  0  0  0  0  0  0
   32.0649   14.5828   27.0606 H   0  0  0  0  0  0  0  0  0  0  0  0
   31.3906   15.1925   25.5370 H   0  0  0  0  0  0  0  0  0  0  0  0
   32.5055   12.7635   25.5255 H   0  0  0  0  0  0  0  0  0  0  0  0
   30.9211   12.9569   24.7565 H   0  0  0  0  0  0  0  0  0  0  0  0
   30.2081   11.3115   26.1748 H   0  0  0  0  0  0  0  0  0  0  0  0
   30.4436   13.0892   28.6012 H   0  0  0  0  0  0  0  0  0  0  0  0
   32.6204   10.7347   29.4758 H   0  0  0  0  0  0  0  0  0  0  0  0
   31.7817    7.8889   29.0216 H   0  0  0  0  0  0  0  0  0  0  0  0
   34.6858   10.0219   30.2719 H   0  0  0  0  0  0  0  0  0  0  0  0
   35.3243    8.7799   31.3620 H   0  0  0  0  0  0  0  0  0  0  0  0
   33.8621    9.6639   31.7991 H   0  0  0  0  0  0  0  0  0  0  0  0
   33.8884    6.7480   28.5604 H   0  0  0  0  0  0  0  0  0  0  0  0
   34.5597    8.3580   28.3051 H   0  0  0  0  0  0  0  0  0  0  0  0
   35.3789    7.2150   29.3885 H   0  0  0  0  0  0  0  0  0  0  0  0
   32.8584    7.2806   32.1615 H   0  0  0  0  0  0  0  0  0  0  0  0
   34.3227    6.5170   31.5364 H   0  0  0  0  0  0  0  0  0  0  0  0
   32.7606    6.1509   30.7917 H   0  0  0  0  0  0  0  0  0  0  0  0
   27.0721    8.0728   29.8287 H   0  0  0  0  0  0  0  0  0  0  0  0
   29.0056    9.0249   28.7742 H   0  0  0  0  0  0  0  0  0  0  0  0
   29.1987   10.2469   30.0386 H   0  0  0  0  0  0  0  0  0  0  0  0
   29.7457    7.6903   32.5955 H   0  0  0  0  0  0  0  0  0  0  0  0
   27.0857    7.9094   32.3299 H   0  0  0  0  0  0  0  0  0  0  0  0
   28.0484    9.3895   32.4530 H   0  0  0  0  0  0  0  0  0  0  0  0
   20.7262    9.4359   31.0215 H   0  0  0  0  0  0  0  0  0  0  0  0
   20.1969    8.9658   33.4070 H   0  0  0  0  0  0  0  0  0  0  0  0
   22.0489    8.7600   35.0481 H   0  0  0  0  0  0  0  0  0  0  0  0
   24.3898    9.1013   34.3023 H   0  0  0  0  0  0  0  0  0  0  0  0
   25.2437   12.3247   28.2451 H   0  0  0  0  0  0  0  0  0  0  0  0
   27.1436   10.3825   26.8256 H   0  0  0  0  0  0  0  0  0  0  0  0
   27.0964   13.4458   27.0554 H   0  0  0  0  0  0  0  0  0  0  0  0
   28.0734   12.4098   25.9574 H   0  0  0  0  0  0  0  0  0  0  0  0
   30.7214    5.6316   31.9833 H   0  0  0  0  0  0  0  0  0  0  0  0
   31.3900    2.4619   30.1548 H   0  0  0  0  0  0  0  0  0  0  0  0
   32.0184    4.1427   29.9813 H   0  0  0  0  0  0  0  0  0  0  0  0
   29.9796    4.8392   28.6992 H   0  0  0  0  0  0  0  0  0  0  0  0
   27.4274    4.2509   31.1215 H   0  0  0  0  0  0  0  0  0  0  0  0
   24.9822    1.2308   32.1855 H   0  0  0  0  0  0  0  0  0  0  0  0
   26.5552    0.7430   31.5259 H   0  0  0  0  0  0  0  0  0  0  0  0
   25.7808   -0.2335   32.7698 H   0  0  0  0  0  0  0  0  0  0  0  0
   27.9219   -0.1012   34.2544 H   0  0  0  0  0  0  0  0  0  0  0  0
   28.5699    1.5387   34.6234 H   0  0  0  0  0  0  0  0  0  0  0  0
   25.6821    0.5305   35.2274 H   0  0  0  0  0  0  0  0  0  0  0  0
   26.3207    2.1764   35.6409 H   0  0  0  0  0  0  0  0  0  0  0  0
   28.0809    3.0620   28.6053 H   0  0  0  0  0  0  0  0  0  0  0  0
  1  2  1  0
  2  3  1  0
  4  3  1  0
  4  5  1  0
  5  1  1  0
  4  6  1  0
  6  7  1  0
  7  8  1  0
  7  9  2  0
  8 10  1  0
 10 11  1  0
 10 12  1  0
 12 13  1  0
 12 14  1  0
 12 15  1  0
 11 16  2  0
 11 17  1  0
 19 17  1  0
 17 20  1  0
 18 19  1  0
 20 21  1  0
 18 21  1  0
 18 22  1  0
 22 23  1  0
 23 24  2  0
 28 23  1  0
 24 25  1  0
 26 27  1  0
 27 28  2  0
 26 29  1  0
 25 26  2  0
 32 25  1  0
 29 30  2  0
 30 31  1  0
 31 32  2  0
 28 33  1  0
 33 34  1  0
 34 35  2  0
 35 36  1  0
 36 37  1  0
  5 37  1  0
 33 38  1  0
 33 39  1  0
 20 40  1  0
 40 41  1  0
 40 42  2  0
 43 41  1  6
 43 44  1  0
 45 43  1  0
 44 45  1  0
 43 46  1  0
 46 47  1  0
 46 48  2  0
 47 49  1  0
 49 50  1  0
 49 51  2  0
 49 52  2  0
 50 53  1  0
 50 54  1  0
 55 50  1  0
 54 55  1  0
 45 56  1  0
 56 57  1  0
 56 58  1  0
  1 59  1  0
  1 60  1  0
  2 61  1  0
  2 62  1  0
  3 63  1  0
  3 64  1  0
  4 65  1  1
  5 66  1  6
  8 67  1  0
 10 68  1  1
 13 69  1  0
 13 70  1  0
 13 71  1  0
 14 72  1  0
 14 73  1  0
 14 74  1  0
 15 75  1  0
 15 76  1  0
 15 77  1  0
 18 78  1  1
 19 79  1  0
 19 80  1  0
 20 81  1  6
 21 82  1  0
 21 83  1  0
 29 84  1  0
 30 85  1  0
 31 86  1  0
 32 87  1  0
 34 88  1  0
 35 89  1  0
 36 90  1  0
 36 91  1  0
 41 92  1  0
 44 93  1  0
 44 94  1  0
 45 95  1  1
 47 96  1  0
 53 97  1  0
 53 98  1  0
 53 99  1  0
 54100  1  0
 54101  1  0
 55102  1  0
 55103  1  0
 56104  1  0
M  END
> <Uni-Dock RESULT> 
ENERGY=   -4.282  LOWER_BOUND=    1.840  UPPER_BOUND=    2.448
INTER + INTRA:          -4.282
INTER:                  -4.282
INTRA:                   0.000
UNBOUND:                 0.000

$$$$

     RDKit          3D

104110  0  0  0  0  0  0  0  0999 V2000
   23.0556   16.1406   30.2100 C   0  0  0  0  0  0  0  0  0  0  0  0
   21.9678   17.1447   29.8539 C   0  0  0  0  0  0  0  0  0  0  0  0
   21.3537   16.5608   28.5861 C   0  0  0  0  0  0  0  0  0  0  0  0
   22.5287   15.9377   27.8182 C   0  0  2  0  0  0  0  0  0  0  0  0
   23.6858   15.8404   28.8446 C   0  0  2  0  0  0  0  0  0  0  0  0
   22.9750   16.8453   26.7963 O   0  0  0  0  0  0  0  0  0  0  0  0
   23.2906   16.2953   25.6075 C   0  0  0  0  0  0  0  0  0  0  0  0
   24.1067   17.1660   24.9575 N   0  0  0  0  0  0  0  0  0  0  0  0
   22.9343   15.2055   25.1996 O   0  0  0  0  0  0  0  0  0  0  0  0
   24.8331   16.7942   23.7475 C   0  0  2  0  0  0  0  0  0  0  0  0
   26.2563   16.3229   24.1657 C   0  0  0  0  0  0  0  0  0  0  0  0
   24.8599   17.9621   22.6908 C   0  0  0  0  0  0  0  0  0  0  0  0
   25.2406   19.3284   23.3048 C   0  0  0  0  0  0  0  0  0  0  0  0
   23.4526   18.0977   22.0557 C   0  0  0  0  0  0  0  0  0  0  0  0
   25.8585   17.6525   21.5500 C   0  0  0  0  0  0  0  0  0  0  0  0
   27.1424   17.0893   24.5383 O   0  0  0  0  0  0  0  0  0  0  0  0
   26.4304   14.9361   24.1562 N   0  0  0  0  0  0  0  0  0  0  0  0
   27.0965   13.0747   25.5500 C   0  0  1  0  0  0  0  0  0  0  0  0
   26.0954   14.2400   25.3948 C   0  0  0  0  0  0  0  0  0  0  0  0
   27.7236   14.4354   23.6860 C   0  0  1  0  0  0  0  0  0  0  0  0
   28.3286   13.6780   24.8573 C   0  0  0  0  0  0  0  0  0  0  0  0
   27.2664   12.7864   26.9434 O   0  0  0  0  0  0  0  0  0  0  0  0
   28.0179   11.6667   27.1622 C   0  0  0  0  0  0  0  0  0  0  0  0
   29.3267   11.7766   26.8596 N   0  0  0  0  0  0  0  0  0  0  0  0
   30.1099   10.7203   27.1134 C   0  0  0  0  0  0  0  0  0  0  0  0
   29.5883    9.5579   27.7181 C   0  0  0  0  0  0  0  0  0  0  0  0
   28.2866    9.4723   28.0632 N   0  0  0  0  0  0  0  0  0  0  0  0
   27.4847   10.5403   27.7718 C   0  0  0  0  0  0  0  0  0  0  0  0
   30.4449    8.4885   27.9551 C   0  0  0  0  0  0  0  0  0  0  0  0
   31.8003    8.5454   27.6186 C   0  0  0  0  0  0  0  0  0  0  0  0
   32.3091    9.6909   27.0222 C   0  0  0  0  0  0  0  0  0  0  0  0
   31.4602   10.7721   26.7852 C   0  0  0  0  0  0  0  0  0  0  0  0
   25.9857   10.4243   28.0170 C   0  0  0  0  0  0  0  0  0  0  0  0
   25.4006   11.5312   28.8711 C   0  0  0  0  0  0  0  0  0  0  0  0
   24.3858   12.3253   28.4955 C   0  0  0  0  0  0  0  0  0  0  0  0
   23.8486   13.4681   29.3023 C   0  0  0  0  0  0  0  0  0  0  0  0
   24.4326   14.6409   28.7525 O   0  0  0  0  0  0  0  0  0  0  0  0
   25.6585    9.2481   28.6371 F   0  0  0  0  0  0  0  0  0  0  0  0
   25.3122   10.3690   26.8229 F   0  0  0  0  0  0  0  0  0  0  0  0
   27.3836   13.5105   22.5065 C   0  0  0  0  0  0  0  0  0  0  0  0
   27.1045   14.1560   21.3195 N   0  0  0  0  0  0  0  0  0  0  0  0
   27.2625   12.2881   22.6018 O   0  0  0  0  0  0  0  0  0  0  0  0
   26.6154   13.4171   20.1656 C   0  0  2  0  0  0  0  0  0  0  0  0
   25.5052   14.0439   19.3290 C   0  0  0  0  0  0  0  0  0  0  0  0
   25.1749   12.8987   20.2349 C   0  0  1  0  0  0  0  0  0  0  0  0
   27.6489   12.5611   19.4608 C   0  0  0  0  0  0  0  0  0  0  0  0
   28.1619   11.5071   20.2347 N   0  0  0  0  0  0  0  0  0  0  0  0
   27.9909   12.7799   18.3100 O   0  0  0  0  0  0  0  0  0  0  0  0
   29.8005   11.2292   20.2499 S   0  0  0  0  0  0  0  0  0  0  0  0
   30.2804   10.4935   18.6738 C   0  0  0  0  0  0  0  0  0  0  0  0
   30.0126   10.2125   21.2576 O   0  0  0  0  0  0  0  0  0  0  0  0
   30.4350   12.5275   20.3890 O   0  0  0  0  0  0  0  0  0  0  0  0
   29.5236    9.2553   18.3499 C   0  0  0  0  0  0  0  0  0  0  0  0
   30.7380   11.4424   17.6032 C   0  0  0  0  0  0  0  0  0  0  0  0
   31.7451   10.6179   18.3533 C   0  0  0  0  0  0  0  0  0  0  0  0
   24.7612   11.5911   19.6635 C   0  0  0  0  0  0  0  0  0  0  0  0
   23.4045   11.5051   19.7265 F   0  0  0  0  0  0  0  0  0  0  0  0
   25.0919   11.5178   18.3496 F   0  0  0  0  0  0  0  0  0  0  0  0
   23.7942   16.5495   30.9131 H   0  0  0  0  0  0  0  0  0  0  0  0
   22.6077   15.2490   30.6627 H   0  0  0  0  0  0  0  0  0  0  0  0
   22.4186   18.1174   29.6329 H   0  0  0  0  0  0  0  0  0  0  0  0
   21.2264   17.2800   30.6453 H   0  0  0  0  0  0  0  0  0  0  0  0
   20.8183   17.3133   28.0041 H   0  0  0  0  0  0  0  0  0  0  0  0
   20.6478   15.7682   28.8544 H   0  0  0  0  0  0  0  0  0  0  0  0
   22.2183   14.9729   27.3956 H   0  0  0  0  0  0  0  0  0  0  0  0
   24.4197   16.6316   28.6224 H   0  0  0  0  0  0  0  0  0  0  0  0
   24.4745   17.8968   25.5494 H   0  0  0  0  0  0  0  0  0  0  0  0
   24.3274   15.9355   23.2823 H   0  0  0  0  0  0  0  0  0  0  0  0
   24.5014   19.6688   24.0436 H   0  0  0  0  0  0  0  0  0  0  0  0
   25.2968   20.0947   22.5191 H   0  0  0  0  0  0  0  0  0  0  0  0
   26.2179   19.3048   23.7990 H   0  0  0  0  0  0  0  0  0  0  0  0
   23.1589   17.1783   21.5379 H   0  0  0  0  0  0  0  0  0  0  0  0
   22.6935   18.2950   22.8202 H   0  0  0  0  0  0  0  0  0  0  0  0
   23.4203   18.9135   21.3233 H   0  0  0  0  0  0  0  0  0  0  0  0
   26.8959   17.6381   21.9066 H   0  0  0  0  0  0  0  0  0  0  0  0
   25.7983   18.4159   20.7629 H   0  0  0  0  0  0  0  0  0  0  0  0
   25.6404   16.6839   21.0849 H   0  0  0  0  0  0  0  0  0  0  0  0
   26.7195   12.1801   25.0260 H   0  0  0  0  0  0  0  0  0  0  0  0
   25.0636   13.8845   25.3582 H   0  0  0  0  0  0  0  0  0  0  0  0
   26.1877   14.9230   26.2455 H   0  0  0  0  0  0  0  0  0  0  0  0
   28.3849   15.2346   23.3388 H   0  0  0  0  0  0  0  0  0  0  0  0
   29.0598   12.9275   24.5287 H   0  0  0  0  0  0  0  0  0  0  0  0
   28.8475   14.3679   25.5350 H   0  0  0  0  0  0  0  0  0  0  0  0
   30.0462    7.5804   28.3916 H   0  0  0  0  0  0  0  0  0  0  0  0
   32.4651    7.7028   27.8209 H   0  0  0  0  0  0  0  0  0  0  0  0
   33.3606    9.7533   26.7445 H   0  0  0  0  0  0  0  0  0  0  0  0
   31.8503   11.6756   26.3246 H   0  0  0  0  0  0  0  0  0  0  0  0
   25.8870   11.7170   29.8242 H   0  0  0  0  0  0  0  0  0  0  0  0
   23.8881   12.1680   27.5443 H   0  0  0  0  0  0  0  0  0  0  0  0
   24.1331   13.3728   30.3598 H   0  0  0  0  0  0  0  0  0  0  0  0
   22.7599   13.4730   29.2033 H   0  0  0  0  0  0  0  0  0  0  0  0
   27.4633   15.0972   21.1717 H   0  0  0  0  0  0  0  0  0  0  0  0
   25.5028   13.8804   18.2539 H   0  0  0  0  0  0  0  0  0  0  0  0
   25.1292   15.0131   19.6057 H   0  0  0  0  0  0  0  0  0  0  0  0
   24.6373   13.1030   21.1532 H   0  0  0  0  0  0  0  0  0  0  0  0
   27.7923   11.4379   21.1916 H   0  0  0  0  0  0  0  0  0  0  0  0
   29.6257    8.5015   19.1305 H   0  0  0  0  0  0  0  0  0  0  0  0
   28.4591    9.4682   18.2075 H   0  0  0  0  0  0  0  0  0  0  0  0
   29.8903    8.8199   17.4124 H   0  0  0  0  0  0  0  0  0  0  0  0
   30.5401   11.2006   16.5663 H   0  0  0  0  0  0  0  0  0  0  0  0
   30.6684   12.5078   17.7992 H   0  0  0  0  0  0  0  0  0  0  0  0
   32.2327    9.8109   17.8180 H   0  0  0  0  0  0  0  0  0  0  0  0
   32.4059   11.1264   19.0538 H   0  0  0  0  0  0  0  0  0  0  0  0
   25.2005   10.7466   20.2031 H   0  0  0  0  0  0  0  0  0  0  0  0
  1  2  1  0
  2  3  1  0
  4  3  1  0
  4  5  1  0
  5  1  1  0
  4  6  1  0
  6  7  1  0
  7  8  1  0
  7  9  2  0
  8 10  1  0
 10 11  1  0
 10 12  1  0
 12 13  1  0
 12 14  1  0
 12 15  1  0
 11 16  2  0
 11 17  1  0
 19 17  1  0
 17 20  1  0
 18 19  1  0
 20 21  1  0
 18 21  1  0
 18 22  1  0
 22 23  1  0
 23 24  2  0
 28 23  1  0
 24 25  1  0
 26 27  1  0
 27 28  2  0
 26 29  1  0
 25 26  2  0
 32 25  1  0
 29 30  2  0
 30 31  1  0
 31 32  2  0
 28 33  1  0
 33 34  1  0
 34 35  2  0
 35 36  1  0
 36 37  1  0
  5 37  1  0
 33 38  1  0
 33 39  1  0
 20 40  1  0
 40 41  1  0
 40 42  2  0
 43 41  1  6
 43 44  1  0
 45 43  1  0
 44 45  1  0
 43 46  1  0
 46 47  1  0
 46 48  2  0
 47 49  1  0
 49 50  1  0
 49 51  2  0
 49 52  2  0
 50 53  1  0
 50 54  1  0
 55 50  1  0
 54 55  1  0
 45 56  1  0
 56 57  1  0
 56 58  1  0
  1 59  1  0
  1 60  1  0
  2 61  1  0
  2 62  1  0
  3 63  1  0
  3 64  1  0
  4 65  1  1
  5 66  1  6
  8 67  1  0
 10 68  1  1
 13 69  1  0
 13 70  1  0
 13 71  1  0
 14 72  1  0
 14 73  1  0
 14 74  1  0
 15 75  1  0
 15 76  1  0
 15 77  1  0
 18 78  1  1
 19 79  1  0
 19 80  1  0
 20 81  1  6
 21 82  1  0
 21 83  1  0
 29 84  1  0
 30 85  1  0
 31 86  1  0
 32 87  1  0
 34 88  1  0
 35 89  1  0
 36 90  1  0
 36 91  1  0
 41 92  1  0
 44 93  1  0
 44 94  1  0
 45 95  1  1
 47 96  1  0
 53 97  1  0
 53 98  1  0
 53 99  1  0
 54100  1  0
 54101  1  0
 55102  1  0
 55103  1  0
 56104  1  0
M  END
> <Uni-Dock RESULT> 
ENERGY=   -3.833  LOWER_BOUND=    6.010  UPPER_BOUND=   11.976
INTER + INTRA:          -3.833
INTER:                  -3.833
INTRA:                   0.000
UNBOUND:                 0.000

$$$$

     RDKit          3D

104110  0  0  0  0  0  0  0  0999 V2000
   28.7276    2.7842   29.8256 C   0  0  0  0  0  0  0  0  0  0  0  0
   30.1123    2.1519   29.8641 C   0  0  0  0  0  0  0  0  0  0  0  0
   30.8606    3.0091   30.8794 C   0  0  0  0  0  0  0  0  0  0  0  0
   30.3415    4.4381   30.6620 C   0  0  2  0  0  0  0  0  0  0  0  0
   29.0507    4.2832   29.8184 C   0  0  2  0  0  0  0  0  0  0  0  0
   31.2692    5.1709   29.8437 O   0  0  0  0  0  0  0  0  0  0  0  0
   31.5014    6.4482   30.2042 C   0  0  0  0  0  0  0  0  0  0  0  0
   31.9864    7.0992   29.1144 N   0  0  0  0  0  0  0  0  0  0  0  0
   31.2897    6.9390   31.2974 O   0  0  0  0  0  0  0  0  0  0  0  0
   32.1217    8.5518   29.0738 C   0  0  2  0  0  0  0  0  0  0  0  0
   30.8397    9.1367   28.4129 C   0  0  0  0  0  0  0  0  0  0  0  0
   33.4455    9.0030   28.3489 C   0  0  0  0  0  0  0  0  0  0  0  0
   33.6831    8.2724   27.0077 C   0  0  0  0  0  0  0  0  0  0  0  0
   34.6520    8.7071   29.2758 C   0  0  0  0  0  0  0  0  0  0  0  0
   33.4327   10.5252   28.0718 C   0  0  0  0  0  0  0  0  0  0  0  0
   30.6027    9.0616   27.2089 O   0  0  0  0  0  0  0  0  0  0  0  0
   29.9303    9.6965   29.3145 N   0  0  0  0  0  0  0  0  0  0  0  0
   27.6253    9.5800   30.0389 C   0  0  1  0  0  0  0  0  0  0  0  0
   28.9377    8.7835   29.8732 C   0  0  0  0  0  0  0  0  0  0  0  0
   29.2405   10.9153   28.8869 C   0  0  1  0  0  0  0  0  0  0  0  0
   27.7591   10.5737   28.8742 C   0  0  0  0  0  0  0  0  0  0  0  0
   26.5155    8.6787   29.9408 O   0  0  0  0  0  0  0  0  0  0  0  0
   25.3226    9.2781   30.2303 C   0  0  0  0  0  0  0  0  0  0  0  0
   24.8851   10.1718   29.3210 N   0  0  0  0  0  0  0  0  0  0  0  0
   23.6918   10.7396   29.5381 C   0  0  0  0  0  0  0  0  0  0  0  0
   22.9065   10.3769   30.6519 C   0  0  0  0  0  0  0  0  0  0  0  0
   23.3287    9.4457   31.5325 N   0  0  0  0  0  0  0  0  0  0  0  0
   24.5617    8.8934   31.3248 C   0  0  0  0  0  0  0  0  0  0  0  0
   21.6771   11.0011   30.8320 C   0  0  0  0  0  0  0  0  0  0  0  0
   21.2045   11.9636   29.9355 C   0  0  0  0  0  0  0  0  0  0  0  0
   21.9813   12.3186   28.8413 C   0  0  0  0  0  0  0  0  0  0  0  0
   23.2137   11.6946   28.6475 C   0  0  0  0  0  0  0  0  0  0  0  0
   25.1303    7.9457   32.3730 C   0  0  0  0  0  0  0  0  0  0  0  0
   25.5744    6.6017   31.8311 C   0  0  0  0  0  0  0  0  0  0  0  0
   26.8079    6.0931   31.9776 C   0  0  0  0  0  0  0  0  0  0  0  0
   27.2770    4.7996   31.3841 C   0  0  0  0  0  0  0  0  0  0  0  0
   28.0023    5.1491   30.2133 O   0  0  0  0  0  0  0  0  0  0  0  0
   24.2254    7.6785   33.3655 F   0  0  0  0  0  0  0  0  0  0  0  0
   26.1789    8.5383   33.0302 F   0  0  0  0  0  0  0  0  0  0  0  0
   29.5885   11.9621   29.9572 C   0  0  0  0  0  0  0  0  0  0  0  0
   30.8420   12.5259   29.8371 N   0  0  0  0  0  0  0  0  0  0  0  0
   28.8678   12.2291   30.9202 O   0  0  0  0  0  0  0  0  0  0  0  0
   31.3631   13.4120   30.8667 C   0  0  2  0  0  0  0  0  0  0  0  0
   32.8282   13.2678   31.2643 C   0  0  0  0  0  0  0  0  0  0  0  0
   31.7692   12.7659   32.1958 C   0  0  1  0  0  0  0  0  0  0  0  0
   30.7416   14.7939   30.9053 C   0  0  0  0  0  0  0  0  0  0  0  0
   29.3745   14.8119   31.2272 N   0  0  0  0  0  0  0  0  0  0  0  0
   31.3935   15.8005   30.6793 O   0  0  0  0  0  0  0  0  0  0  0  0
   28.3398   15.7613   30.3379 S   0  0  0  0  0  0  0  0  0  0  0  0
   28.6116   17.4895   30.7796 C   0  0  0  0  0  0  0  0  0  0  0  0
   27.0104   15.4249   30.7998 O   0  0  0  0  0  0  0  0  0  0  0  0
   28.6932   15.5585   28.9445 O   0  0  0  0  0  0  0  0  0  0  0  0
   28.4708   17.7517   32.2364 C   0  0  0  0  0  0  0  0  0  0  0  0
   29.5876   18.2526   29.9304 C   0  0  0  0  0  0  0  0  0  0  0  0
   28.1119   18.4751   29.7586 C   0  0  0  0  0  0  0  0  0  0  0  0
   31.5578   13.4262   33.5098 C   0  0  0  0  0  0  0  0  0  0  0  0
   32.1805   12.6861   34.4671 F   0  0  0  0  0  0  0  0  0  0  0  0
   32.1415   14.6509   33.5286 F   0  0  0  0  0  0  0  0  0  0  0  0
   28.1542    2.4917   28.9353 H   0  0  0  0  0  0  0  0  0  0  0  0
   28.1572    2.4893   30.7134 H   0  0  0  0  0  0  0  0  0  0  0  0
   30.5881    2.2407   28.8823 H   0  0  0  0  0  0  0  0  0  0  0  0
   30.0995    1.0964   30.1470 H   0  0  0  0  0  0  0  0  0  0  0  0
   31.9433    2.9295   30.7664 H   0  0  0  0  0  0  0  0  0  0  0  0
   30.5968    2.6884   31.8923 H   0  0  0  0  0  0  0  0  0  0  0  0
   30.1889    4.9232   31.6352 H   0  0  0  0  0  0  0  0  0  0  0  0
   29.2708    4.5833   28.7814 H   0  0  0  0  0  0  0  0  0  0  0  0
   31.8667    6.5900   28.2506 H   0  0  0  0  0  0  0  0  0  0  0  0
   32.1607    8.9315   30.1052 H   0  0  0  0  0  0  0  0  0  0  0  0
   33.8230    7.1911   27.1463 H   0  0  0  0  0  0  0  0  0  0  0  0
   34.5877    8.6610   26.5195 H   0  0  0  0  0  0  0  0  0  0  0  0
   32.8548    8.4131   26.3048 H   0  0  0  0  0  0  0  0  0  0  0  0
   34.5756    9.2603   30.2180 H   0  0  0  0  0  0  0  0  0  0  0  0
   34.7018    7.6426   29.5289 H   0  0  0  0  0  0  0  0  0  0  0  0
   35.6000    8.9907   28.8027 H   0  0  0  0  0  0  0  0  0  0  0  0
   32.6621   10.8021   27.3415 H   0  0  0  0  0  0  0  0  0  0  0  0
   34.3976   10.8541   27.6633 H   0  0  0  0  0  0  0  0  0  0  0  0
   33.2553   11.0938   28.9923 H   0  0  0  0  0  0  0  0  0  0  0  0
   27.6112   10.0857   31.0192 H   0  0  0  0  0  0  0  0  0  0  0  0
   29.2905    8.3828   30.8257 H   0  0  0  0  0  0  0  0  0  0  0  0
   28.7765    7.9422   29.1914 H   0  0  0  0  0  0  0  0  0  0  0  0
   29.5797   11.2718   27.9099 H   0  0  0  0  0  0  0  0  0  0  0  0
   27.1297   11.4669   28.9837 H   0  0  0  0  0  0  0  0  0  0  0  0
   27.4834   10.0913   27.9277 H   0  0  0  0  0  0  0  0  0  0  0  0
   21.0809   10.7504   31.7013 H   0  0  0  0  0  0  0  0  0  0  0  0
   20.2316   12.4379   30.0819 H   0  0  0  0  0  0  0  0  0  0  0  0
   21.6357   13.0723   28.1347 H   0  0  0  0  0  0  0  0  0  0  0  0
   23.8264   11.9611   27.7905 H   0  0  0  0  0  0  0  0  0  0  0  0
   24.8486    6.0545   31.2369 H   0  0  0  0  0  0  0  0  0  0  0  0
   27.5555    6.6234   32.5582 H   0  0  0  0  0  0  0  0  0  0  0  0
   26.4265    4.1571   31.1155 H   0  0  0  0  0  0  0  0  0  0  0  0
   27.9118    4.2978   32.1192 H   0  0  0  0  0  0  0  0  0  0  0  0
   31.3029   12.5193   28.9293 H   0  0  0  0  0  0  0  0  0  0  0  0
   33.3876   14.1596   31.5371 H   0  0  0  0  0  0  0  0  0  0  0  0
   33.4327   12.5311   30.7653 H   0  0  0  0  0  0  0  0  0  0  0  0
   31.6131   11.6966   32.2745 H   0  0  0  0  0  0  0  0  0  0  0  0
   28.9442   13.8923   31.3891 H   0  0  0  0  0  0  0  0  0  0  0  0
   27.4936   17.4469   32.6109 H   0  0  0  0  0  0  0  0  0  0  0  0
   29.2428   17.2276   32.8091 H   0  0  0  0  0  0  0  0  0  0  0  0
   28.5910   18.8220   32.4434 H   0  0  0  0  0  0  0  0  0  0  0  0
   30.1798   19.0369   30.3854 H   0  0  0  0  0  0  0  0  0  0  0  0
   30.1375   17.7093   29.1684 H   0  0  0  0  0  0  0  0  0  0  0  0
   27.7027   19.4191   30.1008 H   0  0  0  0  0  0  0  0  0  0  0  0
   27.6401   18.1104   28.8474 H   0  0  0  0  0  0  0  0  0  0  0  0
   30.4966   13.5183   33.7603 H   0  0  0  0  0  0  0  0  0  0  0  0
  1  2  1  0
  2  3  1  0
  4  3  1  0
  4  5  1  0
  5  1  1  0
  4  6  1  0
  6  7  1  0
  7  8  1  0
  7  9  2  0
  8 10  1  0
 10 11  1  0
 10 12  1  0
 12 13  1  0
 12 14  1  0
 12 15  1  0
 11 16  2  0
 11 17  1  0
 19 17  1  0
 17 20  1  0
 18 19  1  0
 20 21  1  0
 18 21  1  0
 18 22  1  0
 22 23  1  0
 23 24  2  0
 28 23  1  0
 24 25  1  0
 26 27  1  0
 27 28  2  0
 26 29  1  0
 25 26  2  0
 32 25  1  0
 29 30  2  0
 30 31  1  0
 31 32  2  0
 28 33  1  0
 33 34  1  0
 34 35  2  0
 35 36  1  0
 36 37  1  0
  5 37  1  0
 33 38  1  0
 33 39  1  0
 20 40  1  0
 40 41  1  0
 40 42  2  0
 43 41  1  6
 43 44  1  0
 45 43  1  0
 44 45  1  0
 43 46  1  0
 46 47  1  0
 46 48  2  0
 47 49  1  0
 49 50  1  0
 49 51  2  0
 49 52  2  0
 50 53  1  0
 50 54  1  0
 55 50  1  0
 54 55  1  0
 45 56  1  0
 56 57  1  0
 56 58  1  0
  1 59  1  0
  1 60  1  0
  2 61  1  0
  2 62  1  0
  3 63  1  0
  3 64  1  0
  4 65  1  1
  5 66  1  6
  8 67  1  0
 10 68  1  1
 13 69  1  0
 13 70  1  0
 13 71  1  0
 14 72  1  0
 14 73  1  0
 14 74  1  0
 15 75  1  0
 15 76  1  0
 15 77  1  0
 18 78  1  1
 19 79  1  0
 19 80  1  0
 20 81  1  6
 21 82  1  0
 21 83  1  0
 29 84  1  0
 30 85  1  0
 31 86  1  0
 32 87  1  0
 34 88  1  0
 35 89  1  0
 36 90  1  0
 36 91  1  0
 41 92  1  0
 44 93  1  0
 44 94  1  0
 45 95  1  1
 47 96  1  0
 53 97  1  0
 53 98  1  0
 53 99  1  0
 54100  1  0
 54101  1  0
 55102  1  0
 55103  1  0
 56104  1  0
M  END
> <Uni-Dock RESULT> 
ENERGY=   -3.784  LOWER_BOUND=    4.195  UPPER_BOUND=    8.420
INTER + INTRA:          -3.784
INTER:                  -3.784
INTRA:                   0.000
UNBOUND:                 0.000

$$$$

     RDKit          3D

104110  0  0  0  0  0  0  0  0999 V2000
   23.1100   15.0197   34.4732 C   0  0  0  0  0  0  0  0  0  0  0  0
   24.0088   16.2448   34.5723 C   0  0  0  0  0  0  0  0  0  0  0  0
   24.8987   16.1268   33.3395 C   0  0  0  0  0  0  0  0  0  0  0  0
   25.1544   14.6221   33.1686 C   0  0  2  0  0  0  0  0  0  0  0  0
   24.0960   13.9212   34.0577 C   0  0  2  0  0  0  0  0  0  0  0  0
   26.4349   14.2821   33.7269 O   0  0  0  0  0  0  0  0  0  0  0  0
   27.1790   13.4077   33.0218 C   0  0  0  0  0  0  0  0  0  0  0  0
   28.0803   12.8555   33.8757 N   0  0  0  0  0  0  0  0  0  0  0  0
   27.0509   13.1388   31.8418 O   0  0  0  0  0  0  0  0  0  0  0  0
   28.8868   11.6953   33.5103 C   0  0  2  0  0  0  0  0  0  0  0  0
   28.1545   10.4198   34.0196 C   0  0  0  0  0  0  0  0  0  0  0  0
   30.3640   11.8089   34.0455 C   0  0  0  0  0  0  0  0  0  0  0  0
   30.4415   12.2355   35.5291 C   0  0  0  0  0  0  0  0  0  0  0  0
   31.1240   12.8648   33.2031 C   0  0  0  0  0  0  0  0  0  0  0  0
   31.1125   10.4634   33.8922 C   0  0  0  0  0  0  0  0  0  0  0  0
   28.1061   10.0927   35.2036 O   0  0  0  0  0  0  0  0  0  0  0  0
   27.4838    9.7039   33.0241 N   0  0  0  0  0  0  0  0  0  0  0  0
   25.3122    8.8232   32.4243 C   0  0  1  0  0  0  0  0  0  0  0  0
   26.1037   10.1040   32.7667 C   0  0  0  0  0  0  0  0  0  0  0  0
   27.5261    8.2431   33.1179 C   0  0  1  0  0  0  0  0  0  0  0  0
   26.0816    7.7925   33.2655 C   0  0  0  0  0  0  0  0  0  0  0  0
   23.9410    9.0067   32.7980 O   0  0  0  0  0  0  0  0  0  0  0  0
   23.1406    7.9785   32.3876 C   0  0  0  0  0  0  0  0  0  0  0  0
   23.3263    6.8065   33.0268 N   0  0  0  0  0  0  0  0  0  0  0  0
   22.5224    5.7881   32.6948 C   0  0  0  0  0  0  0  0  0  0  0  0
   21.4921    5.9552   31.7465 C   0  0  0  0  0  0  0  0  0  0  0  0
   21.2801    7.1446   31.1455 N   0  0  0  0  0  0  0  0  0  0  0  0
   22.1243    8.1718   31.4632 C   0  0  0  0  0  0  0  0  0  0  0  0
   20.6893    4.8633   31.4354 C   0  0  0  0  0  0  0  0  0  0  0  0
   20.8747    3.6190   32.0444 C   0  0  0  0  0  0  0  0  0  0  0  0
   21.8910    3.4586   32.9761 C   0  0  0  0  0  0  0  0  0  0  0  0
   22.6987    4.5487   33.3003 C   0  0  0  0  0  0  0  0  0  0  0  0
   22.0048    9.4857   30.7018 C   0  0  0  0  0  0  0  0  0  0  0  0
   21.8456   10.7100   31.5808 C   0  0  0  0  0  0  0  0  0  0  0  0
   22.6539   11.7809   31.5462 C   0  0  0  0  0  0  0  0  0  0  0  0
   22.5484   12.9637   32.4602 C   0  0  0  0  0  0  0  0  0  0  0  0
   23.5295   12.7649   33.4685 O   0  0  0  0  0  0  0  0  0  0  0  0
   20.9349    9.4859   29.8470 F   0  0  0  0  0  0  0  0  0  0  0  0
   23.0884    9.6571   29.8778 F   0  0  0  0  0  0  0  0  0  0  0  0
   28.1488    7.7803   31.7911 C   0  0  0  0  0  0  0  0  0  0  0  0
   29.5211    7.9015   31.7161 N   0  0  0  0  0  0  0  0  0  0  0  0
   27.4946    7.4172   30.8122 O   0  0  0  0  0  0  0  0  0  0  0  0
   30.2251    7.6499   30.4680 C   0  0  2  0  0  0  0  0  0  0  0  0
   31.3656    8.5869   30.0851 C   0  0  0  0  0  0  0  0  0  0  0  0
   30.0614    8.6938   29.3580 C   0  0  1  0  0  0  0  0  0  0  0  0
   30.3288    6.1919   30.0669 C   0  0  0  0  0  0  0  0  0  0  0  0
   29.0989    5.5721   29.7907 N   0  0  0  0  0  0  0  0  0  0  0  0
   31.4038    5.6197   29.9882 O   0  0  0  0  0  0  0  0  0  0  0  0
   28.7891    4.0619   30.4119 S   0  0  0  0  0  0  0  0  0  0  0  0
   29.7663    2.8475   29.5032 C   0  0  0  0  0  0  0  0  0  0  0  0
   27.4030    3.7897   30.0978 O   0  0  0  0  0  0  0  0  0  0  0  0
   29.2235    4.0915   31.7968 O   0  0  0  0  0  0  0  0  0  0  0  0
   29.5342    2.8877   28.0351 C   0  0  0  0  0  0  0  0  0  0  0  0
   31.1081    2.4990   30.0815 C   0  0  0  0  0  0  0  0  0  0  0  0
   29.9591    1.5422   30.2262 C   0  0  0  0  0  0  0  0  0  0  0  0
   29.9779    8.3330   27.9191 C   0  0  0  0  0  0  0  0  0  0  0  0
   30.0176    9.4790   27.1863 F   0  0  0  0  0  0  0  0  0  0  0  0
   31.0571    7.5996   27.5471 F   0  0  0  0  0  0  0  0  0  0  0  0
   22.6173   14.7791   35.4253 H   0  0  0  0  0  0  0  0  0  0  0  0
   22.3341   15.1852   33.7175 H   0  0  0  0  0  0  0  0  0  0  0  0
   24.6207   16.1838   35.4779 H   0  0  0  0  0  0  0  0  0  0  0  0
   23.4564   17.1876   34.5920 H   0  0  0  0  0  0  0  0  0  0  0  0
   25.8193   16.7045   33.4400 H   0  0  0  0  0  0  0  0  0  0  0  0
   24.3569   16.4943   32.4621 H   0  0  0  0  0  0  0  0  0  0  0  0
   25.0941   14.3600   32.1040 H   0  0  0  0  0  0  0  0  0  0  0  0
   24.5940   13.5438   34.9652 H   0  0  0  0  0  0  0  0  0  0  0  0
   27.8753   13.0275   34.8495 H   0  0  0  0  0  0  0  0  0  0  0  0
   28.9340   11.6298   32.4135 H   0  0  0  0  0  0  0  0  0  0  0  0
   30.0327   13.2430   35.6903 H   0  0  0  0  0  0  0  0  0  0  0  0
   31.4876   12.2475   35.8659 H   0  0  0  0  0  0  0  0  0  0  0  0
   29.9011   11.5479   36.1886 H   0  0  0  0  0  0  0  0  0  0  0  0
   31.1669   12.5764   32.1473 H   0  0  0  0  0  0  0  0  0  0  0  0
   30.6266   13.8394   33.2522 H   0  0  0  0  0  0  0  0  0  0  0  0
   32.1559   12.9897   33.5531 H   0  0  0  0  0  0  0  0  0  0  0  0
   30.6905    9.6840   34.5389 H   0  0  0  0  0  0  0  0  0  0  0  0
   32.1700   10.5733   34.1672 H   0  0  0  0  0  0  0  0  0  0  0  0
   31.0783   10.1071   32.8559 H   0  0  0  0  0  0  0  0  0  0  0  0
   25.3806    8.6141   31.3433 H   0  0  0  0  0  0  0  0  0  0  0  0
   26.0693   10.8305   31.9523 H   0  0  0  0  0  0  0  0  0  0  0  0
   25.6775   10.5752   33.6584 H   0  0  0  0  0  0  0  0  0  0  0  0
   28.1444    7.8912   33.9488 H   0  0  0  0  0  0  0  0  0  0  0  0
   25.9373    6.7565   32.9313 H   0  0  0  0  0  0  0  0  0  0  0  0
   25.7670    7.8461   34.3156 H   0  0  0  0  0  0  0  0  0  0  0  0
   19.9149    4.9749   30.6859 H   0  0  0  0  0  0  0  0  0  0  0  0
   20.2296    2.7723   31.7999 H   0  0  0  0  0  0  0  0  0  0  0  0
   22.0581    2.4953   33.4567 H   0  0  0  0  0  0  0  0  0  0  0  0
   23.4929    4.4348   34.0331 H   0  0  0  0  0  0  0  0  0  0  0  0
   21.0534   10.6746   32.3229 H   0  0  0  0  0  0  0  0  0  0  0  0
   23.4592   11.8382   30.8213 H   0  0  0  0  0  0  0  0  0  0  0  0
   21.5511   13.0201   32.9191 H   0  0  0  0  0  0  0  0  0  0  0  0
   22.7461   13.8655   31.8747 H   0  0  0  0  0  0  0  0  0  0  0  0
   30.0633    7.9299   32.5774 H   0  0  0  0  0  0  0  0  0  0  0  0
   32.2266    8.1782   29.5614 H   0  0  0  0  0  0  0  0  0  0  0  0
   31.6241    9.3913   30.7510 H   0  0  0  0  0  0  0  0  0  0  0  0
   29.4108    9.5309   29.5816 H   0  0  0  0  0  0  0  0  0  0  0  0
   28.2673    6.1666   29.9007 H   0  0  0  0  0  0  0  0  0  0  0  0
   28.4828    2.7438   27.7865 H   0  0  0  0  0  0  0  0  0  0  0  0
   29.8665    3.8395   27.6081 H   0  0  0  0  0  0  0  0  0  0  0  0
   30.1084    2.0967   27.5377 H   0  0  0  0  0  0  0  0  0  0  0  0
   31.9179    2.2379   29.4116 H   0  0  0  0  0  0  0  0  0  0  0  0
   31.4521    3.0546   30.9483 H   0  0  0  0  0  0  0  0  0  0  0  0
   29.9926    0.6254   29.6484 H   0  0  0  0  0  0  0  0  0  0  0  0
   29.5238    1.4079   31.2154 H   0  0  0  0  0  0  0  0  0  0  0  0
   29.0599    7.7865   27.6826 H   0  0  0  0  0  0  0  0  0  0  0  0
  1  2  1  0
  2  3  1  0
  4  3  1  0
  4  5  1  0
  5  1  1  0
  4  6  1  0
  6  7  1  0
  7  8  1  0
  7  9  2  0
  8 10  1  0
 10 11  1  0
 10 12  1  0
 12 13  1  0
 12 14  1  0
 12 15  1  0
 11 16  2  0
 11 17  1  0
 19 17  1  0
 17 20  1  0
 18 19  1  0
 20 21  1  0
 18 21  1  0
 18 22  1  0
 22 23  1  0
 23 24  2  0
 28 23  1  0
 24 25  1  0
 26 27  1  0
 27 28  2  0
 26 29  1  0
 25 26  2  0
 32 25  1  0
 29 30  2  0
 30 31  1  0
 31 32  2  0
 28 33  1  0
 33 34  1  0
 34 35  2  0
 35 36  1  0
 36 37  1  0
  5 37  1  0
 33 38  1  0
 33 39  1  0
 20 40  1  0
 40 41  1  0
 40 42  2  0
 43 41  1  6
 43 44  1  0
 45 43  1  0
 44 45  1  0
 43 46  1  0
 46 47  1  0
 46 48  2  0
 47 49  1  0
 49 50  1  0
 49 51  2  0
 49 52  2  0
 50 53  1  0
 50 54  1  0
 55 50  1  0
 54 55  1  0
 45 56  1  0
 56 57  1  0
 56 58  1  0
  1 59  1  0
  1 60  1  0
  2 61  1  0
  2 62  1  0
  3 63  1  0
  3 64  1  0
  4 65  1  1
  5 66  1  6
  8 67  1  0
 10 68  1  1
 13 69  1  0
 13 70  1  0
 13 71  1  0
 14 72  1  0
 14 73  1  0
 14 74  1  0
 15 75  1  0
 15 76  1  0
 15 77  1  0
 18 78  1  1
 19 79  1  0
 19 80  1  0
 20 81  1  6
 21 82  1  0
 21 83  1  0
 29 84  1  0
 30 85  1  0
 31 86  1  0
 32 87  1  0
 34 88  1  0
 35 89  1  0
 36 90  1  0
 36 91  1  0
 41 92  1  0
 44 93  1  0
 44 94  1  0
 45 95  1  1
 47 96  1  0
 53 97  1  0
 53 98  1  0
 53 99  1  0
 54100  1  0
 54101  1  0
 55102  1  0
 55103  1  0
 56104  1  0
M  END
> <Uni-Dock RESULT> 
ENERGY=   -3.643  LOWER_BOUND=    3.747  UPPER_BOUND=    7.305
INTER + INTRA:          -3.643
INTER:                  -3.643
INTRA:                   0.000
UNBOUND:                 0.000

$$$$

     RDKit          3D

104110  0  0  0  0  0  0  0  0999 V2000
   31.6206    1.4781   32.0694 C   0  0  0  0  0  0  0  0  0  0  0  0
   30.7710    0.2986   31.6161 C   0  0  0  0  0  0  0  0  0  0  0  0
   29.9588    0.8753   30.4614 C   0  0  0  0  0  0  0  0  0  0  0  0
   29.6500    2.3236   30.8686 C   0  0  2  0  0  0  0  0  0  0  0  0
   30.6171    2.6373   32.0384 C   0  0  2  0  0  0  0  0  0  0  0  0
   28.3224    2.4003   31.4151 O   0  0  0  0  0  0  0  0  0  0  0  0
   27.5887    3.4696   31.0496 C   0  0  0  0  0  0  0  0  0  0  0  0
   26.6108    3.6319   31.9791 N   0  0  0  0  0  0  0  0  0  0  0  0
   27.7815    4.1794   30.0801 O   0  0  0  0  0  0  0  0  0  0  0  0
   25.7804    4.8309   32.0318 C   0  0  2  0  0  0  0  0  0  0  0  0
   26.4223    5.8171   33.0506 C   0  0  0  0  0  0  0  0  0  0  0  0
   24.2778    4.4962   32.3660 C   0  0  0  0  0  0  0  0  0  0  0  0
   24.1225    3.5236   33.5571 C   0  0  0  0  0  0  0  0  0  0  0  0
   23.6205    3.8418   31.1242 C   0  0  0  0  0  0  0  0  0  0  0  0
   23.4835    5.7840   32.6899 C   0  0  0  0  0  0  0  0  0  0  0  0
   26.3794    5.6570   34.2688 O   0  0  0  0  0  0  0  0  0  0  0  0
   27.1248    6.8743   32.4655 N   0  0  0  0  0  0  0  0  0  0  0  0
   29.2907    7.9504   32.4229 C   0  0  1  0  0  0  0  0  0  0  0  0
   28.5346    6.6262   32.1797 C   0  0  0  0  0  0  0  0  0  0  0  0
   27.0134    8.1819   33.1152 C   0  0  1  0  0  0  0  0  0  0  0  0
   28.4245    8.5600   33.5364 C   0  0  0  0  0  0  0  0  0  0  0  0
   30.6413    7.6554   32.8001 O   0  0  0  0  0  0  0  0  0  0  0  0
   31.4215    8.7737   32.8836 C   0  0  0  0  0  0  0  0  0  0  0  0
   31.1443    9.6007   33.9111 N   0  0  0  0  0  0  0  0  0  0  0  0
   31.9233   10.6794   34.0630 C   0  0  0  0  0  0  0  0  0  0  0  0
   33.0194   10.9104   33.2062 C   0  0  0  0  0  0  0  0  0  0  0  0
   33.3211   10.0529   32.2090 N   0  0  0  0  0  0  0  0  0  0  0  0
   32.5032    8.9711   32.0375 C   0  0  0  0  0  0  0  0  0  0  0  0
   33.7928   12.0486   33.4057 C   0  0  0  0  0  0  0  0  0  0  0  0
   33.5146   12.9539   34.4337 C   0  0  0  0  0  0  0  0  0  0  0  0
   32.4339   12.7234   35.2737 C   0  0  0  0  0  0  0  0  0  0  0  0
   31.6547   11.5817   35.0865 C   0  0  0  0  0  0  0  0  0  0  0  0
   32.7286    8.0603   30.8375 C   0  0  0  0  0  0  0  0  0  0  0  0
   32.8830    6.5925   31.1820 C   0  0  0  0  0  0  0  0  0  0  0  0
   32.1256    5.6083   30.6727 C   0  0  0  0  0  0  0  0  0  0  0  0
   32.2225    4.1644   31.0614 C   0  0  0  0  0  0  0  0  0  0  0  0
   31.1703    3.9398   31.9893 O   0  0  0  0  0  0  0  0  0  0  0  0
   33.8508    8.4090   30.1344 F   0  0  0  0  0  0  0  0  0  0  0  0
   31.7092    8.2082   29.9310 F   0  0  0  0  0  0  0  0  0  0  0  0
   26.4589    9.1167   32.0285 C   0  0  0  0  0  0  0  0  0  0  0  0
   25.1009    9.0145   31.8073 N   0  0  0  0  0  0  0  0  0  0  0  0
   27.1591    9.8422   31.3205 O   0  0  0  0  0  0  0  0  0  0  0  0
   24.4692    9.7229   30.7046 C   0  0  2  0  0  0  0  0  0  0  0  0
   23.3976    8.9932   29.9018 C   0  0  0  0  0  0  0  0  0  0  0  0
   24.7497    9.1973   29.2925 C   0  0  1  0  0  0  0  0  0  0  0  0
   24.3290   11.2202   30.8940 C   0  0  0  0  0  0  0  0  0  0  0  0
   25.5464   11.9163   30.9751 N   0  0  0  0  0  0  0  0  0  0  0  0
   23.2377   11.7622   30.9613 O   0  0  0  0  0  0  0  0  0  0  0  0
   25.7496   13.0688   32.1554 S   0  0  0  0  0  0  0  0  0  0  0  0
   24.7820   14.5272   31.7170 C   0  0  0  0  0  0  0  0  0  0  0  0
   27.1401   13.4619   32.0788 O   0  0  0  0  0  0  0  0  0  0  0  0
   25.2278   12.4949   33.3825 O   0  0  0  0  0  0  0  0  0  0  0  0
   25.1106   15.0663   30.3708 C   0  0  0  0  0  0  0  0  0  0  0  0
   23.3917   14.6031   32.2804 C   0  0  0  0  0  0  0  0  0  0  0  0
   24.4865   15.4441   32.8728 C   0  0  0  0  0  0  0  0  0  0  0  0
   24.9109   10.0920   28.1175 C   0  0  0  0  0  0  0  0  0  0  0  0
   24.9685    9.3223   26.9966 F   0  0  0  0  0  0  0  0  0  0  0  0
   23.8275   10.8968   27.9775 F   0  0  0  0  0  0  0  0  0  0  0  0
   32.0395    1.3352   33.0750 H   0  0  0  0  0  0  0  0  0  0  0  0
   32.4503    1.6317   31.3706 H   0  0  0  0  0  0  0  0  0  0  0  0
   30.0994   -0.0074   32.4246 H   0  0  0  0  0  0  0  0  0  0  0  0
   31.3611   -0.5691   31.3107 H   0  0  0  0  0  0  0  0  0  0  0  0
   29.0594    0.2909   30.2589 H   0  0  0  0  0  0  0  0  0  0  0  0
   30.5718    0.8871   29.5545 H   0  0  0  0  0  0  0  0  0  0  0  0
   29.7680    2.9811   29.9971 H   0  0  0  0  0  0  0  0  0  0  0  0
   30.0453    2.6235   32.9800 H   0  0  0  0  0  0  0  0  0  0  0  0
   26.7592    3.0966   32.8225 H   0  0  0  0  0  0  0  0  0  0  0  0
   25.8018    5.3185   31.0462 H   0  0  0  0  0  0  0  0  0  0  0  0
   24.5630    2.5390   33.3456 H   0  0  0  0  0  0  0  0  0  0  0  0
   23.0582    3.3660   33.7816 H   0  0  0  0  0  0  0  0  0  0  0  0
   24.5887    3.9071   34.4711 H   0  0  0  0  0  0  0  0  0  0  0  0
   23.6339    4.5186   30.2632 H   0  0  0  0  0  0  0  0  0  0  0  0
   24.1553    2.9326   30.8294 H   0  0  0  0  0  0  0  0  0  0  0  0
   22.5743    3.5753   31.3181 H   0  0  0  0  0  0  0  0  0  0  0  0
   23.8285    6.2553   33.6186 H   0  0  0  0  0  0  0  0  0  0  0  0
   22.4160    5.5603   32.8186 H   0  0  0  0  0  0  0  0  0  0  0  0
   23.5695    6.5168   31.8789 H   0  0  0  0  0  0  0  0  0  0  0  0
   29.2837    8.5636   31.5059 H   0  0  0  0  0  0  0  0  0  0  0  0
   28.6533    6.2756   31.1525 H   0  0  0  0  0  0  0  0  0  0  0  0
   28.9219    5.8507   32.8486 H   0  0  0  0  0  0  0  0  0  0  0  0
   26.3278    8.1728   33.9675 H   0  0  0  0  0  0  0  0  0  0  0  0
   28.5453    9.6463   33.6426 H   0  0  0  0  0  0  0  0  0  0  0  0
   28.6721    8.1055   34.5042 H   0  0  0  0  0  0  0  0  0  0  0  0
   34.6184   12.2495   32.7334 H   0  0  0  0  0  0  0  0  0  0  0  0
   34.1371   13.8381   34.5871 H   0  0  0  0  0  0  0  0  0  0  0  0
   32.1944   13.4203   36.0761 H   0  0  0  0  0  0  0  0  0  0  0  0
   30.8104   11.3892   35.7428 H   0  0  0  0  0  0  0  0  0  0  0  0
   33.6230    6.3470   31.9381 H   0  0  0  0  0  0  0  0  0  0  0  0
   31.3724    5.8268   29.9229 H   0  0  0  0  0  0  0  0  0  0  0  0
   33.1894    3.9478   31.5374 H   0  0  0  0  0  0  0  0  0  0  0  0
   32.1025    3.5597   30.1586 H   0  0  0  0  0  0  0  0  0  0  0  0
   24.5055    8.6445   32.5457 H   0  0  0  0  0  0  0  0  0  0  0  0
   22.5556    9.5614   29.5134 H   0  0  0  0  0  0  0  0  0  0  0  0
   23.1314    7.9891   30.1815 H   0  0  0  0  0  0  0  0  0  0  0  0
   25.4199    8.3487   29.2231 H   0  0  0  0  0  0  0  0  0  0  0  0
   26.3939   11.3380   30.9092 H   0  0  0  0  0  0  0  0  0  0  0  0
   26.1688   15.3110   30.2790 H   0  0  0  0  0  0  0  0  0  0  0  0
   24.8481   14.3519   29.5838 H   0  0  0  0  0  0  0  0  0  0  0  0
   24.5364   15.9803   30.1768 H   0  0  0  0  0  0  0  0  0  0  0  0
   22.6166   15.0931   31.7043 H   0  0  0  0  0  0  0  0  0  0  0  0
   23.0164   13.7484   32.8346 H   0  0  0  0  0  0  0  0  0  0  0  0
   24.4510   16.5131   32.6952 H   0  0  0  0  0  0  0  0  0  0  0  0
   24.8502   15.1881   33.8668 H   0  0  0  0  0  0  0  0  0  0  0  0
   25.8179   10.7007   28.1827 H   0  0  0  0  0  0  0  0  0  0  0  0
  1  2  1  0
  2  3  1  0
  4  3  1  0
  4  5  1  0
  5  1  1  0
  4  6  1  0
  6  7  1  0
  7  8  1  0
  7  9  2  0
  8 10  1  0
 10 11  1  0
 10 12  1  0
 12 13  1  0
 12 14  1  0
 12 15  1  0
 11 16  2  0
 11 17  1  0
 19 17  1  0
 17 20  1  0
 18 19  1  0
 20 21  1  0
 18 21  1  0
 18 22  1  0
 22 23  1  0
 23 24  2  0
 28 23  1  0
 24 25  1  0
 26 27  1  0
 27 28  2  0
 26 29  1  0
 25 26  2  0
 32 25  1  0
 29 30  2  0
 30 31  1  0
 31 32  2  0
 28 33  1  0
 33 34  1  0
 34 35  2  0
 35 36  1  0
 36 37  1  0
  5 37  1  0
 33 38  1  0
 33 39  1  0
 20 40  1  0
 40 41  1  0
 40 42  2  0
 43 41  1  6
 43 44  1  0
 45 43  1  0
 44 45  1  0
 43 46  1  0
 46 47  1  0
 46 48  2  0
 47 49  1  0
 49 50  1  0
 49 51  2  0
 49 52  2  0
 50 53  1  0
 50 54  1  0
 55 50  1  0
 54 55  1  0
 45 56  1  0
 56 57  1  0
 56 58  1  0
  1 59  1  0
  1 60  1  0
  2 61  1  0
  2 62  1  0
  3 63  1  0
  3 64  1  0
  4 65  1  1
  5 66  1  6
  8 67  1  0
 10 68  1  1
 13 69  1  0
 13 70  1  0
 13 71  1  0
 14 72  1  0
 14 73  1  0
 14 74  1  0
 15 75  1  0
 15 76  1  0
 15 77  1  0
 18 78  1  1
 19 79  1  0
 19 80  1  0
 20 81  1  6
 21 82  1  0
 21 83  1  0
 29 84  1  0
 30 85  1  0
 31 86  1  0
 32 87  1  0
 34 88  1  0
 35 89  1  0
 36 90  1  0
 36 91  1  0
 41 92  1  0
 44 93  1  0
 44 94  1  0
 45 95  1  1
 47 96  1  0
 53 97  1  0
 53 98  1  0
 53 99  1  0
 54100  1  0
 54101  1  0
 55102  1  0
 55103  1  0
 56104  1  0
M  END
> <Uni-Dock RESULT> 
ENERGY=   -3.630  LOWER_BOUND=    3.787  UPPER_BOUND=    9.058
INTER + INTRA:          -3.630
INTER:                  -3.630
INTRA:                   0.000
UNBOUND:                 0.000

$$$$

     RDKit          3D

104110  0  0  0  0  0  0  0  0999 V2000
   24.0096    9.6438   29.3434 C   0  0  0  0  0  0  0  0  0  0  0  0
   23.0582    8.8100   30.1907 C   0  0  0  0  0  0  0  0  0  0  0  0
   23.7777    8.7124   31.5318 C   0  0  0  0  0  0  0  0  0  0  0  0
   25.2699    8.6107   31.1830 C   0  0  2  0  0  0  0  0  0  0  0  0
   25.3764    9.0467   29.6995 C   0  0  2  0  0  0  0  0  0  0  0  0
   25.6847    7.2347   31.2268 O   0  0  0  0  0  0  0  0  0  0  0  0
   26.8880    6.9927   31.7824 C   0  0  0  0  0  0  0  0  0  0  0  0
   27.3130    5.7846   31.3282 N   0  0  0  0  0  0  0  0  0  0  0  0
   27.4980    7.7320   32.5323 O   0  0  0  0  0  0  0  0  0  0  0  0
   28.6790    5.3140   31.5342 C   0  0  2  0  0  0  0  0  0  0  0  0
   29.5117    5.6846   30.2725 C   0  0  0  0  0  0  0  0  0  0  0  0
   28.7306    3.7764   31.8728 C   0  0  0  0  0  0  0  0  0  0  0  0
   27.8638    2.9162   30.9255 C   0  0  0  0  0  0  0  0  0  0  0  0
   28.2162    3.5627   33.3192 C   0  0  0  0  0  0  0  0  0  0  0  0
   30.1826    3.2452   31.8111 C   0  0  0  0  0  0  0  0  0  0  0  0
   29.4061    5.1022   29.1950 O   0  0  0  0  0  0  0  0  0  0  0  0
   30.3470    6.7929   30.4381 N   0  0  0  0  0  0  0  0  0  0  0  0
   30.8622    8.9654   29.5076 C   0  0  1  0  0  0  0  0  0  0  0  0
   29.7544    8.0924   30.1361 C   0  0  0  0  0  0  0  0  0  0  0  0
   31.6626    6.7307   29.7981 C   0  0  1  0  0  0  0  0  0  0  0  0
   31.6995    7.8835   28.8075 C   0  0  0  0  0  0  0  0  0  0  0  0
   30.2598    9.9258   28.6310 O   0  0  0  0  0  0  0  0  0  0  0  0
   31.1569   10.8384   28.1527 C   0  0  0  0  0  0  0  0  0  0  0  0
   32.0591   10.3606   27.2727 N   0  0  0  0  0  0  0  0  0  0  0  0
   32.9203   11.2343   26.7356 C   0  0  0  0  0  0  0  0  0  0  0  0
   32.8501   12.6081   27.0465 C   0  0  0  0  0  0  0  0  0  0  0  0
   31.9134   13.0876   27.8912 N   0  0  0  0  0  0  0  0  0  0  0  0
   31.0580   12.1871   28.4622 C   0  0  0  0  0  0  0  0  0  0  0  0
   33.7719   13.4710   26.4641 C   0  0  0  0  0  0  0  0  0  0  0  0
   34.7502   13.0106   25.5784 C   0  0  0  0  0  0  0  0  0  0  0  0
   34.8166   11.6574   25.2763 C   0  0  0  0  0  0  0  0  0  0  0  0
   33.8932   10.7835   25.8502 C   0  0  0  0  0  0  0  0  0  0  0  0
   30.0817   12.6715   29.5265 C   0  0  0  0  0  0  0  0  0  0  0  0
   28.6322   12.3200   29.2571 C   0  0  0  0  0  0  0  0  0  0  0  0
   27.8460   11.6363   30.1032 C   0  0  0  0  0  0  0  0  0  0  0  0
   26.4351   11.2214   29.8156 C   0  0  0  0  0  0  0  0  0  0  0  0
   26.5031    9.8581   29.4216 O   0  0  0  0  0  0  0  0  0  0  0  0
   30.1242   14.0318   29.6784 F   0  0  0  0  0  0  0  0  0  0  0  0
   30.4439   12.1881   30.7584 F   0  0  0  0  0  0  0  0  0  0  0  0
   32.6687    6.9150   30.9452 C   0  0  0  0  0  0  0  0  0  0  0  0
   32.8928    5.7901   31.7121 N   0  0  0  0  0  0  0  0  0  0  0  0
   33.1791    7.9948   31.2477 O   0  0  0  0  0  0  0  0  0  0  0  0
   33.6977    5.8603   32.9220 C   0  0  2  0  0  0  0  0  0  0  0  0
   33.2251    5.0822   34.1453 C   0  0  0  0  0  0  0  0  0  0  0  0
   33.0745    6.5715   34.1281 C   0  0  1  0  0  0  0  0  0  0  0  0
   35.1895    6.0089   32.6982 C   0  0  0  0  0  0  0  0  0  0  0  0
   35.5709    7.2075   32.0731 N   0  0  0  0  0  0  0  0  0  0  0  0
   35.9824    5.1490   33.0463 O   0  0  0  0  0  0  0  0  0  0  0  0
   36.6767    7.1645   30.8330 S   0  0  0  0  0  0  0  0  0  0  0  0
   38.3117    6.8384   31.5226 C   0  0  0  0  0  0  0  0  0  0  0  0
   36.7172    8.5100   30.3021 O   0  0  0  0  0  0  0  0  0  0  0  0
   36.2866    6.0607   29.9745 O   0  0  0  0  0  0  0  0  0  0  0  0
   38.7112    7.8139   32.5713 C   0  0  0  0  0  0  0  0  0  0  0  0
   38.7415    5.4002   31.5769 C   0  0  0  0  0  0  0  0  0  0  0  0
   39.3096    6.3123   30.5271 C   0  0  0  0  0  0  0  0  0  0  0  0
   33.8650    7.4120   35.0641 C   0  0  0  0  0  0  0  0  0  0  0  0
   33.0688    7.7490   36.1151 F   0  0  0  0  0  0  0  0  0  0  0  0
   34.9042    6.7069   35.5780 F   0  0  0  0  0  0  0  0  0  0  0  0
   23.8015    9.5596   28.2679 H   0  0  0  0  0  0  0  0  0  0  0  0
   23.9343   10.6997   29.6260 H   0  0  0  0  0  0  0  0  0  0  0  0
   22.9508    7.8117   29.7547 H   0  0  0  0  0  0  0  0  0  0  0  0
   22.0637    9.2524   30.2889 H   0  0  0  0  0  0  0  0  0  0  0  0
   23.4234    7.8697   32.1283 H   0  0  0  0  0  0  0  0  0  0  0  0
   23.6109    9.6313   32.1029 H   0  0  0  0  0  0  0  0  0  0  0  0
   25.8506    9.2311   31.8783 H   0  0  0  0  0  0  0  0  0  0  0  0
   25.5323    8.1490   29.0801 H   0  0  0  0  0  0  0  0  0  0  0  0
   26.7851    5.4385   30.5399 H   0  0  0  0  0  0  0  0  0  0  0  0
   29.1148    5.8573   32.3853 H   0  0  0  0  0  0  0  0  0  0  0  0
   26.7954    3.1607   31.0083 H   0  0  0  0  0  0  0  0  0  0  0  0
   27.9771    1.8509   31.1706 H   0  0  0  0  0  0  0  0  0  0  0  0
   28.1515    3.0350   29.8753 H   0  0  0  0  0  0  0  0  0  0  0  0
   28.8414    4.0915   34.0466 H   0  0  0  0  0  0  0  0  0  0  0  0
   27.1952    3.9424   33.4336 H   0  0  0  0  0  0  0  0  0  0  0  0
   28.2185    2.5005   33.5926 H   0  0  0  0  0  0  0  0  0  0  0  0
   30.5855    3.2720   30.7910 H   0  0  0  0  0  0  0  0  0  0  0  0
   30.2295    2.2015   32.1494 H   0  0  0  0  0  0  0  0  0  0  0  0
   30.8461    3.8301   32.4591 H   0  0  0  0  0  0  0  0  0  0  0  0
   31.4289    9.4847   30.2989 H   0  0  0  0  0  0  0  0  0  0  0  0
   29.3527    8.5422   31.0463 H   0  0  0  0  0  0  0  0  0  0  0  0
   28.9300    7.9725   29.4258 H   0  0  0  0  0  0  0  0  0  0  0  0
   31.8479    5.7714   29.3062 H   0  0  0  0  0  0  0  0  0  0  0  0
   32.7267    8.1998   28.5821 H   0  0  0  0  0  0  0  0  0  0  0  0
   31.2298    7.5917   27.8595 H   0  0  0  0  0  0  0  0  0  0  0  0
   33.7443   14.5233   26.7208 H   0  0  0  0  0  0  0  0  0  0  0  0
   35.4610   13.7006   25.1184 H   0  0  0  0  0  0  0  0  0  0  0  0
   35.5762   11.2761   24.5948 H   0  0  0  0  0  0  0  0  0  0  0  0
   33.9330    9.7233   25.6151 H   0  0  0  0  0  0  0  0  0  0  0  0
   28.2386   12.5978   28.2838 H   0  0  0  0  0  0  0  0  0  0  0  0
   28.2168   11.3379   31.0782 H   0  0  0  0  0  0  0  0  0  0  0  0
   26.0053   11.8219   29.0013 H   0  0  0  0  0  0  0  0  0  0  0  0
   25.8491   11.3503   30.7295 H   0  0  0  0  0  0  0  0  0  0  0  0
   32.7026    4.8730   31.3130 H   0  0  0  0  0  0  0  0  0  0  0  0
   33.9682    4.6373   34.8030 H   0  0  0  0  0  0  0  0  0  0  0  0
   32.3254    4.4968   34.0740 H   0  0  0  0  0  0  0  0  0  0  0  0
   32.0867    6.9906   33.9776 H   0  0  0  0  0  0  0  0  0  0  0  0
   34.8021    7.8441   31.8267 H   0  0  0  0  0  0  0  0  0  0  0  0
   38.6881    8.8391   32.2018 H   0  0  0  0  0  0  0  0  0  0  0  0
   38.0571    7.7438   33.4465 H   0  0  0  0  0  0  0  0  0  0  0  0
   39.7307    7.6043   32.9170 H   0  0  0  0  0  0  0  0  0  0  0  0
   39.3865    5.0740   32.3832 H   0  0  0  0  0  0  0  0  0  0  0  0
   38.0220    4.6396   31.2901 H   0  0  0  0  0  0  0  0  0  0  0  0
   40.3489    6.6054   30.6250 H   0  0  0  0  0  0  0  0  0  0  0  0
   39.0049    6.1580   29.4930 H   0  0  0  0  0  0  0  0  0  0  0  0
   34.2366    8.3241   34.5875 H   0  0  0  0  0  0  0  0  0  0  0  0
  1  2  1  0
  2  3  1  0
  4  3  1  0
  4  5  1  0
  5  1  1  0
  4  6  1  0
  6  7  1  0
  7  8  1  0
  7  9  2  0
  8 10  1  0
 10 11  1  0
 10 12  1  0
 12 13  1  0
 12 14  1  0
 12 15  1  0
 11 16  2  0
 11 17  1  0
 19 17  1  0
 17 20  1  0
 18 19  1  0
 20 21  1  0
 18 21  1  0
 18 22  1  0
 22 23  1  0
 23 24  2  0
 28 23  1  0
 24 25  1  0
 26 27  1  0
 27 28  2  0
 26 29  1  0
 25 26  2  0
 32 25  1  0
 29 30  2  0
 30 31  1  0
 31 32  2  0
 28 33  1  0
 33 34  1  0
 34 35  2  0
 35 36  1  0
 36 37  1  0
  5 37  1  0
 33 38  1  0
 33 39  1  0
 20 40  1  0
 40 41  1  0
 40 42  2  0
 43 41  1  6
 43 44  1  0
 45 43  1  0
 44 45  1  0
 43 46  1  0
 46 47  1  0
 46 48  2  0
 47 49  1  0
 49 50  1  0
 49 51  2  0
 49 52  2  0
 50 53  1  0
 50 54  1  0
 55 50  1  0
 54 55  1  0
 45 56  1  0
 56 57  1  0
 56 58  1  0
  1 59  1  0
  1 60  1  0
  2 61  1  0
  2 62  1  0
  3 63  1  0
  3 64  1  0
  4 65  1  1
  5 66  1  6
  8 67  1  0
 10 68  1  1
 13 69  1  0
 13 70  1  0
 13 71  1  0
 14 72  1  0
 14 73  1  0
 14 74  1  0
 15 75  1  0
 15 76  1  0
 15 77  1  0
 18 78  1  1
 19 79  1  0
 19 80  1  0
 20 81  1  6
 21 82  1  0
 21 83  1  0
 29 84  1  0
 30 85  1  0
 31 86  1  0
 32 87  1  0
 34 88  1  0
 35 89  1  0
 36 90  1  0
 36 91  1  0
 41 92  1  0
 44 93  1  0
 44 94  1  0
 45 95  1  1
 47 96  1  0
 53 97  1  0
 53 98  1  0
 53 99  1  0
 54100  1  0
 54101  1  0
 55102  1  0
 55103  1  0
 56104  1  0
M  END
> <Uni-Dock RESULT> 
ENERGY=   -3.628  LOWER_BOUND=    3.512  UPPER_BOUND=    8.385
INTER + INTRA:          -3.628
INTER:                  -3.628
INTRA:                   0.000
UNBOUND:                 0.000

$$$$

     RDKit          3D

104110  0  0  0  0  0  0  0  0999 V2000
   23.6826    4.0505   33.9746 C   0  0  0  0  0  0  0  0  0  0  0  0
   22.3636    4.8053   34.0699 C   0  0  0  0  0  0  0  0  0  0  0  0
   22.3133    5.5887   32.7624 C   0  0  0  0  0  0  0  0  0  0  0  0
   23.7658    6.0019   32.4830 C   0  0  2  0  0  0  0  0  0  0  0  0
   24.6320    5.1166   33.4148 C   0  0  2  0  0  0  0  0  0  0  0  0
   23.9743    7.3583   32.9118 O   0  0  0  0  0  0  0  0  0  0  0  0
   24.7169    8.1330   32.0971 C   0  0  0  0  0  0  0  0  0  0  0  0
   25.1961    9.1656   32.8392 N   0  0  0  0  0  0  0  0  0  0  0  0
   24.9423    7.9318   30.9183 O   0  0  0  0  0  0  0  0  0  0  0  0
   26.2309   10.0659   32.3405 C   0  0  2  0  0  0  0  0  0  0  0  0
   27.6089    9.5363   32.8336 C   0  0  0  0  0  0  0  0  0  0  0  0
   25.9647   11.5618   32.7564 C   0  0  0  0  0  0  0  0  0  0  0  0
   25.6037   11.7219   34.2508 C   0  0  0  0  0  0  0  0  0  0  0  0
   24.7851   12.1147   31.9168 C   0  0  0  0  0  0  0  0  0  0  0  0
   27.2005   12.4455   32.4629 C   0  0  0  0  0  0  0  0  0  0  0  0
   27.9961    9.6329   33.9964 O   0  0  0  0  0  0  0  0  0  0  0  0
   28.3522    8.8671   31.8574 N   0  0  0  0  0  0  0  0  0  0  0  0
   29.4601    6.7682   31.3903 C   0  0  1  0  0  0  0  0  0  0  0  0
   28.1106    7.4322   31.7398 C   0  0  0  0  0  0  0  0  0  0  0  0
   29.7998    9.0879   31.8617 C   0  0  1  0  0  0  0  0  0  0  0  0
   30.4290    7.7250   32.1026 C   0  0  0  0  0  0  0  0  0  0  0  0
   29.4625    5.4240   31.8871 O   0  0  0  0  0  0  0  0  0  0  0  0
   30.5594    4.7156   31.4855 C   0  0  0  0  0  0  0  0  0  0  0  0
   31.7296    5.0934   32.0373 N   0  0  0  0  0  0  0  0  0  0  0  0
   32.8209    4.3874   31.7145 C   0  0  0  0  0  0  0  0  0  0  0  0
   32.7346    3.2637   30.8668 C   0  0  0  0  0  0  0  0  0  0  0  0
   31.5522    2.8612   30.3562 N   0  0  0  0  0  0  0  0  0  0  0  0
   30.4466    3.6048   30.6620 C   0  0  0  0  0  0  0  0  0  0  0  0
   33.8996    2.5692   30.5604 C   0  0  0  0  0  0  0  0  0  0  0  0
   35.1401    2.9525   31.0780 C   0  0  0  0  0  0  0  0  0  0  0  0
   35.2206    4.0601   31.9108 C   0  0  0  0  0  0  0  0  0  0  0  0
   34.0574    4.7608   32.2296 C   0  0  0  0  0  0  0  0  0  0  0  0
   29.1219    3.2649   29.9912 C   0  0  0  0  0  0  0  0  0  0  0  0
   27.9697    3.0433   30.9506 C   0  0  0  0  0  0  0  0  0  0  0  0
   26.8081    3.7148   30.9114 C   0  0  0  0  0  0  0  0  0  0  0  0
   25.6923    3.5543   31.8986 C   0  0  0  0  0  0  0  0  0  0  0  0
   25.8187    4.6384   32.8083 O   0  0  0  0  0  0  0  0  0  0  0  0
   29.2104    2.1299   29.2302 F   0  0  0  0  0  0  0  0  0  0  0  0
   28.7807    4.2427   29.0912 F   0  0  0  0  0  0  0  0  0  0  0  0
   30.1193    9.6387   30.4629 C   0  0  0  0  0  0  0  0  0  0  0  0
   29.8289   10.9752   30.2809 N   0  0  0  0  0  0  0  0  0  0  0  0
   30.5115    8.9461   29.5224 O   0  0  0  0  0  0  0  0  0  0  0  0
   29.9328   11.5889   28.9659 C   0  0  2  0  0  0  0  0  0  0  0  0
   28.8470   12.5732   28.5447 C   0  0  0  0  0  0  0  0  0  0  0  0
   28.8643   11.2054   27.9363 C   0  0  1  0  0  0  0  0  0  0  0  0
   31.3465   11.8256   28.4730 C   0  0  0  0  0  0  0  0  0  0  0  0
   32.0970   10.6567   28.2645 N   0  0  0  0  0  0  0  0  0  0  0  0
   31.7795   12.9486   28.2716 O   0  0  0  0  0  0  0  0  0  0  0  0
   33.6618   10.5823   28.8200 S   0  0  0  0  0  0  0  0  0  0  0  0
   34.7034   11.6091   27.7635 C   0  0  0  0  0  0  0  0  0  0  0  0
   34.0848    9.2150   28.6072 O   0  0  0  0  0  0  0  0  0  0  0  0
   33.6463   11.1329   30.1632 O   0  0  0  0  0  0  0  0  0  0  0  0
   34.6211   11.2431   26.3248 C   0  0  0  0  0  0  0  0  0  0  0  0
   34.9138   13.0289   28.2065 C   0  0  0  0  0  0  0  0  0  0  0  0
   36.0089   12.0170   28.3904 C   0  0  0  0  0  0  0  0  0  0  0  0
   29.1630   11.0358   26.4908 C   0  0  0  0  0  0  0  0  0  0  0  0
   27.9867   10.8754   25.8255 F   0  0  0  0  0  0  0  0  0  0  0  0
   29.7412   12.1554   25.9878 F   0  0  0  0  0  0  0  0  0  0  0  0
   24.0266    3.6767   34.9488 H   0  0  0  0  0  0  0  0  0  0  0  0
   23.5762    3.1959   33.2972 H   0  0  0  0  0  0  0  0  0  0  0  0
   22.3933    5.4990   34.9161 H   0  0  0  0  0  0  0  0  0  0  0  0
   21.4969    4.1507   34.1906 H   0  0  0  0  0  0  0  0  0  0  0  0
   21.6335    6.4408   32.8194 H   0  0  0  0  0  0  0  0  0  0  0  0
   21.9724    4.9311   31.9562 H   0  0  0  0  0  0  0  0  0  0  0  0
   23.9817    5.8773   31.4136 H   0  0  0  0  0  0  0  0  0  0  0  0
   24.9893    5.7348   34.2539 H   0  0  0  0  0  0  0  0  0  0  0  0
   25.0974    9.0302   33.8350 H   0  0  0  0  0  0  0  0  0  0  0  0
   26.2374   10.0219   31.2417 H   0  0  0  0  0  0  0  0  0  0  0  0
   24.6623   11.2144   34.5042 H   0  0  0  0  0  0  0  0  0  0  0  0
   25.4811   12.7854   34.4993 H   0  0  0  0  0  0  0  0  0  0  0  0
   26.3828   11.3268   34.9117 H   0  0  0  0  0  0  0  0  0  0  0  0
   25.0150   12.0960   30.8460 H   0  0  0  0  0  0  0  0  0  0  0  0
   23.8816   11.5133   32.0641 H   0  0  0  0  0  0  0  0  0  0  0  0
   24.5528   13.1522   32.1862 H   0  0  0  0  0  0  0  0  0  0  0  0
   28.0556   12.1771   33.0958 H   0  0  0  0  0  0  0  0  0  0  0  0
   26.9764   13.5033   32.6546 H   0  0  0  0  0  0  0  0  0  0  0  0
   27.5080   12.3603   31.4139 H   0  0  0  0  0  0  0  0  0  0  0  0
   29.6070    6.7632   30.2970 H   0  0  0  0  0  0  0  0  0  0  0  0
   27.3554    7.2402   30.9750 H   0  0  0  0  0  0  0  0  0  0  0  0
   27.7381    7.0358   32.6899 H   0  0  0  0  0  0  0  0  0  0  0  0
   30.1137    9.8151   32.6162 H   0  0  0  0  0  0  0  0  0  0  0  0
   31.4576    7.6732   31.7217 H   0  0  0  0  0  0  0  0  0  0  0  0
   30.4646    7.5018   33.1767 H   0  0  0  0  0  0  0  0  0  0  0  0
   33.8470    1.7229   29.8859 H   0  0  0  0  0  0  0  0  0  0  0  0
   36.0461    2.3913   30.8390 H   0  0  0  0  0  0  0  0  0  0  0  0
   36.1785    4.3810   32.3186 H   0  0  0  0  0  0  0  0  0  0  0  0
   34.1091    5.6254   32.8858 H   0  0  0  0  0  0  0  0  0  0  0  0
   28.1366    2.3306   31.7528 H   0  0  0  0  0  0  0  0  0  0  0  0
   26.6187    4.4395   30.1265 H   0  0  0  0  0  0  0  0  0  0  0  0
   25.7795    2.6025   32.4416 H   0  0  0  0  0  0  0  0  0  0  0  0
   24.7460    3.5920   31.3525 H   0  0  0  0  0  0  0  0  0  0  0  0
   29.7764   11.5855   31.0941 H   0  0  0  0  0  0  0  0  0  0  0  0
   29.1225   13.4255   27.9280 H   0  0  0  0  0  0  0  0  0  0  0  0
   28.0501   12.7947   29.2326 H   0  0  0  0  0  0  0  0  0  0  0  0
   28.1241   10.4843   28.2620 H   0  0  0  0  0  0  0  0  0  0  0  0
   31.6138    9.7747   28.4781 H   0  0  0  0  0  0  0  0  0  0  0  0
   34.8795   10.1975   26.1567 H   0  0  0  0  0  0  0  0  0  0  0  0
   33.6166   11.4223   25.9279 H   0  0  0  0  0  0  0  0  0  0  0  0
   35.3117   11.8586   25.7357 H   0  0  0  0  0  0  0  0  0  0  0  0
   35.0422   13.8001   27.4573 H   0  0  0  0  0  0  0  0  0  0  0  0
   34.3630   13.3820   29.0726 H   0  0  0  0  0  0  0  0  0  0  0  0
   36.8860   12.1054   27.7591 H   0  0  0  0  0  0  0  0  0  0  0  0
   36.2425   11.6910   29.4029 H   0  0  0  0  0  0  0  0  0  0  0  0
   29.8049   10.1704   26.3001 H   0  0  0  0  0  0  0  0  0  0  0  0
  1  2  1  0
  2  3  1  0
  4  3  1  0
  4  5  1  0
  5  1  1  0
  4  6  1  0
  6  7  1  0
  7  8  1  0
  7  9  2  0
  8 10  1  0
 10 11  1  0
 10 12  1  0
 12 13  1  0
 12 14  1  0
 12 15  1  0
 11 16  2  0
 11 17  1  0
 19 17  1  0
 17 20  1  0
 18 19  1  0
 20 21  1  0
 18 21  1  0
 18 22  1  0
 22 23  1  0
 23 24  2  0
 28 23  1  0
 24 25  1  0
 26 27  1  0
 27 28  2  0
 26 29  1  0
 25 26  2  0
 32 25  1  0
 29 30  2  0
 30 31  1  0
 31 32  2  0
 28 33  1  0
 33 34  1  0
 34 35  2  0
 35 36  1  0
 36 37  1  0
  5 37  1  0
 33 38  1  0
 33 39  1  0
 20 40  1  0
 40 41  1  0
 40 42  2  0
 43 41  1  6
 43 44  1  0
 45 43  1  0
 44 45  1  0
 43 46  1  0
 46 47  1  0
 46 48  2  0
 47 49  1  0
 49 50  1  0
 49 51  2  0
 49 52  2  0
 50 53  1  0
 50 54  1  0
 55 50  1  0
 54 55  1  0
 45 56  1  0
 56 57  1  0
 56 58  1  0
  1 59  1  0
  1 60  1  0
  2 61  1  0
  2 62  1  0
  3 63  1  0
  3 64  1  0
  4 65  1  1
  5 66  1  6
  8 67  1  0
 10 68  1  1
 13 69  1  0
 13 70  1  0
 13 71  1  0
 14 72  1  0
 14 73  1  0
 14 74  1  0
 15 75  1  0
 15 76  1  0
 15 77  1  0
 18 78  1  1
 19 79  1  0
 19 80  1  0
 20 81  1  6
 21 82  1  0
 21 83  1  0
 29 84  1  0
 30 85  1  0
 31 86  1  0
 32 87  1  0
 34 88  1  0
 35 89  1  0
 36 90  1  0
 36 91  1  0
 41 92  1  0
 44 93  1  0
 44 94  1  0
 45 95  1  1
 47 96  1  0
 53 97  1  0
 53 98  1  0
 53 99  1  0
 54100  1  0
 54101  1  0
 55102  1  0
 55103  1  0
 56104  1  0
M  END
> <Uni-Dock RESULT> 
ENERGY=   -3.584  LOWER_BOUND=    2.611  UPPER_BOUND=   10.273
INTER + INTRA:          -3.584
INTER:                  -3.584
INTRA:                   0.000
UNBOUND:                 0.000

$$$$

     RDKit          3D

104110  0  0  0  0  0  0  0  0999 V2000
   22.0837    5.7796   30.3704 C   0  0  0  0  0  0  0  0  0  0  0  0
   21.9442    4.7678   31.4996 C   0  0  0  0  0  0  0  0  0  0  0  0
   22.6282    5.4582   32.6749 C   0  0  0  0  0  0  0  0  0  0  0  0
   23.8109    6.2222   32.0617 C   0  0  2  0  0  0  0  0  0  0  0  0
   23.5295    6.2624   30.5381 C   0  0  2  0  0  0  0  0  0  0  0  0
   25.0180    5.4586   32.2260 O   0  0  0  0  0  0  0  0  0  0  0  0
   26.1208    6.1537   32.5667 C   0  0  0  0  0  0  0  0  0  0  0  0
   27.2001    5.4038   32.2213 N   0  0  0  0  0  0  0  0  0  0  0  0
   26.1485    7.2628   33.0667 O   0  0  0  0  0  0  0  0  0  0  0  0
   28.5554    5.9452   32.2250 C   0  0  2  0  0  0  0  0  0  0  0  0
   28.8812    6.4382   30.7851 C   0  0  0  0  0  0  0  0  0  0  0  0
   29.6066    4.9059   32.7695 C   0  0  0  0  0  0  0  0  0  0  0  0
   29.4507    3.5004   32.1456 C   0  0  0  0  0  0  0  0  0  0  0  0
   29.4318    4.7711   34.3037 C   0  0  0  0  0  0  0  0  0  0  0  0
   31.0518    5.3916   32.5058 C   0  0  0  0  0  0  0  0  0  0  0  0
   29.1183    5.6808   29.8462 O   0  0  0  0  0  0  0  0  0  0  0  0
   28.8101    7.8243   30.6204 N   0  0  0  0  0  0  0  0  0  0  0  0
   27.7481    9.5492   29.2984 C   0  0  1  0  0  0  0  0  0  0  0  0
   27.5030    8.3594   30.2515 C   0  0  0  0  0  0  0  0  0  0  0  0
   29.8170    8.4396   29.7533 C   0  0  1  0  0  0  0  0  0  0  0  0
   29.0464    9.0906   28.6159 C   0  0  0  0  0  0  0  0  0  0  0  0
   26.6212    9.6879   28.4239 O   0  0  0  0  0  0  0  0  0  0  0  0
   26.6886   10.8126   27.6516 C   0  0  0  0  0  0  0  0  0  0  0  0
   27.6362   10.8038   26.6931 N   0  0  0  0  0  0  0  0  0  0  0  0
   27.6981   11.8634   25.8764 C   0  0  0  0  0  0  0  0  0  0  0  0
   26.7741   12.9228   25.9895 C   0  0  0  0  0  0  0  0  0  0  0  0
   25.7972   12.9031   26.9201 N   0  0  0  0  0  0  0  0  0  0  0  0
   25.7588   11.8352   27.7726 C   0  0  0  0  0  0  0  0  0  0  0  0
   26.8867   14.0009   25.1187 C   0  0  0  0  0  0  0  0  0  0  0  0
   27.8807   14.0510   24.1373 C   0  0  0  0  0  0  0  0  0  0  0  0
   28.7889   13.0067   24.0305 C   0  0  0  0  0  0  0  0  0  0  0  0
   28.6819   11.9173   24.8950 C   0  0  0  0  0  0  0  0  0  0  0  0
   24.7606   11.8468   28.9232 C   0  0  0  0  0  0  0  0  0  0  0  0
   23.8694   10.6229   28.9951 C   0  0  0  0  0  0  0  0  0  0  0  0
   23.7587    9.8254   30.0690 C   0  0  0  0  0  0  0  0  0  0  0  0
   22.9368    8.5737   30.1252 C   0  0  0  0  0  0  0  0  0  0  0  0
   23.8479    7.5010   29.9304 O   0  0  0  0  0  0  0  0  0  0  0  0
   23.9224   12.9280   28.8622 F   0  0  0  0  0  0  0  0  0  0  0  0
   25.4158   12.0013   30.1187 F   0  0  0  0  0  0  0  0  0  0  0  0
   30.5266    9.4723   30.6433 C   0  0  0  0  0  0  0  0  0  0  0  0
   31.4657    8.9506   31.5090 N   0  0  0  0  0  0  0  0  0  0  0  0
   30.2340   10.6686   30.6787 O   0  0  0  0  0  0  0  0  0  0  0  0
   32.0991    9.7883   32.5158 C   0  0  2  0  0  0  0  0  0  0  0  0
   32.3086    9.2037   33.9085 C   0  0  0  0  0  0  0  0  0  0  0  0
   31.2309   10.2220   33.7019 C   0  0  1  0  0  0  0  0  0  0  0  0
   33.1266   10.7692   31.9872 C   0  0  0  0  0  0  0  0  0  0  0  0
   32.6085   11.7545   31.1305 N   0  0  0  0  0  0  0  0  0  0  0  0
   34.3048   10.6983   32.2971 O   0  0  0  0  0  0  0  0  0  0  0  0
   33.4106   12.1118   29.7192 S   0  0  0  0  0  0  0  0  0  0  0  0
   34.9037   13.0427   30.1185 C   0  0  0  0  0  0  0  0  0  0  0  0
   32.5433   13.0185   28.9986 O   0  0  0  0  0  0  0  0  0  0  0  0
   33.7800   10.8399   29.1247 O   0  0  0  0  0  0  0  0  0  0  0  0
   34.6348   14.2695   30.9145 C   0  0  0  0  0  0  0  0  0  0  0  0
   36.1630   12.2442   30.2991 C   0  0  0  0  0  0  0  0  0  0  0  0
   35.9491   13.0295   29.0365 C   0  0  0  0  0  0  0  0  0  0  0  0
   31.3407   11.5627   34.3326 C   0  0  0  0  0  0  0  0  0  0  0  0
   30.5741   11.5722   35.4570 F   0  0  0  0  0  0  0  0  0  0  0  0
   32.6154   11.7995   34.7329 F   0  0  0  0  0  0  0  0  0  0  0  0
   21.9210    5.3324   29.3801 H   0  0  0  0  0  0  0  0  0  0  0  0
   21.3596    6.5910   30.5038 H   0  0  0  0  0  0  0  0  0  0  0  0
   22.4836    3.8501   31.2444 H   0  0  0  0  0  0  0  0  0  0  0  0
   20.9066    4.5073   31.7230 H   0  0  0  0  0  0  0  0  0  0  0  0
   22.9353    4.7495   33.4461 H   0  0  0  0  0  0  0  0  0  0  0  0
   21.9386    6.1789   33.1260 H   0  0  0  0  0  0  0  0  0  0  0  0
   23.8901    7.2113   32.5320 H   0  0  0  0  0  0  0  0  0  0  0  0
   24.1944    5.5394   30.0391 H   0  0  0  0  0  0  0  0  0  0  0  0
   26.9788    4.6308   31.6103 H   0  0  0  0  0  0  0  0  0  0  0  0
   28.5826    6.8238   32.8859 H   0  0  0  0  0  0  0  0  0  0  0  0
   28.4838    3.0424   32.3976 H   0  0  0  0  0  0  0  0  0  0  0  0
   30.2385    2.8308   32.5181 H   0  0  0  0  0  0  0  0  0  0  0  0
   29.5358    3.5180   31.0537 H   0  0  0  0  0  0  0  0  0  0  0  0
   29.6057    5.7266   34.8100 H   0  0  0  0  0  0  0  0  0  0  0  0
   28.4153    4.4511   34.5571 H   0  0  0  0  0  0  0  0  0  0  0  0
   30.1346    4.0419   34.7247 H   0  0  0  0  0  0  0  0  0  0  0  0
   31.2857    5.4186   31.4342 H   0  0  0  0  0  0  0  0  0  0  0  0
   31.7802    4.7191   32.9783 H   0  0  0  0  0  0  0  0  0  0  0  0
   31.2144    6.3939   32.9194 H   0  0  0  0  0  0  0  0  0  0  0  0
   27.8872   10.4766   29.8793 H   0  0  0  0  0  0  0  0  0  0  0  0
   26.9561    8.6640   31.1461 H   0  0  0  0  0  0  0  0  0  0  0  0
   26.9140    7.5909   29.7404 H   0  0  0  0  0  0  0  0  0  0  0  0
   30.5511    7.7189   29.3814 H   0  0  0  0  0  0  0  0  0  0  0  0
   29.6118    9.9093   28.1511 H   0  0  0  0  0  0  0  0  0  0  0  0
   28.8257    8.3563   27.8306 H   0  0  0  0  0  0  0  0  0  0  0  0
   26.1998   14.8330   25.2182 H   0  0  0  0  0  0  0  0  0  0  0  0
   27.9510   14.8982   23.4517 H   0  0  0  0  0  0  0  0  0  0  0  0
   29.5765   13.0292   23.2781 H   0  0  0  0  0  0  0  0  0  0  0  0
   29.3842   11.0920   24.8152 H   0  0  0  0  0  0  0  0  0  0  0  0
   23.3372   10.3563   28.0867 H   0  0  0  0  0  0  0  0  0  0  0  0
   24.2869   10.0629   30.9865 H   0  0  0  0  0  0  0  0  0  0  0  0
   22.1773    8.5642   29.3306 H   0  0  0  0  0  0  0  0  0  0  0  0
   22.4572    8.5247   31.1064 H   0  0  0  0  0  0  0  0  0  0  0  0
   31.8916    8.0512   31.2937 H   0  0  0  0  0  0  0  0  0  0  0  0
   33.1977    9.4863   34.4674 H   0  0  0  0  0  0  0  0  0  0  0  0
   31.9980    8.1918   34.1002 H   0  0  0  0  0  0  0  0  0  0  0  0
   30.1999    9.8891   33.6862 H   0  0  0  0  0  0  0  0  0  0  0  0
   31.5985   11.6972   30.9472 H   0  0  0  0  0  0  0  0  0  0  0  0
   33.9348   14.9353   30.4098 H   0  0  0  0  0  0  0  0  0  0  0  0
   34.2299   14.0202   31.9007 H   0  0  0  0  0  0  0  0  0  0  0  0
   35.5653   14.8252   31.0826 H   0  0  0  0  0  0  0  0  0  0  0  0
   36.9088   12.5904   31.0039 H   0  0  0  0  0  0  0  0  0  0  0  0
   36.0910   11.1614   30.2726 H   0  0  0  0  0  0  0  0  0  0  0  0
   36.5563   13.9151   28.8864 H   0  0  0  0  0  0  0  0  0  0  0  0
   35.7604   12.4799   28.1154 H   0  0  0  0  0  0  0  0  0  0  0  0
   31.0084   12.3626   33.6640 H   0  0  0  0  0  0  0  0  0  0  0  0
  1  2  1  0
  2  3  1  0
  4  3  1  0
  4  5  1  0
  5  1  1  0
  4  6  1  0
  6  7  1  0
  7  8  1  0
  7  9  2  0
  8 10  1  0
 10 11  1  0
 10 12  1  0
 12 13  1  0
 12 14  1  0
 12 15  1  0
 11 16  2  0
 11 17  1  0
 19 17  1  0
 17 20  1  0
 18 19  1  0
 20 21  1  0
 18 21  1  0
 18 22  1  0
 22 23  1  0
 23 24  2  0
 28 23  1  0
 24 25  1  0
 26 27  1  0
 27 28  2  0
 26 29  1  0
 25 26  2  0
 32 25  1  0
 29 30  2  0
 30 31  1  0
 31 32  2  0
 28 33  1  0
 33 34  1  0
 34 35  2  0
 35 36  1  0
 36 37  1  0
  5 37  1  0
 33 38  1  0
 33 39  1  0
 20 40  1  0
 40 41  1  0
 40 42  2  0
 43 41  1  6
 43 44  1  0
 45 43  1  0
 44 45  1  0
 43 46  1  0
 46 47  1  0
 46 48  2  0
 47 49  1  0
 49 50  1  0
 49 51  2  0
 49 52  2  0
 50 53  1  0
 50 54  1  0
 55 50  1  0
 54 55  1  0
 45 56  1  0
 56 57  1  0
 56 58  1  0
  1 59  1  0
  1 60  1  0
  2 61  1  0
  2 62  1  0
  3 63  1  0
  3 64  1  0
  4 65  1  1
  5 66  1  6
  8 67  1  0
 10 68  1  1
 13 69  1  0
 13 70  1  0
 13 71  1  0
 14 72  1  0
 14 73  1  0
 14 74  1  0
 15 75  1  0
 15 76  1  0
 15 77  1  0
 18 78  1  1
 19 79  1  0
 19 80  1  0
 20 81  1  6
 21 82  1  0
 21 83  1  0
 29 84  1  0
 30 85  1  0
 31 86  1  0
 32 87  1  0
 34 88  1  0
 35 89  1  0
 36 90  1  0
 36 91  1  0
 41 92  1  0
 44 93  1  0
 44 94  1  0
 45 95  1  1
 47 96  1  0
 53 97  1  0
 53 98  1  0
 53 99  1  0
 54100  1  0
 54101  1  0
 55102  1  0
 55103  1  0
 56104  1  0
M  END
> <Uni-Dock RESULT> 
ENERGY=   -3.580  LOWER_BOUND=    3.636  UPPER_BOUND=    8.692
INTER + INTRA:          -3.580
INTER:                  -3.580
INTRA:                   0.000
UNBOUND:                 0.000

$$$$
