
     RDKit          3D

104110  0  0  0  0  0  0  0  0999 V2000
   38.8584    8.4257   31.6155 C   0  0  0  0  0  0  0  0  0  0  0  0
   39.4781    9.1428   30.4212 C   0  0  0  0  0  0  0  0  0  0  0  0
   38.8792   10.5495   30.4176 C   0  0  0  0  0  0  0  0  0  0  0  0
   37.7271   10.5048   31.4279 C   0  0  2  0  0  0  0  0  0  0  0  0
   37.4545    9.0107   31.6940 C   0  0  2  0  0  0  0  0  0  0  0  0
   36.5921   11.3048   31.0496 O   0  0  0  0  0  0  0  0  0  0  0  0
   35.8577   10.9470   29.9721 C   0  0  0  0  0  0  0  0  0  0  0  0
   34.7866   11.7940   29.8694 N   0  0  0  0  0  0  0  0  0  0  0  0
   36.0982   10.0059   29.2365 O   0  0  0  0  0  0  0  0  0  0  0  0
   33.5515   11.4086   29.1421 C   0  0  2  0  0  0  0  0  0  0  0  0
   32.9320   10.2850   30.0637 C   0  0  0  0  0  0  0  0  0  0  0  0
   33.7584   11.3485   27.5848 C   0  0  0  0  0  0  0  0  0  0  0  0
   34.9054   12.2994   27.1322 C   0  0  0  0  0  0  0  0  0  0  0  0
   34.0885    9.9421   27.0417 C   0  0  0  0  0  0  0  0  0  0  0  0
   32.5139   11.9405   26.8762 C   0  0  0  0  0  0  0  0  0  0  0  0
   33.2919   10.2761   31.2595 O   0  0  0  0  0  0  0  0  0  0  0  0
   31.9721    9.3707   29.7110 N   0  0  0  0  0  0  0  0  0  0  0  0
   30.7872    7.3084   30.0232 C   0  0  1  0  0  0  0  0  0  0  0  0
   31.5330    8.4361   30.7400 C   0  0  0  0  0  0  0  0  0  0  0  0
   31.0852    9.2491   28.5599 C   0  0  1  0  0  0  0  0  0  0  0  0
   30.7474    7.7571   28.5550 C   0  0  0  0  0  0  0  0  0  0  0  0
   31.5226    6.0787   30.0526 O   0  0  0  0  0  0  0  0  0  0  0  0
   31.5505    5.4958   31.2927 C   0  0  0  0  0  0  0  0  0  0  0  0
   30.3545    5.3319   31.9074 N   0  0  0  0  0  0  0  0  0  0  0  0
   30.3627    4.6710   33.0800 C   0  0  0  0  0  0  0  0  0  0  0  0
   31.5651    4.1730   33.6376 C   0  0  0  0  0  0  0  0  0  0  0  0
   32.7495    4.3515   33.0199 N   0  0  0  0  0  0  0  0  0  0  0  0
   32.7451    5.0316   31.8277 C   0  0  0  0  0  0  0  0  0  0  0  0
   31.5159    3.4878   34.8457 C   0  0  0  0  0  0  0  0  0  0  0  0
   30.3117    3.2872   35.5215 C   0  0  0  0  0  0  0  0  0  0  0  0
   29.1345    3.7899   34.9821 C   0  0  0  0  0  0  0  0  0  0  0  0
   29.1695    4.4701   33.7655 C   0  0  0  0  0  0  0  0  0  0  0  0
   34.0731    5.2738   31.1129 C   0  0  0  0  0  0  0  0  0  0  0  0
   35.1487    5.7655   32.0612 C   0  0  0  0  0  0  0  0  0  0  0  0
   35.3331    7.0475   32.4338 C   0  0  0  0  0  0  0  0  0  0  0  0
   36.4620    7.5139   33.3009 C   0  0  0  0  0  0  0  0  0  0  0  0
   36.8513    8.8460   32.9762 O   0  0  0  0  0  0  0  0  0  0  0  0
   33.9929    6.1651   30.0764 F   0  0  0  0  0  0  0  0  0  0  0  0
   34.5245    4.1229   30.5237 F   0  0  0  0  0  0  0  0  0  0  0  0
   29.8715   10.1957   28.7443 C   0  0  0  0  0  0  0  0  0  0  0  0
   28.7111    9.8535   28.0828 N   0  0  0  0  0  0  0  0  0  0  0  0
   29.9593   11.2664   29.3435 O   0  0  0  0  0  0  0  0  0  0  0  0
   27.4563   10.5917   28.2634 C   0  0  2  0  0  0  0  0  0  0  0  0
   26.8884   10.7463   29.6710 C   0  0  0  0  0  0  0  0  0  0  0  0
   26.2784    9.7341   28.7451 C   0  0  1  0  0  0  0  0  0  0  0  0
   27.2010   11.7451   27.2944 C   0  0  0  0  0  0  0  0  0  0  0  0
   28.3361   12.2055   26.6099 N   0  0  0  0  0  0  0  0  0  0  0  0
   26.0900   12.2287   27.1294 O   0  0  0  0  0  0  0  0  0  0  0  0
   28.3249   12.1203   24.9423 S   0  0  0  0  0  0  0  0  0  0  0  0
   27.5637   13.6015   24.2300 C   0  0  0  0  0  0  0  0  0  0  0  0
   27.5048   10.9777   24.5919 O   0  0  0  0  0  0  0  0  0  0  0  0
   29.7221   12.1345   24.5588 O   0  0  0  0  0  0  0  0  0  0  0  0
   26.8149   13.3176   22.9762 C   0  0  0  0  0  0  0  0  0  0  0  0
   27.1411   14.6864   25.1853 C   0  0  0  0  0  0  0  0  0  0  0  0
   28.3991   14.8556   24.3720 C   0  0  0  0  0  0  0  0  0  0  0  0
   24.8919    9.8984   28.2213 C   0  0  0  0  0  0  0  0  0  0  0  0
   24.0753    9.0767   28.9318 F   0  0  0  0  0  0  0  0  0  0  0  0
   24.8592    9.4500   26.9416 F   0  0  0  0  0  0  0  0  0  0  0  0
   39.4175    8.6322   32.5341 H   0  0  0  0  0  0  0  0  0  0  0  0
   38.8457    7.3409   31.4818 H   0  0  0  0  0  0  0  0  0  0  0  0
   39.2001    8.6185   29.4974 H   0  0  0  0  0  0  0  0  0  0  0  0
   40.5699    9.1614   30.4762 H   0  0  0  0  0  0  0  0  0  0  0  0
   39.6241   11.2835   30.7430 H   0  0  0  0  0  0  0  0  0  0  0  0
   38.5717   10.8441   29.4110 H   0  0  0  0  0  0  0  0  0  0  0  0
   38.0805   10.9510   32.3685 H   0  0  0  0  0  0  0  0  0  0  0  0
   36.8153    8.5718   30.9265 H   0  0  0  0  0  0  0  0  0  0  0  0
   34.6386   12.2710   30.7500 H   0  0  0  0  0  0  0  0  0  0  0  0
   32.8918   12.2691   29.3317 H   0  0  0  0  0  0  0  0  0  0  0  0
   34.7662   13.3132   27.5256 H   0  0  0  0  0  0  0  0  0  0  0  0
   35.8901   11.9467   27.4546 H   0  0  0  0  0  0  0  0  0  0  0  0
   34.9394   12.3763   26.0410 H   0  0  0  0  0  0  0  0  0  0  0  0
   33.6755    9.7917   26.0403 H   0  0  0  0  0  0  0  0  0  0  0  0
   33.7178    9.1359   27.6769 H   0  0  0  0  0  0  0  0  0  0  0  0
   35.1682    9.7848   26.9474 H   0  0  0  0  0  0  0  0  0  0  0  0
   32.3543   12.9856   27.1711 H   0  0  0  0  0  0  0  0  0  0  0  0
   32.6354   11.9272   25.7930 H   0  0  0  0  0  0  0  0  0  0  0  0
   31.5935   11.4150   27.0961 H   0  0  0  0  0  0  0  0  0  0  0  0
   29.7646    7.1848   30.4057 H   0  0  0  0  0  0  0  0  0  0  0  0
   30.8427    8.9847   31.3930 H   0  0  0  0  0  0  0  0  0  0  0  0
   32.3795    8.0867   31.3400 H   0  0  0  0  0  0  0  0  0  0  0  0
   31.5789    9.5139   27.6307 H   0  0  0  0  0  0  0  0  0  0  0  0
   31.5175    7.2205   27.9847 H   0  0  0  0  0  0  0  0  0  0  0  0
   29.7954    7.5056   28.0844 H   0  0  0  0  0  0  0  0  0  0  0  0
   32.4406    3.1101   35.2744 H   0  0  0  0  0  0  0  0  0  0  0  0
   30.2986    2.7551   36.4689 H   0  0  0  0  0  0  0  0  0  0  0  0
   28.1906    3.6570   35.5038 H   0  0  0  0  0  0  0  0  0  0  0  0
   28.2433    4.8515   33.3405 H   0  0  0  0  0  0  0  0  0  0  0  0
   35.8301    4.9932   32.4043 H   0  0  0  0  0  0  0  0  0  0  0  0
   34.6562    7.8248   32.0777 H   0  0  0  0  0  0  0  0  0  0  0  0
   37.3241    6.8381   33.2588 H   0  0  0  0  0  0  0  0  0  0  0  0
   36.1139    7.5376   34.3398 H   0  0  0  0  0  0  0  0  0  0  0  0
   28.6841    9.0701   27.4407 H   0  0  0  0  0  0  0  0  0  0  0  0
   26.3186   11.6377   29.9097 H   0  0  0  0  0  0  0  0  0  0  0  0
   27.4777   10.3861   30.5079 H   0  0  0  0  0  0  0  0  0  0  0  0
   26.4685    8.6865   28.9512 H   0  0  0  0  0  0  0  0  0  0  0  0
   29.2304   11.8752   26.9596 H   0  0  0  0  0  0  0  0  0  0  0  0
   27.4570   12.8164   22.2427 H   0  0  0  0  0  0  0  0  0  0  0  0
   25.9458   12.6807   23.1796 H   0  0  0  0  0  0  0  0  0  0  0  0
   26.4433   14.2399   22.5138 H   0  0  0  0  0  0  0  0  0  0  0  0
   26.2708   15.2853   24.9327 H   0  0  0  0  0  0  0  0  0  0  0  0
   27.2567   14.5524   26.2508 H   0  0  0  0  0  0  0  0  0  0  0  0
   28.3861   15.5691   23.5536 H   0  0  0  0  0  0  0  0  0  0  0  0
   29.3533   14.8027   24.8871 H   0  0  0  0  0  0  0  0  0  0  0  0
   24.4831   10.9087   28.2717 H   0  0  0  0  0  0  0  0  0  0  0  0
  1  2  1  0
  2  3  1  0
  4  3  1  0
  4  5  1  0
  5  1  1  0
  4  6  1  0
  6  7  1  0
  7  8  1  0
  7  9  2  0
  8 10  1  0
 10 11  1  0
 10 12  1  0
 12 13  1  0
 12 14  1  0
 12 15  1  0
 11 16  2  0
 11 17  1  0
 19 17  1  0
 17 20  1  0
 18 19  1  0
 20 21  1  0
 18 21  1  0
 18 22  1  0
 22 23  1  0
 23 24  2  0
 28 23  1  0
 24 25  1  0
 26 27  1  0
 27 28  2  0
 26 29  1  0
 25 26  2  0
 32 25  1  0
 29 30  2  0
 30 31  1  0
 31 32  2  0
 28 33  1  0
 33 34  1  0
 34 35  2  0
 35 36  1  0
 36 37  1  0
  5 37  1  0
 33 38  1  0
 33 39  1  0
 20 40  1  0
 40 41  1  0
 40 42  2  0
 43 41  1  6
 43 44  1  0
 45 43  1  0
 44 45  1  0
 43 46  1  0
 46 47  1  0
 46 48  2  0
 47 49  1  0
 49 50  1  0
 49 51  2  0
 49 52  2  0
 50 53  1  0
 50 54  1  0
 55 50  1  0
 54 55  1  0
 45 56  1  0
 56 57  1  0
 56 58  1  0
  1 59  1  0
  1 60  1  0
  2 61  1  0
  2 62  1  0
  3 63  1  0
  3 64  1  0
  4 65  1  1
  5 66  1  6
  8 67  1  0
 10 68  1  1
 13 69  1  0
 13 70  1  0
 13 71  1  0
 14 72  1  0
 14 73  1  0
 14 74  1  0
 15 75  1  0
 15 76  1  0
 15 77  1  0
 18 78  1  1
 19 79  1  0
 19 80  1  0
 20 81  1  6
 21 82  1  0
 21 83  1  0
 29 84  1  0
 30 85  1  0
 31 86  1  0
 32 87  1  0
 34 88  1  0
 35 89  1  0
 36 90  1  0
 36 91  1  0
 41 92  1  0
 44 93  1  0
 44 94  1  0
 45 95  1  6
 47 96  1  0
 53 97  1  0
 53 98  1  0
 53 99  1  0
 54100  1  0
 54101  1  0
 55102  1  0
 55103  1  0
 56104  1  0
M  END
> <Uni-Dock RESULT> 
ENERGY=   -4.361  LOWER_BOUND=    0.000  UPPER_BOUND=    0.000
INTER + INTRA:          -4.361
INTER:                  -4.361
INTRA:                   0.000
UNBOUND:                 0.000

$$$$

     RDKit          3D

104110  0  0  0  0  0  0  0  0999 V2000
   36.1215    2.9045   34.0670 C   0  0  0  0  0  0  0  0  0  0  0  0
   37.3867    3.5170   33.4766 C   0  0  0  0  0  0  0  0  0  0  0  0
   37.3222    5.0100   33.8000 C   0  0  0  0  0  0  0  0  0  0  0  0
   35.8968    5.2559   34.3081 C   0  0  2  0  0  0  0  0  0  0  0  0
   35.0836    4.0080   33.9097 C   0  0  2  0  0  0  0  0  0  0  0  0
   35.3514    6.5278   33.9134 O   0  0  0  0  0  0  0  0  0  0  0  0
   35.0849    6.7593   32.6080 C   0  0  0  0  0  0  0  0  0  0  0  0
   34.4888    7.9866   32.4921 N   0  0  0  0  0  0  0  0  0  0  0  0
   35.3120    5.9855   31.6947 O   0  0  0  0  0  0  0  0  0  0  0  0
   33.6388    8.3364   31.3267 C   0  0  2  0  0  0  0  0  0  0  0  0
   32.3646    7.4249   31.5296 C   0  0  0  0  0  0  0  0  0  0  0  0
   34.4689    8.5229   30.0047 C   0  0  0  0  0  0  0  0  0  0  0  0
   35.9320    8.9558   30.3150 C   0  0  0  0  0  0  0  0  0  0  0  0
   34.5429    7.2618   29.1179 C   0  0  0  0  0  0  0  0  0  0  0  0
   33.9087    9.7295   29.2101 C   0  0  0  0  0  0  0  0  0  0  0  0
   32.1485    7.0091   32.6871 O   0  0  0  0  0  0  0  0  0  0  0  0
   31.4195    7.1130   30.5854 N   0  0  0  0  0  0  0  0  0  0  0  0
   29.6372    5.7519   29.7339 C   0  0  1  0  0  0  0  0  0  0  0  0
   30.3105    6.2666   31.0081 C   0  0  0  0  0  0  0  0  0  0  0  0
   31.1298    7.6329   29.2541 C   0  0  1  0  0  0  0  0  0  0  0  0
   30.3794    6.4722   28.5986 C   0  0  0  0  0  0  0  0  0  0  0  0
   29.8614    4.3496   29.5406 O   0  0  0  0  0  0  0  0  0  0  0  0
   29.1659    3.5650   30.4231 C   0  0  0  0  0  0  0  0  0  0  0  0
   27.8374    3.8089   30.5271 N   0  0  0  0  0  0  0  0  0  0  0  0
   27.1300    2.9785   31.3158 C   0  0  0  0  0  0  0  0  0  0  0  0
   27.7495    1.9043   31.9993 C   0  0  0  0  0  0  0  0  0  0  0  0
   29.0739    1.6789   31.8943 N   0  0  0  0  0  0  0  0  0  0  0  0
   29.7990    2.5285   31.0966 C   0  0  0  0  0  0  0  0  0  0  0  0
   26.9706    1.0701   32.7923 C   0  0  0  0  0  0  0  0  0  0  0  0
   25.5972    1.2724   32.9339 C   0  0  0  0  0  0  0  0  0  0  0  0
   24.9927    2.3361   32.2760 C   0  0  0  0  0  0  0  0  0  0  0  0
   25.7617    3.1739   31.4693 C   0  0  0  0  0  0  0  0  0  0  0  0
   31.3069    2.3172   30.9748 C   0  0  0  0  0  0  0  0  0  0  0  0
   31.9597    2.0830   32.3227 C   0  0  0  0  0  0  0  0  0  0  0  0
   32.3555    3.0484   33.1757 C   0  0  0  0  0  0  0  0  0  0  0  0
   33.0806    2.7861   34.4599 C   0  0  0  0  0  0  0  0  0  0  0  0
   33.9672    3.8539   34.7843 O   0  0  0  0  0  0  0  0  0  0  0  0
   31.9666    3.3519   30.3670 F   0  0  0  0  0  0  0  0  0  0  0  0
   31.5834    1.2374   30.1791 F   0  0  0  0  0  0  0  0  0  0  0  0
   30.3202    8.9487   29.3815 C   0  0  0  0  0  0  0  0  0  0  0  0
   29.5184    9.2902   28.3130 N   0  0  0  0  0  0  0  0  0  0  0  0
   30.4702    9.7228   30.3256 O   0  0  0  0  0  0  0  0  0  0  0  0
   28.6104   10.4419   28.3480 C   0  0  2  0  0  0  0  0  0  0  0  0
   27.5694   10.5261   29.4602 C   0  0  0  0  0  0  0  0  0  0  0  0
   27.1377   10.0980   28.0876 C   0  0  1  0  0  0  0  0  0  0  0  0
   29.1749   11.7678   27.8403 C   0  0  0  0  0  0  0  0  0  0  0  0
   30.5748   11.8249   27.7643 N   0  0  0  0  0  0  0  0  0  0  0  0
   28.4584   12.7071   27.5244 O   0  0  0  0  0  0  0  0  0  0  0  0
   31.2605   12.1069   26.2681 S   0  0  0  0  0  0  0  0  0  0  0  0
   31.3887   13.8849   25.9468 C   0  0  0  0  0  0  0  0  0  0  0  0
   30.3611   11.5339   25.2863 O   0  0  0  0  0  0  0  0  0  0  0  0
   32.6120   11.5960   26.3750 O   0  0  0  0  0  0  0  0  0  0  0  0
   31.2094   14.2243   24.5095 C   0  0  0  0  0  0  0  0  0  0  0  0
   30.9575   14.8171   27.0483 C   0  0  0  0  0  0  0  0  0  0  0  0
   32.4260   14.5930   26.7914 C   0  0  0  0  0  0  0  0  0  0  0  0
   26.2436   10.9521   27.2541 C   0  0  0  0  0  0  0  0  0  0  0  0
   24.9886   10.4351   27.3205 F   0  0  0  0  0  0  0  0  0  0  0  0
   26.6294   10.8432   25.9584 F   0  0  0  0  0  0  0  0  0  0  0  0
   36.2612    2.6499   35.1228 H   0  0  0  0  0  0  0  0  0  0  0  0
   35.8291    1.9873   33.5493 H   0  0  0  0  0  0  0  0  0  0  0  0
   37.3874    3.3727   32.3881 H   0  0  0  0  0  0  0  0  0  0  0  0
   38.2917    3.0495   33.8736 H   0  0  0  0  0  0  0  0  0  0  0  0
   38.0408    5.2626   34.5869 H   0  0  0  0  0  0  0  0  0  0  0  0
   37.5900    5.6136   32.9291 H   0  0  0  0  0  0  0  0  0  0  0  0
   35.9282    5.2957   35.4063 H   0  0  0  0  0  0  0  0  0  0  0  0
   34.7380    4.0616   32.8763 H   0  0  0  0  0  0  0  0  0  0  0  0
   34.1319    8.2830   33.3918 H   0  0  0  0  0  0  0  0  0  0  0  0
   33.2683    9.3360   31.6007 H   0  0  0  0  0  0  0  0  0  0  0  0
   35.9614    9.8216   30.9867 H   0  0  0  0  0  0  0  0  0  0  0  0
   36.5147    8.1527   30.7772 H   0  0  0  0  0  0  0  0  0  0  0  0
   36.4571    9.2388   29.3973 H   0  0  0  0  0  0  0  0  0  0  0  0
   34.5800    7.5199   28.0559 H   0  0  0  0  0  0  0  0  0  0  0  0
   33.7022    6.5814   29.2638 H   0  0  0  0  0  0  0  0  0  0  0  0
   35.4473    6.6768   29.3161 H   0  0  0  0  0  0  0  0  0  0  0  0
   33.9732   10.6524   29.8005 H   0  0  0  0  0  0  0  0  0  0  0  0
   34.4760    9.8939   28.2939 H   0  0  0  0  0  0  0  0  0  0  0  0
   32.8709    9.6206   28.9222 H   0  0  0  0  0  0  0  0  0  0  0  0
   28.5685    6.0051   29.7034 H   0  0  0  0  0  0  0  0  0  0  0  0
   29.6160    6.9082   31.5646 H   0  0  0  0  0  0  0  0  0  0  0  0
   30.6571    5.4676   31.6714 H   0  0  0  0  0  0  0  0  0  0  0  0
   32.0323    7.8475   28.6913 H   0  0  0  0  0  0  0  0  0  0  0  0
   31.1094    5.7890   28.1439 H   0  0  0  0  0  0  0  0  0  0  0  0
   29.6995    6.7627   27.7959 H   0  0  0  0  0  0  0  0  0  0  0  0
   27.4486    0.2486   33.3197 H   0  0  0  0  0  0  0  0  0  0  0  0
   25.0096    0.6118   33.5656 H   0  0  0  0  0  0  0  0  0  0  0  0
   23.9274    2.5177   32.3890 H   0  0  0  0  0  0  0  0  0  0  0  0
   25.2820    3.9984   30.9460 H   0  0  0  0  0  0  0  0  0  0  0  0
   32.1456    1.0389   32.5546 H   0  0  0  0  0  0  0  0  0  0  0  0
   32.1806    4.0977   32.9357 H   0  0  0  0  0  0  0  0  0  0  0  0
   33.6162    1.8297   34.4461 H   0  0  0  0  0  0  0  0  0  0  0  0
   32.3441    2.7382   35.2701 H   0  0  0  0  0  0  0  0  0  0  0  0
   29.5282    8.7506   27.4553 H   0  0  0  0  0  0  0  0  0  0  0  0
   27.2634   11.5035   29.8168 H   0  0  0  0  0  0  0  0  0  0  0  0
   27.5927    9.7788   30.2467 H   0  0  0  0  0  0  0  0  0  0  0  0
   26.8813    9.0539   27.9448 H   0  0  0  0  0  0  0  0  0  0  0  0
   31.0762   11.0748   28.2303 H   0  0  0  0  0  0  0  0  0  0  0  0
   31.9129   13.6621   23.8846 H   0  0  0  0  0  0  0  0  0  0  0  0
   30.1873   13.9991   24.1826 H   0  0  0  0  0  0  0  0  0  0  0  0
   31.3841   15.2911   24.3250 H   0  0  0  0  0  0  0  0  0  0  0  0
   30.5184   15.7718   26.7731 H   0  0  0  0  0  0  0  0  0  0  0  0
   30.5522   14.4248   27.9694 H   0  0  0  0  0  0  0  0  0  0  0  0
   32.9925   15.3967   26.3310 H   0  0  0  0  0  0  0  0  0  0  0  0
   32.9932   14.0252   27.5226 H   0  0  0  0  0  0  0  0  0  0  0  0
   26.1924   12.0040   27.5395 H   0  0  0  0  0  0  0  0  0  0  0  0
  1  2  1  0
  2  3  1  0
  4  3  1  0
  4  5  1  0
  5  1  1  0
  4  6  1  0
  6  7  1  0
  7  8  1  0
  7  9  2  0
  8 10  1  0
 10 11  1  0
 10 12  1  0
 12 13  1  0
 12 14  1  0
 12 15  1  0
 11 16  2  0
 11 17  1  0
 19 17  1  0
 17 20  1  0
 18 19  1  0
 20 21  1  0
 18 21  1  0
 18 22  1  0
 22 23  1  0
 23 24  2  0
 28 23  1  0
 24 25  1  0
 26 27  1  0
 27 28  2  0
 26 29  1  0
 25 26  2  0
 32 25  1  0
 29 30  2  0
 30 31  1  0
 31 32  2  0
 28 33  1  0
 33 34  1  0
 34 35  2  0
 35 36  1  0
 36 37  1  0
  5 37  1  0
 33 38  1  0
 33 39  1  0
 20 40  1  0
 40 41  1  0
 40 42  2  0
 43 41  1  6
 43 44  1  0
 45 43  1  0
 44 45  1  0
 43 46  1  0
 46 47  1  0
 46 48  2  0
 47 49  1  0
 49 50  1  0
 49 51  2  0
 49 52  2  0
 50 53  1  0
 50 54  1  0
 55 50  1  0
 54 55  1  0
 45 56  1  0
 56 57  1  0
 56 58  1  0
  1 59  1  0
  1 60  1  0
  2 61  1  0
  2 62  1  0
  3 63  1  0
  3 64  1  0
  4 65  1  1
  5 66  1  6
  8 67  1  0
 10 68  1  1
 13 69  1  0
 13 70  1  0
 13 71  1  0
 14 72  1  0
 14 73  1  0
 14 74  1  0
 15 75  1  0
 15 76  1  0
 15 77  1  0
 18 78  1  1
 19 79  1  0
 19 80  1  0
 20 81  1  6
 21 82  1  0
 21 83  1  0
 29 84  1  0
 30 85  1  0
 31 86  1  0
 32 87  1  0
 34 88  1  0
 35 89  1  0
 36 90  1  0
 36 91  1  0
 41 92  1  0
 44 93  1  0
 44 94  1  0
 45 95  1  6
 47 96  1  0
 53 97  1  0
 53 98  1  0
 53 99  1  0
 54100  1  0
 54101  1  0
 55102  1  0
 55103  1  0
 56104  1  0
M  END
> <Uni-Dock RESULT> 
ENERGY=   -4.260  LOWER_BOUND=    2.805  UPPER_BOUND=    4.075
INTER + INTRA:          -4.260
INTER:                  -4.260
INTRA:                   0.000
UNBOUND:                 0.000

$$$$

     RDKit          3D

104110  0  0  0  0  0  0  0  0999 V2000
   35.7909   18.2755   22.0578 C   0  0  0  0  0  0  0  0  0  0  0  0
   35.6430   19.5244   22.9198 C   0  0  0  0  0  0  0  0  0  0  0  0
   35.8093   19.0595   24.3668 C   0  0  0  0  0  0  0  0  0  0  0  0
   35.7591   17.5282   24.3114 C   0  0  2  0  0  0  0  0  0  0  0  0
   35.1934   17.1727   22.9218 C   0  0  2  0  0  0  0  0  0  0  0  0
   35.1021   16.9279   25.4423 O   0  0  0  0  0  0  0  0  0  0  0  0
   33.7735   17.1131   25.6134 C   0  0  0  0  0  0  0  0  0  0  0  0
   33.3618   16.3742   26.6902 N   0  0  0  0  0  0  0  0  0  0  0  0
   33.0610   17.8010   24.9036 O   0  0  0  0  0  0  0  0  0  0  0  0
   31.9480   15.9538   26.8559 C   0  0  2  0  0  0  0  0  0  0  0  0
   31.7540   14.8950   25.6996 C   0  0  0  0  0  0  0  0  0  0  0  0
   30.9961   17.1537   27.2106 C   0  0  0  0  0  0  0  0  0  0  0  0
   31.7715   18.2914   27.9380 C   0  0  0  0  0  0  0  0  0  0  0  0
   30.2908   17.7866   25.9925 C   0  0  0  0  0  0  0  0  0  0  0  0
   29.9662   16.6974   28.2747 C   0  0  0  0  0  0  0  0  0  0  0  0
   32.7876   14.3590   25.2481 O   0  0  0  0  0  0  0  0  0  0  0  0
   30.5625   14.4359   25.1984 N   0  0  0  0  0  0  0  0  0  0  0  0
   29.2394   13.3830   23.4968 C   0  0  1  0  0  0  0  0  0  0  0  0
   30.6269   13.4355   24.1401 C   0  0  0  0  0  0  0  0  0  0  0  0
   29.1799   14.5537   25.6467 C   0  0  1  0  0  0  0  0  0  0  0  0
   28.3902   14.3317   24.3555 C   0  0  0  0  0  0  0  0  0  0  0  0
   29.2442   13.9289   22.1717 O   0  0  0  0  0  0  0  0  0  0  0  0
   29.8792   13.1267   21.2597 C   0  0  0  0  0  0  0  0  0  0  0  0
   29.4869   11.8307   21.2224 N   0  0  0  0  0  0  0  0  0  0  0  0
   30.0337   11.0606   20.2633 C   0  0  0  0  0  0  0  0  0  0  0  0
   30.9711   11.5856   19.3411 C   0  0  0  0  0  0  0  0  0  0  0  0
   31.3597   12.8748   19.3956 N   0  0  0  0  0  0  0  0  0  0  0  0
   30.8094   13.6605   20.3772 C   0  0  0  0  0  0  0  0  0  0  0  0
   31.4968   10.7495   18.3633 C   0  0  0  0  0  0  0  0  0  0  0  0
   31.1268    9.4069   18.2760 C   0  0  0  0  0  0  0  0  0  0  0  0
   30.2193    8.8884   19.1910 C   0  0  0  0  0  0  0  0  0  0  0  0
   29.6770    9.7197   20.1703 C   0  0  0  0  0  0  0  0  0  0  0  0
   31.2463   15.1203   20.4836 C   0  0  0  0  0  0  0  0  0  0  0  0
   32.7517   15.2723   20.3901 C   0  0  0  0  0  0  0  0  0  0  0  0
   33.6144   15.1372   21.4166 C   0  0  0  0  0  0  0  0  0  0  0  0
   35.0881   15.3837   21.3106 C   0  0  0  0  0  0  0  0  0  0  0  0
   35.6243   15.8677   22.5392 O   0  0  0  0  0  0  0  0  0  0  0  0
   30.8359   15.7417   21.6328 F   0  0  0  0  0  0  0  0  0  0  0  0
   30.6839   15.8697   19.4848 F   0  0  0  0  0  0  0  0  0  0  0  0
   28.9125   13.5147   26.7658 C   0  0  0  0  0  0  0  0  0  0  0  0
   27.6068   13.1048   26.9334 N   0  0  0  0  0  0  0  0  0  0  0  0
   29.7874   13.1595   27.5541 O   0  0  0  0  0  0  0  0  0  0  0  0
   27.2308   12.0414   27.8714 C   0  0  2  0  0  0  0  0  0  0  0  0
   27.8921   10.6730   27.7376 C   0  0  0  0  0  0  0  0  0  0  0  0
   26.4919   10.8597   27.2292 C   0  0  1  0  0  0  0  0  0  0  0  0
   26.8580   12.4835   29.2856 C   0  0  0  0  0  0  0  0  0  0  0  0
   27.2792   13.7763   29.6321 N   0  0  0  0  0  0  0  0  0  0  0  0
   26.2389   11.7629   30.0556 O   0  0  0  0  0  0  0  0  0  0  0  0
   26.1065   14.8890   30.0504 S   0  0  0  0  0  0  0  0  0  0  0  0
   25.7187   14.7783   31.8162 C   0  0  0  0  0  0  0  0  0  0  0  0
   24.9157   14.5358   29.3032 O   0  0  0  0  0  0  0  0  0  0  0  0
   26.7237   16.1814   29.8313 O   0  0  0  0  0  0  0  0  0  0  0  0
   24.2900   15.0701   32.1111 C   0  0  0  0  0  0  0  0  0  0  0  0
   26.5223   13.8056   32.6386 C   0  0  0  0  0  0  0  0  0  0  0  0
   26.8204   15.2809   32.7243 C   0  0  0  0  0  0  0  0  0  0  0  0
   25.3338   10.1813   27.8790 C   0  0  0  0  0  0  0  0  0  0  0  0
   24.9898    9.1131   27.1127 F   0  0  0  0  0  0  0  0  0  0  0  0
   24.2712   11.0237   27.8526 F   0  0  0  0  0  0  0  0  0  0  0  0
   36.8436   18.0696   21.8378 H   0  0  0  0  0  0  0  0  0  0  0  0
   35.2738   18.3741   21.0999 H   0  0  0  0  0  0  0  0  0  0  0  0
   34.6397   19.9475   22.7787 H   0  0  0  0  0  0  0  0  0  0  0  0
   36.3691   20.2961   22.6504 H   0  0  0  0  0  0  0  0  0  0  0  0
   36.7784   19.3806   24.7631 H   0  0  0  0  0  0  0  0  0  0  0  0
   35.0471   19.5025   25.0128 H   0  0  0  0  0  0  0  0  0  0  0  0
   36.7908   17.1512   24.3568 H   0  0  0  0  0  0  0  0  0  0  0  0
   34.1037   17.2217   22.9025 H   0  0  0  0  0  0  0  0  0  0  0  0
   34.0516   15.6654   26.9060 H   0  0  0  0  0  0  0  0  0  0  0  0
   31.9969   15.3234   27.7568 H   0  0  0  0  0  0  0  0  0  0  0  0
   32.3428   17.9072   28.7910 H   0  0  0  0  0  0  0  0  0  0  0  0
   32.4692   18.8105   27.2733 H   0  0  0  0  0  0  0  0  0  0  0  0
   31.0810   19.0479   28.3238 H   0  0  0  0  0  0  0  0  0  0  0  0
   29.2947   18.1553   26.2526 H   0  0  0  0  0  0  0  0  0  0  0  0
   30.1799   17.0990   25.1523 H   0  0  0  0  0  0  0  0  0  0  0  0
   30.8401   18.6525   25.6080 H   0  0  0  0  0  0  0  0  0  0  0  0
   30.4699   16.3636   29.1909 H   0  0  0  0  0  0  0  0  0  0  0  0
   29.3010   17.5149   28.5533 H   0  0  0  0  0  0  0  0  0  0  0  0
   29.3382   15.8766   27.9526 H   0  0  0  0  0  0  0  0  0  0  0  0
   28.8131   12.3707   23.5226 H   0  0  0  0  0  0  0  0  0  0  0  0
   30.8511   12.4764   24.6235 H   0  0  0  0  0  0  0  0  0  0  0  0
   31.4282   13.6657   23.4304 H   0  0  0  0  0  0  0  0  0  0  0  0
   28.9591   15.5389   26.0441 H   0  0  0  0  0  0  0  0  0  0  0  0
   28.2766   15.2942   23.8388 H   0  0  0  0  0  0  0  0  0  0  0  0
   27.3792   13.9465   24.4986 H   0  0  0  0  0  0  0  0  0  0  0  0
   32.2196   11.1533   17.6590 H   0  0  0  0  0  0  0  0  0  0  0  0
   31.5569    8.7702   17.5078 H   0  0  0  0  0  0  0  0  0  0  0  0
   29.9332    7.8411   19.1475 H   0  0  0  0  0  0  0  0  0  0  0  0
   28.9571    9.3124   20.8772 H   0  0  0  0  0  0  0  0  0  0  0  0
   33.1122   15.5599   19.4073 H   0  0  0  0  0  0  0  0  0  0  0  0
   33.2497   14.8617   22.4067 H   0  0  0  0  0  0  0  0  0  0  0  0
   35.3370   16.0621   20.4862 H   0  0  0  0  0  0  0  0  0  0  0  0
   35.5856   14.4279   21.1108 H   0  0  0  0  0  0  0  0  0  0  0  0
   26.8515   13.5290   26.4076 H   0  0  0  0  0  0  0  0  0  0  0  0
   28.0424   10.0756   28.6302 H   0  0  0  0  0  0  0  0  0  0  0  0
   28.6896   10.5538   27.0115 H   0  0  0  0  0  0  0  0  0  0  0  0
   26.3465   10.8798   26.1546 H   0  0  0  0  0  0  0  0  0  0  0  0
   27.9477   14.2097   29.0025 H   0  0  0  0  0  0  0  0  0  0  0  0
   23.9992   16.0467   31.7072 H   0  0  0  0  0  0  0  0  0  0  0  0
   23.6399   14.3003   31.6785 H   0  0  0  0  0  0  0  0  0  0  0  0
   24.0997   15.0897   33.1909 H   0  0  0  0  0  0  0  0  0  0  0  0
   26.0383   13.3202   33.4813 H   0  0  0  0  0  0  0  0  0  0  0  0
   27.2667   13.1782   32.1707 H   0  0  0  0  0  0  0  0  0  0  0  0
   26.5316   15.8087   33.6281 H   0  0  0  0  0  0  0  0  0  0  0  0
   27.7456   15.6430   32.2867 H   0  0  0  0  0  0  0  0  0  0  0  0
   25.5025    9.8276   28.8973 H   0  0  0  0  0  0  0  0  0  0  0  0
  1  2  1  0
  2  3  1  0
  4  3  1  0
  4  5  1  0
  5  1  1  0
  4  6  1  0
  6  7  1  0
  7  8  1  0
  7  9  2  0
  8 10  1  0
 10 11  1  0
 10 12  1  0
 12 13  1  0
 12 14  1  0
 12 15  1  0
 11 16  2  0
 11 17  1  0
 19 17  1  0
 17 20  1  0
 18 19  1  0
 20 21  1  0
 18 21  1  0
 18 22  1  0
 22 23  1  0
 23 24  2  0
 28 23  1  0
 24 25  1  0
 26 27  1  0
 27 28  2  0
 26 29  1  0
 25 26  2  0
 32 25  1  0
 29 30  2  0
 30 31  1  0
 31 32  2  0
 28 33  1  0
 33 34  1  0
 34 35  2  0
 35 36  1  0
 36 37  1  0
  5 37  1  0
 33 38  1  0
 33 39  1  0
 20 40  1  0
 40 41  1  0
 40 42  2  0
 43 41  1  6
 43 44  1  0
 45 43  1  0
 44 45  1  0
 43 46  1  0
 46 47  1  0
 46 48  2  0
 47 49  1  0
 49 50  1  0
 49 51  2  0
 49 52  2  0
 50 53  1  0
 50 54  1  0
 55 50  1  0
 54 55  1  0
 45 56  1  0
 56 57  1  0
 56 58  1  0
  1 59  1  0
  1 60  1  0
  2 61  1  0
  2 62  1  0
  3 63  1  0
  3 64  1  0
  4 65  1  1
  5 66  1  6
  8 67  1  0
 10 68  1  1
 13 69  1  0
 13 70  1  0
 13 71  1  0
 14 72  1  0
 14 73  1  0
 14 74  1  0
 15 75  1  0
 15 76  1  0
 15 77  1  0
 18 78  1  1
 19 79  1  0
 19 80  1  0
 20 81  1  6
 21 82  1  0
 21 83  1  0
 29 84  1  0
 30 85  1  0
 31 86  1  0
 32 87  1  0
 34 88  1  0
 35 89  1  0
 36 90  1  0
 36 91  1  0
 41 92  1  0
 44 93  1  0
 44 94  1  0
 45 95  1  6
 47 96  1  0
 53 97  1  0
 53 98  1  0
 53 99  1  0
 54100  1  0
 54101  1  0
 55102  1  0
 55103  1  0
 56104  1  0
M  END
> <Uni-Dock RESULT> 
ENERGY=   -4.188  LOWER_BOUND=    6.949  UPPER_BOUND=   10.260
INTER + INTRA:          -4.188
INTER:                  -4.188
INTRA:                   0.000
UNBOUND:                 0.000

$$$$

     RDKit          3D

104110  0  0  0  0  0  0  0  0999 V2000
   24.6229    5.3158   31.2903 C   0  0  0  0  0  0  0  0  0  0  0  0
   25.5739    4.1244   31.2655 C   0  0  0  0  0  0  0  0  0  0  0  0
   26.5996    4.3813   32.3698 C   0  0  0  0  0  0  0  0  0  0  0  0
   26.3810    5.8367   32.7988 C   0  0  2  0  0  0  0  0  0  0  0  0
   25.5189    6.4794   31.6937 C   0  0  2  0  0  0  0  0  0  0  0  0
   27.5945    6.5277   33.1467 O   0  0  0  0  0  0  0  0  0  0  0  0
   28.5065    6.7928   32.1840 C   0  0  0  0  0  0  0  0  0  0  0  0
   29.5195    7.5345   32.7307 N   0  0  0  0  0  0  0  0  0  0  0  0
   28.4192    6.4515   31.0177 O   0  0  0  0  0  0  0  0  0  0  0  0
   30.3954    8.3962   31.8980 C   0  0  2  0  0  0  0  0  0  0  0  0
   29.4218    9.5510   31.4351 C   0  0  0  0  0  0  0  0  0  0  0  0
   31.3787    7.5675   30.9937 C   0  0  0  0  0  0  0  0  0  0  0  0
   31.6855    6.1767   31.6231 C   0  0  0  0  0  0  0  0  0  0  0  0
   30.8654    7.3179   29.5598 C   0  0  0  0  0  0  0  0  0  0  0  0
   32.7667    8.2563   30.9755 C   0  0  0  0  0  0  0  0  0  0  0  0
   28.4008    9.7385   32.1294 O   0  0  0  0  0  0  0  0  0  0  0  0
   29.6232   10.4293   30.4008 N   0  0  0  0  0  0  0  0  0  0  0  0
   28.8411   12.0094   28.7741 C   0  0  1  0  0  0  0  0  0  0  0  0
   28.5917   11.4331   30.1696 C   0  0  0  0  0  0  0  0  0  0  0  0
   30.7830   10.7528   29.5781 C   0  0  1  0  0  0  0  0  0  0  0  0
   30.1448   11.3385   28.3172 C   0  0  0  0  0  0  0  0  0  0  0  0
   27.8292   11.6082   27.8420 O   0  0  0  0  0  0  0  0  0  0  0  0
   26.6219   12.2195   28.0595 C   0  0  0  0  0  0  0  0  0  0  0  0
   26.6417   13.5699   28.1647 N   0  0  0  0  0  0  0  0  0  0  0  0
   25.4499   14.1851   28.2784 C   0  0  0  0  0  0  0  0  0  0  0  0
   24.2389   13.4516   28.2856 C   0  0  0  0  0  0  0  0  0  0  0  0
   24.2343   12.1074   28.1897 N   0  0  0  0  0  0  0  0  0  0  0  0
   25.4486   11.4768   28.0811 C   0  0  0  0  0  0  0  0  0  0  0  0
   23.0350   14.1374   28.3942 C   0  0  0  0  0  0  0  0  0  0  0  0
   22.9953   15.5280   28.5028 C   0  0  0  0  0  0  0  0  0  0  0  0
   24.1845   16.2460   28.5118 C   0  0  0  0  0  0  0  0  0  0  0  0
   25.3983   15.5701   28.3931 C   0  0  0  0  0  0  0  0  0  0  0  0
   25.4817    9.9521   27.9957 C   0  0  0  0  0  0  0  0  0  0  0  0
   24.5778    9.3043   29.0260 C   0  0  0  0  0  0  0  0  0  0  0  0
   24.9118    9.0503   30.3066 C   0  0  0  0  0  0  0  0  0  0  0  0
   24.0280    8.3260   31.2752 C   0  0  0  0  0  0  0  0  0  0  0  0
   24.7923    7.5866   32.2241 O   0  0  0  0  0  0  0  0  0  0  0  0
   26.7322    9.4135   28.1418 F   0  0  0  0  0  0  0  0  0  0  0  0
   25.0821    9.5262   26.7569 F   0  0  0  0  0  0  0  0  0  0  0  0
   31.7096   11.7226   30.3553 C   0  0  0  0  0  0  0  0  0  0  0  0
   32.5275   12.5374   29.6016 N   0  0  0  0  0  0  0  0  0  0  0  0
   31.8135   11.6905   31.5806 O   0  0  0  0  0  0  0  0  0  0  0  0
   33.3645   13.5824   30.2014 C   0  0  2  0  0  0  0  0  0  0  0  0
   32.7028   14.6494   31.0681 C   0  0  0  0  0  0  0  0  0  0  0  0
   33.1009   14.9948   29.6624 C   0  0  1  0  0  0  0  0  0  0  0  0
   34.7864   13.1766   30.5858 C   0  0  0  0  0  0  0  0  0  0  0  0
   35.0023   11.7933   30.6803 N   0  0  0  0  0  0  0  0  0  0  0  0
   35.6683   13.9976   30.7949 O   0  0  0  0  0  0  0  0  0  0  0  0
   36.1504   11.1161   29.6745 S   0  0  0  0  0  0  0  0  0  0  0  0
   37.7948   11.2034   30.4287 C   0  0  0  0  0  0  0  0  0  0  0  0
   36.1646   11.9157   28.4656 O   0  0  0  0  0  0  0  0  0  0  0  0
   35.7943    9.7140   29.5930 O   0  0  0  0  0  0  0  0  0  0  0  0
   38.8782   11.3926   29.4269 C   0  0  0  0  0  0  0  0  0  0  0  0
   37.8852   11.7710   31.8209 C   0  0  0  0  0  0  0  0  0  0  0  0
   37.9816   10.2809   31.6140 C   0  0  0  0  0  0  0  0  0  0  0  0
   34.1937   15.9701   29.3832 C   0  0  0  0  0  0  0  0  0  0  0  0
   33.6215   17.1521   29.0336 F   0  0  0  0  0  0  0  0  0  0  0  0
   34.8815   15.5460   28.2939 F   0  0  0  0  0  0  0  0  0  0  0  0
   23.8235    5.1682   32.0240 H   0  0  0  0  0  0  0  0  0  0  0  0
   24.1455    5.4804   30.3209 H   0  0  0  0  0  0  0  0  0  0  0  0
   26.0794    4.0822   30.2917 H   0  0  0  0  0  0  0  0  0  0  0  0
   25.0469    3.1769   31.4067 H   0  0  0  0  0  0  0  0  0  0  0  0
   26.4196    3.7168   33.2216 H   0  0  0  0  0  0  0  0  0  0  0  0
   27.6142    4.1720   32.0214 H   0  0  0  0  0  0  0  0  0  0  0  0
   25.7875    5.8342   33.7242 H   0  0  0  0  0  0  0  0  0  0  0  0
   26.1231    6.8067   30.8463 H   0  0  0  0  0  0  0  0  0  0  0  0
   29.2138    7.9448   33.6041 H   0  0  0  0  0  0  0  0  0  0  0  0
   31.0198    8.8940   32.6554 H   0  0  0  0  0  0  0  0  0  0  0  0
   32.0092    6.2698   32.6663 H   0  0  0  0  0  0  0  0  0  0  0  0
   30.8187    5.5086   31.5991 H   0  0  0  0  0  0  0  0  0  0  0  0
   32.4886    5.6713   31.0777 H   0  0  0  0  0  0  0  0  0  0  0  0
   31.6870    7.2904   28.8386 H   0  0  0  0  0  0  0  0  0  0  0  0
   30.1518    8.0702   29.2195 H   0  0  0  0  0  0  0  0  0  0  0  0
   30.3564    6.3522   29.4714 H   0  0  0  0  0  0  0  0  0  0  0  0
   33.1866    8.3200   31.9876 H   0  0  0  0  0  0  0  0  0  0  0  0
   33.4761    7.6943   30.3680 H   0  0  0  0  0  0  0  0  0  0  0  0
   32.7494    9.2660   30.5858 H   0  0  0  0  0  0  0  0  0  0  0  0
   28.9689   13.1005   28.7976 H   0  0  0  0  0  0  0  0  0  0  0  0
   28.7336   12.2139   30.9272 H   0  0  0  0  0  0  0  0  0  0  0  0
   27.5919   11.0040   30.2919 H   0  0  0  0  0  0  0  0  0  0  0  0
   31.3613    9.8721   29.3185 H   0  0  0  0  0  0  0  0  0  0  0  0
   29.9141   10.5195   27.6227 H   0  0  0  0  0  0  0  0  0  0  0  0
   30.7800   12.0318   27.7634 H   0  0  0  0  0  0  0  0  0  0  0  0
   22.1066   13.5722   28.4040 H   0  0  0  0  0  0  0  0  0  0  0  0
   22.0425   16.0422   28.5944 H   0  0  0  0  0  0  0  0  0  0  0  0
   24.1721   17.3278   28.6125 H   0  0  0  0  0  0  0  0  0  0  0  0
   26.3267   16.1374   28.3883 H   0  0  0  0  0  0  0  0  0  0  0  0
   23.6109    8.9948   28.6416 H   0  0  0  0  0  0  0  0  0  0  0  0
   25.8887    9.3493   30.6882 H   0  0  0  0  0  0  0  0  0  0  0  0
   23.3047    7.6753   30.7701 H   0  0  0  0  0  0  0  0  0  0  0  0
   23.4590    9.0681   31.8466 H   0  0  0  0  0  0  0  0  0  0  0  0
   32.5797   12.4420   28.5941 H   0  0  0  0  0  0  0  0  0  0  0  0
   33.2677   15.0824   31.8864 H   0  0  0  0  0  0  0  0  0  0  0  0
   31.6456   14.5501   31.2920 H   0  0  0  0  0  0  0  0  0  0  0  0
   32.3087   15.1160   28.9317 H   0  0  0  0  0  0  0  0  0  0  0  0
   34.1693   11.2126   30.6823 H   0  0  0  0  0  0  0  0  0  0  0  0
   38.8410   10.6113   28.6590 H   0  0  0  0  0  0  0  0  0  0  0  0
   38.7899   12.3714   28.9406 H   0  0  0  0  0  0  0  0  0  0  0  0
   39.8689   11.3483   29.8949 H   0  0  0  0  0  0  0  0  0  0  0  0
   38.7813   12.3195   32.0966 H   0  0  0  0  0  0  0  0  0  0  0  0
   37.0017   12.1440   32.3178 H   0  0  0  0  0  0  0  0  0  0  0  0
   38.9511    9.8091   31.7418 H   0  0  0  0  0  0  0  0  0  0  0  0
   37.1513    9.6632   31.9423 H   0  0  0  0  0  0  0  0  0  0  0  0
   34.8830   16.1581   30.2079 H   0  0  0  0  0  0  0  0  0  0  0  0
  1  2  1  0
  2  3  1  0
  4  3  1  0
  4  5  1  0
  5  1  1  0
  4  6  1  0
  6  7  1  0
  7  8  1  0
  7  9  2  0
  8 10  1  0
 10 11  1  0
 10 12  1  0
 12 13  1  0
 12 14  1  0
 12 15  1  0
 11 16  2  0
 11 17  1  0
 19 17  1  0
 17 20  1  0
 18 19  1  0
 20 21  1  0
 18 21  1  0
 18 22  1  0
 22 23  1  0
 23 24  2  0
 28 23  1  0
 24 25  1  0
 26 27  1  0
 27 28  2  0
 26 29  1  0
 25 26  2  0
 32 25  1  0
 29 30  2  0
 30 31  1  0
 31 32  2  0
 28 33  1  0
 33 34  1  0
 34 35  2  0
 35 36  1  0
 36 37  1  0
  5 37  1  0
 33 38  1  0
 33 39  1  0
 20 40  1  0
 40 41  1  0
 40 42  2  0
 43 41  1  6
 43 44  1  0
 45 43  1  0
 44 45  1  0
 43 46  1  0
 46 47  1  0
 46 48  2  0
 47 49  1  0
 49 50  1  0
 49 51  2  0
 49 52  2  0
 50 53  1  0
 50 54  1  0
 55 50  1  0
 54 55  1  0
 45 56  1  0
 56 57  1  0
 56 58  1  0
  1 59  1  0
  1 60  1  0
  2 61  1  0
  2 62  1  0
  3 63  1  0
  3 64  1  0
  4 65  1  1
  5 66  1  6
  8 67  1  0
 10 68  1  1
 13 69  1  0
 13 70  1  0
 13 71  1  0
 14 72  1  0
 14 73  1  0
 14 74  1  0
 15 75  1  0
 15 76  1  0
 15 77  1  0
 18 78  1  1
 19 79  1  0
 19 80  1  0
 20 81  1  6
 21 82  1  0
 21 83  1  0
 29 84  1  0
 30 85  1  0
 31 86  1  0
 32 87  1  0
 34 88  1  0
 35 89  1  0
 36 90  1  0
 36 91  1  0
 41 92  1  0
 44 93  1  0
 44 94  1  0
 45 95  1  6
 47 96  1  0
 53 97  1  0
 53 98  1  0
 53 99  1  0
 54100  1  0
 54101  1  0
 55102  1  0
 55103  1  0
 56104  1  0
M  END
> <Uni-Dock RESULT> 
ENERGY=   -4.010  LOWER_BOUND=    3.679  UPPER_BOUND=   10.039
INTER + INTRA:          -4.010
INTER:                  -4.010
INTRA:                   0.000
UNBOUND:                 0.000

$$$$

     RDKit          3D

104110  0  0  0  0  0  0  0  0999 V2000
   26.1257   12.9352   26.7283 C   0  0  0  0  0  0  0  0  0  0  0  0
   27.1176   14.0930   26.7142 C   0  0  0  0  0  0  0  0  0  0  0  0
   28.3546   13.5789   25.9774 C   0  0  0  0  0  0  0  0  0  0  0  0
   28.1513   12.0650   25.8462 C   0  0  2  0  0  0  0  0  0  0  0  0
   27.0163   11.7035   26.8253 C   0  0  2  0  0  0  0  0  0  0  0  0
   29.3666   11.3037   25.9663 O   0  0  0  0  0  0  0  0  0  0  0  0
   30.0100   11.2638   27.1550 C   0  0  0  0  0  0  0  0  0  0  0  0
   31.0740   10.4083   27.0503 N   0  0  0  0  0  0  0  0  0  0  0  0
   29.6743   11.8682   28.1583 O   0  0  0  0  0  0  0  0  0  0  0  0
   31.6752    9.7583   28.2416 C   0  0  2  0  0  0  0  0  0  0  0  0
   30.5499    8.7498   28.7024 C   0  0  0  0  0  0  0  0  0  0  0  0
   32.4703   10.7680   29.1470 C   0  0  0  0  0  0  0  0  0  0  0  0
   33.0023   11.9718   28.3148 C   0  0  0  0  0  0  0  0  0  0  0  0
   31.6530   11.3484   30.3205 C   0  0  0  0  0  0  0  0  0  0  0  0
   33.7695   10.0928   29.6542 C   0  0  0  0  0  0  0  0  0  0  0  0
   29.7096    8.4128   27.8422 O   0  0  0  0  0  0  0  0  0  0  0  0
   30.4486    8.1353   29.9246 N   0  0  0  0  0  0  0  0  0  0  0  0
   29.2106    6.9831   31.6259 C   0  0  1  0  0  0  0  0  0  0  0  0
   29.3306    7.2202   30.1188 C   0  0  0  0  0  0  0  0  0  0  0  0
   31.3615    8.0045   31.0542 C   0  0  1  0  0  0  0  0  0  0  0  0
   30.4110    7.7331   32.2217 C   0  0  0  0  0  0  0  0  0  0  0  0
   28.0362    7.5975   32.1711 O   0  0  0  0  0  0  0  0  0  0  0  0
   26.8772    6.9607   31.8112 C   0  0  0  0  0  0  0  0  0  0  0  0
   26.8361    5.6228   32.0198 N   0  0  0  0  0  0  0  0  0  0  0  0
   25.6675    5.0063   31.7625 C   0  0  0  0  0  0  0  0  0  0  0  0
   24.5402    5.7263   31.2982 C   0  0  0  0  0  0  0  0  0  0  0  0
   24.5979    7.0558   31.0860 N   0  0  0  0  0  0  0  0  0  0  0  0
   25.7903    7.6860   31.3405 C   0  0  0  0  0  0  0  0  0  0  0  0
   23.3543    5.0424   31.0586 C   0  0  0  0  0  0  0  0  0  0  0  0
   23.2538    3.6650   31.2587 C   0  0  0  0  0  0  0  0  0  0  0  0
   24.3647    2.9565   31.6988 C   0  0  0  0  0  0  0  0  0  0  0  0
   25.5572    3.6331   31.9525 C   0  0  0  0  0  0  0  0  0  0  0  0
   25.8983    9.1884   31.0868 C   0  0  0  0  0  0  0  0  0  0  0  0
   25.3026    9.5844   29.7503 C   0  0  0  0  0  0  0  0  0  0  0  0
   25.9417    9.5308   28.5651 C   0  0  0  0  0  0  0  0  0  0  0  0
   25.3559   10.0156   27.2745 C   0  0  0  0  0  0  0  0  0  0  0  0
   26.3655   10.5083   26.3974 O   0  0  0  0  0  0  0  0  0  0  0  0
   27.1797    9.6695   31.1303 F   0  0  0  0  0  0  0  0  0  0  0  0
   25.2481    9.8939   32.0640 F   0  0  0  0  0  0  0  0  0  0  0  0
   32.3812    6.8739   30.7623 C   0  0  0  0  0  0  0  0  0  0  0  0
   32.9476    6.2515   31.8544 N   0  0  0  0  0  0  0  0  0  0  0  0
   32.7701    6.6189   29.6235 O   0  0  0  0  0  0  0  0  0  0  0  0
   33.8341    5.0898   31.7251 C   0  0  2  0  0  0  0  0  0  0  0  0
   33.3274    3.8548   30.9864 C   0  0  0  0  0  0  0  0  0  0  0  0
   33.3637    3.8437   32.4872 C   0  0  1  0  0  0  0  0  0  0  0  0
   35.3291    5.3850   31.6148 C   0  0  0  0  0  0  0  0  0  0  0  0
   35.6476    6.7066   31.2674 N   0  0  0  0  0  0  0  0  0  0  0  0
   36.1821    4.5318   31.8149 O   0  0  0  0  0  0  0  0  0  0  0  0
   36.5692    7.5916   32.3424 S   0  0  0  0  0  0  0  0  0  0  0  0
   38.3355    7.3196   32.0475 C   0  0  0  0  0  0  0  0  0  0  0  0
   36.2505    7.0956   33.6665 O   0  0  0  0  0  0  0  0  0  0  0  0
   36.2928    8.9765   32.0185 O   0  0  0  0  0  0  0  0  0  0  0  0
   39.1409    7.3616   33.2976 C   0  0  0  0  0  0  0  0  0  0  0  0
   38.7127    6.4427   30.8825 C   0  0  0  0  0  0  0  0  0  0  0  0
   38.8515    7.9393   30.7666 C   0  0  0  0  0  0  0  0  0  0  0  0
   34.2977    2.9527   33.2339 C   0  0  0  0  0  0  0  0  0  0  0  0
   33.5865    1.8887   33.6909 F   0  0  0  0  0  0  0  0  0  0  0  0
   34.7372    3.6142   34.3333 F   0  0  0  0  0  0  0  0  0  0  0  0
   25.5308   12.9133   25.8094 H   0  0  0  0  0  0  0  0  0  0  0  0
   25.4258   13.0043   27.5650 H   0  0  0  0  0  0  0  0  0  0  0  0
   27.3833   14.3574   27.7462 H   0  0  0  0  0  0  0  0  0  0  0  0
   26.6988   14.9851   26.2408 H   0  0  0  0  0  0  0  0  0  0  0  0
   28.4206   14.0278   24.9806 H   0  0  0  0  0  0  0  0  0  0  0  0
   29.2709   13.8566   26.5046 H   0  0  0  0  0  0  0  0  0  0  0  0
   27.7917   11.8560   24.8285 H   0  0  0  0  0  0  0  0  0  0  0  0
   27.3841   11.5785   27.8448 H   0  0  0  0  0  0  0  0  0  0  0  0
   30.9556    9.8078   26.2440 H   0  0  0  0  0  0  0  0  0  0  0  0
   32.4267    9.0933   27.7893 H   0  0  0  0  0  0  0  0  0  0  0  0
   33.5542   11.6359   27.4291 H   0  0  0  0  0  0  0  0  0  0  0  0
   32.1977   12.6330   27.9779 H   0  0  0  0  0  0  0  0  0  0  0  0
   33.6860   12.5848   28.9103 H   0  0  0  0  0  0  0  0  0  0  0  0
   32.2836   11.5375   31.1937 H   0  0  0  0  0  0  0  0  0  0  0  0
   30.8338   10.7010   30.6381 H   0  0  0  0  0  0  0  0  0  0  0  0
   31.1992   12.3117   30.0641 H   0  0  0  0  0  0  0  0  0  0  0  0
   34.4094    9.7922   28.8147 H   0  0  0  0  0  0  0  0  0  0  0  0
   34.3514   10.7760   30.2730 H   0  0  0  0  0  0  0  0  0  0  0  0
   33.5983    9.2019   30.2446 H   0  0  0  0  0  0  0  0  0  0  0  0
   29.2714    5.9158   31.8796 H   0  0  0  0  0  0  0  0  0  0  0  0
   29.5962    6.2833   29.6132 H   0  0  0  0  0  0  0  0  0  0  0  0
   28.4161    7.6158   29.6654 H   0  0  0  0  0  0  0  0  0  0  0  0
   31.9173    8.9173   31.2415 H   0  0  0  0  0  0  0  0  0  0  0  0
   30.0764    8.6929   32.6377 H   0  0  0  0  0  0  0  0  0  0  0  0
   30.8545    7.1835   33.0538 H   0  0  0  0  0  0  0  0  0  0  0  0
   22.4913    5.5961   30.6981 H   0  0  0  0  0  0  0  0  0  0  0  0
   22.3183    3.1502   31.0573 H   0  0  0  0  0  0  0  0  0  0  0  0
   24.3082    1.8811   31.8435 H   0  0  0  0  0  0  0  0  0  0  0  0
   26.4213    3.0761   32.3089 H   0  0  0  0  0  0  0  0  0  0  0  0
   24.2940    9.9817   29.8100 H   0  0  0  0  0  0  0  0  0  0  0  0
   26.9599    9.1444   28.5082 H   0  0  0  0  0  0  0  0  0  0  0  0
   24.5770   10.7710   27.4304 H   0  0  0  0  0  0  0  0  0  0  0  0
   24.8906    9.1647   26.7641 H   0  0  0  0  0  0  0  0  0  0  0  0
   32.7689    6.5786   32.7967 H   0  0  0  0  0  0  0  0  0  0  0  0
   34.0394    3.2391   30.4477 H   0  0  0  0  0  0  0  0  0  0  0  0
   32.3601    3.9064   30.4973 H   0  0  0  0  0  0  0  0  0  0  0  0
   32.4168    3.9015   33.0127 H   0  0  0  0  0  0  0  0  0  0  0  0
   34.8763    7.2767   30.9337 H   0  0  0  0  0  0  0  0  0  0  0  0
   38.9746    8.3006   33.8381 H   0  0  0  0  0  0  0  0  0  0  0  0
   38.8802    6.5237   33.9550 H   0  0  0  0  0  0  0  0  0  0  0  0
   40.2143    7.2888   33.0853 H   0  0  0  0  0  0  0  0  0  0  0  0
   39.6121    5.8389   30.9620 H   0  0  0  0  0  0  0  0  0  0  0  0
   37.9480    5.9703   30.2836 H   0  0  0  0  0  0  0  0  0  0  0  0
   39.8518    8.3617   30.7745 H   0  0  0  0  0  0  0  0  0  0  0  0
   38.1614    8.4692   30.1173 H   0  0  0  0  0  0  0  0  0  0  0  0
   35.1472    2.5730   32.6642 H   0  0  0  0  0  0  0  0  0  0  0  0
  1  2  1  0
  2  3  1  0
  4  3  1  0
  4  5  1  0
  5  1  1  0
  4  6  1  0
  6  7  1  0
  7  8  1  0
  7  9  2  0
  8 10  1  0
 10 11  1  0
 10 12  1  0
 12 13  1  0
 12 14  1  0
 12 15  1  0
 11 16  2  0
 11 17  1  0
 19 17  1  0
 17 20  1  0
 18 19  1  0
 20 21  1  0
 18 21  1  0
 18 22  1  0
 22 23  1  0
 23 24  2  0
 28 23  1  0
 24 25  1  0
 26 27  1  0
 27 28  2  0
 26 29  1  0
 25 26  2  0
 32 25  1  0
 29 30  2  0
 30 31  1  0
 31 32  2  0
 28 33  1  0
 33 34  1  0
 34 35  2  0
 35 36  1  0
 36 37  1  0
  5 37  1  0
 33 38  1  0
 33 39  1  0
 20 40  1  0
 40 41  1  0
 40 42  2  0
 43 41  1  6
 43 44  1  0
 45 43  1  0
 44 45  1  0
 43 46  1  0
 46 47  1  0
 46 48  2  0
 47 49  1  0
 49 50  1  0
 49 51  2  0
 49 52  2  0
 50 53  1  0
 50 54  1  0
 55 50  1  0
 54 55  1  0
 45 56  1  0
 56 57  1  0
 56 58  1  0
  1 59  1  0
  1 60  1  0
  2 61  1  0
  2 62  1  0
  3 63  1  0
  3 64  1  0
  4 65  1  1
  5 66  1  6
  8 67  1  0
 10 68  1  1
 13 69  1  0
 13 70  1  0
 13 71  1  0
 14 72  1  0
 14 73  1  0
 14 74  1  0
 15 75  1  0
 15 76  1  0
 15 77  1  0
 18 78  1  1
 19 79  1  0
 19 80  1  0
 20 81  1  6
 21 82  1  0
 21 83  1  0
 29 84  1  0
 30 85  1  0
 31 86  1  0
 32 87  1  0
 34 88  1  0
 35 89  1  0
 36 90  1  0
 36 91  1  0
 41 92  1  0
 44 93  1  0
 44 94  1  0
 45 95  1  6
 47 96  1  0
 53 97  1  0
 53 98  1  0
 53 99  1  0
 54100  1  0
 54101  1  0
 55102  1  0
 55103  1  0
 56104  1  0
M  END
> <Uni-Dock RESULT> 
ENERGY=   -3.973  LOWER_BOUND=    3.238  UPPER_BOUND=    9.344
INTER + INTRA:          -3.973
INTER:                  -3.973
INTRA:                   0.000
UNBOUND:                 0.000

$$$$

     RDKit          3D

104110  0  0  0  0  0  0  0  0999 V2000
   25.2644   15.6704   31.5332 C   0  0  0  0  0  0  0  0  0  0  0  0
   25.1359   17.1172   31.0696 C   0  0  0  0  0  0  0  0  0  0  0  0
   24.2370   17.0849   29.8332 C   0  0  0  0  0  0  0  0  0  0  0  0
   24.1139   15.6038   29.4572 C   0  0  2  0  0  0  0  0  0  0  0  0
   25.2281   14.8750   30.2349 C   0  0  2  0  0  0  0  0  0  0  0  0
   24.0642   15.3674   28.0385 O   0  0  0  0  0  0  0  0  0  0  0  0
   25.1581   15.6207   27.2848 C   0  0  0  0  0  0  0  0  0  0  0  0
   24.9041   15.2312   25.9968 N   0  0  0  0  0  0  0  0  0  0  0  0
   26.2044   16.0896   27.6969 O   0  0  0  0  0  0  0  0  0  0  0  0
   25.9980   14.9048   25.0482 C   0  0  2  0  0  0  0  0  0  0  0  0
   26.5888   13.5623   25.6349 C   0  0  0  0  0  0  0  0  0  0  0  0
   26.8047   16.1749   24.5925 C   0  0  0  0  0  0  0  0  0  0  0  0
   25.9259   17.4579   24.6702 C   0  0  0  0  0  0  0  0  0  0  0  0
   28.0825   16.4447   25.4151 C   0  0  0  0  0  0  0  0  0  0  0  0
   27.1291   16.0648   23.0813 C   0  0  0  0  0  0  0  0  0  0  0  0
   25.8415   12.8983   26.3835 O   0  0  0  0  0  0  0  0  0  0  0  0
   27.8057   13.0025   25.3391 N   0  0  0  0  0  0  0  0  0  0  0  0
   29.6391   11.5315   25.8182 C   0  0  1  0  0  0  0  0  0  0  0  0
   28.1324   11.7388   25.9884 C   0  0  0  0  0  0  0  0  0  0  0  0
   28.8045   13.2720   24.3114 C   0  0  1  0  0  0  0  0  0  0  0  0
   30.0826   12.7040   24.9310 C   0  0  0  0  0  0  0  0  0  0  0  0
   30.3411   11.6729   27.0596 O   0  0  0  0  0  0  0  0  0  0  0  0
   30.1275   10.6298   27.9225 C   0  0  0  0  0  0  0  0  0  0  0  0
   30.3222    9.3859   27.4224 N   0  0  0  0  0  0  0  0  0  0  0  0
   30.2118    8.3617   28.2888 C   0  0  0  0  0  0  0  0  0  0  0  0
   29.9083    8.5802   29.6544 C   0  0  0  0  0  0  0  0  0  0  0  0
   29.7076    9.8225   30.1366 N   0  0  0  0  0  0  0  0  0  0  0  0
   29.8123   10.8683   29.2538 C   0  0  0  0  0  0  0  0  0  0  0  0
   29.8169    7.4879   30.5088 C   0  0  0  0  0  0  0  0  0  0  0  0
   30.0104    6.1846   30.0491 C   0  0  0  0  0  0  0  0  0  0  0  0
   30.2923    5.9696   28.7060 C   0  0  0  0  0  0  0  0  0  0  0  0
   30.3968    7.0582   27.8410 C   0  0  0  0  0  0  0  0  0  0  0  0
   29.5662   12.2879   29.7612 C   0  0  0  0  0  0  0  0  0  0  0  0
   28.3243   12.3763   30.6259 C   0  0  0  0  0  0  0  0  0  0  0  0
   27.0651   12.5248   30.1693 C   0  0  0  0  0  0  0  0  0  0  0  0
   25.8686   12.7007   31.0532 C   0  0  0  0  0  0  0  0  0  0  0  0
   24.8735   13.5067   30.4275 O   0  0  0  0  0  0  0  0  0  0  0  0
   29.4481   13.2218   28.7666 F   0  0  0  0  0  0  0  0  0  0  0  0
   30.6291   12.7295   30.5033 F   0  0  0  0  0  0  0  0  0  0  0  0
   28.3671   12.6044   22.9824 C   0  0  0  0  0  0  0  0  0  0  0  0
   29.3677   12.2865   22.0887 N   0  0  0  0  0  0  0  0  0  0  0  0
   27.1841   12.4735   22.6720 O   0  0  0  0  0  0  0  0  0  0  0  0
   29.1085   11.5456   20.8493 C   0  0  2  0  0  0  0  0  0  0  0  0
   28.4264   10.1835   20.9339 C   0  0  0  0  0  0  0  0  0  0  0  0
   29.9093   10.2442   20.7078 C   0  0  1  0  0  0  0  0  0  0  0  0
   28.8077   12.3832   19.6074 C   0  0  0  0  0  0  0  0  0  0  0  0
   28.4388   13.7123   19.8648 N   0  0  0  0  0  0  0  0  0  0  0  0
   28.8835   11.9271   18.4752 O   0  0  0  0  0  0  0  0  0  0  0  0
   29.3955   14.9217   19.2242 S   0  0  0  0  0  0  0  0  0  0  0  0
   28.8688   15.3314   17.5403 C   0  0  0  0  0  0  0  0  0  0  0  0
   30.7434   14.3925   19.1599 O   0  0  0  0  0  0  0  0  0  0  0  0
   29.1285   16.0837   20.0474 O   0  0  0  0  0  0  0  0  0  0  0  0
   30.0034   15.7243   16.6619 C   0  0  0  0  0  0  0  0  0  0  0  0
   27.6532   14.6203   17.0063 C   0  0  0  0  0  0  0  0  0  0  0  0
   27.5396   16.0516   17.4658 C   0  0  0  0  0  0  0  0  0  0  0  0
   30.5159    9.8049   19.4183 C   0  0  0  0  0  0  0  0  0  0  0  0
   31.0481    8.5685   19.6051 F   0  0  0  0  0  0  0  0  0  0  0  0
   31.5569   10.6253   19.1306 F   0  0  0  0  0  0  0  0  0  0  0  0
   24.4309   15.3888   32.1850 H   0  0  0  0  0  0  0  0  0  0  0  0
   26.1862   15.4997   32.0952 H   0  0  0  0  0  0  0  0  0  0  0  0
   26.1276   17.5019   30.7976 H   0  0  0  0  0  0  0  0  0  0  0  0
   24.7328   17.7640   31.8535 H   0  0  0  0  0  0  0  0  0  0  0  0
   23.2461   17.4868   30.0697 H   0  0  0  0  0  0  0  0  0  0  0  0
   24.6435   17.7103   29.0343 H   0  0  0  0  0  0  0  0  0  0  0  0
   23.1493   15.2350   29.8344 H   0  0  0  0  0  0  0  0  0  0  0  0
   26.1891   14.9383   29.7222 H   0  0  0  0  0  0  0  0  0  0  0  0
   24.1124   14.6007   25.9770 H   0  0  0  0  0  0  0  0  0  0  0  0
   25.4428   14.5592   24.1629 H   0  0  0  0  0  0  0  0  0  0  0  0
   24.9714   17.3239   24.1480 H   0  0  0  0  0  0  0  0  0  0  0  0
   25.7056   17.7498   25.7019 H   0  0  0  0  0  0  0  0  0  0  0  0
   26.4348   18.3071   24.2038 H   0  0  0  0  0  0  0  0  0  0  0  0
   28.8681   16.8927   24.8003 H   0  0  0  0  0  0  0  0  0  0  0  0
   28.4959   15.5469   25.8776 H   0  0  0  0  0  0  0  0  0  0  0  0
   27.9001   17.1523   26.2309 H   0  0  0  0  0  0  0  0  0  0  0  0
   26.2092   15.9986   22.4861 H   0  0  0  0  0  0  0  0  0  0  0  0
   27.6753   16.9410   22.7320 H   0  0  0  0  0  0  0  0  0  0  0  0
   27.7252   15.1989   22.8232 H   0  0  0  0  0  0  0  0  0  0  0  0
   29.8687   10.5782   25.3226 H   0  0  0  0  0  0  0  0  0  0  0  0
   27.5844   10.9551   25.4507 H   0  0  0  0  0  0  0  0  0  0  0  0
   27.8076   11.7391   27.0338 H   0  0  0  0  0  0  0  0  0  0  0  0
   28.9293   14.3342   24.1280 H   0  0  0  0  0  0  0  0  0  0  0  0
   30.5512   13.4793   25.5520 H   0  0  0  0  0  0  0  0  0  0  0  0
   30.8424   12.3967   24.2104 H   0  0  0  0  0  0  0  0  0  0  0  0
   29.5795    7.6573   31.5559 H   0  0  0  0  0  0  0  0  0  0  0  0
   29.9264    5.3453   30.7340 H   0  0  0  0  0  0  0  0  0  0  0  0
   30.4293    4.9600   28.3284 H   0  0  0  0  0  0  0  0  0  0  0  0
   30.6300    6.8860   26.7923 H   0  0  0  0  0  0  0  0  0  0  0  0
   28.5204   12.3617   31.6936 H   0  0  0  0  0  0  0  0  0  0  0  0
   26.8706   12.5531   29.0967 H   0  0  0  0  0  0  0  0  0  0  0  0
   26.1347   13.1081   32.0355 H   0  0  0  0  0  0  0  0  0  0  0  0
   25.4123   11.7180   31.2181 H   0  0  0  0  0  0  0  0  0  0  0  0
   30.3294   12.5566   22.2589 H   0  0  0  0  0  0  0  0  0  0  0  0
   27.7913    9.8652   20.1144 H   0  0  0  0  0  0  0  0  0  0  0  0
   28.0686    9.8445   21.9006 H   0  0  0  0  0  0  0  0  0  0  0  0
   30.5548    9.9573   21.5307 H   0  0  0  0  0  0  0  0  0  0  0  0
   28.2162   13.9327   20.8307 H   0  0  0  0  0  0  0  0  0  0  0  0
   30.5731   16.5491   17.1052 H   0  0  0  0  0  0  0  0  0  0  0  0
   30.6783   14.8759   16.4977 H   0  0  0  0  0  0  0  0  0  0  0  0
   29.6516   16.0575   15.6781 H   0  0  0  0  0  0  0  0  0  0  0  0
   27.6066   14.4077   15.9421 H   0  0  0  0  0  0  0  0  0  0  0  0
   27.1533   13.8700   17.6010 H   0  0  0  0  0  0  0  0  0  0  0  0
   27.4222   16.8228   16.7106 H   0  0  0  0  0  0  0  0  0  0  0  0
   26.9930   16.2538   18.3818 H   0  0  0  0  0  0  0  0  0  0  0  0
   29.8352    9.7557   18.5670 H   0  0  0  0  0  0  0  0  0  0  0  0
  1  2  1  0
  2  3  1  0
  4  3  1  0
  4  5  1  0
  5  1  1  0
  4  6  1  0
  6  7  1  0
  7  8  1  0
  7  9  2  0
  8 10  1  0
 10 11  1  0
 10 12  1  0
 12 13  1  0
 12 14  1  0
 12 15  1  0
 11 16  2  0
 11 17  1  0
 19 17  1  0
 17 20  1  0
 18 19  1  0
 20 21  1  0
 18 21  1  0
 18 22  1  0
 22 23  1  0
 23 24  2  0
 28 23  1  0
 24 25  1  0
 26 27  1  0
 27 28  2  0
 26 29  1  0
 25 26  2  0
 32 25  1  0
 29 30  2  0
 30 31  1  0
 31 32  2  0
 28 33  1  0
 33 34  1  0
 34 35  2  0
 35 36  1  0
 36 37  1  0
  5 37  1  0
 33 38  1  0
 33 39  1  0
 20 40  1  0
 40 41  1  0
 40 42  2  0
 43 41  1  6
 43 44  1  0
 45 43  1  0
 44 45  1  0
 43 46  1  0
 46 47  1  0
 46 48  2  0
 47 49  1  0
 49 50  1  0
 49 51  2  0
 49 52  2  0
 50 53  1  0
 50 54  1  0
 55 50  1  0
 54 55  1  0
 45 56  1  0
 56 57  1  0
 56 58  1  0
  1 59  1  0
  1 60  1  0
  2 61  1  0
  2 62  1  0
  3 63  1  0
  3 64  1  0
  4 65  1  1
  5 66  1  6
  8 67  1  0
 10 68  1  1
 13 69  1  0
 13 70  1  0
 13 71  1  0
 14 72  1  0
 14 73  1  0
 14 74  1  0
 15 75  1  0
 15 76  1  0
 15 77  1  0
 18 78  1  1
 19 79  1  0
 19 80  1  0
 20 81  1  6
 21 82  1  0
 21 83  1  0
 29 84  1  0
 30 85  1  0
 31 86  1  0
 32 87  1  0
 34 88  1  0
 35 89  1  0
 36 90  1  0
 36 91  1  0
 41 92  1  0
 44 93  1  0
 44 94  1  0
 45 95  1  6
 47 96  1  0
 53 97  1  0
 53 98  1  0
 53 99  1  0
 54100  1  0
 54101  1  0
 55102  1  0
 55103  1  0
 56104  1  0
M  END
> <Uni-Dock RESULT> 
ENERGY=   -3.939  LOWER_BOUND=    5.126  UPPER_BOUND=    9.275
INTER + INTRA:          -3.939
INTER:                  -3.939
INTRA:                   0.000
UNBOUND:                 0.000

$$$$

     RDKit          3D

104110  0  0  0  0  0  0  0  0999 V2000
   31.8477   15.8753   18.9509 C   0  0  0  0  0  0  0  0  0  0  0  0
   33.2129   15.8144   19.6272 C   0  0  0  0  0  0  0  0  0  0  0  0
   33.4299   14.3493   20.0065 C   0  0  0  0  0  0  0  0  0  0  0  0
   32.0717   13.6690   19.7993 C   0  0  2  0  0  0  0  0  0  0  0  0
   31.0405   14.8091   19.6796 C   0  0  2  0  0  0  0  0  0  0  0  0
   31.7826   12.6438   20.7670 O   0  0  0  0  0  0  0  0  0  0  0  0
   31.5795   12.9888   22.0587 C   0  0  0  0  0  0  0  0  0  0  0  0
   31.2291   11.8680   22.7630 N   0  0  0  0  0  0  0  0  0  0  0  0
   31.6656   14.1180   22.5082 O   0  0  0  0  0  0  0  0  0  0  0  0
   30.4743   11.9497   24.0384 C   0  0  2  0  0  0  0  0  0  0  0  0
   29.0477   12.4467   23.5760 C   0  0  0  0  0  0  0  0  0  0  0  0
   31.3394   12.5221   25.2197 C   0  0  0  0  0  0  0  0  0  0  0  0
   32.8546   12.2429   24.9944 C   0  0  0  0  0  0  0  0  0  0  0  0
   31.1822   14.0409   25.4443 C   0  0  0  0  0  0  0  0  0  0  0  0
   31.0279   11.7329   26.5163 C   0  0  0  0  0  0  0  0  0  0  0  0
   28.7436   12.2508   22.3808 O   0  0  0  0  0  0  0  0  0  0  0  0
   28.0713   12.9923   24.3702 N   0  0  0  0  0  0  0  0  0  0  0  0
   26.0723   14.2774   24.6972 C   0  0  1  0  0  0  0  0  0  0  0  0
   26.8169   13.3598   23.7249 C   0  0  0  0  0  0  0  0  0  0  0  0
   27.9007   13.0925   25.8149 C   0  0  1  0  0  0  0  0  0  0  0  0
   26.9506   14.2830   25.9570 C   0  0  0  0  0  0  0  0  0  0  0  0
   26.0279   15.6304   24.2268 O   0  0  0  0  0  0  0  0  0  0  0  0
   25.1860   15.8034   23.1593 C   0  0  0  0  0  0  0  0  0  0  0  0
   23.9271   15.3240   23.3021 N   0  0  0  0  0  0  0  0  0  0  0  0
   23.0659   15.5777   22.2992 C   0  0  0  0  0  0  0  0  0  0  0  0
   23.4620   16.3110   21.1546 C   0  0  0  0  0  0  0  0  0  0  0  0
   24.7205   16.7740   21.0212 N   0  0  0  0  0  0  0  0  0  0  0  0
   25.6028   16.5105   22.0390 C   0  0  0  0  0  0  0  0  0  0  0  0
   22.5298   16.5544   20.1529 C   0  0  0  0  0  0  0  0  0  0  0  0
   21.2185   16.0869   20.2481 C   0  0  0  0  0  0  0  0  0  0  0  0
   20.8348   15.3537   21.3639 C   0  0  0  0  0  0  0  0  0  0  0  0
   21.7581   15.1118   22.3803 C   0  0  0  0  0  0  0  0  0  0  0  0
   27.0443   16.9989   21.9092 C   0  0  0  0  0  0  0  0  0  0  0  0
   27.6255   16.7007   20.5413 C   0  0  0  0  0  0  0  0  0  0  0  0
   28.1881   15.5335   20.1706 C   0  0  0  0  0  0  0  0  0  0  0  0
   28.8357   15.3006   18.8401 C   0  0  0  0  0  0  0  0  0  0  0  0
   29.9054   14.3640   18.9390 O   0  0  0  0  0  0  0  0  0  0  0  0
   27.8955   16.4764   22.8460 F   0  0  0  0  0  0  0  0  0  0  0  0
   27.1193   18.3510   22.1135 F   0  0  0  0  0  0  0  0  0  0  0  0
   27.3546   11.7487   26.3621 C   0  0  0  0  0  0  0  0  0  0  0  0
   26.6445   11.8018   27.5427 N   0  0  0  0  0  0  0  0  0  0  0  0
   27.6386   10.6673   25.8491 O   0  0  0  0  0  0  0  0  0  0  0  0
   25.9717   10.6275   28.1090 C   0  0  2  0  0  0  0  0  0  0  0  0
   24.9534    9.8785   27.2548 C   0  0  0  0  0  0  0  0  0  0  0  0
   24.4635   10.8045   28.3301 C   0  0  1  0  0  0  0  0  0  0  0  0
   26.7837    9.7889   29.0947 C   0  0  0  0  0  0  0  0  0  0  0  0
   28.1698   10.0036   29.0533 N   0  0  0  0  0  0  0  0  0  0  0  0
   26.2625    8.9912   29.8612 O   0  0  0  0  0  0  0  0  0  0  0  0
   28.9132   10.5474   30.4461 S   0  0  0  0  0  0  0  0  0  0  0  0
   29.3808    9.1565   31.5079 C   0  0  0  0  0  0  0  0  0  0  0  0
   27.9324   11.3463   31.1537 O   0  0  0  0  0  0  0  0  0  0  0  0
   30.1417   11.1690   29.9947 O   0  0  0  0  0  0  0  0  0  0  0  0
   29.2855    9.4809   32.9567 C   0  0  0  0  0  0  0  0  0  0  0  0
   29.1225    7.7696   30.9805 C   0  0  0  0  0  0  0  0  0  0  0  0
   30.5243    8.3240   30.9692 C   0  0  0  0  0  0  0  0  0  0  0  0
   23.7576   10.2868   29.5373 C   0  0  0  0  0  0  0  0  0  0  0  0
   22.4265   10.5031   29.3695 F   0  0  0  0  0  0  0  0  0  0  0  0
   24.1301   11.0329   30.6069 F   0  0  0  0  0  0  0  0  0  0  0  0
   31.9247   15.6429   17.8837 H   0  0  0  0  0  0  0  0  0  0  0  0
   31.3921   16.8654   19.0341 H   0  0  0  0  0  0  0  0  0  0  0  0
   33.1983   16.4343   20.5333 H   0  0  0  0  0  0  0  0  0  0  0  0
   34.0080   16.1930   18.9792 H   0  0  0  0  0  0  0  0  0  0  0  0
   34.1745   13.8896   19.3480 H   0  0  0  0  0  0  0  0  0  0  0  0
   33.8174   14.2592   21.0245 H   0  0  0  0  0  0  0  0  0  0  0  0
   32.0978   13.1416   18.8350 H   0  0  0  0  0  0  0  0  0  0  0  0
   30.7230   15.1735   20.6577 H   0  0  0  0  0  0  0  0  0  0  0  0
   30.9250   11.1418   22.1266 H   0  0  0  0  0  0  0  0  0  0  0  0
   30.2976   10.8888   24.2725 H   0  0  0  0  0  0  0  0  0  0  0  0
   33.0406   11.1847   24.7764 H   0  0  0  0  0  0  0  0  0  0  0  0
   33.2687   12.8329   24.1707 H   0  0  0  0  0  0  0  0  0  0  0  0
   33.4342   12.4973   25.8873 H   0  0  0  0  0  0  0  0  0  0  0  0
   31.2796   14.3022   26.5017 H   0  0  0  0  0  0  0  0  0  0  0  0
   30.2259   14.4326   25.0935 H   0  0  0  0  0  0  0  0  0  0  0  0
   31.9565   14.6125   24.9217 H   0  0  0  0  0  0  0  0  0  0  0  0
   31.2601   10.6673   26.3927 H   0  0  0  0  0  0  0  0  0  0  0  0
   31.6263   12.0974   27.3513 H   0  0  0  0  0  0  0  0  0  0  0  0
   29.9916   11.7879   26.8242 H   0  0  0  0  0  0  0  0  0  0  0  0
   25.0716   13.8935   24.9392 H   0  0  0  0  0  0  0  0  0  0  0  0
   26.2509   12.4312   23.5798 H   0  0  0  0  0  0  0  0  0  0  0  0
   26.9977   13.8163   22.7464 H   0  0  0  0  0  0  0  0  0  0  0  0
   28.8337   13.3080   26.3251 H   0  0  0  0  0  0  0  0  0  0  0  0
   27.5424   15.2076   25.9896 H   0  0  0  0  0  0  0  0  0  0  0  0
   26.3474   14.2803   26.8665 H   0  0  0  0  0  0  0  0  0  0  0  0
   22.8370   17.1137   19.2730 H   0  0  0  0  0  0  0  0  0  0  0  0
   20.5090   16.2828   19.4488 H   0  0  0  0  0  0  0  0  0  0  0  0
   19.8222   14.9681   21.4459 H   0  0  0  0  0  0  0  0  0  0  0  0
   21.4498   14.5476   23.2581 H   0  0  0  0  0  0  0  0  0  0  0  0
   27.6069   17.5410   19.8542 H   0  0  0  0  0  0  0  0  0  0  0  0
   28.2187   14.6942   20.8663 H   0  0  0  0  0  0  0  0  0  0  0  0
   29.1797   16.2330   18.3774 H   0  0  0  0  0  0  0  0  0  0  0  0
   28.0945   14.8543   18.1675 H   0  0  0  0  0  0  0  0  0  0  0  0
   26.5611   12.6648   28.0672 H   0  0  0  0  0  0  0  0  0  0  0  0
   24.8349    8.8102   27.3994 H   0  0  0  0  0  0  0  0  0  0  0  0
   24.8253   10.1805   26.2204 H   0  0  0  0  0  0  0  0  0  0  0  0
   24.0149   11.7417   28.0194 H   0  0  0  0  0  0  0  0  0  0  0  0
   28.5141   10.5321   28.2575 H   0  0  0  0  0  0  0  0  0  0  0  0
   29.8762   10.3724   33.1971 H   0  0  0  0  0  0  0  0  0  0  0  0
   28.2429    9.6582   33.2464 H   0  0  0  0  0  0  0  0  0  0  0  0
   29.6619    8.6586   33.5770 H   0  0  0  0  0  0  0  0  0  0  0  0
   28.8761    6.9857   31.6909 H   0  0  0  0  0  0  0  0  0  0  0  0
   28.6397    7.6292   30.0245 H   0  0  0  0  0  0  0  0  0  0  0  0
   31.2385    7.9218   31.6813 H   0  0  0  0  0  0  0  0  0  0  0  0
   30.9650    8.5834   30.0114 H   0  0  0  0  0  0  0  0  0  0  0  0
   23.9041    9.2275   29.7538 H   0  0  0  0  0  0  0  0  0  0  0  0
  1  2  1  0
  2  3  1  0
  4  3  1  0
  4  5  1  0
  5  1  1  0
  4  6  1  0
  6  7  1  0
  7  8  1  0
  7  9  2  0
  8 10  1  0
 10 11  1  0
 10 12  1  0
 12 13  1  0
 12 14  1  0
 12 15  1  0
 11 16  2  0
 11 17  1  0
 19 17  1  0
 17 20  1  0
 18 19  1  0
 20 21  1  0
 18 21  1  0
 18 22  1  0
 22 23  1  0
 23 24  2  0
 28 23  1  0
 24 25  1  0
 26 27  1  0
 27 28  2  0
 26 29  1  0
 25 26  2  0
 32 25  1  0
 29 30  2  0
 30 31  1  0
 31 32  2  0
 28 33  1  0
 33 34  1  0
 34 35  2  0
 35 36  1  0
 36 37  1  0
  5 37  1  0
 33 38  1  0
 33 39  1  0
 20 40  1  0
 40 41  1  0
 40 42  2  0
 43 41  1  6
 43 44  1  0
 45 43  1  0
 44 45  1  0
 43 46  1  0
 46 47  1  0
 46 48  2  0
 47 49  1  0
 49 50  1  0
 49 51  2  0
 49 52  2  0
 50 53  1  0
 50 54  1  0
 55 50  1  0
 54 55  1  0
 45 56  1  0
 56 57  1  0
 56 58  1  0
  1 59  1  0
  1 60  1  0
  2 61  1  0
  2 62  1  0
  3 63  1  0
  3 64  1  0
  4 65  1  1
  5 66  1  6
  8 67  1  0
 10 68  1  1
 13 69  1  0
 13 70  1  0
 13 71  1  0
 14 72  1  0
 14 73  1  0
 14 74  1  0
 15 75  1  0
 15 76  1  0
 15 77  1  0
 18 78  1  1
 19 79  1  0
 19 80  1  0
 20 81  1  6
 21 82  1  0
 21 83  1  0
 29 84  1  0
 30 85  1  0
 31 86  1  0
 32 87  1  0
 34 88  1  0
 35 89  1  0
 36 90  1  0
 36 91  1  0
 41 92  1  0
 44 93  1  0
 44 94  1  0
 45 95  1  6
 47 96  1  0
 53 97  1  0
 53 98  1  0
 53 99  1  0
 54100  1  0
 54101  1  0
 55102  1  0
 55103  1  0
 56104  1  0
M  END
> <Uni-Dock RESULT> 
ENERGY=   -3.911  LOWER_BOUND=    5.023  UPPER_BOUND=   11.796
INTER + INTRA:          -3.911
INTER:                  -3.911
INTRA:                   0.000
UNBOUND:                 0.000

$$$$

     RDKit          3D

104110  0  0  0  0  0  0  0  0999 V2000
   28.8684   13.2562   27.4082 C   0  0  0  0  0  0  0  0  0  0  0  0
   30.2699   13.8163   27.6245 C   0  0  0  0  0  0  0  0  0  0  0  0
   31.2180   12.8795   26.8755 C   0  0  0  0  0  0  0  0  0  0  0  0
   30.3708   11.6590   26.4973 C   0  0  2  0  0  0  0  0  0  0  0  0
   29.0906   11.7505   27.3518 C   0  0  2  0  0  0  0  0  0  0  0  0
   31.0898   10.4136   26.5534 O   0  0  0  0  0  0  0  0  0  0  0  0
   31.5048    9.9403   27.7503 C   0  0  0  0  0  0  0  0  0  0  0  0
   32.0732    8.7088   27.5626 N   0  0  0  0  0  0  0  0  0  0  0  0
   31.3647   10.5078   28.8193 O   0  0  0  0  0  0  0  0  0  0  0  0
   32.1757    7.7185   28.6635 C   0  0  2  0  0  0  0  0  0  0  0  0
   30.6720    7.2985   28.9051 C   0  0  0  0  0  0  0  0  0  0  0  0
   33.2305    8.1307   29.7539 C   0  0  0  0  0  0  0  0  0  0  0  0
   34.3396    9.0408   29.1486 C   0  0  0  0  0  0  0  0  0  0  0  0
   32.6336    8.8799   30.9640 C   0  0  0  0  0  0  0  0  0  0  0  0
   34.0181    6.8764   30.2095 C   0  0  0  0  0  0  0  0  0  0  0  0
   29.8751    7.4929   27.9634 O   0  0  0  0  0  0  0  0  0  0  0  0
   30.1649    6.6608   30.0087 N   0  0  0  0  0  0  0  0  0  0  0  0
   28.3542    6.0199   31.4457 C   0  0  1  0  0  0  0  0  0  0  0  0
   28.7405    6.3510   30.0024 C   0  0  0  0  0  0  0  0  0  0  0  0
   30.7843    5.9899   31.1457 C   0  0  1  0  0  0  0  0  0  0  0  0
   29.6863    6.0529   32.2090 C   0  0  0  0  0  0  0  0  0  0  0  0
   27.5287    7.0384   32.0245 O   0  0  0  0  0  0  0  0  0  0  0  0
   26.2570    7.0577   31.5137 C   0  0  0  0  0  0  0  0  0  0  0  0
   25.5938    5.8766   31.5061 N   0  0  0  0  0  0  0  0  0  0  0  0
   24.3110    5.9059   31.0992 C   0  0  0  0  0  0  0  0  0  0  0  0
   23.6909    7.1149   30.7013 C   0  0  0  0  0  0  0  0  0  0  0  0
   24.3655    8.2815   30.7047 N   0  0  0  0  0  0  0  0  0  0  0  0
   25.6758    8.2535   31.1121 C   0  0  0  0  0  0  0  0  0  0  0  0
   22.3604    7.0910   30.3005 C   0  0  0  0  0  0  0  0  0  0  0  0
   21.6277    5.9037   30.2754 C   0  0  0  0  0  0  0  0  0  0  0  0
   22.2413    4.7152   30.6506 C   0  0  0  0  0  0  0  0  0  0  0  0
   23.5727    4.7279   31.0645 C   0  0  0  0  0  0  0  0  0  0  0  0
   26.4776    9.5536   31.1044 C   0  0  0  0  0  0  0  0  0  0  0  0
   26.2824   10.3353   29.8204 C   0  0  0  0  0  0  0  0  0  0  0  0
   26.9603   10.1328   28.6733 C   0  0  0  0  0  0  0  0  0  0  0  0
   26.8084   10.9825   27.4491 C   0  0  0  0  0  0  0  0  0  0  0  0
   28.0251   11.0521   26.7100 O   0  0  0  0  0  0  0  0  0  0  0  0
   27.8238    9.3784   31.2844 F   0  0  0  0  0  0  0  0  0  0  0  0
   26.1076   10.3587   32.1486 F   0  0  0  0  0  0  0  0  0  0  0  0
   31.2111    4.5593   30.7278 C   0  0  0  0  0  0  0  0  0  0  0  0
   31.3065    3.6212   31.7337 N   0  0  0  0  0  0  0  0  0  0  0  0
   31.5714    4.2901   29.5829 O   0  0  0  0  0  0  0  0  0  0  0  0
   31.5827    2.2057   31.4648 C   0  0  2  0  0  0  0  0  0  0  0  0
   30.6625    1.4424   30.5171 C   0  0  0  0  0  0  0  0  0  0  0  0
   30.5171    1.2382   31.9973 C   0  0  1  0  0  0  0  0  0  0  0  0
   33.0519    1.7865   31.4740 C   0  0  0  0  0  0  0  0  0  0  0  0
   33.9693    2.8415   31.3552 N   0  0  0  0  0  0  0  0  0  0  0  0
   33.3995    0.6186   31.5773 O   0  0  0  0  0  0  0  0  0  0  0  0
   35.0605    3.0655   32.5992 S   0  0  0  0  0  0  0  0  0  0  0  0
   36.5354    2.0443   32.3496 C   0  0  0  0  0  0  0  0  0  0  0  0
   34.4025    2.6204   33.8117 O   0  0  0  0  0  0  0  0  0  0  0  0
   35.4770    4.4485   32.4853 O   0  0  0  0  0  0  0  0  0  0  0  0
   37.1237    1.5607   33.6276 C   0  0  0  0  0  0  0  0  0  0  0  0
   36.6081    1.2372   31.0801 C   0  0  0  0  0  0  0  0  0  0  0  0
   37.4188    2.5017   31.2088 C   0  0  0  0  0  0  0  0  0  0  0  0
   30.8565   -0.0650   32.6375 C   0  0  0  0  0  0  0  0  0  0  0  0
   29.6950   -0.7250   32.8864 F   0  0  0  0  0  0  0  0  0  0  0  0
   31.4174    0.1828   33.8473 F   0  0  0  0  0  0  0  0  0  0  0  0
   28.4375   13.6210   26.4701 H   0  0  0  0  0  0  0  0  0  0  0  0
   28.1837   13.5417   28.2110 H   0  0  0  0  0  0  0  0  0  0  0  0
   30.5056   13.8036   28.6968 H   0  0  0  0  0  0  0  0  0  0  0  0
   30.3555   14.8499   27.2785 H   0  0  0  0  0  0  0  0  0  0  0  0
   31.5933   13.3614   25.9664 H   0  0  0  0  0  0  0  0  0  0  0  0
   32.0937   12.6372   27.4830 H   0  0  0  0  0  0  0  0  0  0  0  0
   30.0753   11.7621   25.4434 H   0  0  0  0  0  0  0  0  0  0  0  0
   29.2427   11.3499   28.3551 H   0  0  0  0  0  0  0  0  0  0  0  0
   31.7906    8.3314   26.6668 H   0  0  0  0  0  0  0  0  0  0  0  0
   32.5933    6.8402   28.1482 H   0  0  0  0  0  0  0  0  0  0  0  0
   34.7786    8.5952   28.2483 H   0  0  0  0  0  0  0  0  0  0  0  0
   33.9640   10.0338   28.8824 H   0  0  0  0  0  0  0  0  0  0  0  0
   35.1526    9.1926   29.8653 H   0  0  0  0  0  0  0  0  0  0  0  0
   33.1767    8.6510   31.8852 H   0  0  0  0  0  0  0  0  0  0  0  0
   31.5802    8.6525   31.1360 H   0  0  0  0  0  0  0  0  0  0  0  0
   32.6954    9.9665   30.8417 H   0  0  0  0  0  0  0  0  0  0  0  0
   34.5455    6.4157   29.3645 H   0  0  0  0  0  0  0  0  0  0  0  0
   34.7699    7.1343   30.9555 H   0  0  0  0  0  0  0  0  0  0  0  0
   33.3971    6.1030   30.6429 H   0  0  0  0  0  0  0  0  0  0  0  0
   27.8979    5.0239   31.5302 H   0  0  0  0  0  0  0  0  0  0  0  0
   28.6115    5.4648   29.3684 H   0  0  0  0  0  0  0  0  0  0  0  0
   28.1613    7.1754   29.5741 H   0  0  0  0  0  0  0  0  0  0  0  0
   31.6662    6.5126   31.5010 H   0  0  0  0  0  0  0  0  0  0  0  0
   29.7748    7.0019   32.7550 H   0  0  0  0  0  0  0  0  0  0  0  0
   29.7356    5.2665   32.9640 H   0  0  0  0  0  0  0  0  0  0  0  0
   21.8873    8.0195   29.9912 H   0  0  0  0  0  0  0  0  0  0  0  0
   20.5907    5.9079   29.9509 H   0  0  0  0  0  0  0  0  0  0  0  0
   21.6900    3.7793   30.6208 H   0  0  0  0  0  0  0  0  0  0  0  0
   24.0457    3.7966   31.3693 H   0  0  0  0  0  0  0  0  0  0  0  0
   25.5616   11.1438   29.8939 H   0  0  0  0  0  0  0  0  0  0  0  0
   27.6940    9.3290   28.6047 H   0  0  0  0  0  0  0  0  0  0  0  0
   26.4414   11.9881   27.6850 H   0  0  0  0  0  0  0  0  0  0  0  0
   26.0717   10.5106   26.7891 H   0  0  0  0  0  0  0  0  0  0  0  0
   31.1874    3.8798   32.7062 H   0  0  0  0  0  0  0  0  0  0  0  0
   31.0773    0.6358   29.9224 H   0  0  0  0  0  0  0  0  0  0  0  0
   29.8856    1.9931   29.9967 H   0  0  0  0  0  0  0  0  0  0  0  0
   29.6445    1.6649   32.4796 H   0  0  0  0  0  0  0  0  0  0  0  0
   33.5817    3.7387   31.0794 H   0  0  0  0  0  0  0  0  0  0  0  0
   37.3374    2.3986   34.3011 H   0  0  0  0  0  0  0  0  0  0  0  0
   36.4396    0.8673   34.1312 H   0  0  0  0  0  0  0  0  0  0  0  0
   38.0655    1.0253   33.4579 H   0  0  0  0  0  0  0  0  0  0  0  0
   37.1230    0.2812   31.1060 H   0  0  0  0  0  0  0  0  0  0  0  0
   35.7871    1.2467   30.3783 H   0  0  0  0  0  0  0  0  0  0  0  0
   38.4937    2.4091   31.3309 H   0  0  0  0  0  0  0  0  0  0  0  0
   37.1212    3.3634   30.6192 H   0  0  0  0  0  0  0  0  0  0  0  0
   31.5030   -0.7242   32.0561 H   0  0  0  0  0  0  0  0  0  0  0  0
  1  2  1  0
  2  3  1  0
  4  3  1  0
  4  5  1  0
  5  1  1  0
  4  6  1  0
  6  7  1  0
  7  8  1  0
  7  9  2  0
  8 10  1  0
 10 11  1  0
 10 12  1  0
 12 13  1  0
 12 14  1  0
 12 15  1  0
 11 16  2  0
 11 17  1  0
 19 17  1  0
 17 20  1  0
 18 19  1  0
 20 21  1  0
 18 21  1  0
 18 22  1  0
 22 23  1  0
 23 24  2  0
 28 23  1  0
 24 25  1  0
 26 27  1  0
 27 28  2  0
 26 29  1  0
 25 26  2  0
 32 25  1  0
 29 30  2  0
 30 31  1  0
 31 32  2  0
 28 33  1  0
 33 34  1  0
 34 35  2  0
 35 36  1  0
 36 37  1  0
  5 37  1  0
 33 38  1  0
 33 39  1  0
 20 40  1  0
 40 41  1  0
 40 42  2  0
 43 41  1  6
 43 44  1  0
 45 43  1  0
 44 45  1  0
 43 46  1  0
 46 47  1  0
 46 48  2  0
 47 49  1  0
 49 50  1  0
 49 51  2  0
 49 52  2  0
 50 53  1  0
 50 54  1  0
 55 50  1  0
 54 55  1  0
 45 56  1  0
 56 57  1  0
 56 58  1  0
  1 59  1  0
  1 60  1  0
  2 61  1  0
  2 62  1  0
  3 63  1  0
  3 64  1  0
  4 65  1  1
  5 66  1  6
  8 67  1  0
 10 68  1  1
 13 69  1  0
 13 70  1  0
 13 71  1  0
 14 72  1  0
 14 73  1  0
 14 74  1  0
 15 75  1  0
 15 76  1  0
 15 77  1  0
 18 78  1  1
 19 79  1  0
 19 80  1  0
 20 81  1  6
 21 82  1  0
 21 83  1  0
 29 84  1  0
 30 85  1  0
 31 86  1  0
 32 87  1  0
 34 88  1  0
 35 89  1  0
 36 90  1  0
 36 91  1  0
 41 92  1  0
 44 93  1  0
 44 94  1  0
 45 95  1  6
 47 96  1  0
 53 97  1  0
 53 98  1  0
 53 99  1  0
 54100  1  0
 54101  1  0
 55102  1  0
 55103  1  0
 56104  1  0
M  END
> <Uni-Dock RESULT> 
ENERGY=   -3.734  LOWER_BOUND=    3.992  UPPER_BOUND=    9.663
INTER + INTRA:          -3.734
INTER:                  -3.734
INTRA:                   0.000
UNBOUND:                 0.000

$$$$
