
     RDKit          3D

104110  0  0  0  0  0  0  0  0999 V2000
   27.3556   12.8796   25.7923 C   0  0  0  0  0  0  0  0  0  0  0  0
   28.1120   12.5324   24.5097 C   0  0  0  0  0  0  0  0  0  0  0  0
   29.4444   11.9862   24.9911 C   0  0  0  0  0  0  0  0  0  0  0  0
   29.0385   11.1305   26.1847 C   0  0  2  0  0  0  0  0  0  0  0  0
   27.9777   11.9999   26.8848 C   0  0  2  0  0  0  0  0  0  0  0  0
   30.1688   10.9413   27.0429 O   0  0  0  0  0  0  0  0  0  0  0  0
   30.2899    9.7264   27.6245 C   0  0  0  0  0  0  0  0  0  0  0  0
   31.2964    9.7844   28.5380 N   0  0  0  0  0  0  0  0  0  0  0  0
   29.5892    8.7543   27.3927 O   0  0  0  0  0  0  0  0  0  0  0  0
   31.5555    8.7126   29.4968 C   0  0  2  0  0  0  0  0  0  0  0  0
   30.6329    8.9680   30.7169 C   0  0  0  0  0  0  0  0  0  0  0  0
   33.0712    8.6128   29.8625 C   0  0  0  0  0  0  0  0  0  0  0  0
   33.2885    7.5911   30.9949 C   0  0  0  0  0  0  0  0  0  0  0  0
   33.7010    9.9532   30.2926 C   0  0  0  0  0  0  0  0  0  0  0  0
   33.8453    8.1112   28.6225 C   0  0  0  0  0  0  0  0  0  0  0  0
   30.8018    9.8786   31.5277 O   0  0  0  0  0  0  0  0  0  0  0  0
   29.4672    8.2105   30.7080 N   0  0  0  0  0  0  0  0  0  0  0  0
   27.1501    7.9293   30.9284 C   0  0  1  0  0  0  0  0  0  0  0  0
   28.2233    8.9376   30.5416 C   0  0  0  0  0  0  0  0  0  0  0  0
   29.2839    7.2057   31.7653 C   0  0  1  0  0  0  0  0  0  0  0  0
   27.8016    7.2859   32.1495 C   0  0  0  0  0  0  0  0  0  0  0  0
   25.9420    8.6031   31.2612 O   0  0  0  0  0  0  0  0  0  0  0  0
   24.8248    7.8747   30.9314 C   0  0  0  0  0  0  0  0  0  0  0  0
   24.8450    6.5457   31.1898 N   0  0  0  0  0  0  0  0  0  0  0  0
   23.7248    5.8601   30.8940 C   0  0  0  0  0  0  0  0  0  0  0  0
   22.5898    6.4985   30.3376 C   0  0  0  0  0  0  0  0  0  0  0  0
   22.5901    7.8190   30.0780 N   0  0  0  0  0  0  0  0  0  0  0  0
   23.7190    8.5239   30.3950 C   0  0  0  0  0  0  0  0  0  0  0  0
   21.4586    5.7434   30.0569 C   0  0  0  0  0  0  0  0  0  0  0  0
   21.4219    4.3715   30.3102 C   0  0  0  0  0  0  0  0  0  0  0  0
   22.5348    3.7430   30.8536 C   0  0  0  0  0  0  0  0  0  0  0  0
   23.6779    4.4916   31.1385 C   0  0  0  0  0  0  0  0  0  0  0  0
   23.7642   10.0255   30.1430 C   0  0  0  0  0  0  0  0  0  0  0  0
   24.8337   10.4488   29.1563 C   0  0  0  0  0  0  0  0  0  0  0  0
   25.1270    9.8861   27.9665 C   0  0  0  0  0  0  0  0  0  0  0  0
   26.2586   10.2939   27.0605 C   0  0  0  0  0  0  0  0  0  0  0  0
   27.0293   11.3082   27.6894 O   0  0  0  0  0  0  0  0  0  0  0  0
   23.9730   10.7075   31.3140 F   0  0  0  0  0  0  0  0  0  0  0  0
   22.5666   10.5108   29.6867 F   0  0  0  0  0  0  0  0  0  0  0  0
   29.7213    5.8240   31.2361 C   0  0  0  0  0  0  0  0  0  0  0  0
   29.2952    4.7231   31.9516 N   0  0  0  0  0  0  0  0  0  0  0  0
   30.5015    5.6784   30.2942 O   0  0  0  0  0  0  0  0  0  0  0  0
   29.4892    3.3570   31.4536 C   0  0  2  0  0  0  0  0  0  0  0  0
   28.7135    2.9450   30.2008 C   0  0  0  0  0  0  0  0  0  0  0  0
   28.2529    2.4538   31.5386 C   0  0  1  0  0  0  0  0  0  0  0  0
   30.8946    2.7564   31.5861 C   0  0  0  0  0  0  0  0  0  0  0  0
   31.9445    3.6724   31.5100 N   0  0  0  0  0  0  0  0  0  0  0  0
   31.0585    1.5528   31.7241 O   0  0  0  0  0  0  0  0  0  0  0  0
   33.5465    3.2667   31.3578 S   0  0  0  0  0  0  0  0  0  0  0  0
   33.9694    1.9092   32.4852 C   0  0  0  0  0  0  0  0  0  0  0  0
   33.7309    2.8138   29.9963 O   0  0  0  0  0  0  0  0  0  0  0  0
   34.2816    4.4112   31.8494 O   0  0  0  0  0  0  0  0  0  0  0  0
   33.5962    2.1737   33.8985 C   0  0  0  0  0  0  0  0  0  0  0  0
   33.9650    0.5242   31.8917 C   0  0  0  0  0  0  0  0  0  0  0  0
   35.2745    1.2278   32.1491 C   0  0  0  0  0  0  0  0  0  0  0  0
   28.3217    1.0191   31.9107 C   0  0  0  0  0  0  0  0  0  0  0  0
   28.6244    0.9406   33.2334 F   0  0  0  0  0  0  0  0  0  0  0  0
   27.0735    0.4938   31.7767 F   0  0  0  0  0  0  0  0  0  0  0  0
   27.5347   13.9380   26.0334 H   0  0  0  0  0  0  0  0  0  0  0  0
   26.2750   12.7621   25.6759 H   0  0  0  0  0  0  0  0  0  0  0  0
   28.2313   13.4000   23.8556 H   0  0  0  0  0  0  0  0  0  0  0  0
   27.5684   11.7598   23.9520 H   0  0  0  0  0  0  0  0  0  0  0  0
   29.9607   11.4041   24.2215 H   0  0  0  0  0  0  0  0  0  0  0  0
   30.1140   12.7976   25.2976 H   0  0  0  0  0  0  0  0  0  0  0  0
   28.6301   10.1820   25.8239 H   0  0  0  0  0  0  0  0  0  0  0  0
   28.4930   12.6669   27.5866 H   0  0  0  0  0  0  0  0  0  0  0  0
   31.5786   10.7237   28.7828 H   0  0  0  0  0  0  0  0  0  0  0  0
   31.2466    7.7709   29.0307 H   0  0  0  0  0  0  0  0  0  0  0  0
   32.8004    7.9047   31.9219 H   0  0  0  0  0  0  0  0  0  0  0  0
   32.8906    6.6120   30.7159 H   0  0  0  0  0  0  0  0  0  0  0  0
   34.3541    7.4602   31.2143 H   0  0  0  0  0  0  0  0  0  0  0  0
   34.7542    9.8166   30.5711 H   0  0  0  0  0  0  0  0  0  0  0  0
   33.6809   10.6916   29.4830 H   0  0  0  0  0  0  0  0  0  0  0  0
   33.1980   10.3884   31.1610 H   0  0  0  0  0  0  0  0  0  0  0  0
   33.4709    7.1368   28.2903 H   0  0  0  0  0  0  0  0  0  0  0  0
   34.9140    8.0044   28.8415 H   0  0  0  0  0  0  0  0  0  0  0  0
   33.7501    8.8087   27.7844 H   0  0  0  0  0  0  0  0  0  0  0  0
   27.0309    7.2056   30.1100 H   0  0  0  0  0  0  0  0  0  0  0  0
   28.1146    9.2895   29.5128 H   0  0  0  0  0  0  0  0  0  0  0  0
   28.2033    9.8191   31.1936 H   0  0  0  0  0  0  0  0  0  0  0  0
   29.9221    7.4366   32.6263 H   0  0  0  0  0  0  0  0  0  0  0  0
   27.6816    7.9350   33.0244 H   0  0  0  0  0  0  0  0  0  0  0  0
   27.3292    6.3344   32.4032 H   0  0  0  0  0  0  0  0  0  0  0  0
   20.5846    6.2409   29.6409 H   0  0  0  0  0  0  0  0  0  0  0  0
   20.5229    3.8040   30.0867 H   0  0  0  0  0  0  0  0  0  0  0  0
   22.5164    2.6750   31.0567 H   0  0  0  0  0  0  0  0  0  0  0  0
   24.5452    3.9999   31.5703 H   0  0  0  0  0  0  0  0  0  0  0  0
   25.4294   11.2883   29.5086 H   0  0  0  0  0  0  0  0  0  0  0  0
   24.5197    9.0562   27.6045 H   0  0  0  0  0  0  0  0  0  0  0  0
   26.8828    9.4137   26.8853 H   0  0  0  0  0  0  0  0  0  0  0  0
   25.8474   10.6374   26.1070 H   0  0  0  0  0  0  0  0  0  0  0  0
   28.7830    4.8385   32.8195 H   0  0  0  0  0  0  0  0  0  0  0  0
   29.1822    2.2473   29.5169 H   0  0  0  0  0  0  0  0  0  0  0  0
   28.1141    3.6927   29.6947 H   0  0  0  0  0  0  0  0  0  0  0  0
   27.3498    2.8883   31.9482 H   0  0  0  0  0  0  0  0  0  0  0  0
   31.7366    4.5568   31.0404 H   0  0  0  0  0  0  0  0  0  0  0  0
   32.5179    2.3111   34.0136 H   0  0  0  0  0  0  0  0  0  0  0  0
   33.8851    1.3403   34.5455 H   0  0  0  0  0  0  0  0  0  0  0  0
   34.0958    3.0699   34.2749 H   0  0  0  0  0  0  0  0  0  0  0  0
   33.6827   -0.3023   32.5304 H   0  0  0  0  0  0  0  0  0  0  0  0
   33.6500    0.3934   30.8594 H   0  0  0  0  0  0  0  0  0  0  0  0
   35.8378    1.5713   31.2870 H   0  0  0  0  0  0  0  0  0  0  0  0
   35.8986    0.8747   32.9637 H   0  0  0  0  0  0  0  0  0  0  0  0
   29.0138    0.4057   31.3290 H   0  0  0  0  0  0  0  0  0  0  0  0
  1  2  1  0
  2  3  1  0
  4  3  1  0
  4  5  1  0
  5  1  1  0
  4  6  1  0
  6  7  1  0
  7  8  1  0
  7  9  2  0
  8 10  1  0
 10 11  1  0
 10 12  1  0
 12 13  1  0
 12 14  1  0
 12 15  1  0
 11 16  2  0
 11 17  1  0
 19 17  1  0
 17 20  1  0
 18 19  1  0
 20 21  1  0
 18 21  1  0
 18 22  1  0
 22 23  1  0
 23 24  2  0
 28 23  1  0
 24 25  1  0
 26 27  1  0
 27 28  2  0
 26 29  1  0
 25 26  2  0
 32 25  1  0
 29 30  2  0
 30 31  1  0
 31 32  2  0
 28 33  1  0
 33 34  1  0
 34 35  2  0
 35 36  1  0
 36 37  1  0
  5 37  1  0
 33 38  1  0
 33 39  1  0
 20 40  1  0
 40 41  1  0
 40 42  2  0
 43 41  1  6
 43 44  1  0
 45 43  1  0
 44 45  1  0
 43 46  1  0
 46 47  1  0
 46 48  2  0
 47 49  1  0
 49 50  1  0
 49 51  2  0
 49 52  2  0
 50 53  1  0
 50 54  1  0
 55 50  1  0
 54 55  1  0
 45 56  1  0
 56 57  1  0
 56 58  1  0
  1 59  1  0
  1 60  1  0
  2 61  1  0
  2 62  1  0
  3 63  1  0
  3 64  1  0
  4 65  1  1
  5 66  1  6
  8 67  1  0
 10 68  1  1
 13 69  1  0
 13 70  1  0
 13 71  1  0
 14 72  1  0
 14 73  1  0
 14 74  1  0
 15 75  1  0
 15 76  1  0
 15 77  1  0
 18 78  1  1
 19 79  1  0
 19 80  1  0
 20 81  1  6
 21 82  1  0
 21 83  1  0
 29 84  1  0
 30 85  1  0
 31 86  1  0
 32 87  1  0
 34 88  1  0
 35 89  1  0
 36 90  1  0
 36 91  1  0
 41 92  1  0
 44 93  1  0
 44 94  1  0
 45 95  1  6
 47 96  1  0
 53 97  1  0
 53 98  1  0
 53 99  1  0
 54100  1  0
 54101  1  0
 55102  1  0
 55103  1  0
 56104  1  0
M  END
> <Uni-Dock RESULT> 
ENERGY=   -5.486  LOWER_BOUND=    0.000  UPPER_BOUND=    0.000
INTER + INTRA:          -5.486
INTER:                  -5.486
INTRA:                   0.000
UNBOUND:                 0.000

$$$$

     RDKit          3D

104110  0  0  0  0  0  0  0  0999 V2000
   27.3585   12.8781   25.7952 C   0  0  0  0  0  0  0  0  0  0  0  0
   28.1132   12.5315   24.5114 C   0  0  0  0  0  0  0  0  0  0  0  0
   29.4459   11.9845   24.9908 C   0  0  0  0  0  0  0  0  0  0  0  0
   29.0412   11.1281   26.1843 C   0  0  2  0  0  0  0  0  0  0  0  0
   27.9816   11.9975   26.8863 C   0  0  2  0  0  0  0  0  0  0  0  0
   30.1725   10.9379   27.0411 O   0  0  0  0  0  0  0  0  0  0  0  0
   30.2938    9.7225   27.6216 C   0  0  0  0  0  0  0  0  0  0  0  0
   31.3014    9.7796   28.5339 N   0  0  0  0  0  0  0  0  0  0  0  0
   29.5924    8.7509   27.3901 O   0  0  0  0  0  0  0  0  0  0  0  0
   31.5612    8.7070   29.4917 C   0  0  2  0  0  0  0  0  0  0  0  0
   30.6403    8.9619   30.7132 C   0  0  0  0  0  0  0  0  0  0  0  0
   33.0773    8.6064   29.8556 C   0  0  0  0  0  0  0  0  0  0  0  0
   33.2957    7.5839   30.9870 C   0  0  0  0  0  0  0  0  0  0  0  0
   33.7083    9.9462   30.2857 C   0  0  0  0  0  0  0  0  0  0  0  0
   33.8498    8.1052   28.6142 C   0  0  0  0  0  0  0  0  0  0  0  0
   30.8105    9.8720   31.5243 O   0  0  0  0  0  0  0  0  0  0  0  0
   29.4742    8.2050   30.7051 N   0  0  0  0  0  0  0  0  0  0  0  0
   27.1573    7.9245   30.9282 C   0  0  1  0  0  0  0  0  0  0  0  0
   28.2304    8.9327   30.5407 C   0  0  0  0  0  0  0  0  0  0  0  0
   29.2918    7.1995   31.7620 C   0  0  1  0  0  0  0  0  0  0  0  0
   27.8100    7.2801   32.1480 C   0  0  0  0  0  0  0  0  0  0  0  0
   25.9499    8.5985   31.2629 O   0  0  0  0  0  0  0  0  0  0  0  0
   24.8320    7.8708   30.9340 C   0  0  0  0  0  0  0  0  0  0  0  0
   24.8520    6.5416   31.1915 N   0  0  0  0  0  0  0  0  0  0  0  0
   23.7312    5.8567   30.8966 C   0  0  0  0  0  0  0  0  0  0  0  0
   22.5957    6.4959   30.3421 C   0  0  0  0  0  0  0  0  0  0  0  0
   22.5962    7.8166   30.0834 N   0  0  0  0  0  0  0  0  0  0  0  0
   23.7258    8.5208   30.3994 C   0  0  0  0  0  0  0  0  0  0  0  0
   21.4639    5.7415   30.0623 C   0  0  0  0  0  0  0  0  0  0  0  0
   21.4270    4.3693   30.3146 C   0  0  0  0  0  0  0  0  0  0  0  0
   22.5403    3.7401   30.8563 C   0  0  0  0  0  0  0  0  0  0  0  0
   23.6840    4.4881   31.1403 C   0  0  0  0  0  0  0  0  0  0  0  0
   23.7712   10.0226   30.1484 C   0  0  0  0  0  0  0  0  0  0  0  0
   24.8397   10.4461   29.1606 C   0  0  0  0  0  0  0  0  0  0  0  0
   25.1314    9.8840   27.9701 C   0  0  0  0  0  0  0  0  0  0  0  0
   26.2620   10.2921   27.0629 C   0  0  0  0  0  0  0  0  0  0  0  0
   27.0339   11.3056   27.6916 O   0  0  0  0  0  0  0  0  0  0  0  0
   23.9818   10.7037   31.3196 F   0  0  0  0  0  0  0  0  0  0  0  0
   22.5733   10.5087   29.6938 F   0  0  0  0  0  0  0  0  0  0  0  0
   29.7281    5.8180   31.2314 C   0  0  0  0  0  0  0  0  0  0  0  0
   29.3024    4.7167   31.9466 N   0  0  0  0  0  0  0  0  0  0  0  0
   30.5071    5.6727   30.2884 O   0  0  0  0  0  0  0  0  0  0  0  0
   29.4953    3.3509   31.4475 C   0  0  2  0  0  0  0  0  0  0  0  0
   28.7178    2.9400   30.1954 C   0  0  0  0  0  0  0  0  0  0  0  0
   28.2587    2.4482   31.5334 C   0  0  1  0  0  0  0  0  0  0  0  0
   30.9006    2.7497   31.5779 C   0  0  0  0  0  0  0  0  0  0  0  0
   31.9508    3.6653   31.5012 N   0  0  0  0  0  0  0  0  0  0  0  0
   31.0641    1.5459   31.7149 O   0  0  0  0  0  0  0  0  0  0  0  0
   33.5524    3.2591   31.3467 S   0  0  0  0  0  0  0  0  0  0  0  0
   33.9761    1.9007   32.4727 C   0  0  0  0  0  0  0  0  0  0  0  0
   33.7350    2.8070   29.9846 O   0  0  0  0  0  0  0  0  0  0  0  0
   34.2885    4.4029   31.8382 O   0  0  0  0  0  0  0  0  0  0  0  0
   33.6047    2.1644   33.8866 C   0  0  0  0  0  0  0  0  0  0  0  0
   33.9705    0.5160   31.8782 C   0  0  0  0  0  0  0  0  0  0  0  0
   35.2805    1.2190   32.1346 C   0  0  0  0  0  0  0  0  0  0  0  0
   28.3273    1.0132   31.9044 C   0  0  0  0  0  0  0  0  0  0  0  0
   28.6317    0.9337   33.2268 F   0  0  0  0  0  0  0  0  0  0  0  0
   27.0788    0.4885   31.7717 F   0  0  0  0  0  0  0  0  0  0  0  0
   27.5383   13.9363   26.0367 H   0  0  0  0  0  0  0  0  0  0  0  0
   26.2777   12.7612   25.6800 H   0  0  0  0  0  0  0  0  0  0  0  0
   28.2321   13.3995   23.8577 H   0  0  0  0  0  0  0  0  0  0  0  0
   27.5686   11.7595   23.9538 H   0  0  0  0  0  0  0  0  0  0  0  0
   29.9611   11.4026   24.2202 H   0  0  0  0  0  0  0  0  0  0  0  0
   30.1163   12.7954   25.2970 H   0  0  0  0  0  0  0  0  0  0  0  0
   28.6320   10.1800   25.8234 H   0  0  0  0  0  0  0  0  0  0  0  0
   28.4980   12.6638   27.5879 H   0  0  0  0  0  0  0  0  0  0  0  0
   31.5843   10.7186   28.7791 H   0  0  0  0  0  0  0  0  0  0  0  0
   31.2514    7.7657   29.0254 H   0  0  0  0  0  0  0  0  0  0  0  0
   32.8089    7.8971   31.9148 H   0  0  0  0  0  0  0  0  0  0  0  0
   32.8970    6.6051   30.7078 H   0  0  0  0  0  0  0  0  0  0  0  0
   34.3615    7.4523   31.2050 H   0  0  0  0  0  0  0  0  0  0  0  0
   34.7617    9.8090   30.5629 H   0  0  0  0  0  0  0  0  0  0  0  0
   33.6875   10.6851   29.4767 H   0  0  0  0  0  0  0  0  0  0  0  0
   33.2064   10.3811   31.1550 H   0  0  0  0  0  0  0  0  0  0  0  0
   33.4746    7.1313   28.2819 H   0  0  0  0  0  0  0  0  0  0  0  0
   34.9187    7.9980   28.8318 H   0  0  0  0  0  0  0  0  0  0  0  0
   33.7538    8.8034   27.7768 H   0  0  0  0  0  0  0  0  0  0  0  0
   27.0368    7.2014   30.1095 H   0  0  0  0  0  0  0  0  0  0  0  0
   28.1207    9.2852   29.5123 H   0  0  0  0  0  0  0  0  0  0  0  0
   28.2115    9.8137   31.1934 H   0  0  0  0  0  0  0  0  0  0  0  0
   29.9312    7.4296   32.6224 H   0  0  0  0  0  0  0  0  0  0  0  0
   27.6914    7.9286   33.0236 H   0  0  0  0  0  0  0  0  0  0  0  0
   27.3376    6.3285   32.4018 H   0  0  0  0  0  0  0  0  0  0  0  0
   20.5896    6.2396   29.6477 H   0  0  0  0  0  0  0  0  0  0  0  0
   20.5275    3.8023   30.0919 H   0  0  0  0  0  0  0  0  0  0  0  0
   22.5217    2.6719   31.0587 H   0  0  0  0  0  0  0  0  0  0  0  0
   24.5516    3.9957   31.5707 H   0  0  0  0  0  0  0  0  0  0  0  0
   25.4362   11.2851   29.5127 H   0  0  0  0  0  0  0  0  0  0  0  0
   24.5233    9.0547   27.6082 H   0  0  0  0  0  0  0  0  0  0  0  0
   26.8857    9.4117   26.8864 H   0  0  0  0  0  0  0  0  0  0  0  0
   25.8498   10.6364   26.1102 H   0  0  0  0  0  0  0  0  0  0  0  0
   28.7913    4.8318   32.8153 H   0  0  0  0  0  0  0  0  0  0  0  0
   29.1854    2.2427   29.5105 H   0  0  0  0  0  0  0  0  0  0  0  0
   28.1181    3.6883   29.6905 H   0  0  0  0  0  0  0  0  0  0  0  0
   27.3563    2.8827   31.9444 H   0  0  0  0  0  0  0  0  0  0  0  0
   31.7426    4.5502   31.0324 H   0  0  0  0  0  0  0  0  0  0  0  0
   32.5267    2.3021   34.0031 H   0  0  0  0  0  0  0  0  0  0  0  0
   33.8942    1.3304   34.5327 H   0  0  0  0  0  0  0  0  0  0  0  0
   34.1052    3.0602   34.2630 H   0  0  0  0  0  0  0  0  0  0  0  0
   33.6886   -0.3107   32.5168 H   0  0  0  0  0  0  0  0  0  0  0  0
   33.6542    0.3861   30.8463 H   0  0  0  0  0  0  0  0  0  0  0  0
   35.8429    1.5629   31.2719 H   0  0  0  0  0  0  0  0  0  0  0  0
   35.9055    0.8651   32.9481 H   0  0  0  0  0  0  0  0  0  0  0  0
   29.0185    0.4000   31.3215 H   0  0  0  0  0  0  0  0  0  0  0  0
  1  2  1  0
  2  3  1  0
  4  3  1  0
  4  5  1  0
  5  1  1  0
  4  6  1  0
  6  7  1  0
  7  8  1  0
  7  9  2  0
  8 10  1  0
 10 11  1  0
 10 12  1  0
 12 13  1  0
 12 14  1  0
 12 15  1  0
 11 16  2  0
 11 17  1  0
 19 17  1  0
 17 20  1  0
 18 19  1  0
 20 21  1  0
 18 21  1  0
 18 22  1  0
 22 23  1  0
 23 24  2  0
 28 23  1  0
 24 25  1  0
 26 27  1  0
 27 28  2  0
 26 29  1  0
 25 26  2  0
 32 25  1  0
 29 30  2  0
 30 31  1  0
 31 32  2  0
 28 33  1  0
 33 34  1  0
 34 35  2  0
 35 36  1  0
 36 37  1  0
  5 37  1  0
 33 38  1  0
 33 39  1  0
 20 40  1  0
 40 41  1  0
 40 42  2  0
 43 41  1  6
 43 44  1  0
 45 43  1  0
 44 45  1  0
 43 46  1  0
 46 47  1  0
 46 48  2  0
 47 49  1  0
 49 50  1  0
 49 51  2  0
 49 52  2  0
 50 53  1  0
 50 54  1  0
 55 50  1  0
 54 55  1  0
 45 56  1  0
 56 57  1  0
 56 58  1  0
  1 59  1  0
  1 60  1  0
  2 61  1  0
  2 62  1  0
  3 63  1  0
  3 64  1  0
  4 65  1  1
  5 66  1  6
  8 67  1  0
 10 68  1  1
 13 69  1  0
 13 70  1  0
 13 71  1  0
 14 72  1  0
 14 73  1  0
 14 74  1  0
 15 75  1  0
 15 76  1  0
 15 77  1  0
 18 78  1  1
 19 79  1  0
 19 80  1  0
 20 81  1  6
 21 82  1  0
 21 83  1  0
 29 84  1  0
 30 85  1  0
 31 86  1  0
 32 87  1  0
 34 88  1  0
 35 89  1  0
 36 90  1  0
 36 91  1  0
 41 92  1  0
 44 93  1  0
 44 94  1  0
 45 95  1  6
 47 96  1  0
 53 97  1  0
 53 98  1  0
 53 99  1  0
 54100  1  0
 54101  1  0
 55102  1  0
 55103  1  0
 56104  1  0
M  END
> <Uni-Dock RESULT> 
ENERGY=   -5.479  LOWER_BOUND=    0.010  UPPER_BOUND=    0.010
INTER + INTRA:          -5.479
INTER:                  -5.479
INTRA:                   0.000
UNBOUND:                 0.000

$$$$

     RDKit          3D

104110  0  0  0  0  0  0  0  0999 V2000
   37.3663    8.1880   33.1275 C   0  0  0  0  0  0  0  0  0  0  0  0
   37.5969    9.5710   33.7373 C   0  0  0  0  0  0  0  0  0  0  0  0
   37.3450   10.5368   32.5931 C   0  0  0  0  0  0  0  0  0  0  0  0
   36.1277    9.9274   31.9087 C   0  0  2  0  0  0  0  0  0  0  0  0
   36.4452    8.4207   31.9227 C   0  0  2  0  0  0  0  0  0  0  0  0
   36.0491   10.4045   30.5610 O   0  0  0  0  0  0  0  0  0  0  0  0
   34.8104   10.6551   30.0796 C   0  0  0  0  0  0  0  0  0  0  0  0
   34.9101   10.9144   28.7478 N   0  0  0  0  0  0  0  0  0  0  0  0
   33.7757   10.6185   30.7258 O   0  0  0  0  0  0  0  0  0  0  0  0
   33.7437   11.0159   27.8735 C   0  0  2  0  0  0  0  0  0  0  0  0
   33.3977    9.5750   27.4162 C   0  0  0  0  0  0  0  0  0  0  0  0
   33.9860   12.0107   26.6932 C   0  0  0  0  0  0  0  0  0  0  0  0
   32.8085   11.9698   25.7006 C   0  0  0  0  0  0  0  0  0  0  0  0
   35.2884   11.7480   25.9102 C   0  0  0  0  0  0  0  0  0  0  0  0
   34.0679   13.4439   27.2658 C   0  0  0  0  0  0  0  0  0  0  0  0
   34.0732    8.9266   26.6171 O   0  0  0  0  0  0  0  0  0  0  0  0
   32.3706    8.9859   28.1447 N   0  0  0  0  0  0  0  0  0  0  0  0
   31.3959    7.2203   29.3401 C   0  0  1  0  0  0  0  0  0  0  0  0
   32.7319    7.8518   28.9734 C   0  0  0  0  0  0  0  0  0  0  0  0
   31.1147    8.6743   27.4470 C   0  0  1  0  0  0  0  0  0  0  0  0
   30.6674    7.3169   28.0025 C   0  0  0  0  0  0  0  0  0  0  0  0
   31.5873    5.8705   29.7470 O   0  0  0  0  0  0  0  0  0  0  0  0
   30.6849    5.4762   30.7049 C   0  0  0  0  0  0  0  0  0  0  0  0
   29.3970    5.8645   30.5494 N   0  0  0  0  0  0  0  0  0  0  0  0
   28.5243    5.4337   31.4796 C   0  0  0  0  0  0  0  0  0  0  0  0
   28.9369    4.6217   32.5640 C   0  0  0  0  0  0  0  0  0  0  0  0
   30.2230    4.2529   32.7088 N   0  0  0  0  0  0  0  0  0  0  0  0
   31.1105    4.6718   31.7555 C   0  0  0  0  0  0  0  0  0  0  0  0
   27.9930    4.2012   33.4917 C   0  0  0  0  0  0  0  0  0  0  0  0
   26.6507    4.5655   33.3759 C   0  0  0  0  0  0  0  0  0  0  0  0
   26.2444    5.3637   32.3145 C   0  0  0  0  0  0  0  0  0  0  0  0
   27.1847    5.7935   31.3767 C   0  0  0  0  0  0  0  0  0  0  0  0
   32.5744    4.2635   31.8589 C   0  0  0  0  0  0  0  0  0  0  0  0
   33.5269    5.4328   32.0080 C   0  0  0  0  0  0  0  0  0  0  0  0
   33.4029    6.4983   32.8251 C   0  0  0  0  0  0  0  0  0  0  0  0
   34.3377    7.6780   32.8733 C   0  0  0  0  0  0  0  0  0  0  0  0
   35.3271    7.5421   31.8629 O   0  0  0  0  0  0  0  0  0  0  0  0
   32.9559    3.5431   30.7565 F   0  0  0  0  0  0  0  0  0  0  0  0
   32.8018    3.4101   32.9068 F   0  0  0  0  0  0  0  0  0  0  0  0
   30.1031    9.8145   27.6858 C   0  0  0  0  0  0  0  0  0  0  0  0
   28.7791    9.5359   27.4117 N   0  0  0  0  0  0  0  0  0  0  0  0
   30.4370   10.9587   27.9964 O   0  0  0  0  0  0  0  0  0  0  0  0
   27.7047   10.4690   27.7674 C   0  0  2  0  0  0  0  0  0  0  0  0
   27.4328   10.6993   29.2554 C   0  0  0  0  0  0  0  0  0  0  0  0
   26.4985    9.8327   28.4685 C   0  0  1  0  0  0  0  0  0  0  0  0
   27.5148   11.6951   26.8650 C   0  0  0  0  0  0  0  0  0  0  0  0
   28.6775   12.1804   26.2654 N   0  0  0  0  0  0  0  0  0  0  0  0
   26.4149   12.2077   26.7164 O   0  0  0  0  0  0  0  0  0  0  0  0
   28.7978   13.6310   25.4682 S   0  0  0  0  0  0  0  0  0  0  0  0
   27.3703   13.8772   24.3755 C   0  0  0  0  0  0  0  0  0  0  0  0
   28.7893   14.6624   26.4827 O   0  0  0  0  0  0  0  0  0  0  0  0
   29.9332   13.4907   24.5834 O   0  0  0  0  0  0  0  0  0  0  0  0
   27.1379   12.7476   23.4394 C   0  0  0  0  0  0  0  0  0  0  0  0
   26.2470   14.7176   24.9258 C   0  0  0  0  0  0  0  0  0  0  0  0
   27.2002   15.3052   23.9147 C   0  0  0  0  0  0  0  0  0  0  0  0
   25.0971   10.2383   28.1979 C   0  0  0  0  0  0  0  0  0  0  0  0
   24.7640    9.8004   26.9550 F   0  0  0  0  0  0  0  0  0  0  0  0
   24.2935    9.5637   29.0644 F   0  0  0  0  0  0  0  0  0  0  0  0
   38.3302    7.7912   32.7756 H   0  0  0  0  0  0  0  0  0  0  0  0
   36.9818    7.4749   33.8615 H   0  0  0  0  0  0  0  0  0  0  0  0
   38.6025    9.6740   34.1533 H   0  0  0  0  0  0  0  0  0  0  0  0
   36.8762    9.7490   34.5450 H   0  0  0  0  0  0  0  0  0  0  0  0
   37.1563   11.5573   32.9407 H   0  0  0  0  0  0  0  0  0  0  0  0
   38.2031   10.5721   31.9127 H   0  0  0  0  0  0  0  0  0  0  0  0
   35.2315   10.1714   32.4865 H   0  0  0  0  0  0  0  0  0  0  0  0
   37.0227    8.1858   31.0203 H   0  0  0  0  0  0  0  0  0  0  0  0
   35.7924   10.6394   28.3382 H   0  0  0  0  0  0  0  0  0  0  0  0
   32.9096   11.3883   28.4776 H   0  0  0  0  0  0  0  0  0  0  0  0
   32.7163   10.9907   25.2225 H   0  0  0  0  0  0  0  0  0  0  0  0
   31.8656   12.1903   26.2078 H   0  0  0  0  0  0  0  0  0  0  0  0
   32.9326   12.7124   24.9044 H   0  0  0  0  0  0  0  0  0  0  0  0
   35.3882   12.4521   25.0738 H   0  0  0  0  0  0  0  0  0  0  0  0
   36.1759   11.8768   26.5401 H   0  0  0  0  0  0  0  0  0  0  0  0
   35.3195   10.7418   25.4823 H   0  0  0  0  0  0  0  0  0  0  0  0
   33.1500   13.7085   27.8018 H   0  0  0  0  0  0  0  0  0  0  0  0
   34.2154   14.1798   26.4669 H   0  0  0  0  0  0  0  0  0  0  0  0
   34.9039   13.5464   27.9647 H   0  0  0  0  0  0  0  0  0  0  0  0
   30.9090    7.8388   30.1070 H   0  0  0  0  0  0  0  0  0  0  0  0
   33.2952    8.1771   29.8514 H   0  0  0  0  0  0  0  0  0  0  0  0
   33.3684    7.1550   28.4149 H   0  0  0  0  0  0  0  0  0  0  0  0
   31.2831    8.6158   26.3652 H   0  0  0  0  0  0  0  0  0  0  0  0
   31.0027    6.5158   27.3338 H   0  0  0  0  0  0  0  0  0  0  0  0
   29.5891    7.1894   28.1213 H   0  0  0  0  0  0  0  0  0  0  0  0
   28.3129    3.5672   34.3164 H   0  0  0  0  0  0  0  0  0  0  0  0
   25.9307    4.2191   34.1120 H   0  0  0  0  0  0  0  0  0  0  0  0
   25.2008    5.6518   32.2136 H   0  0  0  0  0  0  0  0  0  0  0  0
   26.8641    6.4119   30.5429 H   0  0  0  0  0  0  0  0  0  0  0  0
   34.3780    5.3772   31.3324 H   0  0  0  0  0  0  0  0  0  0  0  0
   32.5600    6.5467   33.5148 H   0  0  0  0  0  0  0  0  0  0  0  0
   33.7488    8.5810   32.6917 H   0  0  0  0  0  0  0  0  0  0  0  0
   34.7878    7.7373   33.8684 H   0  0  0  0  0  0  0  0  0  0  0  0
   28.5127    8.6455   27.0052 H   0  0  0  0  0  0  0  0  0  0  0  0
   27.1015   11.6827   29.5673 H   0  0  0  0  0  0  0  0  0  0  0  0
   28.0850   10.2252   29.9794 H   0  0  0  0  0  0  0  0  0  0  0  0
   26.5356    8.7654   28.6462 H   0  0  0  0  0  0  0  0  0  0  0  0
   29.5574   11.9315   26.7236 H   0  0  0  0  0  0  0  0  0  0  0  0
   26.9285   11.8165   23.9724 H   0  0  0  0  0  0  0  0  0  0  0  0
   26.2816   12.9448   22.7878 H   0  0  0  0  0  0  0  0  0  0  0  0
   28.0077   12.5846   22.7979 H   0  0  0  0  0  0  0  0  0  0  0  0
   25.2372   14.4833   24.6158 H   0  0  0  0  0  0  0  0  0  0  0  0
   26.3076   15.0732   25.9514 H   0  0  0  0  0  0  0  0  0  0  0  0
   27.9029   16.0555   24.2641 H   0  0  0  0  0  0  0  0  0  0  0  0
   26.8381   15.4843   22.9075 H   0  0  0  0  0  0  0  0  0  0  0  0
   24.8802   11.3050   28.2920 H   0  0  0  0  0  0  0  0  0  0  0  0
  1  2  1  0
  2  3  1  0
  4  3  1  0
  4  5  1  0
  5  1  1  0
  4  6  1  0
  6  7  1  0
  7  8  1  0
  7  9  2  0
  8 10  1  0
 10 11  1  0
 10 12  1  0
 12 13  1  0
 12 14  1  0
 12 15  1  0
 11 16  2  0
 11 17  1  0
 19 17  1  0
 17 20  1  0
 18 19  1  0
 20 21  1  0
 18 21  1  0
 18 22  1  0
 22 23  1  0
 23 24  2  0
 28 23  1  0
 24 25  1  0
 26 27  1  0
 27 28  2  0
 26 29  1  0
 25 26  2  0
 32 25  1  0
 29 30  2  0
 30 31  1  0
 31 32  2  0
 28 33  1  0
 33 34  1  0
 34 35  2  0
 35 36  1  0
 36 37  1  0
  5 37  1  0
 33 38  1  0
 33 39  1  0
 20 40  1  0
 40 41  1  0
 40 42  2  0
 43 41  1  6
 43 44  1  0
 45 43  1  0
 44 45  1  0
 43 46  1  0
 46 47  1  0
 46 48  2  0
 47 49  1  0
 49 50  1  0
 49 51  2  0
 49 52  2  0
 50 53  1  0
 50 54  1  0
 55 50  1  0
 54 55  1  0
 45 56  1  0
 56 57  1  0
 56 58  1  0
  1 59  1  0
  1 60  1  0
  2 61  1  0
  2 62  1  0
  3 63  1  0
  3 64  1  0
  4 65  1  1
  5 66  1  6
  8 67  1  0
 10 68  1  1
 13 69  1  0
 13 70  1  0
 13 71  1  0
 14 72  1  0
 14 73  1  0
 14 74  1  0
 15 75  1  0
 15 76  1  0
 15 77  1  0
 18 78  1  1
 19 79  1  0
 19 80  1  0
 20 81  1  6
 21 82  1  0
 21 83  1  0
 29 84  1  0
 30 85  1  0
 31 86  1  0
 32 87  1  0
 34 88  1  0
 35 89  1  0
 36 90  1  0
 36 91  1  0
 41 92  1  0
 44 93  1  0
 44 94  1  0
 45 95  1  6
 47 96  1  0
 53 97  1  0
 53 98  1  0
 53 99  1  0
 54100  1  0
 54101  1  0
 55102  1  0
 55103  1  0
 56104  1  0
M  END
> <Uni-Dock RESULT> 
ENERGY=   -4.663  LOWER_BOUND=    3.479  UPPER_BOUND=    9.341
INTER + INTRA:          -4.663
INTER:                  -4.663
INTRA:                   0.000
UNBOUND:                 0.000

$$$$

     RDKit          3D

104110  0  0  0  0  0  0  0  0999 V2000
   26.7041   18.0958   29.0516 C   0  0  0  0  0  0  0  0  0  0  0  0
   26.5603   18.6101   30.4843 C   0  0  0  0  0  0  0  0  0  0  0  0
   25.3039   17.9353   31.0053 C   0  0  0  0  0  0  0  0  0  0  0  0
   25.4337   16.5223   30.4501 C   0  0  2  0  0  0  0  0  0  0  0  0
   25.9453   16.7626   29.0177 C   0  0  2  0  0  0  0  0  0  0  0  0
   24.1438   15.9017   30.4177 O   0  0  0  0  0  0  0  0  0  0  0  0
   24.0983   14.5851   30.7235 C   0  0  0  0  0  0  0  0  0  0  0  0
   22.8449   14.1252   30.4623 N   0  0  0  0  0  0  0  0  0  0  0  0
   25.0352   13.9171   31.1305 O   0  0  0  0  0  0  0  0  0  0  0  0
   22.5062   12.7039   30.4768 C   0  0  2  0  0  0  0  0  0  0  0  0
   22.8436   12.1469   29.0693 C   0  0  0  0  0  0  0  0  0  0  0  0
   21.0250   12.4630   30.9115 C   0  0  0  0  0  0  0  0  0  0  0  0
   20.6502   10.9768   30.7560 C   0  0  0  0  0  0  0  0  0  0  0  0
   19.9977   13.3056   30.1286 C   0  0  0  0  0  0  0  0  0  0  0  0
   20.8846   12.8287   32.4066 C   0  0  0  0  0  0  0  0  0  0  0  0
   22.1931   12.4006   28.0555 O   0  0  0  0  0  0  0  0  0  0  0  0
   24.0726   11.5007   29.0007 N   0  0  0  0  0  0  0  0  0  0  0  0
   26.1536   11.0565   28.0165 C   0  0  1  0  0  0  0  0  0  0  0  0
   25.0946   12.1362   28.1911 C   0  0  0  0  0  0  0  0  0  0  0  0
   24.0837   10.0577   28.7200 C   0  0  1  0  0  0  0  0  0  0  0  0
   25.2687    9.8373   27.7721 C   0  0  0  0  0  0  0  0  0  0  0  0
   26.9751   11.3531   26.8935 O   0  0  0  0  0  0  0  0  0  0  0  0
   28.2694   10.9232   27.0595 C   0  0  0  0  0  0  0  0  0  0  0  0
   28.4575    9.7039   27.6176 N   0  0  0  0  0  0  0  0  0  0  0  0
   29.7325    9.2880   27.7344 C   0  0  0  0  0  0  0  0  0  0  0  0
   30.8165   10.0890   27.2998 C   0  0  0  0  0  0  0  0  0  0  0  0
   30.6123   11.3029   26.7560 N   0  0  0  0  0  0  0  0  0  0  0  0
   29.3173   11.7220   26.6170 C   0  0  0  0  0  0  0  0  0  0  0  0
   32.1117    9.6079   27.4395 C   0  0  0  0  0  0  0  0  0  0  0  0
   32.3629    8.3551   28.0009 C   0  0  0  0  0  0  0  0  0  0  0  0
   31.3014    7.5690   28.4299 C   0  0  0  0  0  0  0  0  0  0  0  0
   29.9953    8.0429   28.2957 C   0  0  0  0  0  0  0  0  0  0  0  0
   29.0289   13.0784   25.9867 C   0  0  0  0  0  0  0  0  0  0  0  0
   28.3213   14.0462   26.9137 C   0  0  0  0  0  0  0  0  0  0  0  0
   28.6118   14.3149   28.2028 C   0  0  0  0  0  0  0  0  0  0  0  0
   27.8224   15.2246   29.1067 C   0  0  0  0  0  0  0  0  0  0  0  0
   26.6695   15.6925   28.4210 O   0  0  0  0  0  0  0  0  0  0  0  0
   28.2639   12.9355   24.8578 F   0  0  0  0  0  0  0  0  0  0  0  0
   30.1680   13.6945   25.5385 F   0  0  0  0  0  0  0  0  0  0  0  0
   24.1900    9.2812   30.0490 C   0  0  0  0  0  0  0  0  0  0  0  0
   24.5659    7.9556   29.9639 N   0  0  0  0  0  0  0  0  0  0  0  0
   23.8565    9.7550   31.1359 O   0  0  0  0  0  0  0  0  0  0  0  0
   24.8778    7.1639   31.1587 C   0  0  2  0  0  0  0  0  0  0  0  0
   26.1245    7.5507   31.9568 C   0  0  0  0  0  0  0  0  0  0  0  0
   26.1696    6.3422   31.0734 C   0  0  1  0  0  0  0  0  0  0  0  0
   23.6933    6.6561   31.9910 C   0  0  0  0  0  0  0  0  0  0  0  0
   22.5641    7.4757   31.9839 N   0  0  0  0  0  0  0  0  0  0  0  0
   23.7666    5.6145   32.6270 O   0  0  0  0  0  0  0  0  0  0  0  0
   21.2605    7.3014   32.9961 S   0  0  0  0  0  0  0  0  0  0  0  0
   20.7772    5.5566   33.1168 C   0  0  0  0  0  0  0  0  0  0  0  0
   21.6867    7.7564   34.3015 O   0  0  0  0  0  0  0  0  0  0  0  0
   20.1600    7.9542   32.3219 O   0  0  0  0  0  0  0  0  0  0  0  0
   20.5457    4.9125   31.7985 C   0  0  0  0  0  0  0  0  0  0  0  0
   21.3074    4.7991   34.3067 C   0  0  0  0  0  0  0  0  0  0  0  0
   19.8708    5.2594   34.2876 C   0  0  0  0  0  0  0  0  0  0  0  0
   26.2966    4.9722   31.6289 C   0  0  0  0  0  0  0  0  0  0  0  0
   25.5632    4.1324   30.8514 F   0  0  0  0  0  0  0  0  0  0  0  0
   27.5930    4.5836   31.4867 F   0  0  0  0  0  0  0  0  0  0  0  0
   26.2165   18.8079   28.3693 H   0  0  0  0  0  0  0  0  0  0  0  0
   27.7506   18.0302   28.7423 H   0  0  0  0  0  0  0  0  0  0  0  0
   26.4926   19.7004   30.5244 H   0  0  0  0  0  0  0  0  0  0  0  0
   27.4275   18.3023   31.0814 H   0  0  0  0  0  0  0  0  0  0  0  0
   25.2454   17.9464   32.0981 H   0  0  0  0  0  0  0  0  0  0  0  0
   24.4044   18.4288   30.6204 H   0  0  0  0  0  0  0  0  0  0  0  0
   26.1472   15.9610   31.0604 H   0  0  0  0  0  0  0  0  0  0  0  0
   25.0755   16.8988   28.3636 H   0  0  0  0  0  0  0  0  0  0  0  0
   22.2895   14.7434   29.8868 H   0  0  0  0  0  0  0  0  0  0  0  0
   23.1661   12.2146   31.2010 H   0  0  0  0  0  0  0  0  0  0  0  0
   20.6870   10.6576   29.7107 H   0  0  0  0  0  0  0  0  0  0  0  0
   21.3317   10.3427   31.3290 H   0  0  0  0  0  0  0  0  0  0  0  0
   19.6361   10.7812   31.1224 H   0  0  0  0  0  0  0  0  0  0  0  0
   18.9749   13.0698   30.4504 H   0  0  0  0  0  0  0  0  0  0  0  0
   20.1414   14.3796   30.2927 H   0  0  0  0  0  0  0  0  0  0  0  0
   20.0418   13.1183   29.0518 H   0  0  0  0  0  0  0  0  0  0  0  0
   21.5629   12.2310   33.0251 H   0  0  0  0  0  0  0  0  0  0  0  0
   19.8624   12.6529   32.7612 H   0  0  0  0  0  0  0  0  0  0  0  0
   21.1158   13.8840   32.5819 H   0  0  0  0  0  0  0  0  0  0  0  0
   26.7198   10.9591   28.9534 H   0  0  0  0  0  0  0  0  0  0  0  0
   25.4846   13.0275   28.6887 H   0  0  0  0  0  0  0  0  0  0  0  0
   24.6789   12.4540   27.2274 H   0  0  0  0  0  0  0  0  0  0  0  0
   23.1435    9.7538   28.2449 H   0  0  0  0  0  0  0  0  0  0  0  0
   24.9154    9.8320   26.7346 H   0  0  0  0  0  0  0  0  0  0  0  0
   25.8192    8.9049   27.9161 H   0  0  0  0  0  0  0  0  0  0  0  0
   32.9407   10.2220   27.0927 H   0  0  0  0  0  0  0  0  0  0  0  0
   33.3851    7.9992   28.0942 H   0  0  0  0  0  0  0  0  0  0  0  0
   31.4855    6.5906   28.8669 H   0  0  0  0  0  0  0  0  0  0  0  0
   29.1654    7.4238   28.6252 H   0  0  0  0  0  0  0  0  0  0  0  0
   27.4659   14.5322   26.4491 H   0  0  0  0  0  0  0  0  0  0  0  0
   29.4790   13.8421   28.6642 H   0  0  0  0  0  0  0  0  0  0  0  0
   27.5190   14.6464   29.9835 H   0  0  0  0  0  0  0  0  0  0  0  0
   28.4610   16.0529   29.4267 H   0  0  0  0  0  0  0  0  0  0  0  0
   24.6904    7.5117   29.0604 H   0  0  0  0  0  0  0  0  0  0  0  0
   26.1042    7.4163   33.0318 H   0  0  0  0  0  0  0  0  0  0  0  0
   26.6810    8.4295   31.6526 H   0  0  0  0  0  0  0  0  0  0  0  0
   26.7414    6.4126   30.1568 H   0  0  0  0  0  0  0  0  0  0  0  0
   22.7223    8.4572   31.7437 H   0  0  0  0  0  0  0  0  0  0  0  0
   21.4492    4.9134   31.1832 H   0  0  0  0  0  0  0  0  0  0  0  0
   20.2387    3.8692   31.9174 H   0  0  0  0  0  0  0  0  0  0  0  0
   19.7557    5.4259   31.2445 H   0  0  0  0  0  0  0  0  0  0  0  0
   21.5188    3.7448   34.1857 H   0  0  0  0  0  0  0  0  0  0  0  0
   21.9942    5.2975   34.9862 H   0  0  0  0  0  0  0  0  0  0  0  0
   19.5944    6.0700   34.9549 H   0  0  0  0  0  0  0  0  0  0  0  0
   19.0918    4.5143   34.1628 H   0  0  0  0  0  0  0  0  0  0  0  0
   26.0182    4.8528   32.6786 H   0  0  0  0  0  0  0  0  0  0  0  0
  1  2  1  0
  2  3  1  0
  4  3  1  0
  4  5  1  0
  5  1  1  0
  4  6  1  0
  6  7  1  0
  7  8  1  0
  7  9  2  0
  8 10  1  0
 10 11  1  0
 10 12  1  0
 12 13  1  0
 12 14  1  0
 12 15  1  0
 11 16  2  0
 11 17  1  0
 19 17  1  0
 17 20  1  0
 18 19  1  0
 20 21  1  0
 18 21  1  0
 18 22  1  0
 22 23  1  0
 23 24  2  0
 28 23  1  0
 24 25  1  0
 26 27  1  0
 27 28  2  0
 26 29  1  0
 25 26  2  0
 32 25  1  0
 29 30  2  0
 30 31  1  0
 31 32  2  0
 28 33  1  0
 33 34  1  0
 34 35  2  0
 35 36  1  0
 36 37  1  0
  5 37  1  0
 33 38  1  0
 33 39  1  0
 20 40  1  0
 40 41  1  0
 40 42  2  0
 43 41  1  6
 43 44  1  0
 45 43  1  0
 44 45  1  0
 43 46  1  0
 46 47  1  0
 46 48  2  0
 47 49  1  0
 49 50  1  0
 49 51  2  0
 49 52  2  0
 50 53  1  0
 50 54  1  0
 55 50  1  0
 54 55  1  0
 45 56  1  0
 56 57  1  0
 56 58  1  0
  1 59  1  0
  1 60  1  0
  2 61  1  0
  2 62  1  0
  3 63  1  0
  3 64  1  0
  4 65  1  1
  5 66  1  6
  8 67  1  0
 10 68  1  1
 13 69  1  0
 13 70  1  0
 13 71  1  0
 14 72  1  0
 14 73  1  0
 14 74  1  0
 15 75  1  0
 15 76  1  0
 15 77  1  0
 18 78  1  1
 19 79  1  0
 19 80  1  0
 20 81  1  6
 21 82  1  0
 21 83  1  0
 29 84  1  0
 30 85  1  0
 31 86  1  0
 32 87  1  0
 34 88  1  0
 35 89  1  0
 36 90  1  0
 36 91  1  0
 41 92  1  0
 44 93  1  0
 44 94  1  0
 45 95  1  6
 47 96  1  0
 53 97  1  0
 53 98  1  0
 53 99  1  0
 54100  1  0
 54101  1  0
 55102  1  0
 55103  1  0
 56104  1  0
M  END
> <Uni-Dock RESULT> 
ENERGY=   -4.146  LOWER_BOUND=    4.728  UPPER_BOUND=    9.110
INTER + INTRA:          -4.146
INTER:                  -4.146
INTRA:                   0.000
UNBOUND:                 0.000

$$$$

     RDKit          3D

104110  0  0  0  0  0  0  0  0999 V2000
   24.4203   10.5667   28.3096 C   0  0  0  0  0  0  0  0  0  0  0  0
   23.9942   10.6639   29.7748 C   0  0  0  0  0  0  0  0  0  0  0  0
   24.8286    9.6114   30.4830 C   0  0  0  0  0  0  0  0  0  0  0  0
   26.1902    9.7664   29.8171 C   0  0  2  0  0  0  0  0  0  0  0  0
   25.8263    9.9528   28.3325 C   0  0  2  0  0  0  0  0  0  0  0  0
   26.9479    8.5646   29.9943 O   0  0  0  0  0  0  0  0  0  0  0  0
   28.2745    8.7126   30.2115 C   0  0  0  0  0  0  0  0  0  0  0  0
   28.8577    7.4842   30.1687 N   0  0  0  0  0  0  0  0  0  0  0  0
   28.8531    9.7738   30.3808 O   0  0  0  0  0  0  0  0  0  0  0  0
   30.3070    7.2982   30.1509 C   0  0  2  0  0  0  0  0  0  0  0  0
   30.7551    7.3990   28.6696 C   0  0  0  0  0  0  0  0  0  0  0  0
   30.7314    5.9662   30.8486 C   0  0  0  0  0  0  0  0  0  0  0  0
   32.2408    5.7173   30.6671 C   0  0  0  0  0  0  0  0  0  0  0  0
   29.9715    4.7239   30.3411 C   0  0  0  0  0  0  0  0  0  0  0  0
   30.4554    6.0941   32.3639 C   0  0  0  0  0  0  0  0  0  0  0  0
   30.5269    6.5358   27.8222 O   0  0  0  0  0  0  0  0  0  0  0  0
   31.2568    8.6470   28.3182 N   0  0  0  0  0  0  0  0  0  0  0  0
   31.4196   10.5209   26.9188 C   0  0  1  0  0  0  0  0  0  0  0  0
   30.4737    9.4168   27.3707 C   0  0  0  0  0  0  0  0  0  0  0  0
   32.6745    8.7446   27.9419 C   0  0  1  0  0  0  0  0  0  0  0  0
   32.7164    9.7304   26.7682 C   0  0  0  0  0  0  0  0  0  0  0  0
   30.9802   11.0659   25.6802 O   0  0  0  0  0  0  0  0  0  0  0  0
   31.2711   12.4033   25.5606 C   0  0  0  0  0  0  0  0  0  0  0  0
   32.4873   12.8199   25.9858 N   0  0  0  0  0  0  0  0  0  0  0  0
   32.7641   14.1273   25.8226 C   0  0  0  0  0  0  0  0  0  0  0  0
   31.8279   15.0166   25.2412 C   0  0  0  0  0  0  0  0  0  0  0  0
   30.6196   14.5876   24.8328 N   0  0  0  0  0  0  0  0  0  0  0  0
   30.3407   13.2561   24.9783 C   0  0  0  0  0  0  0  0  0  0  0  0
   32.1683   16.3547   25.0921 C   0  0  0  0  0  0  0  0  0  0  0  0
   33.4109   16.8368   25.5059 C   0  0  0  0  0  0  0  0  0  0  0  0
   34.3296   15.9668   26.0785 C   0  0  0  0  0  0  0  0  0  0  0  0
   33.9979   14.6200   26.2347 C   0  0  0  0  0  0  0  0  0  0  0  0
   28.9961   12.7134   24.5114 C   0  0  0  0  0  0  0  0  0  0  0  0
   28.1583   12.1144   25.6232 C   0  0  0  0  0  0  0  0  0  0  0  0
   27.9210   12.6302   26.8463 C   0  0  0  0  0  0  0  0  0  0  0  0
   27.1488   11.9527   27.9473 C   0  0  0  0  0  0  0  0  0  0  0  0
   26.7797   10.6446   27.5337 O   0  0  0  0  0  0  0  0  0  0  0  0
   29.1689   11.7548   23.5464 F   0  0  0  0  0  0  0  0  0  0  0  0
   28.2366   13.6720   23.8932 F   0  0  0  0  0  0  0  0  0  0  0  0
   33.4971    9.1928   29.1678 C   0  0  0  0  0  0  0  0  0  0  0  0
   34.7672    9.6736   28.9198 N   0  0  0  0  0  0  0  0  0  0  0  0
   33.1158    9.0395   30.3290 O   0  0  0  0  0  0  0  0  0  0  0  0
   35.5756   10.2966   29.9734 C   0  0  2  0  0  0  0  0  0  0  0  0
   35.0914   11.6338   30.5377 C   0  0  0  0  0  0  0  0  0  0  0  0
   36.2438   11.6200   29.5812 C   0  0  1  0  0  0  0  0  0  0  0  0
   36.2510    9.3604   30.9837 C   0  0  0  0  0  0  0  0  0  0  0  0
   35.5624    8.1772   31.2535 N   0  0  0  0  0  0  0  0  0  0  0  0
   37.3072    9.6632   31.5197 O   0  0  0  0  0  0  0  0  0  0  0  0
   35.9286    7.1279   32.4861 S   0  0  0  0  0  0  0  0  0  0  0  0
   37.7201    6.8545   32.5781 C   0  0  0  0  0  0  0  0  0  0  0  0
   35.4921    7.7608   33.7115 O   0  0  0  0  0  0  0  0  0  0  0  0
   35.3706    5.8549   32.0861 O   0  0  0  0  0  0  0  0  0  0  0  0
   38.3221    6.4275   31.2890 C   0  0  0  0  0  0  0  0  0  0  0  0
   38.4701    7.6859   33.5866 C   0  0  0  0  0  0  0  0  0  0  0  0
   38.1718    6.2364   33.8799 C   0  0  0  0  0  0  0  0  0  0  0  0
   37.6162   11.9916   30.0054 C   0  0  0  0  0  0  0  0  0  0  0  0
   38.4941   11.2038   29.3299 F   0  0  0  0  0  0  0  0  0  0  0  0
   37.8512   13.2648   29.5866 F   0  0  0  0  0  0  0  0  0  0  0  0
   23.7349    9.8834   27.7863 H   0  0  0  0  0  0  0  0  0  0  0  0
   24.3544   11.5307   27.7984 H   0  0  0  0  0  0  0  0  0  0  0  0
   22.9214   10.4977   29.9025 H   0  0  0  0  0  0  0  0  0  0  0  0
   24.2321   11.6597   30.1686 H   0  0  0  0  0  0  0  0  0  0  0  0
   24.8763    9.7733   31.5644 H   0  0  0  0  0  0  0  0  0  0  0  0
   24.4201    8.6084   30.3160 H   0  0  0  0  0  0  0  0  0  0  0  0
   26.6973   10.6403   30.2363 H   0  0  0  0  0  0  0  0  0  0  0  0
   25.7565    8.9600   27.8716 H   0  0  0  0  0  0  0  0  0  0  0  0
   28.2782    6.7657   29.7567 H   0  0  0  0  0  0  0  0  0  0  0  0
   30.7540    8.1356   30.6970 H   0  0  0  0  0  0  0  0  0  0  0  0
   32.5036    5.5744   29.6152 H   0  0  0  0  0  0  0  0  0  0  0  0
   32.8220    6.5597   31.0510 H   0  0  0  0  0  0  0  0  0  0  0  0
   32.5651    4.8223   31.2099 H   0  0  0  0  0  0  0  0  0  0  0  0
   30.3346    3.8153   30.8392 H   0  0  0  0  0  0  0  0  0  0  0  0
   28.8973    4.7903   30.5477 H   0  0  0  0  0  0  0  0  0  0  0  0
   30.1010    4.5686   29.2661 H   0  0  0  0  0  0  0  0  0  0  0  0
   31.0030    6.9389   32.7955 H   0  0  0  0  0  0  0  0  0  0  0  0
   30.7604    5.1868   32.8981 H   0  0  0  0  0  0  0  0  0  0  0  0
   29.3905    6.2498   32.5631 H   0  0  0  0  0  0  0  0  0  0  0  0
   31.4982   11.2709   27.7182 H   0  0  0  0  0  0  0  0  0  0  0  0
   29.5695    9.8085   27.8429 H   0  0  0  0  0  0  0  0  0  0  0  0
   30.1583    8.7862   26.5308 H   0  0  0  0  0  0  0  0  0  0  0  0
   33.0578    7.7629   27.6396 H   0  0  0  0  0  0  0  0  0  0  0  0
   32.7112    9.1778   25.8217 H   0  0  0  0  0  0  0  0  0  0  0  0
   33.5877   10.3884   26.7373 H   0  0  0  0  0  0  0  0  0  0  0  0
   31.4501   17.0317   24.6334 H   0  0  0  0  0  0  0  0  0  0  0  0
   33.6552   17.8871   25.3733 H   0  0  0  0  0  0  0  0  0  0  0  0
   35.3014   16.3314   26.4026 H   0  0  0  0  0  0  0  0  0  0  0  0
   34.7203   13.9391   26.6762 H   0  0  0  0  0  0  0  0  0  0  0  0
   27.7487   11.1390   25.3690 H   0  0  0  0  0  0  0  0  0  0  0  0
   28.3161   13.6152   27.0958 H   0  0  0  0  0  0  0  0  0  0  0  0
   27.7984   11.8909   28.8245 H   0  0  0  0  0  0  0  0  0  0  0  0
   26.2711   12.5571   28.1930 H   0  0  0  0  0  0  0  0  0  0  0  0
   35.1508    9.6572   27.9809 H   0  0  0  0  0  0  0  0  0  0  0  0
   35.2785   11.8438   31.5841 H   0  0  0  0  0  0  0  0  0  0  0  0
   34.1427   12.0276   30.1921 H   0  0  0  0  0  0  0  0  0  0  0  0
   36.0666   11.9856   28.5778 H   0  0  0  0  0  0  0  0  0  0  0  0
   34.5591    8.1855   31.0554 H   0  0  0  0  0  0  0  0  0  0  0  0
   38.1914    7.1839   30.5109 H   0  0  0  0  0  0  0  0  0  0  0  0
   39.3975    6.2559   31.3934 H   0  0  0  0  0  0  0  0  0  0  0  0
   37.8737    5.4952   30.9366 H   0  0  0  0  0  0  0  0  0  0  0  0
   39.4874    7.9723   33.3543 H   0  0  0  0  0  0  0  0  0  0  0  0
   37.9316    8.4425   34.1518 H   0  0  0  0  0  0  0  0  0  0  0  0
   37.4297    6.0209   34.6425 H   0  0  0  0  0  0  0  0  0  0  0  0
   38.9920    5.5261   33.8583 H   0  0  0  0  0  0  0  0  0  0  0  0
   37.8158   11.9434   31.0785 H   0  0  0  0  0  0  0  0  0  0  0  0
  1  2  1  0
  2  3  1  0
  4  3  1  0
  4  5  1  0
  5  1  1  0
  4  6  1  0
  6  7  1  0
  7  8  1  0
  7  9  2  0
  8 10  1  0
 10 11  1  0
 10 12  1  0
 12 13  1  0
 12 14  1  0
 12 15  1  0
 11 16  2  0
 11 17  1  0
 19 17  1  0
 17 20  1  0
 18 19  1  0
 20 21  1  0
 18 21  1  0
 18 22  1  0
 22 23  1  0
 23 24  2  0
 28 23  1  0
 24 25  1  0
 26 27  1  0
 27 28  2  0
 26 29  1  0
 25 26  2  0
 32 25  1  0
 29 30  2  0
 30 31  1  0
 31 32  2  0
 28 33  1  0
 33 34  1  0
 34 35  2  0
 35 36  1  0
 36 37  1  0
  5 37  1  0
 33 38  1  0
 33 39  1  0
 20 40  1  0
 40 41  1  0
 40 42  2  0
 43 41  1  6
 43 44  1  0
 45 43  1  0
 44 45  1  0
 43 46  1  0
 46 47  1  0
 46 48  2  0
 47 49  1  0
 49 50  1  0
 49 51  2  0
 49 52  2  0
 50 53  1  0
 50 54  1  0
 55 50  1  0
 54 55  1  0
 45 56  1  0
 56 57  1  0
 56 58  1  0
  1 59  1  0
  1 60  1  0
  2 61  1  0
  2 62  1  0
  3 63  1  0
  3 64  1  0
  4 65  1  1
  5 66  1  6
  8 67  1  0
 10 68  1  1
 13 69  1  0
 13 70  1  0
 13 71  1  0
 14 72  1  0
 14 73  1  0
 14 74  1  0
 15 75  1  0
 15 76  1  0
 15 77  1  0
 18 78  1  1
 19 79  1  0
 19 80  1  0
 20 81  1  6
 21 82  1  0
 21 83  1  0
 29 84  1  0
 30 85  1  0
 31 86  1  0
 32 87  1  0
 34 88  1  0
 35 89  1  0
 36 90  1  0
 36 91  1  0
 41 92  1  0
 44 93  1  0
 44 94  1  0
 45 95  1  6
 47 96  1  0
 53 97  1  0
 53 98  1  0
 53 99  1  0
 54100  1  0
 54101  1  0
 55102  1  0
 55103  1  0
 56104  1  0
M  END
> <Uni-Dock RESULT> 
ENERGY=   -4.052  LOWER_BOUND=    4.454  UPPER_BOUND=    8.730
INTER + INTRA:          -4.052
INTER:                  -4.052
INTRA:                   0.000
UNBOUND:                 0.000

$$$$

     RDKit          3D

104110  0  0  0  0  0  0  0  0999 V2000
   23.8550    9.4595   29.5532 C   0  0  0  0  0  0  0  0  0  0  0  0
   23.6018    9.4693   31.0610 C   0  0  0  0  0  0  0  0  0  0  0  0
   24.6251    8.4989   31.6237 C   0  0  0  0  0  0  0  0  0  0  0  0
   25.8710    8.8237   30.8089 C   0  0  2  0  0  0  0  0  0  0  0  0
   25.3116    9.0073   29.3860 C   0  0  2  0  0  0  0  0  0  0  0  0
   26.7705    7.7104   30.8476 O   0  0  0  0  0  0  0  0  0  0  0  0
   28.0897    8.0008   30.9130 C   0  0  0  0  0  0  0  0  0  0  0  0
   28.7932    6.8474   30.7530 N   0  0  0  0  0  0  0  0  0  0  0  0
   28.5659    9.1155   31.0553 O   0  0  0  0  0  0  0  0  0  0  0  0
   30.2411    6.8262   30.5574 C   0  0  2  0  0  0  0  0  0  0  0  0
   30.4926    7.0160   29.0389 C   0  0  0  0  0  0  0  0  0  0  0  0
   30.8890    5.5323   31.1467 C   0  0  0  0  0  0  0  0  0  0  0  0
   32.3833    5.4596   30.7791 C   0  0  0  0  0  0  0  0  0  0  0  0
   30.2124    4.2263   30.6831 C   0  0  0  0  0  0  0  0  0  0  0  0
   30.7867    5.5880   32.6879 C   0  0  0  0  0  0  0  0  0  0  0  0
   30.2583    6.1555   28.1906 O   0  0  0  0  0  0  0  0  0  0  0  0
   30.8095    8.3214   28.6810 N   0  0  0  0  0  0  0  0  0  0  0  0
   30.5971   10.2382   27.3479 C   0  0  1  0  0  0  0  0  0  0  0  0
   29.8384    9.0231   27.8635 C   0  0  0  0  0  0  0  0  0  0  0  0
   32.1521    8.5878   28.1447 C   0  0  1  0  0  0  0  0  0  0  0  0
   31.9441    9.6029   27.0144 C   0  0  0  0  0  0  0  0  0  0  0  0
   29.9542   10.7631   26.1923 O   0  0  0  0  0  0  0  0  0  0  0  0
   30.0817   12.1274   26.0926 C   0  0  0  0  0  0  0  0  0  0  0  0
   31.2880   12.6667   26.3881 N   0  0  0  0  0  0  0  0  0  0  0  0
   31.3995   14.0008   26.2457 C   0  0  0  0  0  0  0  0  0  0  0  0
   30.3088   14.7943   25.8144 C   0  0  0  0  0  0  0  0  0  0  0  0
   29.1135   14.2431   25.5342 N   0  0  0  0  0  0  0  0  0  0  0  0
   29.0005   12.8852   25.6583 C   0  0  0  0  0  0  0  0  0  0  0  0
   30.4814   16.1656   25.6797 C   0  0  0  0  0  0  0  0  0  0  0  0
   31.7054   16.7733   25.9633 C   0  0  0  0  0  0  0  0  0  0  0  0
   32.7756   15.9972   26.3887 C   0  0  0  0  0  0  0  0  0  0  0  0
   32.6133   14.6180   26.5291 C   0  0  0  0  0  0  0  0  0  0  0  0
   27.6760   12.2074   25.3316 C   0  0  0  0  0  0  0  0  0  0  0  0
   27.0492   11.4887   26.5094 C   0  0  0  0  0  0  0  0  0  0  0  0
   26.9076   11.9419   27.7715 C   0  0  0  0  0  0  0  0  0  0  0  0
   26.3528   11.1527   28.9279 C   0  0  0  0  0  0  0  0  0  0  0  0
   26.0802    9.8229   28.5088 O   0  0  0  0  0  0  0  0  0  0  0  0
   27.8334   11.3003   24.3155 F   0  0  0  0  0  0  0  0  0  0  0  0
   26.7476   13.0906   24.8458 F   0  0  0  0  0  0  0  0  0  0  0  0
   33.0639    9.0930   29.2822 C   0  0  0  0  0  0  0  0  0  0  0  0
   34.2348    9.7199   28.9058 N   0  0  0  0  0  0  0  0  0  0  0  0
   32.8452    8.8670   30.4731 O   0  0  0  0  0  0  0  0  0  0  0  0
   35.0927   10.4018   29.8809 C   0  0  2  0  0  0  0  0  0  0  0  0
   34.5383   11.6606   30.5511 C   0  0  0  0  0  0  0  0  0  0  0  0
   35.5608   11.8018   29.4660 C   0  0  1  0  0  0  0  0  0  0  0  0
   35.9833    9.5210   30.7667 C   0  0  0  0  0  0  0  0  0  0  0  0
   35.4649    8.2610   31.0683 N   0  0  0  0  0  0  0  0  0  0  0  0
   37.0576    9.9263   31.1864 O   0  0  0  0  0  0  0  0  0  0  0  0
   36.0896    7.2273   32.2064 S   0  0  0  0  0  0  0  0  0  0  0  0
   37.8981    7.1547   32.0761 C   0  0  0  0  0  0  0  0  0  0  0  0
   35.7389    7.7743   33.4989 O   0  0  0  0  0  0  0  0  0  0  0  0
   35.6286    5.9107   31.8245 O   0  0  0  0  0  0  0  0  0  0  0  0
   38.3819    6.8325   30.7091 C   0  0  0  0  0  0  0  0  0  0  0  0
   38.6702    8.0381   33.0216 C   0  0  0  0  0  0  0  0  0  0  0  0
   38.5687    6.5570   33.2900 C   0  0  0  0  0  0  0  0  0  0  0  0
   36.9261   12.3140   29.7402 C   0  0  0  0  0  0  0  0  0  0  0  0
   37.7958   11.6482   28.9353 F   0  0  0  0  0  0  0  0  0  0  0  0
   36.9690   13.6163   29.3477 F   0  0  0  0  0  0  0  0  0  0  0  0
   23.1893    8.7177   29.0873 H   0  0  0  0  0  0  0  0  0  0  0  0
   23.6233   10.4233   29.0921 H   0  0  0  0  0  0  0  0  0  0  0  0
   22.5768    9.1802   31.3073 H   0  0  0  0  0  0  0  0  0  0  0  0
   23.7763   10.4748   31.4635 H   0  0  0  0  0  0  0  0  0  0  0  0
   24.7858    8.6363   32.6975 H   0  0  0  0  0  0  0  0  0  0  0  0
   24.3107    7.4611   31.4660 H   0  0  0  0  0  0  0  0  0  0  0  0
   26.3274    9.7377   31.2000 H   0  0  0  0  0  0  0  0  0  0  0  0
   25.2944    8.0255   28.8973 H   0  0  0  0  0  0  0  0  0  0  0  0
   28.2493    6.0795   30.3837 H   0  0  0  0  0  0  0  0  0  0  0  0
   30.6576    7.6938   31.0801 H   0  0  0  0  0  0  0  0  0  0  0  0
   32.5304    5.3751   29.6988 H   0  0  0  0  0  0  0  0  0  0  0  0
   32.9119    6.3515   31.1253 H   0  0  0  0  0  0  0  0  0  0  0  0
   32.8662    4.5927   31.2439 H   0  0  0  0  0  0  0  0  0  0  0  0
   30.7297    3.3515   31.0984 H   0  0  0  0  0  0  0  0  0  0  0  0
   29.1704    4.1660   31.0171 H   0  0  0  0  0  0  0  0  0  0  0  0
   30.2266    4.1152   29.5950 H   0  0  0  0  0  0  0  0  0  0  0  0
   31.2878    6.4773   33.0853 H   0  0  0  0  0  0  0  0  0  0  0  0
   31.2509    4.7070   33.1459 H   0  0  0  0  0  0  0  0  0  0  0  0
   29.7433    5.6177   33.0170 H   0  0  0  0  0  0  0  0  0  0  0  0
   30.6903   10.9708   28.1618 H   0  0  0  0  0  0  0  0  0  0  0  0
   28.9611    9.2980   28.4541 H   0  0  0  0  0  0  0  0  0  0  0  0
   29.4937    8.3835   27.0422 H   0  0  0  0  0  0  0  0  0  0  0  0
   32.6002    7.6638   27.7604 H   0  0  0  0  0  0  0  0  0  0  0  0
   31.8841    9.0785   26.0538 H   0  0  0  0  0  0  0  0  0  0  0  0
   32.7287   10.3553   26.9075 H   0  0  0  0  0  0  0  0  0  0  0  0
   29.6437   16.7695   25.3360 H   0  0  0  0  0  0  0  0  0  0  0  0
   31.8164   17.8475   25.8448 H   0  0  0  0  0  0  0  0  0  0  0  0
   33.7342   16.4601   26.6106 H   0  0  0  0  0  0  0  0  0  0  0  0
   33.4536   14.0112   26.8551 H   0  0  0  0  0  0  0  0  0  0  0  0
   26.7201   10.4804   26.2666 H   0  0  0  0  0  0  0  0  0  0  0  0
   27.2209   12.9580   28.0119 H   0  0  0  0  0  0  0  0  0  0  0  0
   27.1069   11.1412   29.7194 H   0  0  0  0  0  0  0  0  0  0  0  0
   25.4510   11.6479   29.2990 H   0  0  0  0  0  0  0  0  0  0  0  0
   34.5011    9.7717   27.9284 H   0  0  0  0  0  0  0  0  0  0  0  0
   34.8272   11.8624   31.5758 H   0  0  0  0  0  0  0  0  0  0  0  0
   33.5177   11.9542   30.3355 H   0  0  0  0  0  0  0  0  0  0  0  0
   35.2245   12.1717   28.5057 H   0  0  0  0  0  0  0  0  0  0  0  0
   34.4500    8.1618   30.9900 H   0  0  0  0  0  0  0  0  0  0  0  0
   38.0765    7.5899   29.9825 H   0  0  0  0  0  0  0  0  0  0  0  0
   39.4742    6.7802   30.6793 H   0  0  0  0  0  0  0  0  0  0  0  0
   37.9978    5.8654   30.3750 H   0  0  0  0  0  0  0  0  0  0  0  0
   39.6147    8.4432   32.6829 H   0  0  0  0  0  0  0  0  0  0  0  0
   38.1254    8.7141   33.6760 H   0  0  0  0  0  0  0  0  0  0  0  0
   37.9525    6.2393   34.1255 H   0  0  0  0  0  0  0  0  0  0  0  0
   39.4524    5.9443   33.1438 H   0  0  0  0  0  0  0  0  0  0  0  0
   37.2584   12.2601   30.7796 H   0  0  0  0  0  0  0  0  0  0  0  0
  1  2  1  0
  2  3  1  0
  4  3  1  0
  4  5  1  0
  5  1  1  0
  4  6  1  0
  6  7  1  0
  7  8  1  0
  7  9  2  0
  8 10  1  0
 10 11  1  0
 10 12  1  0
 12 13  1  0
 12 14  1  0
 12 15  1  0
 11 16  2  0
 11 17  1  0
 19 17  1  0
 17 20  1  0
 18 19  1  0
 20 21  1  0
 18 21  1  0
 18 22  1  0
 22 23  1  0
 23 24  2  0
 28 23  1  0
 24 25  1  0
 26 27  1  0
 27 28  2  0
 26 29  1  0
 25 26  2  0
 32 25  1  0
 29 30  2  0
 30 31  1  0
 31 32  2  0
 28 33  1  0
 33 34  1  0
 34 35  2  0
 35 36  1  0
 36 37  1  0
  5 37  1  0
 33 38  1  0
 33 39  1  0
 20 40  1  0
 40 41  1  0
 40 42  2  0
 43 41  1  6
 43 44  1  0
 45 43  1  0
 44 45  1  0
 43 46  1  0
 46 47  1  0
 46 48  2  0
 47 49  1  0
 49 50  1  0
 49 51  2  0
 49 52  2  0
 50 53  1  0
 50 54  1  0
 55 50  1  0
 54 55  1  0
 45 56  1  0
 56 57  1  0
 56 58  1  0
  1 59  1  0
  1 60  1  0
  2 61  1  0
  2 62  1  0
  3 63  1  0
  3 64  1  0
  4 65  1  1
  5 66  1  6
  8 67  1  0
 10 68  1  1
 13 69  1  0
 13 70  1  0
 13 71  1  0
 14 72  1  0
 14 73  1  0
 14 74  1  0
 15 75  1  0
 15 76  1  0
 15 77  1  0
 18 78  1  1
 19 79  1  0
 19 80  1  0
 20 81  1  6
 21 82  1  0
 21 83  1  0
 29 84  1  0
 30 85  1  0
 31 86  1  0
 32 87  1  0
 34 88  1  0
 35 89  1  0
 36 90  1  0
 36 91  1  0
 41 92  1  0
 44 93  1  0
 44 94  1  0
 45 95  1  6
 47 96  1  0
 53 97  1  0
 53 98  1  0
 53 99  1  0
 54100  1  0
 54101  1  0
 55102  1  0
 55103  1  0
 56104  1  0
M  END
> <Uni-Dock RESULT> 
ENERGY=   -3.993  LOWER_BOUND=    4.121  UPPER_BOUND=    8.374
INTER + INTRA:          -3.993
INTER:                  -3.993
INTRA:                   0.000
UNBOUND:                 0.000

$$$$

     RDKit          3D

104110  0  0  0  0  0  0  0  0999 V2000
   28.4313    7.0612   34.0482 C   0  0  0  0  0  0  0  0  0  0  0  0
   29.4516    7.5851   35.0593 C   0  0  0  0  0  0  0  0  0  0  0  0
   30.7028    7.8403   34.2380 C   0  0  0  0  0  0  0  0  0  0  0  0
   30.1407    8.4557   32.9625 C   0  0  2  0  0  0  0  0  0  0  0  0
   28.8954    7.5932   32.6859 C   0  0  2  0  0  0  0  0  0  0  0  0
   31.0911    8.3080   31.9019 O   0  0  0  0  0  0  0  0  0  0  0  0
   31.1938    9.3398   31.0338 C   0  0  0  0  0  0  0  0  0  0  0  0
   31.9921    8.9561   30.0012 N   0  0  0  0  0  0  0  0  0  0  0  0
   30.6342   10.4189   31.1429 O   0  0  0  0  0  0  0  0  0  0  0  0
   32.1435    9.7491   28.7832 C   0  0  2  0  0  0  0  0  0  0  0  0
   30.9807    9.3486   27.8384 C   0  0  0  0  0  0  0  0  0  0  0  0
   33.5603    9.5751   28.1479 C   0  0  0  0  0  0  0  0  0  0  0  0
   33.6326   10.2864   26.7833 C   0  0  0  0  0  0  0  0  0  0  0  0
   33.9815    8.1048   27.9501 C   0  0  0  0  0  0  0  0  0  0  0  0
   34.6021   10.2368   29.0782 C   0  0  0  0  0  0  0  0  0  0  0  0
   30.9116    8.2677   27.2534 O   0  0  0  0  0  0  0  0  0  0  0  0
   29.9054   10.2292   27.8665 N   0  0  0  0  0  0  0  0  0  0  0  0
   27.6212   10.7429   27.9889 C   0  0  1  0  0  0  0  0  0  0  0  0
   28.6637    9.7184   28.4150 C   0  0  0  0  0  0  0  0  0  0  0  0
   29.5997   10.9910   26.6469 C   0  0  1  0  0  0  0  0  0  0  0  0
   28.0693   11.0144   26.5554 C   0  0  0  0  0  0  0  0  0  0  0  0
   26.3204   10.1691   28.0415 O   0  0  0  0  0  0  0  0  0  0  0  0
   25.3533   11.0863   28.3747 C   0  0  0  0  0  0  0  0  0  0  0  0
   25.4305   12.3124   27.8052 N   0  0  0  0  0  0  0  0  0  0  0  0
   24.4504   13.1811   28.1168 C   0  0  0  0  0  0  0  0  0  0  0  0
   23.3992   12.8284   28.9977 C   0  0  0  0  0  0  0  0  0  0  0  0
   23.3430   11.6082   29.5627 N   0  0  0  0  0  0  0  0  0  0  0  0
   24.3259   10.7151   29.2341 C   0  0  0  0  0  0  0  0  0  0  0  0
   22.4110   13.7623   29.2800 C   0  0  0  0  0  0  0  0  0  0  0  0
   22.4371   15.0382   28.7150 C   0  0  0  0  0  0  0  0  0  0  0  0
   23.4683   15.3870   27.8527 C   0  0  0  0  0  0  0  0  0  0  0  0
   24.4679   14.4568   27.5628 C   0  0  0  0  0  0  0  0  0  0  0  0
   24.2972    9.3125   29.8275 C   0  0  0  0  0  0  0  0  0  0  0  0
   25.5022    8.9866   30.6869 C   0  0  0  0  0  0  0  0  0  0  0  0
   26.0694    9.7566   31.6377 C   0  0  0  0  0  0  0  0  0  0  0  0
   27.3203    9.4201   32.4055 C   0  0  0  0  0  0  0  0  0  0  0  0
   27.8665    8.2037   31.9151 O   0  0  0  0  0  0  0  0  0  0  0  0
   24.2147    8.3684   28.8366 F   0  0  0  0  0  0  0  0  0  0  0  0
   23.1777    9.0937   30.5870 F   0  0  0  0  0  0  0  0  0  0  0  0
   30.2442   12.3894   26.7451 C   0  0  0  0  0  0  0  0  0  0  0  0
   29.7765   13.3500   25.8709 N   0  0  0  0  0  0  0  0  0  0  0  0
   31.2040   12.6403   27.4750 O   0  0  0  0  0  0  0  0  0  0  0  0
   30.1757   14.7569   25.9850 C   0  0  2  0  0  0  0  0  0  0  0  0
   29.6985   15.5289   27.2168 C   0  0  0  0  0  0  0  0  0  0  0  0
   29.0248   15.7667   25.9006 C   0  0  1  0  0  0  0  0  0  0  0  0
   31.5716   15.1326   25.4713 C   0  0  0  0  0  0  0  0  0  0  0  0
   32.5376   14.1318   25.5825 N   0  0  0  0  0  0  0  0  0  0  0  0
   31.8026   16.2460   25.0222 O   0  0  0  0  0  0  0  0  0  0  0  0
   34.1658   14.3572   25.3537 S   0  0  0  0  0  0  0  0  0  0  0  0
   34.4672   15.3687   23.8777 C   0  0  0  0  0  0  0  0  0  0  0  0
   34.6514   15.0724   26.5137 O   0  0  0  0  0  0  0  0  0  0  0  0
   34.6936   13.0497   25.0319 O   0  0  0  0  0  0  0  0  0  0  0  0
   33.8023   14.8480   22.6557 C   0  0  0  0  0  0  0  0  0  0  0  0
   34.6930   16.8399   24.1129 C   0  0  0  0  0  0  0  0  0  0  0  0
   35.8641   15.9385   23.8096 C   0  0  0  0  0  0  0  0  0  0  0  0
   29.1355   17.0638   25.1888 C   0  0  0  0  0  0  0  0  0  0  0  0
   29.1768   16.8102   23.8541 F   0  0  0  0  0  0  0  0  0  0  0  0
   27.9854   17.7578   25.4063 F   0  0  0  0  0  0  0  0  0  0  0  0
   28.4725    5.9618   34.0411 H   0  0  0  0  0  0  0  0  0  0  0  0
   27.4081    7.3358   34.3179 H   0  0  0  0  0  0  0  0  0  0  0  0
   29.6264    6.8750   35.8718 H   0  0  0  0  0  0  0  0  0  0  0  0
   29.0936    8.5235   35.5005 H   0  0  0  0  0  0  0  0  0  0  0  0
   31.4065    8.5085   34.7442 H   0  0  0  0  0  0  0  0  0  0  0  0
   31.2304    6.9040   34.0244 H   0  0  0  0  0  0  0  0  0  0  0  0
   29.8902    9.5040   33.1500 H   0  0  0  0  0  0  0  0  0  0  0  0
   29.2060    6.7288   32.0865 H   0  0  0  0  0  0  0  0  0  0  0  0
   32.1429    7.9582   29.9441 H   0  0  0  0  0  0  0  0  0  0  0  0
   32.0105   10.8014   29.0556 H   0  0  0  0  0  0  0  0  0  0  0  0
   32.9474    9.8398   26.0575 H   0  0  0  0  0  0  0  0  0  0  0  0
   33.3787   11.3449   26.8835 H   0  0  0  0  0  0  0  0  0  0  0  0
   34.6411   10.2313   26.3582 H   0  0  0  0  0  0  0  0  0  0  0  0
   34.9666    8.0436   27.4692 H   0  0  0  0  0  0  0  0  0  0  0  0
   34.0614    7.5716   28.9042 H   0  0  0  0  0  0  0  0  0  0  0  0
   33.2833    7.5553   27.3120 H   0  0  0  0  0  0  0  0  0  0  0  0
   34.3813   11.2994   29.2262 H   0  0  0  0  0  0  0  0  0  0  0  0
   35.6117   10.1579   28.6587 H   0  0  0  0  0  0  0  0  0  0  0  0
   34.6175    9.7588   30.0627 H   0  0  0  0  0  0  0  0  0  0  0  0
   27.7251   11.6384   28.6174 H   0  0  0  0  0  0  0  0  0  0  0  0
   28.7318    9.6185   29.5010 H   0  0  0  0  0  0  0  0  0  0  0  0
   28.4436    8.7245   28.0073 H   0  0  0  0  0  0  0  0  0  0  0  0
   30.0346   10.4979   25.7696 H   0  0  0  0  0  0  0  0  0  0  0  0
   27.7266   10.2086   25.8961 H   0  0  0  0  0  0  0  0  0  0  0  0
   27.6353   11.9381   26.1661 H   0  0  0  0  0  0  0  0  0  0  0  0
   21.5986   13.4823   29.9479 H   0  0  0  0  0  0  0  0  0  0  0  0
   21.6491   15.7491   28.9476 H   0  0  0  0  0  0  0  0  0  0  0  0
   23.4974   16.3776   27.4054 H   0  0  0  0  0  0  0  0  0  0  0  0
   25.2701   14.7286   26.8823 H   0  0  0  0  0  0  0  0  0  0  0  0
   25.9463    8.0223   30.4490 H   0  0  0  0  0  0  0  0  0  0  0  0
   25.6151   10.7152   31.8892 H   0  0  0  0  0  0  0  0  0  0  0  0
   28.0365   10.2320   32.2536 H   0  0  0  0  0  0  0  0  0  0  0  0
   27.0786    9.3495   33.4699 H   0  0  0  0  0  0  0  0  0  0  0  0
   29.0955   13.1112   25.1580 H   0  0  0  0  0  0  0  0  0  0  0  0
   30.3482   16.2958   27.6216 H   0  0  0  0  0  0  0  0  0  0  0  0
   29.1518   14.9923   27.9834 H   0  0  0  0  0  0  0  0  0  0  0  0
   28.0263   15.3693   25.7698 H   0  0  0  0  0  0  0  0  0  0  0  0
   32.3549   13.4059   26.2794 H   0  0  0  0  0  0  0  0  0  0  0  0
   32.7149   14.8248   22.7651 H   0  0  0  0  0  0  0  0  0  0  0  0
   34.0249   15.4754   21.7876 H   0  0  0  0  0  0  0  0  0  0  0  0
   34.1431   13.8355   22.4250 H   0  0  0  0  0  0  0  0  0  0  0  0
   34.3585   17.5339   23.3530 H   0  0  0  0  0  0  0  0  0  0  0  0
   34.5995   17.2334   25.1220 H   0  0  0  0  0  0  0  0  0  0  0  0
   36.5565   15.7257   24.6183 H   0  0  0  0  0  0  0  0  0  0  0  0
   36.3419   16.0223   22.8389 H   0  0  0  0  0  0  0  0  0  0  0  0
   29.9765   17.6987   25.4776 H   0  0  0  0  0  0  0  0  0  0  0  0
  1  2  1  0
  2  3  1  0
  4  3  1  0
  4  5  1  0
  5  1  1  0
  4  6  1  0
  6  7  1  0
  7  8  1  0
  7  9  2  0
  8 10  1  0
 10 11  1  0
 10 12  1  0
 12 13  1  0
 12 14  1  0
 12 15  1  0
 11 16  2  0
 11 17  1  0
 19 17  1  0
 17 20  1  0
 18 19  1  0
 20 21  1  0
 18 21  1  0
 18 22  1  0
 22 23  1  0
 23 24  2  0
 28 23  1  0
 24 25  1  0
 26 27  1  0
 27 28  2  0
 26 29  1  0
 25 26  2  0
 32 25  1  0
 29 30  2  0
 30 31  1  0
 31 32  2  0
 28 33  1  0
 33 34  1  0
 34 35  2  0
 35 36  1  0
 36 37  1  0
  5 37  1  0
 33 38  1  0
 33 39  1  0
 20 40  1  0
 40 41  1  0
 40 42  2  0
 43 41  1  6
 43 44  1  0
 45 43  1  0
 44 45  1  0
 43 46  1  0
 46 47  1  0
 46 48  2  0
 47 49  1  0
 49 50  1  0
 49 51  2  0
 49 52  2  0
 50 53  1  0
 50 54  1  0
 55 50  1  0
 54 55  1  0
 45 56  1  0
 56 57  1  0
 56 58  1  0
  1 59  1  0
  1 60  1  0
  2 61  1  0
  2 62  1  0
  3 63  1  0
  3 64  1  0
  4 65  1  1
  5 66  1  6
  8 67  1  0
 10 68  1  1
 13 69  1  0
 13 70  1  0
 13 71  1  0
 14 72  1  0
 14 73  1  0
 14 74  1  0
 15 75  1  0
 15 76  1  0
 15 77  1  0
 18 78  1  1
 19 79  1  0
 19 80  1  0
 20 81  1  6
 21 82  1  0
 21 83  1  0
 29 84  1  0
 30 85  1  0
 31 86  1  0
 32 87  1  0
 34 88  1  0
 35 89  1  0
 36 90  1  0
 36 91  1  0
 41 92  1  0
 44 93  1  0
 44 94  1  0
 45 95  1  6
 47 96  1  0
 53 97  1  0
 53 98  1  0
 53 99  1  0
 54100  1  0
 54101  1  0
 55102  1  0
 55103  1  0
 56104  1  0
M  END
> <Uni-Dock RESULT> 
ENERGY=   -3.953  LOWER_BOUND=    4.463  UPPER_BOUND=    9.649
INTER + INTRA:          -3.953
INTER:                  -3.953
INTRA:                   0.000
UNBOUND:                 0.000

$$$$

     RDKit          3D

104110  0  0  0  0  0  0  0  0999 V2000
   38.6001   11.7896   31.6663 C   0  0  0  0  0  0  0  0  0  0  0  0
   38.4706   13.1594   32.3332 C   0  0  0  0  0  0  0  0  0  0  0  0
   37.8345   14.0393   31.2718 C   0  0  0  0  0  0  0  0  0  0  0  0
   36.7905   13.1143   30.6585 C   0  0  2  0  0  0  0  0  0  0  0  0
   37.5383   11.7719   30.5589 C   0  0  2  0  0  0  0  0  0  0  0  0
   36.4433   13.5860   29.3520 O   0  0  0  0  0  0  0  0  0  0  0  0
   35.1450   13.4688   28.9920 C   0  0  0  0  0  0  0  0  0  0  0  0
   35.0332   13.7857   27.6737 N   0  0  0  0  0  0  0  0  0  0  0  0
   34.2355   13.1049   29.7200 O   0  0  0  0  0  0  0  0  0  0  0  0
   33.8092   13.5597   26.9082 C   0  0  2  0  0  0  0  0  0  0  0  0
   33.8610   12.0955   26.3994 C   0  0  0  0  0  0  0  0  0  0  0  0
   33.6306   14.6161   25.7710 C   0  0  0  0  0  0  0  0  0  0  0  0
   32.4266   14.2545   24.8806 C   0  0  0  0  0  0  0  0  0  0  0  0
   34.8695   14.7786   24.8671 C   0  0  0  0  0  0  0  0  0  0  0  0
   33.3415   15.9904   26.4163 C   0  0  0  0  0  0  0  0  0  0  0  0
   34.6163   11.7031   25.5102 O   0  0  0  0  0  0  0  0  0  0  0  0
   33.1298   11.2046   27.1768 N   0  0  0  0  0  0  0  0  0  0  0  0
   32.8412    9.1934   28.3465 C   0  0  1  0  0  0  0  0  0  0  0  0
   33.8888   10.2063   27.9054 C   0  0  0  0  0  0  0  0  0  0  0  0
   31.9599   10.5525   26.5708 C   0  0  1  0  0  0  0  0  0  0  0  0
   31.9896    9.1074   27.0829 C   0  0  0  0  0  0  0  0  0  0  0  0
   33.4613    7.9512   28.6573 O   0  0  0  0  0  0  0  0  0  0  0  0
   32.8134    7.2765   29.6636 C   0  0  0  0  0  0  0  0  0  0  0  0
   31.4596    7.2661   29.6399 N   0  0  0  0  0  0  0  0  0  0  0  0
   30.8481    6.5663   30.6140 C   0  0  0  0  0  0  0  0  0  0  0  0
   31.5859    5.8830   31.6111 C   0  0  0  0  0  0  0  0  0  0  0  0
   32.9312    5.9117   31.6255 N   0  0  0  0  0  0  0  0  0  0  0  0
   33.5580    6.6052   30.6265 C   0  0  0  0  0  0  0  0  0  0  0  0
   30.9034    5.1718   32.5894 C   0  0  0  0  0  0  0  0  0  0  0  0
   29.5088    5.1211   32.6084 C   0  0  0  0  0  0  0  0  0  0  0  0
   28.7834    5.7924   31.6328 C   0  0  0  0  0  0  0  0  0  0  0  0
   29.4587    6.5117   30.6454 C   0  0  0  0  0  0  0  0  0  0  0  0
   35.0800    6.6509   30.5824 C   0  0  0  0  0  0  0  0  0  0  0  0
   35.6548    8.0466   30.7177 C   0  0  0  0  0  0  0  0  0  0  0  0
   35.3023    9.0013   31.6024 C   0  0  0  0  0  0  0  0  0  0  0  0
   35.8473   10.4046   31.6395 C   0  0  0  0  0  0  0  0  0  0  0  0
   36.7291   10.6012   30.5431 O   0  0  0  0  0  0  0  0  0  0  0  0
   35.5475    6.1108   29.4120 F   0  0  0  0  0  0  0  0  0  0  0  0
   35.6503    5.8736   31.5564 F   0  0  0  0  0  0  0  0  0  0  0  0
   30.6852   11.3301   26.9594 C   0  0  0  0  0  0  0  0  0  0  0  0
   29.4823   10.6764   26.7823 N   0  0  0  0  0  0  0  0  0  0  0  0
   30.6952   12.5120   27.3061 O   0  0  0  0  0  0  0  0  0  0  0  0
   28.2204   11.2343   27.2805 C   0  0  2  0  0  0  0  0  0  0  0  0
   28.0394   11.3280   28.7969 C   0  0  0  0  0  0  0  0  0  0  0  0
   27.3303   10.2456   28.0430 C   0  0  1  0  0  0  0  0  0  0  0  0
   27.5900   12.3737   26.4695 C   0  0  0  0  0  0  0  0  0  0  0  0
   28.4933   13.2024   25.8029 N   0  0  0  0  0  0  0  0  0  0  0  0
   26.3788   12.5379   26.4440 O   0  0  0  0  0  0  0  0  0  0  0  0
   28.1017   14.6457   25.0833 S   0  0  0  0  0  0  0  0  0  0  0  0
   26.5655   14.4860   24.1309 C   0  0  0  0  0  0  0  0  0  0  0  0
   27.8882   15.5964   26.1526 O   0  0  0  0  0  0  0  0  0  0  0  0
   29.1358   14.8780   24.0993 O   0  0  0  0  0  0  0  0  0  0  0  0
   26.5866   13.3670   23.1542 C   0  0  0  0  0  0  0  0  0  0  0  0
   25.3036   14.9350   24.8215 C   0  0  0  0  0  0  0  0  0  0  0  0
   25.9373   15.8108   23.7692 C   0  0  0  0  0  0  0  0  0  0  0  0
   25.8523   10.2212   27.9154 C   0  0  0  0  0  0  0  0  0  0  0  0
   25.5435    9.7410   26.6818 F   0  0  0  0  0  0  0  0  0  0  0  0
   25.3722    9.3114   28.8062 F   0  0  0  0  0  0  0  0  0  0  0  0
   39.5990   11.7101   31.2121 H   0  0  0  0  0  0  0  0  0  0  0  0
   38.5168   10.9725   32.3878 H   0  0  0  0  0  0  0  0  0  0  0  0
   39.4367   13.5461   32.6681 H   0  0  0  0  0  0  0  0  0  0  0  0
   37.8120   13.0893   33.2076 H   0  0  0  0  0  0  0  0  0  0  0  0
   37.3879   14.9456   31.6924 H   0  0  0  0  0  0  0  0  0  0  0  0
   38.5732   14.3500   30.5246 H   0  0  0  0  0  0  0  0  0  0  0  0
   35.9231   13.0616   31.3229 H   0  0  0  0  0  0  0  0  0  0  0  0
   38.0683   11.7476   29.5989 H   0  0  0  0  0  0  0  0  0  0  0  0
   35.9130   13.7997   27.1760 H   0  0  0  0  0  0  0  0  0  0  0  0
   32.9656   13.6472   27.6010 H   0  0  0  0  0  0  0  0  0  0  0  0
   32.5813   13.3073   24.3563 H   0  0  0  0  0  0  0  0  0  0  0  0
   31.5149   14.1675   25.4773 H   0  0  0  0  0  0  0  0  0  0  0  0
   32.2476   15.0236   24.1208 H   0  0  0  0  0  0  0  0  0  0  0  0
   34.6750   15.5050   24.0672 H   0  0  0  0  0  0  0  0  0  0  0  0
   35.7366   15.1482   25.4263 H   0  0  0  0  0  0  0  0  0  0  0  0
   35.1543   13.8411   24.3808 H   0  0  0  0  0  0  0  0  0  0  0  0
   32.4433   15.9521   27.0421 H   0  0  0  0  0  0  0  0  0  0  0  0
   33.1864   16.7602   25.6515 H   0  0  0  0  0  0  0  0  0  0  0  0
   34.1740   16.3174   27.0469 H   0  0  0  0  0  0  0  0  0  0  0  0
   32.2708    9.6146   29.1861 H   0  0  0  0  0  0  0  0  0  0  0  0
   34.4140   10.6589   28.7500 H   0  0  0  0  0  0  0  0  0  0  0  0
   34.6449    9.7489   27.2561 H   0  0  0  0  0  0  0  0  0  0  0  0
   32.0316   10.5794   25.4771 H   0  0  0  0  0  0  0  0  0  0  0  0
   32.4794    8.4638   26.3433 H   0  0  0  0  0  0  0  0  0  0  0  0
   31.0140    8.6597   27.2847 H   0  0  0  0  0  0  0  0  0  0  0  0
   31.4751    4.6382   33.3463 H   0  0  0  0  0  0  0  0  0  0  0  0
   28.9987    4.5532   33.3814 H   0  0  0  0  0  0  0  0  0  0  0  0
   27.6967    5.7580   31.6371 H   0  0  0  0  0  0  0  0  0  0  0  0
   28.8900    7.0305   29.8786 H   0  0  0  0  0  0  0  0  0  0  0  0
   36.4141    8.2683   29.9707 H   0  0  0  0  0  0  0  0  0  0  0  0
   34.5542    8.7745   32.3624 H   0  0  0  0  0  0  0  0  0  0  0  0
   35.0033   11.0950   31.5605 H   0  0  0  0  0  0  0  0  0  0  0  0
   36.3547   10.5661   32.5948 H   0  0  0  0  0  0  0  0  0  0  0  0
   29.4522    9.7597   26.3490 H   0  0  0  0  0  0  0  0  0  0  0  0
   27.4648   12.1575   29.1917 H   0  0  0  0  0  0  0  0  0  0  0  0
   28.8700   11.0494   29.4348 H   0  0  0  0  0  0  0  0  0  0  0  0
   27.6979    9.2334   28.1551 H   0  0  0  0  0  0  0  0  0  0  0  0
   29.4478   13.2145   26.1701 H   0  0  0  0  0  0  0  0  0  0  0  0
   26.7144   12.4005   23.6484 H   0  0  0  0  0  0  0  0  0  0  0  0
   25.6508   13.3184   22.5896 H   0  0  0  0  0  0  0  0  0  0  0  0
   27.3988   13.4910   22.4333 H   0  0  0  0  0  0  0  0  0  0  0  0
   24.3827   14.4186   24.5847 H   0  0  0  0  0  0  0  0  0  0  0  0
   25.3564   15.2616   25.8570 H   0  0  0  0  0  0  0  0  0  0  0  0
   26.4179   16.7261   24.1007 H   0  0  0  0  0  0  0  0  0  0  0  0
   25.4420   15.9033   22.8080 H   0  0  0  0  0  0  0  0  0  0  0  0
   25.3405   11.1707   28.0887 H   0  0  0  0  0  0  0  0  0  0  0  0
  1  2  1  0
  2  3  1  0
  4  3  1  0
  4  5  1  0
  5  1  1  0
  4  6  1  0
  6  7  1  0
  7  8  1  0
  7  9  2  0
  8 10  1  0
 10 11  1  0
 10 12  1  0
 12 13  1  0
 12 14  1  0
 12 15  1  0
 11 16  2  0
 11 17  1  0
 19 17  1  0
 17 20  1  0
 18 19  1  0
 20 21  1  0
 18 21  1  0
 18 22  1  0
 22 23  1  0
 23 24  2  0
 28 23  1  0
 24 25  1  0
 26 27  1  0
 27 28  2  0
 26 29  1  0
 25 26  2  0
 32 25  1  0
 29 30  2  0
 30 31  1  0
 31 32  2  0
 28 33  1  0
 33 34  1  0
 34 35  2  0
 35 36  1  0
 36 37  1  0
  5 37  1  0
 33 38  1  0
 33 39  1  0
 20 40  1  0
 40 41  1  0
 40 42  2  0
 43 41  1  6
 43 44  1  0
 45 43  1  0
 44 45  1  0
 43 46  1  0
 46 47  1  0
 46 48  2  0
 47 49  1  0
 49 50  1  0
 49 51  2  0
 49 52  2  0
 50 53  1  0
 50 54  1  0
 55 50  1  0
 54 55  1  0
 45 56  1  0
 56 57  1  0
 56 58  1  0
  1 59  1  0
  1 60  1  0
  2 61  1  0
  2 62  1  0
  3 63  1  0
  3 64  1  0
  4 65  1  1
  5 66  1  6
  8 67  1  0
 10 68  1  1
 13 69  1  0
 13 70  1  0
 13 71  1  0
 14 72  1  0
 14 73  1  0
 14 74  1  0
 15 75  1  0
 15 76  1  0
 15 77  1  0
 18 78  1  1
 19 79  1  0
 19 80  1  0
 20 81  1  6
 21 82  1  0
 21 83  1  0
 29 84  1  0
 30 85  1  0
 31 86  1  0
 32 87  1  0
 34 88  1  0
 35 89  1  0
 36 90  1  0
 36 91  1  0
 41 92  1  0
 44 93  1  0
 44 94  1  0
 45 95  1  6
 47 96  1  0
 53 97  1  0
 53 98  1  0
 53 99  1  0
 54100  1  0
 54101  1  0
 55102  1  0
 55103  1  0
 56104  1  0
M  END
> <Uni-Dock RESULT> 
ENERGY=   -3.889  LOWER_BOUND=    4.580  UPPER_BOUND=   10.305
INTER + INTRA:          -3.889
INTER:                  -3.889
INTRA:                   0.000
UNBOUND:                 0.000

$$$$

     RDKit          3D

104110  0  0  0  0  0  0  0  0999 V2000
   33.7528   13.5336   26.5740 C   0  0  0  0  0  0  0  0  0  0  0  0
   34.3811   12.8509   25.3588 C   0  0  0  0  0  0  0  0  0  0  0  0
   35.0729   11.6250   25.9280 C   0  0  0  0  0  0  0  0  0  0  0  0
   34.0655   11.1250   26.9560 C   0  0  2  0  0  0  0  0  0  0  0  0
   33.5809   12.4261   27.6219 C   0  0  2  0  0  0  0  0  0  0  0  0
   34.7326   10.2966   27.9145 O   0  0  0  0  0  0  0  0  0  0  0  0
   34.0504    9.2171   28.3597 C   0  0  0  0  0  0  0  0  0  0  0  0
   34.7473    8.6606   29.3870 N   0  0  0  0  0  0  0  0  0  0  0  0
   32.9738    8.8312   27.9335 O   0  0  0  0  0  0  0  0  0  0  0  0
   34.1953    7.6082   30.2373 C   0  0  2  0  0  0  0  0  0  0  0  0
   33.3910    8.3131   31.3604 C   0  0  0  0  0  0  0  0  0  0  0  0
   35.3060    6.6453   30.7667 C   0  0  0  0  0  0  0  0  0  0  0  0
   34.7198    5.6531   31.7891 C   0  0  0  0  0  0  0  0  0  0  0  0
   36.5001    7.3676   31.4231 C   0  0  0  0  0  0  0  0  0  0  0  0
   35.8547    5.8248   29.5774 C   0  0  0  0  0  0  0  0  0  0  0  0
   33.9070    8.9382   32.2867 O   0  0  0  0  0  0  0  0  0  0  0  0
   32.0220    8.3638   31.1238 N   0  0  0  0  0  0  0  0  0  0  0  0
   29.9512    9.4592   31.0321 C   0  0  1  0  0  0  0  0  0  0  0  0
   31.4519    9.6780   30.8969 C   0  0  0  0  0  0  0  0  0  0  0  0
   31.1333    7.6178   32.0264 C   0  0  1  0  0  0  0  0  0  0  0  0
   29.9150    8.5245   32.2380 C   0  0  0  0  0  0  0  0  0  0  0  0
   29.2977   10.6952   31.2954 O   0  0  0  0  0  0  0  0  0  0  0  0
   28.0372   10.7508   30.7517 C   0  0  0  0  0  0  0  0  0  0  0  0
   27.2625    9.6449   30.8529 N   0  0  0  0  0  0  0  0  0  0  0  0
   26.0181    9.7362   30.3473 C   0  0  0  0  0  0  0  0  0  0  0  0
   25.5504   10.9263   29.7385 C   0  0  0  0  0  0  0  0  0  0  0  0
   26.3372   12.0134   29.6377 N   0  0  0  0  0  0  0  0  0  0  0  0
   27.5961   11.9323   30.1674 C   0  0  0  0  0  0  0  0  0  0  0  0
   24.2556   10.9666   29.2384 C   0  0  0  0  0  0  0  0  0  0  0  0
   23.4113    9.8585   29.3226 C   0  0  0  0  0  0  0  0  0  0  0  0
   23.8687    8.6897   29.9172 C   0  0  0  0  0  0  0  0  0  0  0  0
   25.1690    8.6371   30.4221 C   0  0  0  0  0  0  0  0  0  0  0  0
   28.5200   13.1416   30.1006 C   0  0  0  0  0  0  0  0  0  0  0  0
   29.7870   12.9007   29.3049 C   0  0  0  0  0  0  0  0  0  0  0  0
   29.9038   12.3052   28.1007 C   0  0  0  0  0  0  0  0  0  0  0  0
   31.1991   12.0138   27.3901 C   0  0  0  0  0  0  0  0  0  0  0  0
   32.2906   12.3829   28.2211 O   0  0  0  0  0  0  0  0  0  0  0  0
   28.8801   13.5466   31.3601 F   0  0  0  0  0  0  0  0  0  0  0  0
   27.8989   14.2395   29.5650 F   0  0  0  0  0  0  0  0  0  0  0  0
   30.7965    6.2511   31.3945 C   0  0  0  0  0  0  0  0  0  0  0  0
   29.7134    5.5755   31.9199 N   0  0  0  0  0  0  0  0  0  0  0  0
   31.5015    5.7099   30.5417 O   0  0  0  0  0  0  0  0  0  0  0  0
   29.1831    4.3606   31.2916 C   0  0  2  0  0  0  0  0  0  0  0  0
   28.5295    4.5045   29.9158 C   0  0  0  0  0  0  0  0  0  0  0  0
   27.6594    4.3300   31.1222 C   0  0  1  0  0  0  0  0  0  0  0  0
   29.9609    3.0580   31.5192 C   0  0  0  0  0  0  0  0  0  0  0  0
   31.3394    3.2060   31.6768 N   0  0  0  0  0  0  0  0  0  0  0  0
   29.3929    1.9755   31.5334 O   0  0  0  0  0  0  0  0  0  0  0  0
   32.4331    1.9578   31.6698 S   0  0  0  0  0  0  0  0  0  0  0  0
   31.8250    0.5730   32.6724 C   0  0  0  0  0  0  0  0  0  0  0  0
   32.5518    1.5195   30.2963 O   0  0  0  0  0  0  0  0  0  0  0  0
   33.5918    2.4576   32.3764 O   0  0  0  0  0  0  0  0  0  0  0  0
   31.4387    0.9642   34.0523 C   0  0  0  0  0  0  0  0  0  0  0  0
   31.1392   -0.5408   31.9240 C   0  0  0  0  0  0  0  0  0  0  0  0
   32.5533   -0.7250   32.4165 C   0  0  0  0  0  0  0  0  0  0  0  0
   26.8456    3.1067   31.3287 C   0  0  0  0  0  0  0  0  0  0  0  0
   26.8284    2.8315   32.6597 F   0  0  0  0  0  0  0  0  0  0  0  0
   25.5612    3.3981   30.9864 F   0  0  0  0  0  0  0  0  0  0  0  0
   34.4542   14.2896   26.9573 H   0  0  0  0  0  0  0  0  0  0  0  0
   32.8309   14.0618   26.3168 H   0  0  0  0  0  0  0  0  0  0  0  0
   35.0743   13.5102   24.8300 H   0  0  0  0  0  0  0  0  0  0  0  0
   33.5978   12.5469   24.6535 H   0  0  0  0  0  0  0  0  0  0  0  0
   35.2899   10.8737   25.1624 H   0  0  0  0  0  0  0  0  0  0  0  0
   36.0215   11.8952   26.4052 H   0  0  0  0  0  0  0  0  0  0  0  0
   33.2600   10.5939   26.4403 H   0  0  0  0  0  0  0  0  0  0  0  0
   34.2580   12.6558   28.4536 H   0  0  0  0  0  0  0  0  0  0  0  0
   35.4646    9.2598   29.7723 H   0  0  0  0  0  0  0  0  0  0  0  0
   33.4917    7.0285   29.6304 H   0  0  0  0  0  0  0  0  0  0  0  0
   34.3485    6.1642   32.6817 H   0  0  0  0  0  0  0  0  0  0  0  0
   33.8922    5.0888   31.3516 H   0  0  0  0  0  0  0  0  0  0  0  0
   35.4727    4.9275   32.1169 H   0  0  0  0  0  0  0  0  0  0  0  0
   37.2299    6.6429   31.8071 H   0  0  0  0  0  0  0  0  0  0  0  0
   37.0332    8.0057   30.7092 H   0  0  0  0  0  0  0  0  0  0  0  0
   36.1947    7.9884   32.2704 H   0  0  0  0  0  0  0  0  0  0  0  0
   35.0575    5.2524   29.0909 H   0  0  0  0  0  0  0  0  0  0  0  0
   36.6238    5.1172   29.9081 H   0  0  0  0  0  0  0  0  0  0  0  0
   36.3087    6.4735   28.8217 H   0  0  0  0  0  0  0  0  0  0  0  0
   29.5820    8.9587   30.1260 H   0  0  0  0  0  0  0  0  0  0  0  0
   31.7317   10.0570   29.9110 H   0  0  0  0  0  0  0  0  0  0  0  0
   31.8246   10.3923   31.6409 H   0  0  0  0  0  0  0  0  0  0  0  0
   31.6382    7.4157   32.9784 H   0  0  0  0  0  0  0  0  0  0  0  0
   30.0392    9.0998   33.1626 H   0  0  0  0  0  0  0  0  0  0  0  0
   28.9547    8.0106   32.3202 H   0  0  0  0  0  0  0  0  0  0  0  0
   23.8967   11.8875   28.7826 H   0  0  0  0  0  0  0  0  0  0  0  0
   22.4006    9.9172   28.9286 H   0  0  0  0  0  0  0  0  0  0  0  0
   23.2188    7.8211   29.9898 H   0  0  0  0  0  0  0  0  0  0  0  0
   25.5230    7.7244   30.8933 H   0  0  0  0  0  0  0  0  0  0  0  0
   30.6842   13.2351   29.8217 H   0  0  0  0  0  0  0  0  0  0  0  0
   29.0043   11.9856   27.5740 H   0  0  0  0  0  0  0  0  0  0  0  0
   31.2376   10.9400   27.1884 H   0  0  0  0  0  0  0  0  0  0  0  0
   31.2168   12.5578   26.4414 H   0  0  0  0  0  0  0  0  0  0  0  0
   29.2206    5.9399   32.7281 H   0  0  0  0  0  0  0  0  0  0  0  0
   28.6288    3.6836   29.2154 H   0  0  0  0  0  0  0  0  0  0  0  0
   28.5489    5.4746   29.4332 H   0  0  0  0  0  0  0  0  0  0  0  0
   27.1054    5.1929   31.4694 H   0  0  0  0  0  0  0  0  0  0  0  0
   31.7467    4.0620   31.2929 H   0  0  0  0  0  0  0  0  0  0  0  0
   30.6241    1.6930   34.0535 H   0  0  0  0  0  0  0  0  0  0  0  0
   31.0966    0.0984   34.6268 H   0  0  0  0  0  0  0  0  0  0  0  0
   32.2861    1.3995   34.5882 H   0  0  0  0  0  0  0  0  0  0  0  0
   30.3398   -1.0723   32.4232 H   0  0  0  0  0  0  0  0  0  0  0  0
   30.9807   -0.4378   30.8535 H   0  0  0  0  0  0  0  0  0  0  0  0
   33.3450   -0.7436   31.6739 H   0  0  0  0  0  0  0  0  0  0  0  0
   32.7254   -1.3953   33.2524 H   0  0  0  0  0  0  0  0  0  0  0  0
   27.1564    2.2235   30.7657 H   0  0  0  0  0  0  0  0  0  0  0  0
  1  2  1  0
  2  3  1  0
  4  3  1  0
  4  5  1  0
  5  1  1  0
  4  6  1  0
  6  7  1  0
  7  8  1  0
  7  9  2  0
  8 10  1  0
 10 11  1  0
 10 12  1  0
 12 13  1  0
 12 14  1  0
 12 15  1  0
 11 16  2  0
 11 17  1  0
 19 17  1  0
 17 20  1  0
 18 19  1  0
 20 21  1  0
 18 21  1  0
 18 22  1  0
 22 23  1  0
 23 24  2  0
 28 23  1  0
 24 25  1  0
 26 27  1  0
 27 28  2  0
 26 29  1  0
 25 26  2  0
 32 25  1  0
 29 30  2  0
 30 31  1  0
 31 32  2  0
 28 33  1  0
 33 34  1  0
 34 35  2  0
 35 36  1  0
 36 37  1  0
  5 37  1  0
 33 38  1  0
 33 39  1  0
 20 40  1  0
 40 41  1  0
 40 42  2  0
 43 41  1  6
 43 44  1  0
 45 43  1  0
 44 45  1  0
 43 46  1  0
 46 47  1  0
 46 48  2  0
 47 49  1  0
 49 50  1  0
 49 51  2  0
 49 52  2  0
 50 53  1  0
 50 54  1  0
 55 50  1  0
 54 55  1  0
 45 56  1  0
 56 57  1  0
 56 58  1  0
  1 59  1  0
  1 60  1  0
  2 61  1  0
  2 62  1  0
  3 63  1  0
  3 64  1  0
  4 65  1  1
  5 66  1  6
  8 67  1  0
 10 68  1  1
 13 69  1  0
 13 70  1  0
 13 71  1  0
 14 72  1  0
 14 73  1  0
 14 74  1  0
 15 75  1  0
 15 76  1  0
 15 77  1  0
 18 78  1  1
 19 79  1  0
 19 80  1  0
 20 81  1  6
 21 82  1  0
 21 83  1  0
 29 84  1  0
 30 85  1  0
 31 86  1  0
 32 87  1  0
 34 88  1  0
 35 89  1  0
 36 90  1  0
 36 91  1  0
 41 92  1  0
 44 93  1  0
 44 94  1  0
 45 95  1  6
 47 96  1  0
 53 97  1  0
 53 98  1  0
 53 99  1  0
 54100  1  0
 54101  1  0
 55102  1  0
 55103  1  0
 56104  1  0
M  END
> <Uni-Dock RESULT> 
ENERGY=   -3.779  LOWER_BOUND=    2.762  UPPER_BOUND=    3.996
INTER + INTRA:          -3.779
INTER:                  -3.779
INTRA:                   0.000
UNBOUND:                 0.000

$$$$
